
  -OEChem-03222214013D

 36 35  0     1  0  0  0  0  0999 V2000
   -4.0303   -4.1009    2.0289 H   0  0  0  0  0  0  0  0  0  0  0  0
   -4.0532   -3.0987    1.5918 C   0  0  0  0  0  0  0  0  0  0  0  0
   -4.7092   -2.4674    2.1962 H   0  0  0  0  0  0  0  0  0  0  0  0
   -4.4555   -3.1659    0.5782 H   0  0  0  0  0  0  0  0  0  0  0  0
   -2.6551   -2.5120    1.5575 C   0  0  0  0  0  0  0  0  0  0  0  0
   -1.7029   -3.1672    1.9510 O   0  0  0  0  0  0  0  0  0  0  0  0
   -2.4515   -1.2360    1.0718 N   0  0  0  0  0  0  0  0  0  0  0  0
   -3.2780   -0.6917    0.8261 H   0  0  0  0  0  0  0  0  0  0  0  0
   -1.1710   -0.5201    1.1471 C   0  0  1  0  0  0  0  0  0  0  0  0
   -0.5044   -1.0002    1.8716 H   0  0  0  0  0  0  0  0  0  0  0  0
   -0.5373   -0.5947   -0.2541 C   0  0  0  0  0  0  0  0  0  0  0  0
   -0.4094   -1.6489   -0.5245 H   0  0  0  0  0  0  0  0  0  0  0  0
   -1.2253   -0.1471   -0.9803 H   0  0  0  0  0  0  0  0  0  0  0  0
    0.8208    0.1140   -0.3419 C   0  0  0  0  0  0  0  0  0  0  0  0
    0.7067    1.1745   -0.0918 H   0  0  0  0  0  0  0  0  0  0  0  0
    1.5198   -0.3362    0.3714 H   0  0  0  0  0  0  0  0  0  0  0  0
    1.3634   -0.0167   -1.7635 C   0  0  0  0  0  0  0  0  0  0  0  0
    1.5075   -1.0782   -1.9942 H   0  0  0  0  0  0  0  0  0  0  0  0
    0.6279    0.3938   -2.4644 H   0  0  0  0  0  0  0  0  0  0  0  0
    2.6395    0.7109   -1.8901 N   0  3  0  0  0  0  0  0  0  0  0  0
    2.9272    1.2855   -1.0993 H   0  0  0  0  0  0  0  0  0  0  0  0
    3.3804    0.6834   -2.9602 C   0  0  0  0  0  0  0  0  0  0  0  0
    3.0212   -0.0427   -4.0730 N   0  0  0  0  0  0  0  0  0  0  0  0
    2.0782   -0.4247   -4.1073 H   0  0  0  0  0  0  0  0  0  0  0  0
    3.4924    0.1492   -4.9548 H   0  0  0  0  0  0  0  0  0  0  0  0
    4.5537    1.3988   -2.9930 N   0  0  0  0  0  0  0  0  0  0  0  0
    4.9124    1.7940   -2.1258 H   0  0  0  0  0  0  0  0  0  0  0  0
    5.2173    1.2097   -3.7422 H   0  0  0  0  0  0  0  0  0  0  0  0
   -1.3935    0.9332    1.6101 C   0  0  0  0  0  0  0  0  0  0  0  0
   -2.2329    1.6237    1.0470 O   0  0  0  0  0  0  0  0  0  0  0  0
   -0.5788    1.4968    2.5761 N   0  0  0  0  0  0  0  0  0  0  0  0
   -0.0038    0.8591    3.1209 H   0  0  0  0  0  0  0  0  0  0  0  0
   -0.8015    2.8412    3.0998 C   0  0  0  0  0  0  0  0  0  0  0  0
   -1.7830    2.9074    3.5817 H   0  0  0  0  0  0  0  0  0  0  0  0
   -0.0353    3.0930    3.8396 H   0  0  0  0  0  0  0  0  0  0  0  0
   -0.7566    3.5811    2.2934 H   0  0  0  0  0  0  0  0  0  0  0  0
  1  2  1  0  0  0  0
  2  3  1  0  0  0  0
  2  4  1  0  0  0  0
  2  5  1  0  0  0  0
  5  6  2  0  0  0  0
  5  7  1  0  0  0  0
  7  8  1  0  0  0  0
  7  9  1  0  0  0  0
  9 10  1  0  0  0  0
  9 11  1  0  0  0  0
  9 29  1  0  0  0  0
 11 12  1  0  0  0  0
 11 13  1  0  0  0  0
 11 14  1  0  0  0  0
 14 15  1  0  0  0  0
 14 16  1  0  0  0  0
 14 17  1  0  0  0  0
 17 18  1  0  0  0  0
 17 19  1  0  0  0  0
 17 20  1  0  0  0  0
 20 21  1  0  0  0  0
 20 22  2  0  0  0  0
 22 23  1  0  0  0  0
 22 26  1  0  0  0  0
 23 24  1  0  0  0  0
 23 25  1  0  0  0  0
 26 27  1  0  0  0  0
 26 28  1  0  0  0  0
 29 30  2  0  0  0  0
 29 31  1  0  0  0  0
 31 32  1  0  0  0  0
 31 33  1  0  0  0  0
 33 34  1  0  0  0  0
 33 35  1  0  0  0  0
 33 36  1  0  0  0  0
M  CHG  1  20   1
M  END
$$$$

  -OEChem-03222214013D

 36 35  0     1  0  0  0  0  0999 V2000
   -4.0346   -4.0967    2.0206 H   0  0  0  0  0  0  0  0  0  0  0  0
   -4.0542   -3.0955    1.5810 C   0  0  0  0  0  0  0  0  0  0  0  0
   -4.7140   -2.4628    2.1796 H   0  0  0  0  0  0  0  0  0  0  0  0
   -4.4496   -3.1649    0.5648 H   0  0  0  0  0  0  0  0  0  0  0  0
   -2.6554   -2.5099    1.5549 C   0  0  0  0  0  0  0  0  0  0  0  0
   -1.7068   -3.1652    1.9566 O   0  0  0  0  0  0  0  0  0  0  0  0
   -2.4478   -1.2333    1.0720 N   0  0  0  0  0  0  0  0  0  0  0  0
   -3.2727   -0.6890    0.8214 H   0  0  0  0  0  0  0  0  0  0  0  0
   -1.1669   -0.5184    1.1553 C   0  0  1  0  0  0  0  0  0  0  0  0
   -0.5030   -0.9996    1.8814 H   0  0  0  0  0  0  0  0  0  0  0  0
   -0.5288   -0.5935   -0.2457 C   0  0  0  0  0  0  0  0  0  0  0  0
   -0.4094   -1.6446   -0.5312 H   0  0  0  0  0  0  0  0  0  0  0  0
   -1.2222   -0.1347   -0.9601 H   0  0  0  0  0  0  0  0  0  0  0  0
    0.8339    0.1099   -0.3461 C   0  0  0  0  0  0  0  0  0  0  0  0
    0.7912    1.0944    0.1308 H   0  0  0  0  0  0  0  0  0  0  0  0
    1.5968   -0.4865    0.1664 H   0  0  0  0  0  0  0  0  0  0  0  0
    1.1933    0.2988   -1.8188 C   0  0  0  0  0  0  0  0  0  0  0  0
    1.2678   -0.6845   -2.2967 H   0  0  0  0  0  0  0  0  0  0  0  0
    0.3934    0.8640   -2.3103 H   0  0  0  0  0  0  0  0  0  0  0  0
    2.4708    1.0238   -1.9447 N   0  3  0  0  0  0  0  0  0  0  0  0
    2.8874    1.3843   -1.0874 H   0  0  0  0  0  0  0  0  0  0  0  0
    3.0567    1.2532   -3.0846 C   0  0  0  0  0  0  0  0  0  0  0  0
    2.5187    0.8231   -4.2764 N   0  0  0  0  0  0  0  0  0  0  0  0
    1.5668    0.4625   -4.2657 H   0  0  0  0  0  0  0  0  0  0  0  0
    2.8698    1.2226   -5.1443 H   0  0  0  0  0  0  0  0  0  0  0  0
    4.2434    1.9464   -3.1108 N   0  0  0  0  0  0  0  0  0  0  0  0
    4.7342    2.1124   -2.2343 H   0  0  0  0  0  0  0  0  0  0  0  0
    4.7895    1.9432   -3.9706 H   0  0  0  0  0  0  0  0  0  0  0  0
   -1.3989    0.9333    1.6198 C   0  0  0  0  0  0  0  0  0  0  0  0
   -2.2281    1.6254    1.0434 O   0  0  0  0  0  0  0  0  0  0  0  0
   -0.5934    1.4979    2.5928 N   0  0  0  0  0  0  0  0  0  0  0  0
   -0.0260    0.8597    3.1454 H   0  0  0  0  0  0  0  0  0  0  0  0
   -0.8168    2.8443    3.1113 C   0  0  0  0  0  0  0  0  0  0  0  0
   -1.7999    2.9135    3.5896 H   0  0  0  0  0  0  0  0  0  0  0  0
   -0.0526    3.0973    3.8531 H   0  0  0  0  0  0  0  0  0  0  0  0
   -0.7680    3.5819    2.3031 H   0  0  0  0  0  0  0  0  0  0  0  0
  1  2  1  0  0  0  0
  2  3  1  0  0  0  0
  2  4  1  0  0  0  0
  2  5  1  0  0  0  0
  5  6  2  0  0  0  0
  5  7  1  0  0  0  0
  7  8  1  0  0  0  0
  7  9  1  0  0  0  0
  9 10  1  0  0  0  0
  9 11  1  0  0  0  0
  9 29  1  0  0  0  0
 11 12  1  0  0  0  0
 11 13  1  0  0  0  0
 11 14  1  0  0  0  0
 14 15  1  0  0  0  0
 14 16  1  0  0  0  0
 14 17  1  0  0  0  0
 17 18  1  0  0  0  0
 17 19  1  0  0  0  0
 17 20  1  0  0  0  0
 20 21  1  0  0  0  0
 20 22  2  0  0  0  0
 22 23  1  0  0  0  0
 22 26  1  0  0  0  0
 23 24  1  0  0  0  0
 23 25  1  0  0  0  0
 26 27  1  0  0  0  0
 26 28  1  0  0  0  0
 29 30  2  0  0  0  0
 29 31  1  0  0  0  0
 31 32  1  0  0  0  0
 31 33  1  0  0  0  0
 33 34  1  0  0  0  0
 33 35  1  0  0  0  0
 33 36  1  0  0  0  0
M  CHG  1  20   1
M  END
$$$$

  -OEChem-03222214013D

 36 35  0     1  0  0  0  0  0999 V2000
   -3.9912   -4.1421    1.9581 H   0  0  0  0  0  0  0  0  0  0  0  0
   -4.0281   -3.1219    1.5659 C   0  0  0  0  0  0  0  0  0  0  0  0
   -4.7033   -2.5300    2.1885 H   0  0  0  0  0  0  0  0  0  0  0  0
   -4.4159   -3.1521    0.5450 H   0  0  0  0  0  0  0  0  0  0  0  0
   -2.6408   -2.5096    1.5774 C   0  0  0  0  0  0  0  0  0  0  0  0
   -1.6931   -3.1447    2.0118 O   0  0  0  0  0  0  0  0  0  0  0  0
   -2.4402   -1.2355    1.0846 N   0  0  0  0  0  0  0  0  0  0  0  0
   -3.2653   -0.7063    0.8045 H   0  0  0  0  0  0  0  0  0  0  0  0
   -1.1650   -0.5101    1.1708 C   0  0  1  0  0  0  0  0  0  0  0  0
   -0.4983   -0.9798    1.9022 H   0  0  0  0  0  0  0  0  0  0  0  0
   -0.5268   -0.5921   -0.2302 C   0  0  0  0  0  0  0  0  0  0  0  0
   -0.4053   -1.6435   -0.5138 H   0  0  0  0  0  0  0  0  0  0  0  0
   -1.2303   -0.1421   -0.9404 H   0  0  0  0  0  0  0  0  0  0  0  0
    0.8346    0.1158   -0.3487 C   0  0  0  0  0  0  0  0  0  0  0  0
    0.8906    0.9713    0.3308 H   0  0  0  0  0  0  0  0  0  0  0  0
    1.6331   -0.5831   -0.0763 H   0  0  0  0  0  0  0  0  0  0  0  0
    1.0203    0.6248   -1.7773 C   0  0  0  0  0  0  0  0  0  0  0  0
    0.9545   -0.2227   -2.4689 H   0  0  0  0  0  0  0  0  0  0  0  0
    0.2124    1.3276   -2.0108 H   0  0  0  0  0  0  0  0  0  0  0  0
    2.3278    1.2912   -1.9179 N   0  3  0  0  0  0  0  0  0  0  0  0
    2.9223    1.3284   -1.0912 H   0  0  0  0  0  0  0  0  0  0  0  0
    2.7454    1.8269   -3.0287 C   0  0  0  0  0  0  0  0  0  0  0  0
    1.9745    1.8261   -4.1690 N   0  0  0  0  0  0  0  0  0  0  0  0
    0.9989    1.5475   -4.0836 H   0  0  0  0  0  0  0  0  0  0  0  0
    2.2295    2.4493   -4.9326 H   0  0  0  0  0  0  0  0  0  0  0  0
    3.9881    2.4127   -3.0752 N   0  0  0  0  0  0  0  0  0  0  0  0
    4.6310    2.2609   -2.3004 H   0  0  0  0  0  0  0  0  0  0  0  0
    4.3841    2.6387   -3.9859 H   0  0  0  0  0  0  0  0  0  0  0  0
   -1.4136    0.9441    1.6212 C   0  0  0  0  0  0  0  0  0  0  0  0
   -2.2329    1.6287    1.0214 O   0  0  0  0  0  0  0  0  0  0  0  0
   -0.6211    1.5245    2.5957 N   0  0  0  0  0  0  0  0  0  0  0  0
   -0.0577    0.8951    3.1625 H   0  0  0  0  0  0  0  0  0  0  0  0
   -0.8584    2.8748    3.0974 C   0  0  0  0  0  0  0  0  0  0  0  0
   -1.8485    2.9430    3.5609 H   0  0  0  0  0  0  0  0  0  0  0  0
   -0.1063    3.1385    3.8475 H   0  0  0  0  0  0  0  0  0  0  0  0
   -0.8017    3.6052    2.2833 H   0  0  0  0  0  0  0  0  0  0  0  0
  1  2  1  0  0  0  0
  2  3  1  0  0  0  0
  2  4  1  0  0  0  0
  2  5  1  0  0  0  0
  5  6  2  0  0  0  0
  5  7  1  0  0  0  0
  7  8  1  0  0  0  0
  7  9  1  0  0  0  0
  9 10  1  0  0  0  0
  9 11  1  0  0  0  0
  9 29  1  0  0  0  0
 11 12  1  0  0  0  0
 11 13  1  0  0  0  0
 11 14  1  0  0  0  0
 14 15  1  0  0  0  0
 14 16  1  0  0  0  0
 14 17  1  0  0  0  0
 17 18  1  0  0  0  0
 17 19  1  0  0  0  0
 17 20  1  0  0  0  0
 20 21  1  0  0  0  0
 20 22  2  0  0  0  0
 22 23  1  0  0  0  0
 22 26  1  0  0  0  0
 23 24  1  0  0  0  0
 23 25  1  0  0  0  0
 26 27  1  0  0  0  0
 26 28  1  0  0  0  0
 29 30  2  0  0  0  0
 29 31  1  0  0  0  0
 31 32  1  0  0  0  0
 31 33  1  0  0  0  0
 33 34  1  0  0  0  0
 33 35  1  0  0  0  0
 33 36  1  0  0  0  0
M  CHG  1  20   1
M  END
$$$$

  -OEChem-03222214013D

 36 35  0     1  0  0  0  0  0999 V2000
   -4.3567   -3.4443    2.3055 H   0  0  0  0  0  0  0  0  0  0  0  0
   -4.2076   -2.5893    1.6398 C   0  0  0  0  0  0  0  0  0  0  0  0
   -4.8692   -1.7794    1.9561 H   0  0  0  0  0  0  0  0  0  0  0  0
   -4.4673   -2.8879    0.6213 H   0  0  0  0  0  0  0  0  0  0  0  0
   -2.7625   -2.1323    1.6957 C   0  0  0  0  0  0  0  0  0  0  0  0
   -1.9595   -2.7214    2.4002 O   0  0  0  0  0  0  0  0  0  0  0  0
   -2.3480   -1.0448    0.9507 N   0  0  0  0  0  0  0  0  0  0  0  0
   -3.0553   -0.5543    0.4068 H   0  0  0  0  0  0  0  0  0  0  0  0
   -0.9823   -0.5006    0.9746 C   0  0  1  0  0  0  0  0  0  0  0  0
   -0.4169   -0.8941    1.8265 H   0  0  0  0  0  0  0  0  0  0  0  0
   -0.3292   -0.9756   -0.3385 C   0  0  0  0  0  0  0  0  0  0  0  0
   -0.3463   -2.0711   -0.3700 H   0  0  0  0  0  0  0  0  0  0  0  0
   -0.9473   -0.6259   -1.1728 H   0  0  0  0  0  0  0  0  0  0  0  0
    1.1282   -0.5043   -0.5147 C   0  0  0  0  0  0  0  0  0  0  0  0
    1.3770    0.2817    0.2031 H   0  0  0  0  0  0  0  0  0  0  0  0
    1.8141   -1.3362   -0.3203 H   0  0  0  0  0  0  0  0  0  0  0  0
    1.3288    0.0155   -1.9427 C   0  0  0  0  0  0  0  0  0  0  0  0
    1.7909   -0.7716   -2.5492 H   0  0  0  0  0  0  0  0  0  0  0  0
    0.3607    0.2454   -2.4003 H   0  0  0  0  0  0  0  0  0  0  0  0
    2.1693    1.2273   -1.9573 N   0  3  0  0  0  0  0  0  0  0  0  0
    3.1751    1.0898   -2.0481 H   0  0  0  0  0  0  0  0  0  0  0  0
    1.6859    2.4384   -1.9777 C   0  0  0  0  0  0  0  0  0  0  0  0
    0.3405    2.7058   -1.8507 N   0  0  0  0  0  0  0  0  0  0  0  0
   -0.2441    1.9989   -1.3940 H   0  0  0  0  0  0  0  0  0  0  0  0
    0.0565    3.6718   -1.7106 H   0  0  0  0  0  0  0  0  0  0  0  0
    2.5443    3.4991   -2.1423 N   0  0  0  0  0  0  0  0  0  0  0  0
    3.4997    3.3084   -2.4378 H   0  0  0  0  0  0  0  0  0  0  0  0
    2.1456    4.4040   -2.3854 H   0  0  0  0  0  0  0  0  0  0  0  0
   -0.9827    1.0394    1.0720 C   0  0  0  0  0  0  0  0  0  0  0  0
   -1.4680    1.7048    0.1610 O   0  0  0  0  0  0  0  0  0  0  0  0
   -0.1299    1.6704    1.9598 N   0  0  0  0  0  0  0  0  0  0  0  0
    0.2083    1.1027    2.7354 H   0  0  0  0  0  0  0  0  0  0  0  0
   -0.0632    3.1211    2.1054 C   0  0  0  0  0  0  0  0  0  0  0  0
   -1.0406    3.5233    2.3935 H   0  0  0  0  0  0  0  0  0  0  0  0
    0.6618    3.3891    2.8807 H   0  0  0  0  0  0  0  0  0  0  0  0
    0.2489    3.5911    1.1677 H   0  0  0  0  0  0  0  0  0  0  0  0
  1  2  1  0  0  0  0
  2  3  1  0  0  0  0
  2  4  1  0  0  0  0
  2  5  1  0  0  0  0
  5  6  2  0  0  0  0
  5  7  1  0  0  0  0
  7  8  1  0  0  0  0
  7  9  1  0  0  0  0
  9 10  1  0  0  0  0
  9 11  1  0  0  0  0
  9 29  1  0  0  0  0
 11 12  1  0  0  0  0
 11 13  1  0  0  0  0
 11 14  1  0  0  0  0
 14 15  1  0  0  0  0
 14 16  1  0  0  0  0
 14 17  1  0  0  0  0
 17 18  1  0  0  0  0
 17 19  1  0  0  0  0
 17 20  1  0  0  0  0
 20 21  1  0  0  0  0
 20 22  2  0  0  0  0
 22 23  1  0  0  0  0
 22 26  1  0  0  0  0
 23 24  1  0  0  0  0
 23 25  1  0  0  0  0
 26 27  1  0  0  0  0
 26 28  1  0  0  0  0
 29 30  2  0  0  0  0
 29 31  1  0  0  0  0
 31 32  1  0  0  0  0
 31 33  1  0  0  0  0
 33 34  1  0  0  0  0
 33 35  1  0  0  0  0
 33 36  1  0  0  0  0
M  CHG  1  20   1
M  END
$$$$

  -OEChem-03222214013D

 36 35  0     1  0  0  0  0  0999 V2000
   -4.2356   -3.5354    2.3864 H   0  0  0  0  0  0  0  0  0  0  0  0
   -4.1430   -2.6516    1.7486 C   0  0  0  0  0  0  0  0  0  0  0  0
   -4.8114   -1.8745    2.1268 H   0  0  0  0  0  0  0  0  0  0  0  0
   -4.4430   -2.9194    0.7327 H   0  0  0  0  0  0  0  0  0  0  0  0
   -2.7105   -2.1538    1.7531 C   0  0  0  0  0  0  0  0  0  0  0  0
   -1.8619   -2.7342    2.4099 O   0  0  0  0  0  0  0  0  0  0  0  0
   -2.3595   -1.0409    1.0130 N   0  0  0  0  0  0  0  0  0  0  0  0
   -3.1026   -0.5632    0.5066 H   0  0  0  0  0  0  0  0  0  0  0  0
   -1.0072   -0.4645    0.9787 C   0  0  1  0  0  0  0  0  0  0  0  0
   -0.3950   -0.8636    1.7951 H   0  0  0  0  0  0  0  0  0  0  0  0
   -0.4085   -0.9110   -0.3691 C   0  0  0  0  0  0  0  0  0  0  0  0
   -0.3881   -2.0066   -0.3906 H   0  0  0  0  0  0  0  0  0  0  0  0
   -1.0734   -0.5941   -1.1804 H   0  0  0  0  0  0  0  0  0  0  0  0
    1.0257   -0.3989   -0.6024 C   0  0  0  0  0  0  0  0  0  0  0  0
    1.3865    0.1661    0.2621 H   0  0  0  0  0  0  0  0  0  0  0  0
    1.7064   -1.2473   -0.7336 H   0  0  0  0  0  0  0  0  0  0  0  0
    1.0446    0.4679   -1.8660 C   0  0  0  0  0  0  0  0  0  0  0  0
    1.3548   -0.1466   -2.7186 H   0  0  0  0  0  0  0  0  0  0  0  0
    0.0327    0.8276   -2.0800 H   0  0  0  0  0  0  0  0  0  0  0  0
    1.9514    1.6203   -1.7158 N   0  3  0  0  0  0  0  0  0  0  0  0
    2.9508    1.4335   -1.7843 H   0  0  0  0  0  0  0  0  0  0  0  0
    1.5354    2.8534   -1.6337 C   0  0  0  0  0  0  0  0  0  0  0  0
    0.2015    3.1833   -1.5383 N   0  0  0  0  0  0  0  0  0  0  0  0
   -0.4355    2.4685   -1.1696 H   0  0  0  0  0  0  0  0  0  0  0  0
   -0.0394    4.1482   -1.3288 H   0  0  0  0  0  0  0  0  0  0  0  0
    2.4560    3.8738   -1.6556 N   0  0  0  0  0  0  0  0  0  0  0  0
    3.4145    3.6565   -1.9211 H   0  0  0  0  0  0  0  0  0  0  0  0
    2.1194    4.8191   -1.8290 H   0  0  0  0  0  0  0  0  0  0  0  0
   -1.0176    1.0732    1.1100 C   0  0  0  0  0  0  0  0  0  0  0  0
   -1.5645    1.7612    0.2522 O   0  0  0  0  0  0  0  0  0  0  0  0
   -0.1235    1.6907    1.9670 N   0  0  0  0  0  0  0  0  0  0  0  0
    0.2659    1.0980    2.6988 H   0  0  0  0  0  0  0  0  0  0  0  0
   -0.1205    3.1312    2.2030 C   0  0  0  0  0  0  0  0  0  0  0  0
   -1.1120    3.4700    2.5227 H   0  0  0  0  0  0  0  0  0  0  0  0
    0.5982    3.3826    2.9896 H   0  0  0  0  0  0  0  0  0  0  0  0
    0.1612    3.6739    1.2962 H   0  0  0  0  0  0  0  0  0  0  0  0
  1  2  1  0  0  0  0
  2  3  1  0  0  0  0
  2  4  1  0  0  0  0
  2  5  1  0  0  0  0
  5  6  2  0  0  0  0
  5  7  1  0  0  0  0
  7  8  1  0  0  0  0
  7  9  1  0  0  0  0
  9 10  1  0  0  0  0
  9 11  1  0  0  0  0
  9 29  1  0  0  0  0
 11 12  1  0  0  0  0
 11 13  1  0  0  0  0
 11 14  1  0  0  0  0
 14 15  1  0  0  0  0
 14 16  1  0  0  0  0
 14 17  1  0  0  0  0
 17 18  1  0  0  0  0
 17 19  1  0  0  0  0
 17 20  1  0  0  0  0
 20 21  1  0  0  0  0
 20 22  2  0  0  0  0
 22 23  1  0  0  0  0
 22 26  1  0  0  0  0
 23 24  1  0  0  0  0
 23 25  1  0  0  0  0
 26 27  1  0  0  0  0
 26 28  1  0  0  0  0
 29 30  2  0  0  0  0
 29 31  1  0  0  0  0
 31 32  1  0  0  0  0
 31 33  1  0  0  0  0
 33 34  1  0  0  0  0
 33 35  1  0  0  0  0
 33 36  1  0  0  0  0
M  CHG  1  20   1
M  END
$$$$

  -OEChem-03222214013D

 36 35  0     1  0  0  0  0  0999 V2000
   -4.1930   -3.5806    2.3530 H   0  0  0  0  0  0  0  0  0  0  0  0
   -4.1279   -2.6699    1.7503 C   0  0  0  0  0  0  0  0  0  0  0  0
   -4.7978   -1.9190    2.1759 H   0  0  0  0  0  0  0  0  0  0  0  0
   -4.4481   -2.9002    0.7314 H   0  0  0  0  0  0  0  0  0  0  0  0
   -2.7027   -2.1509    1.7424 C   0  0  0  0  0  0  0  0  0  0  0  0
   -1.8339   -2.7360    2.3680 O   0  0  0  0  0  0  0  0  0  0  0  0
   -2.3817   -1.0103    1.0311 N   0  0  0  0  0  0  0  0  0  0  0  0
   -3.1393   -0.5336    0.5457 H   0  0  0  0  0  0  0  0  0  0  0  0
   -1.0372   -0.4171    0.9822 C   0  0  1  0  0  0  0  0  0  0  0  0
   -0.4127   -0.8308    1.7817 H   0  0  0  0  0  0  0  0  0  0  0  0
   -0.4502   -0.8490   -0.3758 C   0  0  0  0  0  0  0  0  0  0  0  0
   -0.4076   -1.9441   -0.3875 H   0  0  0  0  0  0  0  0  0  0  0  0
   -1.1245   -0.5522   -1.1874 H   0  0  0  0  0  0  0  0  0  0  0  0
    0.9712   -0.3161   -0.6234 C   0  0  0  0  0  0  0  0  0  0  0  0
    1.4343    0.0063    0.3151 H   0  0  0  0  0  0  0  0  0  0  0  0
    1.5997   -1.1107   -1.0402 H   0  0  0  0  0  0  0  0  0  0  0  0
    0.8835    0.8327   -1.6341 C   0  0  0  0  0  0  0  0  0  0  0  0
    1.0950    0.4430   -2.6362 H   0  0  0  0  0  0  0  0  0  0  0  0
   -0.1415    1.2172   -1.6477 H   0  0  0  0  0  0  0  0  0  0  0  0
    1.8176    1.9269   -1.3137 N   0  3  0  0  0  0  0  0  0  0  0  0
    2.8116    1.7032   -1.3155 H   0  0  0  0  0  0  0  0  0  0  0  0
    1.4403    3.1688   -1.1907 C   0  0  0  0  0  0  0  0  0  0  0  0
    0.1146    3.5420   -1.1955 N   0  0  0  0  0  0  0  0  0  0  0  0
   -0.5672    2.8268   -0.9181 H   0  0  0  0  0  0  0  0  0  0  0  0
   -0.1131    4.4999   -0.9440 H   0  0  0  0  0  0  0  0  0  0  0  0
    2.3924    4.1523   -1.0654 N   0  0  0  0  0  0  0  0  0  0  0  0
    3.3630    3.9136   -1.2584 H   0  0  0  0  0  0  0  0  0  0  0  0
    2.1048    5.1186   -1.2094 H   0  0  0  0  0  0  0  0  0  0  0  0
   -1.0423    1.1152    1.1627 C   0  0  0  0  0  0  0  0  0  0  0  0
   -1.6350    1.8393    0.3676 O   0  0  0  0  0  0  0  0  0  0  0  0
   -0.1220    1.6974    2.0174 N   0  0  0  0  0  0  0  0  0  0  0  0
    0.3021    1.0623    2.6921 H   0  0  0  0  0  0  0  0  0  0  0  0
   -0.1853    3.1066    2.3939 C   0  0  0  0  0  0  0  0  0  0  0  0
   -1.1585    3.3405    2.8395 H   0  0  0  0  0  0  0  0  0  0  0  0
    0.5927    3.3347    3.1296 H   0  0  0  0  0  0  0  0  0  0  0  0
   -0.0333    3.7534    1.5262 H   0  0  0  0  0  0  0  0  0  0  0  0
  1  2  1  0  0  0  0
  2  3  1  0  0  0  0
  2  4  1  0  0  0  0
  2  5  1  0  0  0  0
  5  6  2  0  0  0  0
  5  7  1  0  0  0  0
  7  8  1  0  0  0  0
  7  9  1  0  0  0  0
  9 10  1  0  0  0  0
  9 11  1  0  0  0  0
  9 29  1  0  0  0  0
 11 12  1  0  0  0  0
 11 13  1  0  0  0  0
 11 14  1  0  0  0  0
 14 15  1  0  0  0  0
 14 16  1  0  0  0  0
 14 17  1  0  0  0  0
 17 18  1  0  0  0  0
 17 19  1  0  0  0  0
 17 20  1  0  0  0  0
 20 21  1  0  0  0  0
 20 22  2  0  0  0  0
 22 23  1  0  0  0  0
 22 26  1  0  0  0  0
 23 24  1  0  0  0  0
 23 25  1  0  0  0  0
 26 27  1  0  0  0  0
 26 28  1  0  0  0  0
 29 30  2  0  0  0  0
 29 31  1  0  0  0  0
 31 32  1  0  0  0  0
 31 33  1  0  0  0  0
 33 34  1  0  0  0  0
 33 35  1  0  0  0  0
 33 36  1  0  0  0  0
M  CHG  1  20   1
M  END
$$$$

  -OEChem-03222214013D

 36 35  0     1  0  0  0  0  0999 V2000
   -4.1031   -3.6267    2.3453 H   0  0  0  0  0  0  0  0  0  0  0  0
   -4.0741   -2.6876    1.7853 C   0  0  0  0  0  0  0  0  0  0  0  0
   -4.7394   -1.9691    2.2698 H   0  0  0  0  0  0  0  0  0  0  0  0
   -4.4275   -2.8748    0.7685 H   0  0  0  0  0  0  0  0  0  0  0  0
   -2.6583   -2.1453    1.7517 C   0  0  0  0  0  0  0  0  0  0  0  0
   -1.7579   -2.7457    2.3154 O   0  0  0  0  0  0  0  0  0  0  0  0
   -2.3807   -0.9684    1.0825 N   0  0  0  0  0  0  0  0  0  0  0  0
   -3.1627   -0.4816    0.6484 H   0  0  0  0  0  0  0  0  0  0  0  0
   -1.0452   -0.3599    0.9958 C   0  0  1  0  0  0  0  0  0  0  0  0
   -0.3901   -0.7932    1.7592 H   0  0  0  0  0  0  0  0  0  0  0  0
   -0.5049   -0.7762   -0.3896 C   0  0  0  0  0  0  0  0  0  0  0  0
   -0.4585   -1.8710   -0.4108 H   0  0  0  0  0  0  0  0  0  0  0  0
   -1.2093   -0.4722   -1.1724 H   0  0  0  0  0  0  0  0  0  0  0  0
    0.8986   -0.2414   -0.7105 C   0  0  0  0  0  0  0  0  0  0  0  0
    1.4935   -0.1714    0.2063 H   0  0  0  0  0  0  0  0  0  0  0  0
    1.4127   -0.9337   -1.3861 H   0  0  0  0  0  0  0  0  0  0  0  0
    0.7613    1.1192   -1.4035 C   0  0  0  0  0  0  0  0  0  0  0  0
    0.9071    0.9811   -2.4808 H   0  0  0  0  0  0  0  0  0  0  0  0
   -0.2602    1.4849   -1.2637 H   0  0  0  0  0  0  0  0  0  0  0  0
    1.7218    2.1159   -0.8987 N   0  3  0  0  0  0  0  0  0  0  0  0
    2.7008    1.8376   -0.8527 H   0  0  0  0  0  0  0  0  0  0  0  0
    1.3954    3.3595   -0.6850 C   0  0  0  0  0  0  0  0  0  0  0  0
    0.0920    3.7985   -0.7617 N   0  0  0  0  0  0  0  0  0  0  0  0
   -0.6371    3.0946   -0.6008 H   0  0  0  0  0  0  0  0  0  0  0  0
   -0.1132    4.7391   -0.4371 H   0  0  0  0  0  0  0  0  0  0  0  0
    2.3769    4.2736   -0.3844 N   0  0  0  0  0  0  0  0  0  0  0  0
    3.3490    4.0034   -0.5193 H   0  0  0  0  0  0  0  0  0  0  0  0
    2.1464    5.2634   -0.4469 H   0  0  0  0  0  0  0  0  0  0  0  0
   -1.0590    1.1609    1.2518 C   0  0  0  0  0  0  0  0  0  0  0  0
   -1.7332    1.9161    0.5580 O   0  0  0  0  0  0  0  0  0  0  0  0
   -0.1031    1.7122    2.0885 N   0  0  0  0  0  0  0  0  0  0  0  0
    0.3888    1.0352    2.6700 H   0  0  0  0  0  0  0  0  0  0  0  0
   -0.2449    3.0558    2.6457 C   0  0  0  0  0  0  0  0  0  0  0  0
   -1.0504    3.0740    3.3879 H   0  0  0  0  0  0  0  0  0  0  0  0
    0.6849    3.3597    3.1369 H   0  0  0  0  0  0  0  0  0  0  0  0
   -0.4758    3.7920    1.8712 H   0  0  0  0  0  0  0  0  0  0  0  0
  1  2  1  0  0  0  0
  2  3  1  0  0  0  0
  2  4  1  0  0  0  0
  2  5  1  0  0  0  0
  5  6  2  0  0  0  0
  5  7  1  0  0  0  0
  7  8  1  0  0  0  0
  7  9  1  0  0  0  0
  9 10  1  0  0  0  0
  9 11  1  0  0  0  0
  9 29  1  0  0  0  0
 11 12  1  0  0  0  0
 11 13  1  0  0  0  0
 11 14  1  0  0  0  0
 14 15  1  0  0  0  0
 14 16  1  0  0  0  0
 14 17  1  0  0  0  0
 17 18  1  0  0  0  0
 17 19  1  0  0  0  0
 17 20  1  0  0  0  0
 20 21  1  0  0  0  0
 20 22  2  0  0  0  0
 22 23  1  0  0  0  0
 22 26  1  0  0  0  0
 23 24  1  0  0  0  0
 23 25  1  0  0  0  0
 26 27  1  0  0  0  0
 26 28  1  0  0  0  0
 29 30  2  0  0  0  0
 29 31  1  0  0  0  0
 31 32  1  0  0  0  0
 31 33  1  0  0  0  0
 33 34  1  0  0  0  0
 33 35  1  0  0  0  0
 33 36  1  0  0  0  0
M  CHG  1  20   1
M  END
$$$$

  -OEChem-03222214013D

 36 35  0     1  0  0  0  0  0999 V2000
   -3.9671   -4.1892    1.8846 H   0  0  0  0  0  0  0  0  0  0  0  0
   -4.0162   -3.1747    1.4785 C   0  0  0  0  0  0  0  0  0  0  0  0
   -4.7538   -2.6041    2.0479 H   0  0  0  0  0  0  0  0  0  0  0  0
   -4.3333   -3.2297    0.4344 H   0  0  0  0  0  0  0  0  0  0  0  0
   -2.6566   -2.5091    1.5748 C   0  0  0  0  0  0  0  0  0  0  0  0
   -1.7140   -3.1084    2.0667 O   0  0  0  0  0  0  0  0  0  0  0  0
   -2.4788   -1.2189    1.1141 N   0  0  0  0  0  0  0  0  0  0  0  0
   -3.2979   -0.7315    0.7543 H   0  0  0  0  0  0  0  0  0  0  0  0
   -1.2232   -0.4640    1.2350 C   0  0  1  0  0  0  0  0  0  0  0  0
   -0.5636   -0.9314    1.9739 H   0  0  0  0  0  0  0  0  0  0  0  0
   -0.5517   -0.5549   -0.1559 C   0  0  0  0  0  0  0  0  0  0  0  0
   -0.3896   -1.6162   -0.3757 H   0  0  0  0  0  0  0  0  0  0  0  0
   -1.2432   -0.1714   -0.9147 H   0  0  0  0  0  0  0  0  0  0  0  0
    0.8012    0.1649   -0.3065 C   0  0  0  0  0  0  0  0  0  0  0  0
    1.4558   -0.0893    0.5340 H   0  0  0  0  0  0  0  0  0  0  0  0
    1.2794   -0.1964   -1.2234 H   0  0  0  0  0  0  0  0  0  0  0  0
    0.6219    1.6821   -0.4025 C   0  0  0  0  0  0  0  0  0  0  0  0
   -0.1437    1.8976   -1.1565 H   0  0  0  0  0  0  0  0  0  0  0  0
    0.2753    2.0726    0.5575 H   0  0  0  0  0  0  0  0  0  0  0  0
    1.8794    2.3546   -0.7679 N   0  3  0  0  0  0  0  0  0  0  0  0
    2.6561    1.7703   -1.0743 H   0  0  0  0  0  0  0  0  0  0  0  0
    2.0036    3.6505   -0.7637 C   0  0  0  0  0  0  0  0  0  0  0  0
    0.9595    4.4714   -0.3979 N   0  0  0  0  0  0  0  0  0  0  0  0
    0.0403    4.0441   -0.2843 H   0  0  0  0  0  0  0  0  0  0  0  0
    0.9978    5.4543   -0.6592 H   0  0  0  0  0  0  0  0  0  0  0  0
    3.1965    4.2234   -1.1346 N   0  0  0  0  0  0  0  0  0  0  0  0
    4.0158    3.6274   -1.2347 H   0  0  0  0  0  0  0  0  0  0  0  0
    3.3452    5.2100   -0.9301 H   0  0  0  0  0  0  0  0  0  0  0  0
   -1.4954    0.9751    1.7136 C   0  0  0  0  0  0  0  0  0  0  0  0
   -2.2274    1.7118    1.0631 O   0  0  0  0  0  0  0  0  0  0  0  0
   -0.7118    1.5285    2.7116 N   0  0  0  0  0  0  0  0  0  0  0  0
   -0.2044    0.8685    3.2979 H   0  0  0  0  0  0  0  0  0  0  0  0
   -0.9555    2.8637    3.2495 C   0  0  0  0  0  0  0  0  0  0  0  0
   -1.9574    2.9229    3.6888 H   0  0  0  0  0  0  0  0  0  0  0  0
   -0.2225    3.0970    4.0282 H   0  0  0  0  0  0  0  0  0  0  0  0
   -0.8727    3.6201    2.4624 H   0  0  0  0  0  0  0  0  0  0  0  0
  1  2  1  0  0  0  0
  2  3  1  0  0  0  0
  2  4  1  0  0  0  0
  2  5  1  0  0  0  0
  5  6  2  0  0  0  0
  5  7  1  0  0  0  0
  7  8  1  0  0  0  0
  7  9  1  0  0  0  0
  9 10  1  0  0  0  0
  9 11  1  0  0  0  0
  9 29  1  0  0  0  0
 11 12  1  0  0  0  0
 11 13  1  0  0  0  0
 11 14  1  0  0  0  0
 14 15  1  0  0  0  0
 14 16  1  0  0  0  0
 14 17  1  0  0  0  0
 17 18  1  0  0  0  0
 17 19  1  0  0  0  0
 17 20  1  0  0  0  0
 20 21  1  0  0  0  0
 20 22  2  0  0  0  0
 22 23  1  0  0  0  0
 22 26  1  0  0  0  0
 23 24  1  0  0  0  0
 23 25  1  0  0  0  0
 26 27  1  0  0  0  0
 26 28  1  0  0  0  0
 29 30  2  0  0  0  0
 29 31  1  0  0  0  0
 31 32  1  0  0  0  0
 31 33  1  0  0  0  0
 33 34  1  0  0  0  0
 33 35  1  0  0  0  0
 33 36  1  0  0  0  0
M  CHG  1  20   1
M  END
$$$$

  -OEChem-03222214013D

 36 35  0     1  0  0  0  0  0999 V2000
   -4.2367   -4.0056    1.3345 H   0  0  0  0  0  0  0  0  0  0  0  0
   -4.1649   -2.9589    1.0252 C   0  0  0  0  0  0  0  0  0  0  0  0
   -4.9277   -2.3832    1.5550 H   0  0  0  0  0  0  0  0  0  0  0  0
   -4.3510   -2.8974   -0.0497 H   0  0  0  0  0  0  0  0  0  0  0  0
   -2.7862   -2.4145    1.3463 C   0  0  0  0  0  0  0  0  0  0  0  0
   -1.9503   -3.1313    1.8724 O   0  0  0  0  0  0  0  0  0  0  0  0
   -2.4704   -1.1029    1.0493 N   0  0  0  0  0  0  0  0  0  0  0  0
   -3.2082   -0.5193    0.6581 H   0  0  0  0  0  0  0  0  0  0  0  0
   -1.1888   -0.4659    1.3858 C   0  0  1  0  0  0  0  0  0  0  0  0
   -0.6438   -1.0518    2.1340 H   0  0  0  0  0  0  0  0  0  0  0  0
   -0.3850   -0.4702    0.0598 C   0  0  0  0  0  0  0  0  0  0  0  0
   -0.2918   -1.5101   -0.2732 H   0  0  0  0  0  0  0  0  0  0  0  0
   -0.9715    0.0586   -0.6999 H   0  0  0  0  0  0  0  0  0  0  0  0
    1.0306    0.1404    0.0765 C   0  0  0  0  0  0  0  0  0  0  0  0
    1.6726   -0.4244    0.7612 H   0  0  0  0  0  0  0  0  0  0  0  0
    1.4488    0.0362   -0.9307 H   0  0  0  0  0  0  0  0  0  0  0  0
    1.0208    1.6147    0.4794 C   0  0  0  0  0  0  0  0  0  0  0  0
    0.0532    2.0353    0.1888 H   0  0  0  0  0  0  0  0  0  0  0  0
    1.1143    1.6954    1.5676 H   0  0  0  0  0  0  0  0  0  0  0  0
    2.0939    2.3819   -0.1740 N   0  3  0  0  0  0  0  0  0  0  0  0
    2.9774    1.9044   -0.3475 H   0  0  0  0  0  0  0  0  0  0  0  0
    1.9486    3.6283   -0.5235 C   0  0  0  0  0  0  0  0  0  0  0  0
    0.7709    4.3108   -0.3062 N   0  0  0  0  0  0  0  0  0  0  0  0
   -0.0409    3.7777    0.0076 H   0  0  0  0  0  0  0  0  0  0  0  0
    0.6049    5.1767   -0.8141 H   0  0  0  0  0  0  0  0  0  0  0  0
    2.9902    4.2905   -1.1278 N   0  0  0  0  0  0  0  0  0  0  0  0
    3.9116    3.8574   -1.1293 H   0  0  0  0  0  0  0  0  0  0  0  0
    2.9383    5.3044   -1.2076 H   0  0  0  0  0  0  0  0  0  0  0  0
   -1.4431    0.9338    1.9834 C   0  0  0  0  0  0  0  0  0  0  0  0
   -2.0352    1.7825    1.3243 O   0  0  0  0  0  0  0  0  0  0  0  0
   -0.7600    1.3343    3.1186 N   0  0  0  0  0  0  0  0  0  0  0  0
   -0.3675    0.5898    3.6922 H   0  0  0  0  0  0  0  0  0  0  0  0
   -0.9720    2.6352    3.7465 C   0  0  0  0  0  0  0  0  0  0  0  0
   -2.0215    2.7540    4.0378 H   0  0  0  0  0  0  0  0  0  0  0  0
   -0.3524    2.7277    4.6440 H   0  0  0  0  0  0  0  0  0  0  0  0
   -0.7045    3.4452    3.0601 H   0  0  0  0  0  0  0  0  0  0  0  0
  1  2  1  0  0  0  0
  2  3  1  0  0  0  0
  2  4  1  0  0  0  0
  2  5  1  0  0  0  0
  5  6  2  0  0  0  0
  5  7  1  0  0  0  0
  7  8  1  0  0  0  0
  7  9  1  0  0  0  0
  9 10  1  0  0  0  0
  9 11  1  0  0  0  0
  9 29  1  0  0  0  0
 11 12  1  0  0  0  0
 11 13  1  0  0  0  0
 11 14  1  0  0  0  0
 14 15  1  0  0  0  0
 14 16  1  0  0  0  0
 14 17  1  0  0  0  0
 17 18  1  0  0  0  0
 17 19  1  0  0  0  0
 17 20  1  0  0  0  0
 20 21  1  0  0  0  0
 20 22  2  0  0  0  0
 22 23  1  0  0  0  0
 22 26  1  0  0  0  0
 23 24  1  0  0  0  0
 23 25  1  0  0  0  0
 26 27  1  0  0  0  0
 26 28  1  0  0  0  0
 29 30  2  0  0  0  0
 29 31  1  0  0  0  0
 31 32  1  0  0  0  0
 31 33  1  0  0  0  0
 33 34  1  0  0  0  0
 33 35  1  0  0  0  0
 33 36  1  0  0  0  0
M  CHG  1  20   1
M  END
$$$$

  -OEChem-03222214013D

 36 35  0     1  0  0  0  0  0999 V2000
   -4.4576   -3.4595    0.5673 H   0  0  0  0  0  0  0  0  0  0  0  0
   -4.2267   -2.4024    0.4072 C   0  0  0  0  0  0  0  0  0  0  0  0
   -5.0030   -1.7978    0.8823 H   0  0  0  0  0  0  0  0  0  0  0  0
   -4.2239   -2.2028   -0.6670 H   0  0  0  0  0  0  0  0  0  0  0  0
   -2.8714   -2.0700    1.0007 C   0  0  0  0  0  0  0  0  0  0  0  0
   -2.2208   -2.9324    1.5674 O   0  0  0  0  0  0  0  0  0  0  0  0
   -2.3624   -0.7893    0.8990 N   0  0  0  0  0  0  0  0  0  0  0  0
   -2.9546   -0.0837    0.4646 H   0  0  0  0  0  0  0  0  0  0  0  0
   -1.0867   -0.3614    1.4943 C   0  0  1  0  0  0  0  0  0  0  0  0
   -0.7455   -1.0737    2.2537 H   0  0  0  0  0  0  0  0  0  0  0  0
   -0.0877   -0.3808    0.3044 C   0  0  0  0  0  0  0  0  0  0  0  0
   -0.0947   -1.3915   -0.1200 H   0  0  0  0  0  0  0  0  0  0  0  0
   -0.4872    0.2887   -0.4652 H   0  0  0  0  0  0  0  0  0  0  0  0
    1.3941    0.0125    0.5150 C   0  0  0  0  0  0  0  0  0  0  0  0
    1.8701   -0.8260    1.0352 H   0  0  0  0  0  0  0  0  0  0  0  0
    1.8746    0.0796   -0.4671 H   0  0  0  0  0  0  0  0  0  0  0  0
    1.7062    1.2717    1.3397 C   0  0  0  0  0  0  0  0  0  0  0  0
    0.8201    1.6798    1.8166 H   0  0  0  0  0  0  0  0  0  0  0  0
    2.4047    1.0027    2.1399 H   0  0  0  0  0  0  0  0  0  0  0  0
    2.3190    2.3124    0.4908 N   0  3  0  0  0  0  0  0  0  0  0  0
    3.3370    2.3218    0.4443 H   0  0  0  0  0  0  0  0  0  0  0  0
    1.6523    3.2300   -0.1528 C   0  0  0  0  0  0  0  0  0  0  0  0
    0.2793    3.3121   -0.1377 N   0  0  0  0  0  0  0  0  0  0  0  0
   -0.2457    2.7278    0.5206 H   0  0  0  0  0  0  0  0  0  0  0  0
   -0.1667    4.1686   -0.4553 H   0  0  0  0  0  0  0  0  0  0  0  0
    2.3423    4.1614   -0.8916 N   0  0  0  0  0  0  0  0  0  0  0  0
    3.3342    4.0139   -1.0652 H   0  0  0  0  0  0  0  0  0  0  0  0
    1.8218    4.7380   -1.5501 H   0  0  0  0  0  0  0  0  0  0  0  0
   -1.2892    0.9965    2.1891 C   0  0  0  0  0  0  0  0  0  0  0  0
   -1.6248    1.9684    1.5191 O   0  0  0  0  0  0  0  0  0  0  0  0
   -0.7727    1.2134    3.4541 N   0  0  0  0  0  0  0  0  0  0  0  0
   -0.5704    0.3835    4.0094 H   0  0  0  0  0  0  0  0  0  0  0  0
   -0.9029    2.4863    4.1575 C   0  0  0  0  0  0  0  0  0  0  0  0
   -1.9590    2.7498    4.2823 H   0  0  0  0  0  0  0  0  0  0  0  0
   -0.4453    2.4187    5.1497 H   0  0  0  0  0  0  0  0  0  0  0  0
   -0.4030    3.2880    3.6042 H   0  0  0  0  0  0  0  0  0  0  0  0
  1  2  1  0  0  0  0
  2  3  1  0  0  0  0
  2  4  1  0  0  0  0
  2  5  1  0  0  0  0
  5  6  2  0  0  0  0
  5  7  1  0  0  0  0
  7  8  1  0  0  0  0
  7  9  1  0  0  0  0
  9 10  1  0  0  0  0
  9 11  1  0  0  0  0
  9 29  1  0  0  0  0
 11 12  1  0  0  0  0
 11 13  1  0  0  0  0
 11 14  1  0  0  0  0
 14 15  1  0  0  0  0
 14 16  1  0  0  0  0
 14 17  1  0  0  0  0
 17 18  1  0  0  0  0
 17 19  1  0  0  0  0
 17 20  1  0  0  0  0
 20 21  1  0  0  0  0
 20 22  2  0  0  0  0
 22 23  1  0  0  0  0
 22 26  1  0  0  0  0
 23 24  1  0  0  0  0
 23 25  1  0  0  0  0
 26 27  1  0  0  0  0
 26 28  1  0  0  0  0
 29 30  2  0  0  0  0
 29 31  1  0  0  0  0
 31 32  1  0  0  0  0
 31 33  1  0  0  0  0
 33 34  1  0  0  0  0
 33 35  1  0  0  0  0
 33 36  1  0  0  0  0
M  CHG  1  20   1
M  END
$$$$

  -OEChem-03222214013D

 36 35  0     1  0  0  0  0  0999 V2000
   -4.5207   -3.5665    0.7434 H   0  0  0  0  0  0  0  0  0  0  0  0
   -4.2814   -2.5197    0.5346 C   0  0  0  0  0  0  0  0  0  0  0  0
   -5.0586   -1.8881    0.9714 H   0  0  0  0  0  0  0  0  0  0  0  0
   -4.2668   -2.3728   -0.5480 H   0  0  0  0  0  0  0  0  0  0  0  0
   -2.9305   -2.1665    1.1269 C   0  0  0  0  0  0  0  0  0  0  0  0
   -2.2998   -2.9983    1.7584 O   0  0  0  0  0  0  0  0  0  0  0  0
   -2.4067   -0.8989    0.9592 N   0  0  0  0  0  0  0  0  0  0  0  0
   -2.9760   -0.2190    0.4582 H   0  0  0  0  0  0  0  0  0  0  0  0
   -1.1317   -0.4508    1.5414 C   0  0  1  0  0  0  0  0  0  0  0  0
   -0.7874   -1.1265    2.3320 H   0  0  0  0  0  0  0  0  0  0  0  0
   -0.1533   -0.5288    0.3353 C   0  0  0  0  0  0  0  0  0  0  0  0
   -0.1840   -1.5531   -0.0543 H   0  0  0  0  0  0  0  0  0  0  0  0
   -0.5684    0.1167   -0.4471 H   0  0  0  0  0  0  0  0  0  0  0  0
    1.3410   -0.1442    0.4663 C   0  0  0  0  0  0  0  0  0  0  0  0
    1.8839   -1.0536    0.7473 H   0  0  0  0  0  0  0  0  0  0  0  0
    1.7003    0.1340   -0.5307 H   0  0  0  0  0  0  0  0  0  0  0  0
    1.7370    0.9291    1.4891 C   0  0  0  0  0  0  0  0  0  0  0  0
    0.8665    1.3884    1.9427 H   0  0  0  0  0  0  0  0  0  0  0  0
    2.3169    0.4640    2.2940 H   0  0  0  0  0  0  0  0  0  0  0  0
    2.5323    1.9874    0.8393 N   0  3  0  0  0  0  0  0  0  0  0  0
    3.5239    1.7990    0.6991 H   0  0  0  0  0  0  0  0  0  0  0  0
    2.0352    3.1210    0.4279 C   0  0  0  0  0  0  0  0  0  0  0  0
    0.7035    3.4495    0.5596 N   0  0  0  0  0  0  0  0  0  0  0  0
    0.0371    2.7301    0.8594 H   0  0  0  0  0  0  0  0  0  0  0  0
    0.3333    4.2329    0.0274 H   0  0  0  0  0  0  0  0  0  0  0  0
    2.8683    4.0383   -0.1676 N   0  0  0  0  0  0  0  0  0  0  0  0
    3.8748    3.8978   -0.1095 H   0  0  0  0  0  0  0  0  0  0  0  0
    2.5252    4.9879   -0.3012 H   0  0  0  0  0  0  0  0  0  0  0  0
   -1.3333    0.9475    2.1566 C   0  0  0  0  0  0  0  0  0  0  0  0
   -1.5894    1.8944    1.4190 O   0  0  0  0  0  0  0  0  0  0  0  0
   -0.8292    1.2282    3.4149 N   0  0  0  0  0  0  0  0  0  0  0  0
   -0.6822    0.4264    4.0266 H   0  0  0  0  0  0  0  0  0  0  0  0
   -0.9498    2.5419    4.0421 C   0  0  0  0  0  0  0  0  0  0  0  0
   -2.0016    2.8418    4.1065 H   0  0  0  0  0  0  0  0  0  0  0  0
   -0.5370    2.5165    5.0557 H   0  0  0  0  0  0  0  0  0  0  0  0
   -0.4031    3.2978    3.4692 H   0  0  0  0  0  0  0  0  0  0  0  0
  1  2  1  0  0  0  0
  2  3  1  0  0  0  0
  2  4  1  0  0  0  0
  2  5  1  0  0  0  0
  5  6  2  0  0  0  0
  5  7  1  0  0  0  0
  7  8  1  0  0  0  0
  7  9  1  0  0  0  0
  9 10  1  0  0  0  0
  9 11  1  0  0  0  0
  9 29  1  0  0  0  0
 11 12  1  0  0  0  0
 11 13  1  0  0  0  0
 11 14  1  0  0  0  0
 14 15  1  0  0  0  0
 14 16  1  0  0  0  0
 14 17  1  0  0  0  0
 17 18  1  0  0  0  0
 17 19  1  0  0  0  0
 17 20  1  0  0  0  0
 20 21  1  0  0  0  0
 20 22  2  0  0  0  0
 22 23  1  0  0  0  0
 22 26  1  0  0  0  0
 23 24  1  0  0  0  0
 23 25  1  0  0  0  0
 26 27  1  0  0  0  0
 26 28  1  0  0  0  0
 29 30  2  0  0  0  0
 29 31  1  0  0  0  0
 31 32  1  0  0  0  0
 31 33  1  0  0  0  0
 33 34  1  0  0  0  0
 33 35  1  0  0  0  0
 33 36  1  0  0  0  0
M  CHG  1  20   1
M  END
$$$$

  -OEChem-03222214013D

 36 35  0     1  0  0  0  0  0999 V2000
   -4.6151   -3.5382    0.8144 H   0  0  0  0  0  0  0  0  0  0  0  0
   -4.3327   -2.5130    0.5582 C   0  0  0  0  0  0  0  0  0  0  0  0
   -5.0937   -1.8319    0.9467 H   0  0  0  0  0  0  0  0  0  0  0  0
   -4.2910   -2.4216   -0.5298 H   0  0  0  0  0  0  0  0  0  0  0  0
   -2.9810   -2.1799    1.1595 C   0  0  0  0  0  0  0  0  0  0  0  0
   -2.3705   -3.0180    1.8023 O   0  0  0  0  0  0  0  0  0  0  0  0
   -2.4329   -0.9231    0.9879 N   0  0  0  0  0  0  0  0  0  0  0  0
   -2.9821   -0.2379    0.4717 H   0  0  0  0  0  0  0  0  0  0  0  0
   -1.1424   -0.5032    1.5571 C   0  0  1  0  0  0  0  0  0  0  0  0
   -0.7901   -1.1916    2.3331 H   0  0  0  0  0  0  0  0  0  0  0  0
   -0.2073   -0.5822    0.3153 C   0  0  0  0  0  0  0  0  0  0  0  0
   -0.2693   -1.6034   -0.0795 H   0  0  0  0  0  0  0  0  0  0  0  0
   -0.6405    0.0730   -0.4496 H   0  0  0  0  0  0  0  0  0  0  0  0
    1.2979   -0.2284    0.3883 C   0  0  0  0  0  0  0  0  0  0  0  0
    1.8647   -1.1650    0.3451 H   0  0  0  0  0  0  0  0  0  0  0  0
    1.5445    0.3236   -0.5257 H   0  0  0  0  0  0  0  0  0  0  0  0
    1.8053    0.5400    1.6118 C   0  0  0  0  0  0  0  0  0  0  0  0
    0.9898    1.0115    2.1460 H   0  0  0  0  0  0  0  0  0  0  0  0
    2.2906   -0.1567    2.3044 H   0  0  0  0  0  0  0  0  0  0  0  0
    2.7460    1.5956    1.1951 N   0  3  0  0  0  0  0  0  0  0  0  0
    3.7297    1.3389    1.1212 H   0  0  0  0  0  0  0  0  0  0  0  0
    2.3759    2.8109    0.8979 C   0  0  0  0  0  0  0  0  0  0  0  0
    1.0617    3.2262    0.9435 N   0  0  0  0  0  0  0  0  0  0  0  0
    0.3204    2.5338    1.0918 H   0  0  0  0  0  0  0  0  0  0  0  0
    0.8016    4.0959    0.4849 H   0  0  0  0  0  0  0  0  0  0  0  0
    3.3281    3.7246    0.5144 N   0  0  0  0  0  0  0  0  0  0  0  0
    4.3106    3.4959    0.6512 H   0  0  0  0  0  0  0  0  0  0  0  0
    3.0668    4.7081    0.4757 H   0  0  0  0  0  0  0  0  0  0  0  0
   -1.3059    0.9004    2.1790 C   0  0  0  0  0  0  0  0  0  0  0  0
   -1.5034    1.8605    1.4413 O   0  0  0  0  0  0  0  0  0  0  0  0
   -0.7838    1.1681    3.4336 N   0  0  0  0  0  0  0  0  0  0  0  0
   -0.6777    0.3612    4.0469 H   0  0  0  0  0  0  0  0  0  0  0  0
   -0.8966    2.4779    4.0713 C   0  0  0  0  0  0  0  0  0  0  0  0
   -1.9472    2.7802    4.1435 H   0  0  0  0  0  0  0  0  0  0  0  0
   -0.4792    2.4427    5.0828 H   0  0  0  0  0  0  0  0  0  0  0  0
   -0.3511    3.2376    3.5028 H   0  0  0  0  0  0  0  0  0  0  0  0
  1  2  1  0  0  0  0
  2  3  1  0  0  0  0
  2  4  1  0  0  0  0
  2  5  1  0  0  0  0
  5  6  2  0  0  0  0
  5  7  1  0  0  0  0
  7  8  1  0  0  0  0
  7  9  1  0  0  0  0
  9 10  1  0  0  0  0
  9 11  1  0  0  0  0
  9 29  1  0  0  0  0
 11 12  1  0  0  0  0
 11 13  1  0  0  0  0
 11 14  1  0  0  0  0
 14 15  1  0  0  0  0
 14 16  1  0  0  0  0
 14 17  1  0  0  0  0
 17 18  1  0  0  0  0
 17 19  1  0  0  0  0
 17 20  1  0  0  0  0
 20 21  1  0  0  0  0
 20 22  2  0  0  0  0
 22 23  1  0  0  0  0
 22 26  1  0  0  0  0
 23 24  1  0  0  0  0
 23 25  1  0  0  0  0
 26 27  1  0  0  0  0
 26 28  1  0  0  0  0
 29 30  2  0  0  0  0
 29 31  1  0  0  0  0
 31 32  1  0  0  0  0
 31 33  1  0  0  0  0
 33 34  1  0  0  0  0
 33 35  1  0  0  0  0
 33 36  1  0  0  0  0
M  CHG  1  20   1
M  END
$$$$

  -OEChem-03222214013D

 36 35  0     1  0  0  0  0  0999 V2000
   -4.6915   -3.5127    0.9316 H   0  0  0  0  0  0  0  0  0  0  0  0
   -4.3877   -2.5012    0.6468 C   0  0  0  0  0  0  0  0  0  0  0  0
   -5.1248   -1.7924    1.0316 H   0  0  0  0  0  0  0  0  0  0  0  0
   -4.3628   -2.4355   -0.4436 H   0  0  0  0  0  0  0  0  0  0  0  0
   -3.0179   -2.1885    1.2176 C   0  0  0  0  0  0  0  0  0  0  0  0
   -2.4136   -3.0291    1.8636 O   0  0  0  0  0  0  0  0  0  0  0  0
   -2.4470   -0.9464    1.0166 N   0  0  0  0  0  0  0  0  0  0  0  0
   -2.9853   -0.2619    0.4880 H   0  0  0  0  0  0  0  0  0  0  0  0
   -1.1309   -0.5506    1.5420 C   0  0  1  0  0  0  0  0  0  0  0  0
   -0.7645   -1.2450    2.3057 H   0  0  0  0  0  0  0  0  0  0  0  0
   -0.2491   -0.6439    0.2638 C   0  0  0  0  0  0  0  0  0  0  0  0
   -0.3333   -1.6722   -0.1077 H   0  0  0  0  0  0  0  0  0  0  0  0
   -0.7011   -0.0007   -0.5005 H   0  0  0  0  0  0  0  0  0  0  0  0
    1.2610   -0.3145    0.2914 C   0  0  0  0  0  0  0  0  0  0  0  0
    1.8156   -1.1885   -0.0677 H   0  0  0  0  0  0  0  0  0  0  0  0
    1.4216    0.4775   -0.4481 H   0  0  0  0  0  0  0  0  0  0  0  0
    1.8730    0.1118    1.6277 C   0  0  0  0  0  0  0  0  0  0  0  0
    1.1235    0.5348    2.2858 H   0  0  0  0  0  0  0  0  0  0  0  0
    2.2868   -0.7680    2.1332 H   0  0  0  0  0  0  0  0  0  0  0  0
    2.9232    1.1233    1.4065 N   0  3  0  0  0  0  0  0  0  0  0  0
    3.8851    0.7890    1.3605 H   0  0  0  0  0  0  0  0  0  0  0  0
    2.6802    2.3958    1.2472 C   0  0  0  0  0  0  0  0  0  0  0  0
    1.4057    2.9231    1.2589 N   0  0  0  0  0  0  0  0  0  0  0  0
    0.6000    2.2909    1.2813 H   0  0  0  0  0  0  0  0  0  0  0  0
    1.2541    3.8585    0.8892 H   0  0  0  0  0  0  0  0  0  0  0  0
    3.7322    3.2567    1.0447 N   0  0  0  0  0  0  0  0  0  0  0  0
    4.6786    2.9230    1.2161 H   0  0  0  0  0  0  0  0  0  0  0  0
    3.5585    4.2577    1.1155 H   0  0  0  0  0  0  0  0  0  0  0  0
   -1.2291    0.8634    2.1587 C   0  0  0  0  0  0  0  0  0  0  0  0
   -1.4049    1.8263    1.4210 O   0  0  0  0  0  0  0  0  0  0  0  0
   -0.6573    1.1260    3.3929 N   0  0  0  0  0  0  0  0  0  0  0  0
   -0.5669    0.3169    4.0062 H   0  0  0  0  0  0  0  0  0  0  0  0
   -0.7620    2.4310    4.0435 C   0  0  0  0  0  0  0  0  0  0  0  0
   -1.8118    2.6789    4.2348 H   0  0  0  0  0  0  0  0  0  0  0  0
   -0.2307    2.4184    5.0005 H   0  0  0  0  0  0  0  0  0  0  0  0
   -0.3256    3.2195    3.4231 H   0  0  0  0  0  0  0  0  0  0  0  0
  1  2  1  0  0  0  0
  2  3  1  0  0  0  0
  2  4  1  0  0  0  0
  2  5  1  0  0  0  0
  5  6  2  0  0  0  0
  5  7  1  0  0  0  0
  7  8  1  0  0  0  0
  7  9  1  0  0  0  0
  9 10  1  0  0  0  0
  9 11  1  0  0  0  0
  9 29  1  0  0  0  0
 11 12  1  0  0  0  0
 11 13  1  0  0  0  0
 11 14  1  0  0  0  0
 14 15  1  0  0  0  0
 14 16  1  0  0  0  0
 14 17  1  0  0  0  0
 17 18  1  0  0  0  0
 17 19  1  0  0  0  0
 17 20  1  0  0  0  0
 20 21  1  0  0  0  0
 20 22  2  0  0  0  0
 22 23  1  0  0  0  0
 22 26  1  0  0  0  0
 23 24  1  0  0  0  0
 23 25  1  0  0  0  0
 26 27  1  0  0  0  0
 26 28  1  0  0  0  0
 29 30  2  0  0  0  0
 29 31  1  0  0  0  0
 31 32  1  0  0  0  0
 31 33  1  0  0  0  0
 33 34  1  0  0  0  0
 33 35  1  0  0  0  0
 33 36  1  0  0  0  0
M  CHG  1  20   1
M  END
$$$$

  -OEChem-03222214013D

 36 35  0     1  0  0  0  0  0999 V2000
   -4.0995   -4.2044    1.6972 H   0  0  0  0  0  0  0  0  0  0  0  0
   -4.0926   -3.1972    1.2711 C   0  0  0  0  0  0  0  0  0  0  0  0
   -4.9066   -2.6207    1.7170 H   0  0  0  0  0  0  0  0  0  0  0  0
   -4.2554   -3.2704    0.1931 H   0  0  0  0  0  0  0  0  0  0  0  0
   -2.7644   -2.5211    1.5504 C   0  0  0  0  0  0  0  0  0  0  0  0
   -1.8956   -3.1034    2.1816 O   0  0  0  0  0  0  0  0  0  0  0  0
   -2.5284   -1.2394    1.0952 N   0  0  0  0  0  0  0  0  0  0  0  0
   -3.2908   -0.7565    0.6203 H   0  0  0  0  0  0  0  0  0  0  0  0
   -1.2940   -0.4865    1.3552 C   0  0  1  0  0  0  0  0  0  0  0  0
   -0.7018   -0.9457    2.1528 H   0  0  0  0  0  0  0  0  0  0  0  0
   -0.5285   -0.5453    0.0111 C   0  0  0  0  0  0  0  0  0  0  0  0
   -0.3726   -1.6059   -0.2175 H   0  0  0  0  0  0  0  0  0  0  0  0
   -1.1751   -0.1452   -0.7787 H   0  0  0  0  0  0  0  0  0  0  0  0
    0.8467    0.1474   -0.1088 C   0  0  0  0  0  0  0  0  0  0  0  0
    1.5091   -0.5154   -0.6766 H   0  0  0  0  0  0  0  0  0  0  0  0
    0.7104    1.0592   -0.7017 H   0  0  0  0  0  0  0  0  0  0  0  0
    1.5239    0.5399    1.2042 C   0  0  0  0  0  0  0  0  0  0  0  0
    0.9355    1.3160    1.6998 H   0  0  0  0  0  0  0  0  0  0  0  0
    1.5838   -0.3378    1.8572 H   0  0  0  0  0  0  0  0  0  0  0  0
    2.8752    1.0551    0.9141 N   0  3  0  0  0  0  0  0  0  0  0  0
    3.1840    1.0179   -0.0567 H   0  0  0  0  0  0  0  0  0  0  0  0
    3.6679    1.5664    1.8110 C   0  0  0  0  0  0  0  0  0  0  0  0
    3.3166    1.6286    3.1399 N   0  0  0  0  0  0  0  0  0  0  0  0
    2.5037    1.0947    3.4379 H   0  0  0  0  0  0  0  0  0  0  0  0
    4.0457    1.8124    3.8266 H   0  0  0  0  0  0  0  0  0  0  0  0
    4.8935    2.0586    1.4300 N   0  0  0  0  0  0  0  0  0  0  0  0
    5.0868    2.1777    0.4373 H   0  0  0  0  0  0  0  0  0  0  0  0
    5.4116    2.6374    2.0888 H   0  0  0  0  0  0  0  0  0  0  0  0
   -1.6660    0.9524    1.7728 C   0  0  0  0  0  0  0  0  0  0  0  0
   -2.3851    1.6252    1.0472 O   0  0  0  0  0  0  0  0  0  0  0  0
   -1.0448    1.5552    2.8543 N   0  0  0  0  0  0  0  0  0  0  0  0
   -0.6914    0.9170    3.5619 H   0  0  0  0  0  0  0  0  0  0  0  0
   -1.3977    2.9068    3.2835 C   0  0  0  0  0  0  0  0  0  0  0  0
   -2.4575    2.9589    3.5567 H   0  0  0  0  0  0  0  0  0  0  0  0
   -0.8016    3.1986    4.1536 H   0  0  0  0  0  0  0  0  0  0  0  0
   -1.2083    3.6282    2.4812 H   0  0  0  0  0  0  0  0  0  0  0  0
  1  2  1  0  0  0  0
  2  3  1  0  0  0  0
  2  4  1  0  0  0  0
  2  5  1  0  0  0  0
  5  6  2  0  0  0  0
  5  7  1  0  0  0  0
  7  8  1  0  0  0  0
  7  9  1  0  0  0  0
  9 10  1  0  0  0  0
  9 11  1  0  0  0  0
  9 29  1  0  0  0  0
 11 12  1  0  0  0  0
 11 13  1  0  0  0  0
 11 14  1  0  0  0  0
 14 15  1  0  0  0  0
 14 16  1  0  0  0  0
 14 17  1  0  0  0  0
 17 18  1  0  0  0  0
 17 19  1  0  0  0  0
 17 20  1  0  0  0  0
 20 21  1  0  0  0  0
 20 22  2  0  0  0  0
 22 23  1  0  0  0  0
 22 26  1  0  0  0  0
 23 24  1  0  0  0  0
 23 25  1  0  0  0  0
 26 27  1  0  0  0  0
 26 28  1  0  0  0  0
 29 30  2  0  0  0  0
 29 31  1  0  0  0  0
 31 32  1  0  0  0  0
 31 33  1  0  0  0  0
 33 34  1  0  0  0  0
 33 35  1  0  0  0  0
 33 36  1  0  0  0  0
M  CHG  1  20   1
M  END
$$$$

  -OEChem-03222214013D

 36 35  0     1  0  0  0  0  0999 V2000
   -3.6027   -4.2459    2.2070 H   0  0  0  0  0  0  0  0  0  0  0  0
   -3.6797   -3.3261    1.6202 C   0  0  0  0  0  0  0  0  0  0  0  0
   -4.5676   -2.7768    1.9425 H   0  0  0  0  0  0  0  0  0  0  0  0
   -3.7859   -3.5894    0.5651 H   0  0  0  0  0  0  0  0  0  0  0  0
   -2.4414   -2.4742    1.8194 C   0  0  0  0  0  0  0  0  0  0  0  0
   -1.5355   -2.8581    2.5452 O   0  0  0  0  0  0  0  0  0  0  0  0
   -2.3188   -1.2629    1.1690 N   0  0  0  0  0  0  0  0  0  0  0  0
   -3.1164   -0.9365    0.6228 H   0  0  0  0  0  0  0  0  0  0  0  0
   -1.2271   -0.3119    1.4120 C   0  0  1  0  0  0  0  0  0  0  0  0
   -0.7002   -0.5511    2.3408 H   0  0  0  0  0  0  0  0  0  0  0  0
   -0.2831   -0.4531    0.1978 C   0  0  0  0  0  0  0  0  0  0  0  0
    0.0474   -1.4970    0.1654 H   0  0  0  0  0  0  0  0  0  0  0  0
   -0.8501   -0.2689   -0.7222 H   0  0  0  0  0  0  0  0  0  0  0  0
    0.9767    0.4327    0.1736 C   0  0  0  0  0  0  0  0  0  0  0  0
    1.7403   -0.0757   -0.4248 H   0  0  0  0  0  0  0  0  0  0  0  0
    0.7349    1.3717   -0.3375 H   0  0  0  0  0  0  0  0  0  0  0  0
    1.5267    0.7729    1.5609 C   0  0  0  0  0  0  0  0  0  0  0  0
    0.9059    1.5486    2.0197 H   0  0  0  0  0  0  0  0  0  0  0  0
    1.4817   -0.1108    2.2061 H   0  0  0  0  0  0  0  0  0  0  0  0
    2.9173    1.2528    1.4512 N   0  3  0  0  0  0  0  0  0  0  0  0
    3.0490    2.2311    1.1950 H   0  0  0  0  0  0  0  0  0  0  0  0
    3.9629    0.5018    1.6550 C   0  0  0  0  0  0  0  0  0  0  0  0
    3.8520   -0.8354    1.9663 N   0  0  0  0  0  0  0  0  0  0  0  0
    2.9391   -1.2764    1.8681 H   0  0  0  0  0  0  0  0  0  0  0  0
    4.6782   -1.4260    1.8938 H   0  0  0  0  0  0  0  0  0  0  0  0
    5.2199    1.0480    1.5514 N   0  0  0  0  0  0  0  0  0  0  0  0
    5.3120    2.0608    1.4997 H   0  0  0  0  0  0  0  0  0  0  0  0
    6.0122    0.5144    1.9052 H   0  0  0  0  0  0  0  0  0  0  0  0
   -1.8082    1.1130    1.5353 C   0  0  0  0  0  0  0  0  0  0  0  0
   -2.5693    1.5262    0.6713 O   0  0  0  0  0  0  0  0  0  0  0  0
   -1.3974    1.9678    2.5438 N   0  0  0  0  0  0  0  0  0  0  0  0
   -0.9563    1.5358    3.3508 H   0  0  0  0  0  0  0  0  0  0  0  0
   -1.9890    3.2915    2.7217 C   0  0  0  0  0  0  0  0  0  0  0  0
   -3.0535    3.2063    2.9661 H   0  0  0  0  0  0  0  0  0  0  0  0
   -1.4885    3.8262    3.5348 H   0  0  0  0  0  0  0  0  0  0  0  0
   -1.8874    3.8862    1.8073 H   0  0  0  0  0  0  0  0  0  0  0  0
  1  2  1  0  0  0  0
  2  3  1  0  0  0  0
  2  4  1  0  0  0  0
  2  5  1  0  0  0  0
  5  6  2  0  0  0  0
  5  7  1  0  0  0  0
  7  8  1  0  0  0  0
  7  9  1  0  0  0  0
  9 10  1  0  0  0  0
  9 11  1  0  0  0  0
  9 29  1  0  0  0  0
 11 12  1  0  0  0  0
 11 13  1  0  0  0  0
 11 14  1  0  0  0  0
 14 15  1  0  0  0  0
 14 16  1  0  0  0  0
 14 17  1  0  0  0  0
 17 18  1  0  0  0  0
 17 19  1  0  0  0  0
 17 20  1  0  0  0  0
 20 21  1  0  0  0  0
 20 22  2  0  0  0  0
 22 23  1  0  0  0  0
 22 26  1  0  0  0  0
 23 24  1  0  0  0  0
 23 25  1  0  0  0  0
 26 27  1  0  0  0  0
 26 28  1  0  0  0  0
 29 30  2  0  0  0  0
 29 31  1  0  0  0  0
 31 32  1  0  0  0  0
 31 33  1  0  0  0  0
 33 34  1  0  0  0  0
 33 35  1  0  0  0  0
 33 36  1  0  0  0  0
M  CHG  1  20   1
M  END
$$$$

  -OEChem-03222214013D

 36 35  0     1  0  0  0  0  0999 V2000
   -3.9187   -4.1730    2.0492 H   0  0  0  0  0  0  0  0  0  0  0  0
   -3.9545   -3.2075    1.5368 C   0  0  0  0  0  0  0  0  0  0  0  0
   -4.7570   -2.6076    1.9728 H   0  0  0  0  0  0  0  0  0  0  0  0
   -4.1699   -3.3783    0.4792 H   0  0  0  0  0  0  0  0  0  0  0  0
   -2.6285   -2.4870    1.6857 C   0  0  0  0  0  0  0  0  0  0  0  0
   -1.7101   -3.0031    2.3062 O   0  0  0  0  0  0  0  0  0  0  0  0
   -2.4454   -1.2449    1.1116 N   0  0  0  0  0  0  0  0  0  0  0  0
   -3.2479   -0.8116    0.6547 H   0  0  0  0  0  0  0  0  0  0  0  0
   -1.2407   -0.4263    1.2939 C   0  0  1  0  0  0  0  0  0  0  0  0
   -0.6541   -0.7936    2.1408 H   0  0  0  0  0  0  0  0  0  0  0  0
   -0.4333   -0.5558   -0.0154 C   0  0  0  0  0  0  0  0  0  0  0  0
   -0.2090   -1.6173   -0.1684 H   0  0  0  0  0  0  0  0  0  0  0  0
   -1.0567   -0.2330   -0.8571 H   0  0  0  0  0  0  0  0  0  0  0  0
    0.8912    0.2243   -0.0624 C   0  0  0  0  0  0  0  0  0  0  0  0
    1.4702   -0.1244   -0.9245 H   0  0  0  0  0  0  0  0  0  0  0  0
    0.6729    1.2870   -0.2181 H   0  0  0  0  0  0  0  0  0  0  0  0
    1.7104    0.0618    1.2183 C   0  0  0  0  0  0  0  0  0  0  0  0
    1.1848    0.5349    2.0539 H   0  0  0  0  0  0  0  0  0  0  0  0
    1.8102   -1.0067    1.4361 H   0  0  0  0  0  0  0  0  0  0  0  0
    3.0372    0.6822    1.0472 N   0  3  0  0  0  0  0  0  0  0  0  0
    3.0808    1.5276    0.4788 H   0  0  0  0  0  0  0  0  0  0  0  0
    4.1308    0.2203    1.5837 C   0  0  0  0  0  0  0  0  0  0  0  0
    4.1406   -0.9177    2.3589 N   0  0  0  0  0  0  0  0  0  0  0  0
    3.3029   -1.4962    2.3711 H   0  0  0  0  0  0  0  0  0  0  0  0
    5.0327   -1.3654    2.5593 H   0  0  0  0  0  0  0  0  0  0  0  0
    5.3179    0.8812    1.3751 N   0  0  0  0  0  0  0  0  0  0  0  0
    5.2999    1.8059    0.9490 H   0  0  0  0  0  0  0  0  0  0  0  0
    6.1219    0.6340    1.9493 H   0  0  0  0  0  0  0  0  0  0  0  0
   -1.6268    1.0392    1.5811 C   0  0  0  0  0  0  0  0  0  0  0  0
   -2.4085    1.6132    0.8359 O   0  0  0  0  0  0  0  0  0  0  0  0
   -1.0036    1.7502    2.5925 N   0  0  0  0  0  0  0  0  0  0  0  0
   -0.5461    1.2015    3.3148 H   0  0  0  0  0  0  0  0  0  0  0  0
   -1.3881    3.1207    2.9210 C   0  0  0  0  0  0  0  0  0  0  0  0
   -2.4361    3.1600    3.2375 H   0  0  0  0  0  0  0  0  0  0  0  0
   -0.7659    3.5065    3.7344 H   0  0  0  0  0  0  0  0  0  0  0  0
   -1.2610    3.7757    2.0522 H   0  0  0  0  0  0  0  0  0  0  0  0
  1  2  1  0  0  0  0
  2  3  1  0  0  0  0
  2  4  1  0  0  0  0
  2  5  1  0  0  0  0
  5  6  2  0  0  0  0
  5  7  1  0  0  0  0
  7  8  1  0  0  0  0
  7  9  1  0  0  0  0
  9 10  1  0  0  0  0
  9 11  1  0  0  0  0
  9 29  1  0  0  0  0
 11 12  1  0  0  0  0
 11 13  1  0  0  0  0
 11 14  1  0  0  0  0
 14 15  1  0  0  0  0
 14 16  1  0  0  0  0
 14 17  1  0  0  0  0
 17 18  1  0  0  0  0
 17 19  1  0  0  0  0
 17 20  1  0  0  0  0
 20 21  1  0  0  0  0
 20 22  2  0  0  0  0
 22 23  1  0  0  0  0
 22 26  1  0  0  0  0
 23 24  1  0  0  0  0
 23 25  1  0  0  0  0
 26 27  1  0  0  0  0
 26 28  1  0  0  0  0
 29 30  2  0  0  0  0
 29 31  1  0  0  0  0
 31 32  1  0  0  0  0
 31 33  1  0  0  0  0
 33 34  1  0  0  0  0
 33 35  1  0  0  0  0
 33 36  1  0  0  0  0
M  CHG  1  20   1
M  END
$$$$

  -OEChem-03222214013D

 36 35  0     1  0  0  0  0  0999 V2000
   -3.9350   -4.1683    2.0051 H   0  0  0  0  0  0  0  0  0  0  0  0
   -3.9837   -3.1726    1.5553 C   0  0  0  0  0  0  0  0  0  0  0  0
   -4.7341   -2.5825    2.0869 H   0  0  0  0  0  0  0  0  0  0  0  0
   -4.2843   -3.2737    0.5096 H   0  0  0  0  0  0  0  0  0  0  0  0
   -2.6310   -2.4929    1.6436 C   0  0  0  0  0  0  0  0  0  0  0  0
   -1.6902   -3.0564    2.1845 O   0  0  0  0  0  0  0  0  0  0  0  0
   -2.4491   -1.2354    1.1037 N   0  0  0  0  0  0  0  0  0  0  0  0
   -3.2665   -0.7630    0.7175 H   0  0  0  0  0  0  0  0  0  0  0  0
   -1.2128   -0.4560    1.2384 C   0  0  1  0  0  0  0  0  0  0  0  0
   -0.5913   -0.8672    2.0389 H   0  0  0  0  0  0  0  0  0  0  0  0
   -0.4754   -0.5706   -0.1113 C   0  0  0  0  0  0  0  0  0  0  0  0
   -0.2927   -1.6302   -0.3221 H   0  0  0  0  0  0  0  0  0  0  0  0
   -1.1282   -0.1894   -0.9052 H   0  0  0  0  0  0  0  0  0  0  0  0
    0.8607    0.1842   -0.1755 C   0  0  0  0  0  0  0  0  0  0  0  0
    1.2904    0.0419   -1.1733 H   0  0  0  0  0  0  0  0  0  0  0  0
    0.6926    1.2583   -0.0383 H   0  0  0  0  0  0  0  0  0  0  0  0
    1.8328   -0.3383    0.8822 C   0  0  0  0  0  0  0  0  0  0  0  0
    1.4435   -0.1104    1.8801 H   0  0  0  0  0  0  0  0  0  0  0  0
    1.9096   -1.4265    0.7814 H   0  0  0  0  0  0  0  0  0  0  0  0
    3.1571    0.2841    0.7051 N   0  3  0  0  0  0  0  0  0  0  0  0
    3.2055    1.1160    0.1177 H   0  0  0  0  0  0  0  0  0  0  0  0
    4.2459   -0.1753    1.2520 C   0  0  0  0  0  0  0  0  0  0  0  0
    4.2414   -1.3030    2.0422 N   0  0  0  0  0  0  0  0  0  0  0  0
    3.3986   -1.8745    2.0540 H   0  0  0  0  0  0  0  0  0  0  0  0
    5.1286   -1.7569    2.2508 H   0  0  0  0  0  0  0  0  0  0  0  0
    5.4381    0.4758    1.0411 N   0  0  0  0  0  0  0  0  0  0  0  0
    5.4272    1.3947    0.6023 H   0  0  0  0  0  0  0  0  0  0  0  0
    6.2361    0.2342    1.6262 H   0  0  0  0  0  0  0  0  0  0  0  0
   -1.5308    1.0083    1.6015 C   0  0  0  0  0  0  0  0  0  0  0  0
   -2.3525    1.6294    0.9420 O   0  0  0  0  0  0  0  0  0  0  0  0
   -0.8187    1.6578    2.5952 N   0  0  0  0  0  0  0  0  0  0  0  0
   -0.3045    1.0706    3.2453 H   0  0  0  0  0  0  0  0  0  0  0  0
   -1.1337    3.0226    3.0094 C   0  0  0  0  0  0  0  0  0  0  0  0
   -2.1520    3.0773    3.4095 H   0  0  0  0  0  0  0  0  0  0  0  0
   -0.4379    3.3548    3.7860 H   0  0  0  0  0  0  0  0  0  0  0  0
   -1.0544    3.7109    2.1610 H   0  0  0  0  0  0  0  0  0  0  0  0
  1  2  1  0  0  0  0
  2  3  1  0  0  0  0
  2  4  1  0  0  0  0
  2  5  1  0  0  0  0
  5  6  2  0  0  0  0
  5  7  1  0  0  0  0
  7  8  1  0  0  0  0
  7  9  1  0  0  0  0
  9 10  1  0  0  0  0
  9 11  1  0  0  0  0
  9 29  1  0  0  0  0
 11 12  1  0  0  0  0
 11 13  1  0  0  0  0
 11 14  1  0  0  0  0
 14 15  1  0  0  0  0
 14 16  1  0  0  0  0
 14 17  1  0  0  0  0
 17 18  1  0  0  0  0
 17 19  1  0  0  0  0
 17 20  1  0  0  0  0
 20 21  1  0  0  0  0
 20 22  2  0  0  0  0
 22 23  1  0  0  0  0
 22 26  1  0  0  0  0
 23 24  1  0  0  0  0
 23 25  1  0  0  0  0
 26 27  1  0  0  0  0
 26 28  1  0  0  0  0
 29 30  2  0  0  0  0
 29 31  1  0  0  0  0
 31 32  1  0  0  0  0
 31 33  1  0  0  0  0
 33 34  1  0  0  0  0
 33 35  1  0  0  0  0
 33 36  1  0  0  0  0
M  CHG  1  20   1
M  END
$$$$

  -OEChem-03222214013D

 36 35  0     1  0  0  0  0  0999 V2000
   -3.9257   -4.1649    1.9763 H   0  0  0  0  0  0  0  0  0  0  0  0
   -3.9813   -3.1500    1.5725 C   0  0  0  0  0  0  0  0  0  0  0  0
   -4.6881   -2.5711    2.1721 H   0  0  0  0  0  0  0  0  0  0  0  0
   -4.3438   -3.2008    0.5429 H   0  0  0  0  0  0  0  0  0  0  0  0
   -2.6131   -2.4969    1.6091 C   0  0  0  0  0  0  0  0  0  0  0  0
   -1.6562   -3.0924    2.0836 O   0  0  0  0  0  0  0  0  0  0  0  0
   -2.4343   -1.2289    1.0932 N   0  0  0  0  0  0  0  0  0  0  0  0
   -3.2619   -0.7303    0.7657 H   0  0  0  0  0  0  0  0  0  0  0  0
   -1.1843   -0.4678    1.2063 C   0  0  1  0  0  0  0  0  0  0  0  0
   -0.5409   -0.9005    1.9783 H   0  0  0  0  0  0  0  0  0  0  0  0
   -0.4850   -0.5675   -0.1641 C   0  0  0  0  0  0  0  0  0  0  0  0
   -0.3349   -1.6220   -0.4208 H   0  0  0  0  0  0  0  0  0  0  0  0
   -1.1537   -0.1433   -0.9220 H   0  0  0  0  0  0  0  0  0  0  0  0
    0.8575    0.1743   -0.2394 C   0  0  0  0  0  0  0  0  0  0  0  0
    1.1454    0.2572   -1.2934 H   0  0  0  0  0  0  0  0  0  0  0  0
    0.7707    1.1909    0.1581 H   0  0  0  0  0  0  0  0  0  0  0  0
    1.9258   -0.6192    0.5118 C   0  0  0  0  0  0  0  0  0  0  0  0
    1.6668   -0.6561    1.5757 H   0  0  0  0  0  0  0  0  0  0  0  0
    1.9412   -1.6440    0.1244 H   0  0  0  0  0  0  0  0  0  0  0  0
    3.2483    0.0061    0.3343 N   0  3  0  0  0  0  0  0  0  0  0  0
    3.2833    0.8836   -0.1836 H   0  0  0  0  0  0  0  0  0  0  0  0
    4.3544   -0.5237    0.7718 C   0  0  0  0  0  0  0  0  0  0  0  0
    4.3639   -1.7187    1.4557 N   0  0  0  0  0  0  0  0  0  0  0  0
    3.5051   -2.2658    1.4742 H   0  0  0  0  0  0  0  0  0  0  0  0
    5.2475   -2.2111    1.5710 H   0  0  0  0  0  0  0  0  0  0  0  0
    5.5497    0.1176    0.5488 N   0  0  0  0  0  0  0  0  0  0  0  0
    5.5386    1.0733    0.1975 H   0  0  0  0  0  0  0  0  0  0  0  0
    6.3747   -0.1965    1.0570 H   0  0  0  0  0  0  0  0  0  0  0  0
   -1.4842    0.9889    1.6145 C   0  0  0  0  0  0  0  0  0  0  0  0
   -2.3349    1.6234    1.0062 O   0  0  0  0  0  0  0  0  0  0  0  0
   -0.7402    1.6126    2.6012 N   0  0  0  0  0  0  0  0  0  0  0  0
   -0.1818    1.0138    3.2025 H   0  0  0  0  0  0  0  0  0  0  0  0
   -1.0410    2.9639    3.0664 C   0  0  0  0  0  0  0  0  0  0  0  0
   -2.0382    3.0015    3.5183 H   0  0  0  0  0  0  0  0  0  0  0  0
   -0.3088    3.2800    3.8159 H   0  0  0  0  0  0  0  0  0  0  0  0
   -1.0076    3.6750    2.2338 H   0  0  0  0  0  0  0  0  0  0  0  0
  1  2  1  0  0  0  0
  2  3  1  0  0  0  0
  2  4  1  0  0  0  0
  2  5  1  0  0  0  0
  5  6  2  0  0  0  0
  5  7  1  0  0  0  0
  7  8  1  0  0  0  0
  7  9  1  0  0  0  0
  9 10  1  0  0  0  0
  9 11  1  0  0  0  0
  9 29  1  0  0  0  0
 11 12  1  0  0  0  0
 11 13  1  0  0  0  0
 11 14  1  0  0  0  0
 14 15  1  0  0  0  0
 14 16  1  0  0  0  0
 14 17  1  0  0  0  0
 17 18  1  0  0  0  0
 17 19  1  0  0  0  0
 17 20  1  0  0  0  0
 20 21  1  0  0  0  0
 20 22  2  0  0  0  0
 22 23  1  0  0  0  0
 22 26  1  0  0  0  0
 23 24  1  0  0  0  0
 23 25  1  0  0  0  0
 26 27  1  0  0  0  0
 26 28  1  0  0  0  0
 29 30  2  0  0  0  0
 29 31  1  0  0  0  0
 31 32  1  0  0  0  0
 31 33  1  0  0  0  0
 33 34  1  0  0  0  0
 33 35  1  0  0  0  0
 33 36  1  0  0  0  0
M  CHG  1  20   1
M  END
$$$$

  -OEChem-03222214013D

 36 35  0     1  0  0  0  0  0999 V2000
   -3.9586   -4.1253    2.0393 H   0  0  0  0  0  0  0  0  0  0  0  0
   -3.9977   -3.1269    1.5949 C   0  0  0  0  0  0  0  0  0  0  0  0
   -4.6803   -2.5076    2.1819 H   0  0  0  0  0  0  0  0  0  0  0  0
   -4.3796   -3.2104    0.5745 H   0  0  0  0  0  0  0  0  0  0  0  0
   -2.6140   -2.5059    1.5818 C   0  0  0  0  0  0  0  0  0  0  0  0
   -1.6486   -3.1367    1.9885 O   0  0  0  0  0  0  0  0  0  0  0  0
   -2.4312   -1.2278    1.0933 N   0  0  0  0  0  0  0  0  0  0  0  0
   -3.2627   -0.7023    0.8225 H   0  0  0  0  0  0  0  0  0  0  0  0
   -1.1623   -0.4935    1.1749 C   0  0  1  0  0  0  0  0  0  0  0  0
   -0.4919   -0.9571    1.9053 H   0  0  0  0  0  0  0  0  0  0  0  0
   -0.5248   -0.5718   -0.2262 C   0  0  0  0  0  0  0  0  0  0  0  0
   -0.4196   -1.6208   -0.5250 H   0  0  0  0  0  0  0  0  0  0  0  0
   -1.2172   -0.1047   -0.9362 H   0  0  0  0  0  0  0  0  0  0  0  0
    0.8297    0.1454   -0.3412 C   0  0  0  0  0  0  0  0  0  0  0  0
    0.9558    0.4824   -1.3760 H   0  0  0  0  0  0  0  0  0  0  0  0
    0.8726    1.0322    0.2984 H   0  0  0  0  0  0  0  0  0  0  0  0
    1.9531   -0.8323   -0.0004 C   0  0  0  0  0  0  0  0  0  0  0  0
    1.8134   -1.1943    1.0245 H   0  0  0  0  0  0  0  0  0  0  0  0
    1.8980   -1.6900   -0.6803 H   0  0  0  0  0  0  0  0  0  0  0  0
    3.2625   -0.1689   -0.1313 N   0  3  0  0  0  0  0  0  0  0  0  0
    3.2746    0.7552   -0.5614 H   0  0  0  0  0  0  0  0  0  0  0  0
    4.3847   -0.7206    0.2312 C   0  0  0  0  0  0  0  0  0  0  0  0
    4.4275   -1.9831    0.7788 N   0  0  0  0  0  0  0  0  0  0  0  0
    3.5812   -2.5486    0.7393 H   0  0  0  0  0  0  0  0  0  0  0  0
    5.3226   -2.4656    0.8275 H   0  0  0  0  0  0  0  0  0  0  0  0
    5.5637   -0.0335    0.0662 N   0  0  0  0  0  0  0  0  0  0  0  0
    5.5267    0.9562   -0.1708 H   0  0  0  0  0  0  0  0  0  0  0  0
    6.3996   -0.3828    0.5317 H   0  0  0  0  0  0  0  0  0  0  0  0
   -1.4229    0.9563    1.6349 C   0  0  0  0  0  0  0  0  0  0  0  0
   -2.2838    1.6220    1.0759 O   0  0  0  0  0  0  0  0  0  0  0  0
   -0.6310    1.5416    2.6076 N   0  0  0  0  0  0  0  0  0  0  0  0
   -0.0540    0.9198    3.1670 H   0  0  0  0  0  0  0  0  0  0  0  0
   -0.8830    2.8882    3.1132 C   0  0  0  0  0  0  0  0  0  0  0  0
   -1.8672    2.9412    3.5910 H   0  0  0  0  0  0  0  0  0  0  0  0
   -0.1242    3.1654    3.8514 H   0  0  0  0  0  0  0  0  0  0  0  0
   -0.8504    3.6183    2.2973 H   0  0  0  0  0  0  0  0  0  0  0  0
  1  2  1  0  0  0  0
  2  3  1  0  0  0  0
  2  4  1  0  0  0  0
  2  5  1  0  0  0  0
  5  6  2  0  0  0  0
  5  7  1  0  0  0  0
  7  8  1  0  0  0  0
  7  9  1  0  0  0  0
  9 10  1  0  0  0  0
  9 11  1  0  0  0  0
  9 29  1  0  0  0  0
 11 12  1  0  0  0  0
 11 13  1  0  0  0  0
 11 14  1  0  0  0  0
 14 15  1  0  0  0  0
 14 16  1  0  0  0  0
 14 17  1  0  0  0  0
 17 18  1  0  0  0  0
 17 19  1  0  0  0  0
 17 20  1  0  0  0  0
 20 21  1  0  0  0  0
 20 22  2  0  0  0  0
 22 23  1  0  0  0  0
 22 26  1  0  0  0  0
 23 24  1  0  0  0  0
 23 25  1  0  0  0  0
 26 27  1  0  0  0  0
 26 28  1  0  0  0  0
 29 30  2  0  0  0  0
 29 31  1  0  0  0  0
 31 32  1  0  0  0  0
 31 33  1  0  0  0  0
 33 34  1  0  0  0  0
 33 35  1  0  0  0  0
 33 36  1  0  0  0  0
M  CHG  1  20   1
M  END
$$$$

  -OEChem-03222214013D

 36 35  0     1  0  0  0  0  0999 V2000
   -3.9713   -4.1176    2.0343 H   0  0  0  0  0  0  0  0  0  0  0  0
   -4.0071   -3.1184    1.5912 C   0  0  0  0  0  0  0  0  0  0  0  0
   -4.6775   -2.4940    2.1869 H   0  0  0  0  0  0  0  0  0  0  0  0
   -4.4013   -3.1974    0.5753 H   0  0  0  0  0  0  0  0  0  0  0  0
   -2.6183   -2.5099    1.5631 C   0  0  0  0  0  0  0  0  0  0  0  0
   -1.6541   -3.1527    1.9523 O   0  0  0  0  0  0  0  0  0  0  0  0
   -2.4310   -1.2300    1.0810 N   0  0  0  0  0  0  0  0  0  0  0  0
   -3.2626   -0.6957    0.8287 H   0  0  0  0  0  0  0  0  0  0  0  0
   -1.1604   -0.4991    1.1704 C   0  0  1  0  0  0  0  0  0  0  0  0
   -0.4921   -0.9685    1.8993 H   0  0  0  0  0  0  0  0  0  0  0  0
   -0.5200   -0.5679   -0.2293 C   0  0  0  0  0  0  0  0  0  0  0  0
   -0.4206   -1.6167   -0.5312 H   0  0  0  0  0  0  0  0  0  0  0  0
   -1.2101   -0.0974   -0.9394 H   0  0  0  0  0  0  0  0  0  0  0  0
    0.8387    0.1485   -0.3370 C   0  0  0  0  0  0  0  0  0  0  0  0
    0.8542    0.7289   -1.2662 H   0  0  0  0  0  0  0  0  0  0  0  0
    0.9933    0.8485    0.4893 H   0  0  0  0  0  0  0  0  0  0  0  0
    1.9629   -0.8857   -0.3747 C   0  0  0  0  0  0  0  0  0  0  0  0
    1.9394   -1.4706    0.5518 H   0  0  0  0  0  0  0  0  0  0  0  0
    1.7928   -1.5659   -1.2169 H   0  0  0  0  0  0  0  0  0  0  0  0
    3.2686   -0.2175   -0.5227 N   0  3  0  0  0  0  0  0  0  0  0  0
    3.2595    0.7754   -0.7530 H   0  0  0  0  0  0  0  0  0  0  0  0
    4.4080   -0.8408   -0.4287 C   0  0  0  0  0  0  0  0  0  0  0  0
    4.4759   -2.1903   -0.1642 N   0  0  0  0  0  0  0  0  0  0  0  0
    3.6112   -2.7276   -0.1948 H   0  0  0  0  0  0  0  0  0  0  0  0
    5.3512   -2.6808   -0.3365 H   0  0  0  0  0  0  0  0  0  0  0  0
    5.5802   -0.1433   -0.6008 N   0  0  0  0  0  0  0  0  0  0  0  0
    5.5496    0.8744   -0.6176 H   0  0  0  0  0  0  0  0  0  0  0  0
    6.4563   -0.5907   -0.3370 H   0  0  0  0  0  0  0  0  0  0  0  0
   -1.4232    0.9484    1.6362 C   0  0  0  0  0  0  0  0  0  0  0  0
   -2.2871    1.6134    1.0808 O   0  0  0  0  0  0  0  0  0  0  0  0
   -0.6365    1.5304    2.6148 N   0  0  0  0  0  0  0  0  0  0  0  0
   -0.0530    0.9085    3.1676 H   0  0  0  0  0  0  0  0  0  0  0  0
   -0.8917    2.8735    3.1277 C   0  0  0  0  0  0  0  0  0  0  0  0
   -1.8784    2.9232    3.6006 H   0  0  0  0  0  0  0  0  0  0  0  0
   -0.1369    3.1462    3.8717 H   0  0  0  0  0  0  0  0  0  0  0  0
   -0.8551    3.6090    2.3167 H   0  0  0  0  0  0  0  0  0  0  0  0
  1  2  1  0  0  0  0
  2  3  1  0  0  0  0
  2  4  1  0  0  0  0
  2  5  1  0  0  0  0
  5  6  2  0  0  0  0
  5  7  1  0  0  0  0
  7  8  1  0  0  0  0
  7  9  1  0  0  0  0
  9 10  1  0  0  0  0
  9 11  1  0  0  0  0
  9 29  1  0  0  0  0
 11 12  1  0  0  0  0
 11 13  1  0  0  0  0
 11 14  1  0  0  0  0
 14 15  1  0  0  0  0
 14 16  1  0  0  0  0
 14 17  1  0  0  0  0
 17 18  1  0  0  0  0
 17 19  1  0  0  0  0
 17 20  1  0  0  0  0
 20 21  1  0  0  0  0
 20 22  2  0  0  0  0
 22 23  1  0  0  0  0
 22 26  1  0  0  0  0
 23 24  1  0  0  0  0
 23 25  1  0  0  0  0
 26 27  1  0  0  0  0
 26 28  1  0  0  0  0
 29 30  2  0  0  0  0
 29 31  1  0  0  0  0
 31 32  1  0  0  0  0
 31 33  1  0  0  0  0
 33 34  1  0  0  0  0
 33 35  1  0  0  0  0
 33 36  1  0  0  0  0
M  CHG  1  20   1
M  END
$$$$

  -OEChem-03222214013D

 36 35  0     1  0  0  0  0  0999 V2000
   -3.9885   -4.1186    1.9873 H   0  0  0  0  0  0  0  0  0  0  0  0
   -4.0210   -3.1059    1.5759 C   0  0  0  0  0  0  0  0  0  0  0  0
   -4.6801   -2.4951    2.1976 H   0  0  0  0  0  0  0  0  0  0  0  0
   -4.4260   -3.1507    0.5621 H   0  0  0  0  0  0  0  0  0  0  0  0
   -2.6283   -2.5066    1.5523 C   0  0  0  0  0  0  0  0  0  0  0  0
   -1.6695   -3.1576    1.9399 O   0  0  0  0  0  0  0  0  0  0  0  0
   -2.4325   -1.2271    1.0730 N   0  0  0  0  0  0  0  0  0  0  0  0
   -3.2616   -0.6863    0.8259 H   0  0  0  0  0  0  0  0  0  0  0  0
   -1.1585   -0.5025    1.1671 C   0  0  1  0  0  0  0  0  0  0  0  0
   -0.4939   -0.9779    1.8961 H   0  0  0  0  0  0  0  0  0  0  0  0
   -0.5173   -0.5661   -0.2315 C   0  0  0  0  0  0  0  0  0  0  0  0
   -0.4136   -1.6194   -0.5156 H   0  0  0  0  0  0  0  0  0  0  0  0
   -1.2028   -0.1078   -0.9537 H   0  0  0  0  0  0  0  0  0  0  0  0
    0.8451    0.1464   -0.3305 C   0  0  0  0  0  0  0  0  0  0  0  0
    0.7730    0.9505   -1.0714 H   0  0  0  0  0  0  0  0  0  0  0  0
    1.1234    0.6000    0.6257 H   0  0  0  0  0  0  0  0  0  0  0  0
    1.9234   -0.8543   -0.7465 C   0  0  0  0  0  0  0  0  0  0  0  0
    2.0050   -1.6286    0.0249 H   0  0  0  0  0  0  0  0  0  0  0  0
    1.6219   -1.3318   -1.6858 H   0  0  0  0  0  0  0  0  0  0  0  0
    3.2191   -0.1738   -0.9240 N   0  3  0  0  0  0  0  0  0  0  0  0
    3.2085    0.8448   -0.9572 H   0  0  0  0  0  0  0  0  0  0  0  0
    4.3429   -0.8075   -1.1015 C   0  0  0  0  0  0  0  0  0  0  0  0
    4.4062   -2.1828   -1.1137 N   0  0  0  0  0  0  0  0  0  0  0  0
    3.5298   -2.7013   -1.1339 H   0  0  0  0  0  0  0  0  0  0  0  0
    5.2381   -2.6321   -1.4912 H   0  0  0  0  0  0  0  0  0  0  0  0
    5.5029   -0.0939   -1.2881 N   0  0  0  0  0  0  0  0  0  0  0  0
    5.4987    0.9081   -1.1069 H   0  0  0  0  0  0  0  0  0  0  0  0
    6.3925   -0.5864   -1.2288 H   0  0  0  0  0  0  0  0  0  0  0  0
   -1.4125    0.9462    1.6340 C   0  0  0  0  0  0  0  0  0  0  0  0
   -2.2781    1.6133    1.0834 O   0  0  0  0  0  0  0  0  0  0  0  0
   -0.6253    1.5235    2.6149 N   0  0  0  0  0  0  0  0  0  0  0  0
   -0.0400    0.8982    3.1621 H   0  0  0  0  0  0  0  0  0  0  0  0
   -0.8940    2.8565    3.1473 C   0  0  0  0  0  0  0  0  0  0  0  0
   -1.8837    2.8905    3.6157 H   0  0  0  0  0  0  0  0  0  0  0  0
   -0.1456    3.1232    3.9000 H   0  0  0  0  0  0  0  0  0  0  0  0
   -0.8591    3.6050    2.3482 H   0  0  0  0  0  0  0  0  0  0  0  0
  1  2  1  0  0  0  0
  2  3  1  0  0  0  0
  2  4  1  0  0  0  0
  2  5  1  0  0  0  0
  5  6  2  0  0  0  0
  5  7  1  0  0  0  0
  7  8  1  0  0  0  0
  7  9  1  0  0  0  0
  9 10  1  0  0  0  0
  9 11  1  0  0  0  0
  9 29  1  0  0  0  0
 11 12  1  0  0  0  0
 11 13  1  0  0  0  0
 11 14  1  0  0  0  0
 14 15  1  0  0  0  0
 14 16  1  0  0  0  0
 14 17  1  0  0  0  0
 17 18  1  0  0  0  0
 17 19  1  0  0  0  0
 17 20  1  0  0  0  0
 20 21  1  0  0  0  0
 20 22  2  0  0  0  0
 22 23  1  0  0  0  0
 22 26  1  0  0  0  0
 23 24  1  0  0  0  0
 23 25  1  0  0  0  0
 26 27  1  0  0  0  0
 26 28  1  0  0  0  0
 29 30  2  0  0  0  0
 29 31  1  0  0  0  0
 31 32  1  0  0  0  0
 31 33  1  0  0  0  0
 33 34  1  0  0  0  0
 33 35  1  0  0  0  0
 33 36  1  0  0  0  0
M  CHG  1  20   1
M  END
$$$$

  -OEChem-03222214013D

 36 35  0     1  0  0  0  0  0999 V2000
   -4.0266   -4.1051    2.0312 H   0  0  0  0  0  0  0  0  0  0  0  0
   -4.0506   -3.1037    1.5920 C   0  0  0  0  0  0  0  0  0  0  0  0
   -4.7115   -2.4728    2.1913 H   0  0  0  0  0  0  0  0  0  0  0  0
   -4.4480   -3.1738    0.5767 H   0  0  0  0  0  0  0  0  0  0  0  0
   -2.6542   -2.5130    1.5630 C   0  0  0  0  0  0  0  0  0  0  0  0
   -1.6994   -3.1689    1.9513 O   0  0  0  0  0  0  0  0  0  0  0  0
   -2.4512   -1.2371    1.0767 N   0  0  0  0  0  0  0  0  0  0  0  0
   -3.2779   -0.6927    0.8308 H   0  0  0  0  0  0  0  0  0  0  0  0
   -1.1716   -0.5203    1.1570 C   0  0  1  0  0  0  0  0  0  0  0  0
   -0.5068   -1.0008    1.8824 H   0  0  0  0  0  0  0  0  0  0  0  0
   -0.5377   -0.5885   -0.2438 C   0  0  0  0  0  0  0  0  0  0  0  0
   -0.4212   -1.6468   -0.5033 H   0  0  0  0  0  0  0  0  0  0  0  0
   -1.2203   -0.1483   -0.9797 H   0  0  0  0  0  0  0  0  0  0  0  0
    0.8244    0.1216   -0.3343 C   0  0  0  0  0  0  0  0  0  0  0  0
    0.6937    1.0879   -0.8344 H   0  0  0  0  0  0  0  0  0  0  0  0
    1.2228    0.3122    0.6677 H   0  0  0  0  0  0  0  0  0  0  0  0
    1.8227   -0.7499   -1.0951 C   0  0  0  0  0  0  0  0  0  0  0  0
    1.9689   -1.6871   -0.5462 H   0  0  0  0  0  0  0  0  0  0  0  0
    1.4104   -0.9867   -2.0824 H   0  0  0  0  0  0  0  0  0  0  0  0
    3.1058   -0.0395   -1.2428 N   0  3  0  0  0  0  0  0  0  0  0  0
    3.1215    0.9484   -0.9927 H   0  0  0  0  0  0  0  0  0  0  0  0
    4.1856   -0.5960   -1.7111 C   0  0  0  0  0  0  0  0  0  0  0  0
    4.2095   -1.9142   -2.1068 N   0  0  0  0  0  0  0  0  0  0  0  0
    3.3216   -2.4076   -2.1764 H   0  0  0  0  0  0  0  0  0  0  0  0
    4.9850   -2.2398   -2.6804 H   0  0  0  0  0  0  0  0  0  0  0  0
    5.3378    0.1456   -1.8202 N   0  0  0  0  0  0  0  0  0  0  0  0
    5.3783    1.0579   -1.3699 H   0  0  0  0  0  0  0  0  0  0  0  0
    6.2157   -0.3426   -1.9880 H   0  0  0  0  0  0  0  0  0  0  0  0
   -1.3959    0.9346    1.6178 C   0  0  0  0  0  0  0  0  0  0  0  0
   -2.2445    1.6186    1.0614 O   0  0  0  0  0  0  0  0  0  0  0  0
   -0.5869    1.5024    2.5865 N   0  0  0  0  0  0  0  0  0  0  0  0
   -0.0166    0.8677    3.1391 H   0  0  0  0  0  0  0  0  0  0  0  0
   -0.8151    2.8488    3.1036 C   0  0  0  0  0  0  0  0  0  0  0  0
   -1.7957    2.9130    3.5875 H   0  0  0  0  0  0  0  0  0  0  0  0
   -0.0483    3.1088    3.8397 H   0  0  0  0  0  0  0  0  0  0  0  0
   -0.7759    3.5851    2.2936 H   0  0  0  0  0  0  0  0  0  0  0  0
  1  2  1  0  0  0  0
  2  3  1  0  0  0  0
  2  4  1  0  0  0  0
  2  5  1  0  0  0  0
  5  6  2  0  0  0  0
  5  7  1  0  0  0  0
  7  8  1  0  0  0  0
  7  9  1  0  0  0  0
  9 10  1  0  0  0  0
  9 11  1  0  0  0  0
  9 29  1  0  0  0  0
 11 12  1  0  0  0  0
 11 13  1  0  0  0  0
 11 14  1  0  0  0  0
 14 15  1  0  0  0  0
 14 16  1  0  0  0  0
 14 17  1  0  0  0  0
 17 18  1  0  0  0  0
 17 19  1  0  0  0  0
 17 20  1  0  0  0  0
 20 21  1  0  0  0  0
 20 22  2  0  0  0  0
 22 23  1  0  0  0  0
 22 26  1  0  0  0  0
 23 24  1  0  0  0  0
 23 25  1  0  0  0  0
 26 27  1  0  0  0  0
 26 28  1  0  0  0  0
 29 30  2  0  0  0  0
 29 31  1  0  0  0  0
 31 32  1  0  0  0  0
 31 33  1  0  0  0  0
 33 34  1  0  0  0  0
 33 35  1  0  0  0  0
 33 36  1  0  0  0  0
M  CHG  1  20   1
M  END
$$$$

  -OEChem-03222214013D

 36 35  0     1  0  0  0  0  0999 V2000
   -4.0412   -4.1004    2.0443 H   0  0  0  0  0  0  0  0  0  0  0  0
   -4.0616   -3.1026    1.5970 C   0  0  0  0  0  0  0  0  0  0  0  0
   -4.7211   -2.4647    2.1904 H   0  0  0  0  0  0  0  0  0  0  0  0
   -4.4575   -3.1795    0.5815 H   0  0  0  0  0  0  0  0  0  0  0  0
   -2.6634   -2.5163    1.5653 C   0  0  0  0  0  0  0  0  0  0  0  0
   -1.7106   -3.1733    1.9560 O   0  0  0  0  0  0  0  0  0  0  0  0
   -2.4581   -1.2424    1.0749 N   0  0  0  0  0  0  0  0  0  0  0  0
   -3.2836   -0.6984    0.8247 H   0  0  0  0  0  0  0  0  0  0  0  0
   -1.1769   -0.5280    1.1478 C   0  0  1  0  0  0  0  0  0  0  0  0
   -0.5111   -1.0092    1.8720 H   0  0  0  0  0  0  0  0  0  0  0  0
   -0.5457   -0.5986   -0.2533 C   0  0  0  0  0  0  0  0  0  0  0  0
   -0.4183   -1.6577   -0.5048 H   0  0  0  0  0  0  0  0  0  0  0  0
   -1.2268   -0.1647   -0.9942 H   0  0  0  0  0  0  0  0  0  0  0  0
    0.8133    0.1129   -0.3316 C   0  0  0  0  0  0  0  0  0  0  0  0
    0.6573    1.1709   -0.5715 H   0  0  0  0  0  0  0  0  0  0  0  0
    1.3222    0.0549    0.6366 H   0  0  0  0  0  0  0  0  0  0  0  0
    1.6904   -0.5618   -1.3842 C   0  0  0  0  0  0  0  0  0  0  0  0
    1.8738   -1.5998   -1.0842 H   0  0  0  0  0  0  0  0  0  0  0  0
    1.1573   -0.5658   -2.3415 H   0  0  0  0  0  0  0  0  0  0  0  0
    2.9665    0.1634   -1.5210 N   0  3  0  0  0  0  0  0  0  0  0  0
    3.0448    1.0601   -1.0432 H   0  0  0  0  0  0  0  0  0  0  0  0
    3.9613   -0.2626   -2.2449 C   0  0  0  0  0  0  0  0  0  0  0  0
    3.8933   -1.4455   -2.9456 N   0  0  0  0  0  0  0  0  0  0  0  0
    2.9872   -1.9038   -3.0197 H   0  0  0  0  0  0  0  0  0  0  0  0
    4.5818   -1.6244   -3.6739 H   0  0  0  0  0  0  0  0  0  0  0  0
    5.1137    0.4831   -2.3213 N   0  0  0  0  0  0  0  0  0  0  0  0
    5.2397    1.2598   -1.6751 H   0  0  0  0  0  0  0  0  0  0  0  0
    5.9472    0.0509   -2.7161 H   0  0  0  0  0  0  0  0  0  0  0  0
   -1.3882    0.9294    1.6048 C   0  0  0  0  0  0  0  0  0  0  0  0
   -2.2310    1.6202    1.0477 O   0  0  0  0  0  0  0  0  0  0  0  0
   -0.5684    1.4926    2.5669 N   0  0  0  0  0  0  0  0  0  0  0  0
    0.0029    0.8546    3.1150 H   0  0  0  0  0  0  0  0  0  0  0  0
   -0.7789    2.8427    3.0816 C   0  0  0  0  0  0  0  0  0  0  0  0
   -1.7537    2.9173    3.5758 H   0  0  0  0  0  0  0  0  0  0  0  0
   -0.0018    3.0981    3.8087 H   0  0  0  0  0  0  0  0  0  0  0  0
   -0.7418    3.5758    2.2686 H   0  0  0  0  0  0  0  0  0  0  0  0
  1  2  1  0  0  0  0
  2  3  1  0  0  0  0
  2  4  1  0  0  0  0
  2  5  1  0  0  0  0
  5  6  2  0  0  0  0
  5  7  1  0  0  0  0
  7  8  1  0  0  0  0
  7  9  1  0  0  0  0
  9 10  1  0  0  0  0
  9 11  1  0  0  0  0
  9 29  1  0  0  0  0
 11 12  1  0  0  0  0
 11 13  1  0  0  0  0
 11 14  1  0  0  0  0
 14 15  1  0  0  0  0
 14 16  1  0  0  0  0
 14 17  1  0  0  0  0
 17 18  1  0  0  0  0
 17 19  1  0  0  0  0
 17 20  1  0  0  0  0
 20 21  1  0  0  0  0
 20 22  2  0  0  0  0
 22 23  1  0  0  0  0
 22 26  1  0  0  0  0
 23 24  1  0  0  0  0
 23 25  1  0  0  0  0
 26 27  1  0  0  0  0
 26 28  1  0  0  0  0
 29 30  2  0  0  0  0
 29 31  1  0  0  0  0
 31 32  1  0  0  0  0
 31 33  1  0  0  0  0
 33 34  1  0  0  0  0
 33 35  1  0  0  0  0
 33 36  1  0  0  0  0
M  CHG  1  20   1
M  END
$$$$

  -OEChem-03222214013D

 36 35  0     1  0  0  0  0  0999 V2000
   -4.0344   -4.1015    2.0412 H   0  0  0  0  0  0  0  0  0  0  0  0
   -4.0575   -3.1003    1.6018 C   0  0  0  0  0  0  0  0  0  0  0  0
   -4.7104   -2.4664    2.2067 H   0  0  0  0  0  0  0  0  0  0  0  0
   -4.4637   -3.1691    0.5899 H   0  0  0  0  0  0  0  0  0  0  0  0
   -2.6589   -2.5152    1.5610 C   0  0  0  0  0  0  0  0  0  0  0  0
   -1.7053   -3.1716    1.9500 O   0  0  0  0  0  0  0  0  0  0  0  0
   -2.4558   -1.2402    1.0725 N   0  0  0  0  0  0  0  0  0  0  0  0
   -3.2828   -0.6954    0.8293 H   0  0  0  0  0  0  0  0  0  0  0  0
   -1.1746   -0.5251    1.1432 C   0  0  1  0  0  0  0  0  0  0  0  0
   -0.5075   -1.0061    1.8664 H   0  0  0  0  0  0  0  0  0  0  0  0
   -0.5446   -0.5966   -0.2589 C   0  0  0  0  0  0  0  0  0  0  0  0
   -0.4125   -1.6537   -0.5160 H   0  0  0  0  0  0  0  0  0  0  0  0
   -1.2287   -0.1588   -0.9949 H   0  0  0  0  0  0  0  0  0  0  0  0
    0.8124    0.1147   -0.3400 C   0  0  0  0  0  0  0  0  0  0  0  0
    0.6605    1.2000   -0.3284 H   0  0  0  0  0  0  0  0  0  0  0  0
    1.4259   -0.1563    0.5261 H   0  0  0  0  0  0  0  0  0  0  0  0
    1.5321   -0.3073   -1.6194 C   0  0  0  0  0  0  0  0  0  0  0  0
    1.7147   -1.3874   -1.5866 H   0  0  0  0  0  0  0  0  0  0  0  0
    0.8877   -0.0899   -2.4787 H   0  0  0  0  0  0  0  0  0  0  0  0
    2.8072    0.4213   -1.7492 N   0  3  0  0  0  0  0  0  0  0  0  0
    2.9781    1.1799   -1.0906 H   0  0  0  0  0  0  0  0  0  0  0  0
    3.6894    0.1683   -2.6726 C   0  0  0  0  0  0  0  0  0  0  0  0
    3.4925   -0.8160   -3.6143 N   0  0  0  0  0  0  0  0  0  0  0  0
    2.5661   -1.2331   -3.6794 H   0  0  0  0  0  0  0  0  0  0  0  0
    4.0791   -0.8208   -4.4463 H   0  0  0  0  0  0  0  0  0  0  0  0
    4.8515    0.9008   -2.7205 N   0  0  0  0  0  0  0  0  0  0  0  0
    5.0837    1.5046   -1.9344 H   0  0  0  0  0  0  0  0  0  0  0  0
    5.6140    0.5644   -3.3060 H   0  0  0  0  0  0  0  0  0  0  0  0
   -1.3890    0.9302    1.6039 C   0  0  0  0  0  0  0  0  0  0  0  0
   -2.2332    1.6203    1.0480 O   0  0  0  0  0  0  0  0  0  0  0  0
   -0.5690    1.4934    2.5654 N   0  0  0  0  0  0  0  0  0  0  0  0
    0.0064    0.8555    3.1095 H   0  0  0  0  0  0  0  0  0  0  0  0
   -0.7864    2.8393    3.0877 C   0  0  0  0  0  0  0  0  0  0  0  0
   -1.7655    2.9085    3.5740 H   0  0  0  0  0  0  0  0  0  0  0  0
   -0.0163    3.0908    3.8235 H   0  0  0  0  0  0  0  0  0  0  0  0
   -0.7436    3.5778    2.2799 H   0  0  0  0  0  0  0  0  0  0  0  0
  1  2  1  0  0  0  0
  2  3  1  0  0  0  0
  2  4  1  0  0  0  0
  2  5  1  0  0  0  0
  5  6  2  0  0  0  0
  5  7  1  0  0  0  0
  7  8  1  0  0  0  0
  7  9  1  0  0  0  0
  9 10  1  0  0  0  0
  9 11  1  0  0  0  0
  9 29  1  0  0  0  0
 11 12  1  0  0  0  0
 11 13  1  0  0  0  0
 11 14  1  0  0  0  0
 14 15  1  0  0  0  0
 14 16  1  0  0  0  0
 14 17  1  0  0  0  0
 17 18  1  0  0  0  0
 17 19  1  0  0  0  0
 17 20  1  0  0  0  0
 20 21  1  0  0  0  0
 20 22  2  0  0  0  0
 22 23  1  0  0  0  0
 22 26  1  0  0  0  0
 23 24  1  0  0  0  0
 23 25  1  0  0  0  0
 26 27  1  0  0  0  0
 26 28  1  0  0  0  0
 29 30  2  0  0  0  0
 29 31  1  0  0  0  0
 31 32  1  0  0  0  0
 31 33  1  0  0  0  0
 33 34  1  0  0  0  0
 33 35  1  0  0  0  0
 33 36  1  0  0  0  0
M  CHG  1  20   1
M  END
$$$$

  -OEChem-03222214013D

 36 35  0     1  0  0  0  0  0999 V2000
   -4.0203   -4.1142    2.0617 H   0  0  0  0  0  0  0  0  0  0  0  0
   -4.0534   -3.1117    1.6256 C   0  0  0  0  0  0  0  0  0  0  0  0
   -4.6951   -2.4806    2.2450 H   0  0  0  0  0  0  0  0  0  0  0  0
   -4.4797   -3.1782    0.6219 H   0  0  0  0  0  0  0  0  0  0  0  0
   -2.6567   -2.5243    1.5594 C   0  0  0  0  0  0  0  0  0  0  0  0
   -1.6949   -3.1793    1.9304 O   0  0  0  0  0  0  0  0  0  0  0  0
   -2.4642   -1.2483    1.0689 N   0  0  0  0  0  0  0  0  0  0  0  0
   -3.2971   -0.7054    0.8417 H   0  0  0  0  0  0  0  0  0  0  0  0
   -1.1864   -0.5251    1.1287 C   0  0  1  0  0  0  0  0  0  0  0  0
   -0.5203   -1.0083    1.8510 H   0  0  0  0  0  0  0  0  0  0  0  0
   -0.5540   -0.5964   -0.2729 C   0  0  0  0  0  0  0  0  0  0  0  0
   -0.6409   -1.6226   -0.6472 H   0  0  0  0  0  0  0  0  0  0  0  0
   -1.1112    0.0537   -0.9571 H   0  0  0  0  0  0  0  0  0  0  0  0
    0.9291   -0.2071   -0.2676 C   0  0  0  0  0  0  0  0  0  0  0  0
    1.0426    0.8173    0.1038 H   0  0  0  0  0  0  0  0  0  0  0  0
    1.4851   -0.8791    0.3955 H   0  0  0  0  0  0  0  0  0  0  0  0
    1.4791   -0.3036   -1.6896 C   0  0  0  0  0  0  0  0  0  0  0  0
    1.3683   -1.3345   -2.0446 H   0  0  0  0  0  0  0  0  0  0  0  0
    0.8944    0.3536   -2.3431 H   0  0  0  0  0  0  0  0  0  0  0  0
    2.8994    0.0918   -1.7168 N   0  3  0  0  0  0  0  0  0  0  0  0
    3.2929    0.4712   -0.8570 H   0  0  0  0  0  0  0  0  0  0  0  0
    3.6515    0.0015   -2.7760 C   0  0  0  0  0  0  0  0  0  0  0  0
    3.1660   -0.4735   -3.9732 N   0  0  0  0  0  0  0  0  0  0  0  0
    2.1598   -0.5996   -4.0629 H   0  0  0  0  0  0  0  0  0  0  0  0
    3.7062   -0.3097   -4.8205 H   0  0  0  0  0  0  0  0  0  0  0  0
    4.9678    0.3926   -2.7097 N   0  0  0  0  0  0  0  0  0  0  0  0
    5.3804    0.5731   -1.7966 H   0  0  0  0  0  0  0  0  0  0  0  0
    5.5911    0.1327   -3.4723 H   0  0  0  0  0  0  0  0  0  0  0  0
   -1.3927    0.9314    1.5894 C   0  0  0  0  0  0  0  0  0  0  0  0
   -2.2550    1.6160    1.0551 O   0  0  0  0  0  0  0  0  0  0  0  0
   -0.5619    1.4957    2.5411 N   0  0  0  0  0  0  0  0  0  0  0  0
    0.0257    0.8603    3.0747 H   0  0  0  0  0  0  0  0  0  0  0  0
   -0.7735    2.8421    3.0647 C   0  0  0  0  0  0  0  0  0  0  0  0
   -1.7472    2.9121    3.5617 H   0  0  0  0  0  0  0  0  0  0  0  0
    0.0049    3.0939    3.7915 H   0  0  0  0  0  0  0  0  0  0  0  0
   -0.7396    3.5799    2.2560 H   0  0  0  0  0  0  0  0  0  0  0  0
  1  2  1  0  0  0  0
  2  3  1  0  0  0  0
  2  4  1  0  0  0  0
  2  5  1  0  0  0  0
  5  6  2  0  0  0  0
  5  7  1  0  0  0  0
  7  8  1  0  0  0  0
  7  9  1  0  0  0  0
  9 10  1  0  0  0  0
  9 11  1  0  0  0  0
  9 29  1  0  0  0  0
 11 12  1  0  0  0  0
 11 13  1  0  0  0  0
 11 14  1  0  0  0  0
 14 15  1  0  0  0  0
 14 16  1  0  0  0  0
 14 17  1  0  0  0  0
 17 18  1  0  0  0  0
 17 19  1  0  0  0  0
 17 20  1  0  0  0  0
 20 21  1  0  0  0  0
 20 22  2  0  0  0  0
 22 23  1  0  0  0  0
 22 26  1  0  0  0  0
 23 24  1  0  0  0  0
 23 25  1  0  0  0  0
 26 27  1  0  0  0  0
 26 28  1  0  0  0  0
 29 30  2  0  0  0  0
 29 31  1  0  0  0  0
 31 32  1  0  0  0  0
 31 33  1  0  0  0  0
 33 34  1  0  0  0  0
 33 35  1  0  0  0  0
 33 36  1  0  0  0  0
M  CHG  1  20   1
M  END
$$$$

  -OEChem-03222214013D

 36 35  0     1  0  0  0  0  0999 V2000
   -4.0142   -4.1165    2.0549 H   0  0  0  0  0  0  0  0  0  0  0  0
   -4.0478   -3.1125    1.6223 C   0  0  0  0  0  0  0  0  0  0  0  0
   -4.6918   -2.4842    2.2426 H   0  0  0  0  0  0  0  0  0  0  0  0
   -4.4709   -3.1761    0.6170 H   0  0  0  0  0  0  0  0  0  0  0  0
   -2.6516   -2.5232    1.5619 C   0  0  0  0  0  0  0  0  0  0  0  0
   -1.6919   -3.1741    1.9449 O   0  0  0  0  0  0  0  0  0  0  0  0
   -2.4597   -1.2478    1.0695 N   0  0  0  0  0  0  0  0  0  0  0  0
   -3.2925   -0.7082    0.8349 H   0  0  0  0  0  0  0  0  0  0  0  0
   -1.1835   -0.5229    1.1327 C   0  0  1  0  0  0  0  0  0  0  0  0
   -0.5169   -1.0035    1.8565 H   0  0  0  0  0  0  0  0  0  0  0  0
   -0.5493   -0.5968   -0.2687 C   0  0  0  0  0  0  0  0  0  0  0  0
   -0.6397   -1.6178   -0.6563 H   0  0  0  0  0  0  0  0  0  0  0  0
   -1.1098    0.0609   -0.9428 H   0  0  0  0  0  0  0  0  0  0  0  0
    0.9352   -0.2070   -0.2685 C   0  0  0  0  0  0  0  0  0  0  0  0
    1.0852    0.7032    0.3215 H   0  0  0  0  0  0  0  0  0  0  0  0
    1.5272   -1.0106    0.1839 H   0  0  0  0  0  0  0  0  0  0  0  0
    1.3869    0.0537   -1.7044 C   0  0  0  0  0  0  0  0  0  0  0  0
    1.2312   -0.8552   -2.2964 H   0  0  0  0  0  0  0  0  0  0  0  0
    0.7723    0.8546   -2.1307 H   0  0  0  0  0  0  0  0  0  0  0  0
    2.8099    0.4389   -1.7334 N   0  3  0  0  0  0  0  0  0  0  0  0
    3.2769    0.5623   -0.8360 H   0  0  0  0  0  0  0  0  0  0  0  0
    3.4768    0.6401   -2.8337 C   0  0  0  0  0  0  0  0  0  0  0  0
    2.8882    0.5132   -4.0719 N   0  0  0  0  0  0  0  0  0  0  0  0
    1.8755    0.4158   -4.1110 H   0  0  0  0  0  0  0  0  0  0  0  0
    3.3639    0.9024   -4.8833 H   0  0  0  0  0  0  0  0  0  0  0  0
    4.8043    0.9915   -2.7696 N   0  0  0  0  0  0  0  0  0  0  0  0
    5.2905    0.9100   -1.8787 H   0  0  0  0  0  0  0  0  0  0  0  0
    5.3602    0.9446   -3.6217 H   0  0  0  0  0  0  0  0  0  0  0  0
   -1.3990    0.9333    1.5904 C   0  0  0  0  0  0  0  0  0  0  0  0
   -2.2546    1.6169    1.0438 O   0  0  0  0  0  0  0  0  0  0  0  0
   -0.5749    1.5016    2.5455 N   0  0  0  0  0  0  0  0  0  0  0  0
    0.0054    0.8666    3.0875 H   0  0  0  0  0  0  0  0  0  0  0  0
   -0.7931    2.8480    3.0666 C   0  0  0  0  0  0  0  0  0  0  0  0
   -1.7716    2.9173    3.5542 H   0  0  0  0  0  0  0  0  0  0  0  0
   -0.0218    3.1007    3.8009 H   0  0  0  0  0  0  0  0  0  0  0  0
   -0.7520    3.5856    2.2580 H   0  0  0  0  0  0  0  0  0  0  0  0
  1  2  1  0  0  0  0
  2  3  1  0  0  0  0
  2  4  1  0  0  0  0
  2  5  1  0  0  0  0
  5  6  2  0  0  0  0
  5  7  1  0  0  0  0
  7  8  1  0  0  0  0
  7  9  1  0  0  0  0
  9 10  1  0  0  0  0
  9 11  1  0  0  0  0
  9 29  1  0  0  0  0
 11 12  1  0  0  0  0
 11 13  1  0  0  0  0
 11 14  1  0  0  0  0
 14 15  1  0  0  0  0
 14 16  1  0  0  0  0
 14 17  1  0  0  0  0
 17 18  1  0  0  0  0
 17 19  1  0  0  0  0
 17 20  1  0  0  0  0
 20 21  1  0  0  0  0
 20 22  2  0  0  0  0
 22 23  1  0  0  0  0
 22 26  1  0  0  0  0
 23 24  1  0  0  0  0
 23 25  1  0  0  0  0
 26 27  1  0  0  0  0
 26 28  1  0  0  0  0
 29 30  2  0  0  0  0
 29 31  1  0  0  0  0
 31 32  1  0  0  0  0
 31 33  1  0  0  0  0
 33 34  1  0  0  0  0
 33 35  1  0  0  0  0
 33 36  1  0  0  0  0
M  CHG  1  20   1
M  END
$$$$

  -OEChem-03222214013D

 36 35  0     1  0  0  0  0  0999 V2000
   -3.9808   -4.1513    2.0110 H   0  0  0  0  0  0  0  0  0  0  0  0
   -4.0269   -3.1334    1.6133 C   0  0  0  0  0  0  0  0  0  0  0  0
   -4.6857   -2.5369    2.2492 H   0  0  0  0  0  0  0  0  0  0  0  0
   -4.4413   -3.1693    0.6029 H   0  0  0  0  0  0  0  0  0  0  0  0
   -2.6398   -2.5208    1.5844 C   0  0  0  0  0  0  0  0  0  0  0  0
   -1.6798   -3.1530    1.9965 O   0  0  0  0  0  0  0  0  0  0  0  0
   -2.4543   -1.2487    1.0804 N   0  0  0  0  0  0  0  0  0  0  0  0
   -3.2880   -0.7227    0.8201 H   0  0  0  0  0  0  0  0  0  0  0  0
   -1.1835   -0.5142    1.1434 C   0  0  1  0  0  0  0  0  0  0  0  0
   -0.5142   -0.9836    1.8723 H   0  0  0  0  0  0  0  0  0  0  0  0
   -0.5492   -0.5991   -0.2571 C   0  0  0  0  0  0  0  0  0  0  0  0
   -0.6353   -1.6222   -0.6402 H   0  0  0  0  0  0  0  0  0  0  0  0
   -1.1200    0.0491   -0.9320 H   0  0  0  0  0  0  0  0  0  0  0  0
    0.9348   -0.2017   -0.2673 C   0  0  0  0  0  0  0  0  0  0  0  0
    1.1348    0.5441    0.5086 H   0  0  0  0  0  0  0  0  0  0  0  0
    1.5490   -1.0839   -0.0555 H   0  0  0  0  0  0  0  0  0  0  0  0
    1.2931    0.4005   -1.6249 C   0  0  0  0  0  0  0  0  0  0  0  0
    1.0538   -0.3252   -2.4106 H   0  0  0  0  0  0  0  0  0  0  0  0
    0.6870    1.2991   -1.7860 H   0  0  0  0  0  0  0  0  0  0  0  0
    2.7273    0.7389   -1.6721 N   0  3  0  0  0  0  0  0  0  0  0  0
    3.2800    0.5400   -0.8395 H   0  0  0  0  0  0  0  0  0  0  0  0
    3.3077    1.2621   -2.7135 C   0  0  0  0  0  0  0  0  0  0  0  0
    2.6070    1.5640   -3.8594 N   0  0  0  0  0  0  0  0  0  0  0  0
    1.5902    1.5257   -3.8203 H   0  0  0  0  0  0  0  0  0  0  0  0
    3.0367    2.1783   -4.5481 H   0  0  0  0  0  0  0  0  0  0  0  0
    4.6564    1.5261   -2.6782 N   0  0  0  0  0  0  0  0  0  0  0  0
    5.2105    1.1450   -1.9137 H   0  0  0  0  0  0  0  0  0  0  0  0
    5.1329    1.7343   -3.5539 H   0  0  0  0  0  0  0  0  0  0  0  0
   -1.4087    0.9458    1.5855 C   0  0  0  0  0  0  0  0  0  0  0  0
   -2.2550    1.6243    1.0183 O   0  0  0  0  0  0  0  0  0  0  0  0
   -0.5921    1.5273    2.5391 N   0  0  0  0  0  0  0  0  0  0  0  0
   -0.0169    0.8982    3.0936 H   0  0  0  0  0  0  0  0  0  0  0  0
   -0.8241    2.8752    3.0502 C   0  0  0  0  0  0  0  0  0  0  0  0
   -1.8072    2.9402    3.5292 H   0  0  0  0  0  0  0  0  0  0  0  0
   -0.0614    3.1372    3.7902 H   0  0  0  0  0  0  0  0  0  0  0  0
   -0.7807    3.6089    2.2381 H   0  0  0  0  0  0  0  0  0  0  0  0
  1  2  1  0  0  0  0
  2  3  1  0  0  0  0
  2  4  1  0  0  0  0
  2  5  1  0  0  0  0
  5  6  2  0  0  0  0
  5  7  1  0  0  0  0
  7  8  1  0  0  0  0
  7  9  1  0  0  0  0
  9 10  1  0  0  0  0
  9 11  1  0  0  0  0
  9 29  1  0  0  0  0
 11 12  1  0  0  0  0
 11 13  1  0  0  0  0
 11 14  1  0  0  0  0
 14 15  1  0  0  0  0
 14 16  1  0  0  0  0
 14 17  1  0  0  0  0
 17 18  1  0  0  0  0
 17 19  1  0  0  0  0
 17 20  1  0  0  0  0
 20 21  1  0  0  0  0
 20 22  2  0  0  0  0
 22 23  1  0  0  0  0
 22 26  1  0  0  0  0
 23 24  1  0  0  0  0
 23 25  1  0  0  0  0
 26 27  1  0  0  0  0
 26 28  1  0  0  0  0
 29 30  2  0  0  0  0
 29 31  1  0  0  0  0
 31 32  1  0  0  0  0
 31 33  1  0  0  0  0
 33 34  1  0  0  0  0
 33 35  1  0  0  0  0
 33 36  1  0  0  0  0
M  CHG  1  20   1
M  END
$$$$

  -OEChem-03222214013D

 36 35  0     1  0  0  0  0  0999 V2000
   -3.9905   -4.1506    2.0164 H   0  0  0  0  0  0  0  0  0  0  0  0
   -4.0334   -3.1367    1.6085 C   0  0  0  0  0  0  0  0  0  0  0  0
   -4.7056   -2.5368    2.2266 H   0  0  0  0  0  0  0  0  0  0  0  0
   -4.4290   -3.1838    0.5912 H   0  0  0  0  0  0  0  0  0  0  0  0
   -2.6486   -2.5187    1.5996 C   0  0  0  0  0  0  0  0  0  0  0  0
   -1.6948   -3.1419    2.0386 O   0  0  0  0  0  0  0  0  0  0  0  0
   -2.4590   -1.2513    1.0851 N   0  0  0  0  0  0  0  0  0  0  0  0
   -3.2889   -0.7349    0.7958 H   0  0  0  0  0  0  0  0  0  0  0  0
   -1.1882   -0.5164    1.1470 C   0  0  1  0  0  0  0  0  0  0  0  0
   -0.5219   -0.9826    1.8806 H   0  0  0  0  0  0  0  0  0  0  0  0
   -0.5517   -0.6091   -0.2519 C   0  0  0  0  0  0  0  0  0  0  0  0
   -0.6332   -1.6378   -0.6209 H   0  0  0  0  0  0  0  0  0  0  0  0
   -1.1269    0.0229   -0.9383 H   0  0  0  0  0  0  0  0  0  0  0  0
    0.9343   -0.2114   -0.2652 C   0  0  0  0  0  0  0  0  0  0  0  0
    1.2028    0.3123    0.6579 H   0  0  0  0  0  0  0  0  0  0  0  0
    1.5495   -1.1160   -0.3270 H   0  0  0  0  0  0  0  0  0  0  0  0
    1.2092    0.7077   -1.4545 C   0  0  0  0  0  0  0  0  0  0  0  0
    0.9078    0.1971   -2.3762 H   0  0  0  0  0  0  0  0  0  0  0  0
    0.6047    1.6157   -1.3475 H   0  0  0  0  0  0  0  0  0  0  0  0
    2.6407    1.0538   -1.5163 N   0  3  0  0  0  0  0  0  0  0  0  0
    3.2540    0.6239   -0.8253 H   0  0  0  0  0  0  0  0  0  0  0  0
    3.1461    1.8538   -2.4107 C   0  0  0  0  0  0  0  0  0  0  0  0
    2.3611    2.4683   -3.3602 N   0  0  0  0  0  0  0  0  0  0  0  0
    1.3503    2.4188   -3.2469 H   0  0  0  0  0  0  0  0  0  0  0  0
    2.7464    3.2537   -3.8809 H   0  0  0  0  0  0  0  0  0  0  0  0
    4.4985    2.0997   -2.4154 N   0  0  0  0  0  0  0  0  0  0  0  0
    5.1048    1.5184   -1.8399 H   0  0  0  0  0  0  0  0  0  0  0  0
    4.9063    2.5519   -3.2319 H   0  0  0  0  0  0  0  0  0  0  0  0
   -1.4041    0.9494    1.5738 C   0  0  0  0  0  0  0  0  0  0  0  0
   -2.2263    1.6368    0.9818 O   0  0  0  0  0  0  0  0  0  0  0  0
   -0.5850    1.5333    2.5241 N   0  0  0  0  0  0  0  0  0  0  0  0
   -0.0316    0.9017    3.0980 H   0  0  0  0  0  0  0  0  0  0  0  0
   -0.8082    2.8890    3.0182 C   0  0  0  0  0  0  0  0  0  0  0  0
   -1.7974    2.9697    3.4818 H   0  0  0  0  0  0  0  0  0  0  0  0
   -0.0536    3.1502    3.7667 H   0  0  0  0  0  0  0  0  0  0  0  0
   -0.7448    3.6138    2.1996 H   0  0  0  0  0  0  0  0  0  0  0  0
  1  2  1  0  0  0  0
  2  3  1  0  0  0  0
  2  4  1  0  0  0  0
  2  5  1  0  0  0  0
  5  6  2  0  0  0  0
  5  7  1  0  0  0  0
  7  8  1  0  0  0  0
  7  9  1  0  0  0  0
  9 10  1  0  0  0  0
  9 11  1  0  0  0  0
  9 29  1  0  0  0  0
 11 12  1  0  0  0  0
 11 13  1  0  0  0  0
 11 14  1  0  0  0  0
 14 15  1  0  0  0  0
 14 16  1  0  0  0  0
 14 17  1  0  0  0  0
 17 18  1  0  0  0  0
 17 19  1  0  0  0  0
 17 20  1  0  0  0  0
 20 21  1  0  0  0  0
 20 22  2  0  0  0  0
 22 23  1  0  0  0  0
 22 26  1  0  0  0  0
 23 24  1  0  0  0  0
 23 25  1  0  0  0  0
 26 27  1  0  0  0  0
 26 28  1  0  0  0  0
 29 30  2  0  0  0  0
 29 31  1  0  0  0  0
 31 32  1  0  0  0  0
 31 33  1  0  0  0  0
 33 34  1  0  0  0  0
 33 35  1  0  0  0  0
 33 36  1  0  0  0  0
M  CHG  1  20   1
M  END
$$$$

  -OEChem-03222214013D

 36 35  0     1  0  0  0  0  0999 V2000
   -4.5478   -2.7932    2.2149 H   0  0  0  0  0  0  0  0  0  0  0  0
   -4.2667   -1.8941    1.6590 C   0  0  0  0  0  0  0  0  0  0  0  0
   -4.6752   -1.0214    2.1741 H   0  0  0  0  0  0  0  0  0  0  0  0
   -4.6965   -1.9527    0.6562 H   0  0  0  0  0  0  0  0  0  0  0  0
   -2.7565   -1.7874    1.5705 C   0  0  0  0  0  0  0  0  0  0  0  0
   -2.0508   -2.6701    2.0300 O   0  0  0  0  0  0  0  0  0  0  0  0
   -2.1713   -0.6919    0.9645 N   0  0  0  0  0  0  0  0  0  0  0  0
   -2.7905    0.0612    0.6700 H   0  0  0  0  0  0  0  0  0  0  0  0
   -0.7211   -0.4514    0.9242 C   0  0  1  0  0  0  0  0  0  0  0  0
   -0.2187   -1.0847    1.6637 H   0  0  0  0  0  0  0  0  0  0  0  0
   -0.2480   -0.8529   -0.4862 C   0  0  0  0  0  0  0  0  0  0  0  0
   -0.6993   -1.8210   -0.7330 H   0  0  0  0  0  0  0  0  0  0  0  0
   -0.6297   -0.1372   -1.2188 H   0  0  0  0  0  0  0  0  0  0  0  0
    1.2799   -1.0155   -0.6108 C   0  0  0  0  0  0  0  0  0  0  0  0
    1.7759   -0.8847    0.3567 H   0  0  0  0  0  0  0  0  0  0  0  0
    1.4864   -2.0421   -0.9345 H   0  0  0  0  0  0  0  0  0  0  0  0
    1.8825   -0.0586   -1.6485 C   0  0  0  0  0  0  0  0  0  0  0  0
    2.8413   -0.4722   -1.9813 H   0  0  0  0  0  0  0  0  0  0  0  0
    1.2339   -0.0080   -2.5292 H   0  0  0  0  0  0  0  0  0  0  0  0
    2.1262    1.2869   -1.0900 N   0  3  0  0  0  0  0  0  0  0  0  0
    2.9457    1.3912   -0.4939 H   0  0  0  0  0  0  0  0  0  0  0  0
    1.4116    2.3442   -1.3536 C   0  0  0  0  0  0  0  0  0  0  0  0
    0.2672    2.2930   -2.1116 N   0  0  0  0  0  0  0  0  0  0  0  0
   -0.0838    1.3626   -2.3202 H   0  0  0  0  0  0  0  0  0  0  0  0
   -0.4385    2.9937   -1.8901 H   0  0  0  0  0  0  0  0  0  0  0  0
    1.7899    3.5610   -0.8402 N   0  0  0  0  0  0  0  0  0  0  0  0
    2.7316    3.6667   -0.4705 H   0  0  0  0  0  0  0  0  0  0  0  0
    1.3104    4.3932   -1.1783 H   0  0  0  0  0  0  0  0  0  0  0  0
   -0.3800    1.0120    1.2620 C   0  0  0  0  0  0  0  0  0  0  0  0
   -0.9254    1.9253    0.6493 O   0  0  0  0  0  0  0  0  0  0  0  0
    0.6517    1.3006    2.1375 N   0  0  0  0  0  0  0  0  0  0  0  0
    0.9704    0.5212    2.7111 H   0  0  0  0  0  0  0  0  0  0  0  0
    0.8647    2.6446    2.6667 C   0  0  0  0  0  0  0  0  0  0  0  0
    0.0015    2.9612    3.2623 H   0  0  0  0  0  0  0  0  0  0  0  0
    1.7517    2.6623    3.3080 H   0  0  0  0  0  0  0  0  0  0  0  0
    1.0125    3.3661    1.8578 H   0  0  0  0  0  0  0  0  0  0  0  0
  1  2  1  0  0  0  0
  2  3  1  0  0  0  0
  2  4  1  0  0  0  0
  2  5  1  0  0  0  0
  5  6  2  0  0  0  0
  5  7  1  0  0  0  0
  7  8  1  0  0  0  0
  7  9  1  0  0  0  0
  9 10  1  0  0  0  0
  9 11  1  0  0  0  0
  9 29  1  0  0  0  0
 11 12  1  0  0  0  0
 11 13  1  0  0  0  0
 11 14  1  0  0  0  0
 14 15  1  0  0  0  0
 14 16  1  0  0  0  0
 14 17  1  0  0  0  0
 17 18  1  0  0  0  0
 17 19  1  0  0  0  0
 17 20  1  0  0  0  0
 20 21  1  0  0  0  0
 20 22  2  0  0  0  0
 22 23  1  0  0  0  0
 22 26  1  0  0  0  0
 23 24  1  0  0  0  0
 23 25  1  0  0  0  0
 26 27  1  0  0  0  0
 26 28  1  0  0  0  0
 29 30  2  0  0  0  0
 29 31  1  0  0  0  0
 31 32  1  0  0  0  0
 31 33  1  0  0  0  0
 33 34  1  0  0  0  0
 33 35  1  0  0  0  0
 33 36  1  0  0  0  0
M  CHG  1  20   1
M  END
$$$$

  -OEChem-03222214013D

 36 35  0     1  0  0  0  0  0999 V2000
   -4.3267   -3.2540    2.3730 H   0  0  0  0  0  0  0  0  0  0  0  0
   -4.1776   -2.3329    1.8019 C   0  0  0  0  0  0  0  0  0  0  0  0
   -4.7110   -1.5204    2.3011 H   0  0  0  0  0  0  0  0  0  0  0  0
   -4.5905   -2.4704    0.7995 H   0  0  0  0  0  0  0  0  0  0  0  0
   -2.6987   -2.0076    1.7151 C   0  0  0  0  0  0  0  0  0  0  0  0
   -1.8763   -2.7486    2.2285 O   0  0  0  0  0  0  0  0  0  0  0  0
   -2.2740   -0.8678    1.0588 N   0  0  0  0  0  0  0  0  0  0  0  0
   -2.9911   -0.2534    0.6771 H   0  0  0  0  0  0  0  0  0  0  0  0
   -0.8681   -0.4479    0.9547 C   0  0  1  0  0  0  0  0  0  0  0  0
   -0.2584   -0.9961    1.6811 H   0  0  0  0  0  0  0  0  0  0  0  0
   -0.4300   -0.8402   -0.4699 C   0  0  0  0  0  0  0  0  0  0  0  0
   -0.7693   -1.8674   -0.6478 H   0  0  0  0  0  0  0  0  0  0  0  0
   -0.9425   -0.2115   -1.2061 H   0  0  0  0  0  0  0  0  0  0  0  0
    1.0910   -0.8291   -0.7026 C   0  0  0  0  0  0  0  0  0  0  0  0
    1.6413   -0.8902    0.2423 H   0  0  0  0  0  0  0  0  0  0  0  0
    1.3501   -1.7241   -1.2792 H   0  0  0  0  0  0  0  0  0  0  0  0
    1.5184    0.3945   -1.5252 C   0  0  0  0  0  0  0  0  0  0  0  0
    2.2241    0.0567   -2.2928 H   0  0  0  0  0  0  0  0  0  0  0  0
    0.6503    0.8050   -2.0514 H   0  0  0  0  0  0  0  0  0  0  0  0
    2.1831    1.4368   -0.7185 N   0  3  0  0  0  0  0  0  0  0  0  0
    3.0923    1.1964   -0.3270 H   0  0  0  0  0  0  0  0  0  0  0  0
    1.8147    2.6873   -0.7206 C   0  0  0  0  0  0  0  0  0  0  0  0
    0.5998    3.0953   -1.2191 N   0  0  0  0  0  0  0  0  0  0  0  0
   -0.1627    2.4239   -1.0929 H   0  0  0  0  0  0  0  0  0  0  0  0
    0.3424    4.0660   -1.0629 H   0  0  0  0  0  0  0  0  0  0  0  0
    2.6648    3.6408   -0.2119 N   0  0  0  0  0  0  0  0  0  0  0  0
    3.6337    3.3816   -0.0387 H   0  0  0  0  0  0  0  0  0  0  0  0
    2.4679    4.6173   -0.4228 H   0  0  0  0  0  0  0  0  0  0  0  0
   -0.6865    1.0533    1.2374 C   0  0  0  0  0  0  0  0  0  0  0  0
   -1.2867    1.8828    0.5613 O   0  0  0  0  0  0  0  0  0  0  0  0
    0.3388    1.4806    2.0637 N   0  0  0  0  0  0  0  0  0  0  0  0
    0.7344    0.7581    2.6633 H   0  0  0  0  0  0  0  0  0  0  0  0
    0.4060    2.8528    2.5608 C   0  0  0  0  0  0  0  0  0  0  0  0
   -0.4326    3.0546    3.2360 H   0  0  0  0  0  0  0  0  0  0  0  0
    1.3383    3.0092    3.1126 H   0  0  0  0  0  0  0  0  0  0  0  0
    0.3701    3.5747    1.7394 H   0  0  0  0  0  0  0  0  0  0  0  0
  1  2  1  0  0  0  0
  2  3  1  0  0  0  0
  2  4  1  0  0  0  0
  2  5  1  0  0  0  0
  5  6  2  0  0  0  0
  5  7  1  0  0  0  0
  7  8  1  0  0  0  0
  7  9  1  0  0  0  0
  9 10  1  0  0  0  0
  9 11  1  0  0  0  0
  9 29  1  0  0  0  0
 11 12  1  0  0  0  0
 11 13  1  0  0  0  0
 11 14  1  0  0  0  0
 14 15  1  0  0  0  0
 14 16  1  0  0  0  0
 14 17  1  0  0  0  0
 17 18  1  0  0  0  0
 17 19  1  0  0  0  0
 17 20  1  0  0  0  0
 20 21  1  0  0  0  0
 20 22  2  0  0  0  0
 22 23  1  0  0  0  0
 22 26  1  0  0  0  0
 23 24  1  0  0  0  0
 23 25  1  0  0  0  0
 26 27  1  0  0  0  0
 26 28  1  0  0  0  0
 29 30  2  0  0  0  0
 29 31  1  0  0  0  0
 31 32  1  0  0  0  0
 31 33  1  0  0  0  0
 33 34  1  0  0  0  0
 33 35  1  0  0  0  0
 33 36  1  0  0  0  0
M  CHG  1  20   1
M  END
$$$$

  -OEChem-03222214013D

 36 35  0     1  0  0  0  0  0999 V2000
   -4.0251   -4.1256    1.9922 H   0  0  0  0  0  0  0  0  0  0  0  0
   -4.0532   -3.1258    1.5494 C   0  0  0  0  0  0  0  0  0  0  0  0
   -4.7658   -2.5142    2.1080 H   0  0  0  0  0  0  0  0  0  0  0  0
   -4.3884   -3.2098    0.5128 H   0  0  0  0  0  0  0  0  0  0  0  0
   -2.6753   -2.4945    1.5995 C   0  0  0  0  0  0  0  0  0  0  0  0
   -1.7354   -3.1090    2.0784 O   0  0  0  0  0  0  0  0  0  0  0  0
   -2.4771   -1.2213    1.1018 N   0  0  0  0  0  0  0  0  0  0  0  0
   -3.2941   -0.7211    0.7548 H   0  0  0  0  0  0  0  0  0  0  0  0
   -1.2036   -0.4916    1.1737 C   0  0  1  0  0  0  0  0  0  0  0  0
   -0.5457   -0.9718    1.9054 H   0  0  0  0  0  0  0  0  0  0  0  0
   -0.5621   -0.5915   -0.2253 C   0  0  0  0  0  0  0  0  0  0  0  0
   -0.6285   -1.6364   -0.5495 H   0  0  0  0  0  0  0  0  0  0  0  0
   -1.1308    0.0028   -0.9496 H   0  0  0  0  0  0  0  0  0  0  0  0
    0.9235   -0.2021   -0.2464 C   0  0  0  0  0  0  0  0  0  0  0  0
    1.4115   -0.4784    0.6944 H   0  0  0  0  0  0  0  0  0  0  0  0
    1.4180   -0.7540   -1.0531 H   0  0  0  0  0  0  0  0  0  0  0  0
    1.0548    1.2979   -0.5161 C   0  0  0  0  0  0  0  0  0  0  0  0
    0.5267    1.5360   -1.4463 H   0  0  0  0  0  0  0  0  0  0  0  0
    0.5805    1.8553    0.2984 H   0  0  0  0  0  0  0  0  0  0  0  0
    2.4694    1.6917   -0.6299 N   0  3  0  0  0  0  0  0  0  0  0  0
    3.1680    0.9504   -0.5933 H   0  0  0  0  0  0  0  0  0  0  0  0
    2.8461    2.9232   -0.8199 C   0  0  0  0  0  0  0  0  0  0  0  0
    1.9343    3.9508   -0.9147 N   0  0  0  0  0  0  0  0  0  0  0  0
    0.9472    3.7053   -0.9775 H   0  0  0  0  0  0  0  0  0  0  0  0
    2.2336    4.8337   -1.3232 H   0  0  0  0  0  0  0  0  0  0  0  0
    4.1842    3.2154   -0.9361 N   0  0  0  0  0  0  0  0  0  0  0  0
    4.8653    2.5013   -0.6851 H   0  0  0  0  0  0  0  0  0  0  0  0
    4.4738    4.1905   -0.8847 H   0  0  0  0  0  0  0  0  0  0  0  0
   -1.3903    0.9718    1.6169 C   0  0  0  0  0  0  0  0  0  0  0  0
   -2.1276    1.7142    0.9816 O   0  0  0  0  0  0  0  0  0  0  0  0
   -0.5500    1.5165    2.5725 N   0  0  0  0  0  0  0  0  0  0  0  0
   -0.0581    0.8510    3.1649 H   0  0  0  0  0  0  0  0  0  0  0  0
   -0.7240    2.8749    3.0789 C   0  0  0  0  0  0  0  0  0  0  0  0
   -1.6965    2.9779    3.5727 H   0  0  0  0  0  0  0  0  0  0  0  0
    0.0595    3.1120    3.8055 H   0  0  0  0  0  0  0  0  0  0  0  0
   -0.6671    3.6031    2.2630 H   0  0  0  0  0  0  0  0  0  0  0  0
  1  2  1  0  0  0  0
  2  3  1  0  0  0  0
  2  4  1  0  0  0  0
  2  5  1  0  0  0  0
  5  6  2  0  0  0  0
  5  7  1  0  0  0  0
  7  8  1  0  0  0  0
  7  9  1  0  0  0  0
  9 10  1  0  0  0  0
  9 11  1  0  0  0  0
  9 29  1  0  0  0  0
 11 12  1  0  0  0  0
 11 13  1  0  0  0  0
 11 14  1  0  0  0  0
 14 15  1  0  0  0  0
 14 16  1  0  0  0  0
 14 17  1  0  0  0  0
 17 18  1  0  0  0  0
 17 19  1  0  0  0  0
 17 20  1  0  0  0  0
 20 21  1  0  0  0  0
 20 22  2  0  0  0  0
 22 23  1  0  0  0  0
 22 26  1  0  0  0  0
 23 24  1  0  0  0  0
 23 25  1  0  0  0  0
 26 27  1  0  0  0  0
 26 28  1  0  0  0  0
 29 30  2  0  0  0  0
 29 31  1  0  0  0  0
 31 32  1  0  0  0  0
 31 33  1  0  0  0  0
 33 34  1  0  0  0  0
 33 35  1  0  0  0  0
 33 36  1  0  0  0  0
M  CHG  1  20   1
M  END
$$$$

  -OEChem-03222214013D

 36 35  0     1  0  0  0  0  0999 V2000
   -3.9911   -4.1672    1.8902 H   0  0  0  0  0  0  0  0  0  0  0  0
   -4.0274   -3.1547    1.4784 C   0  0  0  0  0  0  0  0  0  0  0  0
   -4.7643   -2.5741    2.0386 H   0  0  0  0  0  0  0  0  0  0  0  0
   -4.3366   -3.2119    0.4320 H   0  0  0  0  0  0  0  0  0  0  0  0
   -2.6629   -2.5011    1.5813 C   0  0  0  0  0  0  0  0  0  0  0  0
   -1.7277   -3.1066    2.0807 O   0  0  0  0  0  0  0  0  0  0  0  0
   -2.4709   -1.2164    1.1114 N   0  0  0  0  0  0  0  0  0  0  0  0
   -3.2838   -0.7226    0.7452 H   0  0  0  0  0  0  0  0  0  0  0  0
   -1.2103   -0.4708    1.2346 C   0  0  1  0  0  0  0  0  0  0  0  0
   -0.5600   -0.9465    1.9761 H   0  0  0  0  0  0  0  0  0  0  0  0
   -0.5430   -0.5604   -0.1573 C   0  0  0  0  0  0  0  0  0  0  0  0
   -0.6087   -1.6008   -0.4959 H   0  0  0  0  0  0  0  0  0  0  0  0
   -1.1065    0.0457   -0.8756 H   0  0  0  0  0  0  0  0  0  0  0  0
    0.9421   -0.1690   -0.1979 C   0  0  0  0  0  0  0  0  0  0  0  0
    1.4839   -0.6695    0.6120 H   0  0  0  0  0  0  0  0  0  0  0  0
    1.3619   -0.5200   -1.1469 H   0  0  0  0  0  0  0  0  0  0  0  0
    1.1182    1.3471   -0.1043 C   0  0  0  0  0  0  0  0  0  0  0  0
    0.4718    1.8230   -0.8506 H   0  0  0  0  0  0  0  0  0  0  0  0
    0.8113    1.6922    0.8862 H   0  0  0  0  0  0  0  0  0  0  0  0
    2.5213    1.7267   -0.3431 N   0  3  0  0  0  0  0  0  0  0  0  0
    3.1735    0.9825   -0.5875 H   0  0  0  0  0  0  0  0  0  0  0  0
    2.9398    2.9582   -0.2874 C   0  0  0  0  0  0  0  0  0  0  0  0
    2.0848    3.9977    0.0034 N   0  0  0  0  0  0  0  0  0  0  0  0
    1.0854    3.7987    0.0091 H   0  0  0  0  0  0  0  0  0  0  0  0
    2.3798    4.9463   -0.2184 H   0  0  0  0  0  0  0  0  0  0  0  0
    4.2640    3.2391   -0.5264 N   0  0  0  0  0  0  0  0  0  0  0  0
    4.9286    2.4691   -0.5753 H   0  0  0  0  0  0  0  0  0  0  0  0
    4.6181    4.1614   -0.2782 H   0  0  0  0  0  0  0  0  0  0  0  0
   -1.4652    0.9765    1.6994 C   0  0  0  0  0  0  0  0  0  0  0  0
   -2.2056    1.7047    1.0518 O   0  0  0  0  0  0  0  0  0  0  0  0
   -0.6838    1.5356    2.6967 N   0  0  0  0  0  0  0  0  0  0  0  0
   -0.1985    0.8755    3.3010 H   0  0  0  0  0  0  0  0  0  0  0  0
   -0.9501    2.8685    3.2308 C   0  0  0  0  0  0  0  0  0  0  0  0
   -1.9575    2.9151    3.6591 H   0  0  0  0  0  0  0  0  0  0  0  0
   -0.2292    3.1137    4.0169 H   0  0  0  0  0  0  0  0  0  0  0  0
   -0.8704    3.6248    2.4431 H   0  0  0  0  0  0  0  0  0  0  0  0
  1  2  1  0  0  0  0
  2  3  1  0  0  0  0
  2  4  1  0  0  0  0
  2  5  1  0  0  0  0
  5  6  2  0  0  0  0
  5  7  1  0  0  0  0
  7  8  1  0  0  0  0
  7  9  1  0  0  0  0
  9 10  1  0  0  0  0
  9 11  1  0  0  0  0
  9 29  1  0  0  0  0
 11 12  1  0  0  0  0
 11 13  1  0  0  0  0
 11 14  1  0  0  0  0
 14 15  1  0  0  0  0
 14 16  1  0  0  0  0
 14 17  1  0  0  0  0
 17 18  1  0  0  0  0
 17 19  1  0  0  0  0
 17 20  1  0  0  0  0
 20 21  1  0  0  0  0
 20 22  2  0  0  0  0
 22 23  1  0  0  0  0
 22 26  1  0  0  0  0
 23 24  1  0  0  0  0
 23 25  1  0  0  0  0
 26 27  1  0  0  0  0
 26 28  1  0  0  0  0
 29 30  2  0  0  0  0
 29 31  1  0  0  0  0
 31 32  1  0  0  0  0
 31 33  1  0  0  0  0
 33 34  1  0  0  0  0
 33 35  1  0  0  0  0
 33 36  1  0  0  0  0
M  CHG  1  20   1
M  END
$$$$

  -OEChem-03222214013D

 36 35  0     1  0  0  0  0  0999 V2000
   -4.4514   -3.4500    0.6352 H   0  0  0  0  0  0  0  0  0  0  0  0
   -4.1494   -2.4390    0.3467 C   0  0  0  0  0  0  0  0  0  0  0  0
   -4.9262   -1.7378    0.6616 H   0  0  0  0  0  0  0  0  0  0  0  0
   -4.0498   -2.3996   -0.7406 H   0  0  0  0  0  0  0  0  0  0  0  0
   -2.8296   -2.0823    1.0034 C   0  0  0  0  0  0  0  0  0  0  0  0
   -2.2831   -2.8743    1.7535 O   0  0  0  0  0  0  0  0  0  0  0  0
   -2.2384   -0.8575    0.7580 N   0  0  0  0  0  0  0  0  0  0  0  0
   -2.7430   -0.2068    0.1585 H   0  0  0  0  0  0  0  0  0  0  0  0
   -0.9992   -0.3939    1.4013 C   0  0  1  0  0  0  0  0  0  0  0  0
   -0.7812   -0.9998    2.2877 H   0  0  0  0  0  0  0  0  0  0  0  0
    0.1086   -0.6438    0.3440 C   0  0  0  0  0  0  0  0  0  0  0  0
   -0.0455   -1.6428   -0.0803 H   0  0  0  0  0  0  0  0  0  0  0  0
   -0.0176    0.0731   -0.4742 H   0  0  0  0  0  0  0  0  0  0  0  0
    1.5707   -0.5922    0.8267 C   0  0  0  0  0  0  0  0  0  0  0  0
    1.6839   -1.3615    1.5987 H   0  0  0  0  0  0  0  0  0  0  0  0
    2.2331   -0.8767    0.0019 H   0  0  0  0  0  0  0  0  0  0  0  0
    2.0274    0.7430    1.4311 C   0  0  0  0  0  0  0  0  0  0  0  0
    1.2031    1.2760    1.9004 H   0  0  0  0  0  0  0  0  0  0  0  0
    2.7665    0.5380    2.2135 H   0  0  0  0  0  0  0  0  0  0  0  0
    2.6633    1.5711    0.3853 N   0  3  0  0  0  0  0  0  0  0  0  0
    3.5483    1.2260    0.0173 H   0  0  0  0  0  0  0  0  0  0  0  0
    2.2193    2.7163   -0.0520 C   0  0  0  0  0  0  0  0  0  0  0  0
    1.0329    3.2767    0.3558 N   0  0  0  0  0  0  0  0  0  0  0  0
    0.3345    2.6544    0.7723 H   0  0  0  0  0  0  0  0  0  0  0  0
    0.6644    4.0526   -0.1884 H   0  0  0  0  0  0  0  0  0  0  0  0
    2.9732    3.4136   -0.9657 N   0  0  0  0  0  0  0  0  0  0  0  0
    3.9343    3.1228   -1.1323 H   0  0  0  0  0  0  0  0  0  0  0  0
    2.7301    4.3848   -1.1513 H   0  0  0  0  0  0  0  0  0  0  0  0
   -1.1500    1.0642    1.8685 C   0  0  0  0  0  0  0  0  0  0  0  0
   -1.3735    1.9441    1.0453 O   0  0  0  0  0  0  0  0  0  0  0  0
   -0.7199    1.4407    3.1284 N   0  0  0  0  0  0  0  0  0  0  0  0
   -0.6267    0.6910    3.8125 H   0  0  0  0  0  0  0  0  0  0  0  0
   -0.8552    2.8030    3.6379 C   0  0  0  0  0  0  0  0  0  0  0  0
   -1.9038    3.1200    3.6148 H   0  0  0  0  0  0  0  0  0  0  0  0
   -0.5029    2.8558    4.6731 H   0  0  0  0  0  0  0  0  0  0  0  0
   -0.2636    3.5032    3.0397 H   0  0  0  0  0  0  0  0  0  0  0  0
  1  2  1  0  0  0  0
  2  3  1  0  0  0  0
  2  4  1  0  0  0  0
  2  5  1  0  0  0  0
  5  6  2  0  0  0  0
  5  7  1  0  0  0  0
  7  8  1  0  0  0  0
  7  9  1  0  0  0  0
  9 10  1  0  0  0  0
  9 11  1  0  0  0  0
  9 29  1  0  0  0  0
 11 12  1  0  0  0  0
 11 13  1  0  0  0  0
 11 14  1  0  0  0  0
 14 15  1  0  0  0  0
 14 16  1  0  0  0  0
 14 17  1  0  0  0  0
 17 18  1  0  0  0  0
 17 19  1  0  0  0  0
 17 20  1  0  0  0  0
 20 21  1  0  0  0  0
 20 22  2  0  0  0  0
 22 23  1  0  0  0  0
 22 26  1  0  0  0  0
 23 24  1  0  0  0  0
 23 25  1  0  0  0  0
 26 27  1  0  0  0  0
 26 28  1  0  0  0  0
 29 30  2  0  0  0  0
 29 31  1  0  0  0  0
 31 32  1  0  0  0  0
 31 33  1  0  0  0  0
 33 34  1  0  0  0  0
 33 35  1  0  0  0  0
 33 36  1  0  0  0  0
M  CHG  1  20   1
M  END
$$$$

  -OEChem-03222214013D

 36 35  0     1  0  0  0  0  0999 V2000
   -4.3449   -3.9262    1.1059 H   0  0  0  0  0  0  0  0  0  0  0  0
   -4.2228   -2.8728    0.8379 C   0  0  0  0  0  0  0  0  0  0  0  0
   -5.0011   -2.2911    1.3379 H   0  0  0  0  0  0  0  0  0  0  0  0
   -4.3384   -2.7698   -0.2436 H   0  0  0  0  0  0  0  0  0  0  0  0
   -2.8516   -2.3825    1.2619 C   0  0  0  0  0  0  0  0  0  0  0  0
   -2.0714   -3.1405    1.8156 O   0  0  0  0  0  0  0  0  0  0  0  0
   -2.4765   -1.0749    1.0219 N   0  0  0  0  0  0  0  0  0  0  0  0
   -3.1678   -0.4581    0.5980 H   0  0  0  0  0  0  0  0  0  0  0  0
   -1.1989   -0.4885    1.4520 C   0  0  1  0  0  0  0  0  0  0  0  0
   -0.7131   -1.1201    2.2034 H   0  0  0  0  0  0  0  0  0  0  0  0
   -0.3351   -0.4602    0.1648 C   0  0  0  0  0  0  0  0  0  0  0  0
   -0.4567   -1.4158   -0.3582 H   0  0  0  0  0  0  0  0  0  0  0  0
   -0.7341    0.3158   -0.4976 H   0  0  0  0  0  0  0  0  0  0  0  0
    1.1791   -0.2305    0.3256 C   0  0  0  0  0  0  0  0  0  0  0  0
    1.6460   -1.1557    0.6811 H   0  0  0  0  0  0  0  0  0  0  0  0
    1.5918   -0.0162   -0.6663 H   0  0  0  0  0  0  0  0  0  0  0  0
    1.5343    0.8969    1.2940 C   0  0  0  0  0  0  0  0  0  0  0  0
    0.7706    1.6784    1.2363 H   0  0  0  0  0  0  0  0  0  0  0  0
    1.5334    0.5116    2.3196 H   0  0  0  0  0  0  0  0  0  0  0  0
    2.8534    1.4673    0.9661 N   0  3  0  0  0  0  0  0  0  0  0  0
    3.6713    0.8926    1.1665 H   0  0  0  0  0  0  0  0  0  0  0  0
    3.0126    2.6478    0.4374 C   0  0  0  0  0  0  0  0  0  0  0  0
    1.9437    3.4590    0.1244 N   0  0  0  0  0  0  0  0  0  0  0  0
    1.0057    3.0622    0.1771 H   0  0  0  0  0  0  0  0  0  0  0  0
    2.0931    4.2541   -0.4931 H   0  0  0  0  0  0  0  0  0  0  0  0
    4.2818    3.1046    0.1738 N   0  0  0  0  0  0  0  0  0  0  0  0
    5.0756    2.5976    0.5604 H   0  0  0  0  0  0  0  0  0  0  0  0
    4.4062    4.0916   -0.0440 H   0  0  0  0  0  0  0  0  0  0  0  0
   -1.4359    0.9043    2.0738 C   0  0  0  0  0  0  0  0  0  0  0  0
   -1.9403    1.7909    1.3960 O   0  0  0  0  0  0  0  0  0  0  0  0
   -0.8090    1.2540    3.2578 N   0  0  0  0  0  0  0  0  0  0  0  0
   -0.5201    0.4795    3.8522 H   0  0  0  0  0  0  0  0  0  0  0  0
   -1.0226    2.5499    3.8970 C   0  0  0  0  0  0  0  0  0  0  0  0
   -2.0830    2.6908    4.1337 H   0  0  0  0  0  0  0  0  0  0  0  0
   -0.4501    2.6126    4.8279 H   0  0  0  0  0  0  0  0  0  0  0  0
   -0.6999    3.3643    3.2400 H   0  0  0  0  0  0  0  0  0  0  0  0
  1  2  1  0  0  0  0
  2  3  1  0  0  0  0
  2  4  1  0  0  0  0
  2  5  1  0  0  0  0
  5  6  2  0  0  0  0
  5  7  1  0  0  0  0
  7  8  1  0  0  0  0
  7  9  1  0  0  0  0
  9 10  1  0  0  0  0
  9 11  1  0  0  0  0
  9 29  1  0  0  0  0
 11 12  1  0  0  0  0
 11 13  1  0  0  0  0
 11 14  1  0  0  0  0
 14 15  1  0  0  0  0
 14 16  1  0  0  0  0
 14 17  1  0  0  0  0
 17 18  1  0  0  0  0
 17 19  1  0  0  0  0
 17 20  1  0  0  0  0
 20 21  1  0  0  0  0
 20 22  2  0  0  0  0
 22 23  1  0  0  0  0
 22 26  1  0  0  0  0
 23 24  1  0  0  0  0
 23 25  1  0  0  0  0
 26 27  1  0  0  0  0
 26 28  1  0  0  0  0
 29 30  2  0  0  0  0
 29 31  1  0  0  0  0
 31 32  1  0  0  0  0
 31 33  1  0  0  0  0
 33 34  1  0  0  0  0
 33 35  1  0  0  0  0
 33 36  1  0  0  0  0
M  CHG  1  20   1
M  END
$$$$

  -OEChem-03222214013D

 36 35  0     1  0  0  0  0  0999 V2000
   -4.3226   -4.0002    1.0901 H   0  0  0  0  0  0  0  0  0  0  0  0
   -4.2200   -2.9421    0.8332 C   0  0  0  0  0  0  0  0  0  0  0  0
   -5.0084   -2.3797    1.3392 H   0  0  0  0  0  0  0  0  0  0  0  0
   -4.3375   -2.8301   -0.2472 H   0  0  0  0  0  0  0  0  0  0  0  0
   -2.8586   -2.4305    1.2630 C   0  0  0  0  0  0  0  0  0  0  0  0
   -2.0642   -3.1787    1.8106 O   0  0  0  0  0  0  0  0  0  0  0  0
   -2.5062   -1.1152    1.0316 N   0  0  0  0  0  0  0  0  0  0  0  0
   -3.2099   -0.5045    0.6180 H   0  0  0  0  0  0  0  0  0  0  0  0
   -1.2371   -0.5118    1.4627 C   0  0  1  0  0  0  0  0  0  0  0  0
   -0.7378   -1.1411    2.2070 H   0  0  0  0  0  0  0  0  0  0  0  0
   -0.3825   -0.4535    0.1701 C   0  0  0  0  0  0  0  0  0  0  0  0
   -0.5007   -1.3984   -0.3729 H   0  0  0  0  0  0  0  0  0  0  0  0
   -0.8016    0.3304   -0.4707 H   0  0  0  0  0  0  0  0  0  0  0  0
    1.1327   -0.2014    0.3046 C   0  0  0  0  0  0  0  0  0  0  0  0
    1.6374   -1.1707    0.3846 H   0  0  0  0  0  0  0  0  0  0  0  0
    1.4804    0.2702   -0.6208 H   0  0  0  0  0  0  0  0  0  0  0  0
    1.5453    0.6442    1.5075 C   0  0  0  0  0  0  0  0  0  0  0  0
    0.8867    1.5143    1.5893 H   0  0  0  0  0  0  0  0  0  0  0  0
    1.4316    0.0560    2.4246 H   0  0  0  0  0  0  0  0  0  0  0  0
    2.9434    1.0889    1.3605 N   0  3  0  0  0  0  0  0  0  0  0  0
    3.6716    0.4078    1.5733 H   0  0  0  0  0  0  0  0  0  0  0  0
    3.2806    2.2839    0.9648 C   0  0  0  0  0  0  0  0  0  0  0  0
    2.3402    3.2357    0.6362 N   0  0  0  0  0  0  0  0  0  0  0  0
    1.3661    2.9444    0.5624 H   0  0  0  0  0  0  0  0  0  0  0  0
    2.6347    4.0590    0.1149 H   0  0  0  0  0  0  0  0  0  0  0  0
    4.6112    2.6123    0.8599 N   0  0  0  0  0  0  0  0  0  0  0  0
    5.3048    1.9876    1.2666 H   0  0  0  0  0  0  0  0  0  0  0  0
    4.8626    3.5919    0.7401 H   0  0  0  0  0  0  0  0  0  0  0  0
   -1.5049    0.8717    2.0946 C   0  0  0  0  0  0  0  0  0  0  0  0
   -2.0639    1.7389    1.4362 O   0  0  0  0  0  0  0  0  0  0  0  0
   -0.8893    1.2338    3.2812 N   0  0  0  0  0  0  0  0  0  0  0  0
   -0.5820    0.4646    3.8727 H   0  0  0  0  0  0  0  0  0  0  0  0
   -1.1519    2.5165    3.9292 C   0  0  0  0  0  0  0  0  0  0  0  0
   -2.2155    2.6119    4.1748 H   0  0  0  0  0  0  0  0  0  0  0  0
   -0.5752    2.5992    4.8558 H   0  0  0  0  0  0  0  0  0  0  0  0
   -0.8691    3.3471    3.2738 H   0  0  0  0  0  0  0  0  0  0  0  0
  1  2  1  0  0  0  0
  2  3  1  0  0  0  0
  2  4  1  0  0  0  0
  2  5  1  0  0  0  0
  5  6  2  0  0  0  0
  5  7  1  0  0  0  0
  7  8  1  0  0  0  0
  7  9  1  0  0  0  0
  9 10  1  0  0  0  0
  9 11  1  0  0  0  0
  9 29  1  0  0  0  0
 11 12  1  0  0  0  0
 11 13  1  0  0  0  0
 11 14  1  0  0  0  0
 14 15  1  0  0  0  0
 14 16  1  0  0  0  0
 14 17  1  0  0  0  0
 17 18  1  0  0  0  0
 17 19  1  0  0  0  0
 17 20  1  0  0  0  0
 20 21  1  0  0  0  0
 20 22  2  0  0  0  0
 22 23  1  0  0  0  0
 22 26  1  0  0  0  0
 23 24  1  0  0  0  0
 23 25  1  0  0  0  0
 26 27  1  0  0  0  0
 26 28  1  0  0  0  0
 29 30  2  0  0  0  0
 29 31  1  0  0  0  0
 31 32  1  0  0  0  0
 31 33  1  0  0  0  0
 33 34  1  0  0  0  0
 33 35  1  0  0  0  0
 33 36  1  0  0  0  0
M  CHG  1  20   1
M  END
$$$$

  -OEChem-03222214013D

 36 35  0     1  0  0  0  0  0999 V2000
   -4.4012   -3.9742    1.0852 H   0  0  0  0  0  0  0  0  0  0  0  0
   -4.2806   -2.9174    0.8308 C   0  0  0  0  0  0  0  0  0  0  0  0
   -5.0556   -2.3420    1.3428 H   0  0  0  0  0  0  0  0  0  0  0  0
   -4.4017   -2.8001   -0.2486 H   0  0  0  0  0  0  0  0  0  0  0  0
   -2.9078   -2.4325    1.2552 C   0  0  0  0  0  0  0  0  0  0  0  0
   -2.1326   -3.1915    1.8155 O   0  0  0  0  0  0  0  0  0  0  0  0
   -2.5246   -1.1282    1.0109 N   0  0  0  0  0  0  0  0  0  0  0  0
   -3.2126   -0.5061    0.5878 H   0  0  0  0  0  0  0  0  0  0  0  0
   -1.2484   -0.5459    1.4500 C   0  0  1  0  0  0  0  0  0  0  0  0
   -0.7743   -1.1774    2.2081 H   0  0  0  0  0  0  0  0  0  0  0  0
   -0.3761   -0.5147    0.1678 C   0  0  0  0  0  0  0  0  0  0  0  0
   -0.5077   -1.4647   -0.3634 H   0  0  0  0  0  0  0  0  0  0  0  0
   -0.7755    0.2660   -0.4897 H   0  0  0  0  0  0  0  0  0  0  0  0
    1.1453   -0.2905    0.3093 C   0  0  0  0  0  0  0  0  0  0  0  0
    1.6493   -1.2462    0.1264 H   0  0  0  0  0  0  0  0  0  0  0  0
    1.4616    0.3961   -0.4830 H   0  0  0  0  0  0  0  0  0  0  0  0
    1.6151    0.2358    1.6641 C   0  0  0  0  0  0  0  0  0  0  0  0
    1.0302    1.1159    1.9412 H   0  0  0  0  0  0  0  0  0  0  0  0
    1.4521   -0.5303    2.4304 H   0  0  0  0  0  0  0  0  0  0  0  0
    3.0432    0.5974    1.6034 N   0  3  0  0  0  0  0  0  0  0  0  0
    3.7190   -0.1565    1.7263 H   0  0  0  0  0  0  0  0  0  0  0  0
    3.4690    1.8133    1.4064 C   0  0  0  0  0  0  0  0  0  0  0  0
    2.6021    2.8654    1.2061 N   0  0  0  0  0  0  0  0  0  0  0  0
    1.6173    2.6519    1.0520 H   0  0  0  0  0  0  0  0  0  0  0  0
    2.9673    3.7353    0.8238 H   0  0  0  0  0  0  0  0  0  0  0  0
    4.8205    2.0631    1.3878 N   0  0  0  0  0  0  0  0  0  0  0  0
    5.4575    1.3376    1.7114 H   0  0  0  0  0  0  0  0  0  0  0  0
    5.1363    3.0302    1.4340 H   0  0  0  0  0  0  0  0  0  0  0  0
   -1.4951    0.8515    2.0600 C   0  0  0  0  0  0  0  0  0  0  0  0
   -2.0476    1.7139    1.3908 O   0  0  0  0  0  0  0  0  0  0  0  0
   -0.8888    1.2213    3.2494 N   0  0  0  0  0  0  0  0  0  0  0  0
   -0.6058    0.4555    3.8570 H   0  0  0  0  0  0  0  0  0  0  0  0
   -1.1416    2.5169    3.8759 C   0  0  0  0  0  0  0  0  0  0  0  0
   -2.2042    2.6234    4.1206 H   0  0  0  0  0  0  0  0  0  0  0  0
   -0.5632    2.6119    4.8003 H   0  0  0  0  0  0  0  0  0  0  0  0
   -0.8541    3.3344    3.2062 H   0  0  0  0  0  0  0  0  0  0  0  0
  1  2  1  0  0  0  0
  2  3  1  0  0  0  0
  2  4  1  0  0  0  0
  2  5  1  0  0  0  0
  5  6  2  0  0  0  0
  5  7  1  0  0  0  0
  7  8  1  0  0  0  0
  7  9  1  0  0  0  0
  9 10  1  0  0  0  0
  9 11  1  0  0  0  0
  9 29  1  0  0  0  0
 11 12  1  0  0  0  0
 11 13  1  0  0  0  0
 11 14  1  0  0  0  0
 14 15  1  0  0  0  0
 14 16  1  0  0  0  0
 14 17  1  0  0  0  0
 17 18  1  0  0  0  0
 17 19  1  0  0  0  0
 17 20  1  0  0  0  0
 20 21  1  0  0  0  0
 20 22  2  0  0  0  0
 22 23  1  0  0  0  0
 22 26  1  0  0  0  0
 23 24  1  0  0  0  0
 23 25  1  0  0  0  0
 26 27  1  0  0  0  0
 26 28  1  0  0  0  0
 29 30  2  0  0  0  0
 29 31  1  0  0  0  0
 31 32  1  0  0  0  0
 31 33  1  0  0  0  0
 33 34  1  0  0  0  0
 33 35  1  0  0  0  0
 33 36  1  0  0  0  0
M  CHG  1  20   1
M  END
$$$$

  -OEChem-03222214013D

 36 35  0     1  0  0  0  0  0999 V2000
   -4.1389   -4.1751    1.7345 H   0  0  0  0  0  0  0  0  0  0  0  0
   -4.1384   -3.1590    1.3301 C   0  0  0  0  0  0  0  0  0  0  0  0
   -4.9246   -2.5831    1.8242 H   0  0  0  0  0  0  0  0  0  0  0  0
   -4.3501   -3.2073    0.2593 H   0  0  0  0  0  0  0  0  0  0  0  0
   -2.7908   -2.5045    1.5647 C   0  0  0  0  0  0  0  0  0  0  0  0
   -1.9214   -3.0895    2.1929 O   0  0  0  0  0  0  0  0  0  0  0  0
   -2.5399   -1.2369    1.0781 N   0  0  0  0  0  0  0  0  0  0  0  0
   -3.3024   -0.7513    0.6057 H   0  0  0  0  0  0  0  0  0  0  0  0
   -1.2958   -0.4916    1.3138 C   0  0  1  0  0  0  0  0  0  0  0  0
   -0.7247   -0.9492    2.1266 H   0  0  0  0  0  0  0  0  0  0  0  0
   -0.5094   -0.5884   -0.0167 C   0  0  0  0  0  0  0  0  0  0  0  0
   -0.5756   -1.6254   -0.3656 H   0  0  0  0  0  0  0  0  0  0  0  0
   -1.0208    0.0246   -0.7677 H   0  0  0  0  0  0  0  0  0  0  0  0
    0.9910   -0.2181   -0.0216 C   0  0  0  0  0  0  0  0  0  0  0  0
    1.5503   -1.0876   -0.3851 H   0  0  0  0  0  0  0  0  0  0  0  0
    1.1361    0.5894   -0.7483 H   0  0  0  0  0  0  0  0  0  0  0  0
    1.5858    0.2213    1.3163 C   0  0  0  0  0  0  0  0  0  0  0  0
    1.0803    1.1310    1.6546 H   0  0  0  0  0  0  0  0  0  0  0  0
    1.4357   -0.5699    2.0590 H   0  0  0  0  0  0  0  0  0  0  0  0
    3.0255    0.4878    1.1389 N   0  3  0  0  0  0  0  0  0  0  0  0
    3.4256    0.2685    0.2273 H   0  0  0  0  0  0  0  0  0  0  0  0
    3.7914    0.9968    2.0599 C   0  0  0  0  0  0  0  0  0  0  0  0
    3.3171    1.2927    3.3169 N   0  0  0  0  0  0  0  0  0  0  0  0
    2.4015    0.9314    3.5723 H   0  0  0  0  0  0  0  0  0  0  0  0
    3.9902    1.4588    4.0625 H   0  0  0  0  0  0  0  0  0  0  0  0
    5.1139    1.2460    1.7805 N   0  0  0  0  0  0  0  0  0  0  0  0
    5.4276    1.1995    0.8128 H   0  0  0  0  0  0  0  0  0  0  0  0
    5.6457    1.8274    2.4258 H   0  0  0  0  0  0  0  0  0  0  0  0
   -1.6225    0.9668    1.6995 C   0  0  0  0  0  0  0  0  0  0  0  0
   -2.3534    1.6335    0.9807 O   0  0  0  0  0  0  0  0  0  0  0  0
   -0.9729    1.5776    2.7598 N   0  0  0  0  0  0  0  0  0  0  0  0
   -0.6294    0.9468    3.4780 H   0  0  0  0  0  0  0  0  0  0  0  0
   -1.2902    2.9460    3.1631 C   0  0  0  0  0  0  0  0  0  0  0  0
   -2.3371    3.0206    3.4772 H   0  0  0  0  0  0  0  0  0  0  0  0
   -0.6552    3.2555    3.9990 H   0  0  0  0  0  0  0  0  0  0  0  0
   -1.1254    3.6413    2.3326 H   0  0  0  0  0  0  0  0  0  0  0  0
  1  2  1  0  0  0  0
  2  3  1  0  0  0  0
  2  4  1  0  0  0  0
  2  5  1  0  0  0  0
  5  6  2  0  0  0  0
  5  7  1  0  0  0  0
  7  8  1  0  0  0  0
  7  9  1  0  0  0  0
  9 10  1  0  0  0  0
  9 11  1  0  0  0  0
  9 29  1  0  0  0  0
 11 12  1  0  0  0  0
 11 13  1  0  0  0  0
 11 14  1  0  0  0  0
 14 15  1  0  0  0  0
 14 16  1  0  0  0  0
 14 17  1  0  0  0  0
 17 18  1  0  0  0  0
 17 19  1  0  0  0  0
 17 20  1  0  0  0  0
 20 21  1  0  0  0  0
 20 22  2  0  0  0  0
 22 23  1  0  0  0  0
 22 26  1  0  0  0  0
 23 24  1  0  0  0  0
 23 25  1  0  0  0  0
 26 27  1  0  0  0  0
 26 28  1  0  0  0  0
 29 30  2  0  0  0  0
 29 31  1  0  0  0  0
 31 32  1  0  0  0  0
 31 33  1  0  0  0  0
 33 34  1  0  0  0  0
 33 35  1  0  0  0  0
 33 36  1  0  0  0  0
M  CHG  1  20   1
M  END
$$$$

  -OEChem-03222214013D

 36 35  0     1  0  0  0  0  0999 V2000
   -3.6009   -4.1792    2.4205 H   0  0  0  0  0  0  0  0  0  0  0  0
   -3.6846   -3.2955    1.7817 C   0  0  0  0  0  0  0  0  0  0  0  0
   -4.5555   -2.7156    2.0967 H   0  0  0  0  0  0  0  0  0  0  0  0
   -3.8266   -3.6205    0.7482 H   0  0  0  0  0  0  0  0  0  0  0  0
   -2.4306   -2.4497    1.8918 C   0  0  0  0  0  0  0  0  0  0  0  0
   -1.4915   -2.8205    2.5830 O   0  0  0  0  0  0  0  0  0  0  0  0
   -2.3287   -1.2619    1.1949 N   0  0  0  0  0  0  0  0  0  0  0  0
   -3.1492   -0.9453    0.6773 H   0  0  0  0  0  0  0  0  0  0  0  0
   -1.2259   -0.3075    1.3648 C   0  0  1  0  0  0  0  0  0  0  0  0
   -0.6947   -0.5288    2.2936 H   0  0  0  0  0  0  0  0  0  0  0  0
   -0.3003   -0.4939    0.1404 C   0  0  0  0  0  0  0  0  0  0  0  0
   -0.1723   -1.5723   -0.0073 H   0  0  0  0  0  0  0  0  0  0  0  0
   -0.8059   -0.1131   -0.7545 H   0  0  0  0  0  0  0  0  0  0  0  0
    1.1169    0.1142    0.2123 C   0  0  0  0  0  0  0  0  0  0  0  0
    1.8185   -0.6087   -0.2181 H   0  0  0  0  0  0  0  0  0  0  0  0
    1.1433    1.0062   -0.4237 H   0  0  0  0  0  0  0  0  0  0  0  0
    1.5792    0.5194    1.6143 C   0  0  0  0  0  0  0  0  0  0  0  0
    1.0686    1.4415    1.9121 H   0  0  0  0  0  0  0  0  0  0  0  0
    1.3095   -0.2579    2.3361 H   0  0  0  0  0  0  0  0  0  0  0  0
    3.0390    0.7276    1.6285 N   0  3  0  0  0  0  0  0  0  0  0  0
    3.3806    1.6339    1.3091 H   0  0  0  0  0  0  0  0  0  0  0  0
    3.8940   -0.1760    2.0178 C   0  0  0  0  0  0  0  0  0  0  0  0
    3.4954   -1.4283    2.4314 N   0  0  0  0  0  0  0  0  0  0  0  0
    2.5279   -1.7039    2.2689 H   0  0  0  0  0  0  0  0  0  0  0  0
    4.1940   -2.1643    2.5147 H   0  0  0  0  0  0  0  0  0  0  0  0
    5.2371    0.1162    2.0129 N   0  0  0  0  0  0  0  0  0  0  0  0
    5.5297    1.0823    1.8792 H   0  0  0  0  0  0  0  0  0  0  0  0
    5.8738   -0.5130    2.4990 H   0  0  0  0  0  0  0  0  0  0  0  0
   -1.7676    1.1339    1.4620 C   0  0  0  0  0  0  0  0  0  0  0  0
   -2.5763    1.5279    0.6335 O   0  0  0  0  0  0  0  0  0  0  0  0
   -1.2958    2.0096    2.4250 N   0  0  0  0  0  0  0  0  0  0  0  0
   -0.8116    1.5992    3.2179 H   0  0  0  0  0  0  0  0  0  0  0  0
   -1.8420    3.3553    2.5825 C   0  0  0  0  0  0  0  0  0  0  0  0
   -2.9015    3.3096    2.8577 H   0  0  0  0  0  0  0  0  0  0  0  0
   -1.3032    3.8959    3.3668 H   0  0  0  0  0  0  0  0  0  0  0  0
   -1.7474    3.9221    1.6497 H   0  0  0  0  0  0  0  0  0  0  0  0
  1  2  1  0  0  0  0
  2  3  1  0  0  0  0
  2  4  1  0  0  0  0
  2  5  1  0  0  0  0
  5  6  2  0  0  0  0
  5  7  1  0  0  0  0
  7  8  1  0  0  0  0
  7  9  1  0  0  0  0
  9 10  1  0  0  0  0
  9 11  1  0  0  0  0
  9 29  1  0  0  0  0
 11 12  1  0  0  0  0
 11 13  1  0  0  0  0
 11 14  1  0  0  0  0
 14 15  1  0  0  0  0
 14 16  1  0  0  0  0
 14 17  1  0  0  0  0
 17 18  1  0  0  0  0
 17 19  1  0  0  0  0
 17 20  1  0  0  0  0
 20 21  1  0  0  0  0
 20 22  2  0  0  0  0
 22 23  1  0  0  0  0
 22 26  1  0  0  0  0
 23 24  1  0  0  0  0
 23 25  1  0  0  0  0
 26 27  1  0  0  0  0
 26 28  1  0  0  0  0
 29 30  2  0  0  0  0
 29 31  1  0  0  0  0
 31 32  1  0  0  0  0
 31 33  1  0  0  0  0
 33 34  1  0  0  0  0
 33 35  1  0  0  0  0
 33 36  1  0  0  0  0
M  CHG  1  20   1
M  END
$$$$

  -OEChem-03222214013D

 36 35  0     1  0  0  0  0  0999 V2000
   -3.6672   -4.1706    2.3727 H   0  0  0  0  0  0  0  0  0  0  0  0
   -3.7332   -3.2808    1.7404 C   0  0  0  0  0  0  0  0  0  0  0  0
   -4.5836   -2.6785    2.0695 H   0  0  0  0  0  0  0  0  0  0  0  0
   -3.8968   -3.5945    0.7066 H   0  0  0  0  0  0  0  0  0  0  0  0
   -2.4544   -2.4718    1.8404 C   0  0  0  0  0  0  0  0  0  0  0  0
   -1.5098   -2.8832    2.5010 O   0  0  0  0  0  0  0  0  0  0  0  0
   -2.3333   -1.2759    1.1608 N   0  0  0  0  0  0  0  0  0  0  0  0
   -3.1563   -0.9281    0.6679 H   0  0  0  0  0  0  0  0  0  0  0  0
   -1.2097   -0.3478    1.3383 C   0  0  1  0  0  0  0  0  0  0  0  0
   -0.6864   -0.5951    2.2649 H   0  0  0  0  0  0  0  0  0  0  0  0
   -0.2857   -0.5331    0.1140 C   0  0  0  0  0  0  0  0  0  0  0  0
   -0.1709   -1.6107   -0.0477 H   0  0  0  0  0  0  0  0  0  0  0  0
   -0.7757   -0.1285   -0.7791 H   0  0  0  0  0  0  0  0  0  0  0  0
    1.1339    0.0564    0.2231 C   0  0  0  0  0  0  0  0  0  0  0  0
    1.7955   -0.5228   -0.4303 H   0  0  0  0  0  0  0  0  0  0  0  0
    1.1182    1.0843   -0.1564 H   0  0  0  0  0  0  0  0  0  0  0  0
    1.6857    0.0790    1.6504 C   0  0  0  0  0  0  0  0  0  0  0  0
    1.2281    0.9061    2.2036 H   0  0  0  0  0  0  0  0  0  0  0  0
    1.4138   -0.8499    2.1623 H   0  0  0  0  0  0  0  0  0  0  0  0
    3.1520    0.2357    1.6319 N   0  3  0  0  0  0  0  0  0  0  0  0
    3.5161    1.1603    1.4024 H   0  0  0  0  0  0  0  0  0  0  0  0
    3.9856   -0.7329    1.8893 C   0  0  0  0  0  0  0  0  0  0  0  0
    3.5574   -2.0106    2.1764 N   0  0  0  0  0  0  0  0  0  0  0  0
    2.5743   -2.2344    2.0285 H   0  0  0  0  0  0  0  0  0  0  0  0
    4.2307   -2.7736    2.1480 H   0  0  0  0  0  0  0  0  0  0  0  0
    5.3373   -0.4845    1.8713 N   0  0  0  0  0  0  0  0  0  0  0  0
    5.6583    0.4811    1.8380 H   0  0  0  0  0  0  0  0  0  0  0  0
    5.9639   -1.1818    2.2694 H   0  0  0  0  0  0  0  0  0  0  0  0
   -1.7029    1.1078    1.4628 C   0  0  0  0  0  0  0  0  0  0  0  0
   -2.5096    1.5400    0.6517 O   0  0  0  0  0  0  0  0  0  0  0  0
   -1.1936    1.9495    2.4367 N   0  0  0  0  0  0  0  0  0  0  0  0
   -0.7067    1.5118    3.2129 H   0  0  0  0  0  0  0  0  0  0  0  0
   -1.6872    3.3119    2.6200 C   0  0  0  0  0  0  0  0  0  0  0  0
   -2.7503    3.3033    2.8843 H   0  0  0  0  0  0  0  0  0  0  0  0
   -1.1351    3.8126    3.4214 H   0  0  0  0  0  0  0  0  0  0  0  0
   -1.5605    3.8948    1.7010 H   0  0  0  0  0  0  0  0  0  0  0  0
  1  2  1  0  0  0  0
  2  3  1  0  0  0  0
  2  4  1  0  0  0  0
  2  5  1  0  0  0  0
  5  6  2  0  0  0  0
  5  7  1  0  0  0  0
  7  8  1  0  0  0  0
  7  9  1  0  0  0  0
  9 10  1  0  0  0  0
  9 11  1  0  0  0  0
  9 29  1  0  0  0  0
 11 12  1  0  0  0  0
 11 13  1  0  0  0  0
 11 14  1  0  0  0  0
 14 15  1  0  0  0  0
 14 16  1  0  0  0  0
 14 17  1  0  0  0  0
 17 18  1  0  0  0  0
 17 19  1  0  0  0  0
 17 20  1  0  0  0  0
 20 21  1  0  0  0  0
 20 22  2  0  0  0  0
 22 23  1  0  0  0  0
 22 26  1  0  0  0  0
 23 24  1  0  0  0  0
 23 25  1  0  0  0  0
 26 27  1  0  0  0  0
 26 28  1  0  0  0  0
 29 30  2  0  0  0  0
 29 31  1  0  0  0  0
 31 32  1  0  0  0  0
 31 33  1  0  0  0  0
 33 34  1  0  0  0  0
 33 35  1  0  0  0  0
 33 36  1  0  0  0  0
M  CHG  1  20   1
M  END
$$$$

  -OEChem-03222214013D

 36 35  0     1  0  0  0  0  0999 V2000
   -3.7837   -4.1925    2.1584 H   0  0  0  0  0  0  0  0  0  0  0  0
   -3.8606   -3.2299    1.6453 C   0  0  0  0  0  0  0  0  0  0  0  0
   -4.6461   -2.6390    2.1230 H   0  0  0  0  0  0  0  0  0  0  0  0
   -4.1321   -3.4081    0.6019 H   0  0  0  0  0  0  0  0  0  0  0  0
   -2.5387   -2.4905    1.7178 C   0  0  0  0  0  0  0  0  0  0  0  0
   -1.5795   -2.9905    2.2909 O   0  0  0  0  0  0  0  0  0  0  0  0
   -2.3996   -1.2563    1.1144 N   0  0  0  0  0  0  0  0  0  0  0  0
   -3.2317   -0.8364    0.6992 H   0  0  0  0  0  0  0  0  0  0  0  0
   -1.2151   -0.4028    1.2668 C   0  0  1  0  0  0  0  0  0  0  0  0
   -0.6413   -0.7412    2.1327 H   0  0  0  0  0  0  0  0  0  0  0  0
   -0.3884   -0.5433   -0.0296 C   0  0  0  0  0  0  0  0  0  0  0  0
   -0.3416   -1.6076   -0.2867 H   0  0  0  0  0  0  0  0  0  0  0  0
   -0.9083   -0.0371   -0.8510 H   0  0  0  0  0  0  0  0  0  0  0  0
    1.0584   -0.0270    0.0496 C   0  0  0  0  0  0  0  0  0  0  0  0
    1.6012   -0.3911   -0.8299 H   0  0  0  0  0  0  0  0  0  0  0  0
    1.0572    1.0681    0.0095 H   0  0  0  0  0  0  0  0  0  0  0  0
    1.7620   -0.4841    1.3288 C   0  0  0  0  0  0  0  0  0  0  0  0
    1.3866    0.0950    2.1794 H   0  0  0  0  0  0  0  0  0  0  0  0
    1.5171   -1.5375    1.5003 H   0  0  0  0  0  0  0  0  0  0  0  0
    3.2212   -0.3124    1.2071 N   0  3  0  0  0  0  0  0  0  0  0  0
    3.5511    0.5225    0.7238 H   0  0  0  0  0  0  0  0  0  0  0  0
    4.0898   -1.1596    1.6825 C   0  0  0  0  0  0  0  0  0  0  0  0
    3.7088   -2.3082    2.3403 N   0  0  0  0  0  0  0  0  0  0  0  0
    2.7264   -2.5760    2.3092 H   0  0  0  0  0  0  0  0  0  0  0  0
    4.3985   -3.0440    2.4790 H   0  0  0  0  0  0  0  0  0  0  0  0
    5.4325   -0.9101    1.5277 N   0  0  0  0  0  0  0  0  0  0  0  0
    5.7285    0.0072    1.1999 H   0  0  0  0  0  0  0  0  0  0  0  0
    6.0953   -1.4606    2.0707 H   0  0  0  0  0  0  0  0  0  0  0  0
   -1.6097    1.0643    1.5288 C   0  0  0  0  0  0  0  0  0  0  0  0
   -2.4565    1.5950    0.8238 O   0  0  0  0  0  0  0  0  0  0  0  0
   -0.9784    1.8025    2.5150 N   0  0  0  0  0  0  0  0  0  0  0  0
   -0.4322    1.2896    3.2001 H   0  0  0  0  0  0  0  0  0  0  0  0
   -1.3706    3.1726    2.8344 C   0  0  0  0  0  0  0  0  0  0  0  0
   -2.4109    3.2053    3.1758 H   0  0  0  0  0  0  0  0  0  0  0  0
   -0.7334    3.5762    3.6272 H   0  0  0  0  0  0  0  0  0  0  0  0
   -1.2713    3.8169    1.9541 H   0  0  0  0  0  0  0  0  0  0  0  0
  1  2  1  0  0  0  0
  2  3  1  0  0  0  0
  2  4  1  0  0  0  0
  2  5  1  0  0  0  0
  5  6  2  0  0  0  0
  5  7  1  0  0  0  0
  7  8  1  0  0  0  0
  7  9  1  0  0  0  0
  9 10  1  0  0  0  0
  9 11  1  0  0  0  0
  9 29  1  0  0  0  0
 11 12  1  0  0  0  0
 11 13  1  0  0  0  0
 11 14  1  0  0  0  0
 14 15  1  0  0  0  0
 14 16  1  0  0  0  0
 14 17  1  0  0  0  0
 17 18  1  0  0  0  0
 17 19  1  0  0  0  0
 17 20  1  0  0  0  0
 20 21  1  0  0  0  0
 20 22  2  0  0  0  0
 22 23  1  0  0  0  0
 22 26  1  0  0  0  0
 23 24  1  0  0  0  0
 23 25  1  0  0  0  0
 26 27  1  0  0  0  0
 26 28  1  0  0  0  0
 29 30  2  0  0  0  0
 29 31  1  0  0  0  0
 31 32  1  0  0  0  0
 31 33  1  0  0  0  0
 33 34  1  0  0  0  0
 33 35  1  0  0  0  0
 33 36  1  0  0  0  0
M  CHG  1  20   1
M  END
$$$$

  -OEChem-03222214013D

 36 35  0     1  0  0  0  0  0999 V2000
   -3.8786   -4.1567    2.0938 H   0  0  0  0  0  0  0  0  0  0  0  0
   -3.9383   -3.1739    1.6178 C   0  0  0  0  0  0  0  0  0  0  0  0
   -4.6748   -2.5685    2.1520 H   0  0  0  0  0  0  0  0  0  0  0  0
   -4.2657   -3.3031    0.5833 H   0  0  0  0  0  0  0  0  0  0  0  0
   -2.5838   -2.4931    1.6515 C   0  0  0  0  0  0  0  0  0  0  0  0
   -1.6183   -3.0592    2.1473 O   0  0  0  0  0  0  0  0  0  0  0  0
   -2.4222   -1.2394    1.0960 N   0  0  0  0  0  0  0  0  0  0  0  0
   -3.2556   -0.7638    0.7490 H   0  0  0  0  0  0  0  0  0  0  0  0
   -1.1925   -0.4478    1.2183 C   0  0  1  0  0  0  0  0  0  0  0  0
   -0.5817   -0.8476    2.0311 H   0  0  0  0  0  0  0  0  0  0  0  0
   -0.4469   -0.5618   -0.1272 C   0  0  0  0  0  0  0  0  0  0  0  0
   -0.4689   -1.6067   -0.4561 H   0  0  0  0  0  0  0  0  0  0  0  0
   -0.9787    0.0256   -0.8845 H   0  0  0  0  0  0  0  0  0  0  0  0
    1.0189   -0.1088   -0.0739 C   0  0  0  0  0  0  0  0  0  0  0  0
    1.4530   -0.2208   -1.0737 H   0  0  0  0  0  0  0  0  0  0  0  0
    1.0757    0.9508    0.1989 H   0  0  0  0  0  0  0  0  0  0  0  0
    1.8013   -0.9575    0.9304 C   0  0  0  0  0  0  0  0  0  0  0  0
    1.4706   -0.7196    1.9467 H   0  0  0  0  0  0  0  0  0  0  0  0
    1.5833   -2.0137    0.7360 H   0  0  0  0  0  0  0  0  0  0  0  0
    3.2489   -0.7150    0.8065 N   0  3  0  0  0  0  0  0  0  0  0  0
    3.5423    0.1109    0.2861 H   0  0  0  0  0  0  0  0  0  0  0  0
    4.1490   -1.5104    1.3096 C   0  0  0  0  0  0  0  0  0  0  0  0
    3.8054   -2.6492    2.0042 N   0  0  0  0  0  0  0  0  0  0  0  0
    2.8308   -2.9466    1.9863 H   0  0  0  0  0  0  0  0  0  0  0  0
    4.5183   -3.3572    2.1681 H   0  0  0  0  0  0  0  0  0  0  0  0
    5.4817   -1.2158    1.1483 N   0  0  0  0  0  0  0  0  0  0  0  0
    5.7433   -0.2984    0.7924 H   0  0  0  0  0  0  0  0  0  0  0  0
    6.1642   -1.7251    1.7071 H   0  0  0  0  0  0  0  0  0  0  0  0
   -1.5126    1.0196    1.5677 C   0  0  0  0  0  0  0  0  0  0  0  0
   -2.3811    1.6110    0.9417 O   0  0  0  0  0  0  0  0  0  0  0  0
   -0.8010    1.6880    2.5487 N   0  0  0  0  0  0  0  0  0  0  0  0
   -0.2245    1.1265    3.1678 H   0  0  0  0  0  0  0  0  0  0  0  0
   -1.1349    3.0478    2.9637 C   0  0  0  0  0  0  0  0  0  0  0  0
   -2.1435    3.0821    3.3899 H   0  0  0  0  0  0  0  0  0  0  0  0
   -0.4266    3.3997    3.7202 H   0  0  0  0  0  0  0  0  0  0  0  0
   -1.0925    3.7329    2.1099 H   0  0  0  0  0  0  0  0  0  0  0  0
  1  2  1  0  0  0  0
  2  3  1  0  0  0  0
  2  4  1  0  0  0  0
  2  5  1  0  0  0  0
  5  6  2  0  0  0  0
  5  7  1  0  0  0  0
  7  8  1  0  0  0  0
  7  9  1  0  0  0  0
  9 10  1  0  0  0  0
  9 11  1  0  0  0  0
  9 29  1  0  0  0  0
 11 12  1  0  0  0  0
 11 13  1  0  0  0  0
 11 14  1  0  0  0  0
 14 15  1  0  0  0  0
 14 16  1  0  0  0  0
 14 17  1  0  0  0  0
 17 18  1  0  0  0  0
 17 19  1  0  0  0  0
 17 20  1  0  0  0  0
 20 21  1  0  0  0  0
 20 22  2  0  0  0  0
 22 23  1  0  0  0  0
 22 26  1  0  0  0  0
 23 24  1  0  0  0  0
 23 25  1  0  0  0  0
 26 27  1  0  0  0  0
 26 28  1  0  0  0  0
 29 30  2  0  0  0  0
 29 31  1  0  0  0  0
 31 32  1  0  0  0  0
 31 33  1  0  0  0  0
 33 34  1  0  0  0  0
 33 35  1  0  0  0  0
 33 36  1  0  0  0  0
M  CHG  1  20   1
M  END
$$$$

  -OEChem-03222214013D

 36 35  0     1  0  0  0  0  0999 V2000
   -3.9199   -4.1448    2.0632 H   0  0  0  0  0  0  0  0  0  0  0  0
   -3.9748   -3.1444    1.6248 C   0  0  0  0  0  0  0  0  0  0  0  0
   -4.6466   -2.5317    2.2310 H   0  0  0  0  0  0  0  0  0  0  0  0
   -4.3805   -3.2250    0.6133 H   0  0  0  0  0  0  0  0  0  0  0  0
   -2.5954   -2.5157    1.5811 C   0  0  0  0  0  0  0  0  0  0  0  0
   -1.6162   -3.1429    1.9633 O   0  0  0  0  0  0  0  0  0  0  0  0
   -2.4296   -1.2389    1.0829 N   0  0  0  0  0  0  0  0  0  0  0  0
   -3.2696   -0.7139    0.8380 H   0  0  0  0  0  0  0  0  0  0  0  0
   -1.1656   -0.4967    1.1519 C   0  0  1  0  0  0  0  0  0  0  0  0
   -0.5045   -0.9581    1.8905 H   0  0  0  0  0  0  0  0  0  0  0  0
   -0.5222   -0.5689   -0.2465 C   0  0  0  0  0  0  0  0  0  0  0  0
   -0.6141   -1.5864   -0.6432 H   0  0  0  0  0  0  0  0  0  0  0  0
   -1.0757    0.0912   -0.9241 H   0  0  0  0  0  0  0  0  0  0  0  0
    0.9575   -0.1644   -0.2477 C   0  0  0  0  0  0  0  0  0  0  0  0
    1.2741    0.0067   -1.2825 H   0  0  0  0  0  0  0  0  0  0  0  0
    1.1048    0.7696    0.3048 H   0  0  0  0  0  0  0  0  0  0  0  0
    1.7886   -1.2975    0.3572 C   0  0  0  0  0  0  0  0  0  0  0  0
    1.4716   -1.4641    1.3922 H   0  0  0  0  0  0  0  0  0  0  0  0
    1.5989   -2.2158   -0.2102 H   0  0  0  0  0  0  0  0  0  0  0  0
    3.2254   -0.9732    0.3185 N   0  3  0  0  0  0  0  0  0  0  0  0
    3.5050   -0.1463   -0.2081 H   0  0  0  0  0  0  0  0  0  0  0  0
    4.1365   -1.7192    0.8745 C   0  0  0  0  0  0  0  0  0  0  0  0
    3.8105   -2.8709    1.5559 N   0  0  0  0  0  0  0  0  0  0  0  0
    2.8545   -3.2156    1.4816 H   0  0  0  0  0  0  0  0  0  0  0  0
    4.5462   -3.5440    1.7606 H   0  0  0  0  0  0  0  0  0  0  0  0
    5.4600   -1.3586    0.7838 N   0  0  0  0  0  0  0  0  0  0  0  0
    5.6950   -0.4302    0.4376 H   0  0  0  0  0  0  0  0  0  0  0  0
    6.1355   -1.8311    1.3820 H   0  0  0  0  0  0  0  0  0  0  0  0
   -1.4091    0.9577    1.6039 C   0  0  0  0  0  0  0  0  0  0  0  0
   -2.3048    1.6082    1.0836 O   0  0  0  0  0  0  0  0  0  0  0  0
   -0.6036    1.5469    2.5625 N   0  0  0  0  0  0  0  0  0  0  0  0
    0.0060    0.9353    3.0967 H   0  0  0  0  0  0  0  0  0  0  0  0
   -0.8560    2.8905    3.0762 C   0  0  0  0  0  0  0  0  0  0  0  0
   -1.8333    2.9359    3.5688 H   0  0  0  0  0  0  0  0  0  0  0  0
   -0.0883    3.1711    3.8040 H   0  0  0  0  0  0  0  0  0  0  0  0
   -0.8404    3.6231    2.2619 H   0  0  0  0  0  0  0  0  0  0  0  0
  1  2  1  0  0  0  0
  2  3  1  0  0  0  0
  2  4  1  0  0  0  0
  2  5  1  0  0  0  0
  5  6  2  0  0  0  0
  5  7  1  0  0  0  0
  7  8  1  0  0  0  0
  7  9  1  0  0  0  0
  9 10  1  0  0  0  0
  9 11  1  0  0  0  0
  9 29  1  0  0  0  0
 11 12  1  0  0  0  0
 11 13  1  0  0  0  0
 11 14  1  0  0  0  0
 14 15  1  0  0  0  0
 14 16  1  0  0  0  0
 14 17  1  0  0  0  0
 17 18  1  0  0  0  0
 17 19  1  0  0  0  0
 17 20  1  0  0  0  0
 20 21  1  0  0  0  0
 20 22  2  0  0  0  0
 22 23  1  0  0  0  0
 22 26  1  0  0  0  0
 23 24  1  0  0  0  0
 23 25  1  0  0  0  0
 26 27  1  0  0  0  0
 26 28  1  0  0  0  0
 29 30  2  0  0  0  0
 29 31  1  0  0  0  0
 31 32  1  0  0  0  0
 31 33  1  0  0  0  0
 33 34  1  0  0  0  0
 33 35  1  0  0  0  0
 33 36  1  0  0  0  0
M  CHG  1  20   1
M  END
$$$$

  -OEChem-03222214013D

 36 35  0     1  0  0  0  0  0999 V2000
   -3.8967   -4.1504    2.0514 H   0  0  0  0  0  0  0  0  0  0  0  0
   -3.9579   -3.1472    1.6201 C   0  0  0  0  0  0  0  0  0  0  0  0
   -4.6117   -2.5351    2.2462 H   0  0  0  0  0  0  0  0  0  0  0  0
   -4.3886   -3.2199    0.6185 H   0  0  0  0  0  0  0  0  0  0  0  0
   -2.5776   -2.5238    1.5464 C   0  0  0  0  0  0  0  0  0  0  0  0
   -1.5914   -3.1616    1.8907 O   0  0  0  0  0  0  0  0  0  0  0  0
   -2.4196   -1.2407    1.0620 N   0  0  0  0  0  0  0  0  0  0  0  0
   -3.2640   -0.7099    0.8463 H   0  0  0  0  0  0  0  0  0  0  0  0
   -1.1563   -0.4968    1.1310 C   0  0  1  0  0  0  0  0  0  0  0  0
   -0.4850   -0.9662    1.8569 H   0  0  0  0  0  0  0  0  0  0  0  0
   -0.5212   -0.5589   -0.2698 C   0  0  0  0  0  0  0  0  0  0  0  0
   -0.6246   -1.5677   -0.6855 H   0  0  0  0  0  0  0  0  0  0  0  0
   -1.0759    0.1160   -0.9318 H   0  0  0  0  0  0  0  0  0  0  0  0
    0.9583   -0.1504   -0.2643 C   0  0  0  0  0  0  0  0  0  0  0  0
    1.2107    0.2735   -1.2424 H   0  0  0  0  0  0  0  0  0  0  0  0
    1.1567    0.6161    0.4917 H   0  0  0  0  0  0  0  0  0  0  0  0
    1.8080   -1.3985   -0.0254 C   0  0  0  0  0  0  0  0  0  0  0  0
    1.5246   -1.8409    0.9365 H   0  0  0  0  0  0  0  0  0  0  0  0
    1.5957   -2.1287   -0.8144 H   0  0  0  0  0  0  0  0  0  0  0  0
    3.2431   -1.0662   -0.0252 N   0  3  0  0  0  0  0  0  0  0  0  0
    3.5061   -0.1246   -0.3127 H   0  0  0  0  0  0  0  0  0  0  0  0
    4.1698   -1.9197    0.3037 C   0  0  0  0  0  0  0  0  0  0  0  0
    3.8640   -3.2030    0.6993 N   0  0  0  0  0  0  0  0  0  0  0  0
    2.9010   -3.5272    0.6242 H   0  0  0  0  0  0  0  0  0  0  0  0
    4.6063   -3.8873    0.8275 H   0  0  0  0  0  0  0  0  0  0  0  0
    5.4891   -1.5353    0.2646 N   0  0  0  0  0  0  0  0  0  0  0  0
    5.7436   -0.6331   -0.1330 H   0  0  0  0  0  0  0  0  0  0  0  0
    6.2205   -2.2228    0.4360 H   0  0  0  0  0  0  0  0  0  0  0  0
   -1.4033    0.9515    1.6025 C   0  0  0  0  0  0  0  0  0  0  0  0
   -2.3104    1.6005    1.1000 O   0  0  0  0  0  0  0  0  0  0  0  0
   -0.5959    1.5352    2.5632 N   0  0  0  0  0  0  0  0  0  0  0  0
    0.0283    0.9232    3.0804 H   0  0  0  0  0  0  0  0  0  0  0  0
   -0.8603    2.8667    3.1018 C   0  0  0  0  0  0  0  0  0  0  0  0
   -1.8388    2.8944    3.5933 H   0  0  0  0  0  0  0  0  0  0  0  0
   -0.0965    3.1388    3.8367 H   0  0  0  0  0  0  0  0  0  0  0  0
   -0.8489    3.6153    2.3021 H   0  0  0  0  0  0  0  0  0  0  0  0
  1  2  1  0  0  0  0
  2  3  1  0  0  0  0
  2  4  1  0  0  0  0
  2  5  1  0  0  0  0
  5  6  2  0  0  0  0
  5  7  1  0  0  0  0
  7  8  1  0  0  0  0
  7  9  1  0  0  0  0
  9 10  1  0  0  0  0
  9 11  1  0  0  0  0
  9 29  1  0  0  0  0
 11 12  1  0  0  0  0
 11 13  1  0  0  0  0
 11 14  1  0  0  0  0
 14 15  1  0  0  0  0
 14 16  1  0  0  0  0
 14 17  1  0  0  0  0
 17 18  1  0  0  0  0
 17 19  1  0  0  0  0
 17 20  1  0  0  0  0
 20 21  1  0  0  0  0
 20 22  2  0  0  0  0
 22 23  1  0  0  0  0
 22 26  1  0  0  0  0
 23 24  1  0  0  0  0
 23 25  1  0  0  0  0
 26 27  1  0  0  0  0
 26 28  1  0  0  0  0
 29 30  2  0  0  0  0
 29 31  1  0  0  0  0
 31 32  1  0  0  0  0
 31 33  1  0  0  0  0
 33 34  1  0  0  0  0
 33 35  1  0  0  0  0
 33 36  1  0  0  0  0
M  CHG  1  20   1
M  END
$$$$

  -OEChem-03222214013D

 36 35  0     1  0  0  0  0  0999 V2000
   -3.9416   -4.1360    2.0221 H   0  0  0  0  0  0  0  0  0  0  0  0
   -3.9926   -3.1276    1.6018 C   0  0  0  0  0  0  0  0  0  0  0  0
   -4.6318   -2.5128    2.2403 H   0  0  0  0  0  0  0  0  0  0  0  0
   -4.4330   -3.1835    0.6035 H   0  0  0  0  0  0  0  0  0  0  0  0
   -2.6043   -2.5228    1.5223 C   0  0  0  0  0  0  0  0  0  0  0  0
   -1.6254   -3.1751    1.8582 O   0  0  0  0  0  0  0  0  0  0  0  0
   -2.4328   -1.2390    1.0449 N   0  0  0  0  0  0  0  0  0  0  0  0
   -3.2729   -0.6983    0.8373 H   0  0  0  0  0  0  0  0  0  0  0  0
   -1.1652   -0.5032    1.1270 C   0  0  1  0  0  0  0  0  0  0  0  0
   -0.5023   -0.9813    1.8549 H   0  0  0  0  0  0  0  0  0  0  0  0
   -0.5178   -0.5630   -0.2681 C   0  0  0  0  0  0  0  0  0  0  0  0
   -0.6288   -1.5711   -0.6837 H   0  0  0  0  0  0  0  0  0  0  0  0
   -1.0642    0.1146   -0.9345 H   0  0  0  0  0  0  0  0  0  0  0  0
    0.9671   -0.1624   -0.2516 C   0  0  0  0  0  0  0  0  0  0  0  0
    1.1638    0.5035   -1.0994 H   0  0  0  0  0  0  0  0  0  0  0  0
    1.2214    0.3821    0.6635 H   0  0  0  0  0  0  0  0  0  0  0  0
    1.8253   -1.4203   -0.3894 C   0  0  0  0  0  0  0  0  0  0  0  0
    1.5939   -2.0959    0.4421 H   0  0  0  0  0  0  0  0  0  0  0  0
    1.5673   -1.9266   -1.3264 H   0  0  0  0  0  0  0  0  0  0  0  0
    3.2598   -1.0826   -0.3812 N   0  3  0  0  0  0  0  0  0  0  0  0
    3.5081   -0.0943   -0.3764 H   0  0  0  0  0  0  0  0  0  0  0  0
    4.2027   -1.9808   -0.3999 C   0  0  0  0  0  0  0  0  0  0  0  0
    3.9190   -3.3281   -0.4030 N   0  0  0  0  0  0  0  0  0  0  0  0
    2.9557   -3.6140   -0.2356 H   0  0  0  0  0  0  0  0  0  0  0  0
    4.6611   -3.9882   -0.1795 H   0  0  0  0  0  0  0  0  0  0  0  0
    5.5193   -1.5858   -0.4154 N   0  0  0  0  0  0  0  0  0  0  0  0
    5.7345   -0.6085   -0.6034 H   0  0  0  0  0  0  0  0  0  0  0  0
    6.2305   -2.2807   -0.6367 H   0  0  0  0  0  0  0  0  0  0  0  0
   -1.4077    0.9442    1.6023 C   0  0  0  0  0  0  0  0  0  0  0  0
   -2.3050    1.6017    1.0929 O   0  0  0  0  0  0  0  0  0  0  0  0
   -0.6044    1.5182    2.5720 N   0  0  0  0  0  0  0  0  0  0  0  0
    0.0056    0.8974    3.0959 H   0  0  0  0  0  0  0  0  0  0  0  0
   -0.8605    2.8509    3.1115 C   0  0  0  0  0  0  0  0  0  0  0  0
   -1.8395    2.8858    3.6016 H   0  0  0  0  0  0  0  0  0  0  0  0
   -0.0957    3.1169    3.8476 H   0  0  0  0  0  0  0  0  0  0  0  0
   -0.8421    3.5998    2.3123 H   0  0  0  0  0  0  0  0  0  0  0  0
  1  2  1  0  0  0  0
  2  3  1  0  0  0  0
  2  4  1  0  0  0  0
  2  5  1  0  0  0  0
  5  6  2  0  0  0  0
  5  7  1  0  0  0  0
  7  8  1  0  0  0  0
  7  9  1  0  0  0  0
  9 10  1  0  0  0  0
  9 11  1  0  0  0  0
  9 29  1  0  0  0  0
 11 12  1  0  0  0  0
 11 13  1  0  0  0  0
 11 14  1  0  0  0  0
 14 15  1  0  0  0  0
 14 16  1  0  0  0  0
 14 17  1  0  0  0  0
 17 18  1  0  0  0  0
 17 19  1  0  0  0  0
 17 20  1  0  0  0  0
 20 21  1  0  0  0  0
 20 22  2  0  0  0  0
 22 23  1  0  0  0  0
 22 26  1  0  0  0  0
 23 24  1  0  0  0  0
 23 25  1  0  0  0  0
 26 27  1  0  0  0  0
 26 28  1  0  0  0  0
 29 30  2  0  0  0  0
 29 31  1  0  0  0  0
 31 32  1  0  0  0  0
 31 33  1  0  0  0  0
 33 34  1  0  0  0  0
 33 35  1  0  0  0  0
 33 36  1  0  0  0  0
M  CHG  1  20   1
M  END
$$$$

  -OEChem-03222214013D

 36 35  0     1  0  0  0  0  0999 V2000
   -3.9499   -4.1666    1.9288 H   0  0  0  0  0  0  0  0  0  0  0  0
   -4.0062   -3.1359    1.5674 C   0  0  0  0  0  0  0  0  0  0  0  0
   -4.5997   -2.5486    2.2724 H   0  0  0  0  0  0  0  0  0  0  0  0
   -4.5009   -3.1305    0.5932 H   0  0  0  0  0  0  0  0  0  0  0  0
   -2.6136   -2.5475    1.4468 C   0  0  0  0  0  0  0  0  0  0  0  0
   -1.6306   -3.2271    1.7070 O   0  0  0  0  0  0  0  0  0  0  0  0
   -2.4455   -1.2448    1.0222 N   0  0  0  0  0  0  0  0  0  0  0  0
   -3.2876   -0.6875    0.8755 H   0  0  0  0  0  0  0  0  0  0  0  0
   -1.1670   -0.5245    1.0797 C   0  0  1  0  0  0  0  0  0  0  0  0
   -0.4811   -1.0459    1.7553 H   0  0  0  0  0  0  0  0  0  0  0  0
   -0.5786   -0.5211   -0.3420 C   0  0  0  0  0  0  0  0  0  0  0  0
   -0.7080   -1.5184   -0.7779 H   0  0  0  0  0  0  0  0  0  0  0  0
   -1.1502    0.1740   -0.9675 H   0  0  0  0  0  0  0  0  0  0  0  0
    0.9106   -0.1315   -0.3698 C   0  0  0  0  0  0  0  0  0  0  0  0
    1.0331    0.7721   -0.9771 H   0  0  0  0  0  0  0  0  0  0  0  0
    1.2746    0.0951    0.6378 H   0  0  0  0  0  0  0  0  0  0  0  0
    1.7300   -1.2756   -0.9663 C   0  0  0  0  0  0  0  0  0  0  0  0
    1.5668   -2.1738   -0.3610 H   0  0  0  0  0  0  0  0  0  0  0  0
    1.3763   -1.4797   -1.9834 H   0  0  0  0  0  0  0  0  0  0  0  0
    3.1626   -0.9270   -0.9946 N   0  3  0  0  0  0  0  0  0  0  0  0
    3.3981    0.0598   -1.0934 H   0  0  0  0  0  0  0  0  0  0  0  0
    4.1191   -1.8108   -0.9631 C   0  0  0  0  0  0  0  0  0  0  0  0
    3.8621   -3.1588   -0.8511 N   0  0  0  0  0  0  0  0  0  0  0  0
    2.9097   -3.4491   -0.6366 H   0  0  0  0  0  0  0  0  0  0  0  0
    4.6232   -3.7839   -0.5932 H   0  0  0  0  0  0  0  0  0  0  0  0
    5.4280   -1.3978   -1.0425 N   0  0  0  0  0  0  0  0  0  0  0  0
    5.6221   -0.4326   -1.3024 H   0  0  0  0  0  0  0  0  0  0  0  0
    6.1448   -2.0958   -1.2340 H   0  0  0  0  0  0  0  0  0  0  0  0
   -1.3597    0.9030    1.6299 C   0  0  0  0  0  0  0  0  0  0  0  0
   -2.2649    1.5996    1.1916 O   0  0  0  0  0  0  0  0  0  0  0  0
   -0.4994    1.4174    2.5837 N   0  0  0  0  0  0  0  0  0  0  0  0
    0.1265    0.7640    3.0457 H   0  0  0  0  0  0  0  0  0  0  0  0
   -0.6953    2.7317    3.1888 C   0  0  0  0  0  0  0  0  0  0  0  0
   -1.6479    2.7681    3.7286 H   0  0  0  0  0  0  0  0  0  0  0  0
    0.1117    2.9489    3.8954 H   0  0  0  0  0  0  0  0  0  0  0  0
   -0.6983    3.5124    2.4203 H   0  0  0  0  0  0  0  0  0  0  0  0
  1  2  1  0  0  0  0
  2  3  1  0  0  0  0
  2  4  1  0  0  0  0
  2  5  1  0  0  0  0
  5  6  2  0  0  0  0
  5  7  1  0  0  0  0
  7  8  1  0  0  0  0
  7  9  1  0  0  0  0
  9 10  1  0  0  0  0
  9 11  1  0  0  0  0
  9 29  1  0  0  0  0
 11 12  1  0  0  0  0
 11 13  1  0  0  0  0
 11 14  1  0  0  0  0
 14 15  1  0  0  0  0
 14 16  1  0  0  0  0
 14 17  1  0  0  0  0
 17 18  1  0  0  0  0
 17 19  1  0  0  0  0
 17 20  1  0  0  0  0
 20 21  1  0  0  0  0
 20 22  2  0  0  0  0
 22 23  1  0  0  0  0
 22 26  1  0  0  0  0
 23 24  1  0  0  0  0
 23 25  1  0  0  0  0
 26 27  1  0  0  0  0
 26 28  1  0  0  0  0
 29 30  2  0  0  0  0
 29 31  1  0  0  0  0
 31 32  1  0  0  0  0
 31 33  1  0  0  0  0
 33 34  1  0  0  0  0
 33 35  1  0  0  0  0
 33 36  1  0  0  0  0
M  CHG  1  20   1
M  END
$$$$

  -OEChem-03222214013D

 36 35  0     1  0  0  0  0  0999 V2000
   -4.0499   -4.1079    1.9802 H   0  0  0  0  0  0  0  0  0  0  0  0
   -4.0760   -3.0864    1.5904 C   0  0  0  0  0  0  0  0  0  0  0  0
   -4.6949   -2.4740    2.2509 H   0  0  0  0  0  0  0  0  0  0  0  0
   -4.5236   -3.1011    0.5937 H   0  0  0  0  0  0  0  0  0  0  0  0
   -2.6721   -2.5170    1.5211 C   0  0  0  0  0  0  0  0  0  0  0  0
   -1.7141   -3.1926    1.8667 O   0  0  0  0  0  0  0  0  0  0  0  0
   -2.4667   -1.2380    1.0444 N   0  0  0  0  0  0  0  0  0  0  0  0
   -3.2945   -0.6815    0.8305 H   0  0  0  0  0  0  0  0  0  0  0  0
   -1.1856   -0.5242    1.1293 C   0  0  1  0  0  0  0  0  0  0  0  0
   -0.5374   -1.0199    1.8596 H   0  0  0  0  0  0  0  0  0  0  0  0
   -0.5325   -0.5833   -0.2628 C   0  0  0  0  0  0  0  0  0  0  0  0
   -0.6376   -1.6084   -0.6360 H   0  0  0  0  0  0  0  0  0  0  0  0
   -1.0723    0.0685   -0.9593 H   0  0  0  0  0  0  0  0  0  0  0  0
    0.9588   -0.2044   -0.2433 C   0  0  0  0  0  0  0  0  0  0  0  0
    1.0781    0.8142   -0.6291 H   0  0  0  0  0  0  0  0  0  0  0  0
    1.3459   -0.2225    0.7811 H   0  0  0  0  0  0  0  0  0  0  0  0
    1.7557   -1.1984   -1.0873 C   0  0  0  0  0  0  0  0  0  0  0  0
    1.6340   -2.2006   -0.6609 H   0  0  0  0  0  0  0  0  0  0  0  0
    1.3524   -1.2043   -2.1065 H   0  0  0  0  0  0  0  0  0  0  0  0
    3.1820   -0.8263   -1.1128 N   0  3  0  0  0  0  0  0  0  0  0  0
    3.4410    0.0582   -0.6782 H   0  0  0  0  0  0  0  0  0  0  0  0
    4.1031   -1.5577   -1.6714 C   0  0  0  0  0  0  0  0  0  0  0  0
    3.8080   -2.7620   -2.2693 N   0  0  0  0  0  0  0  0  0  0  0  0
    2.8764   -3.1484   -2.1294 H   0  0  0  0  0  0  0  0  0  0  0  0
    4.5681   -3.4060   -2.4782 H   0  0  0  0  0  0  0  0  0  0  0  0
    5.4083   -1.1266   -1.6689 N   0  0  0  0  0  0  0  0  0  0  0  0
    5.6063   -0.1657   -1.3967 H   0  0  0  0  0  0  0  0  0  0  0  0
    6.0752   -1.5960   -2.2791 H   0  0  0  0  0  0  0  0  0  0  0  0
   -1.3903    0.9296    1.5998 C   0  0  0  0  0  0  0  0  0  0  0  0
   -2.2618    1.6120    1.0781 O   0  0  0  0  0  0  0  0  0  0  0  0
   -0.5730    1.4856    2.5682 N   0  0  0  0  0  0  0  0  0  0  0  0
    0.0203    0.8505    3.0947 H   0  0  0  0  0  0  0  0  0  0  0  0
   -0.7967    2.8251    3.1050 C   0  0  0  0  0  0  0  0  0  0  0  0
   -1.7714    2.8821    3.6015 H   0  0  0  0  0  0  0  0  0  0  0  0
   -0.0213    3.0763    3.8351 H   0  0  0  0  0  0  0  0  0  0  0  0
   -0.7681    3.5717    2.3041 H   0  0  0  0  0  0  0  0  0  0  0  0
  1  2  1  0  0  0  0
  2  3  1  0  0  0  0
  2  4  1  0  0  0  0
  2  5  1  0  0  0  0
  5  6  2  0  0  0  0
  5  7  1  0  0  0  0
  7  8  1  0  0  0  0
  7  9  1  0  0  0  0
  9 10  1  0  0  0  0
  9 11  1  0  0  0  0
  9 29  1  0  0  0  0
 11 12  1  0  0  0  0
 11 13  1  0  0  0  0
 11 14  1  0  0  0  0
 14 15  1  0  0  0  0
 14 16  1  0  0  0  0
 14 17  1  0  0  0  0
 17 18  1  0  0  0  0
 17 19  1  0  0  0  0
 17 20  1  0  0  0  0
 20 21  1  0  0  0  0
 20 22  2  0  0  0  0
 22 23  1  0  0  0  0
 22 26  1  0  0  0  0
 23 24  1  0  0  0  0
 23 25  1  0  0  0  0
 26 27  1  0  0  0  0
 26 28  1  0  0  0  0
 29 30  2  0  0  0  0
 29 31  1  0  0  0  0
 31 32  1  0  0  0  0
 31 33  1  0  0  0  0
 33 34  1  0  0  0  0
 33 35  1  0  0  0  0
 33 36  1  0  0  0  0
M  CHG  1  20   1
M  END
$$$$

  -OEChem-03222214013D

 36 35  0     1  0  0  0  0  0999 V2000
   -4.0407   -4.1057    2.0530 H   0  0  0  0  0  0  0  0  0  0  0  0
   -4.0683   -3.1015    1.6206 C   0  0  0  0  0  0  0  0  0  0  0  0
   -4.7051   -2.4689    2.2438 H   0  0  0  0  0  0  0  0  0  0  0  0
   -4.4970   -3.1619    0.6175 H   0  0  0  0  0  0  0  0  0  0  0  0
   -2.6681   -2.5219    1.5529 C   0  0  0  0  0  0  0  0  0  0  0  0
   -1.7079   -3.1871    1.9112 O   0  0  0  0  0  0  0  0  0  0  0  0
   -2.4692   -1.2461    1.0647 N   0  0  0  0  0  0  0  0  0  0  0  0
   -3.2996   -0.6961    0.8444 H   0  0  0  0  0  0  0  0  0  0  0  0
   -1.1889   -0.5285    1.1302 C   0  0  1  0  0  0  0  0  0  0  0  0
   -0.5324   -1.0169    1.8578 H   0  0  0  0  0  0  0  0  0  0  0  0
   -0.5504   -0.5958   -0.2684 C   0  0  0  0  0  0  0  0  0  0  0  0
   -0.6438   -1.6282   -0.6244 H   0  0  0  0  0  0  0  0  0  0  0  0
   -1.1001    0.0418   -0.9698 H   0  0  0  0  0  0  0  0  0  0  0  0
    0.9368   -0.2117   -0.2602 C   0  0  0  0  0  0  0  0  0  0  0  0
    1.0335    0.8728   -0.3838 H   0  0  0  0  0  0  0  0  0  0  0  0
    1.3912   -0.4870    0.6976 H   0  0  0  0  0  0  0  0  0  0  0  0
    1.6685   -0.9567   -1.3762 C   0  0  0  0  0  0  0  0  0  0  0  0
    1.5917   -2.0349   -1.1944 H   0  0  0  0  0  0  0  0  0  0  0  0
    1.1836   -0.7307   -2.3327 H   0  0  0  0  0  0  0  0  0  0  0  0
    3.0846   -0.5486   -1.4219 N   0  3  0  0  0  0  0  0  0  0  0  0
    3.3571    0.2506   -0.8514 H   0  0  0  0  0  0  0  0  0  0  0  0
    3.9744   -1.1274   -2.1761 C   0  0  0  0  0  0  0  0  0  0  0  0
    3.6519   -2.1844   -2.9971 N   0  0  0  0  0  0  0  0  0  0  0  0
    2.6666   -2.4078   -3.1238 H   0  0  0  0  0  0  0  0  0  0  0  0
    4.3027   -2.4499   -3.7335 H   0  0  0  0  0  0  0  0  0  0  0  0
    5.2729   -0.6762   -2.1633 N   0  0  0  0  0  0  0  0  0  0  0  0
    5.5586   -0.0238   -1.4357 H   0  0  0  0  0  0  0  0  0  0  0  0
    5.9920   -1.2544   -2.5945 H   0  0  0  0  0  0  0  0  0  0  0  0
   -1.3863    0.9289    1.5913 C   0  0  0  0  0  0  0  0  0  0  0  0
   -2.2562    1.6124    1.0683 O   0  0  0  0  0  0  0  0  0  0  0  0
   -0.5554    1.4892    2.5454 N   0  0  0  0  0  0  0  0  0  0  0  0
    0.0383    0.8542    3.0719 H   0  0  0  0  0  0  0  0  0  0  0  0
   -0.7664    2.8337    3.0746 C   0  0  0  0  0  0  0  0  0  0  0  0
   -1.7378    2.9008    3.5765 H   0  0  0  0  0  0  0  0  0  0  0  0
    0.0151    3.0847    3.7986 H   0  0  0  0  0  0  0  0  0  0  0  0
   -0.7375    3.5745    2.2682 H   0  0  0  0  0  0  0  0  0  0  0  0
  1  2  1  0  0  0  0
  2  3  1  0  0  0  0
  2  4  1  0  0  0  0
  2  5  1  0  0  0  0
  5  6  2  0  0  0  0
  5  7  1  0  0  0  0
  7  8  1  0  0  0  0
  7  9  1  0  0  0  0
  9 10  1  0  0  0  0
  9 11  1  0  0  0  0
  9 29  1  0  0  0  0
 11 12  1  0  0  0  0
 11 13  1  0  0  0  0
 11 14  1  0  0  0  0
 14 15  1  0  0  0  0
 14 16  1  0  0  0  0
 14 17  1  0  0  0  0
 17 18  1  0  0  0  0
 17 19  1  0  0  0  0
 17 20  1  0  0  0  0
 20 21  1  0  0  0  0
 20 22  2  0  0  0  0
 22 23  1  0  0  0  0
 22 26  1  0  0  0  0
 23 24  1  0  0  0  0
 23 25  1  0  0  0  0
 26 27  1  0  0  0  0
 26 28  1  0  0  0  0
 29 30  2  0  0  0  0
 29 31  1  0  0  0  0
 31 32  1  0  0  0  0
 31 33  1  0  0  0  0
 33 34  1  0  0  0  0
 33 35  1  0  0  0  0
 33 36  1  0  0  0  0
M  CHG  1  20   1
M  END
$$$$

  -OEChem-03222214013D

 36 35  0     1  0  0  0  0  0999 V2000
   -4.0449   -4.1034    2.0650 H   0  0  0  0  0  0  0  0  0  0  0  0
   -4.0675   -3.1097    1.6087 C   0  0  0  0  0  0  0  0  0  0  0  0
   -4.7217   -2.4661    2.2017 H   0  0  0  0  0  0  0  0  0  0  0  0
   -4.4718   -3.1956    0.5974 H   0  0  0  0  0  0  0  0  0  0  0  0
   -2.6693   -2.5245    1.5607 C   0  0  0  0  0  0  0  0  0  0  0  0
   -1.7123   -3.1831    1.9380 O   0  0  0  0  0  0  0  0  0  0  0  0
   -2.4693   -1.2502    1.0690 N   0  0  0  0  0  0  0  0  0  0  0  0
   -3.2985   -0.7050    0.8342 H   0  0  0  0  0  0  0  0  0  0  0  0
   -1.1901   -0.5311    1.1325 C   0  0  1  0  0  0  0  0  0  0  0  0
   -0.5314   -1.0165    1.8604 H   0  0  0  0  0  0  0  0  0  0  0  0
   -0.5523   -0.6025   -0.2655 C   0  0  0  0  0  0  0  0  0  0  0  0
   -0.6390   -1.6338   -0.6263 H   0  0  0  0  0  0  0  0  0  0  0  0
   -1.1026    0.0383   -0.9639 H   0  0  0  0  0  0  0  0  0  0  0  0
    0.9316   -0.2163   -0.2504 C   0  0  0  0  0  0  0  0  0  0  0  0
    1.0289    0.8672   -0.1185 H   0  0  0  0  0  0  0  0  0  0  0  0
    1.4375   -0.7120    0.5855 H   0  0  0  0  0  0  0  0  0  0  0  0
    1.5784   -0.6587   -1.5614 C   0  0  0  0  0  0  0  0  0  0  0  0
    1.5002   -1.7487   -1.6458 H   0  0  0  0  0  0  0  0  0  0  0  0
    1.0332   -0.2059   -2.3974 H   0  0  0  0  0  0  0  0  0  0  0  0
    2.9933   -0.2459   -1.6004 N   0  3  0  0  0  0  0  0  0  0  0  0
    3.3205    0.3649   -0.8532 H   0  0  0  0  0  0  0  0  0  0  0  0
    3.8154   -0.5916   -2.5492 C   0  0  0  0  0  0  0  0  0  0  0  0
    3.4159   -1.3850   -3.6007 N   0  0  0  0  0  0  0  0  0  0  0  0
    2.4198   -1.5660   -3.7087 H   0  0  0  0  0  0  0  0  0  0  0  0
    4.0049   -1.4335   -4.4297 H   0  0  0  0  0  0  0  0  0  0  0  0
    5.1182   -0.1548   -2.5130 N   0  0  0  0  0  0  0  0  0  0  0  0
    5.4662    0.2803   -1.6608 H   0  0  0  0  0  0  0  0  0  0  0  0
    5.7947   -0.5920   -3.1365 H   0  0  0  0  0  0  0  0  0  0  0  0
   -1.3858    0.9278    1.5886 C   0  0  0  0  0  0  0  0  0  0  0  0
   -2.2454    1.6155    1.0540 O   0  0  0  0  0  0  0  0  0  0  0  0
   -0.5522    1.4872    2.5407 N   0  0  0  0  0  0  0  0  0  0  0  0
    0.0334    0.8498    3.0736 H   0  0  0  0  0  0  0  0  0  0  0  0
   -0.7449    2.8402    3.0540 C   0  0  0  0  0  0  0  0  0  0  0  0
   -1.7087    2.9219    3.5681 H   0  0  0  0  0  0  0  0  0  0  0  0
    0.0493    3.0945    3.7630 H   0  0  0  0  0  0  0  0  0  0  0  0
   -0.7212    3.5693    2.2368 H   0  0  0  0  0  0  0  0  0  0  0  0
  1  2  1  0  0  0  0
  2  3  1  0  0  0  0
  2  4  1  0  0  0  0
  2  5  1  0  0  0  0
  5  6  2  0  0  0  0
  5  7  1  0  0  0  0
  7  8  1  0  0  0  0
  7  9  1  0  0  0  0
  9 10  1  0  0  0  0
  9 11  1  0  0  0  0
  9 29  1  0  0  0  0
 11 12  1  0  0  0  0
 11 13  1  0  0  0  0
 11 14  1  0  0  0  0
 14 15  1  0  0  0  0
 14 16  1  0  0  0  0
 14 17  1  0  0  0  0
 17 18  1  0  0  0  0
 17 19  1  0  0  0  0
 17 20  1  0  0  0  0
 20 21  1  0  0  0  0
 20 22  2  0  0  0  0
 22 23  1  0  0  0  0
 22 26  1  0  0  0  0
 23 24  1  0  0  0  0
 23 25  1  0  0  0  0
 26 27  1  0  0  0  0
 26 28  1  0  0  0  0
 29 30  2  0  0  0  0
 29 31  1  0  0  0  0
 31 32  1  0  0  0  0
 31 33  1  0  0  0  0
 33 34  1  0  0  0  0
 33 35  1  0  0  0  0
 33 36  1  0  0  0  0
M  CHG  1  20   1
M  END
$$$$

  -OEChem-03222214013D

 36 35  0     1  0  0  0  0  0999 V2000
   -4.0286   -4.1094    2.0927 H   0  0  0  0  0  0  0  0  0  0  0  0
   -4.0614   -3.1148    1.6390 C   0  0  0  0  0  0  0  0  0  0  0  0
   -4.7004   -2.4719    2.2494 H   0  0  0  0  0  0  0  0  0  0  0  0
   -4.4906   -3.1981    0.6376 H   0  0  0  0  0  0  0  0  0  0  0  0
   -2.6642   -2.5306    1.5574 C   0  0  0  0  0  0  0  0  0  0  0  0
   -1.6975   -3.1905    1.9074 O   0  0  0  0  0  0  0  0  0  0  0  0
   -2.4774   -1.2540    1.0667 N   0  0  0  0  0  0  0  0  0  0  0  0
   -3.3132   -0.7088    0.8557 H   0  0  0  0  0  0  0  0  0  0  0  0
   -1.2001   -0.5296    1.1133 C   0  0  1  0  0  0  0  0  0  0  0  0
   -0.5383   -1.0152    1.8382 H   0  0  0  0  0  0  0  0  0  0  0  0
   -0.5631   -0.5979   -0.2874 C   0  0  0  0  0  0  0  0  0  0  0  0
   -0.8615   -1.5343   -0.7725 H   0  0  0  0  0  0  0  0  0  0  0  0
   -0.9380    0.2250   -0.9065 H   0  0  0  0  0  0  0  0  0  0  0  0
    0.9671   -0.5647   -0.2224 C   0  0  0  0  0  0  0  0  0  0  0  0
    1.2962    0.3595    0.2648 H   0  0  0  0  0  0  0  0  0  0  0  0
    1.3306   -1.4143    0.3669 H   0  0  0  0  0  0  0  0  0  0  0  0
    1.5282   -0.6356   -1.6407 C   0  0  0  0  0  0  0  0  0  0  0  0
    1.1930   -1.5685   -2.1078 H   0  0  0  0  0  0  0  0  0  0  0  0
    1.1333    0.2054   -2.2218 H   0  0  0  0  0  0  0  0  0  0  0  0
    3.0014   -0.5833   -1.6137 N   0  3  0  0  0  0  0  0  0  0  0  0
    3.4449   -0.4078   -0.7132 H   0  0  0  0  0  0  0  0  0  0  0  0
    3.7443   -0.7321   -2.6727 C   0  0  0  0  0  0  0  0  0  0  0  0
    3.1968   -0.9487   -3.9169 N   0  0  0  0  0  0  0  0  0  0  0  0
    2.1913   -0.8291   -4.0229 H   0  0  0  0  0  0  0  0  0  0  0  0
    3.7843   -0.8299   -4.7397 H   0  0  0  0  0  0  0  0  0  0  0  0
    5.1128   -0.6696   -2.5581 N   0  0  0  0  0  0  0  0  0  0  0  0
    5.5289   -0.6823   -1.6289 H   0  0  0  0  0  0  0  0  0  0  0  0
    5.6808   -0.9917   -3.3399 H   0  0  0  0  0  0  0  0  0  0  0  0
   -1.3910    0.9277    1.5765 C   0  0  0  0  0  0  0  0  0  0  0  0
   -2.2739    1.6088    1.0721 O   0  0  0  0  0  0  0  0  0  0  0  0
   -0.5443    1.4874    2.5165 N   0  0  0  0  0  0  0  0  0  0  0  0
    0.0652    0.8544    3.0272 H   0  0  0  0  0  0  0  0  0  0  0  0
   -0.7411    2.8337    3.0456 C   0  0  0  0  0  0  0  0  0  0  0  0
   -1.7017    2.9045    3.5672 H   0  0  0  0  0  0  0  0  0  0  0  0
    0.0559    3.0847    3.7524 H   0  0  0  0  0  0  0  0  0  0  0  0
   -0.7269    3.5717    2.2362 H   0  0  0  0  0  0  0  0  0  0  0  0
  1  2  1  0  0  0  0
  2  3  1  0  0  0  0
  2  4  1  0  0  0  0
  2  5  1  0  0  0  0
  5  6  2  0  0  0  0
  5  7  1  0  0  0  0
  7  8  1  0  0  0  0
  7  9  1  0  0  0  0
  9 10  1  0  0  0  0
  9 11  1  0  0  0  0
  9 29  1  0  0  0  0
 11 12  1  0  0  0  0
 11 13  1  0  0  0  0
 11 14  1  0  0  0  0
 14 15  1  0  0  0  0
 14 16  1  0  0  0  0
 14 17  1  0  0  0  0
 17 18  1  0  0  0  0
 17 19  1  0  0  0  0
 17 20  1  0  0  0  0
 20 21  1  0  0  0  0
 20 22  2  0  0  0  0
 22 23  1  0  0  0  0
 22 26  1  0  0  0  0
 23 24  1  0  0  0  0
 23 25  1  0  0  0  0
 26 27  1  0  0  0  0
 26 28  1  0  0  0  0
 29 30  2  0  0  0  0
 29 31  1  0  0  0  0
 31 32  1  0  0  0  0
 31 33  1  0  0  0  0
 33 34  1  0  0  0  0
 33 35  1  0  0  0  0
 33 36  1  0  0  0  0
M  CHG  1  20   1
M  END
$$$$

  -OEChem-03222214013D

 36 35  0     1  0  0  0  0  0999 V2000
   -3.9823   -4.1422    2.0779 H   0  0  0  0  0  0  0  0  0  0  0  0
   -4.0348   -3.1356    1.6537 C   0  0  0  0  0  0  0  0  0  0  0  0
   -4.6680   -2.5177    2.2948 H   0  0  0  0  0  0  0  0  0  0  0  0
   -4.4833   -3.1963    0.6593 H   0  0  0  0  0  0  0  0  0  0  0  0
   -2.6455   -2.5339    1.5617 C   0  0  0  0  0  0  0  0  0  0  0  0
   -1.6699   -3.1815    1.9101 O   0  0  0  0  0  0  0  0  0  0  0  0
   -2.4752   -1.2547    1.0705 N   0  0  0  0  0  0  0  0  0  0  0  0
   -3.3177   -0.7181    0.8638 H   0  0  0  0  0  0  0  0  0  0  0  0
   -1.2032   -0.5199    1.1103 C   0  0  1  0  0  0  0  0  0  0  0  0
   -0.5319   -1.0001    1.8302 H   0  0  0  0  0  0  0  0  0  0  0  0
   -0.5733   -0.5863   -0.2949 C   0  0  0  0  0  0  0  0  0  0  0  0
   -0.8699   -1.5172   -0.7913 H   0  0  0  0  0  0  0  0  0  0  0  0
   -0.9579    0.2417   -0.9012 H   0  0  0  0  0  0  0  0  0  0  0  0
    0.9581   -0.5417   -0.2378 C   0  0  0  0  0  0  0  0  0  0  0  0
    1.2817    0.2430    0.4545 H   0  0  0  0  0  0  0  0  0  0  0  0
    1.3380   -1.5022    0.1288 H   0  0  0  0  0  0  0  0  0  0  0  0
    1.5114   -0.2387   -1.6288 C   0  0  0  0  0  0  0  0  0  0  0  0
    1.1611   -1.0076   -2.3268 H   0  0  0  0  0  0  0  0  0  0  0  0
    1.1282    0.7325   -1.9615 H   0  0  0  0  0  0  0  0  0  0  0  0
    2.9856   -0.2204   -1.5954 N   0  3  0  0  0  0  0  0  0  0  0  0
    3.4308   -0.3293   -0.6853 H   0  0  0  0  0  0  0  0  0  0  0  0
    3.7287   -0.0816   -2.6556 C   0  0  0  0  0  0  0  0  0  0  0  0
    3.1828    0.0866   -3.9080 N   0  0  0  0  0  0  0  0  0  0  0  0
    2.1837    0.2717   -3.9716 H   0  0  0  0  0  0  0  0  0  0  0  0
    3.7805    0.4151   -4.6638 H   0  0  0  0  0  0  0  0  0  0  0  0
    5.0977   -0.0996   -2.5314 N   0  0  0  0  0  0  0  0  0  0  0  0
    5.5058   -0.4042   -1.6498 H   0  0  0  0  0  0  0  0  0  0  0  0
    5.6610   -0.1926   -3.3748 H   0  0  0  0  0  0  0  0  0  0  0  0
   -1.4058    0.9352    1.5771 C   0  0  0  0  0  0  0  0  0  0  0  0
   -2.2913    1.6127    1.0722 O   0  0  0  0  0  0  0  0  0  0  0  0
   -0.5589    1.5007    2.5137 N   0  0  0  0  0  0  0  0  0  0  0  0
    0.0483    0.8690    3.0287 H   0  0  0  0  0  0  0  0  0  0  0  0
   -0.7646    2.8451    3.0444 C   0  0  0  0  0  0  0  0  0  0  0  0
   -1.7277    2.9104    3.5620 H   0  0  0  0  0  0  0  0  0  0  0  0
    0.0282    3.0992    3.7549 H   0  0  0  0  0  0  0  0  0  0  0  0
   -0.7511    3.5841    2.2362 H   0  0  0  0  0  0  0  0  0  0  0  0
  1  2  1  0  0  0  0
  2  3  1  0  0  0  0
  2  4  1  0  0  0  0
  2  5  1  0  0  0  0
  5  6  2  0  0  0  0
  5  7  1  0  0  0  0
  7  8  1  0  0  0  0
  7  9  1  0  0  0  0
  9 10  1  0  0  0  0
  9 11  1  0  0  0  0
  9 29  1  0  0  0  0
 11 12  1  0  0  0  0
 11 13  1  0  0  0  0
 11 14  1  0  0  0  0
 14 15  1  0  0  0  0
 14 16  1  0  0  0  0
 14 17  1  0  0  0  0
 17 18  1  0  0  0  0
 17 19  1  0  0  0  0
 17 20  1  0  0  0  0
 20 21  1  0  0  0  0
 20 22  2  0  0  0  0
 22 23  1  0  0  0  0
 22 26  1  0  0  0  0
 23 24  1  0  0  0  0
 23 25  1  0  0  0  0
 26 27  1  0  0  0  0
 26 28  1  0  0  0  0
 29 30  2  0  0  0  0
 29 31  1  0  0  0  0
 31 32  1  0  0  0  0
 31 33  1  0  0  0  0
 33 34  1  0  0  0  0
 33 35  1  0  0  0  0
 33 36  1  0  0  0  0
M  CHG  1  20   1
M  END
$$$$

  -OEChem-03222214013D

 36 35  0     1  0  0  0  0  0999 V2000
   -3.9756   -4.1508    2.0681 H   0  0  0  0  0  0  0  0  0  0  0  0
   -4.0306   -3.1428    1.6476 C   0  0  0  0  0  0  0  0  0  0  0  0
   -4.6702   -2.5299    2.2873 H   0  0  0  0  0  0  0  0  0  0  0  0
   -4.4734   -3.2011    0.6506 H   0  0  0  0  0  0  0  0  0  0  0  0
   -2.6436   -2.5349    1.5659 C   0  0  0  0  0  0  0  0  0  0  0  0
   -1.6689   -3.1751    1.9299 O   0  0  0  0  0  0  0  0  0  0  0  0
   -2.4755   -1.2567    1.0713 N   0  0  0  0  0  0  0  0  0  0  0  0
   -3.3181   -0.7274    0.8486 H   0  0  0  0  0  0  0  0  0  0  0  0
   -1.2069   -0.5166    1.1157 C   0  0  1  0  0  0  0  0  0  0  0  0
   -0.5379   -0.9944    1.8391 H   0  0  0  0  0  0  0  0  0  0  0  0
   -0.5715   -0.5858   -0.2873 C   0  0  0  0  0  0  0  0  0  0  0  0
   -0.8630   -1.5176   -0.7853 H   0  0  0  0  0  0  0  0  0  0  0  0
   -0.9638    0.2388   -0.8936 H   0  0  0  0  0  0  0  0  0  0  0  0
    0.9620   -0.5354   -0.2315 C   0  0  0  0  0  0  0  0  0  0  0  0
    1.2862    0.0567    0.6308 H   0  0  0  0  0  0  0  0  0  0  0  0
    1.3552   -1.5517   -0.1137 H   0  0  0  0  0  0  0  0  0  0  0  0
    1.5044    0.1183   -1.5014 C   0  0  0  0  0  0  0  0  0  0  0  0
    1.1437   -0.4412   -2.3720 H   0  0  0  0  0  0  0  0  0  0  0  0
    1.1234    1.1438   -1.5656 H   0  0  0  0  0  0  0  0  0  0  0  0
    2.9788    0.1241   -1.4809 N   0  3  0  0  0  0  0  0  0  0  0  0
    3.4338   -0.2353   -0.6428 H   0  0  0  0  0  0  0  0  0  0  0  0
    3.7097    0.5537   -2.4692 C   0  0  0  0  0  0  0  0  0  0  0  0
    3.1486    1.0663   -3.6170 N   0  0  0  0  0  0  0  0  0  0  0  0
    2.1481    1.2552   -3.6156 H   0  0  0  0  0  0  0  0  0  0  0  0
    3.7364    1.5996   -4.2548 H   0  0  0  0  0  0  0  0  0  0  0  0
    5.0801    0.5012   -2.3740 N   0  0  0  0  0  0  0  0  0  0  0  0
    5.4978   -0.0415   -1.6205 H   0  0  0  0  0  0  0  0  0  0  0  0
    5.6302    0.6435   -3.2194 H   0  0  0  0  0  0  0  0  0  0  0  0
   -1.4125    0.9401    1.5759 C   0  0  0  0  0  0  0  0  0  0  0  0
   -2.2859    1.6204    1.0541 O   0  0  0  0  0  0  0  0  0  0  0  0
   -0.5697    1.5086    2.5145 N   0  0  0  0  0  0  0  0  0  0  0  0
    0.0242    0.8752    3.0433 H   0  0  0  0  0  0  0  0  0  0  0  0
   -0.7768    2.8557    3.0380 C   0  0  0  0  0  0  0  0  0  0  0  0
   -1.7425    2.9246    3.5504 H   0  0  0  0  0  0  0  0  0  0  0  0
    0.0127    3.1115    3.7515 H   0  0  0  0  0  0  0  0  0  0  0  0
   -0.7576    3.5916    2.2270 H   0  0  0  0  0  0  0  0  0  0  0  0
  1  2  1  0  0  0  0
  2  3  1  0  0  0  0
  2  4  1  0  0  0  0
  2  5  1  0  0  0  0
  5  6  2  0  0  0  0
  5  7  1  0  0  0  0
  7  8  1  0  0  0  0
  7  9  1  0  0  0  0
  9 10  1  0  0  0  0
  9 11  1  0  0  0  0
  9 29  1  0  0  0  0
 11 12  1  0  0  0  0
 11 13  1  0  0  0  0
 11 14  1  0  0  0  0
 14 15  1  0  0  0  0
 14 16  1  0  0  0  0
 14 17  1  0  0  0  0
 17 18  1  0  0  0  0
 17 19  1  0  0  0  0
 17 20  1  0  0  0  0
 20 21  1  0  0  0  0
 20 22  2  0  0  0  0
 22 23  1  0  0  0  0
 22 26  1  0  0  0  0
 23 24  1  0  0  0  0
 23 25  1  0  0  0  0
 26 27  1  0  0  0  0
 26 28  1  0  0  0  0
 29 30  2  0  0  0  0
 29 31  1  0  0  0  0
 31 32  1  0  0  0  0
 31 33  1  0  0  0  0
 33 34  1  0  0  0  0
 33 35  1  0  0  0  0
 33 36  1  0  0  0  0
M  CHG  1  20   1
M  END
$$$$

  -OEChem-03222214013D

 36 35  0     1  0  0  0  0  0999 V2000
   -3.9907   -4.1500    2.0531 H   0  0  0  0  0  0  0  0  0  0  0  0
   -4.0400   -3.1445    1.6256 C   0  0  0  0  0  0  0  0  0  0  0  0
   -4.6961   -2.5304    2.2472 H   0  0  0  0  0  0  0  0  0  0  0  0
   -4.4595   -3.2102    0.6190 H   0  0  0  0  0  0  0  0  0  0  0  0
   -2.6540   -2.5318    1.5718 C   0  0  0  0  0  0  0  0  0  0  0  0
   -1.6859   -3.1655    1.9631 O   0  0  0  0  0  0  0  0  0  0  0  0
   -2.4797   -1.2554    1.0743 N   0  0  0  0  0  0  0  0  0  0  0  0
   -3.3186   -0.7329    0.8234 H   0  0  0  0  0  0  0  0  0  0  0  0
   -1.2116   -0.5146    1.1266 C   0  0  1  0  0  0  0  0  0  0  0  0
   -0.5513   -0.9931    1.8575 H   0  0  0  0  0  0  0  0  0  0  0  0
   -0.5647   -0.5882   -0.2716 C   0  0  0  0  0  0  0  0  0  0  0  0
   -0.8498   -1.5274   -0.7591 H   0  0  0  0  0  0  0  0  0  0  0  0
   -0.9635    0.2223   -0.8924 H   0  0  0  0  0  0  0  0  0  0  0  0
    0.9717   -0.5368   -0.2168 C   0  0  0  0  0  0  0  0  0  0  0  0
    1.3085   -0.1915    0.7663 H   0  0  0  0  0  0  0  0  0  0  0  0
    1.3732   -1.5442   -0.3738 H   0  0  0  0  0  0  0  0  0  0  0  0
    1.4965    0.4253   -1.2814 C   0  0  0  0  0  0  0  0  0  0  0  0
    1.1303    0.1046   -2.2634 H   0  0  0  0  0  0  0  0  0  0  0  0
    1.1068    1.4290   -1.0768 H   0  0  0  0  0  0  0  0  0  0  0  0
    2.9706    0.4418   -1.2746 N   0  3  0  0  0  0  0  0  0  0  0  0
    3.4400   -0.1206   -0.5659 H   0  0  0  0  0  0  0  0  0  0  0  0
    3.6830    1.1261   -2.1230 C   0  0  0  0  0  0  0  0  0  0  0  0
    3.0996    1.9124   -3.0910 N   0  0  0  0  0  0  0  0  0  0  0  0
    2.0963    2.0762   -3.0327 H   0  0  0  0  0  0  0  0  0  0  0  0
    3.6716    2.6030   -3.5730 H   0  0  0  0  0  0  0  0  0  0  0  0
    5.0551    1.0717   -2.0587 N   0  0  0  0  0  0  0  0  0  0  0  0
    5.4903    0.3565   -1.4789 H   0  0  0  0  0  0  0  0  0  0  0  0
    5.5917    1.4422   -2.8411 H   0  0  0  0  0  0  0  0  0  0  0  0
   -1.4112    0.9451    1.5784 C   0  0  0  0  0  0  0  0  0  0  0  0
   -2.2628    1.6355    1.0346 O   0  0  0  0  0  0  0  0  0  0  0  0
   -0.5700    1.5110    2.5200 N   0  0  0  0  0  0  0  0  0  0  0  0
    0.0017    0.8718    3.0660 H   0  0  0  0  0  0  0  0  0  0  0  0
   -0.7678    2.8640    3.0318 C   0  0  0  0  0  0  0  0  0  0  0  0
   -1.7357    2.9453    3.5384 H   0  0  0  0  0  0  0  0  0  0  0  0
    0.0201    3.1185    3.7475 H   0  0  0  0  0  0  0  0  0  0  0  0
   -0.7379    3.5931    2.2149 H   0  0  0  0  0  0  0  0  0  0  0  0
  1  2  1  0  0  0  0
  2  3  1  0  0  0  0
  2  4  1  0  0  0  0
  2  5  1  0  0  0  0
  5  6  2  0  0  0  0
  5  7  1  0  0  0  0
  7  8  1  0  0  0  0
  7  9  1  0  0  0  0
  9 10  1  0  0  0  0
  9 11  1  0  0  0  0
  9 29  1  0  0  0  0
 11 12  1  0  0  0  0
 11 13  1  0  0  0  0
 11 14  1  0  0  0  0
 14 15  1  0  0  0  0
 14 16  1  0  0  0  0
 14 17  1  0  0  0  0
 17 18  1  0  0  0  0
 17 19  1  0  0  0  0
 17 20  1  0  0  0  0
 20 21  1  0  0  0  0
 20 22  2  0  0  0  0
 22 23  1  0  0  0  0
 22 26  1  0  0  0  0
 23 24  1  0  0  0  0
 23 25  1  0  0  0  0
 26 27  1  0  0  0  0
 26 28  1  0  0  0  0
 29 30  2  0  0  0  0
 29 31  1  0  0  0  0
 31 32  1  0  0  0  0
 31 33  1  0  0  0  0
 33 34  1  0  0  0  0
 33 35  1  0  0  0  0
 33 36  1  0  0  0  0
M  CHG  1  20   1
M  END
$$$$

  -OEChem-03222214013D

 36 35  0     1  0  0  0  0  0999 V2000
   -4.0172   -4.1356    2.0421 H   0  0  0  0  0  0  0  0  0  0  0  0
   -4.0563   -3.1298    1.6142 C   0  0  0  0  0  0  0  0  0  0  0  0
   -4.7221   -2.5141    2.2239 H   0  0  0  0  0  0  0  0  0  0  0  0
   -4.4576   -3.1942    0.6000 H   0  0  0  0  0  0  0  0  0  0  0  0
   -2.6679   -2.5205    1.5858 C   0  0  0  0  0  0  0  0  0  0  0  0
   -1.7102   -3.1517    2.0055 O   0  0  0  0  0  0  0  0  0  0  0  0
   -2.4805   -1.2495    1.0792 N   0  0  0  0  0  0  0  0  0  0  0  0
   -3.3120   -0.7308    0.7985 H   0  0  0  0  0  0  0  0  0  0  0  0
   -1.2088   -0.5150    1.1330 C   0  0  1  0  0  0  0  0  0  0  0  0
   -0.5581   -0.9931    1.8724 H   0  0  0  0  0  0  0  0  0  0  0  0
   -0.5563   -0.5995   -0.2619 C   0  0  0  0  0  0  0  0  0  0  0  0
   -0.8388   -1.5520   -0.7245 H   0  0  0  0  0  0  0  0  0  0  0  0
   -0.9580    0.1904   -0.9068 H   0  0  0  0  0  0  0  0  0  0  0  0
    0.9814   -0.5554   -0.2113 C   0  0  0  0  0  0  0  0  0  0  0  0
    1.3398   -0.4953    0.8215 H   0  0  0  0  0  0  0  0  0  0  0  0
    1.3804   -1.4782   -0.6470 H   0  0  0  0  0  0  0  0  0  0  0  0
    1.4844    0.6512   -1.0026 C   0  0  0  0  0  0  0  0  0  0  0  0
    1.1189    0.5775   -2.0331 H   0  0  0  0  0  0  0  0  0  0  0  0
    1.0763    1.5646   -0.5551 H   0  0  0  0  0  0  0  0  0  0  0  0
    2.9577    0.6963   -0.9935 N   0  3  0  0  0  0  0  0  0  0  0  0
    3.4434   -0.0248   -0.4617 H   0  0  0  0  0  0  0  0  0  0  0  0
    3.6491    1.5976   -1.6298 C   0  0  0  0  0  0  0  0  0  0  0  0
    3.0412    2.5987   -2.3534 N   0  0  0  0  0  0  0  0  0  0  0  0
    2.0339    2.7143   -2.2575 H   0  0  0  0  0  0  0  0  0  0  0  0
    3.5927    3.4062   -2.6364 H   0  0  0  0  0  0  0  0  0  0  0  0
    5.0221    1.5599   -1.5830 N   0  0  0  0  0  0  0  0  0  0  0  0
    5.4764    0.7292   -1.2088 H   0  0  0  0  0  0  0  0  0  0  0  0
    5.5455    2.1326   -2.2428 H   0  0  0  0  0  0  0  0  0  0  0  0
   -1.3945    0.9505    1.5701 C   0  0  0  0  0  0  0  0  0  0  0  0
   -2.2231    1.6521    1.0053 O   0  0  0  0  0  0  0  0  0  0  0  0
   -0.5501    1.5134    2.5107 N   0  0  0  0  0  0  0  0  0  0  0  0
    0.0001    0.8677    3.0713 H   0  0  0  0  0  0  0  0  0  0  0  0
   -0.7471    2.8665    3.0226 C   0  0  0  0  0  0  0  0  0  0  0  0
   -1.7210    2.9514    3.5170 H   0  0  0  0  0  0  0  0  0  0  0  0
    0.0327    3.1148    3.7492 H   0  0  0  0  0  0  0  0  0  0  0  0
   -0.7032    3.5977    2.2083 H   0  0  0  0  0  0  0  0  0  0  0  0
  1  2  1  0  0  0  0
  2  3  1  0  0  0  0
  2  4  1  0  0  0  0
  2  5  1  0  0  0  0
  5  6  2  0  0  0  0
  5  7  1  0  0  0  0
  7  8  1  0  0  0  0
  7  9  1  0  0  0  0
  9 10  1  0  0  0  0
  9 11  1  0  0  0  0
  9 29  1  0  0  0  0
 11 12  1  0  0  0  0
 11 13  1  0  0  0  0
 11 14  1  0  0  0  0
 14 15  1  0  0  0  0
 14 16  1  0  0  0  0
 14 17  1  0  0  0  0
 17 18  1  0  0  0  0
 17 19  1  0  0  0  0
 17 20  1  0  0  0  0
 20 21  1  0  0  0  0
 20 22  2  0  0  0  0
 22 23  1  0  0  0  0
 22 26  1  0  0  0  0
 23 24  1  0  0  0  0
 23 25  1  0  0  0  0
 26 27  1  0  0  0  0
 26 28  1  0  0  0  0
 29 30  2  0  0  0  0
 29 31  1  0  0  0  0
 31 32  1  0  0  0  0
 31 33  1  0  0  0  0
 33 34  1  0  0  0  0
 33 35  1  0  0  0  0
 33 36  1  0  0  0  0
M  CHG  1  20   1
M  END
$$$$

  -OEChem-03222214013D

 36 35  0     1  0  0  0  0  0999 V2000
   -4.0345   -4.1254    2.0341 H   0  0  0  0  0  0  0  0  0  0  0  0
   -4.0643   -3.1313    1.5793 C   0  0  0  0  0  0  0  0  0  0  0  0
   -4.7588   -2.5068    2.1463 H   0  0  0  0  0  0  0  0  0  0  0  0
   -4.4241   -3.2255    0.5520 H   0  0  0  0  0  0  0  0  0  0  0  0
   -2.6803   -2.5115    1.5894 C   0  0  0  0  0  0  0  0  0  0  0  0
   -1.7290   -3.1395    2.0279 O   0  0  0  0  0  0  0  0  0  0  0  0
   -2.4870   -1.2383    1.0899 N   0  0  0  0  0  0  0  0  0  0  0  0
   -3.3132   -0.7233    0.7875 H   0  0  0  0  0  0  0  0  0  0  0  0
   -1.2124   -0.5085    1.1490 C   0  0  1  0  0  0  0  0  0  0  0  0
   -0.5658   -0.9931    1.8873 H   0  0  0  0  0  0  0  0  0  0  0  0
   -0.5580   -0.5876   -0.2456 C   0  0  0  0  0  0  0  0  0  0  0  0
   -0.8358   -1.5479   -0.6950 H   0  0  0  0  0  0  0  0  0  0  0  0
   -0.9588    0.1913   -0.9042 H   0  0  0  0  0  0  0  0  0  0  0  0
    0.9782   -0.5490   -0.1945 C   0  0  0  0  0  0  0  0  0  0  0  0
    1.3525   -0.7892    0.8062 H   0  0  0  0  0  0  0  0  0  0  0  0
    1.3702   -1.3061   -0.8829 H   0  0  0  0  0  0  0  0  0  0  0  0
    1.4636    0.8298   -0.6405 C   0  0  0  0  0  0  0  0  0  0  0  0
    1.0502    1.0483   -1.6316 H   0  0  0  0  0  0  0  0  0  0  0  0
    1.0913    1.5834    0.0632 H   0  0  0  0  0  0  0  0  0  0  0  0
    2.9361    0.8659   -0.6909 N   0  3  0  0  0  0  0  0  0  0  0  0
    3.4317    0.0066   -0.4567 H   0  0  0  0  0  0  0  0  0  0  0  0
    3.6135    1.9150   -1.0593 C   0  0  0  0  0  0  0  0  0  0  0  0
    2.9916    3.0895   -1.4186 N   0  0  0  0  0  0  0  0  0  0  0  0
    1.9796    3.0781   -1.5324 H   0  0  0  0  0  0  0  0  0  0  0  0
    3.5239    3.7883   -1.9330 H   0  0  0  0  0  0  0  0  0  0  0  0
    4.9865    1.8574   -1.0994 N   0  0  0  0  0  0  0  0  0  0  0  0
    5.4585    1.0589   -0.6790 H   0  0  0  0  0  0  0  0  0  0  0  0
    5.5088    2.7267   -1.1946 H   0  0  0  0  0  0  0  0  0  0  0  0
   -1.3829    0.9566    1.5926 C   0  0  0  0  0  0  0  0  0  0  0  0
   -2.1861    1.6777    1.0163 O   0  0  0  0  0  0  0  0  0  0  0  0
   -0.5304    1.5038    2.5356 N   0  0  0  0  0  0  0  0  0  0  0  0
   -0.0034    0.8451    3.1037 H   0  0  0  0  0  0  0  0  0  0  0  0
   -0.7049    2.8598    3.0484 C   0  0  0  0  0  0  0  0  0  0  0  0
   -1.6636    2.9516    3.5705 H   0  0  0  0  0  0  0  0  0  0  0  0
    0.0972    3.1062    3.7510 H   0  0  0  0  0  0  0  0  0  0  0  0
   -0.6808    3.5885    2.2311 H   0  0  0  0  0  0  0  0  0  0  0  0
  1  2  1  0  0  0  0
  2  3  1  0  0  0  0
  2  4  1  0  0  0  0
  2  5  1  0  0  0  0
  5  6  2  0  0  0  0
  5  7  1  0  0  0  0
  7  8  1  0  0  0  0
  7  9  1  0  0  0  0
  9 10  1  0  0  0  0
  9 11  1  0  0  0  0
  9 29  1  0  0  0  0
 11 12  1  0  0  0  0
 11 13  1  0  0  0  0
 11 14  1  0  0  0  0
 14 15  1  0  0  0  0
 14 16  1  0  0  0  0
 14 17  1  0  0  0  0
 17 18  1  0  0  0  0
 17 19  1  0  0  0  0
 17 20  1  0  0  0  0
 20 21  1  0  0  0  0
 20 22  2  0  0  0  0
 22 23  1  0  0  0  0
 22 26  1  0  0  0  0
 23 24  1  0  0  0  0
 23 25  1  0  0  0  0
 26 27  1  0  0  0  0
 26 28  1  0  0  0  0
 29 30  2  0  0  0  0
 29 31  1  0  0  0  0
 31 32  1  0  0  0  0
 31 33  1  0  0  0  0
 33 34  1  0  0  0  0
 33 35  1  0  0  0  0
 33 36  1  0  0  0  0
M  CHG  1  20   1
M  END
$$$$

  -OEChem-03222214013D

 36 35  0     1  0  0  0  0  0999 V2000
   -4.0240   -4.1281    2.0207 H   0  0  0  0  0  0  0  0  0  0  0  0
   -4.0553   -3.1335    1.5672 C   0  0  0  0  0  0  0  0  0  0  0  0
   -4.7610   -2.5150    2.1268 H   0  0  0  0  0  0  0  0  0  0  0  0
   -4.4026   -3.2287    0.5357 H   0  0  0  0  0  0  0  0  0  0  0  0
   -2.6754   -2.5046    1.5944 C   0  0  0  0  0  0  0  0  0  0  0  0
   -1.7256   -3.1273    2.0435 O   0  0  0  0  0  0  0  0  0  0  0  0
   -2.4833   -1.2293    1.0992 N   0  0  0  0  0  0  0  0  0  0  0  0
   -3.3069   -0.7205    0.7800 H   0  0  0  0  0  0  0  0  0  0  0  0
   -1.2091   -0.4988    1.1602 C   0  0  1  0  0  0  0  0  0  0  0  0
   -0.5584   -0.9825    1.8957 H   0  0  0  0  0  0  0  0  0  0  0  0
   -0.5595   -0.5855   -0.2379 C   0  0  0  0  0  0  0  0  0  0  0  0
   -0.8399   -1.5474   -0.6824 H   0  0  0  0  0  0  0  0  0  0  0  0
   -0.9556    0.1933   -0.8996 H   0  0  0  0  0  0  0  0  0  0  0  0
    0.9747   -0.5494   -0.1949 C   0  0  0  0  0  0  0  0  0  0  0  0
    1.3537   -1.0403    0.7081 H   0  0  0  0  0  0  0  0  0  0  0  0
    1.3591   -1.1031   -1.0586 H   0  0  0  0  0  0  0  0  0  0  0  0
    1.4554    0.8992   -0.2812 C   0  0  0  0  0  0  0  0  0  0  0  0
    1.0355    1.3572   -1.1838 H   0  0  0  0  0  0  0  0  0  0  0  0
    1.0885    1.4541    0.5890 H   0  0  0  0  0  0  0  0  0  0  0  0
    2.9271    0.9527   -0.3285 N   0  3  0  0  0  0  0  0  0  0  0  0
    3.4269    0.0644   -0.3168 H   0  0  0  0  0  0  0  0  0  0  0  0
    3.5983    2.0643   -0.4222 C   0  0  0  0  0  0  0  0  0  0  0  0
    2.9694    3.2881   -0.4703 N   0  0  0  0  0  0  0  0  0  0  0  0
    1.9577    3.2987   -0.5874 H   0  0  0  0  0  0  0  0  0  0  0  0
    3.4967    4.0961   -0.7948 H   0  0  0  0  0  0  0  0  0  0  0  0
    4.9711    2.0265   -0.4797 N   0  0  0  0  0  0  0  0  0  0  0  0
    5.4484    1.1500   -0.2777 H   0  0  0  0  0  0  0  0  0  0  0  0
    5.4887    2.8942   -0.3508 H   0  0  0  0  0  0  0  0  0  0  0  0
   -1.3853    0.9641    1.6097 C   0  0  0  0  0  0  0  0  0  0  0  0
   -2.1726    1.6925    1.0214 O   0  0  0  0  0  0  0  0  0  0  0  0
   -0.5345    1.5093    2.5561 N   0  0  0  0  0  0  0  0  0  0  0  0
   -0.0284    0.8451    3.1372 H   0  0  0  0  0  0  0  0  0  0  0  0
   -0.7160    2.8632    3.0728 C   0  0  0  0  0  0  0  0  0  0  0  0
   -1.6748    2.9480    3.5961 H   0  0  0  0  0  0  0  0  0  0  0  0
    0.0852    3.1127    3.7754 H   0  0  0  0  0  0  0  0  0  0  0  0
   -0.6972    3.5945    2.2577 H   0  0  0  0  0  0  0  0  0  0  0  0
  1  2  1  0  0  0  0
  2  3  1  0  0  0  0
  2  4  1  0  0  0  0
  2  5  1  0  0  0  0
  5  6  2  0  0  0  0
  5  7  1  0  0  0  0
  7  8  1  0  0  0  0
  7  9  1  0  0  0  0
  9 10  1  0  0  0  0
  9 11  1  0  0  0  0
  9 29  1  0  0  0  0
 11 12  1  0  0  0  0
 11 13  1  0  0  0  0
 11 14  1  0  0  0  0
 14 15  1  0  0  0  0
 14 16  1  0  0  0  0
 14 17  1  0  0  0  0
 17 18  1  0  0  0  0
 17 19  1  0  0  0  0
 17 20  1  0  0  0  0
 20 21  1  0  0  0  0
 20 22  2  0  0  0  0
 22 23  1  0  0  0  0
 22 26  1  0  0  0  0
 23 24  1  0  0  0  0
 23 25  1  0  0  0  0
 26 27  1  0  0  0  0
 26 28  1  0  0  0  0
 29 30  2  0  0  0  0
 29 31  1  0  0  0  0
 31 32  1  0  0  0  0
 31 33  1  0  0  0  0
 33 34  1  0  0  0  0
 33 35  1  0  0  0  0
 33 36  1  0  0  0  0
M  CHG  1  20   1
M  END
$$$$

  -OEChem-03222214013D

 36 35  0     1  0  0  0  0  0999 V2000
   -4.0067   -4.1398    1.9582 H   0  0  0  0  0  0  0  0  0  0  0  0
   -4.0394   -3.1335    1.5314 C   0  0  0  0  0  0  0  0  0  0  0  0
   -4.7536   -2.5334    2.1004 H   0  0  0  0  0  0  0  0  0  0  0  0
   -4.3758   -3.2022    0.4942 H   0  0  0  0  0  0  0  0  0  0  0  0
   -2.6639   -2.4976    1.5892 C   0  0  0  0  0  0  0  0  0  0  0  0
   -1.7205   -3.1127    2.0620 O   0  0  0  0  0  0  0  0  0  0  0  0
   -2.4695   -1.2196    1.1032 N   0  0  0  0  0  0  0  0  0  0  0  0
   -3.2877   -0.7149    0.7639 H   0  0  0  0  0  0  0  0  0  0  0  0
   -1.2016   -0.4827    1.1975 C   0  0  1  0  0  0  0  0  0  0  0  0
   -0.5535   -0.9587    1.9404 H   0  0  0  0  0  0  0  0  0  0  0  0
   -0.5380   -0.5712   -0.1969 C   0  0  0  0  0  0  0  0  0  0  0  0
   -0.8201   -1.5266   -0.6544 H   0  0  0  0  0  0  0  0  0  0  0  0
   -0.9237    0.2190   -0.8511 H   0  0  0  0  0  0  0  0  0  0  0  0
    0.9957   -0.5365   -0.1621 C   0  0  0  0  0  0  0  0  0  0  0  0
    1.3708   -1.2381    0.5913 H   0  0  0  0  0  0  0  0  0  0  0  0
    1.3693   -0.8653   -1.1383 H   0  0  0  0  0  0  0  0  0  0  0  0
    1.5019    0.8777    0.1176 C   0  0  0  0  0  0  0  0  0  0  0  0
    1.0459    1.5649   -0.6041 H   0  0  0  0  0  0  0  0  0  0  0  0
    1.1982    1.1811    1.1237 H   0  0  0  0  0  0  0  0  0  0  0  0
    2.9702    0.9287    0.0038 N   0  3  0  0  0  0  0  0  0  0  0  0
    3.4509    0.0607   -0.2301 H   0  0  0  0  0  0  0  0  0  0  0  0
    3.6602    2.0212    0.1619 C   0  0  0  0  0  0  0  0  0  0  0  0
    3.0534    3.2229    0.4506 N   0  0  0  0  0  0  0  0  0  0  0  0
    2.0392    3.2722    0.3677 H   0  0  0  0  0  0  0  0  0  0  0  0
    3.5848    4.0808    0.3164 H   0  0  0  0  0  0  0  0  0  0  0  0
    5.0286    1.9850    0.0375 N   0  0  0  0  0  0  0  0  0  0  0  0
    5.4941    1.0805   -0.0081 H   0  0  0  0  0  0  0  0  0  0  0  0
    5.5688    2.7849    0.3623 H   0  0  0  0  0  0  0  0  0  0  0  0
   -1.4329    0.9726    1.6511 C   0  0  0  0  0  0  0  0  0  0  0  0
   -2.2289    1.6793    1.0486 O   0  0  0  0  0  0  0  0  0  0  0  0
   -0.6307    1.5398    2.6272 N   0  0  0  0  0  0  0  0  0  0  0  0
   -0.1373    0.8837    3.2281 H   0  0  0  0  0  0  0  0  0  0  0  0
   -0.8994    2.8723    3.1622 C   0  0  0  0  0  0  0  0  0  0  0  0
   -1.8927    2.9066    3.6235 H   0  0  0  0  0  0  0  0  0  0  0  0
   -0.1566    3.1340    3.9222 H   0  0  0  0  0  0  0  0  0  0  0  0
   -0.8580    3.6247    2.3673 H   0  0  0  0  0  0  0  0  0  0  0  0
  1  2  1  0  0  0  0
  2  3  1  0  0  0  0
  2  4  1  0  0  0  0
  2  5  1  0  0  0  0
  5  6  2  0  0  0  0
  5  7  1  0  0  0  0
  7  8  1  0  0  0  0
  7  9  1  0  0  0  0
  9 10  1  0  0  0  0
  9 11  1  0  0  0  0
  9 29  1  0  0  0  0
 11 12  1  0  0  0  0
 11 13  1  0  0  0  0
 11 14  1  0  0  0  0
 14 15  1  0  0  0  0
 14 16  1  0  0  0  0
 14 17  1  0  0  0  0
 17 18  1  0  0  0  0
 17 19  1  0  0  0  0
 17 20  1  0  0  0  0
 20 21  1  0  0  0  0
 20 22  2  0  0  0  0
 22 23  1  0  0  0  0
 22 26  1  0  0  0  0
 23 24  1  0  0  0  0
 23 25  1  0  0  0  0
 26 27  1  0  0  0  0
 26 28  1  0  0  0  0
 29 30  2  0  0  0  0
 29 31  1  0  0  0  0
 31 32  1  0  0  0  0
 31 33  1  0  0  0  0
 33 34  1  0  0  0  0
 33 35  1  0  0  0  0
 33 36  1  0  0  0  0
M  CHG  1  20   1
M  END
$$$$

  -OEChem-03222214013D

 36 35  0     1  0  0  0  0  0999 V2000
   -4.1783   -4.0971    1.6891 H   0  0  0  0  0  0  0  0  0  0  0  0
   -4.1475   -3.0773    1.2950 C   0  0  0  0  0  0  0  0  0  0  0  0
   -4.8882   -2.4735    1.8248 H   0  0  0  0  0  0  0  0  0  0  0  0
   -4.4017   -3.1034    0.2328 H   0  0  0  0  0  0  0  0  0  0  0  0
   -2.7635   -2.4861    1.4835 C   0  0  0  0  0  0  0  0  0  0  0  0
   -1.8777   -3.1457    2.0052 O   0  0  0  0  0  0  0  0  0  0  0  0
   -2.4955   -1.1982    1.0627 N   0  0  0  0  0  0  0  0  0  0  0  0
   -3.2699   -0.6576    0.6786 H   0  0  0  0  0  0  0  0  0  0  0  0
   -1.2172   -0.5057    1.2785 C   0  0  1  0  0  0  0  0  0  0  0  0
   -0.6351   -1.0280    2.0445 H   0  0  0  0  0  0  0  0  0  0  0  0
   -0.4607   -0.5635   -0.0711 C   0  0  0  0  0  0  0  0  0  0  0  0
   -0.7477   -1.4797   -0.6000 H   0  0  0  0  0  0  0  0  0  0  0  0
   -0.7713    0.2764   -0.7024 H   0  0  0  0  0  0  0  0  0  0  0  0
    1.0700   -0.5813    0.0480 C   0  0  0  0  0  0  0  0  0  0  0  0
    1.3844   -1.4786    0.5928 H   0  0  0  0  0  0  0  0  0  0  0  0
    1.4905   -0.6389   -0.9620 H   0  0  0  0  0  0  0  0  0  0  0  0
    1.5982    0.6658    0.7539 C   0  0  0  0  0  0  0  0  0  0  0  0
    1.1056    1.5447    0.3242 H   0  0  0  0  0  0  0  0  0  0  0  0
    1.3468    0.6156    1.8180 H   0  0  0  0  0  0  0  0  0  0  0  0
    3.0594    0.7694    0.5915 N   0  3  0  0  0  0  0  0  0  0  0  0
    3.5754   -0.1005    0.4626 H   0  0  0  0  0  0  0  0  0  0  0  0
    3.7065    1.8994    0.6119 C   0  0  0  0  0  0  0  0  0  0  0  0
    3.0622    3.1052    0.7765 N   0  0  0  0  0  0  0  0  0  0  0  0
    2.0454    3.1133    0.7198 H   0  0  0  0  0  0  0  0  0  0  0  0
    3.5602    3.9606    0.5386 H   0  0  0  0  0  0  0  0  0  0  0  0
    5.0728    1.9002    0.4633 N   0  0  0  0  0  0  0  0  0  0  0  0
    5.5739    1.0153    0.5145 H   0  0  0  0  0  0  0  0  0  0  0  0
    5.5858    2.7536    0.6775 H   0  0  0  0  0  0  0  0  0  0  0  0
   -1.4495    0.9386    1.7693 C   0  0  0  0  0  0  0  0  0  0  0  0
   -2.1671    1.6915    1.1257 O   0  0  0  0  0  0  0  0  0  0  0  0
   -0.7126    1.4501    2.8246 N   0  0  0  0  0  0  0  0  0  0  0  0
   -0.2992    0.7609    3.4487 H   0  0  0  0  0  0  0  0  0  0  0  0
   -0.9691    2.7813    3.3686 C   0  0  0  0  0  0  0  0  0  0  0  0
   -1.9878    2.8429    3.7668 H   0  0  0  0  0  0  0  0  0  0  0  0
   -0.2672    3.0030    4.1786 H   0  0  0  0  0  0  0  0  0  0  0  0
   -0.8512    3.5459    2.5934 H   0  0  0  0  0  0  0  0  0  0  0  0
  1  2  1  0  0  0  0
  2  3  1  0  0  0  0
  2  4  1  0  0  0  0
  2  5  1  0  0  0  0
  5  6  2  0  0  0  0
  5  7  1  0  0  0  0
  7  8  1  0  0  0  0
  7  9  1  0  0  0  0
  9 10  1  0  0  0  0
  9 11  1  0  0  0  0
  9 29  1  0  0  0  0
 11 12  1  0  0  0  0
 11 13  1  0  0  0  0
 11 14  1  0  0  0  0
 14 15  1  0  0  0  0
 14 16  1  0  0  0  0
 14 17  1  0  0  0  0
 17 18  1  0  0  0  0
 17 19  1  0  0  0  0
 17 20  1  0  0  0  0
 20 21  1  0  0  0  0
 20 22  2  0  0  0  0
 22 23  1  0  0  0  0
 22 26  1  0  0  0  0
 23 24  1  0  0  0  0
 23 25  1  0  0  0  0
 26 27  1  0  0  0  0
 26 28  1  0  0  0  0
 29 30  2  0  0  0  0
 29 31  1  0  0  0  0
 31 32  1  0  0  0  0
 31 33  1  0  0  0  0
 33 34  1  0  0  0  0
 33 35  1  0  0  0  0
 33 36  1  0  0  0  0
M  CHG  1  20   1
M  END
$$$$

  -OEChem-03222214013D

 36 35  0     1  0  0  0  0  0999 V2000
   -4.3213   -4.0019    1.2388 H   0  0  0  0  0  0  0  0  0  0  0  0
   -4.2278   -2.9512    0.9500 C   0  0  0  0  0  0  0  0  0  0  0  0
   -4.9858   -2.3715    1.4823 H   0  0  0  0  0  0  0  0  0  0  0  0
   -4.4016   -2.8652   -0.1252 H   0  0  0  0  0  0  0  0  0  0  0  0
   -2.8441   -2.4363    1.2956 C   0  0  0  0  0  0  0  0  0  0  0  0
   -2.0328   -3.1672    1.8426 O   0  0  0  0  0  0  0  0  0  0  0  0
   -2.4937   -1.1348    0.9952 N   0  0  0  0  0  0  0  0  0  0  0  0
   -3.2118   -0.5364    0.5880 H   0  0  0  0  0  0  0  0  0  0  0  0
   -1.2189   -0.5117    1.3775 C   0  0  1  0  0  0  0  0  0  0  0  0
   -0.7296   -1.1109    2.1526 H   0  0  0  0  0  0  0  0  0  0  0  0
   -0.3442   -0.5050    0.0991 C   0  0  0  0  0  0  0  0  0  0  0  0
   -0.6201   -1.3581   -0.5315 H   0  0  0  0  0  0  0  0  0  0  0  0
   -0.5686    0.3981   -0.4788 H   0  0  0  0  0  0  0  0  0  0  0  0
    1.1738   -0.5929    0.3273 C   0  0  0  0  0  0  0  0  0  0  0  0
    1.4352   -1.6247    0.5883 H   0  0  0  0  0  0  0  0  0  0  0  0
    1.6758   -0.3545   -0.6167 H   0  0  0  0  0  0  0  0  0  0  0  0
    1.6701    0.3345    1.4360 C   0  0  0  0  0  0  0  0  0  0  0  0
    1.1735    1.3061    1.3487 H   0  0  0  0  0  0  0  0  0  0  0  0
    1.3988   -0.0854    2.4106 H   0  0  0  0  0  0  0  0  0  0  0  0
    3.1335    0.4960    1.3488 N   0  3  0  0  0  0  0  0  0  0  0  0
    3.7034   -0.3036    1.6236 H   0  0  0  0  0  0  0  0  0  0  0  0
    3.7197    1.5866    0.9423 C   0  0  0  0  0  0  0  0  0  0  0  0
    3.0057    2.6894    0.5287 N   0  0  0  0  0  0  0  0  0  0  0  0
    2.0031    2.5835    0.3829 H   0  0  0  0  0  0  0  0  0  0  0  0
    3.4891    3.4218    0.0128 H   0  0  0  0  0  0  0  0  0  0  0  0
    5.0927    1.6483    0.9156 N   0  0  0  0  0  0  0  0  0  0  0  0
    5.6262    0.9174    1.3826 H   0  0  0  0  0  0  0  0  0  0  0  0
    5.5354    2.5574    0.7931 H   0  0  0  0  0  0  0  0  0  0  0  0
   -1.4506    0.9040    1.9471 C   0  0  0  0  0  0  0  0  0  0  0  0
   -2.0649    1.7294    1.2854 O   0  0  0  0  0  0  0  0  0  0  0  0
   -0.8030    1.3143    3.1002 N   0  0  0  0  0  0  0  0  0  0  0  0
   -0.4820    0.5724    3.7177 H   0  0  0  0  0  0  0  0  0  0  0  0
   -1.0406    2.6286    3.6918 C   0  0  0  0  0  0  0  0  0  0  0  0
   -2.1009    2.7528    3.9377 H   0  0  0  0  0  0  0  0  0  0  0  0
   -0.4575    2.7433    4.6108 H   0  0  0  0  0  0  0  0  0  0  0  0
   -0.7477    3.4231    2.9974 H   0  0  0  0  0  0  0  0  0  0  0  0
  1  2  1  0  0  0  0
  2  3  1  0  0  0  0
  2  4  1  0  0  0  0
  2  5  1  0  0  0  0
  5  6  2  0  0  0  0
  5  7  1  0  0  0  0
  7  8  1  0  0  0  0
  7  9  1  0  0  0  0
  9 10  1  0  0  0  0
  9 11  1  0  0  0  0
  9 29  1  0  0  0  0
 11 12  1  0  0  0  0
 11 13  1  0  0  0  0
 11 14  1  0  0  0  0
 14 15  1  0  0  0  0
 14 16  1  0  0  0  0
 14 17  1  0  0  0  0
 17 18  1  0  0  0  0
 17 19  1  0  0  0  0
 17 20  1  0  0  0  0
 20 21  1  0  0  0  0
 20 22  2  0  0  0  0
 22 23  1  0  0  0  0
 22 26  1  0  0  0  0
 23 24  1  0  0  0  0
 23 25  1  0  0  0  0
 26 27  1  0  0  0  0
 26 28  1  0  0  0  0
 29 30  2  0  0  0  0
 29 31  1  0  0  0  0
 31 32  1  0  0  0  0
 31 33  1  0  0  0  0
 33 34  1  0  0  0  0
 33 35  1  0  0  0  0
 33 36  1  0  0  0  0
M  CHG  1  20   1
M  END
$$$$

  -OEChem-03222214013D

 36 35  0     1  0  0  0  0  0999 V2000
   -4.3684   -4.0064    1.2300 H   0  0  0  0  0  0  0  0  0  0  0  0
   -4.2647   -2.9604    0.9278 C   0  0  0  0  0  0  0  0  0  0  0  0
   -5.0254   -2.3687    1.4427 H   0  0  0  0  0  0  0  0  0  0  0  0
   -4.4249   -2.8886   -0.1506 H   0  0  0  0  0  0  0  0  0  0  0  0
   -2.8817   -2.4494    1.2827 C   0  0  0  0  0  0  0  0  0  0  0  0
   -2.0767   -3.1838    1.8347 O   0  0  0  0  0  0  0  0  0  0  0  0
   -2.5237   -1.1493    0.9843 N   0  0  0  0  0  0  0  0  0  0  0  0
   -3.2357   -0.5476    0.5712 H   0  0  0  0  0  0  0  0  0  0  0  0
   -1.2497   -0.5317    1.3775 C   0  0  1  0  0  0  0  0  0  0  0  0
   -0.7783   -1.1351    2.1592 H   0  0  0  0  0  0  0  0  0  0  0  0
   -0.3595   -0.5289    0.1088 C   0  0  0  0  0  0  0  0  0  0  0  0
   -0.6404   -1.3723   -0.5324 H   0  0  0  0  0  0  0  0  0  0  0  0
   -0.5761    0.3807   -0.4622 H   0  0  0  0  0  0  0  0  0  0  0  0
    1.1624   -0.6224    0.3314 C   0  0  0  0  0  0  0  0  0  0  0  0
    1.4442   -1.6814    0.3328 H   0  0  0  0  0  0  0  0  0  0  0  0
    1.6657   -0.1520   -0.5201 H   0  0  0  0  0  0  0  0  0  0  0  0
    1.6493   -0.0016    1.6409 C   0  0  0  0  0  0  0  0  0  0  0  0
    1.2255    1.0012    1.7531 H   0  0  0  0  0  0  0  0  0  0  0  0
    1.2960   -0.6061    2.4833 H   0  0  0  0  0  0  0  0  0  0  0  0
    3.1225    0.0632    1.6587 N   0  3  0  0  0  0  0  0  0  0  0  0
    3.6203   -0.8026    1.8649 H   0  0  0  0  0  0  0  0  0  0  0  0
    3.8042    1.1503    1.4325 C   0  0  0  0  0  0  0  0  0  0  0  0
    3.1921    2.3440    1.1208 N   0  0  0  0  0  0  0  0  0  0  0  0
    2.1980    2.3270    0.8991 H   0  0  0  0  0  0  0  0  0  0  0  0
    3.7559    3.0940    0.7257 H   0  0  0  0  0  0  0  0  0  0  0  0
    5.1767    1.1141    1.4973 N   0  0  0  0  0  0  0  0  0  0  0  0
    5.6276    0.2920    1.8946 H   0  0  0  0  0  0  0  0  0  0  0  0
    5.6855    1.9961    1.5222 H   0  0  0  0  0  0  0  0  0  0  0  0
   -1.4772    0.8858    1.9447 C   0  0  0  0  0  0  0  0  0  0  0  0
   -2.1017    1.7080    1.2891 O   0  0  0  0  0  0  0  0  0  0  0  0
   -0.8363    1.2934    3.1027 N   0  0  0  0  0  0  0  0  0  0  0  0
   -0.5155    0.5502    3.7184 H   0  0  0  0  0  0  0  0  0  0  0  0
   -1.0827    2.6038    3.6997 C   0  0  0  0  0  0  0  0  0  0  0  0
   -2.1329    2.6987    3.9969 H   0  0  0  0  0  0  0  0  0  0  0  0
   -0.4578    2.7407    4.5876 H   0  0  0  0  0  0  0  0  0  0  0  0
   -0.8480    3.4033    2.9888 H   0  0  0  0  0  0  0  0  0  0  0  0
  1  2  1  0  0  0  0
  2  3  1  0  0  0  0
  2  4  1  0  0  0  0
  2  5  1  0  0  0  0
  5  6  2  0  0  0  0
  5  7  1  0  0  0  0
  7  8  1  0  0  0  0
  7  9  1  0  0  0  0
  9 10  1  0  0  0  0
  9 11  1  0  0  0  0
  9 29  1  0  0  0  0
 11 12  1  0  0  0  0
 11 13  1  0  0  0  0
 11 14  1  0  0  0  0
 14 15  1  0  0  0  0
 14 16  1  0  0  0  0
 14 17  1  0  0  0  0
 17 18  1  0  0  0  0
 17 19  1  0  0  0  0
 17 20  1  0  0  0  0
 20 21  1  0  0  0  0
 20 22  2  0  0  0  0
 22 23  1  0  0  0  0
 22 26  1  0  0  0  0
 23 24  1  0  0  0  0
 23 25  1  0  0  0  0
 26 27  1  0  0  0  0
 26 28  1  0  0  0  0
 29 30  2  0  0  0  0
 29 31  1  0  0  0  0
 31 32  1  0  0  0  0
 31 33  1  0  0  0  0
 33 34  1  0  0  0  0
 33 35  1  0  0  0  0
 33 36  1  0  0  0  0
M  CHG  1  20   1
M  END
$$$$

  -OEChem-03222214013D

 36 35  0     1  0  0  0  0  0999 V2000
   -4.4551   -3.9593    1.1380 H   0  0  0  0  0  0  0  0  0  0  0  0
   -4.3176   -2.9166    0.8381 C   0  0  0  0  0  0  0  0  0  0  0  0
   -5.0921   -2.3092    1.3127 H   0  0  0  0  0  0  0  0  0  0  0  0
   -4.4226   -2.8464   -0.2472 H   0  0  0  0  0  0  0  0  0  0  0  0
   -2.9451   -2.4292    1.2592 C   0  0  0  0  0  0  0  0  0  0  0  0
   -2.1859   -3.1716    1.8635 O   0  0  0  0  0  0  0  0  0  0  0  0
   -2.5417   -1.1441    0.9542 N   0  0  0  0  0  0  0  0  0  0  0  0
   -3.2179   -0.5344    0.4948 H   0  0  0  0  0  0  0  0  0  0  0  0
   -1.2695   -0.5502    1.3879 C   0  0  1  0  0  0  0  0  0  0  0  0
   -0.8545   -1.1540    2.1995 H   0  0  0  0  0  0  0  0  0  0  0  0
   -0.3281   -0.5917    0.1566 C   0  0  0  0  0  0  0  0  0  0  0  0
   -0.6084   -1.4434   -0.4741 H   0  0  0  0  0  0  0  0  0  0  0  0
   -0.5074    0.3069   -0.4446 H   0  0  0  0  0  0  0  0  0  0  0  0
    1.1883   -0.7164    0.4196 C   0  0  0  0  0  0  0  0  0  0  0  0
    1.4920   -1.7404    0.1746 H   0  0  0  0  0  0  0  0  0  0  0  0
    1.7112   -0.0498   -0.2742 H   0  0  0  0  0  0  0  0  0  0  0  0
    1.6347   -0.4257    1.8542 C   0  0  0  0  0  0  0  0  0  0  0  0
    1.2585    0.5515    2.1710 H   0  0  0  0  0  0  0  0  0  0  0  0
    1.2113   -1.1801    2.5268 H   0  0  0  0  0  0  0  0  0  0  0  0
    3.1065   -0.4533    1.9457 N   0  3  0  0  0  0  0  0  0  0  0  0
    3.5372   -1.3498    2.1720 H   0  0  0  0  0  0  0  0  0  0  0  0
    3.8647    0.5932    1.7783 C   0  0  0  0  0  0  0  0  0  0  0  0
    3.3417    1.8318    1.4793 N   0  0  0  0  0  0  0  0  0  0  0  0
    2.3312    1.9539    1.5171 H   0  0  0  0  0  0  0  0  0  0  0  0
    3.9332    2.6555    1.5690 H   0  0  0  0  0  0  0  0  0  0  0  0
    5.2282    0.4669    1.8968 N   0  0  0  0  0  0  0  0  0  0  0  0
    5.6331   -0.4667    1.9362 H   0  0  0  0  0  0  0  0  0  0  0  0
    5.8178    1.2296    1.5681 H   0  0  0  0  0  0  0  0  0  0  0  0
   -1.4732    0.8824    1.9227 C   0  0  0  0  0  0  0  0  0  0  0  0
   -2.0629    1.7065    1.2384 O   0  0  0  0  0  0  0  0  0  0  0  0
   -0.8631    1.2906    3.0975 N   0  0  0  0  0  0  0  0  0  0  0  0
   -0.5997    0.5469    3.7394 H   0  0  0  0  0  0  0  0  0  0  0  0
   -1.1097    2.6131    3.6680 C   0  0  0  0  0  0  0  0  0  0  0  0
   -2.1731    2.7390    3.8997 H   0  0  0  0  0  0  0  0  0  0  0  0
   -0.5371    2.7428    4.5917 H   0  0  0  0  0  0  0  0  0  0  0  0
   -0.8110    3.3990    2.9660 H   0  0  0  0  0  0  0  0  0  0  0  0
  1  2  1  0  0  0  0
  2  3  1  0  0  0  0
  2  4  1  0  0  0  0
  2  5  1  0  0  0  0
  5  6  2  0  0  0  0
  5  7  1  0  0  0  0
  7  8  1  0  0  0  0
  7  9  1  0  0  0  0
  9 10  1  0  0  0  0
  9 11  1  0  0  0  0
  9 29  1  0  0  0  0
 11 12  1  0  0  0  0
 11 13  1  0  0  0  0
 11 14  1  0  0  0  0
 14 15  1  0  0  0  0
 14 16  1  0  0  0  0
 14 17  1  0  0  0  0
 17 18  1  0  0  0  0
 17 19  1  0  0  0  0
 17 20  1  0  0  0  0
 20 21  1  0  0  0  0
 20 22  2  0  0  0  0
 22 23  1  0  0  0  0
 22 26  1  0  0  0  0
 23 24  1  0  0  0  0
 23 25  1  0  0  0  0
 26 27  1  0  0  0  0
 26 28  1  0  0  0  0
 29 30  2  0  0  0  0
 29 31  1  0  0  0  0
 31 32  1  0  0  0  0
 31 33  1  0  0  0  0
 33 34  1  0  0  0  0
 33 35  1  0  0  0  0
 33 36  1  0  0  0  0
M  CHG  1  20   1
M  END
$$$$

  -OEChem-03222214013D

 36 35  0     1  0  0  0  0  0999 V2000
   -3.4162   -4.2069    2.5274 H   0  0  0  0  0  0  0  0  0  0  0  0
   -3.5783   -3.2996    1.9387 C   0  0  0  0  0  0  0  0  0  0  0  0
   -4.4119   -2.7428    2.3740 H   0  0  0  0  0  0  0  0  0  0  0  0
   -3.8363   -3.5851    0.9158 H   0  0  0  0  0  0  0  0  0  0  0  0
   -2.3261   -2.4440    1.9389 C   0  0  0  0  0  0  0  0  0  0  0  0
   -1.3320   -2.7966    2.5624 O   0  0  0  0  0  0  0  0  0  0  0  0
   -2.2838   -1.2718    1.2098 N   0  0  0  0  0  0  0  0  0  0  0  0
   -3.1437   -0.9674    0.7516 H   0  0  0  0  0  0  0  0  0  0  0  0
   -1.1894   -0.2978    1.3067 C   0  0  1  0  0  0  0  0  0  0  0  0
   -0.6434   -0.4926    2.2299 H   0  0  0  0  0  0  0  0  0  0  0  0
   -0.2885   -0.4992    0.0630 C   0  0  0  0  0  0  0  0  0  0  0  0
   -0.3582   -1.5500   -0.2405 H   0  0  0  0  0  0  0  0  0  0  0  0
   -0.7001    0.0863   -0.7672 H   0  0  0  0  0  0  0  0  0  0  0  0
    1.2185   -0.1813    0.1993 C   0  0  0  0  0  0  0  0  0  0  0  0
    1.7702   -1.0919   -0.0592 H   0  0  0  0  0  0  0  0  0  0  0  0
    1.4853    0.5754   -0.5471 H   0  0  0  0  0  0  0  0  0  0  0  0
    1.6823    0.3090    1.5750 C   0  0  0  0  0  0  0  0  0  0  0  0
    1.3643    1.3481    1.7169 H   0  0  0  0  0  0  0  0  0  0  0  0
    1.2260   -0.2899    2.3676 H   0  0  0  0  0  0  0  0  0  0  0  0
    3.1487    0.2014    1.6823 N   0  3  0  0  0  0  0  0  0  0  0  0
    3.7004    0.9803    1.3228 H   0  0  0  0  0  0  0  0  0  0  0  0
    3.7555   -0.8303    2.2000 C   0  0  0  0  0  0  0  0  0  0  0  0
    3.0641   -1.9272    2.6687 N   0  0  0  0  0  0  0  0  0  0  0  0
    2.0694   -2.0009    2.4568 H   0  0  0  0  0  0  0  0  0  0  0  0
    3.5752   -2.7872    2.8570 H   0  0  0  0  0  0  0  0  0  0  0  0
    5.1277   -0.8388    2.2801 N   0  0  0  0  0  0  0  0  0  0  0  0
    5.6350    0.0279    2.1116 H   0  0  0  0  0  0  0  0  0  0  0  0
    5.5754   -1.5496    2.8561 H   0  0  0  0  0  0  0  0  0  0  0  0
   -1.7342    1.1425    1.3999 C   0  0  0  0  0  0  0  0  0  0  0  0
   -2.6195    1.4989    0.6351 O   0  0  0  0  0  0  0  0  0  0  0  0
   -1.2213    2.0414    2.3193 N   0  0  0  0  0  0  0  0  0  0  0  0
   -0.6488    1.6636    3.0673 H   0  0  0  0  0  0  0  0  0  0  0  0
   -1.7793    3.3801    2.4927 C   0  0  0  0  0  0  0  0  0  0  0  0
   -2.8118    3.3224    2.8544 H   0  0  0  0  0  0  0  0  0  0  0  0
   -1.1887    3.9475    3.2186 H   0  0  0  0  0  0  0  0  0  0  0  0
   -1.7719    3.9275    1.5437 H   0  0  0  0  0  0  0  0  0  0  0  0
  1  2  1  0  0  0  0
  2  3  1  0  0  0  0
  2  4  1  0  0  0  0
  2  5  1  0  0  0  0
  5  6  2  0  0  0  0
  5  7  1  0  0  0  0
  7  8  1  0  0  0  0
  7  9  1  0  0  0  0
  9 10  1  0  0  0  0
  9 11  1  0  0  0  0
  9 29  1  0  0  0  0
 11 12  1  0  0  0  0
 11 13  1  0  0  0  0
 11 14  1  0  0  0  0
 14 15  1  0  0  0  0
 14 16  1  0  0  0  0
 14 17  1  0  0  0  0
 17 18  1  0  0  0  0
 17 19  1  0  0  0  0
 17 20  1  0  0  0  0
 20 21  1  0  0  0  0
 20 22  2  0  0  0  0
 22 23  1  0  0  0  0
 22 26  1  0  0  0  0
 23 24  1  0  0  0  0
 23 25  1  0  0  0  0
 26 27  1  0  0  0  0
 26 28  1  0  0  0  0
 29 30  2  0  0  0  0
 29 31  1  0  0  0  0
 31 32  1  0  0  0  0
 31 33  1  0  0  0  0
 33 34  1  0  0  0  0
 33 35  1  0  0  0  0
 33 36  1  0  0  0  0
M  CHG  1  20   1
M  END
$$$$

  -OEChem-03222214013D

 36 35  0     1  0  0  0  0  0999 V2000
   -2.6663   -4.4099    2.6172 H   0  0  0  0  0  0  0  0  0  0  0  0
   -2.9424   -3.5468    2.0050 C   0  0  0  0  0  0  0  0  0  0  0  0
   -3.8234   -3.0723    2.4447 H   0  0  0  0  0  0  0  0  0  0  0  0
   -3.1906   -3.8931    0.9986 H   0  0  0  0  0  0  0  0  0  0  0  0
   -1.7955   -2.5568    1.9447 C   0  0  0  0  0  0  0  0  0  0  0  0
   -0.7226   -2.8065    2.4828 O   0  0  0  0  0  0  0  0  0  0  0  0
   -1.9310   -1.3721    1.2520 N   0  0  0  0  0  0  0  0  0  0  0  0
   -2.8517   -1.1588    0.8638 H   0  0  0  0  0  0  0  0  0  0  0  0
   -0.9634   -0.2681    1.3079 C   0  0  1  0  0  0  0  0  0  0  0  0
   -0.3489   -0.4085    2.1943 H   0  0  0  0  0  0  0  0  0  0  0  0
   -0.1242   -0.3101    0.0084 C   0  0  0  0  0  0  0  0  0  0  0  0
   -0.0649   -1.3592   -0.3028 H   0  0  0  0  0  0  0  0  0  0  0  0
   -0.6665    0.2136   -0.7875 H   0  0  0  0  0  0  0  0  0  0  0  0
    1.3374    0.1975    0.0404 C   0  0  0  0  0  0  0  0  0  0  0  0
    1.9454   -0.4520   -0.5996 H   0  0  0  0  0  0  0  0  0  0  0  0
    1.3371    1.1828   -0.4390 H   0  0  0  0  0  0  0  0  0  0  0  0
    2.0173    0.3884    1.4074 C   0  0  0  0  0  0  0  0  0  0  0  0
    2.3790    1.4212    1.4686 H   0  0  0  0  0  0  0  0  0  0  0  0
    1.3296    0.2515    2.2412 H   0  0  0  0  0  0  0  0  0  0  0  0
    3.1694   -0.5262    1.5377 N   0  3  0  0  0  0  0  0  0  0  0  0
    4.0444   -0.2130    1.1192 H   0  0  0  0  0  0  0  0  0  0  0  0
    3.1589   -1.6628    2.1766 C   0  0  0  0  0  0  0  0  0  0  0  0
    2.0337   -2.1902    2.7651 N   0  0  0  0  0  0  0  0  0  0  0  0
    1.1182   -1.8829    2.4299 H   0  0  0  0  0  0  0  0  0  0  0  0
    2.0745   -3.1505    3.0983 H   0  0  0  0  0  0  0  0  0  0  0  0
    4.3303   -2.3741    2.2846 N   0  0  0  0  0  0  0  0  0  0  0  0
    5.2061   -1.9278    2.0201 H   0  0  0  0  0  0  0  0  0  0  0  0
    4.3672   -3.1552    2.9370 H   0  0  0  0  0  0  0  0  0  0  0  0
   -1.6802    1.0888    1.4700 C   0  0  0  0  0  0  0  0  0  0  0  0
   -2.6784    1.3167    0.8014 O   0  0  0  0  0  0  0  0  0  0  0  0
   -1.2343    2.0344    2.3766 N   0  0  0  0  0  0  0  0  0  0  0  0
   -0.4953    1.7697    3.0194 H   0  0  0  0  0  0  0  0  0  0  0  0
   -1.9400    3.2913    2.6121 C   0  0  0  0  0  0  0  0  0  0  0  0
   -2.9419    3.1010    3.0119 H   0  0  0  0  0  0  0  0  0  0  0  0
   -1.3918    3.9070    3.3318 H   0  0  0  0  0  0  0  0  0  0  0  0
   -2.0375    3.8584    1.6798 H   0  0  0  0  0  0  0  0  0  0  0  0
  1  2  1  0  0  0  0
  2  3  1  0  0  0  0
  2  4  1  0  0  0  0
  2  5  1  0  0  0  0
  5  6  2  0  0  0  0
  5  7  1  0  0  0  0
  7  8  1  0  0  0  0
  7  9  1  0  0  0  0
  9 10  1  0  0  0  0
  9 11  1  0  0  0  0
  9 29  1  0  0  0  0
 11 12  1  0  0  0  0
 11 13  1  0  0  0  0
 11 14  1  0  0  0  0
 14 15  1  0  0  0  0
 14 16  1  0  0  0  0
 14 17  1  0  0  0  0
 17 18  1  0  0  0  0
 17 19  1  0  0  0  0
 17 20  1  0  0  0  0
 20 21  1  0  0  0  0
 20 22  2  0  0  0  0
 22 23  1  0  0  0  0
 22 26  1  0  0  0  0
 23 24  1  0  0  0  0
 23 25  1  0  0  0  0
 26 27  1  0  0  0  0
 26 28  1  0  0  0  0
 29 30  2  0  0  0  0
 29 31  1  0  0  0  0
 31 32  1  0  0  0  0
 31 33  1  0  0  0  0
 33 34  1  0  0  0  0
 33 35  1  0  0  0  0
 33 36  1  0  0  0  0
M  CHG  1  20   1
M  END
$$$$

  -OEChem-03222214013D

 36 35  0     1  0  0  0  0  0999 V2000
   -2.7941   -4.3871    2.6199 H   0  0  0  0  0  0  0  0  0  0  0  0
   -3.0281   -3.5208    1.9950 C   0  0  0  0  0  0  0  0  0  0  0  0
   -3.9055   -3.0167    2.4081 H   0  0  0  0  0  0  0  0  0  0  0  0
   -3.2604   -3.8673    0.9849 H   0  0  0  0  0  0  0  0  0  0  0  0
   -1.8517   -2.5650    1.9587 C   0  0  0  0  0  0  0  0  0  0  0  0
   -0.8055   -2.8341    2.5398 O   0  0  0  0  0  0  0  0  0  0  0  0
   -1.9194   -1.4012    1.2223 N   0  0  0  0  0  0  0  0  0  0  0  0
   -2.8185   -1.1693    0.7958 H   0  0  0  0  0  0  0  0  0  0  0  0
   -0.9459   -0.3084    1.3418 C   0  0  1  0  0  0  0  0  0  0  0  0
   -0.4256   -0.4202    2.2905 H   0  0  0  0  0  0  0  0  0  0  0  0
    0.0110   -0.3871    0.1272 C   0  0  0  0  0  0  0  0  0  0  0  0
    0.0892   -1.4421   -0.1575 H   0  0  0  0  0  0  0  0  0  0  0  0
   -0.4408    0.1295   -0.7278 H   0  0  0  0  0  0  0  0  0  0  0  0
    1.4624    0.1091    0.3111 C   0  0  0  0  0  0  0  0  0  0  0  0
    2.0973   -0.3755   -0.4390 H   0  0  0  0  0  0  0  0  0  0  0  0
    1.4664    1.1791    0.0752 H   0  0  0  0  0  0  0  0  0  0  0  0
    2.0766   -0.0332    1.7161 C   0  0  0  0  0  0  0  0  0  0  0  0
    2.4008    0.9557    2.0588 H   0  0  0  0  0  0  0  0  0  0  0  0
    1.3591   -0.4052    2.4470 H   0  0  0  0  0  0  0  0  0  0  0  0
    3.2396   -0.9408    1.6828 N   0  3  0  0  0  0  0  0  0  0  0  0
    4.1529   -0.5083    1.5507 H   0  0  0  0  0  0  0  0  0  0  0  0
    3.1718   -2.2382    1.7998 C   0  0  0  0  0  0  0  0  0  0  0  0
    1.9866   -2.9236    1.9428 N   0  0  0  0  0  0  0  0  0  0  0  0
    1.1078   -2.4201    2.0922 H   0  0  0  0  0  0  0  0  0  0  0  0
    1.9972   -3.9195    2.1473 H   0  0  0  0  0  0  0  0  0  0  0  0
    4.3356   -2.9693    1.7609 N   0  0  0  0  0  0  0  0  0  0  0  0
    5.2332   -2.4913    1.8052 H   0  0  0  0  0  0  0  0  0  0  0  0
    4.3027   -3.9677    1.9585 H   0  0  0  0  0  0  0  0  0  0  0  0
   -1.6593    1.0580    1.4047 C   0  0  0  0  0  0  0  0  0  0  0  0
   -2.5965    1.2735    0.6489 O   0  0  0  0  0  0  0  0  0  0  0  0
   -1.2884    2.0213    2.3261 N   0  0  0  0  0  0  0  0  0  0  0  0
   -0.5939    1.7746    3.0240 H   0  0  0  0  0  0  0  0  0  0  0  0
   -1.9947    3.2920    2.4648 C   0  0  0  0  0  0  0  0  0  0  0  0
   -3.0337    3.1235    2.7683 H   0  0  0  0  0  0  0  0  0  0  0  0
   -1.5104    3.9170    3.2214 H   0  0  0  0  0  0  0  0  0  0  0  0
   -1.9919    3.8389    1.5155 H   0  0  0  0  0  0  0  0  0  0  0  0
  1  2  1  0  0  0  0
  2  3  1  0  0  0  0
  2  4  1  0  0  0  0
  2  5  1  0  0  0  0
  5  6  2  0  0  0  0
  5  7  1  0  0  0  0
  7  8  1  0  0  0  0
  7  9  1  0  0  0  0
  9 10  1  0  0  0  0
  9 11  1  0  0  0  0
  9 29  1  0  0  0  0
 11 12  1  0  0  0  0
 11 13  1  0  0  0  0
 11 14  1  0  0  0  0
 14 15  1  0  0  0  0
 14 16  1  0  0  0  0
 14 17  1  0  0  0  0
 17 18  1  0  0  0  0
 17 19  1  0  0  0  0
 17 20  1  0  0  0  0
 20 21  1  0  0  0  0
 20 22  2  0  0  0  0
 22 23  1  0  0  0  0
 22 26  1  0  0  0  0
 23 24  1  0  0  0  0
 23 25  1  0  0  0  0
 26 27  1  0  0  0  0
 26 28  1  0  0  0  0
 29 30  2  0  0  0  0
 29 31  1  0  0  0  0
 31 32  1  0  0  0  0
 31 33  1  0  0  0  0
 33 34  1  0  0  0  0
 33 35  1  0  0  0  0
 33 36  1  0  0  0  0
M  CHG  1  20   1
M  END
$$$$

  -OEChem-03222214013D

 36 35  0     1  0  0  0  0  0999 V2000
   -2.8054   -4.4346    2.5358 H   0  0  0  0  0  0  0  0  0  0  0  0
   -3.0239   -3.5560    1.9223 C   0  0  0  0  0  0  0  0  0  0  0  0
   -3.8957   -3.0456    2.3396 H   0  0  0  0  0  0  0  0  0  0  0  0
   -3.2578   -3.8844    0.9065 H   0  0  0  0  0  0  0  0  0  0  0  0
   -1.8329   -2.6173    1.9046 C   0  0  0  0  0  0  0  0  0  0  0  0
   -0.7937   -2.9122    2.4850 O   0  0  0  0  0  0  0  0  0  0  0  0
   -1.8775   -1.4433    1.1834 N   0  0  0  0  0  0  0  0  0  0  0  0
   -2.7712   -1.1928    0.7561 H   0  0  0  0  0  0  0  0  0  0  0  0
   -0.8973   -0.3600    1.3330 C   0  0  1  0  0  0  0  0  0  0  0  0
   -0.3856   -0.4804    2.2873 H   0  0  0  0  0  0  0  0  0  0  0  0
    0.0837   -0.4192    0.1378 C   0  0  0  0  0  0  0  0  0  0  0  0
    0.1683   -1.4631   -0.1830 H   0  0  0  0  0  0  0  0  0  0  0  0
   -0.3366    0.1353   -0.7093 H   0  0  0  0  0  0  0  0  0  0  0  0
    1.5160    0.0784    0.4131 C   0  0  0  0  0  0  0  0  0  0  0  0
    2.1537   -0.1667   -0.4435 H   0  0  0  0  0  0  0  0  0  0  0  0
    1.4770    1.1718    0.4731 H   0  0  0  0  0  0  0  0  0  0  0  0
    2.1443   -0.4318    1.7226 C   0  0  0  0  0  0  0  0  0  0  0  0
    2.5629    0.4217    2.2674 H   0  0  0  0  0  0  0  0  0  0  0  0
    1.4021   -0.8983    2.3732 H   0  0  0  0  0  0  0  0  0  0  0  0
    3.2248   -1.3954    1.4362 N   0  3  0  0  0  0  0  0  0  0  0  0
    4.1503   -1.0049    1.2645 H   0  0  0  0  0  0  0  0  0  0  0  0
    3.0717   -2.6887    1.3776 C   0  0  0  0  0  0  0  0  0  0  0  0
    1.8599   -3.3133    1.5601 N   0  0  0  0  0  0  0  0  0  0  0  0
    1.0555   -2.7801    1.9041 H   0  0  0  0  0  0  0  0  0  0  0  0
    1.8232   -4.3251    1.6492 H   0  0  0  0  0  0  0  0  0  0  0  0
    4.1660   -3.4744    1.1026 N   0  0  0  0  0  0  0  0  0  0  0  0
    5.0972   -3.0633    1.1079 H   0  0  0  0  0  0  0  0  0  0  0  0
    4.0770   -4.4876    1.1501 H   0  0  0  0  0  0  0  0  0  0  0  0
   -1.6054    1.0089    1.4021 C   0  0  0  0  0  0  0  0  0  0  0  0
   -2.5334    1.2376    0.6385 O   0  0  0  0  0  0  0  0  0  0  0  0
   -1.2434    1.9567    2.3425 N   0  0  0  0  0  0  0  0  0  0  0  0
   -0.5522    1.6998    3.0404 H   0  0  0  0  0  0  0  0  0  0  0  0
   -1.9436    3.2294    2.4903 C   0  0  0  0  0  0  0  0  0  0  0  0
   -2.9877    3.0624    2.7764 H   0  0  0  0  0  0  0  0  0  0  0  0
   -1.4663    3.8390    3.2638 H   0  0  0  0  0  0  0  0  0  0  0  0
   -1.9233    3.7908    1.5498 H   0  0  0  0  0  0  0  0  0  0  0  0
  1  2  1  0  0  0  0
  2  3  1  0  0  0  0
  2  4  1  0  0  0  0
  2  5  1  0  0  0  0
  5  6  2  0  0  0  0
  5  7  1  0  0  0  0
  7  8  1  0  0  0  0
  7  9  1  0  0  0  0
  9 10  1  0  0  0  0
  9 11  1  0  0  0  0
  9 29  1  0  0  0  0
 11 12  1  0  0  0  0
 11 13  1  0  0  0  0
 11 14  1  0  0  0  0
 14 15  1  0  0  0  0
 14 16  1  0  0  0  0
 14 17  1  0  0  0  0
 17 18  1  0  0  0  0
 17 19  1  0  0  0  0
 17 20  1  0  0  0  0
 20 21  1  0  0  0  0
 20 22  2  0  0  0  0
 22 23  1  0  0  0  0
 22 26  1  0  0  0  0
 23 24  1  0  0  0  0
 23 25  1  0  0  0  0
 26 27  1  0  0  0  0
 26 28  1  0  0  0  0
 29 30  2  0  0  0  0
 29 31  1  0  0  0  0
 31 32  1  0  0  0  0
 31 33  1  0  0  0  0
 33 34  1  0  0  0  0
 33 35  1  0  0  0  0
 33 36  1  0  0  0  0
M  CHG  1  20   1
M  END
$$$$

  -OEChem-03222214013D

 36 35  0     1  0  0  0  0  0999 V2000
   -3.7832   -4.1796    2.1214 H   0  0  0  0  0  0  0  0  0  0  0  0
   -3.8733   -3.1845    1.6770 C   0  0  0  0  0  0  0  0  0  0  0  0
   -4.5592   -2.5889    2.2847 H   0  0  0  0  0  0  0  0  0  0  0  0
   -4.2853   -3.2848    0.6699 H   0  0  0  0  0  0  0  0  0  0  0  0
   -2.5154   -2.5120    1.6177 C   0  0  0  0  0  0  0  0  0  0  0  0
   -1.5148   -3.0958    2.0200 O   0  0  0  0  0  0  0  0  0  0  0  0
   -2.3875   -1.2505    1.0707 N   0  0  0  0  0  0  0  0  0  0  0  0
   -3.2423   -0.7615    0.8013 H   0  0  0  0  0  0  0  0  0  0  0  0
   -1.1632   -0.4497    1.1815 C   0  0  1  0  0  0  0  0  0  0  0  0
   -0.5531   -0.8439    1.9967 H   0  0  0  0  0  0  0  0  0  0  0  0
   -0.4182   -0.5473   -0.1682 C   0  0  0  0  0  0  0  0  0  0  0  0
   -0.6433   -1.5122   -0.6365 H   0  0  0  0  0  0  0  0  0  0  0  0
   -0.7892    0.2288   -0.8472 H   0  0  0  0  0  0  0  0  0  0  0  0
    1.1071   -0.4332   -0.0400 C   0  0  0  0  0  0  0  0  0  0  0  0
    1.5479   -0.5086   -1.0401 H   0  0  0  0  0  0  0  0  0  0  0  0
    1.3830    0.5409    0.3784 H   0  0  0  0  0  0  0  0  0  0  0  0
    1.6279   -1.5658    0.8510 C   0  0  0  0  0  0  0  0  0  0  0  0
    1.3726   -1.3567    1.8950 H   0  0  0  0  0  0  0  0  0  0  0  0
    1.1234   -2.4934    0.5562 H   0  0  0  0  0  0  0  0  0  0  0  0
    3.0844   -1.7396    0.7246 N   0  3  0  0  0  0  0  0  0  0  0  0
    3.6003   -1.0387    0.1945 H   0  0  0  0  0  0  0  0  0  0  0  0
    3.7131   -2.7597    1.2351 C   0  0  0  0  0  0  0  0  0  0  0  0
    3.0465   -3.7419    1.9348 N   0  0  0  0  0  0  0  0  0  0  0  0
    2.0267   -3.7392    1.9105 H   0  0  0  0  0  0  0  0  0  0  0  0
    3.5177   -4.6270    2.1094 H   0  0  0  0  0  0  0  0  0  0  0  0
    5.0742   -2.8704    1.0784 N   0  0  0  0  0  0  0  0  0  0  0  0
    5.5947   -2.0711    0.7220 H   0  0  0  0  0  0  0  0  0  0  0  0
    5.5743   -3.5536    1.6446 H   0  0  0  0  0  0  0  0  0  0  0  0
   -1.4899    1.0111    1.5541 C   0  0  0  0  0  0  0  0  0  0  0  0
   -2.4104    1.5815    0.9850 O   0  0  0  0  0  0  0  0  0  0  0  0
   -0.7710    1.6802    2.5291 N   0  0  0  0  0  0  0  0  0  0  0  0
   -0.1123    1.1431    3.0842 H   0  0  0  0  0  0  0  0  0  0  0  0
   -1.1134    3.0298    2.9701 C   0  0  0  0  0  0  0  0  0  0  0  0
   -2.1158    3.0465    3.4116 H   0  0  0  0  0  0  0  0  0  0  0  0
   -0.3984    3.3785    3.7215 H   0  0  0  0  0  0  0  0  0  0  0  0
   -1.0910    3.7278    2.1260 H   0  0  0  0  0  0  0  0  0  0  0  0
  1  2  1  0  0  0  0
  2  3  1  0  0  0  0
  2  4  1  0  0  0  0
  2  5  1  0  0  0  0
  5  6  2  0  0  0  0
  5  7  1  0  0  0  0
  7  8  1  0  0  0  0
  7  9  1  0  0  0  0
  9 10  1  0  0  0  0
  9 11  1  0  0  0  0
  9 29  1  0  0  0  0
 11 12  1  0  0  0  0
 11 13  1  0  0  0  0
 11 14  1  0  0  0  0
 14 15  1  0  0  0  0
 14 16  1  0  0  0  0
 14 17  1  0  0  0  0
 17 18  1  0  0  0  0
 17 19  1  0  0  0  0
 17 20  1  0  0  0  0
 20 21  1  0  0  0  0
 20 22  2  0  0  0  0
 22 23  1  0  0  0  0
 22 26  1  0  0  0  0
 23 24  1  0  0  0  0
 23 25  1  0  0  0  0
 26 27  1  0  0  0  0
 26 28  1  0  0  0  0
 29 30  2  0  0  0  0
 29 31  1  0  0  0  0
 31 32  1  0  0  0  0
 31 33  1  0  0  0  0
 33 34  1  0  0  0  0
 33 35  1  0  0  0  0
 33 36  1  0  0  0  0
M  CHG  1  20   1
M  END
$$$$

  -OEChem-03222214013D

 36 35  0     1  0  0  0  0  0999 V2000
   -3.7612   -4.2137    2.0699 H   0  0  0  0  0  0  0  0  0  0  0  0
   -3.8602   -3.2048    1.6597 C   0  0  0  0  0  0  0  0  0  0  0  0
   -4.4930   -2.6147    2.3273 H   0  0  0  0  0  0  0  0  0  0  0  0
   -4.3385   -3.2684    0.6792 H   0  0  0  0  0  0  0  0  0  0  0  0
   -2.4962   -2.5553    1.5301 C   0  0  0  0  0  0  0  0  0  0  0  0
   -1.4806   -3.1796    1.8189 O   0  0  0  0  0  0  0  0  0  0  0  0
   -2.3833   -1.2657    1.0492 N   0  0  0  0  0  0  0  0  0  0  0  0
   -3.2445   -0.7442    0.8802 H   0  0  0  0  0  0  0  0  0  0  0  0
   -1.1338   -0.4997    1.1069 C   0  0  1  0  0  0  0  0  0  0  0  0
   -0.4610   -0.9545    1.8385 H   0  0  0  0  0  0  0  0  0  0  0  0
   -0.5021   -0.5325   -0.3000 C   0  0  0  0  0  0  0  0  0  0  0  0
   -0.7941   -1.4491   -0.8255 H   0  0  0  0  0  0  0  0  0  0  0  0
   -0.8887    0.3069   -0.8891 H   0  0  0  0  0  0  0  0  0  0  0  0
    1.0274   -0.4584   -0.2417 C   0  0  0  0  0  0  0  0  0  0  0  0
    1.4193   -0.2327   -1.2395 H   0  0  0  0  0  0  0  0  0  0  0  0
    1.3524    0.3361    0.4389 H   0  0  0  0  0  0  0  0  0  0  0  0
    1.5347   -1.8291    0.2163 C   0  0  0  0  0  0  0  0  0  0  0  0
    1.0868   -2.0703    1.1863 H   0  0  0  0  0  0  0  0  0  0  0  0
    1.1998   -2.5836   -0.5049 H   0  0  0  0  0  0  0  0  0  0  0  0
    3.0018   -1.8717    0.3277 N   0  3  0  0  0  0  0  0  0  0  0  0
    3.5268   -1.0685   -0.0153 H   0  0  0  0  0  0  0  0  0  0  0  0
    3.6325   -2.9042    0.8102 C   0  0  0  0  0  0  0  0  0  0  0  0
    2.9541   -4.0104    1.2737 N   0  0  0  0  0  0  0  0  0  0  0  0
    1.9388   -3.9542    1.3564 H   0  0  0  0  0  0  0  0  0  0  0  0
    3.4466   -4.6880    1.8517 H   0  0  0  0  0  0  0  0  0  0  0  0
    5.0057   -2.9020    0.8652 N   0  0  0  0  0  0  0  0  0  0  0  0
    5.5139   -2.1821    0.3553 H   0  0  0  0  0  0  0  0  0  0  0  0
    5.4828   -3.7833    1.0467 H   0  0  0  0  0  0  0  0  0  0  0  0
   -1.3968    0.9412    1.5916 C   0  0  0  0  0  0  0  0  0  0  0  0
   -2.3464    1.5624    1.1343 O   0  0  0  0  0  0  0  0  0  0  0  0
   -0.5872    1.5351    2.5438 N   0  0  0  0  0  0  0  0  0  0  0  0
    0.0929    0.9492    3.0179 H   0  0  0  0  0  0  0  0  0  0  0  0
   -0.8602    2.8624    3.0884 C   0  0  0  0  0  0  0  0  0  0  0  0
   -1.8267    2.8748    3.6039 H   0  0  0  0  0  0  0  0  0  0  0  0
   -0.0828    3.1485    3.8037 H   0  0  0  0  0  0  0  0  0  0  0  0
   -0.8812    3.6098    2.2878 H   0  0  0  0  0  0  0  0  0  0  0  0
  1  2  1  0  0  0  0
  2  3  1  0  0  0  0
  2  4  1  0  0  0  0
  2  5  1  0  0  0  0
  5  6  2  0  0  0  0
  5  7  1  0  0  0  0
  7  8  1  0  0  0  0
  7  9  1  0  0  0  0
  9 10  1  0  0  0  0
  9 11  1  0  0  0  0
  9 29  1  0  0  0  0
 11 12  1  0  0  0  0
 11 13  1  0  0  0  0
 11 14  1  0  0  0  0
 14 15  1  0  0  0  0
 14 16  1  0  0  0  0
 14 17  1  0  0  0  0
 17 18  1  0  0  0  0
 17 19  1  0  0  0  0
 17 20  1  0  0  0  0
 20 21  1  0  0  0  0
 20 22  2  0  0  0  0
 22 23  1  0  0  0  0
 22 26  1  0  0  0  0
 23 24  1  0  0  0  0
 23 25  1  0  0  0  0
 26 27  1  0  0  0  0
 26 28  1  0  0  0  0
 29 30  2  0  0  0  0
 29 31  1  0  0  0  0
 31 32  1  0  0  0  0
 31 33  1  0  0  0  0
 33 34  1  0  0  0  0
 33 35  1  0  0  0  0
 33 36  1  0  0  0  0
M  CHG  1  20   1
M  END
$$$$

  -OEChem-03222214013D

 36 35  0     1  0  0  0  0  0999 V2000
   -3.0584   -4.5970    1.9874 H   0  0  0  0  0  0  0  0  0  0  0  0
   -3.2902   -3.5509    1.7692 C   0  0  0  0  0  0  0  0  0  0  0  0
   -3.7680   -3.1064    2.6459 H   0  0  0  0  0  0  0  0  0  0  0  0
   -3.9873   -3.5134    0.9282 H   0  0  0  0  0  0  0  0  0  0  0  0
   -2.0237   -2.7903    1.4266 C   0  0  0  0  0  0  0  0  0  0  0  0
   -0.9379   -3.3628    1.3905 O   0  0  0  0  0  0  0  0  0  0  0  0
   -2.0819   -1.4496    1.1076 N   0  0  0  0  0  0  0  0  0  0  0  0
   -2.9827   -0.9777    1.2046 H   0  0  0  0  0  0  0  0  0  0  0  0
   -0.8952   -0.5997    0.9573 C   0  0  1  0  0  0  0  0  0  0  0  0
   -0.0345   -1.0841    1.4271 H   0  0  0  0  0  0  0  0  0  0  0  0
   -0.6337   -0.4235   -0.5495 C   0  0  0  0  0  0  0  0  0  0  0  0
   -1.0162   -1.2808   -1.1153 H   0  0  0  0  0  0  0  0  0  0  0  0
   -1.1829    0.4560   -0.9055 H   0  0  0  0  0  0  0  0  0  0  0  0
    0.8622   -0.2382   -0.8312 C   0  0  0  0  0  0  0  0  0  0  0  0
    0.9901    0.3579   -1.7416 H   0  0  0  0  0  0  0  0  0  0  0  0
    1.3502    0.3043   -0.0145 H   0  0  0  0  0  0  0  0  0  0  0  0
    1.4819   -1.6237   -1.0584 C   0  0  0  0  0  0  0  0  0  0  0  0
    0.7505   -2.3951   -0.7945 H   0  0  0  0  0  0  0  0  0  0  0  0
    1.7052   -1.7425   -2.1247 H   0  0  0  0  0  0  0  0  0  0  0  0
    2.7140   -1.8077   -0.2693 N   0  3  0  0  0  0  0  0  0  0  0  0
    3.5039   -1.2095   -0.5072 H   0  0  0  0  0  0  0  0  0  0  0  0
    2.8857   -2.7687    0.5956 C   0  0  0  0  0  0  0  0  0  0  0  0
    1.8827   -3.6386    0.9623 N   0  0  0  0  0  0  0  0  0  0  0  0
    0.9103   -3.3857    0.7567 H   0  0  0  0  0  0  0  0  0  0  0  0
    2.0312   -4.2417    1.7675 H   0  0  0  0  0  0  0  0  0  0  0  0
    4.1233   -2.9353    1.1705 N   0  0  0  0  0  0  0  0  0  0  0  0
    4.9187   -2.4505    0.7597 H   0  0  0  0  0  0  0  0  0  0  0  0
    4.3059   -3.8059    1.6665 H   0  0  0  0  0  0  0  0  0  0  0  0
   -1.0965    0.7503    1.6783 C   0  0  0  0  0  0  0  0  0  0  0  0
   -2.1696    1.3275    1.5728 O   0  0  0  0  0  0  0  0  0  0  0  0
   -0.1047    1.2961    2.4741 N   0  0  0  0  0  0  0  0  0  0  0  0
    0.7306    0.7461    2.6437 H   0  0  0  0  0  0  0  0  0  0  0  0
   -0.2893    2.5356    3.2240 C   0  0  0  0  0  0  0  0  0  0  0  0
   -1.0917    2.4231    3.9612 H   0  0  0  0  0  0  0  0  0  0  0  0
    0.6311    2.8023    3.7525 H   0  0  0  0  0  0  0  0  0  0  0  0
   -0.5476    3.3583    2.5483 H   0  0  0  0  0  0  0  0  0  0  0  0
  1  2  1  0  0  0  0
  2  3  1  0  0  0  0
  2  4  1  0  0  0  0
  2  5  1  0  0  0  0
  5  6  2  0  0  0  0
  5  7  1  0  0  0  0
  7  8  1  0  0  0  0
  7  9  1  0  0  0  0
  9 10  1  0  0  0  0
  9 11  1  0  0  0  0
  9 29  1  0  0  0  0
 11 12  1  0  0  0  0
 11 13  1  0  0  0  0
 11 14  1  0  0  0  0
 14 15  1  0  0  0  0
 14 16  1  0  0  0  0
 14 17  1  0  0  0  0
 17 18  1  0  0  0  0
 17 19  1  0  0  0  0
 17 20  1  0  0  0  0
 20 21  1  0  0  0  0
 20 22  2  0  0  0  0
 22 23  1  0  0  0  0
 22 26  1  0  0  0  0
 23 24  1  0  0  0  0
 23 25  1  0  0  0  0
 26 27  1  0  0  0  0
 26 28  1  0  0  0  0
 29 30  2  0  0  0  0
 29 31  1  0  0  0  0
 31 32  1  0  0  0  0
 31 33  1  0  0  0  0
 33 34  1  0  0  0  0
 33 35  1  0  0  0  0
 33 36  1  0  0  0  0
M  CHG  1  20   1
M  END
$$$$

  -OEChem-03222214013D

 36 35  0     1  0  0  0  0  0999 V2000
   -2.9787   -4.6350    1.8526 H   0  0  0  0  0  0  0  0  0  0  0  0
   -3.2297   -3.5859    1.6725 C   0  0  0  0  0  0  0  0  0  0  0  0
   -3.6885   -3.1743    2.5751 H   0  0  0  0  0  0  0  0  0  0  0  0
   -3.9497   -3.5321    0.8519 H   0  0  0  0  0  0  0  0  0  0  0  0
   -1.9819   -2.7996    1.3201 C   0  0  0  0  0  0  0  0  0  0  0  0
   -0.8919   -3.3580    1.2353 O   0  0  0  0  0  0  0  0  0  0  0  0
   -2.0638   -1.4526    1.0349 N   0  0  0  0  0  0  0  0  0  0  0  0
   -2.9693   -0.9978    1.1652 H   0  0  0  0  0  0  0  0  0  0  0  0
   -0.8917   -0.5770    0.9169 C   0  0  1  0  0  0  0  0  0  0  0  0
   -0.0314   -1.0616    1.3878 H   0  0  0  0  0  0  0  0  0  0  0  0
   -0.6118   -0.3720   -0.5824 C   0  0  0  0  0  0  0  0  0  0  0  0
   -0.9783   -1.2272   -1.1613 H   0  0  0  0  0  0  0  0  0  0  0  0
   -1.1758    0.5007   -0.9317 H   0  0  0  0  0  0  0  0  0  0  0  0
    0.8853   -0.1499   -0.8511 C   0  0  0  0  0  0  0  0  0  0  0  0
    1.0058    0.6680   -1.5703 H   0  0  0  0  0  0  0  0  0  0  0  0
    1.4110    0.1474    0.0624 H   0  0  0  0  0  0  0  0  0  0  0  0
    1.4819   -1.4267   -1.4580 C   0  0  0  0  0  0  0  0  0  0  0  0
    0.7663   -2.2508   -1.3688 H   0  0  0  0  0  0  0  0  0  0  0  0
    1.6538   -1.2661   -2.5283 H   0  0  0  0  0  0  0  0  0  0  0  0
    2.7481   -1.7947   -0.7979 N   0  3  0  0  0  0  0  0  0  0  0  0
    3.5728   -1.2531   -1.0538 H   0  0  0  0  0  0  0  0  0  0  0  0
    2.8850   -2.8230   -0.0076 C   0  0  0  0  0  0  0  0  0  0  0  0
    1.8311   -3.6193    0.3815 N   0  0  0  0  0  0  0  0  0  0  0  0
    0.8761   -3.2665    0.2686 H   0  0  0  0  0  0  0  0  0  0  0  0
    1.9764   -4.2825    1.1386 H   0  0  0  0  0  0  0  0  0  0  0  0
    4.1372   -3.1407    0.4612 N   0  0  0  0  0  0  0  0  0  0  0  0
    4.9452   -2.7004    0.0260 H   0  0  0  0  0  0  0  0  0  0  0  0
    4.2697   -4.0560    0.8875 H   0  0  0  0  0  0  0  0  0  0  0  0
   -1.1169    0.7525    1.6674 C   0  0  0  0  0  0  0  0  0  0  0  0
   -2.1995    1.3133    1.5724 O   0  0  0  0  0  0  0  0  0  0  0  0
   -0.1372    1.2920    2.4820 N   0  0  0  0  0  0  0  0  0  0  0  0
    0.7066    0.7508    2.6394 H   0  0  0  0  0  0  0  0  0  0  0  0
   -0.3456    2.5037    3.2699 C   0  0  0  0  0  0  0  0  0  0  0  0
   -1.1489    2.3542    3.9993 H   0  0  0  0  0  0  0  0  0  0  0  0
    0.5681    2.7683    3.8109 H   0  0  0  0  0  0  0  0  0  0  0  0
   -0.6145    3.3436    2.6200 H   0  0  0  0  0  0  0  0  0  0  0  0
  1  2  1  0  0  0  0
  2  3  1  0  0  0  0
  2  4  1  0  0  0  0
  2  5  1  0  0  0  0
  5  6  2  0  0  0  0
  5  7  1  0  0  0  0
  7  8  1  0  0  0  0
  7  9  1  0  0  0  0
  9 10  1  0  0  0  0
  9 11  1  0  0  0  0
  9 29  1  0  0  0  0
 11 12  1  0  0  0  0
 11 13  1  0  0  0  0
 11 14  1  0  0  0  0
 14 15  1  0  0  0  0
 14 16  1  0  0  0  0
 14 17  1  0  0  0  0
 17 18  1  0  0  0  0
 17 19  1  0  0  0  0
 17 20  1  0  0  0  0
 20 21  1  0  0  0  0
 20 22  2  0  0  0  0
 22 23  1  0  0  0  0
 22 26  1  0  0  0  0
 23 24  1  0  0  0  0
 23 25  1  0  0  0  0
 26 27  1  0  0  0  0
 26 28  1  0  0  0  0
 29 30  2  0  0  0  0
 29 31  1  0  0  0  0
 31 32  1  0  0  0  0
 31 33  1  0  0  0  0
 33 34  1  0  0  0  0
 33 35  1  0  0  0  0
 33 36  1  0  0  0  0
M  CHG  1  20   1
M  END
$$$$

  -OEChem-03222214013D

 36 35  0     1  0  0  0  0  0999 V2000
   -2.9697   -4.6380    1.7292 H   0  0  0  0  0  0  0  0  0  0  0  0
   -3.2298   -3.5928    1.5405 C   0  0  0  0  0  0  0  0  0  0  0  0
   -3.7014   -3.1810    2.4364 H   0  0  0  0  0  0  0  0  0  0  0  0
   -3.9428   -3.5504    0.7133 H   0  0  0  0  0  0  0  0  0  0  0  0
   -1.9868   -2.7960    1.1942 C   0  0  0  0  0  0  0  0  0  0  0  0
   -0.9027   -3.3544    1.0529 O   0  0  0  0  0  0  0  0  0  0  0  0
   -2.0709   -1.4401    0.9532 N   0  0  0  0  0  0  0  0  0  0  0  0
   -2.9721   -0.9883    1.1194 H   0  0  0  0  0  0  0  0  0  0  0  0
   -0.8962   -0.5634    0.8706 C   0  0  1  0  0  0  0  0  0  0  0  0
   -0.0468   -1.0685    1.3398 H   0  0  0  0  0  0  0  0  0  0  0  0
   -0.6015   -0.3264   -0.6214 C   0  0  0  0  0  0  0  0  0  0  0  0
   -0.9617   -1.1811   -1.2045 H   0  0  0  0  0  0  0  0  0  0  0  0
   -1.1704    0.5438   -0.9687 H   0  0  0  0  0  0  0  0  0  0  0  0
    0.8985   -0.0984   -0.8834 C   0  0  0  0  0  0  0  0  0  0  0  0
    1.0481    0.8867   -1.3393 H   0  0  0  0  0  0  0  0  0  0  0  0
    1.4664   -0.1050    0.0524 H   0  0  0  0  0  0  0  0  0  0  0  0
    1.4149   -1.1824   -1.8396 C   0  0  0  0  0  0  0  0  0  0  0  0
    0.7095   -2.0192   -1.8779 H   0  0  0  0  0  0  0  0  0  0  0  0
    1.4729   -0.7671   -2.8521 H   0  0  0  0  0  0  0  0  0  0  0  0
    2.7361   -1.6897   -1.4254 N   0  3  0  0  0  0  0  0  0  0  0  0
    3.5456   -1.3205   -1.9230 H   0  0  0  0  0  0  0  0  0  0  0  0
    2.9043   -2.6658   -0.5764 C   0  0  0  0  0  0  0  0  0  0  0  0
    1.8632   -3.2454    0.1167 N   0  0  0  0  0  0  0  0  0  0  0  0
    0.8963   -2.9626   -0.0622 H   0  0  0  0  0  0  0  0  0  0  0  0
    2.0136   -4.1075    0.6355 H   0  0  0  0  0  0  0  0  0  0  0  0
    4.1743   -3.1398   -0.3475 N   0  0  0  0  0  0  0  0  0  0  0  0
    4.9729   -2.6341   -0.7252 H   0  0  0  0  0  0  0  0  0  0  0  0
    4.3284   -3.7861    0.4243 H   0  0  0  0  0  0  0  0  0  0  0  0
   -1.1136    0.7443    1.6598 C   0  0  0  0  0  0  0  0  0  0  0  0
   -2.1914    1.3159    1.5768 O   0  0  0  0  0  0  0  0  0  0  0  0
   -0.1324    1.2518    2.4930 N   0  0  0  0  0  0  0  0  0  0  0  0
    0.7069    0.6994    2.6357 H   0  0  0  0  0  0  0  0  0  0  0  0
   -0.3331    2.4398    3.3181 C   0  0  0  0  0  0  0  0  0  0  0  0
   -1.1328    2.2711    4.0474 H   0  0  0  0  0  0  0  0  0  0  0  0
    0.5847    2.6848    3.8615 H   0  0  0  0  0  0  0  0  0  0  0  0
   -0.6029    3.2997    2.6954 H   0  0  0  0  0  0  0  0  0  0  0  0
  1  2  1  0  0  0  0
  2  3  1  0  0  0  0
  2  4  1  0  0  0  0
  2  5  1  0  0  0  0
  5  6  2  0  0  0  0
  5  7  1  0  0  0  0
  7  8  1  0  0  0  0
  7  9  1  0  0  0  0
  9 10  1  0  0  0  0
  9 11  1  0  0  0  0
  9 29  1  0  0  0  0
 11 12  1  0  0  0  0
 11 13  1  0  0  0  0
 11 14  1  0  0  0  0
 14 15  1  0  0  0  0
 14 16  1  0  0  0  0
 14 17  1  0  0  0  0
 17 18  1  0  0  0  0
 17 19  1  0  0  0  0
 17 20  1  0  0  0  0
 20 21  1  0  0  0  0
 20 22  2  0  0  0  0
 22 23  1  0  0  0  0
 22 26  1  0  0  0  0
 23 24  1  0  0  0  0
 23 25  1  0  0  0  0
 26 27  1  0  0  0  0
 26 28  1  0  0  0  0
 29 30  2  0  0  0  0
 29 31  1  0  0  0  0
 31 32  1  0  0  0  0
 31 33  1  0  0  0  0
 33 34  1  0  0  0  0
 33 35  1  0  0  0  0
 33 36  1  0  0  0  0
M  CHG  1  20   1
M  END
$$$$

  -OEChem-03222214013D

 36 35  0     1  0  0  0  0  0999 V2000
   -2.0524   -4.8607    1.8017 H   0  0  0  0  0  0  0  0  0  0  0  0
   -2.4562   -3.8521    1.6776 C   0  0  0  0  0  0  0  0  0  0  0  0
   -2.8806   -3.5250    2.6303 H   0  0  0  0  0  0  0  0  0  0  0  0
   -3.2500   -3.8801    0.9269 H   0  0  0  0  0  0  0  0  0  0  0  0
   -1.3619   -2.8963    1.2434 C   0  0  0  0  0  0  0  0  0  0  0  0
   -0.2184   -3.3022    1.0659 O   0  0  0  0  0  0  0  0  0  0  0  0
   -1.6656   -1.5817    0.9559 N   0  0  0  0  0  0  0  0  0  0  0  0
   -2.6260   -1.2869    1.1448 H   0  0  0  0  0  0  0  0  0  0  0  0
   -0.6745   -0.4982    0.8687 C   0  0  1  0  0  0  0  0  0  0  0  0
    0.2384   -0.8300    1.3732 H   0  0  0  0  0  0  0  0  0  0  0  0
   -0.3744   -0.2189   -0.6172 C   0  0  0  0  0  0  0  0  0  0  0  0
   -0.5340   -1.1364   -1.1866 H   0  0  0  0  0  0  0  0  0  0  0  0
   -1.0932    0.5106   -1.0085 H   0  0  0  0  0  0  0  0  0  0  0  0
    1.0619    0.2956   -0.8466 C   0  0  0  0  0  0  0  0  0  0  0  0
    1.0059    1.3696   -1.0573 H   0  0  0  0  0  0  0  0  0  0  0  0
    1.6782    0.1853    0.0516 H   0  0  0  0  0  0  0  0  0  0  0  0
    1.7420   -0.4038   -2.0335 C   0  0  0  0  0  0  0  0  0  0  0  0
    0.9949   -0.8332   -2.7097 H   0  0  0  0  0  0  0  0  0  0  0  0
    2.3025    0.3429   -2.6074 H   0  0  0  0  0  0  0  0  0  0  0  0
    2.6866   -1.4348   -1.5495 N   0  3  0  0  0  0  0  0  0  0  0  0
    3.6381   -1.1234   -1.3587 H   0  0  0  0  0  0  0  0  0  0  0  0
    2.3618   -2.6565   -1.2330 C   0  0  0  0  0  0  0  0  0  0  0  0
    1.1018   -3.1572   -1.4289 N   0  0  0  0  0  0  0  0  0  0  0  0
    0.4321   -2.5102   -1.8340 H   0  0  0  0  0  0  0  0  0  0  0  0
    0.7407   -3.7269   -0.6580 H   0  0  0  0  0  0  0  0  0  0  0  0
    3.2895   -3.4790   -0.6430 N   0  0  0  0  0  0  0  0  0  0  0  0
    4.2738   -3.2253   -0.6878 H   0  0  0  0  0  0  0  0  0  0  0  0
    3.0518   -4.4645   -0.5387 H   0  0  0  0  0  0  0  0  0  0  0  0
   -1.1622    0.7631    1.6099 C   0  0  0  0  0  0  0  0  0  0  0  0
   -2.3311    1.1023    1.4907 O   0  0  0  0  0  0  0  0  0  0  0  0
   -0.3224    1.4737    2.4482 N   0  0  0  0  0  0  0  0  0  0  0  0
    0.6119    1.1114    2.6116 H   0  0  0  0  0  0  0  0  0  0  0  0
   -0.7729    2.6203    3.2319 C   0  0  0  0  0  0  0  0  0  0  0  0
   -1.5655    2.3231    3.9271 H   0  0  0  0  0  0  0  0  0  0  0  0
    0.0576    3.0346    3.8118 H   0  0  0  0  0  0  0  0  0  0  0  0
   -1.1598    3.4068    2.5749 H   0  0  0  0  0  0  0  0  0  0  0  0
  1  2  1  0  0  0  0
  2  3  1  0  0  0  0
  2  4  1  0  0  0  0
  2  5  1  0  0  0  0
  5  6  2  0  0  0  0
  5  7  1  0  0  0  0
  7  8  1  0  0  0  0
  7  9  1  0  0  0  0
  9 10  1  0  0  0  0
  9 11  1  0  0  0  0
  9 29  1  0  0  0  0
 11 12  1  0  0  0  0
 11 13  1  0  0  0  0
 11 14  1  0  0  0  0
 14 15  1  0  0  0  0
 14 16  1  0  0  0  0
 14 17  1  0  0  0  0
 17 18  1  0  0  0  0
 17 19  1  0  0  0  0
 17 20  1  0  0  0  0
 20 21  1  0  0  0  0
 20 22  2  0  0  0  0
 22 23  1  0  0  0  0
 22 26  1  0  0  0  0
 23 24  1  0  0  0  0
 23 25  1  0  0  0  0
 26 27  1  0  0  0  0
 26 28  1  0  0  0  0
 29 30  2  0  0  0  0
 29 31  1  0  0  0  0
 31 32  1  0  0  0  0
 31 33  1  0  0  0  0
 33 34  1  0  0  0  0
 33 35  1  0  0  0  0
 33 36  1  0  0  0  0
M  CHG  1  20   1
M  END
$$$$

  -OEChem-03222214013D

 36 35  0     1  0  0  0  0  0999 V2000
   -4.0411   -4.0951    2.0727 H   0  0  0  0  0  0  0  0  0  0  0  0
   -4.0761   -3.0947    1.6323 C   0  0  0  0  0  0  0  0  0  0  0  0
   -4.6987   -2.4553    2.2626 H   0  0  0  0  0  0  0  0  0  0  0  0
   -4.5247   -3.1622    0.6384 H   0  0  0  0  0  0  0  0  0  0  0  0
   -2.6769   -2.5192    1.5323 C   0  0  0  0  0  0  0  0  0  0  0  0
   -1.7085   -3.1937    1.8502 O   0  0  0  0  0  0  0  0  0  0  0  0
   -2.4860   -1.2404    1.0491 N   0  0  0  0  0  0  0  0  0  0  0  0
   -3.3202   -0.6829    0.8645 H   0  0  0  0  0  0  0  0  0  0  0  0
   -1.2052   -0.5225    1.1123 C   0  0  1  0  0  0  0  0  0  0  0  0
   -0.5617   -1.0137    1.8489 H   0  0  0  0  0  0  0  0  0  0  0  0
   -0.5488   -0.5902   -0.2813 C   0  0  0  0  0  0  0  0  0  0  0  0
   -0.8563   -1.5323   -0.7493 H   0  0  0  0  0  0  0  0  0  0  0  0
   -0.9170    0.2204   -0.9203 H   0  0  0  0  0  0  0  0  0  0  0  0
    0.9869   -0.5663   -0.2173 C   0  0  0  0  0  0  0  0  0  0  0  0
    1.3393    0.4711   -0.2185 H   0  0  0  0  0  0  0  0  0  0  0  0
    1.3329   -1.0428    0.7061 H   0  0  0  0  0  0  0  0  0  0  0  0
    1.5621   -1.3415   -1.4023 C   0  0  0  0  0  0  0  0  0  0  0  0
    1.1772   -2.3672   -1.3741 H   0  0  0  0  0  0  0  0  0  0  0  0
    1.2281   -0.8708   -2.3339 H   0  0  0  0  0  0  0  0  0  0  0  0
    3.0350   -1.3545   -1.3421 N   0  3  0  0  0  0  0  0  0  0  0  0
    3.4742   -0.8492   -0.5739 H   0  0  0  0  0  0  0  0  0  0  0  0
    3.7828   -1.9817   -2.2039 C   0  0  0  0  0  0  0  0  0  0  0  0
    3.2426   -2.6960   -3.2493 N   0  0  0  0  0  0  0  0  0  0  0  0
    2.2392   -2.8678   -3.2399 H   0  0  0  0  0  0  0  0  0  0  0  0
    3.8360   -3.3526   -3.7524 H   0  0  0  0  0  0  0  0  0  0  0  0
    5.1505   -1.9376   -2.0749 N   0  0  0  0  0  0  0  0  0  0  0  0
    5.5605   -1.2782   -1.4166 H   0  0  0  0  0  0  0  0  0  0  0  0
    5.7232   -2.2510   -2.8566 H   0  0  0  0  0  0  0  0  0  0  0  0
   -1.3960    0.9330    1.5821 C   0  0  0  0  0  0  0  0  0  0  0  0
   -2.2891    1.6106    1.0913 O   0  0  0  0  0  0  0  0  0  0  0  0
   -0.5583    1.4865    2.5337 N   0  0  0  0  0  0  0  0  0  0  0  0
    0.0640    0.8560    3.0311 H   0  0  0  0  0  0  0  0  0  0  0  0
   -0.7576    2.8295    3.0706 C   0  0  0  0  0  0  0  0  0  0  0  0
   -1.7204    2.8974    3.5886 H   0  0  0  0  0  0  0  0  0  0  0  0
    0.0368    3.0760    3.7819 H   0  0  0  0  0  0  0  0  0  0  0  0
   -0.7403    3.5724    2.2658 H   0  0  0  0  0  0  0  0  0  0  0  0
  1  2  1  0  0  0  0
  2  3  1  0  0  0  0
  2  4  1  0  0  0  0
  2  5  1  0  0  0  0
  5  6  2  0  0  0  0
  5  7  1  0  0  0  0
  7  8  1  0  0  0  0
  7  9  1  0  0  0  0
  9 10  1  0  0  0  0
  9 11  1  0  0  0  0
  9 29  1  0  0  0  0
 11 12  1  0  0  0  0
 11 13  1  0  0  0  0
 11 14  1  0  0  0  0
 14 15  1  0  0  0  0
 14 16  1  0  0  0  0
 14 17  1  0  0  0  0
 17 18  1  0  0  0  0
 17 19  1  0  0  0  0
 17 20  1  0  0  0  0
 20 21  1  0  0  0  0
 20 22  2  0  0  0  0
 22 23  1  0  0  0  0
 22 26  1  0  0  0  0
 23 24  1  0  0  0  0
 23 25  1  0  0  0  0
 26 27  1  0  0  0  0
 26 28  1  0  0  0  0
 29 30  2  0  0  0  0
 29 31  1  0  0  0  0
 31 32  1  0  0  0  0
 31 33  1  0  0  0  0
 33 34  1  0  0  0  0
 33 35  1  0  0  0  0
 33 36  1  0  0  0  0
M  CHG  1  20   1
M  END
$$$$

  -OEChem-03222214013D

 36 35  0     1  0  0  0  0  0999 V2000
   -4.0125   -4.1184    2.0576 H   0  0  0  0  0  0  0  0  0  0  0  0
   -4.0581   -3.1009    1.6592 C   0  0  0  0  0  0  0  0  0  0  0  0
   -4.6578   -2.4861    2.3349 H   0  0  0  0  0  0  0  0  0  0  0  0
   -4.5393   -3.1282    0.6787 H   0  0  0  0  0  0  0  0  0  0  0  0
   -2.6609   -2.5240    1.5371 C   0  0  0  0  0  0  0  0  0  0  0  0
   -1.6877   -3.1926    1.8521 O   0  0  0  0  0  0  0  0  0  0  0  0
   -2.4801   -1.2444    1.0516 N   0  0  0  0  0  0  0  0  0  0  0  0
   -3.3186   -0.6923    0.8707 H   0  0  0  0  0  0  0  0  0  0  0  0
   -1.2025   -0.5203    1.1017 C   0  0  1  0  0  0  0  0  0  0  0  0
   -0.5459   -1.0071    1.8299 H   0  0  0  0  0  0  0  0  0  0  0  0
   -0.5603   -0.5843   -0.2980 C   0  0  0  0  0  0  0  0  0  0  0  0
   -0.8609   -1.5253   -0.7728 H   0  0  0  0  0  0  0  0  0  0  0  0
   -0.9348    0.2314   -0.9270 H   0  0  0  0  0  0  0  0  0  0  0  0
    0.9724   -0.5521   -0.2336 C   0  0  0  0  0  0  0  0  0  0  0  0
    1.3126    0.4568    0.0248 H   0  0  0  0  0  0  0  0  0  0  0  0
    1.3229   -1.2434    0.5411 H   0  0  0  0  0  0  0  0  0  0  0  0
    1.5478   -0.9857   -1.5810 C   0  0  0  0  0  0  0  0  0  0  0  0
    1.1512   -1.9757   -1.8327 H   0  0  0  0  0  0  0  0  0  0  0  0
    1.2261   -0.2767   -2.3523 H   0  0  0  0  0  0  0  0  0  0  0  0
    3.0205   -1.0345   -1.5175 N   0  3  0  0  0  0  0  0  0  0  0  0
    3.4565   -0.7843   -0.6312 H   0  0  0  0  0  0  0  0  0  0  0  0
    3.7712   -1.4027   -2.5158 C   0  0  0  0  0  0  0  0  0  0  0  0
    3.2344   -1.7769   -3.7266 N   0  0  0  0  0  0  0  0  0  0  0  0
    2.2272   -1.9163   -3.7775 H   0  0  0  0  0  0  0  0  0  0  0  0
    3.8222   -2.2789   -4.3893 H   0  0  0  0  0  0  0  0  0  0  0  0
    5.1373   -1.4259   -2.3674 N   0  0  0  0  0  0  0  0  0  0  0  0
    5.5495   -0.9908   -1.5445 H   0  0  0  0  0  0  0  0  0  0  0  0
    5.7154   -1.5151   -3.2011 H   0  0  0  0  0  0  0  0  0  0  0  0
   -1.3985    0.9339    1.5731 C   0  0  0  0  0  0  0  0  0  0  0  0
   -2.2990    1.6065    1.0890 O   0  0  0  0  0  0  0  0  0  0  0  0
   -0.5552    1.4927    2.5168 N   0  0  0  0  0  0  0  0  0  0  0  0
    0.0722    0.8640    3.0103 H   0  0  0  0  0  0  0  0  0  0  0  0
   -0.7660    2.8297    3.0642 C   0  0  0  0  0  0  0  0  0  0  0  0
   -1.7269    2.8836    3.5874 H   0  0  0  0  0  0  0  0  0  0  0  0
    0.0286    3.0798    3.7739 H   0  0  0  0  0  0  0  0  0  0  0  0
   -0.7602    3.5786    2.2649 H   0  0  0  0  0  0  0  0  0  0  0  0
  1  2  1  0  0  0  0
  2  3  1  0  0  0  0
  2  4  1  0  0  0  0
  2  5  1  0  0  0  0
  5  6  2  0  0  0  0
  5  7  1  0  0  0  0
  7  8  1  0  0  0  0
  7  9  1  0  0  0  0
  9 10  1  0  0  0  0
  9 11  1  0  0  0  0
  9 29  1  0  0  0  0
 11 12  1  0  0  0  0
 11 13  1  0  0  0  0
 11 14  1  0  0  0  0
 14 15  1  0  0  0  0
 14 16  1  0  0  0  0
 14 17  1  0  0  0  0
 17 18  1  0  0  0  0
 17 19  1  0  0  0  0
 17 20  1  0  0  0  0
 20 21  1  0  0  0  0
 20 22  2  0  0  0  0
 22 23  1  0  0  0  0
 22 26  1  0  0  0  0
 23 24  1  0  0  0  0
 23 25  1  0  0  0  0
 26 27  1  0  0  0  0
 26 28  1  0  0  0  0
 29 30  2  0  0  0  0
 29 31  1  0  0  0  0
 31 32  1  0  0  0  0
 31 33  1  0  0  0  0
 33 34  1  0  0  0  0
 33 35  1  0  0  0  0
 33 36  1  0  0  0  0
M  CHG  1  20   1
M  END
$$$$

  -OEChem-03222214013D

 36 35  0     1  0  0  0  0  0999 V2000
   -3.9882   -4.1152    2.1096 H   0  0  0  0  0  0  0  0  0  0  0  0
   -4.0418   -3.1134    1.6744 C   0  0  0  0  0  0  0  0  0  0  0  0
   -4.6524   -2.4811    2.3235 H   0  0  0  0  0  0  0  0  0  0  0  0
   -4.5159   -3.1806    0.6924 H   0  0  0  0  0  0  0  0  0  0  0  0
   -2.6496   -2.5271    1.5394 C   0  0  0  0  0  0  0  0  0  0  0  0
   -1.6681   -3.1931    1.8348 O   0  0  0  0  0  0  0  0  0  0  0  0
   -2.4810   -1.2448    1.0565 N   0  0  0  0  0  0  0  0  0  0  0  0
   -3.3234   -0.6929    0.8937 H   0  0  0  0  0  0  0  0  0  0  0  0
   -1.2043   -0.5182    1.0936 C   0  0  1  0  0  0  0  0  0  0  0  0
   -0.5385   -1.0005    1.8166 H   0  0  0  0  0  0  0  0  0  0  0  0
   -0.5705   -0.5739   -0.3129 C   0  0  0  0  0  0  0  0  0  0  0  0
   -1.0679   -1.3458   -0.9110 H   0  0  0  0  0  0  0  0  0  0  0  0
   -0.7201    0.3810   -0.8299 H   0  0  0  0  0  0  0  0  0  0  0  0
    0.9230   -0.9079   -0.2418 C   0  0  0  0  0  0  0  0  0  0  0  0
    1.4461   -0.1523    0.3543 H   0  0  0  0  0  0  0  0  0  0  0  0
    1.0517   -1.8821    0.2445 H   0  0  0  0  0  0  0  0  0  0  0  0
    1.5047   -0.9521   -1.6531 C   0  0  0  0  0  0  0  0  0  0  0  0
    0.9250   -1.6612   -2.2546 H   0  0  0  0  0  0  0  0  0  0  0  0
    1.4180    0.0413   -2.1078 H   0  0  0  0  0  0  0  0  0  0  0  0
    2.9175   -1.3708   -1.6048 N   0  3  0  0  0  0  0  0  0  0  0  0
    3.3035   -1.5971   -0.6891 H   0  0  0  0  0  0  0  0  0  0  0  0
    3.6636   -1.5088   -2.6627 C   0  0  0  0  0  0  0  0  0  0  0  0
    3.1818   -1.2571   -3.9273 N   0  0  0  0  0  0  0  0  0  0  0  0
    2.1801   -1.1107   -4.0348 H   0  0  0  0  0  0  0  0  0  0  0  0
    3.7034   -1.6073   -4.7283 H   0  0  0  0  0  0  0  0  0  0  0  0
    4.9675   -1.9211   -2.5242 N   0  0  0  0  0  0  0  0  0  0  0  0
    5.3809   -1.9364   -1.5939 H   0  0  0  0  0  0  0  0  0  0  0  0
    5.5930   -1.8321   -3.3229 H   0  0  0  0  0  0  0  0  0  0  0  0
   -1.4041    0.9328    1.5747 C   0  0  0  0  0  0  0  0  0  0  0  0
   -2.3185    1.5992    1.1080 O   0  0  0  0  0  0  0  0  0  0  0  0
   -0.5544    1.4934    2.5112 N   0  0  0  0  0  0  0  0  0  0  0  0
    0.0943    0.8714    2.9852 H   0  0  0  0  0  0  0  0  0  0  0  0
   -0.7625    2.8291    3.0623 C   0  0  0  0  0  0  0  0  0  0  0  0
   -1.7207    2.8819    3.5903 H   0  0  0  0  0  0  0  0  0  0  0  0
    0.0361    3.0776    3.7682 H   0  0  0  0  0  0  0  0  0  0  0  0
   -0.7608    3.5792    2.2641 H   0  0  0  0  0  0  0  0  0  0  0  0
  1  2  1  0  0  0  0
  2  3  1  0  0  0  0
  2  4  1  0  0  0  0
  2  5  1  0  0  0  0
  5  6  2  0  0  0  0
  5  7  1  0  0  0  0
  7  8  1  0  0  0  0
  7  9  1  0  0  0  0
  9 10  1  0  0  0  0
  9 11  1  0  0  0  0
  9 29  1  0  0  0  0
 11 12  1  0  0  0  0
 11 13  1  0  0  0  0
 11 14  1  0  0  0  0
 14 15  1  0  0  0  0
 14 16  1  0  0  0  0
 14 17  1  0  0  0  0
 17 18  1  0  0  0  0
 17 19  1  0  0  0  0
 17 20  1  0  0  0  0
 20 21  1  0  0  0  0
 20 22  2  0  0  0  0
 22 23  1  0  0  0  0
 22 26  1  0  0  0  0
 23 24  1  0  0  0  0
 23 25  1  0  0  0  0
 26 27  1  0  0  0  0
 26 28  1  0  0  0  0
 29 30  2  0  0  0  0
 29 31  1  0  0  0  0
 31 32  1  0  0  0  0
 31 33  1  0  0  0  0
 33 34  1  0  0  0  0
 33 35  1  0  0  0  0
 33 36  1  0  0  0  0
M  CHG  1  20   1
M  END
$$$$

  -OEChem-03222214013D

 36 35  0     1  0  0  0  0  0999 V2000
   -3.9575   -4.1382    2.0866 H   0  0  0  0  0  0  0  0  0  0  0  0
   -4.0225   -3.1233    1.6842 C   0  0  0  0  0  0  0  0  0  0  0  0
   -4.6252   -2.5144    2.3625 H   0  0  0  0  0  0  0  0  0  0  0  0
   -4.5119   -3.1622    0.7081 H   0  0  0  0  0  0  0  0  0  0  0  0
   -2.6354   -2.5260    1.5469 C   0  0  0  0  0  0  0  0  0  0  0  0
   -1.6494   -3.1811    1.8513 O   0  0  0  0  0  0  0  0  0  0  0  0
   -2.4764   -1.2438    1.0604 N   0  0  0  0  0  0  0  0  0  0  0  0
   -3.3228   -0.7001    0.8904 H   0  0  0  0  0  0  0  0  0  0  0  0
   -1.2041   -0.5090    1.0935 C   0  0  1  0  0  0  0  0  0  0  0  0
   -0.5339   -0.9868    1.8158 H   0  0  0  0  0  0  0  0  0  0  0  0
   -0.5751   -0.5702   -0.3151 C   0  0  0  0  0  0  0  0  0  0  0  0
   -1.0699   -1.3391   -0.9193 H   0  0  0  0  0  0  0  0  0  0  0  0
   -0.7314    0.3877   -0.8241 H   0  0  0  0  0  0  0  0  0  0  0  0
    0.9211   -0.8958   -0.2485 C   0  0  0  0  0  0  0  0  0  0  0  0
    1.4006   -0.2913    0.5290 H   0  0  0  0  0  0  0  0  0  0  0  0
    1.0469   -1.9529    0.0129 H   0  0  0  0  0  0  0  0  0  0  0  0
    1.5786   -0.5894   -1.5922 C   0  0  0  0  0  0  0  0  0  0  0  0
    1.0344   -1.1185   -2.3827 H   0  0  0  0  0  0  0  0  0  0  0  0
    1.5157    0.4874   -1.7869 H   0  0  0  0  0  0  0  0  0  0  0  0
    2.9867   -1.0260   -1.5733 N   0  3  0  0  0  0  0  0  0  0  0  0
    3.3110   -1.5116   -0.7378 H   0  0  0  0  0  0  0  0  0  0  0  0
    3.8016   -0.8721   -2.5766 C   0  0  0  0  0  0  0  0  0  0  0  0
    3.4055   -0.2644   -3.7460 N   0  0  0  0  0  0  0  0  0  0  0  0
    2.4126   -0.0780   -3.8728 H   0  0  0  0  0  0  0  0  0  0  0  0
    3.9801   -0.3848   -4.5775 H   0  0  0  0  0  0  0  0  0  0  0  0
    5.0936   -1.3300   -2.4777 N   0  0  0  0  0  0  0  0  0  0  0  0
    5.4428   -1.6243   -1.5676 H   0  0  0  0  0  0  0  0  0  0  0  0
    5.7715   -1.0278   -3.1750 H   0  0  0  0  0  0  0  0  0  0  0  0
   -1.4106    0.9420    1.5714 C   0  0  0  0  0  0  0  0  0  0  0  0
   -2.3240    1.6061    1.0995 O   0  0  0  0  0  0  0  0  0  0  0  0
   -0.5615    1.5086    2.5051 N   0  0  0  0  0  0  0  0  0  0  0  0
    0.0817    0.8871    2.9873 H   0  0  0  0  0  0  0  0  0  0  0  0
   -0.7864    2.8389    3.0628 C   0  0  0  0  0  0  0  0  0  0  0  0
   -1.7431    2.8748    3.5950 H   0  0  0  0  0  0  0  0  0  0  0  0
    0.0112    3.0956    3.7668 H   0  0  0  0  0  0  0  0  0  0  0  0
   -0.7990    3.5926    2.2681 H   0  0  0  0  0  0  0  0  0  0  0  0
  1  2  1  0  0  0  0
  2  3  1  0  0  0  0
  2  4  1  0  0  0  0
  2  5  1  0  0  0  0
  5  6  2  0  0  0  0
  5  7  1  0  0  0  0
  7  8  1  0  0  0  0
  7  9  1  0  0  0  0
  9 10  1  0  0  0  0
  9 11  1  0  0  0  0
  9 29  1  0  0  0  0
 11 12  1  0  0  0  0
 11 13  1  0  0  0  0
 11 14  1  0  0  0  0
 14 15  1  0  0  0  0
 14 16  1  0  0  0  0
 14 17  1  0  0  0  0
 17 18  1  0  0  0  0
 17 19  1  0  0  0  0
 17 20  1  0  0  0  0
 20 21  1  0  0  0  0
 20 22  2  0  0  0  0
 22 23  1  0  0  0  0
 22 26  1  0  0  0  0
 23 24  1  0  0  0  0
 23 25  1  0  0  0  0
 26 27  1  0  0  0  0
 26 28  1  0  0  0  0
 29 30  2  0  0  0  0
 29 31  1  0  0  0  0
 31 32  1  0  0  0  0
 31 33  1  0  0  0  0
 33 34  1  0  0  0  0
 33 35  1  0  0  0  0
 33 36  1  0  0  0  0
M  CHG  1  20   1
M  END
$$$$

  -OEChem-03222214013D

 36 35  0     1  0  0  0  0  0999 V2000
   -3.9738   -4.1328    2.0883 H   0  0  0  0  0  0  0  0  0  0  0  0
   -4.0309   -3.1250    1.6671 C   0  0  0  0  0  0  0  0  0  0  0  0
   -4.6541   -2.5072    2.3183 H   0  0  0  0  0  0  0  0  0  0  0  0
   -4.4929   -3.1817    0.6787 H   0  0  0  0  0  0  0  0  0  0  0  0
   -2.6423   -2.5255    1.5564 C   0  0  0  0  0  0  0  0  0  0  0  0
   -1.6617   -3.1775    1.8831 O   0  0  0  0  0  0  0  0  0  0  0  0
   -2.4773   -1.2447    1.0680 N   0  0  0  0  0  0  0  0  0  0  0  0
   -3.3216   -0.7055    0.8758 H   0  0  0  0  0  0  0  0  0  0  0  0
   -1.2059   -0.5089    1.1076 C   0  0  1  0  0  0  0  0  0  0  0  0
   -0.5424   -0.9873    1.8355 H   0  0  0  0  0  0  0  0  0  0  0  0
   -0.5697   -0.5737   -0.2988 C   0  0  0  0  0  0  0  0  0  0  0  0
   -1.0634   -1.3402   -0.9067 H   0  0  0  0  0  0  0  0  0  0  0  0
   -0.7324    0.3842   -0.8058 H   0  0  0  0  0  0  0  0  0  0  0  0
    0.9304   -0.8978   -0.2423 C   0  0  0  0  0  0  0  0  0  0  0  0
    1.3684   -0.5003    0.6795 H   0  0  0  0  0  0  0  0  0  0  0  0
    1.0634   -1.9857   -0.2381 H   0  0  0  0  0  0  0  0  0  0  0  0
    1.6497   -0.2609   -1.4303 C   0  0  0  0  0  0  0  0  0  0  0  0
    1.1622   -0.5849   -2.3566 H   0  0  0  0  0  0  0  0  0  0  0  0
    1.5680    0.8296   -1.3581 H   0  0  0  0  0  0  0  0  0  0  0  0
    3.0664   -0.6692   -1.4385 N   0  3  0  0  0  0  0  0  0  0  0  0
    3.3606   -1.3378   -0.7277 H   0  0  0  0  0  0  0  0  0  0  0  0
    3.9270   -0.2656   -2.3281 C   0  0  0  0  0  0  0  0  0  0  0  0
    3.5743    0.6026   -3.3359 N   0  0  0  0  0  0  0  0  0  0  0  0
    2.5850    0.8047   -3.4659 H   0  0  0  0  0  0  0  0  0  0  0  0
    4.1930    0.6988   -4.1386 H   0  0  0  0  0  0  0  0  0  0  0  0
    5.2241   -0.7165   -2.2711 N   0  0  0  0  0  0  0  0  0  0  0  0
    5.5354   -1.2139   -1.4390 H   0  0  0  0  0  0  0  0  0  0  0  0
    5.9276   -0.2487   -2.8397 H   0  0  0  0  0  0  0  0  0  0  0  0
   -1.4120    0.9443    1.5792 C   0  0  0  0  0  0  0  0  0  0  0  0
   -2.3120    1.6139    1.0898 O   0  0  0  0  0  0  0  0  0  0  0  0
   -0.5667    1.5113    2.5162 N   0  0  0  0  0  0  0  0  0  0  0  0
    0.0605    0.8853    3.0134 H   0  0  0  0  0  0  0  0  0  0  0  0
   -0.7882    2.8459    3.0658 C   0  0  0  0  0  0  0  0  0  0  0  0
   -1.7493    2.8910    3.5896 H   0  0  0  0  0  0  0  0  0  0  0  0
    0.0044    3.1016    3.7758 H   0  0  0  0  0  0  0  0  0  0  0  0
   -0.7888    3.5960    2.2677 H   0  0  0  0  0  0  0  0  0  0  0  0
  1  2  1  0  0  0  0
  2  3  1  0  0  0  0
  2  4  1  0  0  0  0
  2  5  1  0  0  0  0
  5  6  2  0  0  0  0
  5  7  1  0  0  0  0
  7  8  1  0  0  0  0
  7  9  1  0  0  0  0
  9 10  1  0  0  0  0
  9 11  1  0  0  0  0
  9 29  1  0  0  0  0
 11 12  1  0  0  0  0
 11 13  1  0  0  0  0
 11 14  1  0  0  0  0
 14 15  1  0  0  0  0
 14 16  1  0  0  0  0
 14 17  1  0  0  0  0
 17 18  1  0  0  0  0
 17 19  1  0  0  0  0
 17 20  1  0  0  0  0
 20 21  1  0  0  0  0
 20 22  2  0  0  0  0
 22 23  1  0  0  0  0
 22 26  1  0  0  0  0
 23 24  1  0  0  0  0
 23 25  1  0  0  0  0
 26 27  1  0  0  0  0
 26 28  1  0  0  0  0
 29 30  2  0  0  0  0
 29 31  1  0  0  0  0
 31 32  1  0  0  0  0
 31 33  1  0  0  0  0
 33 34  1  0  0  0  0
 33 35  1  0  0  0  0
 33 36  1  0  0  0  0
M  CHG  1  20   1
M  END
$$$$

  -OEChem-03222214013D

 36 35  0     1  0  0  0  0  0999 V2000
   -4.0093   -4.1266    2.0741 H   0  0  0  0  0  0  0  0  0  0  0  0
   -4.0500   -3.1324    1.6202 C   0  0  0  0  0  0  0  0  0  0  0  0
   -4.7139   -2.5015    2.2163 H   0  0  0  0  0  0  0  0  0  0  0  0
   -4.4551   -3.2234    0.6095 H   0  0  0  0  0  0  0  0  0  0  0  0
   -2.6617   -2.5238    1.5698 C   0  0  0  0  0  0  0  0  0  0  0  0
   -1.6925   -3.1685    1.9411 O   0  0  0  0  0  0  0  0  0  0  0  0
   -2.4837   -1.2449    1.0805 N   0  0  0  0  0  0  0  0  0  0  0  0
   -3.3214   -0.7126    0.8464 H   0  0  0  0  0  0  0  0  0  0  0  0
   -1.2113   -0.5113    1.1307 C   0  0  1  0  0  0  0  0  0  0  0  0
   -0.5604   -0.9919    1.8676 H   0  0  0  0  0  0  0  0  0  0  0  0
   -0.5618   -0.5787   -0.2703 C   0  0  0  0  0  0  0  0  0  0  0  0
   -1.0520   -1.3520   -0.8727 H   0  0  0  0  0  0  0  0  0  0  0  0
   -0.7334    0.3720   -0.7880 H   0  0  0  0  0  0  0  0  0  0  0  0
    0.9416   -0.9038   -0.2206 C   0  0  0  0  0  0  0  0  0  0  0  0
    1.3353   -0.7650    0.7916 H   0  0  0  0  0  0  0  0  0  0  0  0
    1.0910   -1.9542   -0.4946 H   0  0  0  0  0  0  0  0  0  0  0  0
    1.7060    0.0182   -1.1692 C   0  0  0  0  0  0  0  0  0  0  0  0
    1.2778   -0.0743   -2.1736 H   0  0  0  0  0  0  0  0  0  0  0  0
    1.5864    1.0552   -0.8350 H   0  0  0  0  0  0  0  0  0  0  0  0
    3.1339   -0.3480   -1.1942 N   0  3  0  0  0  0  0  0  0  0  0  0
    3.4188   -1.1479   -0.6301 H   0  0  0  0  0  0  0  0  0  0  0  0
    4.0196    0.2648   -1.9259 C   0  0  0  0  0  0  0  0  0  0  0  0
    3.6821    1.3256   -2.7354 N   0  0  0  0  0  0  0  0  0  0  0  0
    2.6931    1.5269   -2.8698 H   0  0  0  0  0  0  0  0  0  0  0  0
    4.3337    1.6140   -3.4624 H   0  0  0  0  0  0  0  0  0  0  0  0
    5.3288   -0.1538   -1.9013 N   0  0  0  0  0  0  0  0  0  0  0  0
    5.6203   -0.8132   -1.1822 H   0  0  0  0  0  0  0  0  0  0  0  0
    6.0400    0.4449   -2.3177 H   0  0  0  0  0  0  0  0  0  0  0  0
   -1.4066    0.9453    1.5944 C   0  0  0  0  0  0  0  0  0  0  0  0
   -2.2809    1.6304    1.0809 O   0  0  0  0  0  0  0  0  0  0  0  0
   -0.5609    1.5047    2.5356 N   0  0  0  0  0  0  0  0  0  0  0  0
    0.0406    0.8692    3.0527 H   0  0  0  0  0  0  0  0  0  0  0  0
   -0.7540    2.8531    3.0610 C   0  0  0  0  0  0  0  0  0  0  0  0
   -1.7132    2.9273    3.5847 H   0  0  0  0  0  0  0  0  0  0  0  0
    0.0455    3.1046    3.7648 H   0  0  0  0  0  0  0  0  0  0  0  0
   -0.7404    3.5886    2.2493 H   0  0  0  0  0  0  0  0  0  0  0  0
  1  2  1  0  0  0  0
  2  3  1  0  0  0  0
  2  4  1  0  0  0  0
  2  5  1  0  0  0  0
  5  6  2  0  0  0  0
  5  7  1  0  0  0  0
  7  8  1  0  0  0  0
  7  9  1  0  0  0  0
  9 10  1  0  0  0  0
  9 11  1  0  0  0  0
  9 29  1  0  0  0  0
 11 12  1  0  0  0  0
 11 13  1  0  0  0  0
 11 14  1  0  0  0  0
 14 15  1  0  0  0  0
 14 16  1  0  0  0  0
 14 17  1  0  0  0  0
 17 18  1  0  0  0  0
 17 19  1  0  0  0  0
 17 20  1  0  0  0  0
 20 21  1  0  0  0  0
 20 22  2  0  0  0  0
 22 23  1  0  0  0  0
 22 26  1  0  0  0  0
 23 24  1  0  0  0  0
 23 25  1  0  0  0  0
 26 27  1  0  0  0  0
 26 28  1  0  0  0  0
 29 30  2  0  0  0  0
 29 31  1  0  0  0  0
 31 32  1  0  0  0  0
 31 33  1  0  0  0  0
 33 34  1  0  0  0  0
 33 35  1  0  0  0  0
 33 36  1  0  0  0  0
M  CHG  1  20   1
M  END
$$$$

  -OEChem-03222214013D

 36 35  0     1  0  0  0  0  0999 V2000
   -4.0222   -4.1254    2.0643 H   0  0  0  0  0  0  0  0  0  0  0  0
   -4.0584   -3.1326    1.6072 C   0  0  0  0  0  0  0  0  0  0  0  0
   -4.7341   -2.5022    2.1903 H   0  0  0  0  0  0  0  0  0  0  0  0
   -4.4459   -3.2273    0.5900 H   0  0  0  0  0  0  0  0  0  0  0  0
   -2.6712   -2.5204    1.5783 C   0  0  0  0  0  0  0  0  0  0  0  0
   -1.7076   -3.1602    1.9721 O   0  0  0  0  0  0  0  0  0  0  0  0
   -2.4875   -1.2434    1.0857 N   0  0  0  0  0  0  0  0  0  0  0  0
   -3.3215   -0.7154    0.8299 H   0  0  0  0  0  0  0  0  0  0  0  0
   -1.2141   -0.5115    1.1414 C   0  0  1  0  0  0  0  0  0  0  0  0
   -0.5716   -0.9907    1.8860 H   0  0  0  0  0  0  0  0  0  0  0  0
   -0.5544   -0.5798   -0.2561 C   0  0  0  0  0  0  0  0  0  0  0  0
   -1.0387   -1.3700   -0.8407 H   0  0  0  0  0  0  0  0  0  0  0  0
   -0.7367    0.3548   -0.7988 H   0  0  0  0  0  0  0  0  0  0  0  0
    0.9504   -0.9053   -0.2099 C   0  0  0  0  0  0  0  0  0  0  0  0
    1.2940   -1.0652    0.8171 H   0  0  0  0  0  0  0  0  0  0  0  0
    1.1266   -1.8355   -0.7618 H   0  0  0  0  0  0  0  0  0  0  0  0
    1.7471    0.2319   -0.8476 C   0  0  0  0  0  0  0  0  0  0  0  0
    1.3738    0.4007   -1.8639 H   0  0  0  0  0  0  0  0  0  0  0  0
    1.5922    1.1471   -0.2647 H   0  0  0  0  0  0  0  0  0  0  0  0
    3.1805   -0.1098   -0.8874 N   0  3  0  0  0  0  0  0  0  0  0  0
    3.4517   -1.0206   -0.5188 H   0  0  0  0  0  0  0  0  0  0  0  0
    4.0899    0.6688   -1.3992 C   0  0  0  0  0  0  0  0  0  0  0  0
    3.7730    1.8933   -1.9425 N   0  0  0  0  0  0  0  0  0  0  0  0
    2.7881    2.1127   -2.0793 H   0  0  0  0  0  0  0  0  0  0  0  0
    4.4540    2.3526   -2.5440 H   0  0  0  0  0  0  0  0  0  0  0  0
    5.4037    0.2653   -1.4063 N   0  0  0  0  0  0  0  0  0  0  0  0
    5.6703   -0.5495   -0.8570 H   0  0  0  0  0  0  0  0  0  0  0  0
    6.1230    0.9539   -1.6200 H   0  0  0  0  0  0  0  0  0  0  0  0
   -1.4031    0.9479    1.5979 C   0  0  0  0  0  0  0  0  0  0  0  0
   -2.2576    1.6428    1.0649 O   0  0  0  0  0  0  0  0  0  0  0  0
   -0.5577    1.5042    2.5416 N   0  0  0  0  0  0  0  0  0  0  0  0
    0.0200    0.8617    3.0769 H   0  0  0  0  0  0  0  0  0  0  0  0
   -0.7456    2.8563    3.0596 C   0  0  0  0  0  0  0  0  0  0  0  0
   -1.7044    2.9372    3.5831 H   0  0  0  0  0  0  0  0  0  0  0  0
    0.0549    3.1091    3.7617 H   0  0  0  0  0  0  0  0  0  0  0  0
   -0.7295    3.5871    2.2438 H   0  0  0  0  0  0  0  0  0  0  0  0
  1  2  1  0  0  0  0
  2  3  1  0  0  0  0
  2  4  1  0  0  0  0
  2  5  1  0  0  0  0
  5  6  2  0  0  0  0
  5  7  1  0  0  0  0
  7  8  1  0  0  0  0
  7  9  1  0  0  0  0
  9 10  1  0  0  0  0
  9 11  1  0  0  0  0
  9 29  1  0  0  0  0
 11 12  1  0  0  0  0
 11 13  1  0  0  0  0
 11 14  1  0  0  0  0
 14 15  1  0  0  0  0
 14 16  1  0  0  0  0
 14 17  1  0  0  0  0
 17 18  1  0  0  0  0
 17 19  1  0  0  0  0
 17 20  1  0  0  0  0
 20 21  1  0  0  0  0
 20 22  2  0  0  0  0
 22 23  1  0  0  0  0
 22 26  1  0  0  0  0
 23 24  1  0  0  0  0
 23 25  1  0  0  0  0
 26 27  1  0  0  0  0
 26 28  1  0  0  0  0
 29 30  2  0  0  0  0
 29 31  1  0  0  0  0
 31 32  1  0  0  0  0
 31 33  1  0  0  0  0
 33 34  1  0  0  0  0
 33 35  1  0  0  0  0
 33 36  1  0  0  0  0
M  CHG  1  20   1
M  END
$$$$

  -OEChem-03222214013D

 36 35  0     1  0  0  0  0  0999 V2000
   -4.0246   -4.1271    2.0530 H   0  0  0  0  0  0  0  0  0  0  0  0
   -4.0583   -3.1343    1.5956 C   0  0  0  0  0  0  0  0  0  0  0  0
   -4.7452   -2.5068    2.1685 H   0  0  0  0  0  0  0  0  0  0  0  0
   -4.4305   -3.2304    0.5729 H   0  0  0  0  0  0  0  0  0  0  0  0
   -2.6737   -2.5155    1.5873 C   0  0  0  0  0  0  0  0  0  0  0  0
   -1.7140   -3.1480    2.0018 O   0  0  0  0  0  0  0  0  0  0  0  0
   -2.4877   -1.2400    1.0916 N   0  0  0  0  0  0  0  0  0  0  0  0
   -3.3188   -0.7183    0.8140 H   0  0  0  0  0  0  0  0  0  0  0  0
   -1.2131   -0.5098    1.1453 C   0  0  1  0  0  0  0  0  0  0  0  0
   -0.5697   -0.9872    1.8903 H   0  0  0  0  0  0  0  0  0  0  0  0
   -0.5532   -0.5787   -0.2519 C   0  0  0  0  0  0  0  0  0  0  0  0
   -1.0327   -1.3839   -0.8202 H   0  0  0  0  0  0  0  0  0  0  0  0
   -0.7396    0.3433   -0.8142 H   0  0  0  0  0  0  0  0  0  0  0  0
    0.9489   -0.9054   -0.2008 C   0  0  0  0  0  0  0  0  0  0  0  0
    1.2329   -1.3495    0.7589 H   0  0  0  0  0  0  0  0  0  0  0  0
    1.1684   -1.6461   -0.9781 H   0  0  0  0  0  0  0  0  0  0  0  0
    1.7601    0.3585   -0.4804 C   0  0  0  0  0  0  0  0  0  0  0  0
    1.4427    0.7792   -1.4410 H   0  0  0  0  0  0  0  0  0  0  0  0
    1.5561    1.0955    0.3049 H   0  0  0  0  0  0  0  0  0  0  0  0
    3.1988    0.0406   -0.5197 N   0  3  0  0  0  0  0  0  0  0  0  0
    3.4649   -0.9311   -0.3636 H   0  0  0  0  0  0  0  0  0  0  0  0
    4.1206    0.9226   -0.7792 C   0  0  0  0  0  0  0  0  0  0  0  0
    3.8111    2.2406   -1.0296 N   0  0  0  0  0  0  0  0  0  0  0  0
    2.8313    2.4813   -1.1676 H   0  0  0  0  0  0  0  0  0  0  0  0
    4.5154    2.8350   -1.4620 H   0  0  0  0  0  0  0  0  0  0  0  0
    5.4400    0.5376   -0.8101 N   0  0  0  0  0  0  0  0  0  0  0  0
    5.6912   -0.3844   -0.4578 H   0  0  0  0  0  0  0  0  0  0  0  0
    6.1581    1.2599   -0.8125 H   0  0  0  0  0  0  0  0  0  0  0  0
   -1.3942    0.9517    1.5979 C   0  0  0  0  0  0  0  0  0  0  0  0
   -2.2347    1.6558    1.0551 O   0  0  0  0  0  0  0  0  0  0  0  0
   -0.5433    1.5040    2.5396 N   0  0  0  0  0  0  0  0  0  0  0  0
    0.0084    0.8526    3.0917 H   0  0  0  0  0  0  0  0  0  0  0  0
   -0.7290    2.8562    3.0584 C   0  0  0  0  0  0  0  0  0  0  0  0
   -1.6860    2.9369    3.5852 H   0  0  0  0  0  0  0  0  0  0  0  0
    0.0738    3.1087    3.7578 H   0  0  0  0  0  0  0  0  0  0  0  0
   -0.7160    3.5875    2.2432 H   0  0  0  0  0  0  0  0  0  0  0  0
  1  2  1  0  0  0  0
  2  3  1  0  0  0  0
  2  4  1  0  0  0  0
  2  5  1  0  0  0  0
  5  6  2  0  0  0  0
  5  7  1  0  0  0  0
  7  8  1  0  0  0  0
  7  9  1  0  0  0  0
  9 10  1  0  0  0  0
  9 11  1  0  0  0  0
  9 29  1  0  0  0  0
 11 12  1  0  0  0  0
 11 13  1  0  0  0  0
 11 14  1  0  0  0  0
 14 15  1  0  0  0  0
 14 16  1  0  0  0  0
 14 17  1  0  0  0  0
 17 18  1  0  0  0  0
 17 19  1  0  0  0  0
 17 20  1  0  0  0  0
 20 21  1  0  0  0  0
 20 22  2  0  0  0  0
 22 23  1  0  0  0  0
 22 26  1  0  0  0  0
 23 24  1  0  0  0  0
 23 25  1  0  0  0  0
 26 27  1  0  0  0  0
 26 28  1  0  0  0  0
 29 30  2  0  0  0  0
 29 31  1  0  0  0  0
 31 32  1  0  0  0  0
 31 33  1  0  0  0  0
 33 34  1  0  0  0  0
 33 35  1  0  0  0  0
 33 36  1  0  0  0  0
M  CHG  1  20   1
M  END
$$$$

  -OEChem-03222214013D

 36 35  0     1  0  0  0  0  0999 V2000
   -4.0167   -4.1288    2.0445 H   0  0  0  0  0  0  0  0  0  0  0  0
   -4.0517   -3.1362    1.5867 C   0  0  0  0  0  0  0  0  0  0  0  0
   -4.7480   -2.5131    2.1530 H   0  0  0  0  0  0  0  0  0  0  0  0
   -4.4139   -3.2350    0.5606 H   0  0  0  0  0  0  0  0  0  0  0  0
   -2.6701   -2.5104    1.5908 C   0  0  0  0  0  0  0  0  0  0  0  0
   -1.7112   -3.1384    2.0141 O   0  0  0  0  0  0  0  0  0  0  0  0
   -2.4840   -1.2344    1.0963 N   0  0  0  0  0  0  0  0  0  0  0  0
   -3.3125   -0.7177    0.8028 H   0  0  0  0  0  0  0  0  0  0  0  0
   -1.2090   -0.5053    1.1477 C   0  0  1  0  0  0  0  0  0  0  0  0
   -0.5594   -0.9832    1.8872 H   0  0  0  0  0  0  0  0  0  0  0  0
   -0.5542   -0.5784   -0.2513 C   0  0  0  0  0  0  0  0  0  0  0  0
   -1.0333   -1.3858   -0.8169 H   0  0  0  0  0  0  0  0  0  0  0  0
   -0.7328    0.3428   -0.8174 H   0  0  0  0  0  0  0  0  0  0  0  0
    0.9439   -0.9071   -0.1921 C   0  0  0  0  0  0  0  0  0  0  0  0
    1.1677   -1.5799    0.6434 H   0  0  0  0  0  0  0  0  0  0  0  0
    1.2197   -1.4290   -1.1153 H   0  0  0  0  0  0  0  0  0  0  0  0
    1.7508    0.3868   -0.0988 C   0  0  0  0  0  0  0  0  0  0  0  0
    1.4801    1.0338   -0.9405 H   0  0  0  0  0  0  0  0  0  0  0  0
    1.4948    0.9053    0.8319 H   0  0  0  0  0  0  0  0  0  0  0  0
    3.1938    0.0894   -0.1333 N   0  3  0  0  0  0  0  0  0  0  0  0
    3.4650   -0.8911   -0.1991 H   0  0  0  0  0  0  0  0  0  0  0  0
    4.1164    1.0079   -0.1178 C   0  0  0  0  0  0  0  0  0  0  0  0
    3.8035    2.3471   -0.0580 N   0  0  0  0  0  0  0  0  0  0  0  0
    2.8296    2.6136   -0.1906 H   0  0  0  0  0  0  0  0  0  0  0  0
    4.5213    3.0265   -0.3022 H   0  0  0  0  0  0  0  0  0  0  0  0
    5.4407    0.6425   -0.1660 N   0  0  0  0  0  0  0  0  0  0  0  0
    5.6856   -0.3379   -0.0403 H   0  0  0  0  0  0  0  0  0  0  0  0
    6.1480    1.3432    0.0485 H   0  0  0  0  0  0  0  0  0  0  0  0
   -1.3883    0.9556    1.6026 C   0  0  0  0  0  0  0  0  0  0  0  0
   -2.2183    1.6664    1.0532 O   0  0  0  0  0  0  0  0  0  0  0  0
   -0.5340    1.5047    2.5435 N   0  0  0  0  0  0  0  0  0  0  0  0
   -0.0112    0.8457    3.1146 H   0  0  0  0  0  0  0  0  0  0  0  0
   -0.7214    2.8567    3.0633 C   0  0  0  0  0  0  0  0  0  0  0  0
   -1.6778    2.9356    3.5915 H   0  0  0  0  0  0  0  0  0  0  0  0
    0.0818    3.1110    3.7618 H   0  0  0  0  0  0  0  0  0  0  0  0
   -0.7113    3.5889    2.2487 H   0  0  0  0  0  0  0  0  0  0  0  0
  1  2  1  0  0  0  0
  2  3  1  0  0  0  0
  2  4  1  0  0  0  0
  2  5  1  0  0  0  0
  5  6  2  0  0  0  0
  5  7  1  0  0  0  0
  7  8  1  0  0  0  0
  7  9  1  0  0  0  0
  9 10  1  0  0  0  0
  9 11  1  0  0  0  0
  9 29  1  0  0  0  0
 11 12  1  0  0  0  0
 11 13  1  0  0  0  0
 11 14  1  0  0  0  0
 14 15  1  0  0  0  0
 14 16  1  0  0  0  0
 14 17  1  0  0  0  0
 17 18  1  0  0  0  0
 17 19  1  0  0  0  0
 17 20  1  0  0  0  0
 20 21  1  0  0  0  0
 20 22  2  0  0  0  0
 22 23  1  0  0  0  0
 22 26  1  0  0  0  0
 23 24  1  0  0  0  0
 23 25  1  0  0  0  0
 26 27  1  0  0  0  0
 26 28  1  0  0  0  0
 29 30  2  0  0  0  0
 29 31  1  0  0  0  0
 31 32  1  0  0  0  0
 31 33  1  0  0  0  0
 33 34  1  0  0  0  0
 33 35  1  0  0  0  0
 33 36  1  0  0  0  0
M  CHG  1  20   1
M  END
$$$$

  -OEChem-03222214013D

 36 35  0     1  0  0  0  0  0999 V2000
   -3.9951   -4.1352    2.0179 H   0  0  0  0  0  0  0  0  0  0  0  0
   -4.0357   -3.1329    1.5824 C   0  0  0  0  0  0  0  0  0  0  0  0
   -4.7223   -2.5210    2.1724 H   0  0  0  0  0  0  0  0  0  0  0  0
   -4.4128   -3.2087    0.5597 H   0  0  0  0  0  0  0  0  0  0  0  0
   -2.6541   -2.5079    1.5808 C   0  0  0  0  0  0  0  0  0  0  0  0
   -1.6935   -3.1333    2.0044 O   0  0  0  0  0  0  0  0  0  0  0  0
   -2.4720   -1.2288    1.0935 N   0  0  0  0  0  0  0  0  0  0  0  0
   -3.3016   -0.7126    0.8018 H   0  0  0  0  0  0  0  0  0  0  0  0
   -1.2003   -0.4958    1.1570 C   0  0  1  0  0  0  0  0  0  0  0  0
   -0.5455   -0.9733    1.8925 H   0  0  0  0  0  0  0  0  0  0  0  0
   -0.5470   -0.5640   -0.2440 C   0  0  0  0  0  0  0  0  0  0  0  0
   -1.0290   -1.3590   -0.8245 H   0  0  0  0  0  0  0  0  0  0  0  0
   -0.7138    0.3694   -0.7937 H   0  0  0  0  0  0  0  0  0  0  0  0
    0.9497   -0.8915   -0.1882 C   0  0  0  0  0  0  0  0  0  0  0  0
    1.1223   -1.7462    0.4761 H   0  0  0  0  0  0  0  0  0  0  0  0
    1.2801   -1.1796   -1.1921 H   0  0  0  0  0  0  0  0  0  0  0  0
    1.7475    0.3270    0.2728 C   0  0  0  0  0  0  0  0  0  0  0  0
    1.5291    1.1676   -0.3956 H   0  0  0  0  0  0  0  0  0  0  0  0
    1.4374    0.6009    1.2866 H   0  0  0  0  0  0  0  0  0  0  0  0
    3.1897    0.0239    0.2516 N   0  3  0  0  0  0  0  0  0  0  0  0
    3.4615   -0.9280    0.0073 H   0  0  0  0  0  0  0  0  0  0  0  0
    4.1120    0.9051    0.5112 C   0  0  0  0  0  0  0  0  0  0  0  0
    3.7995    2.2093    0.8227 N   0  0  0  0  0  0  0  0  0  0  0  0
    2.8387    2.5142    0.6784 H   0  0  0  0  0  0  0  0  0  0  0  0
    4.5352    2.9114    0.7733 H   0  0  0  0  0  0  0  0  0  0  0  0
    5.4350    0.5339    0.4741 N   0  0  0  0  0  0  0  0  0  0  0  0
    5.6665   -0.4560    0.4143 H   0  0  0  0  0  0  0  0  0  0  0  0
    6.1291    1.1635    0.8728 H   0  0  0  0  0  0  0  0  0  0  0  0
   -1.4078    0.9594    1.6205 C   0  0  0  0  0  0  0  0  0  0  0  0
   -2.2472    1.6586    1.0710 O   0  0  0  0  0  0  0  0  0  0  0  0
   -0.5732    1.5169    2.5745 N   0  0  0  0  0  0  0  0  0  0  0  0
   -0.0653    0.8581    3.1591 H   0  0  0  0  0  0  0  0  0  0  0  0
   -0.8075    2.8557    3.1101 C   0  0  0  0  0  0  0  0  0  0  0  0
   -1.7860    2.9071    3.6003 H   0  0  0  0  0  0  0  0  0  0  0  0
   -0.0386    3.1112    3.8457 H   0  0  0  0  0  0  0  0  0  0  0  0
   -0.7789    3.6029    2.3096 H   0  0  0  0  0  0  0  0  0  0  0  0
  1  2  1  0  0  0  0
  2  3  1  0  0  0  0
  2  4  1  0  0  0  0
  2  5  1  0  0  0  0
  5  6  2  0  0  0  0
  5  7  1  0  0  0  0
  7  8  1  0  0  0  0
  7  9  1  0  0  0  0
  9 10  1  0  0  0  0
  9 11  1  0  0  0  0
  9 29  1  0  0  0  0
 11 12  1  0  0  0  0
 11 13  1  0  0  0  0
 11 14  1  0  0  0  0
 14 15  1  0  0  0  0
 14 16  1  0  0  0  0
 14 17  1  0  0  0  0
 17 18  1  0  0  0  0
 17 19  1  0  0  0  0
 17 20  1  0  0  0  0
 20 21  1  0  0  0  0
 20 22  2  0  0  0  0
 22 23  1  0  0  0  0
 22 26  1  0  0  0  0
 23 24  1  0  0  0  0
 23 25  1  0  0  0  0
 26 27  1  0  0  0  0
 26 28  1  0  0  0  0
 29 30  2  0  0  0  0
 29 31  1  0  0  0  0
 31 32  1  0  0  0  0
 31 33  1  0  0  0  0
 33 34  1  0  0  0  0
 33 35  1  0  0  0  0
 33 36  1  0  0  0  0
M  CHG  1  20   1
M  END
$$$$

  -OEChem-03222214013D

 36 35  0     1  0  0  0  0  0999 V2000
   -4.1363   -4.1244    1.7103 H   0  0  0  0  0  0  0  0  0  0  0  0
   -4.1320   -3.0976    1.3338 C   0  0  0  0  0  0  0  0  0  0  0  0
   -4.8455   -2.5076    1.9144 H   0  0  0  0  0  0  0  0  0  0  0  0
   -4.4433   -3.1059    0.2864 H   0  0  0  0  0  0  0  0  0  0  0  0
   -2.7429   -2.5020    1.4581 C   0  0  0  0  0  0  0  0  0  0  0  0
   -1.8283   -3.1627    1.9279 O   0  0  0  0  0  0  0  0  0  0  0  0
   -2.5004   -1.2100    1.0352 N   0  0  0  0  0  0  0  0  0  0  0  0
   -3.2952   -0.6658    0.7003 H   0  0  0  0  0  0  0  0  0  0  0  0
   -1.2261   -0.5057    1.2300 C   0  0  1  0  0  0  0  0  0  0  0  0
   -0.6408   -1.0240    1.9959 H   0  0  0  0  0  0  0  0  0  0  0  0
   -0.4642   -0.5379   -0.1173 C   0  0  0  0  0  0  0  0  0  0  0  0
   -0.9181   -1.2858   -0.7774 H   0  0  0  0  0  0  0  0  0  0  0  0
   -0.5614    0.4284   -0.6250 H   0  0  0  0  0  0  0  0  0  0  0  0
    1.0195   -0.8977    0.0295 C   0  0  0  0  0  0  0  0  0  0  0  0
    1.1048   -1.9036    0.4564 H   0  0  0  0  0  0  0  0  0  0  0  0
    1.4751   -0.9181   -0.9667 H   0  0  0  0  0  0  0  0  0  0  0  0
    1.7569    0.1077    0.9131 C   0  0  0  0  0  0  0  0  0  0  0  0
    1.5809    1.1155    0.5232 H   0  0  0  0  0  0  0  0  0  0  0  0
    1.3574    0.0623    1.9316 H   0  0  0  0  0  0  0  0  0  0  0  0
    3.1982   -0.2045    0.9286 N   0  3  0  0  0  0  0  0  0  0  0  0
    3.4550   -1.1913    0.9381 H   0  0  0  0  0  0  0  0  0  0  0  0
    4.1393    0.6956    0.9509 C   0  0  0  0  0  0  0  0  0  0  0  0
    3.8625    2.0440    0.9350 N   0  0  0  0  0  0  0  0  0  0  0  0
    2.9073    2.3323    0.7327 H   0  0  0  0  0  0  0  0  0  0  0  0
    4.6142    2.6922    0.7082 H   0  0  0  0  0  0  0  0  0  0  0  0
    5.4544    0.2981    0.9904 N   0  0  0  0  0  0  0  0  0  0  0  0
    5.6675   -0.6810    1.1716 H   0  0  0  0  0  0  0  0  0  0  0  0
    6.1656    0.9913    1.2159 H   0  0  0  0  0  0  0  0  0  0  0  0
   -1.4517    0.9354    1.7292 C   0  0  0  0  0  0  0  0  0  0  0  0
   -2.2272    1.6693    1.1329 O   0  0  0  0  0  0  0  0  0  0  0  0
   -0.6934    1.4458    2.7693 N   0  0  0  0  0  0  0  0  0  0  0  0
   -0.2476    0.7616    3.3748 H   0  0  0  0  0  0  0  0  0  0  0  0
   -0.9407    2.7764    3.3188 C   0  0  0  0  0  0  0  0  0  0  0  0
   -1.9561    2.8415    3.7250 H   0  0  0  0  0  0  0  0  0  0  0  0
   -0.2315    2.9937    4.1235 H   0  0  0  0  0  0  0  0  0  0  0  0
   -0.8253    3.5416    2.5435 H   0  0  0  0  0  0  0  0  0  0  0  0
  1  2  1  0  0  0  0
  2  3  1  0  0  0  0
  2  4  1  0  0  0  0
  2  5  1  0  0  0  0
  5  6  2  0  0  0  0
  5  7  1  0  0  0  0
  7  8  1  0  0  0  0
  7  9  1  0  0  0  0
  9 10  1  0  0  0  0
  9 11  1  0  0  0  0
  9 29  1  0  0  0  0
 11 12  1  0  0  0  0
 11 13  1  0  0  0  0
 11 14  1  0  0  0  0
 14 15  1  0  0  0  0
 14 16  1  0  0  0  0
 14 17  1  0  0  0  0
 17 18  1  0  0  0  0
 17 19  1  0  0  0  0
 17 20  1  0  0  0  0
 20 21  1  0  0  0  0
 20 22  2  0  0  0  0
 22 23  1  0  0  0  0
 22 26  1  0  0  0  0
 23 24  1  0  0  0  0
 23 25  1  0  0  0  0
 26 27  1  0  0  0  0
 26 28  1  0  0  0  0
 29 30  2  0  0  0  0
 29 31  1  0  0  0  0
 31 32  1  0  0  0  0
 31 33  1  0  0  0  0
 33 34  1  0  0  0  0
 33 35  1  0  0  0  0
 33 36  1  0  0  0  0
M  CHG  1  20   1
M  END
$$$$

  -OEChem-03222214013D

 36 35  0     1  0  0  0  0  0999 V2000
   -4.2547   -4.0595    1.2722 H   0  0  0  0  0  0  0  0  0  0  0  0
   -4.1878   -3.0132    0.9607 C   0  0  0  0  0  0  0  0  0  0  0  0
   -4.9569   -2.4405    1.4845 H   0  0  0  0  0  0  0  0  0  0  0  0
   -4.3693   -2.9547   -0.1152 H   0  0  0  0  0  0  0  0  0  0  0  0
   -2.8147   -2.4580    1.2871 C   0  0  0  0  0  0  0  0  0  0  0  0
   -1.9804   -3.1599    1.8392 O   0  0  0  0  0  0  0  0  0  0  0  0
   -2.4941   -1.1574    0.9518 N   0  0  0  0  0  0  0  0  0  0  0  0
   -3.2320   -0.5794    0.5498 H   0  0  0  0  0  0  0  0  0  0  0  0
   -1.2388   -0.4930    1.3281 C   0  0  1  0  0  0  0  0  0  0  0  0
   -0.7692   -1.0591    2.1375 H   0  0  0  0  0  0  0  0  0  0  0  0
   -0.3194   -0.4964    0.0811 C   0  0  0  0  0  0  0  0  0  0  0  0
   -0.7133   -1.1939   -0.6669 H   0  0  0  0  0  0  0  0  0  0  0  0
   -0.3373    0.4970   -0.3808 H   0  0  0  0  0  0  0  0  0  0  0  0
    1.1394   -0.8952    0.3557 C   0  0  0  0  0  0  0  0  0  0  0  0
    1.1811   -1.9807    0.5020 H   0  0  0  0  0  0  0  0  0  0  0  0
    1.7381   -0.6588   -0.5303 H   0  0  0  0  0  0  0  0  0  0  0  0
    1.7304   -0.2122    1.5918 C   0  0  0  0  0  0  0  0  0  0  0  0
    1.5615    0.8687    1.5376 H   0  0  0  0  0  0  0  0  0  0  0  0
    1.2223   -0.5781    2.4902 H   0  0  0  0  0  0  0  0  0  0  0  0
    3.1719   -0.5092    1.6904 N   0  3  0  0  0  0  0  0  0  0  0  0
    3.4292   -1.4048    2.1051 H   0  0  0  0  0  0  0  0  0  0  0  0
    4.1129    0.2917    1.2778 C   0  0  0  0  0  0  0  0  0  0  0  0
    3.8324    1.4987    0.6777 N   0  0  0  0  0  0  0  0  0  0  0  0
    2.8692    1.6827    0.4035 H   0  0  0  0  0  0  0  0  0  0  0  0
    4.5738    1.9755    0.1681 H   0  0  0  0  0  0  0  0  0  0  0  0
    5.4285   -0.0741    1.4342 N   0  0  0  0  0  0  0  0  0  0  0  0
    5.6486   -0.8719    2.0275 H   0  0  0  0  0  0  0  0  0  0  0  0
    6.1495    0.6321    1.2976 H   0  0  0  0  0  0  0  0  0  0  0  0
   -1.4922    0.9335    1.8556 C   0  0  0  0  0  0  0  0  0  0  0  0
   -2.1777    1.7067    1.2014 O   0  0  0  0  0  0  0  0  0  0  0  0
   -0.8555    1.3848    2.9991 N   0  0  0  0  0  0  0  0  0  0  0  0
   -0.4886    0.6708    3.6223 H   0  0  0  0  0  0  0  0  0  0  0  0
   -1.1311    2.7024    3.5662 C   0  0  0  0  0  0  0  0  0  0  0  0
   -2.1832    2.7810    3.8612 H   0  0  0  0  0  0  0  0  0  0  0  0
   -0.5098    2.8738    4.4508 H   0  0  0  0  0  0  0  0  0  0  0  0
   -0.9132    3.4897    2.8365 H   0  0  0  0  0  0  0  0  0  0  0  0
  1  2  1  0  0  0  0
  2  3  1  0  0  0  0
  2  4  1  0  0  0  0
  2  5  1  0  0  0  0
  5  6  2  0  0  0  0
  5  7  1  0  0  0  0
  7  8  1  0  0  0  0
  7  9  1  0  0  0  0
  9 10  1  0  0  0  0
  9 11  1  0  0  0  0
  9 29  1  0  0  0  0
 11 12  1  0  0  0  0
 11 13  1  0  0  0  0
 11 14  1  0  0  0  0
 14 15  1  0  0  0  0
 14 16  1  0  0  0  0
 14 17  1  0  0  0  0
 17 18  1  0  0  0  0
 17 19  1  0  0  0  0
 17 20  1  0  0  0  0
 20 21  1  0  0  0  0
 20 22  2  0  0  0  0
 22 23  1  0  0  0  0
 22 26  1  0  0  0  0
 23 24  1  0  0  0  0
 23 25  1  0  0  0  0
 26 27  1  0  0  0  0
 26 28  1  0  0  0  0
 29 30  2  0  0  0  0
 29 31  1  0  0  0  0
 31 32  1  0  0  0  0
 31 33  1  0  0  0  0
 33 34  1  0  0  0  0
 33 35  1  0  0  0  0
 33 36  1  0  0  0  0
M  CHG  1  20   1
M  END
$$$$

  -OEChem-03222214013D

 36 35  0     1  0  0  0  0  0999 V2000
   -4.4222   -3.9728    1.2576 H   0  0  0  0  0  0  0  0  0  0  0  0
   -4.2961   -2.9437    0.9093 C   0  0  0  0  0  0  0  0  0  0  0  0
   -5.0613   -2.3184    1.3757 H   0  0  0  0  0  0  0  0  0  0  0  0
   -4.4281   -2.9207   -0.1751 H   0  0  0  0  0  0  0  0  0  0  0  0
   -2.9153   -2.4339    1.2746 C   0  0  0  0  0  0  0  0  0  0  0  0
   -2.1288   -3.1554    1.8704 O   0  0  0  0  0  0  0  0  0  0  0  0
   -2.5342   -1.1531    0.9257 N   0  0  0  0  0  0  0  0  0  0  0  0
   -3.2341   -0.5575    0.4835 H   0  0  0  0  0  0  0  0  0  0  0  0
   -1.2670   -0.5292    1.3302 C   0  0  1  0  0  0  0  0  0  0  0  0
   -0.8591   -1.0984    2.1685 H   0  0  0  0  0  0  0  0  0  0  0  0
   -0.3071   -0.5955    0.1134 C   0  0  0  0  0  0  0  0  0  0  0  0
   -0.7121   -1.2811   -0.6397 H   0  0  0  0  0  0  0  0  0  0  0  0
   -0.2772    0.3928   -0.3587 H   0  0  0  0  0  0  0  0  0  0  0  0
    1.1397   -1.0405    0.4042 C   0  0  0  0  0  0  0  0  0  0  0  0
    1.1842   -2.1313    0.3061 H   0  0  0  0  0  0  0  0  0  0  0  0
    1.7940   -0.6177   -0.3654 H   0  0  0  0  0  0  0  0  0  0  0  0
    1.6555   -0.6739    1.7985 C   0  0  0  0  0  0  0  0  0  0  0  0
    1.4882    0.3911    1.9909 H   0  0  0  0  0  0  0  0  0  0  0  0
    1.0985   -1.2385    2.5539 H   0  0  0  0  0  0  0  0  0  0  0  0
    3.0896   -1.0020    1.9058 N   0  3  0  0  0  0  0  0  0  0  0  0
    3.3226   -1.9695    2.1307 H   0  0  0  0  0  0  0  0  0  0  0  0
    4.0522   -0.1428    1.7251 C   0  0  0  0  0  0  0  0  0  0  0  0
    3.8049    1.1696    1.3900 N   0  0  0  0  0  0  0  0  0  0  0  0
    2.8583    1.4196    1.1108 H   0  0  0  0  0  0  0  0  0  0  0  0
    4.5729    1.7365    1.0356 H   0  0  0  0  0  0  0  0  0  0  0  0
    5.3574   -0.5510    1.8627 N   0  0  0  0  0  0  0  0  0  0  0  0
    5.5463   -1.4629    2.2748 H   0  0  0  0  0  0  0  0  0  0  0  0
    6.0862    0.1583    1.9188 H   0  0  0  0  0  0  0  0  0  0  0  0
   -1.4748    0.9166    1.8238 C   0  0  0  0  0  0  0  0  0  0  0  0
   -2.1157    1.7037    1.1418 O   0  0  0  0  0  0  0  0  0  0  0  0
   -0.8528    1.3604    2.9784 N   0  0  0  0  0  0  0  0  0  0  0  0
   -0.5326    0.6415    3.6213 H   0  0  0  0  0  0  0  0  0  0  0  0
   -1.1010    2.6933    3.5222 C   0  0  0  0  0  0  0  0  0  0  0  0
   -2.1629    2.8194    3.7605 H   0  0  0  0  0  0  0  0  0  0  0  0
   -0.5212    2.8447    4.4380 H   0  0  0  0  0  0  0  0  0  0  0  0
   -0.8108    3.4646    2.8006 H   0  0  0  0  0  0  0  0  0  0  0  0
  1  2  1  0  0  0  0
  2  3  1  0  0  0  0
  2  4  1  0  0  0  0
  2  5  1  0  0  0  0
  5  6  2  0  0  0  0
  5  7  1  0  0  0  0
  7  8  1  0  0  0  0
  7  9  1  0  0  0  0
  9 10  1  0  0  0  0
  9 11  1  0  0  0  0
  9 29  1  0  0  0  0
 11 12  1  0  0  0  0
 11 13  1  0  0  0  0
 11 14  1  0  0  0  0
 14 15  1  0  0  0  0
 14 16  1  0  0  0  0
 14 17  1  0  0  0  0
 17 18  1  0  0  0  0
 17 19  1  0  0  0  0
 17 20  1  0  0  0  0
 20 21  1  0  0  0  0
 20 22  2  0  0  0  0
 22 23  1  0  0  0  0
 22 26  1  0  0  0  0
 23 24  1  0  0  0  0
 23 25  1  0  0  0  0
 26 27  1  0  0  0  0
 26 28  1  0  0  0  0
 29 30  2  0  0  0  0
 29 31  1  0  0  0  0
 31 32  1  0  0  0  0
 31 33  1  0  0  0  0
 33 34  1  0  0  0  0
 33 35  1  0  0  0  0
 33 36  1  0  0  0  0
M  CHG  1  20   1
M  END
$$$$

  -OEChem-03222214013D

 36 35  0     1  0  0  0  0  0999 V2000
   -2.6970   -4.3595    2.7173 H   0  0  0  0  0  0  0  0  0  0  0  0
   -3.0183   -3.4723    2.1649 C   0  0  0  0  0  0  0  0  0  0  0  0
   -3.8294   -2.9896    2.7157 H   0  0  0  0  0  0  0  0  0  0  0  0
   -3.3901   -3.7836    1.1855 H   0  0  0  0  0  0  0  0  0  0  0  0
   -1.8593   -2.5090    1.9977 C   0  0  0  0  0  0  0  0  0  0  0  0
   -0.7511   -2.7748    2.4555 O   0  0  0  0  0  0  0  0  0  0  0  0
   -2.0209   -1.3387    1.2833 N   0  0  0  0  0  0  0  0  0  0  0  0
   -2.9622   -1.1026    0.9642 H   0  0  0  0  0  0  0  0  0  0  0  0
   -1.0140   -0.2711    1.2531 C   0  0  1  0  0  0  0  0  0  0  0  0
   -0.3615   -0.4137    2.1107 H   0  0  0  0  0  0  0  0  0  0  0  0
   -0.2474   -0.3893   -0.0893 C   0  0  0  0  0  0  0  0  0  0  0  0
   -0.4945   -1.3451   -0.5650 H   0  0  0  0  0  0  0  0  0  0  0  0
   -0.6276    0.3866   -0.7638 H   0  0  0  0  0  0  0  0  0  0  0  0
    1.2956   -0.2802   -0.0614 C   0  0  0  0  0  0  0  0  0  0  0  0
    1.6761   -1.2941   -0.2281 H   0  0  0  0  0  0  0  0  0  0  0  0
    1.6227    0.3171   -0.9200 H   0  0  0  0  0  0  0  0  0  0  0  0
    1.9564    0.2838    1.2087 C   0  0  0  0  0  0  0  0  0  0  0  0
    2.1830    1.3437    1.0462 H   0  0  0  0  0  0  0  0  0  0  0  0
    1.3015    0.2340    2.0769 H   0  0  0  0  0  0  0  0  0  0  0  0
    3.1941   -0.4586    1.5144 N   0  3  0  0  0  0  0  0  0  0  0  0
    4.0655   -0.0707    1.1542 H   0  0  0  0  0  0  0  0  0  0  0  0
    3.2323   -1.5490    2.2312 C   0  0  0  0  0  0  0  0  0  0  0  0
    2.1030   -2.1615    2.7320 N   0  0  0  0  0  0  0  0  0  0  0  0
    1.1911   -1.9288    2.3315 H   0  0  0  0  0  0  0  0  0  0  0  0
    2.1918   -3.0948    3.1274 H   0  0  0  0  0  0  0  0  0  0  0  0
    4.4504   -2.1210    2.5105 N   0  0  0  0  0  0  0  0  0  0  0  0
    5.2989   -1.5951    2.3114 H   0  0  0  0  0  0  0  0  0  0  0  0
    4.4932   -2.8476    3.2228 H   0  0  0  0  0  0  0  0  0  0  0  0
   -1.6701    1.1145    1.4339 C   0  0  0  0  0  0  0  0  0  0  0  0
   -2.7030    1.3662    0.8299 O   0  0  0  0  0  0  0  0  0  0  0  0
   -1.1317    2.0596    2.2898 N   0  0  0  0  0  0  0  0  0  0  0  0
   -0.3597    1.7809    2.8859 H   0  0  0  0  0  0  0  0  0  0  0  0
   -1.7699    3.3496    2.5389 C   0  0  0  0  0  0  0  0  0  0  0  0
   -2.7501    3.2100    3.0073 H   0  0  0  0  0  0  0  0  0  0  0  0
   -1.1514    3.9581    3.2058 H   0  0  0  0  0  0  0  0  0  0  0  0
   -1.9056    3.8994    1.6011 H   0  0  0  0  0  0  0  0  0  0  0  0
  1  2  1  0  0  0  0
  2  3  1  0  0  0  0
  2  4  1  0  0  0  0
  2  5  1  0  0  0  0
  5  6  2  0  0  0  0
  5  7  1  0  0  0  0
  7  8  1  0  0  0  0
  7  9  1  0  0  0  0
  9 10  1  0  0  0  0
  9 11  1  0  0  0  0
  9 29  1  0  0  0  0
 11 12  1  0  0  0  0
 11 13  1  0  0  0  0
 11 14  1  0  0  0  0
 14 15  1  0  0  0  0
 14 16  1  0  0  0  0
 14 17  1  0  0  0  0
 17 18  1  0  0  0  0
 17 19  1  0  0  0  0
 17 20  1  0  0  0  0
 20 21  1  0  0  0  0
 20 22  2  0  0  0  0
 22 23  1  0  0  0  0
 22 26  1  0  0  0  0
 23 24  1  0  0  0  0
 23 25  1  0  0  0  0
 26 27  1  0  0  0  0
 26 28  1  0  0  0  0
 29 30  2  0  0  0  0
 29 31  1  0  0  0  0
 31 32  1  0  0  0  0
 31 33  1  0  0  0  0
 33 34  1  0  0  0  0
 33 35  1  0  0  0  0
 33 36  1  0  0  0  0
M  CHG  1  20   1
M  END
$$$$

  -OEChem-03222214013D

 36 35  0     1  0  0  0  0  0999 V2000
   -2.9430   -4.2551    2.7754 H   0  0  0  0  0  0  0  0  0  0  0  0
   -3.1979   -3.3870    2.1614 C   0  0  0  0  0  0  0  0  0  0  0  0
   -4.0075   -2.8376    2.6486 H   0  0  0  0  0  0  0  0  0  0  0  0
   -3.5428   -3.7354    1.1845 H   0  0  0  0  0  0  0  0  0  0  0  0
   -1.9882   -2.4879    1.9950 C   0  0  0  0  0  0  0  0  0  0  0  0
   -0.9025   -2.7988    2.4806 O   0  0  0  0  0  0  0  0  0  0  0  0
   -2.0753   -1.3301    1.2483 N   0  0  0  0  0  0  0  0  0  0  0  0
   -2.9975   -1.0545    0.9055 H   0  0  0  0  0  0  0  0  0  0  0  0
   -1.0403   -0.2903    1.2851 C   0  0  1  0  0  0  0  0  0  0  0  0
   -0.4726   -0.4191    2.2012 H   0  0  0  0  0  0  0  0  0  0  0  0
   -0.1743   -0.4443    0.0075 C   0  0  0  0  0  0  0  0  0  0  0  0
   -0.4087   -1.4096   -0.4557 H   0  0  0  0  0  0  0  0  0  0  0  0
   -0.4888    0.3158   -0.7170 H   0  0  0  0  0  0  0  0  0  0  0  0
    1.3680   -0.3803    0.1354 C   0  0  0  0  0  0  0  0  0  0  0  0
    1.7552   -1.3175   -0.2799 H   0  0  0  0  0  0  0  0  0  0  0  0
    1.7361    0.4216   -0.5142 H   0  0  0  0  0  0  0  0  0  0  0  0
    1.9714   -0.1683    1.5351 C   0  0  0  0  0  0  0  0  0  0  0  0
    2.1951    0.8951    1.6773 H   0  0  0  0  0  0  0  0  0  0  0  0
    1.2858   -0.4651    2.3269 H   0  0  0  0  0  0  0  0  0  0  0  0
    3.1921   -0.9806    1.6837 N   0  3  0  0  0  0  0  0  0  0  0  0
    4.0679   -0.5693    1.3629 H   0  0  0  0  0  0  0  0  0  0  0  0
    3.1951   -2.1837    2.1900 C   0  0  0  0  0  0  0  0  0  0  0  0
    2.0493   -2.8238    2.6165 N   0  0  0  0  0  0  0  0  0  0  0  0
    1.1313   -2.4373    2.3770 H   0  0  0  0  0  0  0  0  0  0  0  0
    2.0885   -3.8179    2.8278 H   0  0  0  0  0  0  0  0  0  0  0  0
    4.3890   -2.8542    2.3090 N   0  0  0  0  0  0  0  0  0  0  0  0
    5.2566   -2.3383    2.1788 H   0  0  0  0  0  0  0  0  0  0  0  0
    4.4154   -3.6980    2.8785 H   0  0  0  0  0  0  0  0  0  0  0  0
   -1.6805    1.1103    1.3937 C   0  0  0  0  0  0  0  0  0  0  0  0
   -2.6723    1.3640    0.7243 O   0  0  0  0  0  0  0  0  0  0  0  0
   -1.1946    2.0580    2.2772 N   0  0  0  0  0  0  0  0  0  0  0  0
   -0.4511    1.7850    2.9116 H   0  0  0  0  0  0  0  0  0  0  0  0
   -1.8419    3.3517    2.4784 C   0  0  0  0  0  0  0  0  0  0  0  0
   -2.8517    3.2172    2.8810 H   0  0  0  0  0  0  0  0  0  0  0  0
   -1.2667    3.9600    3.1833 H   0  0  0  0  0  0  0  0  0  0  0  0
   -1.9125    3.8980    1.5315 H   0  0  0  0  0  0  0  0  0  0  0  0
  1  2  1  0  0  0  0
  2  3  1  0  0  0  0
  2  4  1  0  0  0  0
  2  5  1  0  0  0  0
  5  6  2  0  0  0  0
  5  7  1  0  0  0  0
  7  8  1  0  0  0  0
  7  9  1  0  0  0  0
  9 10  1  0  0  0  0
  9 11  1  0  0  0  0
  9 29  1  0  0  0  0
 11 12  1  0  0  0  0
 11 13  1  0  0  0  0
 11 14  1  0  0  0  0
 14 15  1  0  0  0  0
 14 16  1  0  0  0  0
 14 17  1  0  0  0  0
 17 18  1  0  0  0  0
 17 19  1  0  0  0  0
 17 20  1  0  0  0  0
 20 21  1  0  0  0  0
 20 22  2  0  0  0  0
 22 23  1  0  0  0  0
 22 26  1  0  0  0  0
 23 24  1  0  0  0  0
 23 25  1  0  0  0  0
 26 27  1  0  0  0  0
 26 28  1  0  0  0  0
 29 30  2  0  0  0  0
 29 31  1  0  0  0  0
 31 32  1  0  0  0  0
 31 33  1  0  0  0  0
 33 34  1  0  0  0  0
 33 35  1  0  0  0  0
 33 36  1  0  0  0  0
M  CHG  1  20   1
M  END
$$$$

  -OEChem-03222214013D

 36 35  0     1  0  0  0  0  0999 V2000
   -3.0797   -4.2469    2.7252 H   0  0  0  0  0  0  0  0  0  0  0  0
   -3.2966   -3.3703    2.1086 C   0  0  0  0  0  0  0  0  0  0  0  0
   -4.0947   -2.7951    2.5848 H   0  0  0  0  0  0  0  0  0  0  0  0
   -3.6383   -3.7057    1.1262 H   0  0  0  0  0  0  0  0  0  0  0  0
   -2.0565   -2.5105    1.9602 C   0  0  0  0  0  0  0  0  0  0  0  0
   -0.9834   -2.8668    2.4433 O   0  0  0  0  0  0  0  0  0  0  0  0
   -2.0979   -1.3472    1.2187 N   0  0  0  0  0  0  0  0  0  0  0  0
   -3.0085   -1.0407    0.8709 H   0  0  0  0  0  0  0  0  0  0  0  0
   -1.0430   -0.3299    1.2984 C   0  0  1  0  0  0  0  0  0  0  0  0
   -0.5091   -0.4622    2.2354 H   0  0  0  0  0  0  0  0  0  0  0  0
   -0.1355   -0.4887    0.0490 C   0  0  0  0  0  0  0  0  0  0  0  0
   -0.3617   -1.4582   -0.4093 H   0  0  0  0  0  0  0  0  0  0  0  0
   -0.4125    0.2661   -0.6962 H   0  0  0  0  0  0  0  0  0  0  0  0
    1.3996   -0.4557    0.2435 C   0  0  0  0  0  0  0  0  0  0  0  0
    1.8288   -1.2295   -0.4028 H   0  0  0  0  0  0  0  0  0  0  0  0
    1.7745    0.5053   -0.1254 H   0  0  0  0  0  0  0  0  0  0  0  0
    1.9123   -0.6317    1.6826 C   0  0  0  0  0  0  0  0  0  0  0  0
    2.1363    0.3492    2.1164 H   0  0  0  0  0  0  0  0  0  0  0  0
    1.1575   -1.1077    2.3098 H   0  0  0  0  0  0  0  0  0  0  0  0
    3.1067   -1.4940    1.6990 N   0  3  0  0  0  0  0  0  0  0  0  0
    3.9921   -1.0713    1.4230 H   0  0  0  0  0  0  0  0  0  0  0  0
    3.0702   -2.7574    2.0241 C   0  0  0  0  0  0  0  0  0  0  0  0
    1.9077   -3.4067    2.3858 N   0  0  0  0  0  0  0  0  0  0  0  0
    1.0040   -2.9323    2.2855 H   0  0  0  0  0  0  0  0  0  0  0  0
    1.9002   -4.4218    2.4447 H   0  0  0  0  0  0  0  0  0  0  0  0
    4.2362   -3.4851    2.0078 N   0  0  0  0  0  0  0  0  0  0  0  0
    5.1225   -2.9908    1.9300 H   0  0  0  0  0  0  0  0  0  0  0  0
    4.2380   -4.4052    2.4441 H   0  0  0  0  0  0  0  0  0  0  0  0
   -1.6592    1.0819    1.3962 C   0  0  0  0  0  0  0  0  0  0  0  0
   -2.6236    1.3592    0.6968 O   0  0  0  0  0  0  0  0  0  0  0  0
   -1.1849    2.0132    2.3029 N   0  0  0  0  0  0  0  0  0  0  0  0
   -0.4544    1.7280    2.9472 H   0  0  0  0  0  0  0  0  0  0  0  0
   -1.7978    3.3271    2.4783 C   0  0  0  0  0  0  0  0  0  0  0  0
   -2.8348    3.2258    2.8164 H   0  0  0  0  0  0  0  0  0  0  0  0
   -1.2466    3.9087    3.2238 H   0  0  0  0  0  0  0  0  0  0  0  0
   -1.7901    3.8833    1.5345 H   0  0  0  0  0  0  0  0  0  0  0  0
  1  2  1  0  0  0  0
  2  3  1  0  0  0  0
  2  4  1  0  0  0  0
  2  5  1  0  0  0  0
  5  6  2  0  0  0  0
  5  7  1  0  0  0  0
  7  8  1  0  0  0  0
  7  9  1  0  0  0  0
  9 10  1  0  0  0  0
  9 11  1  0  0  0  0
  9 29  1  0  0  0  0
 11 12  1  0  0  0  0
 11 13  1  0  0  0  0
 11 14  1  0  0  0  0
 14 15  1  0  0  0  0
 14 16  1  0  0  0  0
 14 17  1  0  0  0  0
 17 18  1  0  0  0  0
 17 19  1  0  0  0  0
 17 20  1  0  0  0  0
 20 21  1  0  0  0  0
 20 22  2  0  0  0  0
 22 23  1  0  0  0  0
 22 26  1  0  0  0  0
 23 24  1  0  0  0  0
 23 25  1  0  0  0  0
 26 27  1  0  0  0  0
 26 28  1  0  0  0  0
 29 30  2  0  0  0  0
 29 31  1  0  0  0  0
 31 32  1  0  0  0  0
 31 33  1  0  0  0  0
 33 34  1  0  0  0  0
 33 35  1  0  0  0  0
 33 36  1  0  0  0  0
M  CHG  1  20   1
M  END
$$$$

  -OEChem-03222214013D

 36 35  0     1  0  0  0  0  0999 V2000
   -3.1444   -4.2750    2.6405 H   0  0  0  0  0  0  0  0  0  0  0  0
   -3.3366   -3.3792    2.0438 C   0  0  0  0  0  0  0  0  0  0  0  0
   -4.1190   -2.7930    2.5326 H   0  0  0  0  0  0  0  0  0  0  0  0
   -3.6860   -3.6826    1.0537 H   0  0  0  0  0  0  0  0  0  0  0  0
   -2.0733   -2.5506    1.9166 C   0  0  0  0  0  0  0  0  0  0  0  0
   -1.0119   -2.9503    2.3887 O   0  0  0  0  0  0  0  0  0  0  0  0
   -2.0831   -1.3712    1.2021 N   0  0  0  0  0  0  0  0  0  0  0  0
   -2.9865   -1.0404    0.8577 H   0  0  0  0  0  0  0  0  0  0  0  0
   -1.0144   -0.3690    1.2998 C   0  0  1  0  0  0  0  0  0  0  0  0
   -0.4725   -0.5211    2.2322 H   0  0  0  0  0  0  0  0  0  0  0  0
   -0.1055   -0.5083    0.0507 C   0  0  0  0  0  0  0  0  0  0  0  0
   -0.3308   -1.4690   -0.4257 H   0  0  0  0  0  0  0  0  0  0  0  0
   -0.3656    0.2635   -0.6827 H   0  0  0  0  0  0  0  0  0  0  0  0
    1.4208   -0.4894    0.2824 C   0  0  0  0  0  0  0  0  0  0  0  0
    1.8966   -1.0344   -0.5404 H   0  0  0  0  0  0  0  0  0  0  0  0
    1.7672    0.5480    0.2197 H   0  0  0  0  0  0  0  0  0  0  0  0
    1.8760   -1.0528    1.6389 C   0  0  0  0  0  0  0  0  0  0  0  0
    2.1832   -0.2289    2.2924 H   0  0  0  0  0  0  0  0  0  0  0  0
    1.0482   -1.5721    2.1269 H   0  0  0  0  0  0  0  0  0  0  0  0
    2.9865   -2.0055    1.4622 N   0  3  0  0  0  0  0  0  0  0  0  0
    3.8689   -1.6312    1.1165 H   0  0  0  0  0  0  0  0  0  0  0  0
    2.8870   -3.2827    1.7074 C   0  0  0  0  0  0  0  0  0  0  0  0
    1.7272   -3.8720    2.1620 N   0  0  0  0  0  0  0  0  0  0  0  0
    0.8602   -3.3239    2.1836 H   0  0  0  0  0  0  0  0  0  0  0  0
    1.6392   -4.8843    2.1302 H   0  0  0  0  0  0  0  0  0  0  0  0
    3.9823   -4.0884    1.5078 N   0  0  0  0  0  0  0  0  0  0  0  0
    4.8904   -3.6527    1.3621 H   0  0  0  0  0  0  0  0  0  0  0  0
    3.9611   -5.0330    1.8873 H   0  0  0  0  0  0  0  0  0  0  0  0
   -1.6164    1.0468    1.4204 C   0  0  0  0  0  0  0  0  0  0  0  0
   -2.5855    1.3400    0.7337 O   0  0  0  0  0  0  0  0  0  0  0  0
   -1.1336    1.9577    2.3431 N   0  0  0  0  0  0  0  0  0  0  0  0
   -0.3915    1.6610    2.9691 H   0  0  0  0  0  0  0  0  0  0  0  0
   -1.7372    3.2715    2.5478 C   0  0  0  0  0  0  0  0  0  0  0  0
   -2.7731    3.1695    2.8887 H   0  0  0  0  0  0  0  0  0  0  0  0
   -1.1787    3.8340    3.3023 H   0  0  0  0  0  0  0  0  0  0  0  0
   -1.7307    3.8468    1.6157 H   0  0  0  0  0  0  0  0  0  0  0  0
  1  2  1  0  0  0  0
  2  3  1  0  0  0  0
  2  4  1  0  0  0  0
  2  5  1  0  0  0  0
  5  6  2  0  0  0  0
  5  7  1  0  0  0  0
  7  8  1  0  0  0  0
  7  9  1  0  0  0  0
  9 10  1  0  0  0  0
  9 11  1  0  0  0  0
  9 29  1  0  0  0  0
 11 12  1  0  0  0  0
 11 13  1  0  0  0  0
 11 14  1  0  0  0  0
 14 15  1  0  0  0  0
 14 16  1  0  0  0  0
 14 17  1  0  0  0  0
 17 18  1  0  0  0  0
 17 19  1  0  0  0  0
 17 20  1  0  0  0  0
 20 21  1  0  0  0  0
 20 22  2  0  0  0  0
 22 23  1  0  0  0  0
 22 26  1  0  0  0  0
 23 24  1  0  0  0  0
 23 25  1  0  0  0  0
 26 27  1  0  0  0  0
 26 28  1  0  0  0  0
 29 30  2  0  0  0  0
 29 31  1  0  0  0  0
 31 32  1  0  0  0  0
 31 33  1  0  0  0  0
 33 34  1  0  0  0  0
 33 35  1  0  0  0  0
 33 36  1  0  0  0  0
M  CHG  1  20   1
M  END
$$$$

  -OEChem-03222214013D

 36 35  0     1  0  0  0  0  0999 V2000
   -2.9167   -4.5278    2.1491 H   0  0  0  0  0  0  0  0  0  0  0  0
   -3.0931   -3.6031    1.5930 C   0  0  0  0  0  0  0  0  0  0  0  0
   -3.9740   -3.1067    2.0083 H   0  0  0  0  0  0  0  0  0  0  0  0
   -3.2868   -3.8519    0.5466 H   0  0  0  0  0  0  0  0  0  0  0  0
   -1.8878   -2.6887    1.6950 C   0  0  0  0  0  0  0  0  0  0  0  0
   -0.8868   -3.0447    2.3071 O   0  0  0  0  0  0  0  0  0  0  0  0
   -1.9012   -1.4572    1.0778 N   0  0  0  0  0  0  0  0  0  0  0  0
   -2.7802   -1.1571    0.6519 H   0  0  0  0  0  0  0  0  0  0  0  0
   -0.8790   -0.4198    1.2688 C   0  0  1  0  0  0  0  0  0  0  0  0
   -0.3255   -0.6186    2.1864 H   0  0  0  0  0  0  0  0  0  0  0  0
    0.0522   -0.3776    0.0300 C   0  0  0  0  0  0  0  0  0  0  0  0
   -0.1092   -1.2919   -0.5510 H   0  0  0  0  0  0  0  0  0  0  0  0
   -0.2320    0.4565   -0.6220 H   0  0  0  0  0  0  0  0  0  0  0  0
    1.5645   -0.2951    0.3195 C   0  0  0  0  0  0  0  0  0  0  0  0
    2.1234   -0.4332   -0.6123 H   0  0  0  0  0  0  0  0  0  0  0  0
    1.7706    0.7254    0.6611 H   0  0  0  0  0  0  0  0  0  0  0  0
    2.0883   -1.2491    1.4060 C   0  0  0  0  0  0  0  0  0  0  0  0
    2.9870   -0.8101    1.8535 H   0  0  0  0  0  0  0  0  0  0  0  0
    1.3559   -1.3856    2.2040 H   0  0  0  0  0  0  0  0  0  0  0  0
    2.4467   -2.5457    0.7959 N   0  3  0  0  0  0  0  0  0  0  0  0
    2.8945   -2.5112   -0.1181 H   0  0  0  0  0  0  0  0  0  0  0  0
    2.3805   -3.6906    1.4137 C   0  0  0  0  0  0  0  0  0  0  0  0
    1.7817   -3.8317    2.6413 N   0  0  0  0  0  0  0  0  0  0  0  0
    0.9774   -3.2152    2.7946 H   0  0  0  0  0  0  0  0  0  0  0  0
    1.6625   -4.7809    2.9838 H   0  0  0  0  0  0  0  0  0  0  0  0
    2.9391   -4.8021    0.8286 N   0  0  0  0  0  0  0  0  0  0  0  0
    3.5378   -4.6804    0.0147 H   0  0  0  0  0  0  0  0  0  0  0  0
    3.0638   -5.6391    1.3945 H   0  0  0  0  0  0  0  0  0  0  0  0
   -1.5578    0.9525    1.4703 C   0  0  0  0  0  0  0  0  0  0  0  0
   -2.5193    1.2487    0.7734 O   0  0  0  0  0  0  0  0  0  0  0  0
   -1.1421    1.8197    2.4649 N   0  0  0  0  0  0  0  0  0  0  0  0
   -0.3966    1.5185    3.0850 H   0  0  0  0  0  0  0  0  0  0  0  0
   -1.8049    3.0922    2.7359 C   0  0  0  0  0  0  0  0  0  0  0  0
   -2.8351    2.9253    3.0681 H   0  0  0  0  0  0  0  0  0  0  0  0
   -1.2728    3.6388    3.5206 H   0  0  0  0  0  0  0  0  0  0  0  0
   -1.8235    3.7161    1.8357 H   0  0  0  0  0  0  0  0  0  0  0  0
  1  2  1  0  0  0  0
  2  3  1  0  0  0  0
  2  4  1  0  0  0  0
  2  5  1  0  0  0  0
  5  6  2  0  0  0  0
  5  7  1  0  0  0  0
  7  8  1  0  0  0  0
  7  9  1  0  0  0  0
  9 10  1  0  0  0  0
  9 11  1  0  0  0  0
  9 29  1  0  0  0  0
 11 12  1  0  0  0  0
 11 13  1  0  0  0  0
 11 14  1  0  0  0  0
 14 15  1  0  0  0  0
 14 16  1  0  0  0  0
 14 17  1  0  0  0  0
 17 18  1  0  0  0  0
 17 19  1  0  0  0  0
 17 20  1  0  0  0  0
 20 21  1  0  0  0  0
 20 22  2  0  0  0  0
 22 23  1  0  0  0  0
 22 26  1  0  0  0  0
 23 24  1  0  0  0  0
 23 25  1  0  0  0  0
 26 27  1  0  0  0  0
 26 28  1  0  0  0  0
 29 30  2  0  0  0  0
 29 31  1  0  0  0  0
 31 32  1  0  0  0  0
 31 33  1  0  0  0  0
 33 34  1  0  0  0  0
 33 35  1  0  0  0  0
 33 36  1  0  0  0  0
M  CHG  1  20   1
M  END
$$$$

  -OEChem-03222214013D

 36 35  0     1  0  0  0  0  0999 V2000
   -3.7370   -4.2265    2.1133 H   0  0  0  0  0  0  0  0  0  0  0  0
   -3.8383   -3.2202    1.6975 C   0  0  0  0  0  0  0  0  0  0  0  0
   -4.4660   -2.6254    2.3658 H   0  0  0  0  0  0  0  0  0  0  0  0
   -4.3243   -3.2891    0.7211 H   0  0  0  0  0  0  0  0  0  0  0  0
   -2.4754   -2.5711    1.5539 C   0  0  0  0  0  0  0  0  0  0  0  0
   -1.4558   -3.1935    1.8442 O   0  0  0  0  0  0  0  0  0  0  0  0
   -2.3704   -1.2856    1.0582 N   0  0  0  0  0  0  0  0  0  0  0  0
   -3.2347   -0.7667    0.8938 H   0  0  0  0  0  0  0  0  0  0  0  0
   -1.1272   -0.5098    1.1251 C   0  0  1  0  0  0  0  0  0  0  0  0
   -0.4746   -0.9287    1.8919 H   0  0  0  0  0  0  0  0  0  0  0  0
   -0.4621   -0.5323   -0.2745 C   0  0  0  0  0  0  0  0  0  0  0  0
   -0.9315   -1.3036   -0.8959 H   0  0  0  0  0  0  0  0  0  0  0  0
   -0.6328    0.4245   -0.7810 H   0  0  0  0  0  0  0  0  0  0  0  0
    1.0466   -0.8154   -0.2174 C   0  0  0  0  0  0  0  0  0  0  0  0
    1.4597   -0.8128   -1.2319 H   0  0  0  0  0  0  0  0  0  0  0  0
    1.5563   -0.0379    0.3614 H   0  0  0  0  0  0  0  0  0  0  0  0
    1.2411   -2.1903    0.4332 C   0  0  0  0  0  0  0  0  0  0  0  0
    0.8261   -2.1784    1.4441 H   0  0  0  0  0  0  0  0  0  0  0  0
    0.6747   -2.9260   -0.1498 H   0  0  0  0  0  0  0  0  0  0  0  0
    2.6445   -2.6168    0.5167 N   0  3  0  0  0  0  0  0  0  0  0  0
    3.3526   -2.0372    0.0683 H   0  0  0  0  0  0  0  0  0  0  0  0
    2.9791   -3.7094    1.1421 C   0  0  0  0  0  0  0  0  0  0  0  0
    2.0312   -4.5051    1.7528 N   0  0  0  0  0  0  0  0  0  0  0  0
    1.0674   -4.1668    1.8007 H   0  0  0  0  0  0  0  0  0  0  0  0
    2.3275   -5.2134    2.4202 H   0  0  0  0  0  0  0  0  0  0  0  0
    4.2998   -4.0848    1.2044 N   0  0  0  0  0  0  0  0  0  0  0  0
    4.9709   -3.6110    0.6029 H   0  0  0  0  0  0  0  0  0  0  0  0
    4.5182   -5.0317    1.5092 H   0  0  0  0  0  0  0  0  0  0  0  0
   -1.4211    0.9323    1.5906 C   0  0  0  0  0  0  0  0  0  0  0  0
   -2.3931    1.5207    1.1371 O   0  0  0  0  0  0  0  0  0  0  0  0
   -0.6374    1.5492    2.5496 N   0  0  0  0  0  0  0  0  0  0  0  0
    0.1003    1.0063    2.9870 H   0  0  0  0  0  0  0  0  0  0  0  0
   -0.9233    2.8845    3.0667 C   0  0  0  0  0  0  0  0  0  0  0  0
   -1.8955    2.9016    3.5709 H   0  0  0  0  0  0  0  0  0  0  0  0
   -0.1556    3.1865    3.7858 H   0  0  0  0  0  0  0  0  0  0  0  0
   -0.9379    3.6170    2.2523 H   0  0  0  0  0  0  0  0  0  0  0  0
  1  2  1  0  0  0  0
  2  3  1  0  0  0  0
  2  4  1  0  0  0  0
  2  5  1  0  0  0  0
  5  6  2  0  0  0  0
  5  7  1  0  0  0  0
  7  8  1  0  0  0  0
  7  9  1  0  0  0  0
  9 10  1  0  0  0  0
  9 11  1  0  0  0  0
  9 29  1  0  0  0  0
 11 12  1  0  0  0  0
 11 13  1  0  0  0  0
 11 14  1  0  0  0  0
 14 15  1  0  0  0  0
 14 16  1  0  0  0  0
 14 17  1  0  0  0  0
 17 18  1  0  0  0  0
 17 19  1  0  0  0  0
 17 20  1  0  0  0  0
 20 21  1  0  0  0  0
 20 22  2  0  0  0  0
 22 23  1  0  0  0  0
 22 26  1  0  0  0  0
 23 24  1  0  0  0  0
 23 25  1  0  0  0  0
 26 27  1  0  0  0  0
 26 28  1  0  0  0  0
 29 30  2  0  0  0  0
 29 31  1  0  0  0  0
 31 32  1  0  0  0  0
 31 33  1  0  0  0  0
 33 34  1  0  0  0  0
 33 35  1  0  0  0  0
 33 36  1  0  0  0  0
M  CHG  1  20   1
M  END
$$$$

  -OEChem-03222214013D

 36 35  0     1  0  0  0  0  0999 V2000
   -3.5371   -4.5110    1.8083 H   0  0  0  0  0  0  0  0  0  0  0  0
   -3.6725   -3.4531    1.5671 C   0  0  0  0  0  0  0  0  0  0  0  0
   -4.2102   -2.9714    2.3878 H   0  0  0  0  0  0  0  0  0  0  0  0
   -4.2711   -3.3742    0.6560 H   0  0  0  0  0  0  0  0  0  0  0  0
   -2.3276   -2.7822    1.3645 C   0  0  0  0  0  0  0  0  0  0  0  0
   -1.2875   -3.4255    1.4751 O   0  0  0  0  0  0  0  0  0  0  0  0
   -2.2640   -1.4429    1.0385 N   0  0  0  0  0  0  0  0  0  0  0  0
   -3.1392   -0.9159    1.0329 H   0  0  0  0  0  0  0  0  0  0  0  0
   -1.0200   -0.6645    0.9836 C   0  0  1  0  0  0  0  0  0  0  0  0
   -0.2353   -1.1915    1.5340 H   0  0  0  0  0  0  0  0  0  0  0  0
   -0.6083   -0.4846   -0.4961 C   0  0  0  0  0  0  0  0  0  0  0  0
   -1.1828   -1.1587   -1.1418 H   0  0  0  0  0  0  0  0  0  0  0  0
   -0.8401    0.5358   -0.8223 H   0  0  0  0  0  0  0  0  0  0  0  0
    0.8888   -0.7535   -0.6899 C   0  0  0  0  0  0  0  0  0  0  0  0
    1.2163   -0.3760   -1.6648 H   0  0  0  0  0  0  0  0  0  0  0  0
    1.4618   -0.2271    0.0809 H   0  0  0  0  0  0  0  0  0  0  0  0
    1.1194   -2.2677   -0.6249 C   0  0  0  0  0  0  0  0  0  0  0  0
    0.3099   -2.7234   -0.0488 H   0  0  0  0  0  0  0  0  0  0  0  0
    1.0693   -2.6834   -1.6376 H   0  0  0  0  0  0  0  0  0  0  0  0
    2.4174   -2.5927   -0.0083 N   0  3  0  0  0  0  0  0  0  0  0  0
    3.2409   -2.1314   -0.3925 H   0  0  0  0  0  0  0  0  0  0  0  0
    2.5631   -3.4901    0.9263 C   0  0  0  0  0  0  0  0  0  0  0  0
    1.5013   -4.1748    1.4753 N   0  0  0  0  0  0  0  0  0  0  0  0
    0.5473   -3.8552    1.2734 H   0  0  0  0  0  0  0  0  0  0  0  0
    1.6436   -4.7044    2.3312 H   0  0  0  0  0  0  0  0  0  0  0  0
    3.8252   -3.7744    1.3909 N   0  0  0  0  0  0  0  0  0  0  0  0
    4.6262   -3.4359    0.8617 H   0  0  0  0  0  0  0  0  0  0  0  0
    3.9498   -4.6130    1.9552 H   0  0  0  0  0  0  0  0  0  0  0  0
   -1.2062    0.6986    1.6835 C   0  0  0  0  0  0  0  0  0  0  0  0
   -2.2413    1.3257    1.5051 O   0  0  0  0  0  0  0  0  0  0  0  0
   -0.2519    1.1885    2.5574 N   0  0  0  0  0  0  0  0  0  0  0  0
    0.5515    0.6050    2.7657 H   0  0  0  0  0  0  0  0  0  0  0  0
   -0.4315    2.4243    3.3139 C   0  0  0  0  0  0  0  0  0  0  0  0
   -1.2876    2.3381    3.9918 H   0  0  0  0  0  0  0  0  0  0  0  0
    0.4611    2.6389    3.9098 H   0  0  0  0  0  0  0  0  0  0  0  0
   -0.6036    3.2685    2.6373 H   0  0  0  0  0  0  0  0  0  0  0  0
  1  2  1  0  0  0  0
  2  3  1  0  0  0  0
  2  4  1  0  0  0  0
  2  5  1  0  0  0  0
  5  6  2  0  0  0  0
  5  7  1  0  0  0  0
  7  8  1  0  0  0  0
  7  9  1  0  0  0  0
  9 10  1  0  0  0  0
  9 11  1  0  0  0  0
  9 29  1  0  0  0  0
 11 12  1  0  0  0  0
 11 13  1  0  0  0  0
 11 14  1  0  0  0  0
 14 15  1  0  0  0  0
 14 16  1  0  0  0  0
 14 17  1  0  0  0  0
 17 18  1  0  0  0  0
 17 19  1  0  0  0  0
 17 20  1  0  0  0  0
 20 21  1  0  0  0  0
 20 22  2  0  0  0  0
 22 23  1  0  0  0  0
 22 26  1  0  0  0  0
 23 24  1  0  0  0  0
 23 25  1  0  0  0  0
 26 27  1  0  0  0  0
 26 28  1  0  0  0  0
 29 30  2  0  0  0  0
 29 31  1  0  0  0  0
 31 32  1  0  0  0  0
 31 33  1  0  0  0  0
 33 34  1  0  0  0  0
 33 35  1  0  0  0  0
 33 36  1  0  0  0  0
M  CHG  1  20   1
M  END
$$$$

  -OEChem-03222214013D

 36 35  0     1  0  0  0  0  0999 V2000
   -3.4616   -4.5594    1.6057 H   0  0  0  0  0  0  0  0  0  0  0  0
   -3.6194   -3.4898    1.4413 C   0  0  0  0  0  0  0  0  0  0  0  0
   -4.1252   -3.0709    2.3150 H   0  0  0  0  0  0  0  0  0  0  0  0
   -4.2591   -3.3598    0.5647 H   0  0  0  0  0  0  0  0  0  0  0  0
   -2.2925   -2.7885    1.2242 C   0  0  0  0  0  0  0  0  0  0  0  0
   -1.2401   -3.4212    1.2572 O   0  0  0  0  0  0  0  0  0  0  0  0
   -2.2586   -1.4386    0.9411 N   0  0  0  0  0  0  0  0  0  0  0  0
   -3.1410   -0.9253    0.9822 H   0  0  0  0  0  0  0  0  0  0  0  0
   -1.0274   -0.6393    0.9348 C   0  0  1  0  0  0  0  0  0  0  0  0
   -0.2510   -1.1755    1.4887 H   0  0  0  0  0  0  0  0  0  0  0  0
   -0.5877   -0.4402   -0.5314 C   0  0  0  0  0  0  0  0  0  0  0  0
   -1.1458   -1.1009   -1.2051 H   0  0  0  0  0  0  0  0  0  0  0  0
   -0.8190    0.5858   -0.8402 H   0  0  0  0  0  0  0  0  0  0  0  0
    0.9191   -0.6859   -0.6829 C   0  0  0  0  0  0  0  0  0  0  0  0
    1.3129   -0.0897   -1.5134 H   0  0  0  0  0  0  0  0  0  0  0  0
    1.4546   -0.3826    0.2230 H   0  0  0  0  0  0  0  0  0  0  0  0
    1.1209   -2.1721   -0.9932 C   0  0  0  0  0  0  0  0  0  0  0  0
    0.3132   -2.7448   -0.5263 H   0  0  0  0  0  0  0  0  0  0  0  0
    1.0466   -2.3294   -2.0751 H   0  0  0  0  0  0  0  0  0  0  0  0
    2.4249   -2.6474   -0.4977 N   0  3  0  0  0  0  0  0  0  0  0  0
    3.2562   -2.2072   -0.8894 H   0  0  0  0  0  0  0  0  0  0  0  0
    2.5609   -3.6302    0.3485 C   0  0  0  0  0  0  0  0  0  0  0  0
    1.4887   -4.2850    0.9136 N   0  0  0  0  0  0  0  0  0  0  0  0
    0.5525   -3.8757    0.8191 H   0  0  0  0  0  0  0  0  0  0  0  0
    1.6484   -4.8966    1.7097 H   0  0  0  0  0  0  0  0  0  0  0  0
    3.8250   -4.0412    0.6985 N   0  0  0  0  0  0  0  0  0  0  0  0
    4.6140   -3.7136    0.1450 H   0  0  0  0  0  0  0  0  0  0  0  0
    3.9222   -4.9318    1.1827 H   0  0  0  0  0  0  0  0  0  0  0  0
   -1.2393    0.7007    1.6711 C   0  0  0  0  0  0  0  0  0  0  0  0
   -2.2784    1.3208    1.4924 O   0  0  0  0  0  0  0  0  0  0  0  0
   -0.3062    1.1766    2.5751 N   0  0  0  0  0  0  0  0  0  0  0  0
    0.5029    0.5988    2.7785 H   0  0  0  0  0  0  0  0  0  0  0  0
   -0.5031    2.4001    3.3475 C   0  0  0  0  0  0  0  0  0  0  0  0
   -1.3733    2.3036    4.0057 H   0  0  0  0  0  0  0  0  0  0  0  0
    0.3763    2.6056    3.9657 H   0  0  0  0  0  0  0  0  0  0  0  0
   -0.6611    3.2547    2.6808 H   0  0  0  0  0  0  0  0  0  0  0  0
  1  2  1  0  0  0  0
  2  3  1  0  0  0  0
  2  4  1  0  0  0  0
  2  5  1  0  0  0  0
  5  6  2  0  0  0  0
  5  7  1  0  0  0  0
  7  8  1  0  0  0  0
  7  9  1  0  0  0  0
  9 10  1  0  0  0  0
  9 11  1  0  0  0  0
  9 29  1  0  0  0  0
 11 12  1  0  0  0  0
 11 13  1  0  0  0  0
 11 14  1  0  0  0  0
 14 15  1  0  0  0  0
 14 16  1  0  0  0  0
 14 17  1  0  0  0  0
 17 18  1  0  0  0  0
 17 19  1  0  0  0  0
 17 20  1  0  0  0  0
 20 21  1  0  0  0  0
 20 22  2  0  0  0  0
 22 23  1  0  0  0  0
 22 26  1  0  0  0  0
 23 24  1  0  0  0  0
 23 25  1  0  0  0  0
 26 27  1  0  0  0  0
 26 28  1  0  0  0  0
 29 30  2  0  0  0  0
 29 31  1  0  0  0  0
 31 32  1  0  0  0  0
 31 33  1  0  0  0  0
 33 34  1  0  0  0  0
 33 35  1  0  0  0  0
 33 36  1  0  0  0  0
M  CHG  1  20   1
M  END
$$$$

  -OEChem-03222214013D

 36 35  0     1  0  0  0  0  0999 V2000
   -3.3859   -4.5803    1.4912 H   0  0  0  0  0  0  0  0  0  0  0  0
   -3.5637   -3.5102    1.3542 C   0  0  0  0  0  0  0  0  0  0  0  0
   -4.0483   -3.1165    2.2513 H   0  0  0  0  0  0  0  0  0  0  0  0
   -4.2309   -3.3706    0.5000 H   0  0  0  0  0  0  0  0  0  0  0  0
   -2.2535   -2.7863    1.1122 C   0  0  0  0  0  0  0  0  0  0  0  0
   -1.1945   -3.4076    1.0687 O   0  0  0  0  0  0  0  0  0  0  0  0
   -2.2429   -1.4287    0.8678 N   0  0  0  0  0  0  0  0  0  0  0  0
   -3.1286   -0.9279    0.9600 H   0  0  0  0  0  0  0  0  0  0  0  0
   -1.0206   -0.6161    0.8984 C   0  0  1  0  0  0  0  0  0  0  0  0
   -0.2524   -1.1620    1.4537 H   0  0  0  0  0  0  0  0  0  0  0  0
   -0.5657   -0.3912   -0.5583 C   0  0  0  0  0  0  0  0  0  0  0  0
   -1.1188   -1.0426   -1.2451 H   0  0  0  0  0  0  0  0  0  0  0  0
   -0.8081    0.6368   -0.8513 H   0  0  0  0  0  0  0  0  0  0  0  0
    0.9475   -0.6150   -0.7130 C   0  0  0  0  0  0  0  0  0  0  0  0
    1.3763    0.1766   -1.3372 H   0  0  0  0  0  0  0  0  0  0  0  0
    1.4580   -0.5755    0.2546 H   0  0  0  0  0  0  0  0  0  0  0  0
    1.1603   -1.9650   -1.4044 C   0  0  0  0  0  0  0  0  0  0  0  0
    0.3444   -2.6431   -1.1310 H   0  0  0  0  0  0  0  0  0  0  0  0
    1.1156   -1.8269   -2.4907 H   0  0  0  0  0  0  0  0  0  0  0  0
    2.4512   -2.5613   -1.0178 N   0  3  0  0  0  0  0  0  0  0  0  0
    3.2892   -2.1568   -1.4333 H   0  0  0  0  0  0  0  0  0  0  0  0
    2.5616   -3.6035   -0.2416 C   0  0  0  0  0  0  0  0  0  0  0  0
    1.4791   -4.2112    0.3565 N   0  0  0  0  0  0  0  0  0  0  0  0
    0.5720   -3.7320    0.3542 H   0  0  0  0  0  0  0  0  0  0  0  0
    1.6401   -4.8899    1.0962 H   0  0  0  0  0  0  0  0  0  0  0  0
    3.8087   -4.1303   -0.0041 N   0  0  0  0  0  0  0  0  0  0  0  0
    4.5844   -3.8267   -0.5891 H   0  0  0  0  0  0  0  0  0  0  0  0
    3.8648   -5.0570    0.4141 H   0  0  0  0  0  0  0  0  0  0  0  0
   -1.2486    0.7015    1.6687 C   0  0  0  0  0  0  0  0  0  0  0  0
   -2.2927    1.3154    1.4981 O   0  0  0  0  0  0  0  0  0  0  0  0
   -0.3293    1.1621    2.5944 N   0  0  0  0  0  0  0  0  0  0  0  0
    0.4900    0.5933    2.7831 H   0  0  0  0  0  0  0  0  0  0  0  0
   -0.5424    2.3681    3.3899 C   0  0  0  0  0  0  0  0  0  0  0  0
   -1.4188    2.2522    4.0369 H   0  0  0  0  0  0  0  0  0  0  0  0
    0.3294    2.5665    4.0212 H   0  0  0  0  0  0  0  0  0  0  0  0
   -0.6996    3.2354    2.7390 H   0  0  0  0  0  0  0  0  0  0  0  0
  1  2  1  0  0  0  0
  2  3  1  0  0  0  0
  2  4  1  0  0  0  0
  2  5  1  0  0  0  0
  5  6  2  0  0  0  0
  5  7  1  0  0  0  0
  7  8  1  0  0  0  0
  7  9  1  0  0  0  0
  9 10  1  0  0  0  0
  9 11  1  0  0  0  0
  9 29  1  0  0  0  0
 11 12  1  0  0  0  0
 11 13  1  0  0  0  0
 11 14  1  0  0  0  0
 14 15  1  0  0  0  0
 14 16  1  0  0  0  0
 14 17  1  0  0  0  0
 17 18  1  0  0  0  0
 17 19  1  0  0  0  0
 17 20  1  0  0  0  0
 20 21  1  0  0  0  0
 20 22  2  0  0  0  0
 22 23  1  0  0  0  0
 22 26  1  0  0  0  0
 23 24  1  0  0  0  0
 23 25  1  0  0  0  0
 26 27  1  0  0  0  0
 26 28  1  0  0  0  0
 29 30  2  0  0  0  0
 29 31  1  0  0  0  0
 31 32  1  0  0  0  0
 31 33  1  0  0  0  0
 33 34  1  0  0  0  0
 33 35  1  0  0  0  0
 33 36  1  0  0  0  0
M  CHG  1  20   1
M  END
$$$$

  -OEChem-03222214013D

 36 35  0     1  0  0  0  0  0999 V2000
   -3.2488   -4.6058    1.4465 H   0  0  0  0  0  0  0  0  0  0  0  0
   -3.4571   -3.5388    1.3295 C   0  0  0  0  0  0  0  0  0  0  0  0
   -3.9231   -3.1693    2.2465 H   0  0  0  0  0  0  0  0  0  0  0  0
   -4.1539   -3.4049    0.4982 H   0  0  0  0  0  0  0  0  0  0  0  0
   -2.1729   -2.7796    1.0578 C   0  0  0  0  0  0  0  0  0  0  0  0
   -1.1037   -3.3752    0.9539 O   0  0  0  0  0  0  0  0  0  0  0  0
   -2.1995   -1.4183    0.8365 N   0  0  0  0  0  0  0  0  0  0  0  0
   -3.0930   -0.9406    0.9694 H   0  0  0  0  0  0  0  0  0  0  0  0
   -0.9953   -0.5787    0.8743 C   0  0  1  0  0  0  0  0  0  0  0  0
   -0.2189   -1.1172    1.4248 H   0  0  0  0  0  0  0  0  0  0  0  0
   -0.5481   -0.3292   -0.5815 C   0  0  0  0  0  0  0  0  0  0  0  0
   -1.0912   -0.9992   -1.2578 H   0  0  0  0  0  0  0  0  0  0  0  0
   -0.8257    0.6890   -0.8767 H   0  0  0  0  0  0  0  0  0  0  0  0
    0.9713   -0.5130   -0.7606 C   0  0  0  0  0  0  0  0  0  0  0  0
    1.4188    0.4196   -1.1215 H   0  0  0  0  0  0  0  0  0  0  0  0
    1.4581   -0.7543    0.1892 H   0  0  0  0  0  0  0  0  0  0  0  0
    1.2202   -1.6274   -1.7820 C   0  0  0  0  0  0  0  0  0  0  0  0
    0.3911   -2.3430   -1.7586 H   0  0  0  0  0  0  0  0  0  0  0  0
    1.2469   -1.1971   -2.7896 H   0  0  0  0  0  0  0  0  0  0  0  0
    2.4800   -2.3356   -1.4930 N   0  3  0  0  0  0  0  0  0  0  0  0
    3.3326   -1.9435   -1.8904 H   0  0  0  0  0  0  0  0  0  0  0  0
    2.5413   -3.4543   -0.8253 C   0  0  0  0  0  0  0  0  0  0  0  0
    1.4371   -4.0455   -0.2506 N   0  0  0  0  0  0  0  0  0  0  0  0
    0.5756   -3.4996   -0.1501 H   0  0  0  0  0  0  0  0  0  0  0  0
    1.5776   -4.7979    0.4188 H   0  0  0  0  0  0  0  0  0  0  0  0
    3.7559   -4.0818   -0.6836 N   0  0  0  0  0  0  0  0  0  0  0  0
    4.5319   -3.7758   -1.2671 H   0  0  0  0  0  0  0  0  0  0  0  0
    3.7612   -5.0456   -0.3549 H   0  0  0  0  0  0  0  0  0  0  0  0
   -1.2442    0.7210    1.6673 C   0  0  0  0  0  0  0  0  0  0  0  0
   -2.3036    1.3137    1.5169 O   0  0  0  0  0  0  0  0  0  0  0  0
   -0.3271    1.1839    2.5938 N   0  0  0  0  0  0  0  0  0  0  0  0
    0.5053    0.6286    2.7654 H   0  0  0  0  0  0  0  0  0  0  0  0
   -0.5598    2.3679    3.4156 C   0  0  0  0  0  0  0  0  0  0  0  0
   -1.4295    2.2203    4.0648 H   0  0  0  0  0  0  0  0  0  0  0  0
    0.3115    2.5708    4.0459 H   0  0  0  0  0  0  0  0  0  0  0  0
   -0.7386    3.2451    2.7844 H   0  0  0  0  0  0  0  0  0  0  0  0
  1  2  1  0  0  0  0
  2  3  1  0  0  0  0
  2  4  1  0  0  0  0
  2  5  1  0  0  0  0
  5  6  2  0  0  0  0
  5  7  1  0  0  0  0
  7  8  1  0  0  0  0
  7  9  1  0  0  0  0
  9 10  1  0  0  0  0
  9 11  1  0  0  0  0
  9 29  1  0  0  0  0
 11 12  1  0  0  0  0
 11 13  1  0  0  0  0
 11 14  1  0  0  0  0
 14 15  1  0  0  0  0
 14 16  1  0  0  0  0
 14 17  1  0  0  0  0
 17 18  1  0  0  0  0
 17 19  1  0  0  0  0
 17 20  1  0  0  0  0
 20 21  1  0  0  0  0
 20 22  2  0  0  0  0
 22 23  1  0  0  0  0
 22 26  1  0  0  0  0
 23 24  1  0  0  0  0
 23 25  1  0  0  0  0
 26 27  1  0  0  0  0
 26 28  1  0  0  0  0
 29 30  2  0  0  0  0
 29 31  1  0  0  0  0
 31 32  1  0  0  0  0
 31 33  1  0  0  0  0
 33 34  1  0  0  0  0
 33 35  1  0  0  0  0
 33 36  1  0  0  0  0
M  CHG  1  20   1
M  END
$$$$

  -OEChem-03222214013D

 36 35  0     1  0  0  0  0  0999 V2000
   -3.0516   -4.6472    1.3653 H   0  0  0  0  0  0  0  0  0  0  0  0
   -3.2955   -3.5837    1.2934 C   0  0  0  0  0  0  0  0  0  0  0  0
   -3.7365   -3.2596    2.2395 H   0  0  0  0  0  0  0  0  0  0  0  0
   -4.0271   -3.4434    0.4936 H   0  0  0  0  0  0  0  0  0  0  0  0
   -2.0458   -2.7760    1.0016 C   0  0  0  0  0  0  0  0  0  0  0  0
   -0.9595   -3.3302    0.8584 O   0  0  0  0  0  0  0  0  0  0  0  0
   -2.1269   -1.4151    0.7924 N   0  0  0  0  0  0  0  0  0  0  0  0
   -3.0362   -0.9753    0.9468 H   0  0  0  0  0  0  0  0  0  0  0  0
   -0.9573   -0.5284    0.8504 C   0  0  1  0  0  0  0  0  0  0  0  0
   -0.1689   -1.0406    1.4089 H   0  0  0  0  0  0  0  0  0  0  0  0
   -0.5004   -0.2498   -0.5973 C   0  0  0  0  0  0  0  0  0  0  0  0
   -0.9986   -0.9586   -1.2680 H   0  0  0  0  0  0  0  0  0  0  0  0
   -0.8273    0.7487   -0.9090 H   0  0  0  0  0  0  0  0  0  0  0  0
    1.0269   -0.3695   -0.7614 C   0  0  0  0  0  0  0  0  0  0  0  0
    1.4793    0.6265   -0.8196 H   0  0  0  0  0  0  0  0  0  0  0  0
    1.4704   -0.8739    0.1020 H   0  0  0  0  0  0  0  0  0  0  0  0
    1.3448   -1.1697   -2.0298 C   0  0  0  0  0  0  0  0  0  0  0  0
    0.5024   -1.8220   -2.2846 H   0  0  0  0  0  0  0  0  0  0  0  0
    1.4823   -0.4783   -2.8690 H   0  0  0  0  0  0  0  0  0  0  0  0
    2.5509   -1.9982   -1.8438 N   0  3  0  0  0  0  0  0  0  0  0  0
    3.4292   -1.6218   -2.1987 H   0  0  0  0  0  0  0  0  0  0  0  0
    2.5288   -3.1998   -1.3355 C   0  0  0  0  0  0  0  0  0  0  0  0
    1.3825   -3.7749   -0.8308 N   0  0  0  0  0  0  0  0  0  0  0  0
    0.5847   -3.1713   -0.6166 H   0  0  0  0  0  0  0  0  0  0  0  0
    1.4698   -4.6169   -0.2665 H   0  0  0  0  0  0  0  0  0  0  0  0
    3.6906   -3.9327   -1.2953 N   0  0  0  0  0  0  0  0  0  0  0  0
    4.4908   -3.6092   -1.8350 H   0  0  0  0  0  0  0  0  0  0  0  0
    3.6225   -4.9292   -1.0965 H   0  0  0  0  0  0  0  0  0  0  0  0
   -1.2638    0.7529    1.6519 C   0  0  0  0  0  0  0  0  0  0  0  0
   -2.3444    1.3045    1.4967 O   0  0  0  0  0  0  0  0  0  0  0  0
   -0.3738    1.2418    2.5910 N   0  0  0  0  0  0  0  0  0  0  0  0
    0.4792    0.7186    2.7625 H   0  0  0  0  0  0  0  0  0  0  0  0
   -0.6597    2.4058    3.4246 C   0  0  0  0  0  0  0  0  0  0  0  0
   -1.5291    2.2168    4.0634 H   0  0  0  0  0  0  0  0  0  0  0  0
    0.1973    2.6336    4.0660 H   0  0  0  0  0  0  0  0  0  0  0  0
   -0.8659    3.2833    2.8020 H   0  0  0  0  0  0  0  0  0  0  0  0
  1  2  1  0  0  0  0
  2  3  1  0  0  0  0
  2  4  1  0  0  0  0
  2  5  1  0  0  0  0
  5  6  2  0  0  0  0
  5  7  1  0  0  0  0
  7  8  1  0  0  0  0
  7  9  1  0  0  0  0
  9 10  1  0  0  0  0
  9 11  1  0  0  0  0
  9 29  1  0  0  0  0
 11 12  1  0  0  0  0
 11 13  1  0  0  0  0
 11 14  1  0  0  0  0
 14 15  1  0  0  0  0
 14 16  1  0  0  0  0
 14 17  1  0  0  0  0
 17 18  1  0  0  0  0
 17 19  1  0  0  0  0
 17 20  1  0  0  0  0
 20 21  1  0  0  0  0
 20 22  2  0  0  0  0
 22 23  1  0  0  0  0
 22 26  1  0  0  0  0
 23 24  1  0  0  0  0
 23 25  1  0  0  0  0
 26 27  1  0  0  0  0
 26 28  1  0  0  0  0
 29 30  2  0  0  0  0
 29 31  1  0  0  0  0
 31 32  1  0  0  0  0
 31 33  1  0  0  0  0
 33 34  1  0  0  0  0
 33 35  1  0  0  0  0
 33 36  1  0  0  0  0
M  CHG  1  20   1
M  END
$$$$

  -OEChem-03222214013D

 36 35  0     1  0  0  0  0  0999 V2000
   -4.0311   -4.0893    2.0984 H   0  0  0  0  0  0  0  0  0  0  0  0
   -4.0708   -3.0894    1.6571 C   0  0  0  0  0  0  0  0  0  0  0  0
   -4.6771   -2.4461    2.2996 H   0  0  0  0  0  0  0  0  0  0  0  0
   -4.5410   -3.1562    0.6730 H   0  0  0  0  0  0  0  0  0  0  0  0
   -2.6715   -2.5199    1.5251 C   0  0  0  0  0  0  0  0  0  0  0  0
   -1.6970   -3.2030    1.8058 O   0  0  0  0  0  0  0  0  0  0  0  0
   -2.4873   -1.2394    1.0447 N   0  0  0  0  0  0  0  0  0  0  0  0
   -3.3235   -0.6748    0.8914 H   0  0  0  0  0  0  0  0  0  0  0  0
   -1.2056   -0.5231    1.1037 C   0  0  1  0  0  0  0  0  0  0  0  0
   -0.5651   -1.0079    1.8468 H   0  0  0  0  0  0  0  0  0  0  0  0
   -0.5446   -0.5842   -0.2917 C   0  0  0  0  0  0  0  0  0  0  0  0
   -1.0499   -1.3613   -0.8765 H   0  0  0  0  0  0  0  0  0  0  0  0
   -0.6892    0.3596   -0.8295 H   0  0  0  0  0  0  0  0  0  0  0  0
    0.9523   -0.9294   -0.2233 C   0  0  0  0  0  0  0  0  0  0  0  0
    1.5389   -0.0126   -0.0991 H   0  0  0  0  0  0  0  0  0  0  0  0
    1.1486   -1.5809    0.6354 H   0  0  0  0  0  0  0  0  0  0  0  0
    1.3669   -1.6786   -1.4894 C   0  0  0  0  0  0  0  0  0  0  0  0
    0.7420   -2.5731   -1.5914 H   0  0  0  0  0  0  0  0  0  0  0  0
    1.1965   -1.0344   -2.3595 H   0  0  0  0  0  0  0  0  0  0  0  0
    2.7879   -2.0639   -1.4137 N   0  3  0  0  0  0  0  0  0  0  0  0
    3.3012   -1.7859   -0.5787 H   0  0  0  0  0  0  0  0  0  0  0  0
    3.3950   -2.7553   -2.3349 C   0  0  0  0  0  0  0  0  0  0  0  0
    2.7425   -3.1852   -3.4680 N   0  0  0  0  0  0  0  0  0  0  0  0
    1.7285   -3.0977   -3.4946 H   0  0  0  0  0  0  0  0  0  0  0  0
    3.1750   -3.9124   -4.0340 H   0  0  0  0  0  0  0  0  0  0  0  0
    4.7232   -3.0730   -2.1808 N   0  0  0  0  0  0  0  0  0  0  0  0
    5.2546   -2.6182   -1.4409 H   0  0  0  0  0  0  0  0  0  0  0  0
    5.2343   -3.4311   -2.9855 H   0  0  0  0  0  0  0  0  0  0  0  0
   -1.4029    0.9294    1.5810 C   0  0  0  0  0  0  0  0  0  0  0  0
   -2.3178    1.5944    1.1133 O   0  0  0  0  0  0  0  0  0  0  0  0
   -0.5666    1.4864    2.5317 N   0  0  0  0  0  0  0  0  0  0  0  0
    0.0927    0.8702    2.9984 H   0  0  0  0  0  0  0  0  0  0  0  0
   -0.7716    2.8263    3.0742 C   0  0  0  0  0  0  0  0  0  0  0  0
   -1.7344    2.8879    3.5931 H   0  0  0  0  0  0  0  0  0  0  0  0
    0.0216    3.0734    3.7865 H   0  0  0  0  0  0  0  0  0  0  0  0
   -0.7572    3.5723    2.2721 H   0  0  0  0  0  0  0  0  0  0  0  0
  1  2  1  0  0  0  0
  2  3  1  0  0  0  0
  2  4  1  0  0  0  0
  2  5  1  0  0  0  0
  5  6  2  0  0  0  0
  5  7  1  0  0  0  0
  7  8  1  0  0  0  0
  7  9  1  0  0  0  0
  9 10  1  0  0  0  0
  9 11  1  0  0  0  0
  9 29  1  0  0  0  0
 11 12  1  0  0  0  0
 11 13  1  0  0  0  0
 11 14  1  0  0  0  0
 14 15  1  0  0  0  0
 14 16  1  0  0  0  0
 14 17  1  0  0  0  0
 17 18  1  0  0  0  0
 17 19  1  0  0  0  0
 17 20  1  0  0  0  0
 20 21  1  0  0  0  0
 20 22  2  0  0  0  0
 22 23  1  0  0  0  0
 22 26  1  0  0  0  0
 23 24  1  0  0  0  0
 23 25  1  0  0  0  0
 26 27  1  0  0  0  0
 26 28  1  0  0  0  0
 29 30  2  0  0  0  0
 29 31  1  0  0  0  0
 31 32  1  0  0  0  0
 31 33  1  0  0  0  0
 33 34  1  0  0  0  0
 33 35  1  0  0  0  0
 33 36  1  0  0  0  0
M  CHG  1  20   1
M  END
$$$$

  -OEChem-03222214013D

 36 35  0     1  0  0  0  0  0999 V2000
   -4.0193   -4.0925    2.1290 H   0  0  0  0  0  0  0  0  0  0  0  0
   -4.0626   -3.1019    1.6676 C   0  0  0  0  0  0  0  0  0  0  0  0
   -4.6741   -2.4490    2.2953 H   0  0  0  0  0  0  0  0  0  0  0  0
   -4.5290   -3.1904    0.6836 H   0  0  0  0  0  0  0  0  0  0  0  0
   -2.6656   -2.5288    1.5296 C   0  0  0  0  0  0  0  0  0  0  0  0
   -1.6894   -3.2051    1.8195 O   0  0  0  0  0  0  0  0  0  0  0  0
   -2.4866   -1.2478    1.0480 N   0  0  0  0  0  0  0  0  0  0  0  0
   -3.3250   -0.6883    0.8899 H   0  0  0  0  0  0  0  0  0  0  0  0
   -1.2066   -0.5278    1.0978 C   0  0  1  0  0  0  0  0  0  0  0  0
   -0.5538   -1.0130    1.8302 H   0  0  0  0  0  0  0  0  0  0  0  0
   -0.5563   -0.5792   -0.3018 C   0  0  0  0  0  0  0  0  0  0  0  0
   -1.0553   -1.3536   -0.8957 H   0  0  0  0  0  0  0  0  0  0  0  0
   -0.7011    0.3712   -0.8280 H   0  0  0  0  0  0  0  0  0  0  0  0
    0.9374   -0.9194   -0.2265 C   0  0  0  0  0  0  0  0  0  0  0  0
    1.4977   -0.0591    0.1553 H   0  0  0  0  0  0  0  0  0  0  0  0
    1.0867   -1.7616    0.4594 H   0  0  0  0  0  0  0  0  0  0  0  0
    1.4371   -1.3182   -1.6133 C   0  0  0  0  0  0  0  0  0  0  0  0
    0.8263   -2.1488   -1.9839 H   0  0  0  0  0  0  0  0  0  0  0  0
    1.3176   -0.4681   -2.2945 H   0  0  0  0  0  0  0  0  0  0  0  0
    2.8530   -1.7241   -1.5489 N   0  3  0  0  0  0  0  0  0  0  0  0
    3.3057   -1.6925   -0.6365 H   0  0  0  0  0  0  0  0  0  0  0  0
    3.5253   -2.1475   -2.5802 C   0  0  0  0  0  0  0  0  0  0  0  0
    2.9525   -2.2463   -3.8278 N   0  0  0  0  0  0  0  0  0  0  0  0
    1.9432   -2.1322   -3.8979 H   0  0  0  0  0  0  0  0  0  0  0  0
    3.4211   -2.8066   -4.5369 H   0  0  0  0  0  0  0  0  0  0  0  0
    4.8420   -2.5126   -2.4307 N   0  0  0  0  0  0  0  0  0  0  0  0
    5.3211   -2.2799   -1.5629 H   0  0  0  0  0  0  0  0  0  0  0  0
    5.4071   -2.6469   -3.2673 H   0  0  0  0  0  0  0  0  0  0  0  0
   -1.4035    0.9241    1.5764 C   0  0  0  0  0  0  0  0  0  0  0  0
   -2.3140    1.5924    1.1051 O   0  0  0  0  0  0  0  0  0  0  0  0
   -0.5604    1.4811    2.5210 N   0  0  0  0  0  0  0  0  0  0  0  0
    0.0919    0.8611    2.9925 H   0  0  0  0  0  0  0  0  0  0  0  0
   -0.7557    2.8243    3.0580 C   0  0  0  0  0  0  0  0  0  0  0  0
   -1.7151    2.8929    3.5817 H   0  0  0  0  0  0  0  0  0  0  0  0
    0.0428    3.0712    3.7644 H   0  0  0  0  0  0  0  0  0  0  0  0
   -0.7424    3.5664    2.2525 H   0  0  0  0  0  0  0  0  0  0  0  0
  1  2  1  0  0  0  0
  2  3  1  0  0  0  0
  2  4  1  0  0  0  0
  2  5  1  0  0  0  0
  5  6  2  0  0  0  0
  5  7  1  0  0  0  0
  7  8  1  0  0  0  0
  7  9  1  0  0  0  0
  9 10  1  0  0  0  0
  9 11  1  0  0  0  0
  9 29  1  0  0  0  0
 11 12  1  0  0  0  0
 11 13  1  0  0  0  0
 11 14  1  0  0  0  0
 14 15  1  0  0  0  0
 14 16  1  0  0  0  0
 14 17  1  0  0  0  0
 17 18  1  0  0  0  0
 17 19  1  0  0  0  0
 17 20  1  0  0  0  0
 20 21  1  0  0  0  0
 20 22  2  0  0  0  0
 22 23  1  0  0  0  0
 22 26  1  0  0  0  0
 23 24  1  0  0  0  0
 23 25  1  0  0  0  0
 26 27  1  0  0  0  0
 26 28  1  0  0  0  0
 29 30  2  0  0  0  0
 29 31  1  0  0  0  0
 31 32  1  0  0  0  0
 31 33  1  0  0  0  0
 33 34  1  0  0  0  0
 33 35  1  0  0  0  0
 33 36  1  0  0  0  0
M  CHG  1  20   1
M  END
$$$$

  -OEChem-03222214013D

 36 35  0     1  0  0  0  0  0999 V2000
   -3.9882   -4.1039    2.1248 H   0  0  0  0  0  0  0  0  0  0  0  0
   -4.0372   -3.1131    1.6649 C   0  0  0  0  0  0  0  0  0  0  0  0
   -4.6529   -2.4650    2.2933 H   0  0  0  0  0  0  0  0  0  0  0  0
   -4.5027   -3.2034    0.6806 H   0  0  0  0  0  0  0  0  0  0  0  0
   -2.6437   -2.5308    1.5272 C   0  0  0  0  0  0  0  0  0  0  0  0
   -1.6612   -3.2050    1.8013 O   0  0  0  0  0  0  0  0  0  0  0  0
   -2.4738   -1.2464    1.0518 N   0  0  0  0  0  0  0  0  0  0  0  0
   -3.3152   -0.6883    0.9044 H   0  0  0  0  0  0  0  0  0  0  0  0
   -1.1960   -0.5226    1.0978 C   0  0  1  0  0  0  0  0  0  0  0  0
   -0.5289   -1.0004    1.8234 H   0  0  0  0  0  0  0  0  0  0  0  0
   -0.5619   -0.5632   -0.3094 C   0  0  0  0  0  0  0  0  0  0  0  0
   -1.2192   -1.0976   -1.0045 H   0  0  0  0  0  0  0  0  0  0  0  0
   -0.4470    0.4558   -0.6960 H   0  0  0  0  0  0  0  0  0  0  0  0
    0.8051   -1.2530   -0.2767 C   0  0  0  0  0  0  0  0  0  0  0  0
    1.4761   -0.7193    0.4049 H   0  0  0  0  0  0  0  0  0  0  0  0
    0.6812   -2.2776    0.0942 H   0  0  0  0  0  0  0  0  0  0  0  0
    1.4013   -1.2760   -1.6814 C   0  0  0  0  0  0  0  0  0  0  0  0
    0.6886   -1.7571   -2.3605 H   0  0  0  0  0  0  0  0  0  0  0  0
    1.5643   -0.2468   -2.0206 H   0  0  0  0  0  0  0  0  0  0  0  0
    2.6742   -2.0199   -1.6760 N   0  3  0  0  0  0  0  0  0  0  0  0
    2.9718   -2.4241   -0.7887 H   0  0  0  0  0  0  0  0  0  0  0  0
    3.3954   -2.2185   -2.7414 C   0  0  0  0  0  0  0  0  0  0  0  0
    3.0166   -1.7359   -3.9736 N   0  0  0  0  0  0  0  0  0  0  0  0
    2.0773   -1.3547   -4.0662 H   0  0  0  0  0  0  0  0  0  0  0  0
    3.4615   -2.1187   -4.8053 H   0  0  0  0  0  0  0  0  0  0  0  0
    4.5663   -2.9320   -2.6465 N   0  0  0  0  0  0  0  0  0  0  0  0
    4.9437   -3.1332   -1.7225 H   0  0  0  0  0  0  0  0  0  0  0  0
    5.2147   -2.9071   -3.4315 H   0  0  0  0  0  0  0  0  0  0  0  0
   -1.4083    0.9243    1.5874 C   0  0  0  0  0  0  0  0  0  0  0  0
   -2.3265    1.5857    1.1207 O   0  0  0  0  0  0  0  0  0  0  0  0
   -0.5693    1.4859    2.5328 N   0  0  0  0  0  0  0  0  0  0  0  0
    0.1033    0.8761    2.9889 H   0  0  0  0  0  0  0  0  0  0  0  0
   -0.7685    2.8288    3.0690 C   0  0  0  0  0  0  0  0  0  0  0  0
   -1.7294    2.8960    3.5904 H   0  0  0  0  0  0  0  0  0  0  0  0
    0.0279    3.0771    3.7774 H   0  0  0  0  0  0  0  0  0  0  0  0
   -0.7548    3.5702    2.2629 H   0  0  0  0  0  0  0  0  0  0  0  0
  1  2  1  0  0  0  0
  2  3  1  0  0  0  0
  2  4  1  0  0  0  0
  2  5  1  0  0  0  0
  5  6  2  0  0  0  0
  5  7  1  0  0  0  0
  7  8  1  0  0  0  0
  7  9  1  0  0  0  0
  9 10  1  0  0  0  0
  9 11  1  0  0  0  0
  9 29  1  0  0  0  0
 11 12  1  0  0  0  0
 11 13  1  0  0  0  0
 11 14  1  0  0  0  0
 14 15  1  0  0  0  0
 14 16  1  0  0  0  0
 14 17  1  0  0  0  0
 17 18  1  0  0  0  0
 17 19  1  0  0  0  0
 17 20  1  0  0  0  0
 20 21  1  0  0  0  0
 20 22  2  0  0  0  0
 22 23  1  0  0  0  0
 22 26  1  0  0  0  0
 23 24  1  0  0  0  0
 23 25  1  0  0  0  0
 26 27  1  0  0  0  0
 26 28  1  0  0  0  0
 29 30  2  0  0  0  0
 29 31  1  0  0  0  0
 31 32  1  0  0  0  0
 31 33  1  0  0  0  0
 33 34  1  0  0  0  0
 33 35  1  0  0  0  0
 33 36  1  0  0  0  0
M  CHG  1  20   1
M  END
$$$$

  -OEChem-03222214013D

 36 35  0     1  0  0  0  0  0999 V2000
   -3.9829   -4.1122    2.1138 H   0  0  0  0  0  0  0  0  0  0  0  0
   -4.0327   -3.1214    1.6535 C   0  0  0  0  0  0  0  0  0  0  0  0
   -4.6622   -2.4779    2.2728 H   0  0  0  0  0  0  0  0  0  0  0  0
   -4.4833   -3.2148    0.6625 H   0  0  0  0  0  0  0  0  0  0  0  0
   -2.6416   -2.5291    1.5358 C   0  0  0  0  0  0  0  0  0  0  0  0
   -1.6596   -3.1958    1.8291 O   0  0  0  0  0  0  0  0  0  0  0  0
   -2.4729   -1.2450    1.0586 N   0  0  0  0  0  0  0  0  0  0  0  0
   -3.3150   -0.6920    0.8965 H   0  0  0  0  0  0  0  0  0  0  0  0
   -1.1969   -0.5184    1.1059 C   0  0  1  0  0  0  0  0  0  0  0  0
   -0.5319   -0.9948    1.8336 H   0  0  0  0  0  0  0  0  0  0  0  0
   -0.5626   -0.5626   -0.3021 C   0  0  0  0  0  0  0  0  0  0  0  0
   -1.2174   -1.0883   -1.0063 H   0  0  0  0  0  0  0  0  0  0  0  0
   -0.4483    0.4607   -0.6776 H   0  0  0  0  0  0  0  0  0  0  0  0
    0.8077   -1.2492   -0.2772 C   0  0  0  0  0  0  0  0  0  0  0  0
    1.3984   -0.8765    0.5665 H   0  0  0  0  0  0  0  0  0  0  0  0
    0.6666   -2.3285   -0.1446 H   0  0  0  0  0  0  0  0  0  0  0  0
    1.5558   -0.9537   -1.5747 C   0  0  0  0  0  0  0  0  0  0  0  0
    0.9341   -1.2652   -2.4213 H   0  0  0  0  0  0  0  0  0  0  0  0
    1.7323    0.1253   -1.6513 H   0  0  0  0  0  0  0  0  0  0  0  0
    2.8361   -1.6837   -1.5934 N   0  3  0  0  0  0  0  0  0  0  0  0
    3.0421   -2.2795   -0.7923 H   0  0  0  0  0  0  0  0  0  0  0  0
    3.6760   -1.6369   -2.5869 C   0  0  0  0  0  0  0  0  0  0  0  0
    3.4284   -0.8803   -3.7101 N   0  0  0  0  0  0  0  0  0  0  0  0
    2.4981   -0.4815   -3.8201 H   0  0  0  0  0  0  0  0  0  0  0  0
    3.9757   -1.0579   -4.5498 H   0  0  0  0  0  0  0  0  0  0  0  0
    4.8422   -2.3618   -2.5246 N   0  0  0  0  0  0  0  0  0  0  0  0
    5.1151   -2.7778   -1.6361 H   0  0  0  0  0  0  0  0  0  0  0  0
    5.5737   -2.1673   -3.2060 H   0  0  0  0  0  0  0  0  0  0  0  0
   -1.4103    0.9295    1.5924 C   0  0  0  0  0  0  0  0  0  0  0  0
   -2.3214    1.5939    1.1165 O   0  0  0  0  0  0  0  0  0  0  0  0
   -0.5721    1.4923    2.5381 N   0  0  0  0  0  0  0  0  0  0  0  0
    0.0880    0.8783    3.0066 H   0  0  0  0  0  0  0  0  0  0  0  0
   -0.7718    2.8365    3.0713 C   0  0  0  0  0  0  0  0  0  0  0  0
   -1.7331    2.9042    3.5921 H   0  0  0  0  0  0  0  0  0  0  0  0
    0.0242    3.0870    3.7796 H   0  0  0  0  0  0  0  0  0  0  0  0
   -0.7574    3.5763    2.2636 H   0  0  0  0  0  0  0  0  0  0  0  0
  1  2  1  0  0  0  0
  2  3  1  0  0  0  0
  2  4  1  0  0  0  0
  2  5  1  0  0  0  0
  5  6  2  0  0  0  0
  5  7  1  0  0  0  0
  7  8  1  0  0  0  0
  7  9  1  0  0  0  0
  9 10  1  0  0  0  0
  9 11  1  0  0  0  0
  9 29  1  0  0  0  0
 11 12  1  0  0  0  0
 11 13  1  0  0  0  0
 11 14  1  0  0  0  0
 14 15  1  0  0  0  0
 14 16  1  0  0  0  0
 14 17  1  0  0  0  0
 17 18  1  0  0  0  0
 17 19  1  0  0  0  0
 17 20  1  0  0  0  0
 20 21  1  0  0  0  0
 20 22  2  0  0  0  0
 22 23  1  0  0  0  0
 22 26  1  0  0  0  0
 23 24  1  0  0  0  0
 23 25  1  0  0  0  0
 26 27  1  0  0  0  0
 26 28  1  0  0  0  0
 29 30  2  0  0  0  0
 29 31  1  0  0  0  0
 31 32  1  0  0  0  0
 31 33  1  0  0  0  0
 33 34  1  0  0  0  0
 33 35  1  0  0  0  0
 33 36  1  0  0  0  0
M  CHG  1  20   1
M  END
$$$$

  -OEChem-03222214013D

 36 35  0     1  0  0  0  0  0999 V2000
   -3.9848   -4.1140    2.1053 H   0  0  0  0  0  0  0  0  0  0  0  0
   -4.0325   -3.1219    1.6480 C   0  0  0  0  0  0  0  0  0  0  0  0
   -4.6684   -2.4817    2.2642 H   0  0  0  0  0  0  0  0  0  0  0  0
   -4.4742   -3.2129    0.6529 H   0  0  0  0  0  0  0  0  0  0  0  0
   -2.6418   -2.5266    1.5450 C   0  0  0  0  0  0  0  0  0  0  0  0
   -1.6621   -3.1868    1.8589 O   0  0  0  0  0  0  0  0  0  0  0  0
   -2.4715   -1.2438    1.0649 N   0  0  0  0  0  0  0  0  0  0  0  0
   -3.3130   -0.6965    0.8832 H   0  0  0  0  0  0  0  0  0  0  0  0
   -1.1976   -0.5143    1.1184 C   0  0  1  0  0  0  0  0  0  0  0  0
   -0.5392   -0.9883    1.8531 H   0  0  0  0  0  0  0  0  0  0  0  0
   -0.5578   -0.5630   -0.2887 C   0  0  0  0  0  0  0  0  0  0  0  0
   -1.2116   -1.0851   -0.9964 H   0  0  0  0  0  0  0  0  0  0  0  0
   -0.4518    0.4630   -0.6597 H   0  0  0  0  0  0  0  0  0  0  0  0
    0.8189   -1.2455   -0.2787 C   0  0  0  0  0  0  0  0  0  0  0  0
    1.3190   -1.0802    0.6815 H   0  0  0  0  0  0  0  0  0  0  0  0
    0.6848   -2.3258   -0.4065 H   0  0  0  0  0  0  0  0  0  0  0  0
    1.7010   -0.6656   -1.3819 C   0  0  0  0  0  0  0  0  0  0  0  0
    1.1814   -0.7661   -2.3413 H   0  0  0  0  0  0  0  0  0  0  0  0
    1.8686    0.3997   -1.1871 H   0  0  0  0  0  0  0  0  0  0  0  0
    2.9869   -1.3850   -1.4250 N   0  3  0  0  0  0  0  0  0  0  0  0
    3.1114   -2.1526   -0.7657 H   0  0  0  0  0  0  0  0  0  0  0  0
    3.9343   -1.1151   -2.2761 C   0  0  0  0  0  0  0  0  0  0  0  0
    3.8028   -0.1168   -3.2146 N   0  0  0  0  0  0  0  0  0  0  0  0
    2.8833    0.3031   -3.3364 H   0  0  0  0  0  0  0  0  0  0  0  0
    4.4436   -0.1032   -4.0055 H   0  0  0  0  0  0  0  0  0  0  0  0
    5.0997   -1.8433   -2.2494 N   0  0  0  0  0  0  0  0  0  0  0  0
    5.2777   -2.4549   -1.4550 H   0  0  0  0  0  0  0  0  0  0  0  0
    5.9007   -1.4990   -2.7759 H   0  0  0  0  0  0  0  0  0  0  0  0
   -1.4156    0.9348    1.5986 C   0  0  0  0  0  0  0  0  0  0  0  0
   -2.3180    1.6008    1.1086 O   0  0  0  0  0  0  0  0  0  0  0  0
   -0.5831    1.4997    2.5479 N   0  0  0  0  0  0  0  0  0  0  0  0
    0.0639    0.8828    3.0307 H   0  0  0  0  0  0  0  0  0  0  0  0
   -0.7885    2.8442    3.0780 C   0  0  0  0  0  0  0  0  0  0  0  0
   -1.7523    2.9106    3.5940 H   0  0  0  0  0  0  0  0  0  0  0  0
    0.0037    3.0971    3.7895 H   0  0  0  0  0  0  0  0  0  0  0  0
   -0.7724    3.5830    2.2695 H   0  0  0  0  0  0  0  0  0  0  0  0
  1  2  1  0  0  0  0
  2  3  1  0  0  0  0
  2  4  1  0  0  0  0
  2  5  1  0  0  0  0
  5  6  2  0  0  0  0
  5  7  1  0  0  0  0
  7  8  1  0  0  0  0
  7  9  1  0  0  0  0
  9 10  1  0  0  0  0
  9 11  1  0  0  0  0
  9 29  1  0  0  0  0
 11 12  1  0  0  0  0
 11 13  1  0  0  0  0
 11 14  1  0  0  0  0
 14 15  1  0  0  0  0
 14 16  1  0  0  0  0
 14 17  1  0  0  0  0
 17 18  1  0  0  0  0
 17 19  1  0  0  0  0
 17 20  1  0  0  0  0
 20 21  1  0  0  0  0
 20 22  2  0  0  0  0
 22 23  1  0  0  0  0
 22 26  1  0  0  0  0
 23 24  1  0  0  0  0
 23 25  1  0  0  0  0
 26 27  1  0  0  0  0
 26 28  1  0  0  0  0
 29 30  2  0  0  0  0
 29 31  1  0  0  0  0
 31 32  1  0  0  0  0
 31 33  1  0  0  0  0
 33 34  1  0  0  0  0
 33 35  1  0  0  0  0
 33 36  1  0  0  0  0
M  CHG  1  20   1
M  END
$$$$

  -OEChem-03222214013D

 36 35  0     1  0  0  0  0  0999 V2000
   -3.9823   -4.1183    2.0811 H   0  0  0  0  0  0  0  0  0  0  0  0
   -4.0302   -3.1151    1.6485 C   0  0  0  0  0  0  0  0  0  0  0  0
   -4.6671   -2.4906    2.2797 H   0  0  0  0  0  0  0  0  0  0  0  0
   -4.4713   -3.1821    0.6511 H   0  0  0  0  0  0  0  0  0  0  0  0
   -2.6396   -2.5165    1.5609 C   0  0  0  0  0  0  0  0  0  0  0  0
   -1.6629   -3.1714    1.8949 O   0  0  0  0  0  0  0  0  0  0  0  0
   -2.4656   -1.2365    1.0747 N   0  0  0  0  0  0  0  0  0  0  0  0
   -3.3052   -0.6921    0.8764 H   0  0  0  0  0  0  0  0  0  0  0  0
   -1.1916   -0.5074    1.1315 C   0  0  1  0  0  0  0  0  0  0  0  0
   -0.5385   -0.9752    1.8740 H   0  0  0  0  0  0  0  0  0  0  0  0
   -0.5498   -0.5625   -0.2768 C   0  0  0  0  0  0  0  0  0  0  0  0
   -1.2071   -1.0904   -0.9771 H   0  0  0  0  0  0  0  0  0  0  0  0
   -0.4560    0.4609   -0.6577 H   0  0  0  0  0  0  0  0  0  0  0  0
    0.8312   -1.2449   -0.2873 C   0  0  0  0  0  0  0  0  0  0  0  0
    1.2299   -1.3337    0.7282 H   0  0  0  0  0  0  0  0  0  0  0  0
    0.7226   -2.2596   -0.6867 H   0  0  0  0  0  0  0  0  0  0  0  0
    1.8216   -0.4379   -1.1251 C   0  0  0  0  0  0  0  0  0  0  0  0
    1.4164   -0.3177   -2.1361 H   0  0  0  0  0  0  0  0  0  0  0  0
    1.9447    0.5557   -0.6795 H   0  0  0  0  0  0  0  0  0  0  0  0
    3.1179   -1.1386   -1.1799 N   0  3  0  0  0  0  0  0  0  0  0  0
    3.1803   -2.0359   -0.7000 H   0  0  0  0  0  0  0  0  0  0  0  0
    4.1540   -0.6887   -1.8273 C   0  0  0  0  0  0  0  0  0  0  0  0
    4.1150    0.4994   -2.5211 N   0  0  0  0  0  0  0  0  0  0  0  0
    3.2075    0.9393   -2.6601 H   0  0  0  0  0  0  0  0  0  0  0  0
    4.8508    0.6956   -3.1968 H   0  0  0  0  0  0  0  0  0  0  0  0
    5.3224   -1.4127   -1.8273 N   0  0  0  0  0  0  0  0  0  0  0  0
    5.4144   -2.1979   -1.1856 H   0  0  0  0  0  0  0  0  0  0  0  0
    6.1742   -0.9628   -2.1578 H   0  0  0  0  0  0  0  0  0  0  0  0
   -1.4163    0.9438    1.6028 C   0  0  0  0  0  0  0  0  0  0  0  0
   -2.3143    1.6070    1.1011 O   0  0  0  0  0  0  0  0  0  0  0  0
   -0.5917    1.5159    2.5551 N   0  0  0  0  0  0  0  0  0  0  0  0
    0.0396    0.8972    3.0562 H   0  0  0  0  0  0  0  0  0  0  0  0
   -0.8270    2.8513    3.0969 C   0  0  0  0  0  0  0  0  0  0  0  0
   -1.7966    2.8945    3.6047 H   0  0  0  0  0  0  0  0  0  0  0  0
   -0.0468    3.1118    3.8188 H   0  0  0  0  0  0  0  0  0  0  0  0
   -0.8174    3.5989    2.2965 H   0  0  0  0  0  0  0  0  0  0  0  0
  1  2  1  0  0  0  0
  2  3  1  0  0  0  0
  2  4  1  0  0  0  0
  2  5  1  0  0  0  0
  5  6  2  0  0  0  0
  5  7  1  0  0  0  0
  7  8  1  0  0  0  0
  7  9  1  0  0  0  0
  9 10  1  0  0  0  0
  9 11  1  0  0  0  0
  9 29  1  0  0  0  0
 11 12  1  0  0  0  0
 11 13  1  0  0  0  0
 11 14  1  0  0  0  0
 14 15  1  0  0  0  0
 14 16  1  0  0  0  0
 14 17  1  0  0  0  0
 17 18  1  0  0  0  0
 17 19  1  0  0  0  0
 17 20  1  0  0  0  0
 20 21  1  0  0  0  0
 20 22  2  0  0  0  0
 22 23  1  0  0  0  0
 22 26  1  0  0  0  0
 23 24  1  0  0  0  0
 23 25  1  0  0  0  0
 26 27  1  0  0  0  0
 26 28  1  0  0  0  0
 29 30  2  0  0  0  0
 29 31  1  0  0  0  0
 31 32  1  0  0  0  0
 31 33  1  0  0  0  0
 33 34  1  0  0  0  0
 33 35  1  0  0  0  0
 33 36  1  0  0  0  0
M  CHG  1  20   1
M  END
$$$$

  -OEChem-03222214013D

 36 35  0     1  0  0  0  0  0999 V2000
   -3.9869   -4.1216    2.0793 H   0  0  0  0  0  0  0  0  0  0  0  0
   -4.0336   -3.1224    1.6375 C   0  0  0  0  0  0  0  0  0  0  0  0
   -4.6869   -2.4973    2.2509 H   0  0  0  0  0  0  0  0  0  0  0  0
   -4.4546   -3.2009    0.6324 H   0  0  0  0  0  0  0  0  0  0  0  0
   -2.6456   -2.5155    1.5718 C   0  0  0  0  0  0  0  0  0  0  0  0
   -1.6717   -3.1610    1.9311 O   0  0  0  0  0  0  0  0  0  0  0  0
   -2.4701   -1.2369    1.0821 N   0  0  0  0  0  0  0  0  0  0  0  0
   -3.3082   -0.6990    0.8603 H   0  0  0  0  0  0  0  0  0  0  0  0
   -1.1959   -0.5075    1.1389 C   0  0  1  0  0  0  0  0  0  0  0  0
   -0.5445   -0.9716    1.8850 H   0  0  0  0  0  0  0  0  0  0  0  0
   -0.5468   -0.5579   -0.2668 C   0  0  0  0  0  0  0  0  0  0  0  0
   -1.2015   -1.1061   -0.9537 H   0  0  0  0  0  0  0  0  0  0  0  0
   -0.4706    0.4583   -0.6702 H   0  0  0  0  0  0  0  0  0  0  0  0
    0.8369   -1.2375   -0.2794 C   0  0  0  0  0  0  0  0  0  0  0  0
    1.1090   -1.6097    0.7136 H   0  0  0  0  0  0  0  0  0  0  0  0
    0.7915   -2.1061   -0.9459 H   0  0  0  0  0  0  0  0  0  0  0  0
    1.9061   -0.2674   -0.7785 C   0  0  0  0  0  0  0  0  0  0  0  0
    1.6225    0.0930   -1.7736 H   0  0  0  0  0  0  0  0  0  0  0  0
    1.9575    0.5912   -0.0995 H   0  0  0  0  0  0  0  0  0  0  0  0
    3.2126   -0.9481   -0.8388 N   0  3  0  0  0  0  0  0  0  0  0  0
    3.2398   -1.9268   -0.5539 H   0  0  0  0  0  0  0  0  0  0  0  0
    4.3045   -0.3749   -1.2563 C   0  0  0  0  0  0  0  0  0  0  0  0
    4.3201    0.9345   -1.6812 N   0  0  0  0  0  0  0  0  0  0  0  0
    3.4260    1.4003   -1.8240 H   0  0  0  0  0  0  0  0  0  0  0  0
    5.1235    1.2673   -2.2107 H   0  0  0  0  0  0  0  0  0  0  0  0
    5.4787   -1.0891   -1.2806 N   0  0  0  0  0  0  0  0  0  0  0  0
    5.5154   -1.9909   -0.8092 H   0  0  0  0  0  0  0  0  0  0  0  0
    6.3531   -0.5858   -1.4195 H   0  0  0  0  0  0  0  0  0  0  0  0
   -1.4173    0.9456    1.6054 C   0  0  0  0  0  0  0  0  0  0  0  0
   -2.3076    1.6134    1.0965 O   0  0  0  0  0  0  0  0  0  0  0  0
   -0.5910    1.5172    2.5568 N   0  0  0  0  0  0  0  0  0  0  0  0
    0.0276    0.8939    3.0680 H   0  0  0  0  0  0  0  0  0  0  0  0
   -0.8232    2.8551    3.0939 C   0  0  0  0  0  0  0  0  0  0  0  0
   -1.7934    2.9026    3.6004 H   0  0  0  0  0  0  0  0  0  0  0  0
   -0.0432    3.1167    3.8156 H   0  0  0  0  0  0  0  0  0  0  0  0
   -0.8110    3.5996    2.2907 H   0  0  0  0  0  0  0  0  0  0  0  0
  1  2  1  0  0  0  0
  2  3  1  0  0  0  0
  2  4  1  0  0  0  0
  2  5  1  0  0  0  0
  5  6  2  0  0  0  0
  5  7  1  0  0  0  0
  7  8  1  0  0  0  0
  7  9  1  0  0  0  0
  9 10  1  0  0  0  0
  9 11  1  0  0  0  0
  9 29  1  0  0  0  0
 11 12  1  0  0  0  0
 11 13  1  0  0  0  0
 11 14  1  0  0  0  0
 14 15  1  0  0  0  0
 14 16  1  0  0  0  0
 14 17  1  0  0  0  0
 17 18  1  0  0  0  0
 17 19  1  0  0  0  0
 17 20  1  0  0  0  0
 20 21  1  0  0  0  0
 20 22  2  0  0  0  0
 22 23  1  0  0  0  0
 22 26  1  0  0  0  0
 23 24  1  0  0  0  0
 23 25  1  0  0  0  0
 26 27  1  0  0  0  0
 26 28  1  0  0  0  0
 29 30  2  0  0  0  0
 29 31  1  0  0  0  0
 31 32  1  0  0  0  0
 31 33  1  0  0  0  0
 33 34  1  0  0  0  0
 33 35  1  0  0  0  0
 33 36  1  0  0  0  0
M  CHG  1  20   1
M  END
$$$$

  -OEChem-03222214013D

 36 35  0     1  0  0  0  0  0999 V2000
   -3.9735   -4.1288    2.0765 H   0  0  0  0  0  0  0  0  0  0  0  0
   -4.0234   -3.1280    1.6380 C   0  0  0  0  0  0  0  0  0  0  0  0
   -4.6769   -2.5065    2.2551 H   0  0  0  0  0  0  0  0  0  0  0  0
   -4.4474   -3.2038    0.6339 H   0  0  0  0  0  0  0  0  0  0  0  0
   -2.6372   -2.5165    1.5707 C   0  0  0  0  0  0  0  0  0  0  0  0
   -1.6609   -3.1566    1.9336 O   0  0  0  0  0  0  0  0  0  0  0  0
   -2.4661   -1.2366    1.0827 N   0  0  0  0  0  0  0  0  0  0  0  0
   -3.3054   -0.7031    0.8554 H   0  0  0  0  0  0  0  0  0  0  0  0
   -1.1937   -0.5037    1.1354 C   0  0  1  0  0  0  0  0  0  0  0  0
   -0.5343   -0.9663    1.8759 H   0  0  0  0  0  0  0  0  0  0  0  0
   -0.5472   -0.5451   -0.2712 C   0  0  0  0  0  0  0  0  0  0  0  0
   -1.1987   -1.1113   -0.9465 H   0  0  0  0  0  0  0  0  0  0  0  0
   -0.4807    0.4649   -0.6915 H   0  0  0  0  0  0  0  0  0  0  0  0
    0.8359   -1.2201   -0.2775 C   0  0  0  0  0  0  0  0  0  0  0  0
    0.9794   -1.8404    0.6141 H   0  0  0  0  0  0  0  0  0  0  0  0
    0.8868   -1.8895   -1.1435 H   0  0  0  0  0  0  0  0  0  0  0  0
    1.9437   -0.1754   -0.4021 C   0  0  0  0  0  0  0  0  0  0  0  0
    1.7832    0.4063   -1.3167 H   0  0  0  0  0  0  0  0  0  0  0  0
    1.8958    0.5047    0.4557 H   0  0  0  0  0  0  0  0  0  0  0  0
    3.2569   -0.8440   -0.4486 N   0  3  0  0  0  0  0  0  0  0  0  0
    3.2631   -1.8595   -0.3577 H   0  0  0  0  0  0  0  0  0  0  0  0
    4.3833   -0.2121   -0.6118 C   0  0  0  0  0  0  0  0  0  0  0  0
    4.4326    1.1552   -0.7615 N   0  0  0  0  0  0  0  0  0  0  0  0
    3.5555    1.6482   -0.9167 H   0  0  0  0  0  0  0  0  0  0  0  0
    5.2882    1.5770   -1.1171 H   0  0  0  0  0  0  0  0  0  0  0  0
    5.5610   -0.9203   -0.6385 N   0  0  0  0  0  0  0  0  0  0  0  0
    5.5522   -1.8999   -0.3607 H   0  0  0  0  0  0  0  0  0  0  0  0
    6.4389   -0.4095   -0.5629 H   0  0  0  0  0  0  0  0  0  0  0  0
   -1.4176    0.9475    1.6050 C   0  0  0  0  0  0  0  0  0  0  0  0
   -2.3065    1.6167    1.0959 O   0  0  0  0  0  0  0  0  0  0  0  0
   -0.5886    1.5191    2.5543 N   0  0  0  0  0  0  0  0  0  0  0  0
    0.0128    0.8899    3.0787 H   0  0  0  0  0  0  0  0  0  0  0  0
   -0.8308    2.8524    3.0987 C   0  0  0  0  0  0  0  0  0  0  0  0
   -1.8024    2.8908    3.6035 H   0  0  0  0  0  0  0  0  0  0  0  0
   -0.0541    3.1141    3.8238 H   0  0  0  0  0  0  0  0  0  0  0  0
   -0.8218    3.6022    2.3003 H   0  0  0  0  0  0  0  0  0  0  0  0
  1  2  1  0  0  0  0
  2  3  1  0  0  0  0
  2  4  1  0  0  0  0
  2  5  1  0  0  0  0
  5  6  2  0  0  0  0
  5  7  1  0  0  0  0
  7  8  1  0  0  0  0
  7  9  1  0  0  0  0
  9 10  1  0  0  0  0
  9 11  1  0  0  0  0
  9 29  1  0  0  0  0
 11 12  1  0  0  0  0
 11 13  1  0  0  0  0
 11 14  1  0  0  0  0
 14 15  1  0  0  0  0
 14 16  1  0  0  0  0
 14 17  1  0  0  0  0
 17 18  1  0  0  0  0
 17 19  1  0  0  0  0
 17 20  1  0  0  0  0
 20 21  1  0  0  0  0
 20 22  2  0  0  0  0
 22 23  1  0  0  0  0
 22 26  1  0  0  0  0
 23 24  1  0  0  0  0
 23 25  1  0  0  0  0
 26 27  1  0  0  0  0
 26 28  1  0  0  0  0
 29 30  2  0  0  0  0
 29 31  1  0  0  0  0
 31 32  1  0  0  0  0
 31 33  1  0  0  0  0
 33 34  1  0  0  0  0
 33 35  1  0  0  0  0
 33 36  1  0  0  0  0
M  CHG  1  20   1
M  END
$$$$

  -OEChem-03222214013D

 36 35  0     1  0  0  0  0  0999 V2000
   -3.9467   -4.1389    2.0631 H   0  0  0  0  0  0  0  0  0  0  0  0
   -4.0033   -3.1352    1.6325 C   0  0  0  0  0  0  0  0  0  0  0  0
   -4.6548   -2.5203    2.2582 H   0  0  0  0  0  0  0  0  0  0  0  0
   -4.4328   -3.2050    0.6304 H   0  0  0  0  0  0  0  0  0  0  0  0
   -2.6203   -2.5178    1.5614 C   0  0  0  0  0  0  0  0  0  0  0  0
   -1.6397   -3.1532    1.9216 O   0  0  0  0  0  0  0  0  0  0  0  0
   -2.4573   -1.2350    1.0785 N   0  0  0  0  0  0  0  0  0  0  0  0
   -3.2995   -0.7053    0.8528 H   0  0  0  0  0  0  0  0  0  0  0  0
   -1.1879   -0.4977    1.1309 C   0  0  1  0  0  0  0  0  0  0  0  0
   -0.5199   -0.9622    1.8631 H   0  0  0  0  0  0  0  0  0  0  0  0
   -0.5474   -0.5301   -0.2775 C   0  0  0  0  0  0  0  0  0  0  0  0
   -1.1964   -1.0972   -0.9542 H   0  0  0  0  0  0  0  0  0  0  0  0
   -0.4758    0.4801   -0.6964 H   0  0  0  0  0  0  0  0  0  0  0  0
    0.8328   -1.2020   -0.2730 C   0  0  0  0  0  0  0  0  0  0  0  0
    0.8638   -2.0113    0.4659 H   0  0  0  0  0  0  0  0  0  0  0  0
    0.9983   -1.6545   -1.2568 H   0  0  0  0  0  0  0  0  0  0  0  0
    1.9326   -0.1735   -0.0170 C   0  0  0  0  0  0  0  0  0  0  0  0
    1.8895    0.5961   -0.7958 H   0  0  0  0  0  0  0  0  0  0  0  0
    1.7620    0.3042    0.9541 H   0  0  0  0  0  0  0  0  0  0  0  0
    3.2469   -0.8411   -0.0301 N   0  3  0  0  0  0  0  0  0  0  0  0
    3.2487   -1.8573   -0.1152 H   0  0  0  0  0  0  0  0  0  0  0  0
    4.3807   -0.2075    0.0579 C   0  0  0  0  0  0  0  0  0  0  0  0
    4.4391    1.1640    0.1588 N   0  0  0  0  0  0  0  0  0  0  0  0
    3.5841    1.6893   -0.0124 H   0  0  0  0  0  0  0  0  0  0  0  0
    5.3282    1.6282   -0.0167 H   0  0  0  0  0  0  0  0  0  0  0  0
    5.5572   -0.9182    0.0497 N   0  0  0  0  0  0  0  0  0  0  0  0
    5.5195   -1.9313    0.1473 H   0  0  0  0  0  0  0  0  0  0  0  0
    6.4152   -0.4434    0.3248 H   0  0  0  0  0  0  0  0  0  0  0  0
   -1.4174    0.9497    1.6082 C   0  0  0  0  0  0  0  0  0  0  0  0
   -2.3052    1.6205    1.0999 O   0  0  0  0  0  0  0  0  0  0  0  0
   -0.5875    1.5183    2.5586 N   0  0  0  0  0  0  0  0  0  0  0  0
   -0.0085    0.8807    3.0976 H   0  0  0  0  0  0  0  0  0  0  0  0
   -0.8393    2.8471    3.1096 C   0  0  0  0  0  0  0  0  0  0  0  0
   -1.8140    2.8773    3.6090 H   0  0  0  0  0  0  0  0  0  0  0  0
   -0.0681    3.1090    3.8404 H   0  0  0  0  0  0  0  0  0  0  0  0
   -0.8301    3.6014    2.3153 H   0  0  0  0  0  0  0  0  0  0  0  0
  1  2  1  0  0  0  0
  2  3  1  0  0  0  0
  2  4  1  0  0  0  0
  2  5  1  0  0  0  0
  5  6  2  0  0  0  0
  5  7  1  0  0  0  0
  7  8  1  0  0  0  0
  7  9  1  0  0  0  0
  9 10  1  0  0  0  0
  9 11  1  0  0  0  0
  9 29  1  0  0  0  0
 11 12  1  0  0  0  0
 11 13  1  0  0  0  0
 11 14  1  0  0  0  0
 14 15  1  0  0  0  0
 14 16  1  0  0  0  0
 14 17  1  0  0  0  0
 17 18  1  0  0  0  0
 17 19  1  0  0  0  0
 17 20  1  0  0  0  0
 20 21  1  0  0  0  0
 20 22  2  0  0  0  0
 22 23  1  0  0  0  0
 22 26  1  0  0  0  0
 23 24  1  0  0  0  0
 23 25  1  0  0  0  0
 26 27  1  0  0  0  0
 26 28  1  0  0  0  0
 29 30  2  0  0  0  0
 29 31  1  0  0  0  0
 31 32  1  0  0  0  0
 31 33  1  0  0  0  0
 33 34  1  0  0  0  0
 33 35  1  0  0  0  0
 33 36  1  0  0  0  0
M  CHG  1  20   1
M  END
$$$$

  -OEChem-03222214013D

 36 35  0     1  0  0  0  0  0999 V2000
   -3.9917   -4.1682    1.8399 H   0  0  0  0  0  0  0  0  0  0  0  0
   -4.0360   -3.1400    1.4701 C   0  0  0  0  0  0  0  0  0  0  0  0
   -4.7169   -2.5674    2.1046 H   0  0  0  0  0  0  0  0  0  0  0  0
   -4.4228   -3.1501    0.4482 H   0  0  0  0  0  0  0  0  0  0  0  0
   -2.6543   -2.5154    1.4956 C   0  0  0  0  0  0  0  0  0  0  0  0
   -1.6940   -3.1552    1.9006 O   0  0  0  0  0  0  0  0  0  0  0  0
   -2.4671   -1.2231    1.0471 N   0  0  0  0  0  0  0  0  0  0  0  0
   -3.2950   -0.6916    0.7770 H   0  0  0  0  0  0  0  0  0  0  0  0
   -1.2009   -0.4889    1.1742 C   0  0  1  0  0  0  0  0  0  0  0  0
   -0.5680   -0.9723    1.9250 H   0  0  0  0  0  0  0  0  0  0  0  0
   -0.4967   -0.5019   -0.2040 C   0  0  0  0  0  0  0  0  0  0  0  0
   -1.1129   -1.0484   -0.9269 H   0  0  0  0  0  0  0  0  0  0  0  0
   -0.3913    0.5172   -0.5928 H   0  0  0  0  0  0  0  0  0  0  0  0
    0.8778   -1.1773   -0.1409 C   0  0  0  0  0  0  0  0  0  0  0  0
    0.7934   -2.1311    0.3938 H   0  0  0  0  0  0  0  0  0  0  0  0
    1.2081   -1.3987   -1.1617 H   0  0  0  0  0  0  0  0  0  0  0  0
    1.9048   -0.2674    0.5304 C   0  0  0  0  0  0  0  0  0  0  0  0
    1.9898    0.6588   -0.0479 H   0  0  0  0  0  0  0  0  0  0  0  0
    1.5636   -0.0129    1.5397 H   0  0  0  0  0  0  0  0  0  0  0  0
    3.2033   -0.9628    0.5997 N   0  3  0  0  0  0  0  0  0  0  0  0
    3.1769   -1.9809    0.6546 H   0  0  0  0  0  0  0  0  0  0  0  0
    4.3556   -0.3567    0.6144 C   0  0  0  0  0  0  0  0  0  0  0  0
    4.4605    1.0140    0.5430 N   0  0  0  0  0  0  0  0  0  0  0  0
    3.6238    1.5457    0.3118 H   0  0  0  0  0  0  0  0  0  0  0  0
    5.3648    1.4225    0.3153 H   0  0  0  0  0  0  0  0  0  0  0  0
    5.5085   -1.0999    0.7031 N   0  0  0  0  0  0  0  0  0  0  0  0
    5.4384   -2.0910    0.9267 H   0  0  0  0  0  0  0  0  0  0  0  0
    6.3806   -0.6217    0.9216 H   0  0  0  0  0  0  0  0  0  0  0  0
   -1.4478    0.9502    1.6692 C   0  0  0  0  0  0  0  0  0  0  0  0
   -2.3059    1.6354    1.1307 O   0  0  0  0  0  0  0  0  0  0  0  0
   -0.6613    1.4976    2.6685 N   0  0  0  0  0  0  0  0  0  0  0  0
   -0.1172    0.8475    3.2282 H   0  0  0  0  0  0  0  0  0  0  0  0
   -0.9280    2.8213    3.2256 C   0  0  0  0  0  0  0  0  0  0  0  0
   -1.9281    2.8560    3.6715 H   0  0  0  0  0  0  0  0  0  0  0  0
   -0.1951    3.0625    4.0017 H   0  0  0  0  0  0  0  0  0  0  0  0
   -0.8664    3.5874    2.4450 H   0  0  0  0  0  0  0  0  0  0  0  0
  1  2  1  0  0  0  0
  2  3  1  0  0  0  0
  2  4  1  0  0  0  0
  2  5  1  0  0  0  0
  5  6  2  0  0  0  0
  5  7  1  0  0  0  0
  7  8  1  0  0  0  0
  7  9  1  0  0  0  0
  9 10  1  0  0  0  0
  9 11  1  0  0  0  0
  9 29  1  0  0  0  0
 11 12  1  0  0  0  0
 11 13  1  0  0  0  0
 11 14  1  0  0  0  0
 14 15  1  0  0  0  0
 14 16  1  0  0  0  0
 14 17  1  0  0  0  0
 17 18  1  0  0  0  0
 17 19  1  0  0  0  0
 17 20  1  0  0  0  0
 20 21  1  0  0  0  0
 20 22  2  0  0  0  0
 22 23  1  0  0  0  0
 22 26  1  0  0  0  0
 23 24  1  0  0  0  0
 23 25  1  0  0  0  0
 26 27  1  0  0  0  0
 26 28  1  0  0  0  0
 29 30  2  0  0  0  0
 29 31  1  0  0  0  0
 31 32  1  0  0  0  0
 31 33  1  0  0  0  0
 33 34  1  0  0  0  0
 33 35  1  0  0  0  0
 33 36  1  0  0  0  0
M  CHG  1  20   1
M  END
$$$$

  -OEChem-03222214013D

 36 35  0     1  0  0  0  0  0999 V2000
   -4.1384   -4.0919    1.4742 H   0  0  0  0  0  0  0  0  0  0  0  0
   -4.1039   -3.0619    1.1082 C   0  0  0  0  0  0  0  0  0  0  0  0
   -4.8558   -2.4747    1.6410 H   0  0  0  0  0  0  0  0  0  0  0  0
   -4.3393   -3.0596    0.0412 H   0  0  0  0  0  0  0  0  0  0  0  0
   -2.7257   -2.4713    1.3362 C   0  0  0  0  0  0  0  0  0  0  0  0
   -1.8425   -3.1434    1.8499 O   0  0  0  0  0  0  0  0  0  0  0  0
   -2.4518   -1.1747    0.9487 N   0  0  0  0  0  0  0  0  0  0  0  0
   -3.2244   -0.6175    0.5834 H   0  0  0  0  0  0  0  0  0  0  0  0
   -1.2047   -0.4704    1.2748 C   0  0  1  0  0  0  0  0  0  0  0  0
   -0.7000   -0.9861    2.0967 H   0  0  0  0  0  0  0  0  0  0  0  0
   -0.3117   -0.4696    0.0095 C   0  0  0  0  0  0  0  0  0  0  0  0
   -0.8323   -0.9680   -0.8160 H   0  0  0  0  0  0  0  0  0  0  0  0
   -0.1297    0.5610   -0.3153 H   0  0  0  0  0  0  0  0  0  0  0  0
    1.0366   -1.1706    0.2218 C   0  0  0  0  0  0  0  0  0  0  0  0
    0.8528   -2.2205    0.4798 H   0  0  0  0  0  0  0  0  0  0  0  0
    1.5934   -1.1542   -0.7211 H   0  0  0  0  0  0  0  0  0  0  0  0
    1.8656   -0.5085    1.3240 C   0  0  0  0  0  0  0  0  0  0  0  0
    1.9916    0.5570    1.1063 H   0  0  0  0  0  0  0  0  0  0  0  0
    1.3345   -0.5872    2.2783 H   0  0  0  0  0  0  0  0  0  0  0  0
    3.1729   -1.1827    1.4357 N   0  3  0  0  0  0  0  0  0  0  0  0
    3.1777   -2.1007    1.8809 H   0  0  0  0  0  0  0  0  0  0  0  0
    4.2945   -0.6875    0.9957 C   0  0  0  0  0  0  0  0  0  0  0  0
    4.3562    0.5289    0.3542 N   0  0  0  0  0  0  0  0  0  0  0  0
    3.4804    0.9631    0.0703 H   0  0  0  0  0  0  0  0  0  0  0  0
    5.1976    0.7620   -0.1695 H   0  0  0  0  0  0  0  0  0  0  0  0
    5.4589   -1.3977    1.1665 N   0  0  0  0  0  0  0  0  0  0  0  0
    5.4543   -2.2069    1.7849 H   0  0  0  0  0  0  0  0  0  0  0  0
    6.3464   -0.9245    1.0059 H   0  0  0  0  0  0  0  0  0  0  0  0
   -1.4995    0.9632    1.7605 C   0  0  0  0  0  0  0  0  0  0  0  0
   -2.2564    1.6737    1.1137 O   0  0  0  0  0  0  0  0  0  0  0  0
   -0.8614    1.4788    2.8752 N   0  0  0  0  0  0  0  0  0  0  0  0
   -0.4082    0.8125    3.4936 H   0  0  0  0  0  0  0  0  0  0  0  0
   -1.1775    2.8017    3.4080 C   0  0  0  0  0  0  0  0  0  0  0  0
   -2.2163    2.8382    3.7537 H   0  0  0  0  0  0  0  0  0  0  0  0
   -0.5226    3.0394    4.2520 H   0  0  0  0  0  0  0  0  0  0  0  0
   -1.0379    3.5704    2.6401 H   0  0  0  0  0  0  0  0  0  0  0  0
  1  2  1  0  0  0  0
  2  3  1  0  0  0  0
  2  4  1  0  0  0  0
  2  5  1  0  0  0  0
  5  6  2  0  0  0  0
  5  7  1  0  0  0  0
  7  8  1  0  0  0  0
  7  9  1  0  0  0  0
  9 10  1  0  0  0  0
  9 11  1  0  0  0  0
  9 29  1  0  0  0  0
 11 12  1  0  0  0  0
 11 13  1  0  0  0  0
 11 14  1  0  0  0  0
 14 15  1  0  0  0  0
 14 16  1  0  0  0  0
 14 17  1  0  0  0  0
 17 18  1  0  0  0  0
 17 19  1  0  0  0  0
 17 20  1  0  0  0  0
 20 21  1  0  0  0  0
 20 22  2  0  0  0  0
 22 23  1  0  0  0  0
 22 26  1  0  0  0  0
 23 24  1  0  0  0  0
 23 25  1  0  0  0  0
 26 27  1  0  0  0  0
 26 28  1  0  0  0  0
 29 30  2  0  0  0  0
 29 31  1  0  0  0  0
 31 32  1  0  0  0  0
 31 33  1  0  0  0  0
 33 34  1  0  0  0  0
 33 35  1  0  0  0  0
 33 36  1  0  0  0  0
M  CHG  1  20   1
M  END
$$$$

  -OEChem-03222214013D

 36 35  0     1  0  0  0  0  0999 V2000
   -4.2505   -4.0483    1.3806 H   0  0  0  0  0  0  0  0  0  0  0  0
   -4.1892   -3.0105    1.0412 C   0  0  0  0  0  0  0  0  0  0  0  0
   -4.9459   -2.4229    1.5668 H   0  0  0  0  0  0  0  0  0  0  0  0
   -4.3937   -2.9787   -0.0317 H   0  0  0  0  0  0  0  0  0  0  0  0
   -2.8093   -2.4490    1.3234 C   0  0  0  0  0  0  0  0  0  0  0  0
   -1.9667   -3.1321    1.8887 O   0  0  0  0  0  0  0  0  0  0  0  0
   -2.4875   -1.1664    0.9267 N   0  0  0  0  0  0  0  0  0  0  0  0
   -3.2308   -0.5982    0.5196 H   0  0  0  0  0  0  0  0  0  0  0  0
   -1.2410   -0.4840    1.2979 C   0  0  1  0  0  0  0  0  0  0  0  0
   -0.8003   -0.9964    2.1551 H   0  0  0  0  0  0  0  0  0  0  0  0
   -0.2927   -0.5341    0.0722 C   0  0  0  0  0  0  0  0  0  0  0  0
   -0.7963   -1.0159   -0.7737 H   0  0  0  0  0  0  0  0  0  0  0  0
   -0.0730    0.4914   -0.2453 H   0  0  0  0  0  0  0  0  0  0  0  0
    1.0458   -1.2550    0.3103 C   0  0  0  0  0  0  0  0  0  0  0  0
    0.8489   -2.3333    0.3236 H   0  0  0  0  0  0  0  0  0  0  0  0
    1.7081   -1.0522   -0.5378 H   0  0  0  0  0  0  0  0  0  0  0  0
    1.7424   -0.8759    1.6207 C   0  0  0  0  0  0  0  0  0  0  0  0
    1.8994    0.2071    1.6620 H   0  0  0  0  0  0  0  0  0  0  0  0
    1.1092   -1.1499    2.4703 H   0  0  0  0  0  0  0  0  0  0  0  0
    3.0230   -1.6003    1.7275 N   0  3  0  0  0  0  0  0  0  0  0  0
    2.9712   -2.5773    2.0173 H   0  0  0  0  0  0  0  0  0  0  0  0
    4.1884   -1.0768    1.4753 C   0  0  0  0  0  0  0  0  0  0  0  0
    4.3280    0.2234    1.0450 N   0  0  0  0  0  0  0  0  0  0  0  0
    3.4898    0.7187    0.7480 H   0  0  0  0  0  0  0  0  0  0  0  0
    5.2195    0.5120    0.6470 H   0  0  0  0  0  0  0  0  0  0  0  0
    5.3193   -1.8418    1.6341 N   0  0  0  0  0  0  0  0  0  0  0  0
    5.2422   -2.7369    2.1138 H   0  0  0  0  0  0  0  0  0  0  0  0
    6.2258   -1.3776    1.6335 H   0  0  0  0  0  0  0  0  0  0  0  0
   -1.5227    0.9650    1.7443 C   0  0  0  0  0  0  0  0  0  0  0  0
   -2.2433    1.6767    1.0586 O   0  0  0  0  0  0  0  0  0  0  0  0
   -0.9233    1.4855    2.8780 N   0  0  0  0  0  0  0  0  0  0  0  0
   -0.5052    0.8215    3.5227 H   0  0  0  0  0  0  0  0  0  0  0  0
   -1.2331    2.8228    3.3770 C   0  0  0  0  0  0  0  0  0  0  0  0
   -2.2896    2.8923    3.6578 H   0  0  0  0  0  0  0  0  0  0  0  0
   -0.6251    3.0506    4.2579 H   0  0  0  0  0  0  0  0  0  0  0  0
   -1.0243    3.5783    2.6118 H   0  0  0  0  0  0  0  0  0  0  0  0
  1  2  1  0  0  0  0
  2  3  1  0  0  0  0
  2  4  1  0  0  0  0
  2  5  1  0  0  0  0
  5  6  2  0  0  0  0
  5  7  1  0  0  0  0
  7  8  1  0  0  0  0
  7  9  1  0  0  0  0
  9 10  1  0  0  0  0
  9 11  1  0  0  0  0
  9 29  1  0  0  0  0
 11 12  1  0  0  0  0
 11 13  1  0  0  0  0
 11 14  1  0  0  0  0
 14 15  1  0  0  0  0
 14 16  1  0  0  0  0
 14 17  1  0  0  0  0
 17 18  1  0  0  0  0
 17 19  1  0  0  0  0
 17 20  1  0  0  0  0
 20 21  1  0  0  0  0
 20 22  2  0  0  0  0
 22 23  1  0  0  0  0
 22 26  1  0  0  0  0
 23 24  1  0  0  0  0
 23 25  1  0  0  0  0
 26 27  1  0  0  0  0
 26 28  1  0  0  0  0
 29 30  2  0  0  0  0
 29 31  1  0  0  0  0
 31 32  1  0  0  0  0
 31 33  1  0  0  0  0
 33 34  1  0  0  0  0
 33 35  1  0  0  0  0
 33 36  1  0  0  0  0
M  CHG  1  20   1
M  END
$$$$

  -OEChem-03222214013D

 36 35  0     1  0  0  0  0  0999 V2000
   -2.8088   -4.2695    2.8303 H   0  0  0  0  0  0  0  0  0  0  0  0
   -3.1082   -3.3899    2.2537 C   0  0  0  0  0  0  0  0  0  0  0  0
   -3.8754   -2.8477    2.8124 H   0  0  0  0  0  0  0  0  0  0  0  0
   -3.5297   -3.7198    1.3009 H   0  0  0  0  0  0  0  0  0  0  0  0
   -1.9133   -2.4894    2.0080 C   0  0  0  0  0  0  0  0  0  0  0  0
   -0.7949   -2.8076    2.4067 O   0  0  0  0  0  0  0  0  0  0  0  0
   -2.0580   -1.3177    1.2927 N   0  0  0  0  0  0  0  0  0  0  0  0
   -3.0035   -1.0326    1.0306 H   0  0  0  0  0  0  0  0  0  0  0  0
   -1.0073   -0.2961    1.2273 C   0  0  1  0  0  0  0  0  0  0  0  0
   -0.3284   -0.4436    2.0626 H   0  0  0  0  0  0  0  0  0  0  0  0
   -0.3028   -0.4387   -0.1466 C   0  0  0  0  0  0  0  0  0  0  0  0
   -0.8066   -1.1988   -0.7547 H   0  0  0  0  0  0  0  0  0  0  0  0
   -0.4251    0.5072   -0.6865 H   0  0  0  0  0  0  0  0  0  0  0  0
    1.2080   -0.7571   -0.1212 C   0  0  0  0  0  0  0  0  0  0  0  0
    1.2832   -1.8499   -0.1296 H   0  0  0  0  0  0  0  0  0  0  0  0
    1.6642   -0.4008   -1.0514 H   0  0  0  0  0  0  0  0  0  0  0  0
    2.0231   -0.2346    1.0720 C   0  0  0  0  0  0  0  0  0  0  0  0
    2.3070    0.8071    0.8846 H   0  0  0  0  0  0  0  0  0  0  0  0
    1.4510   -0.2491    1.9994 H   0  0  0  0  0  0  0  0  0  0  0  0
    3.2231   -1.0704    1.2601 N   0  3  0  0  0  0  0  0  0  0  0  0
    4.0796   -0.7616    0.8015 H   0  0  0  0  0  0  0  0  0  0  0  0
    3.2444   -2.1500    1.9934 C   0  0  0  0  0  0  0  0  0  0  0  0
    2.1246   -2.6528    2.6230 N   0  0  0  0  0  0  0  0  0  0  0  0
    1.1988   -2.3356    2.3202 H   0  0  0  0  0  0  0  0  0  0  0  0
    2.1711   -3.5876    3.0209 H   0  0  0  0  0  0  0  0  0  0  0  0
    4.4318   -2.8233    2.1552 N   0  0  0  0  0  0  0  0  0  0  0  0
    5.2962   -2.3743    1.8592 H   0  0  0  0  0  0  0  0  0  0  0  0
    4.4877   -3.5409    2.8756 H   0  0  0  0  0  0  0  0  0  0  0  0
   -1.6188    1.1079    1.4281 C   0  0  0  0  0  0  0  0  0  0  0  0
   -2.6709    1.3843    0.8691 O   0  0  0  0  0  0  0  0  0  0  0  0
   -1.0278    2.0370    2.2664 N   0  0  0  0  0  0  0  0  0  0  0  0
   -0.2181    1.7502    2.8065 H   0  0  0  0  0  0  0  0  0  0  0  0
   -1.6236    3.3411    2.5443 C   0  0  0  0  0  0  0  0  0  0  0  0
   -2.5991    3.2232    3.0281 H   0  0  0  0  0  0  0  0  0  0  0  0
   -0.9763    3.9218    3.2089 H   0  0  0  0  0  0  0  0  0  0  0  0
   -1.7594    3.9072    1.6164 H   0  0  0  0  0  0  0  0  0  0  0  0
  1  2  1  0  0  0  0
  2  3  1  0  0  0  0
  2  4  1  0  0  0  0
  2  5  1  0  0  0  0
  5  6  2  0  0  0  0
  5  7  1  0  0  0  0
  7  8  1  0  0  0  0
  7  9  1  0  0  0  0
  9 10  1  0  0  0  0
  9 11  1  0  0  0  0
  9 29  1  0  0  0  0
 11 12  1  0  0  0  0
 11 13  1  0  0  0  0
 11 14  1  0  0  0  0
 14 15  1  0  0  0  0
 14 16  1  0  0  0  0
 14 17  1  0  0  0  0
 17 18  1  0  0  0  0
 17 19  1  0  0  0  0
 17 20  1  0  0  0  0
 20 21  1  0  0  0  0
 20 22  2  0  0  0  0
 22 23  1  0  0  0  0
 22 26  1  0  0  0  0
 23 24  1  0  0  0  0
 23 25  1  0  0  0  0
 26 27  1  0  0  0  0
 26 28  1  0  0  0  0
 29 30  2  0  0  0  0
 29 31  1  0  0  0  0
 31 32  1  0  0  0  0
 31 33  1  0  0  0  0
 33 34  1  0  0  0  0
 33 35  1  0  0  0  0
 33 36  1  0  0  0  0
M  CHG  1  20   1
M  END
$$$$

  -OEChem-03222214013D

 36 35  0     1  0  0  0  0  0999 V2000
   -3.0525   -4.1787    2.8651 H   0  0  0  0  0  0  0  0  0  0  0  0
   -3.2914   -3.3093    2.2464 C   0  0  0  0  0  0  0  0  0  0  0  0
   -4.0626   -2.7206    2.7500 H   0  0  0  0  0  0  0  0  0  0  0  0
   -3.6804   -3.6563    1.2858 H   0  0  0  0  0  0  0  0  0  0  0  0
   -2.0527   -2.4622    2.0287 C   0  0  0  0  0  0  0  0  0  0  0  0
   -0.9613   -2.8218    2.4673 O   0  0  0  0  0  0  0  0  0  0  0  0
   -2.1232   -1.3041    1.2813 N   0  0  0  0  0  0  0  0  0  0  0  0
   -3.0470   -0.9873    0.9811 H   0  0  0  0  0  0  0  0  0  0  0  0
   -1.0451   -0.3098    1.2763 C   0  0  1  0  0  0  0  0  0  0  0  0
   -0.4388   -0.4378    2.1680 H   0  0  0  0  0  0  0  0  0  0  0  0
   -0.2487   -0.4943   -0.0428 C   0  0  0  0  0  0  0  0  0  0  0  0
   -0.7367   -1.2488   -0.6709 H   0  0  0  0  0  0  0  0  0  0  0  0
   -0.3132    0.4446   -0.6047 H   0  0  0  0  0  0  0  0  0  0  0  0
    1.2535   -0.8531    0.0658 C   0  0  0  0  0  0  0  0  0  0  0  0
    1.3297   -1.9132   -0.2006 H   0  0  0  0  0  0  0  0  0  0  0  0
    1.8088   -0.2951   -0.6964 H   0  0  0  0  0  0  0  0  0  0  0  0
    1.9409   -0.6611    1.4263 C   0  0  0  0  0  0  0  0  0  0  0  0
    2.2229    0.3904    1.5503 H   0  0  0  0  0  0  0  0  0  0  0  0
    1.2765   -0.9264    2.2494 H   0  0  0  0  0  0  0  0  0  0  0  0
    3.1243   -1.5341    1.5142 N   0  3  0  0  0  0  0  0  0  0  0  0
    3.9953   -1.1821    1.1188 H   0  0  0  0  0  0  0  0  0  0  0  0
    3.0965   -2.7211    2.0561 C   0  0  0  0  0  0  0  0  0  0  0  0
    1.9487   -3.2767    2.5835 N   0  0  0  0  0  0  0  0  0  0  0  0
    1.0426   -2.8332    2.3987 H   0  0  0  0  0  0  0  0  0  0  0  0
    1.9396   -4.2691    2.8047 H   0  0  0  0  0  0  0  0  0  0  0  0
    4.2545   -3.4603    2.1071 N   0  0  0  0  0  0  0  0  0  0  0  0
    5.1392   -3.0022    1.8976 H   0  0  0  0  0  0  0  0  0  0  0  0
    4.2737   -4.2889    2.6989 H   0  0  0  0  0  0  0  0  0  0  0  0
   -1.6446    1.1079    1.4061 C   0  0  0  0  0  0  0  0  0  0  0  0
   -2.6562    1.3862    0.7768 O   0  0  0  0  0  0  0  0  0  0  0  0
   -1.1016    2.0428    2.2697 N   0  0  0  0  0  0  0  0  0  0  0  0
   -0.3203    1.7619    2.8535 H   0  0  0  0  0  0  0  0  0  0  0  0
   -1.6957    3.3594    2.4848 C   0  0  0  0  0  0  0  0  0  0  0  0
   -2.7080    3.2621    2.8921 H   0  0  0  0  0  0  0  0  0  0  0  0
   -1.0934    3.9384    3.1917 H   0  0  0  0  0  0  0  0  0  0  0  0
   -1.7489    3.9157    1.5426 H   0  0  0  0  0  0  0  0  0  0  0  0
  1  2  1  0  0  0  0
  2  3  1  0  0  0  0
  2  4  1  0  0  0  0
  2  5  1  0  0  0  0
  5  6  2  0  0  0  0
  5  7  1  0  0  0  0
  7  8  1  0  0  0  0
  7  9  1  0  0  0  0
  9 10  1  0  0  0  0
  9 11  1  0  0  0  0
  9 29  1  0  0  0  0
 11 12  1  0  0  0  0
 11 13  1  0  0  0  0
 11 14  1  0  0  0  0
 14 15  1  0  0  0  0
 14 16  1  0  0  0  0
 14 17  1  0  0  0  0
 17 18  1  0  0  0  0
 17 19  1  0  0  0  0
 17 20  1  0  0  0  0
 20 21  1  0  0  0  0
 20 22  2  0  0  0  0
 22 23  1  0  0  0  0
 22 26  1  0  0  0  0
 23 24  1  0  0  0  0
 23 25  1  0  0  0  0
 26 27  1  0  0  0  0
 26 28  1  0  0  0  0
 29 30  2  0  0  0  0
 29 31  1  0  0  0  0
 31 32  1  0  0  0  0
 31 33  1  0  0  0  0
 33 34  1  0  0  0  0
 33 35  1  0  0  0  0
 33 36  1  0  0  0  0
M  CHG  1  20   1
M  END
$$$$

  -OEChem-03222214013D

 36 35  0     1  0  0  0  0  0999 V2000
   -3.2387   -4.1607    2.8038 H   0  0  0  0  0  0  0  0  0  0  0  0
   -3.4301   -3.2756    2.1910 C   0  0  0  0  0  0  0  0  0  0  0  0
   -4.1866   -2.6625    2.6874 H   0  0  0  0  0  0  0  0  0  0  0  0
   -3.8144   -3.5955    1.2192 H   0  0  0  0  0  0  0  0  0  0  0  0
   -2.1543   -2.4770    2.0070 C   0  0  0  0  0  0  0  0  0  0  0  0
   -1.0880   -2.8874    2.4614 O   0  0  0  0  0  0  0  0  0  0  0  0
   -2.1624   -1.3142    1.2646 N   0  0  0  0  0  0  0  0  0  0  0  0
   -3.0679   -0.9654    0.9440 H   0  0  0  0  0  0  0  0  0  0  0  0
   -1.0593   -0.3466    1.2991 C   0  0  1  0  0  0  0  0  0  0  0  0
   -0.4836   -0.4817    2.2120 H   0  0  0  0  0  0  0  0  0  0  0  0
   -0.2215   -0.5355    0.0042 C   0  0  0  0  0  0  0  0  0  0  0  0
   -0.7041   -1.2883   -0.6295 H   0  0  0  0  0  0  0  0  0  0  0  0
   -0.2581    0.3984   -0.5682 H   0  0  0  0  0  0  0  0  0  0  0  0
    1.2705   -0.9288    0.1508 C   0  0  0  0  0  0  0  0  0  0  0  0
    1.4017   -1.8740   -0.3874 H   0  0  0  0  0  0  0  0  0  0  0  0
    1.8875   -0.1829   -0.3622 H   0  0  0  0  0  0  0  0  0  0  0  0
    1.8031   -1.1045    1.5794 C   0  0  0  0  0  0  0  0  0  0  0  0
    2.0897   -0.1300    1.9896 H   0  0  0  0  0  0  0  0  0  0  0  0
    1.0248   -1.5219    2.2220 H   0  0  0  0  0  0  0  0  0  0  0  0
    2.9479   -2.0320    1.5905 N   0  3  0  0  0  0  0  0  0  0  0  0
    3.8359   -1.6834    1.2322 H   0  0  0  0  0  0  0  0  0  0  0  0
    2.8622   -3.2641    2.0112 C   0  0  0  0  0  0  0  0  0  0  0  0
    1.6886   -3.8125    2.4842 N   0  0  0  0  0  0  0  0  0  0  0  0
    0.8109   -3.2911    2.3795 H   0  0  0  0  0  0  0  0  0  0  0  0
    1.6236   -4.8201    2.6021 H   0  0  0  0  0  0  0  0  0  0  0  0
    3.9819   -4.0611    1.9868 N   0  0  0  0  0  0  0  0  0  0  0  0
    4.8889   -3.6270    1.8284 H   0  0  0  0  0  0  0  0  0  0  0  0
    3.9569   -4.9424    2.4964 H   0  0  0  0  0  0  0  0  0  0  0  0
   -1.6344    1.0827    1.4126 C   0  0  0  0  0  0  0  0  0  0  0  0
   -2.6218    1.3801    0.7538 O   0  0  0  0  0  0  0  0  0  0  0  0
   -1.1035    2.0052    2.2965 N   0  0  0  0  0  0  0  0  0  0  0  0
   -0.3381    1.7129    2.8957 H   0  0  0  0  0  0  0  0  0  0  0  0
   -1.6693    3.3381    2.4845 C   0  0  0  0  0  0  0  0  0  0  0  0
   -2.6945    3.2706    2.8640 H   0  0  0  0  0  0  0  0  0  0  0  0
   -1.0720    3.9077    3.2030 H   0  0  0  0  0  0  0  0  0  0  0  0
   -1.6821    3.8873    1.5368 H   0  0  0  0  0  0  0  0  0  0  0  0
  1  2  1  0  0  0  0
  2  3  1  0  0  0  0
  2  4  1  0  0  0  0
  2  5  1  0  0  0  0
  5  6  2  0  0  0  0
  5  7  1  0  0  0  0
  7  8  1  0  0  0  0
  7  9  1  0  0  0  0
  9 10  1  0  0  0  0
  9 11  1  0  0  0  0
  9 29  1  0  0  0  0
 11 12  1  0  0  0  0
 11 13  1  0  0  0  0
 11 14  1  0  0  0  0
 14 15  1  0  0  0  0
 14 16  1  0  0  0  0
 14 17  1  0  0  0  0
 17 18  1  0  0  0  0
 17 19  1  0  0  0  0
 17 20  1  0  0  0  0
 20 21  1  0  0  0  0
 20 22  2  0  0  0  0
 22 23  1  0  0  0  0
 22 26  1  0  0  0  0
 23 24  1  0  0  0  0
 23 25  1  0  0  0  0
 26 27  1  0  0  0  0
 26 28  1  0  0  0  0
 29 30  2  0  0  0  0
 29 31  1  0  0  0  0
 31 32  1  0  0  0  0
 31 33  1  0  0  0  0
 33 34  1  0  0  0  0
 33 35  1  0  0  0  0
 33 36  1  0  0  0  0
M  CHG  1  20   1
M  END
$$$$

  -OEChem-03222214013D

 36 35  0     1  0  0  0  0  0999 V2000
   -3.4046   -4.1768    2.6930 H   0  0  0  0  0  0  0  0  0  0  0  0
   -3.5456   -3.2610    2.1128 C   0  0  0  0  0  0  0  0  0  0  0  0
   -4.2831   -2.6340    2.6205 H   0  0  0  0  0  0  0  0  0  0  0  0
   -3.9257   -3.5255    1.1229 H   0  0  0  0  0  0  0  0  0  0  0  0
   -2.2339   -2.5122    1.9818 C   0  0  0  0  0  0  0  0  0  0  0  0
   -1.2015   -2.9786    2.4548 O   0  0  0  0  0  0  0  0  0  0  0  0
   -2.1810   -1.3348    1.2662 N   0  0  0  0  0  0  0  0  0  0  0  0
   -3.0688   -0.9595    0.9262 H   0  0  0  0  0  0  0  0  0  0  0  0
   -1.0572   -0.3887    1.3174 C   0  0  1  0  0  0  0  0  0  0  0  0
   -0.4807   -0.5523    2.2281 H   0  0  0  0  0  0  0  0  0  0  0  0
   -0.2081   -0.5646    0.0275 C   0  0  0  0  0  0  0  0  0  0  0  0
   -0.6901   -1.3218   -0.6012 H   0  0  0  0  0  0  0  0  0  0  0  0
   -0.2380    0.3654   -0.5521 H   0  0  0  0  0  0  0  0  0  0  0  0
    1.2760   -0.9785    0.1875 C   0  0  0  0  0  0  0  0  0  0  0  0
    1.4898   -1.7326   -0.5782 H   0  0  0  0  0  0  0  0  0  0  0  0
    1.9112   -0.1129   -0.0299 H   0  0  0  0  0  0  0  0  0  0  0  0
    1.6687   -1.5226    1.5670 C   0  0  0  0  0  0  0  0  0  0  0  0
    1.9950   -0.6958    2.2073 H   0  0  0  0  0  0  0  0  0  0  0  0
    0.7969   -1.9797    2.0374 H   0  0  0  0  0  0  0  0  0  0  0  0
    2.7346   -2.5341    1.4518 N   0  3  0  0  0  0  0  0  0  0  0  0
    3.6248   -2.2308    1.0598 H   0  0  0  0  0  0  0  0  0  0  0  0
    2.5814   -3.7798    1.8066 C   0  0  0  0  0  0  0  0  0  0  0  0
    1.4044   -4.2654    2.3333 N   0  0  0  0  0  0  0  0  0  0  0  0
    0.5725   -3.6645    2.3265 H   0  0  0  0  0  0  0  0  0  0  0  0
    1.2569   -5.2704    2.3725 H   0  0  0  0  0  0  0  0  0  0  0  0
    3.6302   -4.6552    1.6540 N   0  0  0  0  0  0  0  0  0  0  0  0
    4.5537   -4.2809    1.4475 H   0  0  0  0  0  0  0  0  0  0  0  0
    3.5750   -5.5586    2.1207 H   0  0  0  0  0  0  0  0  0  0  0  0
   -1.6037    1.0502    1.4435 C   0  0  0  0  0  0  0  0  0  0  0  0
   -2.5800    1.3751    0.7810 O   0  0  0  0  0  0  0  0  0  0  0  0
   -1.0588    1.9515    2.3405 N   0  0  0  0  0  0  0  0  0  0  0  0
   -0.2965    1.6395    2.9342 H   0  0  0  0  0  0  0  0  0  0  0  0
   -1.5875    3.2994    2.5294 C   0  0  0  0  0  0  0  0  0  0  0  0
   -2.6220    3.2605    2.8872 H   0  0  0  0  0  0  0  0  0  0  0  0
   -0.9882    3.8443    3.2653 H   0  0  0  0  0  0  0  0  0  0  0  0
   -1.5640    3.8565    1.5866 H   0  0  0  0  0  0  0  0  0  0  0  0
  1  2  1  0  0  0  0
  2  3  1  0  0  0  0
  2  4  1  0  0  0  0
  2  5  1  0  0  0  0
  5  6  2  0  0  0  0
  5  7  1  0  0  0  0
  7  8  1  0  0  0  0
  7  9  1  0  0  0  0
  9 10  1  0  0  0  0
  9 11  1  0  0  0  0
  9 29  1  0  0  0  0
 11 12  1  0  0  0  0
 11 13  1  0  0  0  0
 11 14  1  0  0  0  0
 14 15  1  0  0  0  0
 14 16  1  0  0  0  0
 14 17  1  0  0  0  0
 17 18  1  0  0  0  0
 17 19  1  0  0  0  0
 17 20  1  0  0  0  0
 20 21  1  0  0  0  0
 20 22  2  0  0  0  0
 22 23  1  0  0  0  0
 22 26  1  0  0  0  0
 23 24  1  0  0  0  0
 23 25  1  0  0  0  0
 26 27  1  0  0  0  0
 26 28  1  0  0  0  0
 29 30  2  0  0  0  0
 29 31  1  0  0  0  0
 31 32  1  0  0  0  0
 31 33  1  0  0  0  0
 33 34  1  0  0  0  0
 33 35  1  0  0  0  0
 33 36  1  0  0  0  0
M  CHG  1  20   1
M  END
$$$$

  -OEChem-03222214013D

 36 35  0     1  0  0  0  0  0999 V2000
   -3.5287   -4.2157    2.5379 H   0  0  0  0  0  0  0  0  0  0  0  0
   -3.6236   -3.2758    1.9872 C   0  0  0  0  0  0  0  0  0  0  0  0
   -4.3588   -2.6455    2.4941 H   0  0  0  0  0  0  0  0  0  0  0  0
   -3.9794   -3.4933    0.9771 H   0  0  0  0  0  0  0  0  0  0  0  0
   -2.2866   -2.5626    1.9253 C   0  0  0  0  0  0  0  0  0  0  0  0
   -1.2936   -3.0761    2.4291 O   0  0  0  0  0  0  0  0  0  0  0  0
   -2.1828   -1.3632    1.2516 N   0  0  0  0  0  0  0  0  0  0  0  0
   -3.0539   -0.9682    0.8912 H   0  0  0  0  0  0  0  0  0  0  0  0
   -1.0422   -0.4335    1.3123 C   0  0  1  0  0  0  0  0  0  0  0  0
   -0.4488   -0.6380    2.2057 H   0  0  0  0  0  0  0  0  0  0  0  0
   -0.1990   -0.5730    0.0127 C   0  0  0  0  0  0  0  0  0  0  0  0
   -0.6834   -1.3177   -0.6285 H   0  0  0  0  0  0  0  0  0  0  0  0
   -0.2244    0.3693   -0.5466 H   0  0  0  0  0  0  0  0  0  0  0  0
    1.2786   -1.0003    0.1720 C   0  0  0  0  0  0  0  0  0  0  0  0
    1.5833   -1.5090   -0.7491 H   0  0  0  0  0  0  0  0  0  0  0  0
    1.9009   -0.1041    0.2685 H   0  0  0  0  0  0  0  0  0  0  0  0
    1.5412   -1.8961    1.3853 C   0  0  0  0  0  0  0  0  0  0  0  0
    1.9203   -1.2869    2.2131 H   0  0  0  0  0  0  0  0  0  0  0  0
    0.5945   -2.3305    1.6986 H   0  0  0  0  0  0  0  0  0  0  0  0
    2.4863   -2.9841    1.0804 N   0  3  0  0  0  0  0  0  0  0  0  0
    3.3262   -2.7428    0.5570 H   0  0  0  0  0  0  0  0  0  0  0  0
    2.3010   -4.2139    1.4720 C   0  0  0  0  0  0  0  0  0  0  0  0
    1.1877   -4.6050    2.1836 N   0  0  0  0  0  0  0  0  0  0  0  0
    0.4029   -3.9488    2.2655 H   0  0  0  0  0  0  0  0  0  0  0  0
    0.9785   -5.5965    2.2635 H   0  0  0  0  0  0  0  0  0  0  0  0
    3.2473   -5.1652    1.1742 N   0  0  0  0  0  0  0  0  0  0  0  0
    4.1527   -4.8602    0.8231 H   0  0  0  0  0  0  0  0  0  0  0  0
    3.2008   -6.0582    1.6612 H   0  0  0  0  0  0  0  0  0  0  0  0
   -1.5647    1.0107    1.4763 C   0  0  0  0  0  0  0  0  0  0  0  0
   -2.5428    1.3654    0.8318 O   0  0  0  0  0  0  0  0  0  0  0  0
   -0.9951    1.8813    2.3880 N   0  0  0  0  0  0  0  0  0  0  0  0
   -0.2354    1.5396    2.9686 H   0  0  0  0  0  0  0  0  0  0  0  0
   -1.5082    3.2269    2.6297 C   0  0  0  0  0  0  0  0  0  0  0  0
   -2.5353    3.1849    3.0079 H   0  0  0  0  0  0  0  0  0  0  0  0
   -0.8890    3.7425    3.3703 H   0  0  0  0  0  0  0  0  0  0  0  0
   -1.4990    3.8145    1.7053 H   0  0  0  0  0  0  0  0  0  0  0  0
  1  2  1  0  0  0  0
  2  3  1  0  0  0  0
  2  4  1  0  0  0  0
  2  5  1  0  0  0  0
  5  6  2  0  0  0  0
  5  7  1  0  0  0  0
  7  8  1  0  0  0  0
  7  9  1  0  0  0  0
  9 10  1  0  0  0  0
  9 11  1  0  0  0  0
  9 29  1  0  0  0  0
 11 12  1  0  0  0  0
 11 13  1  0  0  0  0
 11 14  1  0  0  0  0
 14 15  1  0  0  0  0
 14 16  1  0  0  0  0
 14 17  1  0  0  0  0
 17 18  1  0  0  0  0
 17 19  1  0  0  0  0
 17 20  1  0  0  0  0
 20 21  1  0  0  0  0
 20 22  2  0  0  0  0
 22 23  1  0  0  0  0
 22 26  1  0  0  0  0
 23 24  1  0  0  0  0
 23 25  1  0  0  0  0
 26 27  1  0  0  0  0
 26 28  1  0  0  0  0
 29 30  2  0  0  0  0
 29 31  1  0  0  0  0
 31 32  1  0  0  0  0
 31 33  1  0  0  0  0
 33 34  1  0  0  0  0
 33 35  1  0  0  0  0
 33 36  1  0  0  0  0
M  CHG  1  20   1
M  END
$$$$

  -OEChem-03222214013D

 36 35  0     1  0  0  0  0  0999 V2000
   -3.7397   -4.2046    2.2392 H   0  0  0  0  0  0  0  0  0  0  0  0
   -3.8112   -3.2032    1.8063 C   0  0  0  0  0  0  0  0  0  0  0  0
   -4.4651   -2.5940    2.4357 H   0  0  0  0  0  0  0  0  0  0  0  0
   -4.2508   -3.2816    0.8087 H   0  0  0  0  0  0  0  0  0  0  0  0
   -2.4376   -2.5666    1.7199 C   0  0  0  0  0  0  0  0  0  0  0  0
   -1.4497   -3.1791    2.1200 O   0  0  0  0  0  0  0  0  0  0  0  0
   -2.3011   -1.3168    1.1468 N   0  0  0  0  0  0  0  0  0  0  0  0
   -3.1612   -0.8272    0.8918 H   0  0  0  0  0  0  0  0  0  0  0  0
   -1.0835   -0.4946    1.2137 C   0  0  1  0  0  0  0  0  0  0  0  0
   -0.4507   -0.8263    2.0390 H   0  0  0  0  0  0  0  0  0  0  0  0
   -0.3446   -0.5595   -0.1540 C   0  0  0  0  0  0  0  0  0  0  0  0
   -0.9265   -1.1796   -0.8449 H   0  0  0  0  0  0  0  0  0  0  0  0
   -0.2980    0.4400   -0.6016 H   0  0  0  0  0  0  0  0  0  0  0  0
    1.0857   -1.1318   -0.0855 C   0  0  0  0  0  0  0  0  0  0  0  0
    1.4247   -1.3693   -1.0996 H   0  0  0  0  0  0  0  0  0  0  0  0
    1.7717   -0.3907    0.3380 H   0  0  0  0  0  0  0  0  0  0  0  0
    1.0748   -2.3850    0.7856 C   0  0  0  0  0  0  0  0  0  0  0  0
    0.9925   -2.0922    1.8369 H   0  0  0  0  0  0  0  0  0  0  0  0
    0.1771   -2.9521    0.5180 H   0  0  0  0  0  0  0  0  0  0  0  0
    2.2323   -3.2741    0.6320 N   0  3  0  0  0  0  0  0  0  0  0  0
    2.9982   -2.9787    0.0285 H   0  0  0  0  0  0  0  0  0  0  0  0
    2.2420   -4.4445    1.2047 C   0  0  0  0  0  0  0  0  0  0  0  0
    1.1905   -4.8637    1.9961 N   0  0  0  0  0  0  0  0  0  0  0  0
    0.3423   -4.2866    2.0227 H   0  0  0  0  0  0  0  0  0  0  0  0
    1.0989   -5.8525    2.2149 H   0  0  0  0  0  0  0  0  0  0  0  0
    3.3120   -5.2881    1.0241 N   0  0  0  0  0  0  0  0  0  0  0  0
    4.1591   -4.9194    0.5970 H   0  0  0  0  0  0  0  0  0  0  0  0
    3.3978   -6.0971    1.6366 H   0  0  0  0  0  0  0  0  0  0  0  0
   -1.4734    0.9610    1.5526 C   0  0  0  0  0  0  0  0  0  0  0  0
   -2.4589    1.4532    1.0189 O   0  0  0  0  0  0  0  0  0  0  0  0
   -0.7769    1.6881    2.5011 N   0  0  0  0  0  0  0  0  0  0  0  0
   -0.0103    1.2336    2.9875 H   0  0  0  0  0  0  0  0  0  0  0  0
   -1.1634    3.0355    2.9093 C   0  0  0  0  0  0  0  0  0  0  0  0
   -2.1582    3.0275    3.3675 H   0  0  0  0  0  0  0  0  0  0  0  0
   -0.4501    3.4307    3.6392 H   0  0  0  0  0  0  0  0  0  0  0  0
   -1.1803    3.7096    2.0459 H   0  0  0  0  0  0  0  0  0  0  0  0
  1  2  1  0  0  0  0
  2  3  1  0  0  0  0
  2  4  1  0  0  0  0
  2  5  1  0  0  0  0
  5  6  2  0  0  0  0
  5  7  1  0  0  0  0
  7  8  1  0  0  0  0
  7  9  1  0  0  0  0
  9 10  1  0  0  0  0
  9 11  1  0  0  0  0
  9 29  1  0  0  0  0
 11 12  1  0  0  0  0
 11 13  1  0  0  0  0
 11 14  1  0  0  0  0
 14 15  1  0  0  0  0
 14 16  1  0  0  0  0
 14 17  1  0  0  0  0
 17 18  1  0  0  0  0
 17 19  1  0  0  0  0
 17 20  1  0  0  0  0
 20 21  1  0  0  0  0
 20 22  2  0  0  0  0
 22 23  1  0  0  0  0
 22 26  1  0  0  0  0
 23 24  1  0  0  0  0
 23 25  1  0  0  0  0
 26 27  1  0  0  0  0
 26 28  1  0  0  0  0
 29 30  2  0  0  0  0
 29 31  1  0  0  0  0
 31 32  1  0  0  0  0
 31 33  1  0  0  0  0
 33 34  1  0  0  0  0
 33 35  1  0  0  0  0
 33 36  1  0  0  0  0
M  CHG  1  20   1
M  END
$$$$

  -OEChem-03222214013D

 36 35  0     1  0  0  0  0  0999 V2000
   -4.0040   -4.2922    1.8545 H   0  0  0  0  0  0  0  0  0  0  0  0
   -4.0138   -3.2409    1.5535 C   0  0  0  0  0  0  0  0  0  0  0  0
   -4.5994   -2.6725    2.2808 H   0  0  0  0  0  0  0  0  0  0  0  0
   -4.4909   -3.1601    0.5735 H   0  0  0  0  0  0  0  0  0  0  0  0
   -2.5997   -2.6964    1.4890 C   0  0  0  0  0  0  0  0  0  0  0  0
   -1.6502   -3.4092    1.7988 O   0  0  0  0  0  0  0  0  0  0  0  0
   -2.3875   -1.3912    1.0933 N   0  0  0  0  0  0  0  0  0  0  0  0
   -3.2160   -0.8119    0.9446 H   0  0  0  0  0  0  0  0  0  0  0  0
   -1.0932   -0.6910    1.0843 C   0  0  1  0  0  0  0  0  0  0  0  0
   -0.3694   -1.2175    1.7126 H   0  0  0  0  0  0  0  0  0  0  0  0
   -0.5666   -0.5549   -0.3717 C   0  0  0  0  0  0  0  0  0  0  0  0
   -1.2975   -0.9808   -1.0681 H   0  0  0  0  0  0  0  0  0  0  0  0
   -0.4664    0.5042   -0.6363 H   0  0  0  0  0  0  0  0  0  0  0  0
    0.7918   -1.2382   -0.6005 C   0  0  0  0  0  0  0  0  0  0  0  0
    1.1203   -1.0835   -1.6340 H   0  0  0  0  0  0  0  0  0  0  0  0
    1.5326   -0.7727    0.0584 H   0  0  0  0  0  0  0  0  0  0  0  0
    0.6918   -2.7353   -0.3080 C   0  0  0  0  0  0  0  0  0  0  0  0
   -0.0431   -2.8823    0.4786 H   0  0  0  0  0  0  0  0  0  0  0  0
    0.3258   -3.2517   -1.2024 H   0  0  0  0  0  0  0  0  0  0  0  0
    1.9785   -3.3097    0.1191 N   0  3  0  0  0  0  0  0  0  0  0  0
    2.8142   -3.0127   -0.3823 H   0  0  0  0  0  0  0  0  0  0  0  0
    2.0718   -4.2164    1.0515 C   0  0  0  0  0  0  0  0  0  0  0  0
    0.9752   -4.6787    1.7472 N   0  0  0  0  0  0  0  0  0  0  0  0
    0.0774   -4.1940    1.6352 H   0  0  0  0  0  0  0  0  0  0  0  0
    1.1172   -5.2130    2.6004 H   0  0  0  0  0  0  0  0  0  0  0  0
    3.3047   -4.7399    1.3603 N   0  0  0  0  0  0  0  0  0  0  0  0
    4.0837   -4.5559    0.7317 H   0  0  0  0  0  0  0  0  0  0  0  0
    3.3389   -5.5866    1.9249 H   0  0  0  0  0  0  0  0  0  0  0  0
   -1.2833    0.7171    1.6904 C   0  0  0  0  0  0  0  0  0  0  0  0
   -2.2698    1.3728    1.3825 O   0  0  0  0  0  0  0  0  0  0  0  0
   -0.3868    1.2247    2.6136 N   0  0  0  0  0  0  0  0  0  0  0  0
    0.3826    0.6334    2.9109 H   0  0  0  0  0  0  0  0  0  0  0  0
   -0.5696    2.5170    3.2679 C   0  0  0  0  0  0  0  0  0  0  0  0
   -1.4921    2.5212    3.8584 H   0  0  0  0  0  0  0  0  0  0  0  0
    0.2701    2.7266    3.9378 H   0  0  0  0  0  0  0  0  0  0  0  0
   -0.6253    3.3197    2.5248 H   0  0  0  0  0  0  0  0  0  0  0  0
  1  2  1  0  0  0  0
  2  3  1  0  0  0  0
  2  4  1  0  0  0  0
  2  5  1  0  0  0  0
  5  6  2  0  0  0  0
  5  7  1  0  0  0  0
  7  8  1  0  0  0  0
  7  9  1  0  0  0  0
  9 10  1  0  0  0  0
  9 11  1  0  0  0  0
  9 29  1  0  0  0  0
 11 12  1  0  0  0  0
 11 13  1  0  0  0  0
 11 14  1  0  0  0  0
 14 15  1  0  0  0  0
 14 16  1  0  0  0  0
 14 17  1  0  0  0  0
 17 18  1  0  0  0  0
 17 19  1  0  0  0  0
 17 20  1  0  0  0  0
 20 21  1  0  0  0  0
 20 22  2  0  0  0  0
 22 23  1  0  0  0  0
 22 26  1  0  0  0  0
 23 24  1  0  0  0  0
 23 25  1  0  0  0  0
 26 27  1  0  0  0  0
 26 28  1  0  0  0  0
 29 30  2  0  0  0  0
 29 31  1  0  0  0  0
 31 32  1  0  0  0  0
 31 33  1  0  0  0  0
 33 34  1  0  0  0  0
 33 35  1  0  0  0  0
 33 36  1  0  0  0  0
M  CHG  1  20   1
M  END
$$$$

  -OEChem-03222214013D

 36 35  0     1  0  0  0  0  0999 V2000
   -3.9475   -4.3373    1.7152 H   0  0  0  0  0  0  0  0  0  0  0  0
   -3.9756   -3.2872    1.4111 C   0  0  0  0  0  0  0  0  0  0  0  0
   -4.5714   -2.7275    2.1367 H   0  0  0  0  0  0  0  0  0  0  0  0
   -4.4534   -3.2173    0.4306 H   0  0  0  0  0  0  0  0  0  0  0  0
   -2.5710   -2.7191    1.3456 C   0  0  0  0  0  0  0  0  0  0  0  0
   -1.6042   -3.4341    1.5880 O   0  0  0  0  0  0  0  0  0  0  0  0
   -2.3804   -1.3981    0.9975 N   0  0  0  0  0  0  0  0  0  0  0  0
   -3.2169   -0.8209    0.8917 H   0  0  0  0  0  0  0  0  0  0  0  0
   -1.0964   -0.6818    1.0333 C   0  0  1  0  0  0  0  0  0  0  0  0
   -0.3810   -1.2270    1.6563 H   0  0  0  0  0  0  0  0  0  0  0  0
   -0.5465   -0.5169   -0.4072 C   0  0  0  0  0  0  0  0  0  0  0  0
   -1.2564   -0.9219   -1.1374 H   0  0  0  0  0  0  0  0  0  0  0  0
   -0.4388    0.5493   -0.6381 H   0  0  0  0  0  0  0  0  0  0  0  0
    0.8225   -1.1879   -0.5903 C   0  0  0  0  0  0  0  0  0  0  0  0
    1.2901   -0.8287   -1.5134 H   0  0  0  0  0  0  0  0  0  0  0  0
    1.4793   -0.9146    0.2425 H   0  0  0  0  0  0  0  0  0  0  0  0
    0.6458   -2.7041   -0.6719 C   0  0  0  0  0  0  0  0  0  0  0  0
   -0.1407   -3.0047    0.0193 H   0  0  0  0  0  0  0  0  0  0  0  0
    0.3148   -2.9748   -1.6807 H   0  0  0  0  0  0  0  0  0  0  0  0
    1.8999   -3.4053   -0.3450 N   0  3  0  0  0  0  0  0  0  0  0  0
    2.7357   -3.1214   -0.8538 H   0  0  0  0  0  0  0  0  0  0  0  0
    1.9715   -4.3953    0.5001 C   0  0  0  0  0  0  0  0  0  0  0  0
    0.8822   -4.8497    1.2095 N   0  0  0  0  0  0  0  0  0  0  0  0
    0.0254   -4.2851    1.2075 H   0  0  0  0  0  0  0  0  0  0  0  0
    1.0339   -5.4633    2.0057 H   0  0  0  0  0  0  0  0  0  0  0  0
    3.1790   -5.0214    0.6979 N   0  0  0  0  0  0  0  0  0  0  0  0
    3.9393   -4.8302    0.0487 H   0  0  0  0  0  0  0  0  0  0  0  0
    3.1809   -5.9173    1.1819 H   0  0  0  0  0  0  0  0  0  0  0  0
   -1.3028    0.7044    1.6830 C   0  0  0  0  0  0  0  0  0  0  0  0
   -2.2922    1.3606    1.3859 O   0  0  0  0  0  0  0  0  0  0  0  0
   -0.4225    1.1888    2.6340 N   0  0  0  0  0  0  0  0  0  0  0  0
    0.3562    0.6002    2.9126 H   0  0  0  0  0  0  0  0  0  0  0  0
   -0.6112    2.4681    3.3120 C   0  0  0  0  0  0  0  0  0  0  0  0
   -1.5389    2.4614    3.8942 H   0  0  0  0  0  0  0  0  0  0  0  0
    0.2225    2.6642    3.9934 H   0  0  0  0  0  0  0  0  0  0  0  0
   -0.6598    3.2858    2.5846 H   0  0  0  0  0  0  0  0  0  0  0  0
  1  2  1  0  0  0  0
  2  3  1  0  0  0  0
  2  4  1  0  0  0  0
  2  5  1  0  0  0  0
  5  6  2  0  0  0  0
  5  7  1  0  0  0  0
  7  8  1  0  0  0  0
  7  9  1  0  0  0  0
  9 10  1  0  0  0  0
  9 11  1  0  0  0  0
  9 29  1  0  0  0  0
 11 12  1  0  0  0  0
 11 13  1  0  0  0  0
 11 14  1  0  0  0  0
 14 15  1  0  0  0  0
 14 16  1  0  0  0  0
 14 17  1  0  0  0  0
 17 18  1  0  0  0  0
 17 19  1  0  0  0  0
 17 20  1  0  0  0  0
 20 21  1  0  0  0  0
 20 22  2  0  0  0  0
 22 23  1  0  0  0  0
 22 26  1  0  0  0  0
 23 24  1  0  0  0  0
 23 25  1  0  0  0  0
 26 27  1  0  0  0  0
 26 28  1  0  0  0  0
 29 30  2  0  0  0  0
 29 31  1  0  0  0  0
 31 32  1  0  0  0  0
 31 33  1  0  0  0  0
 33 34  1  0  0  0  0
 33 35  1  0  0  0  0
 33 36  1  0  0  0  0
M  CHG  1  20   1
M  END
$$$$

  -OEChem-03222214013D

 36 35  0     1  0  0  0  0  0999 V2000
   -3.8475   -4.3794    1.5412 H   0  0  0  0  0  0  0  0  0  0  0  0
   -3.9091   -3.3117    1.3133 C   0  0  0  0  0  0  0  0  0  0  0  0
   -4.4575   -2.8126    2.1164 H   0  0  0  0  0  0  0  0  0  0  0  0
   -4.4566   -3.1826    0.3763 H   0  0  0  0  0  0  0  0  0  0  0  0
   -2.5195   -2.7176    1.1889 C   0  0  0  0  0  0  0  0  0  0  0  0
   -1.5273   -3.4287    1.3166 O   0  0  0  0  0  0  0  0  0  0  0  0
   -2.3648   -1.3816    0.8844 N   0  0  0  0  0  0  0  0  0  0  0  0
   -3.2115   -0.8104    0.8516 H   0  0  0  0  0  0  0  0  0  0  0  0
   -1.0922   -0.6522    0.9726 C   0  0  1  0  0  0  0  0  0  0  0  0
   -0.3931   -1.2087    1.6038 H   0  0  0  0  0  0  0  0  0  0  0  0
   -0.5169   -0.4763   -0.4528 C   0  0  0  0  0  0  0  0  0  0  0  0
   -1.2092   -0.8656   -1.2082 H   0  0  0  0  0  0  0  0  0  0  0  0
   -0.4038    0.5939   -0.6613 H   0  0  0  0  0  0  0  0  0  0  0  0
    0.8613   -1.1392   -0.5971 C   0  0  0  0  0  0  0  0  0  0  0  0
    1.4454   -0.6069   -1.3558 H   0  0  0  0  0  0  0  0  0  0  0  0
    1.4196   -1.0861    0.3434 H   0  0  0  0  0  0  0  0  0  0  0  0
    0.6642   -2.5868   -1.0493 C   0  0  0  0  0  0  0  0  0  0  0  0
   -0.1737   -3.0226   -0.4989 H   0  0  0  0  0  0  0  0  0  0  0  0
    0.3958   -2.5984   -2.1115 H   0  0  0  0  0  0  0  0  0  0  0  0
    1.8875   -3.3792   -0.8287 N   0  3  0  0  0  0  0  0  0  0  0  0
    2.7207   -3.0938   -1.3411 H   0  0  0  0  0  0  0  0  0  0  0  0
    1.9346   -4.4446   -0.0790 C   0  0  0  0  0  0  0  0  0  0  0  0
    0.8516   -4.9011    0.6379 N   0  0  0  0  0  0  0  0  0  0  0  0
    0.0376   -4.2848    0.7393 H   0  0  0  0  0  0  0  0  0  0  0  0
    1.0020   -5.5936    1.3667 H   0  0  0  0  0  0  0  0  0  0  0  0
    3.1096   -5.1530    0.0043 N   0  0  0  0  0  0  0  0  0  0  0  0
    3.8493   -4.9487   -0.6645 H   0  0  0  0  0  0  0  0  0  0  0  0
    3.0773   -6.0885    0.4054 H   0  0  0  0  0  0  0  0  0  0  0  0
   -1.3201    0.7111    1.6612 C   0  0  0  0  0  0  0  0  0  0  0  0
   -2.3138    1.3641    1.3718 O   0  0  0  0  0  0  0  0  0  0  0  0
   -0.4633    1.1725    2.6442 N   0  0  0  0  0  0  0  0  0  0  0  0
    0.3188    0.5849    2.9155 H   0  0  0  0  0  0  0  0  0  0  0  0
   -0.6766    2.4286    3.3574 C   0  0  0  0  0  0  0  0  0  0  0  0
   -1.6187    2.3987    3.9152 H   0  0  0  0  0  0  0  0  0  0  0  0
    0.1384    2.6076    4.0656 H   0  0  0  0  0  0  0  0  0  0  0  0
   -0.7118    3.2681    2.6546 H   0  0  0  0  0  0  0  0  0  0  0  0
  1  2  1  0  0  0  0
  2  3  1  0  0  0  0
  2  4  1  0  0  0  0
  2  5  1  0  0  0  0
  5  6  2  0  0  0  0
  5  7  1  0  0  0  0
  7  8  1  0  0  0  0
  7  9  1  0  0  0  0
  9 10  1  0  0  0  0
  9 11  1  0  0  0  0
  9 29  1  0  0  0  0
 11 12  1  0  0  0  0
 11 13  1  0  0  0  0
 11 14  1  0  0  0  0
 14 15  1  0  0  0  0
 14 16  1  0  0  0  0
 14 17  1  0  0  0  0
 17 18  1  0  0  0  0
 17 19  1  0  0  0  0
 17 20  1  0  0  0  0
 20 21  1  0  0  0  0
 20 22  2  0  0  0  0
 22 23  1  0  0  0  0
 22 26  1  0  0  0  0
 23 24  1  0  0  0  0
 23 25  1  0  0  0  0
 26 27  1  0  0  0  0
 26 28  1  0  0  0  0
 29 30  2  0  0  0  0
 29 31  1  0  0  0  0
 31 32  1  0  0  0  0
 31 33  1  0  0  0  0
 33 34  1  0  0  0  0
 33 35  1  0  0  0  0
 33 36  1  0  0  0  0
M  CHG  1  20   1
M  END
$$$$

  -OEChem-03222214013D

 36 35  0     1  0  0  0  0  0999 V2000
   -3.7684   -4.4160    1.3299 H   0  0  0  0  0  0  0  0  0  0  0  0
   -3.8533   -3.3327    1.2084 C   0  0  0  0  0  0  0  0  0  0  0  0
   -4.3375   -2.9169    2.0958 H   0  0  0  0  0  0  0  0  0  0  0  0
   -4.4754   -3.1244    0.3344 H   0  0  0  0  0  0  0  0  0  0  0  0
   -2.4810   -2.7124    1.0295 C   0  0  0  0  0  0  0  0  0  0  0  0
   -1.4725   -3.4130    1.0417 O   0  0  0  0  0  0  0  0  0  0  0  0
   -2.3579   -1.3625    0.7768 N   0  0  0  0  0  0  0  0  0  0  0  0
   -3.2122   -0.8032    0.8176 H   0  0  0  0  0  0  0  0  0  0  0  0
   -1.0941   -0.6246    0.9052 C   0  0  1  0  0  0  0  0  0  0  0  0
   -0.4089   -1.1986    1.5355 H   0  0  0  0  0  0  0  0  0  0  0  0
   -0.5061   -0.4317   -0.5105 C   0  0  0  0  0  0  0  0  0  0  0  0
   -1.1929   -0.8105   -1.2764 H   0  0  0  0  0  0  0  0  0  0  0  0
   -0.3997    0.6419   -0.7030 H   0  0  0  0  0  0  0  0  0  0  0  0
    0.8811   -1.0845   -0.6488 C   0  0  0  0  0  0  0  0  0  0  0  0
    1.5524   -0.4043   -1.1840 H   0  0  0  0  0  0  0  0  0  0  0  0
    1.3346   -1.2834    0.3271 H   0  0  0  0  0  0  0  0  0  0  0  0
    0.7356   -2.3742   -1.4575 C   0  0  0  0  0  0  0  0  0  0  0  0
   -0.1508   -2.9180   -1.1132 H   0  0  0  0  0  0  0  0  0  0  0  0
    0.5756   -2.1258   -2.5128 H   0  0  0  0  0  0  0  0  0  0  0  0
    1.9344   -3.2190   -1.3112 N   0  3  0  0  0  0  0  0  0  0  0  0
    2.7671   -2.9316   -1.8235 H   0  0  0  0  0  0  0  0  0  0  0  0
    1.9630   -4.3197   -0.6135 C   0  0  0  0  0  0  0  0  0  0  0  0
    0.8832   -4.7723    0.1110 N   0  0  0  0  0  0  0  0  0  0  0  0
    0.0909   -4.1382    0.2621 H   0  0  0  0  0  0  0  0  0  0  0  0
    1.0260   -5.5058    0.7999 H   0  0  0  0  0  0  0  0  0  0  0  0
    3.1154   -5.0686   -0.5940 N   0  0  0  0  0  0  0  0  0  0  0  0
    3.8408   -4.8607   -1.2772 H   0  0  0  0  0  0  0  0  0  0  0  0
    3.0621   -6.0193   -0.2333 H   0  0  0  0  0  0  0  0  0  0  0  0
   -1.3238    0.7114    1.6432 C   0  0  0  0  0  0  0  0  0  0  0  0
   -2.3233    1.3680    1.3844 O   0  0  0  0  0  0  0  0  0  0  0  0
   -0.4693    1.1343    2.6455 N   0  0  0  0  0  0  0  0  0  0  0  0
    0.3204    0.5432    2.8863 H   0  0  0  0  0  0  0  0  0  0  0  0
   -0.6912    2.3554    3.4146 C   0  0  0  0  0  0  0  0  0  0  0  0
   -1.6341    2.2946    3.9687 H   0  0  0  0  0  0  0  0  0  0  0  0
    0.1213    2.5067    4.1320 H   0  0  0  0  0  0  0  0  0  0  0  0
   -0.7304    3.2258    2.7507 H   0  0  0  0  0  0  0  0  0  0  0  0
  1  2  1  0  0  0  0
  2  3  1  0  0  0  0
  2  4  1  0  0  0  0
  2  5  1  0  0  0  0
  5  6  2  0  0  0  0
  5  7  1  0  0  0  0
  7  8  1  0  0  0  0
  7  9  1  0  0  0  0
  9 10  1  0  0  0  0
  9 11  1  0  0  0  0
  9 29  1  0  0  0  0
 11 12  1  0  0  0  0
 11 13  1  0  0  0  0
 11 14  1  0  0  0  0
 14 15  1  0  0  0  0
 14 16  1  0  0  0  0
 14 17  1  0  0  0  0
 17 18  1  0  0  0  0
 17 19  1  0  0  0  0
 17 20  1  0  0  0  0
 20 21  1  0  0  0  0
 20 22  2  0  0  0  0
 22 23  1  0  0  0  0
 22 26  1  0  0  0  0
 23 24  1  0  0  0  0
 23 25  1  0  0  0  0
 26 27  1  0  0  0  0
 26 28  1  0  0  0  0
 29 30  2  0  0  0  0
 29 31  1  0  0  0  0
 31 32  1  0  0  0  0
 31 33  1  0  0  0  0
 33 34  1  0  0  0  0
 33 35  1  0  0  0  0
 33 36  1  0  0  0  0
M  CHG  1  20   1
M  END
$$$$

  -OEChem-03222214013D

 36 35  0     1  0  0  0  0  0999 V2000
   -3.6279   -4.4581    1.2644 H   0  0  0  0  0  0  0  0  0  0  0  0
   -3.7512   -3.3804    1.1276 C   0  0  0  0  0  0  0  0  0  0  0  0
   -4.2446   -2.9691    2.0120 H   0  0  0  0  0  0  0  0  0  0  0  0
   -4.3851   -3.2056    0.2548 H   0  0  0  0  0  0  0  0  0  0  0  0
   -2.4021   -2.7165    0.9309 C   0  0  0  0  0  0  0  0  0  0  0  0
   -1.3757   -3.3885    0.8750 O   0  0  0  0  0  0  0  0  0  0  0  0
   -2.3206   -1.3575    0.7139 N   0  0  0  0  0  0  0  0  0  0  0  0
   -3.1875   -0.8225    0.7939 H   0  0  0  0  0  0  0  0  0  0  0  0
   -1.0738   -0.5956    0.8650 C   0  0  1  0  0  0  0  0  0  0  0  0
   -0.3830   -1.1687    1.4894 H   0  0  0  0  0  0  0  0  0  0  0  0
   -0.4865   -0.3672   -0.5459 C   0  0  0  0  0  0  0  0  0  0  0  0
   -1.1677   -0.7621   -1.3085 H   0  0  0  0  0  0  0  0  0  0  0  0
   -0.4135    0.7100   -0.7350 H   0  0  0  0  0  0  0  0  0  0  0  0
    0.9167   -0.9870   -0.6997 C   0  0  0  0  0  0  0  0  0  0  0  0
    1.6417   -0.2046   -0.9495 H   0  0  0  0  0  0  0  0  0  0  0  0
    1.2543   -1.4544    0.2298 H   0  0  0  0  0  0  0  0  0  0  0  0
    0.8820   -2.0291   -1.8190 C   0  0  0  0  0  0  0  0  0  0  0  0
   -0.0427   -2.6127   -1.7468 H   0  0  0  0  0  0  0  0  0  0  0  0
    0.8711   -1.5214   -2.7901 H   0  0  0  0  0  0  0  0  0  0  0  0
    2.0444   -2.9307   -1.7261 N   0  3  0  0  0  0  0  0  0  0  0  0
    2.8964   -2.6373   -2.2024 H   0  0  0  0  0  0  0  0  0  0  0  0
    2.0160   -4.0847   -1.1199 C   0  0  0  0  0  0  0  0  0  0  0  0
    0.9067   -4.5468   -0.4470 N   0  0  0  0  0  0  0  0  0  0  0  0
    0.1524   -3.8872   -0.2285 H   0  0  0  0  0  0  0  0  0  0  0  0
    1.0100   -5.3437    0.1756 H   0  0  0  0  0  0  0  0  0  0  0  0
    3.1349   -4.8824   -1.1467 N   0  0  0  0  0  0  0  0  0  0  0  0
    3.8823   -4.6506   -1.7978 H   0  0  0  0  0  0  0  0  0  0  0  0
    3.0373   -5.8552   -0.8617 H   0  0  0  0  0  0  0  0  0  0  0  0
   -1.3274    0.7154    1.6382 C   0  0  0  0  0  0  0  0  0  0  0  0
   -2.3379    1.3609    1.3957 O   0  0  0  0  0  0  0  0  0  0  0  0
   -0.4802    1.1269    2.6514 N   0  0  0  0  0  0  0  0  0  0  0  0
    0.3167    0.5405    2.8799 H   0  0  0  0  0  0  0  0  0  0  0  0
   -0.7186    2.3261    3.4494 C   0  0  0  0  0  0  0  0  0  0  0  0
   -1.6558    2.2360    4.0092 H   0  0  0  0  0  0  0  0  0  0  0  0
    0.0974    2.4761    4.1635 H   0  0  0  0  0  0  0  0  0  0  0  0
   -0.7788    3.2103    2.8055 H   0  0  0  0  0  0  0  0  0  0  0  0
  1  2  1  0  0  0  0
  2  3  1  0  0  0  0
  2  4  1  0  0  0  0
  2  5  1  0  0  0  0
  5  6  2  0  0  0  0
  5  7  1  0  0  0  0
  7  8  1  0  0  0  0
  7  9  1  0  0  0  0
  9 10  1  0  0  0  0
  9 11  1  0  0  0  0
  9 29  1  0  0  0  0
 11 12  1  0  0  0  0
 11 13  1  0  0  0  0
 11 14  1  0  0  0  0
 14 15  1  0  0  0  0
 14 16  1  0  0  0  0
 14 17  1  0  0  0  0
 17 18  1  0  0  0  0
 17 19  1  0  0  0  0
 17 20  1  0  0  0  0
 20 21  1  0  0  0  0
 20 22  2  0  0  0  0
 22 23  1  0  0  0  0
 22 26  1  0  0  0  0
 23 24  1  0  0  0  0
 23 25  1  0  0  0  0
 26 27  1  0  0  0  0
 26 28  1  0  0  0  0
 29 30  2  0  0  0  0
 29 31  1  0  0  0  0
 31 32  1  0  0  0  0
 31 33  1  0  0  0  0
 33 34  1  0  0  0  0
 33 35  1  0  0  0  0
 33 36  1  0  0  0  0
M  CHG  1  20   1
M  END
$$$$

  -OEChem-03222214013D

 36 35  0     1  0  0  0  0  0999 V2000
   -3.4216   -4.5120    1.1678 H   0  0  0  0  0  0  0  0  0  0  0  0
   -3.5876   -3.4344    1.0860 C   0  0  0  0  0  0  0  0  0  0  0  0
   -4.0510   -3.0797    2.0102 H   0  0  0  0  0  0  0  0  0  0  0  0
   -4.2680   -3.2447    0.2521 H   0  0  0  0  0  0  0  0  0  0  0  0
   -2.2729   -2.7143    0.8579 C   0  0  0  0  0  0  0  0  0  0  0  0
   -1.2224   -3.3425    0.7557 O   0  0  0  0  0  0  0  0  0  0  0  0
   -2.2524   -1.3514    0.6513 N   0  0  0  0  0  0  0  0  0  0  0  0
   -3.1395   -0.8556    0.7601 H   0  0  0  0  0  0  0  0  0  0  0  0
   -1.0385   -0.5415    0.8203 C   0  0  1  0  0  0  0  0  0  0  0  0
   -0.3332   -1.0894    1.4517 H   0  0  0  0  0  0  0  0  0  0  0  0
   -0.4398   -0.2863   -0.5799 C   0  0  0  0  0  0  0  0  0  0  0  0
   -1.0914   -0.7297   -1.3415 H   0  0  0  0  0  0  0  0  0  0  0  0
   -0.4156    0.7898   -0.7862 H   0  0  0  0  0  0  0  0  0  0  0  0
    0.9876   -0.8534   -0.7042 C   0  0  0  0  0  0  0  0  0  0  0  0
    1.7241   -0.0449   -0.6420 H   0  0  0  0  0  0  0  0  0  0  0  0
    1.1996   -1.5520    0.1106 H   0  0  0  0  0  0  0  0  0  0  0  0
    1.1229   -1.5978   -2.0338 C   0  0  0  0  0  0  0  0  0  0  0  0
    0.1904   -2.1278   -2.2575 H   0  0  0  0  0  0  0  0  0  0  0  0
    1.2873   -0.8749   -2.8408 H   0  0  0  0  0  0  0  0  0  0  0  0
    2.2309   -2.5693   -1.9804 N   0  3  0  0  0  0  0  0  0  0  0  0
    3.1243   -2.2732   -2.3713 H   0  0  0  0  0  0  0  0  0  0  0  0
    2.0990   -3.7902   -1.5404 C   0  0  0  0  0  0  0  0  0  0  0  0
    0.9292   -4.2605   -0.9840 N   0  0  0  0  0  0  0  0  0  0  0  0
    0.2312   -3.5794   -0.6699 H   0  0  0  0  0  0  0  0  0  0  0  0
    0.9588   -5.1389   -0.4726 H   0  0  0  0  0  0  0  0  0  0  0  0
    3.1655   -4.6527   -1.6291 N   0  0  0  0  0  0  0  0  0  0  0  0
    3.9580   -4.3888   -2.2109 H   0  0  0  0  0  0  0  0  0  0  0  0
    2.9931   -5.6456   -1.4830 H   0  0  0  0  0  0  0  0  0  0  0  0
   -1.3500    0.7519    1.6013 C   0  0  0  0  0  0  0  0  0  0  0  0
   -2.3858    1.3557    1.3579 O   0  0  0  0  0  0  0  0  0  0  0  0
   -0.5286    1.1880    2.6251 N   0  0  0  0  0  0  0  0  0  0  0  0
    0.2905    0.6330    2.8542 H   0  0  0  0  0  0  0  0  0  0  0  0
   -0.8273    2.3643    3.4367 C   0  0  0  0  0  0  0  0  0  0  0  0
   -1.7661    2.2257    3.9838 H   0  0  0  0  0  0  0  0  0  0  0  0
   -0.0272    2.5385    4.1629 H   0  0  0  0  0  0  0  0  0  0  0  0
   -0.9179    3.2544    2.8047 H   0  0  0  0  0  0  0  0  0  0  0  0
  1  2  1  0  0  0  0
  2  3  1  0  0  0  0
  2  4  1  0  0  0  0
  2  5  1  0  0  0  0
  5  6  2  0  0  0  0
  5  7  1  0  0  0  0
  7  8  1  0  0  0  0
  7  9  1  0  0  0  0
  9 10  1  0  0  0  0
  9 11  1  0  0  0  0
  9 29  1  0  0  0  0
 11 12  1  0  0  0  0
 11 13  1  0  0  0  0
 11 14  1  0  0  0  0
 14 15  1  0  0  0  0
 14 16  1  0  0  0  0
 14 17  1  0  0  0  0
 17 18  1  0  0  0  0
 17 19  1  0  0  0  0
 17 20  1  0  0  0  0
 20 21  1  0  0  0  0
 20 22  2  0  0  0  0
 22 23  1  0  0  0  0
 22 26  1  0  0  0  0
 23 24  1  0  0  0  0
 23 25  1  0  0  0  0
 26 27  1  0  0  0  0
 26 28  1  0  0  0  0
 29 30  2  0  0  0  0
 29 31  1  0  0  0  0
 31 32  1  0  0  0  0
 31 33  1  0  0  0  0
 33 34  1  0  0  0  0
 33 35  1  0  0  0  0
 33 36  1  0  0  0  0
M  CHG  1  20   1
M  END
$$$$

  -OEChem-03222214013D

 36 35  0     1  0  0  0  0  0999 V2000
   -4.0088   -4.0839    2.1179 H   0  0  0  0  0  0  0  0  0  0  0  0
   -4.0540   -3.0813    1.6837 C   0  0  0  0  0  0  0  0  0  0  0  0
   -4.6375   -2.4376    2.3464 H   0  0  0  0  0  0  0  0  0  0  0  0
   -4.5524   -3.1384    0.7131 H   0  0  0  0  0  0  0  0  0  0  0  0
   -2.6552   -2.5204    1.5164 C   0  0  0  0  0  0  0  0  0  0  0  0
   -1.6768   -3.2116    1.7628 O   0  0  0  0  0  0  0  0  0  0  0  0
   -2.4754   -1.2391    1.0376 N   0  0  0  0  0  0  0  0  0  0  0  0
   -3.3120   -0.6678    0.9134 H   0  0  0  0  0  0  0  0  0  0  0  0
   -1.1925   -0.5246    1.0963 C   0  0  1  0  0  0  0  0  0  0  0  0
   -0.5429   -0.9976    1.8396 H   0  0  0  0  0  0  0  0  0  0  0  0
   -0.5367   -0.5744   -0.3031 C   0  0  0  0  0  0  0  0  0  0  0  0
   -1.2018   -1.1131   -0.9875 H   0  0  0  0  0  0  0  0  0  0  0  0
   -0.4203    0.4366   -0.7097 H   0  0  0  0  0  0  0  0  0  0  0  0
    0.8326   -1.2730   -0.2729 C   0  0  0  0  0  0  0  0  0  0  0  0
    1.6175   -0.5466   -0.0364 H   0  0  0  0  0  0  0  0  0  0  0  0
    0.8361   -2.0474    0.5029 H   0  0  0  0  0  0  0  0  0  0  0  0
    1.1003   -1.9523   -1.6149 C   0  0  0  0  0  0  0  0  0  0  0  0
    0.2763   -2.6410   -1.8325 H   0  0  0  0  0  0  0  0  0  0  0  0
    1.1359   -1.1920   -2.4033 H   0  0  0  0  0  0  0  0  0  0  0  0
    2.3737   -2.6933   -1.5620 N   0  3  0  0  0  0  0  0  0  0  0  0
    2.8905   -2.6660   -0.6842 H   0  0  0  0  0  0  0  0  0  0  0  0
    2.8346   -3.4025   -2.5515 C   0  0  0  0  0  0  0  0  0  0  0  0
    2.1555   -3.5116   -3.7435 N   0  0  0  0  0  0  0  0  0  0  0  0
    1.1986   -3.1660   -3.7769 H   0  0  0  0  0  0  0  0  0  0  0  0
    2.4185   -4.2539   -4.3886 H   0  0  0  0  0  0  0  0  0  0  0  0
    4.0299   -4.0667   -2.4127 N   0  0  0  0  0  0  0  0  0  0  0  0
    4.6171   -3.8579   -1.6075 H   0  0  0  0  0  0  0  0  0  0  0  0
    4.4781   -4.4401   -3.2475 H   0  0  0  0  0  0  0  0  0  0  0  0
   -1.4081    0.9245    1.5793 C   0  0  0  0  0  0  0  0  0  0  0  0
   -2.3394    1.5748    1.1228 O   0  0  0  0  0  0  0  0  0  0  0  0
   -0.5813    1.4883    2.5342 N   0  0  0  0  0  0  0  0  0  0  0  0
    0.1091    0.8887    2.9769 H   0  0  0  0  0  0  0  0  0  0  0  0
   -0.8015    2.8229    3.0833 C   0  0  0  0  0  0  0  0  0  0  0  0
   -1.7702    2.8745    3.5917 H   0  0  0  0  0  0  0  0  0  0  0  0
   -0.0181    3.0706    3.8061 H   0  0  0  0  0  0  0  0  0  0  0  0
   -0.7836    3.5741    2.2864 H   0  0  0  0  0  0  0  0  0  0  0  0
  1  2  1  0  0  0  0
  2  3  1  0  0  0  0
  2  4  1  0  0  0  0
  2  5  1  0  0  0  0
  5  6  2  0  0  0  0
  5  7  1  0  0  0  0
  7  8  1  0  0  0  0
  7  9  1  0  0  0  0
  9 10  1  0  0  0  0
  9 11  1  0  0  0  0
  9 29  1  0  0  0  0
 11 12  1  0  0  0  0
 11 13  1  0  0  0  0
 11 14  1  0  0  0  0
 14 15  1  0  0  0  0
 14 16  1  0  0  0  0
 14 17  1  0  0  0  0
 17 18  1  0  0  0  0
 17 19  1  0  0  0  0
 17 20  1  0  0  0  0
 20 21  1  0  0  0  0
 20 22  2  0  0  0  0
 22 23  1  0  0  0  0
 22 26  1  0  0  0  0
 23 24  1  0  0  0  0
 23 25  1  0  0  0  0
 26 27  1  0  0  0  0
 26 28  1  0  0  0  0
 29 30  2  0  0  0  0
 29 31  1  0  0  0  0
 31 32  1  0  0  0  0
 31 33  1  0  0  0  0
 33 34  1  0  0  0  0
 33 35  1  0  0  0  0
 33 36  1  0  0  0  0
M  CHG  1  20   1
M  END
$$$$

  -OEChem-03222214013D

 36 35  0     1  0  0  0  0  0999 V2000
   -3.9797   -4.1057    2.1054 H   0  0  0  0  0  0  0  0  0  0  0  0
   -4.0356   -3.0954    1.6905 C   0  0  0  0  0  0  0  0  0  0  0  0
   -4.6197   -2.4694    2.3696 H   0  0  0  0  0  0  0  0  0  0  0  0
   -4.5400   -3.1393    0.7223 H   0  0  0  0  0  0  0  0  0  0  0  0
   -2.6419   -2.5209    1.5244 C   0  0  0  0  0  0  0  0  0  0  0  0
   -1.6587   -3.2016    1.7800 O   0  0  0  0  0  0  0  0  0  0  0  0
   -2.4715   -1.2384    1.0443 N   0  0  0  0  0  0  0  0  0  0  0  0
   -3.3113   -0.6729    0.9163 H   0  0  0  0  0  0  0  0  0  0  0  0
   -1.1906   -0.5199    1.0885 C   0  0  1  0  0  0  0  0  0  0  0  0
   -0.5262   -0.9941    1.8186 H   0  0  0  0  0  0  0  0  0  0  0  0
   -0.5537   -0.5648   -0.3180 C   0  0  0  0  0  0  0  0  0  0  0  0
   -1.2172   -1.1040   -1.0034 H   0  0  0  0  0  0  0  0  0  0  0  0
   -0.4371    0.4489   -0.7181 H   0  0  0  0  0  0  0  0  0  0  0  0
    0.8122   -1.2607   -0.2844 C   0  0  0  0  0  0  0  0  0  0  0  0
    1.5527   -0.6096    0.1927 H   0  0  0  0  0  0  0  0  0  0  0  0
    0.7322   -2.1824    0.3047 H   0  0  0  0  0  0  0  0  0  0  0  0
    1.2441   -1.6202   -1.7039 C   0  0  0  0  0  0  0  0  0  0  0  0
    0.4589   -2.2251   -2.1709 H   0  0  0  0  0  0  0  0  0  0  0  0
    1.3681   -0.7004   -2.2863 H   0  0  0  0  0  0  0  0  0  0  0  0
    2.5080   -2.3780   -1.6672 N   0  3  0  0  0  0  0  0  0  0  0  0
    2.8977   -2.5860   -0.7486 H   0  0  0  0  0  0  0  0  0  0  0  0
    3.1099   -2.8261   -2.7308 C   0  0  0  0  0  0  0  0  0  0  0  0
    2.6022   -2.6183   -3.9933 N   0  0  0  0  0  0  0  0  0  0  0  0
    1.6558   -2.2508   -4.0701 H   0  0  0  0  0  0  0  0  0  0  0  0
    2.9607   -3.1809   -4.7623 H   0  0  0  0  0  0  0  0  0  0  0  0
    4.2832   -3.5305   -2.6010 N   0  0  0  0  0  0  0  0  0  0  0  0
    4.7512   -3.5426   -1.6967 H   0  0  0  0  0  0  0  0  0  0  0  0
    4.8466   -3.6952   -3.4334 H   0  0  0  0  0  0  0  0  0  0  0  0
   -1.4048    0.9279    1.5748 C   0  0  0  0  0  0  0  0  0  0  0  0
   -2.3368    1.5792    1.1214 O   0  0  0  0  0  0  0  0  0  0  0  0
   -0.5687    1.4937    2.5203 N   0  0  0  0  0  0  0  0  0  0  0  0
    0.1186    0.8912    2.9641 H   0  0  0  0  0  0  0  0  0  0  0  0
   -0.7964    2.8220    3.0816 C   0  0  0  0  0  0  0  0  0  0  0  0
   -1.7604    2.8595    3.6005 H   0  0  0  0  0  0  0  0  0  0  0  0
   -0.0082    3.0722    3.7984 H   0  0  0  0  0  0  0  0  0  0  0  0
   -0.7945    3.5794    2.2904 H   0  0  0  0  0  0  0  0  0  0  0  0
  1  2  1  0  0  0  0
  2  3  1  0  0  0  0
  2  4  1  0  0  0  0
  2  5  1  0  0  0  0
  5  6  2  0  0  0  0
  5  7  1  0  0  0  0
  7  8  1  0  0  0  0
  7  9  1  0  0  0  0
  9 10  1  0  0  0  0
  9 11  1  0  0  0  0
  9 29  1  0  0  0  0
 11 12  1  0  0  0  0
 11 13  1  0  0  0  0
 11 14  1  0  0  0  0
 14 15  1  0  0  0  0
 14 16  1  0  0  0  0
 14 17  1  0  0  0  0
 17 18  1  0  0  0  0
 17 19  1  0  0  0  0
 17 20  1  0  0  0  0
 20 21  1  0  0  0  0
 20 22  2  0  0  0  0
 22 23  1  0  0  0  0
 22 26  1  0  0  0  0
 23 24  1  0  0  0  0
 23 25  1  0  0  0  0
 26 27  1  0  0  0  0
 26 28  1  0  0  0  0
 29 30  2  0  0  0  0
 29 31  1  0  0  0  0
 31 32  1  0  0  0  0
 31 33  1  0  0  0  0
 33 34  1  0  0  0  0
 33 35  1  0  0  0  0
 33 36  1  0  0  0  0
M  CHG  1  20   1
M  END
$$$$

  -OEChem-03222214013D

 36 35  0     1  0  0  0  0  0999 V2000
   -3.9689   -4.1095    2.0937 H   0  0  0  0  0  0  0  0  0  0  0  0
   -4.0186   -3.0974    1.6824 C   0  0  0  0  0  0  0  0  0  0  0  0
   -4.6075   -2.4725    2.3583 H   0  0  0  0  0  0  0  0  0  0  0  0
   -4.5141   -3.1360    0.7094 H   0  0  0  0  0  0  0  0  0  0  0  0
   -2.6225   -2.5250    1.5311 C   0  0  0  0  0  0  0  0  0  0  0  0
   -1.6426   -3.2067    1.7965 O   0  0  0  0  0  0  0  0  0  0  0  0
   -2.4480   -1.2433    1.0507 N   0  0  0  0  0  0  0  0  0  0  0  0
   -3.2877   -0.6789    0.9152 H   0  0  0  0  0  0  0  0  0  0  0  0
   -1.1687   -0.5220    1.0998 C   0  0  1  0  0  0  0  0  0  0  0  0
   -0.4928   -0.9882    1.8247 H   0  0  0  0  0  0  0  0  0  0  0  0
   -0.5441   -0.5505   -0.3106 C   0  0  0  0  0  0  0  0  0  0  0  0
   -1.3028   -0.8044   -1.0594 H   0  0  0  0  0  0  0  0  0  0  0  0
   -0.1615    0.4446   -0.5636 H   0  0  0  0  0  0  0  0  0  0  0  0
    0.6158   -1.5499   -0.3687 C   0  0  0  0  0  0  0  0  0  0  0  0
    1.3819   -1.2748    0.3640 H   0  0  0  0  0  0  0  0  0  0  0  0
    0.2412   -2.5480   -0.1128 H   0  0  0  0  0  0  0  0  0  0  0  0
    1.2225   -1.5680   -1.7688 C   0  0  0  0  0  0  0  0  0  0  0  0
    0.4317   -1.7813   -2.4964 H   0  0  0  0  0  0  0  0  0  0  0  0
    1.6458   -0.5825   -1.9928 H   0  0  0  0  0  0  0  0  0  0  0  0
    2.2682   -2.6048   -1.8405 N   0  3  0  0  0  0  0  0  0  0  0  0
    2.4068   -3.1792   -1.0095 H   0  0  0  0  0  0  0  0  0  0  0  0
    2.9730   -2.8472   -2.9077 C   0  0  0  0  0  0  0  0  0  0  0  0
    2.7941   -2.1359   -4.0723 N   0  0  0  0  0  0  0  0  0  0  0  0
    1.9819   -1.5254   -4.1355 H   0  0  0  0  0  0  0  0  0  0  0  0
    3.1784   -2.5119   -4.9367 H   0  0  0  0  0  0  0  0  0  0  0  0
    3.9219   -3.8413   -2.8825 N   0  0  0  0  0  0  0  0  0  0  0  0
    4.1806   -4.2493   -1.9860 H   0  0  0  0  0  0  0  0  0  0  0  0
    4.6006   -3.8851   -3.6405 H   0  0  0  0  0  0  0  0  0  0  0  0
   -1.4039    0.9237    1.5842 C   0  0  0  0  0  0  0  0  0  0  0  0
   -2.3385    1.5653    1.1218 O   0  0  0  0  0  0  0  0  0  0  0  0
   -0.5820    1.4995    2.5361 N   0  0  0  0  0  0  0  0  0  0  0  0
    0.1155    0.9084    2.9793 H   0  0  0  0  0  0  0  0  0  0  0  0
   -0.8267    2.8266    3.0930 C   0  0  0  0  0  0  0  0  0  0  0  0
   -1.7980    2.8575    3.5985 H   0  0  0  0  0  0  0  0  0  0  0  0
   -0.0503    3.0828    3.8205 H   0  0  0  0  0  0  0  0  0  0  0  0
   -0.8192    3.5835    2.3012 H   0  0  0  0  0  0  0  0  0  0  0  0
  1  2  1  0  0  0  0
  2  3  1  0  0  0  0
  2  4  1  0  0  0  0
  2  5  1  0  0  0  0
  5  6  2  0  0  0  0
  5  7  1  0  0  0  0
  7  8  1  0  0  0  0
  7  9  1  0  0  0  0
  9 10  1  0  0  0  0
  9 11  1  0  0  0  0
  9 29  1  0  0  0  0
 11 12  1  0  0  0  0
 11 13  1  0  0  0  0
 11 14  1  0  0  0  0
 14 15  1  0  0  0  0
 14 16  1  0  0  0  0
 14 17  1  0  0  0  0
 17 18  1  0  0  0  0
 17 19  1  0  0  0  0
 17 20  1  0  0  0  0
 20 21  1  0  0  0  0
 20 22  2  0  0  0  0
 22 23  1  0  0  0  0
 22 26  1  0  0  0  0
 23 24  1  0  0  0  0
 23 25  1  0  0  0  0
 26 27  1  0  0  0  0
 26 28  1  0  0  0  0
 29 30  2  0  0  0  0
 29 31  1  0  0  0  0
 31 32  1  0  0  0  0
 31 33  1  0  0  0  0
 33 34  1  0  0  0  0
 33 35  1  0  0  0  0
 33 36  1  0  0  0  0
M  CHG  1  20   1
M  END
$$$$

  -OEChem-03222214013D

 36 35  0     1  0  0  0  0  0999 V2000
   -3.9628   -4.1103    2.0945 H   0  0  0  0  0  0  0  0  0  0  0  0
   -4.0139   -3.1045    1.6680 C   0  0  0  0  0  0  0  0  0  0  0  0
   -4.6172   -2.4746    2.3263 H   0  0  0  0  0  0  0  0  0  0  0  0
   -4.4950   -3.1608    0.6886 H   0  0  0  0  0  0  0  0  0  0  0  0
   -2.6202   -2.5234    1.5280 C   0  0  0  0  0  0  0  0  0  0  0  0
   -1.6378   -3.1993    1.7996 O   0  0  0  0  0  0  0  0  0  0  0  0
   -2.4491   -1.2400    1.0508 N   0  0  0  0  0  0  0  0  0  0  0  0
   -3.2899   -0.6799    0.9068 H   0  0  0  0  0  0  0  0  0  0  0  0
   -1.1721   -0.5164    1.1081 C   0  0  1  0  0  0  0  0  0  0  0  0
   -0.5013   -0.9830    1.8365 H   0  0  0  0  0  0  0  0  0  0  0  0
   -0.5460   -0.5466   -0.3026 C   0  0  0  0  0  0  0  0  0  0  0  0
   -1.2995   -0.7892   -1.0605 H   0  0  0  0  0  0  0  0  0  0  0  0
   -0.1625    0.4523   -0.5401 H   0  0  0  0  0  0  0  0  0  0  0  0
    0.6178   -1.5437   -0.3704 C   0  0  0  0  0  0  0  0  0  0  0  0
    1.2637   -1.4256    0.5061 H   0  0  0  0  0  0  0  0  0  0  0  0
    0.2162   -2.5637   -0.3590 H   0  0  0  0  0  0  0  0  0  0  0  0
    1.4476   -1.3026   -1.6286 C   0  0  0  0  0  0  0  0  0  0  0  0
    0.7921   -1.3625   -2.5046 H   0  0  0  0  0  0  0  0  0  0  0  0
    1.8835   -0.2981   -1.5868 H   0  0  0  0  0  0  0  0  0  0  0  0
    2.5104   -2.3201   -1.7213 N   0  3  0  0  0  0  0  0  0  0  0  0
    2.5318   -3.0338   -0.9933 H   0  0  0  0  0  0  0  0  0  0  0  0
    3.3796   -2.3704   -2.6889 C   0  0  0  0  0  0  0  0  0  0  0  0
    3.3724   -1.4567   -3.7182 N   0  0  0  0  0  0  0  0  0  0  0  0
    2.5669   -0.8394   -3.7993 H   0  0  0  0  0  0  0  0  0  0  0  0
    3.8993   -1.6691   -4.5630 H   0  0  0  0  0  0  0  0  0  0  0  0
    4.3330   -3.3605   -2.6941 N   0  0  0  0  0  0  0  0  0  0  0  0
    4.4539   -3.9293   -1.8581 H   0  0  0  0  0  0  0  0  0  0  0  0
    5.1247   -3.2697   -3.3284 H   0  0  0  0  0  0  0  0  0  0  0  0
   -1.4090    0.9282    1.5943 C   0  0  0  0  0  0  0  0  0  0  0  0
   -2.3332    1.5758    1.1203 O   0  0  0  0  0  0  0  0  0  0  0  0
   -0.5905    1.5006    2.5510 N   0  0  0  0  0  0  0  0  0  0  0  0
    0.0928    0.9026    3.0068 H   0  0  0  0  0  0  0  0  0  0  0  0
   -0.8278    2.8323    3.0999 C   0  0  0  0  0  0  0  0  0  0  0  0
   -1.7998    2.8727    3.6034 H   0  0  0  0  0  0  0  0  0  0  0  0
   -0.0509    3.0880    3.8273 H   0  0  0  0  0  0  0  0  0  0  0  0
   -0.8138    3.5843    2.3036 H   0  0  0  0  0  0  0  0  0  0  0  0
  1  2  1  0  0  0  0
  2  3  1  0  0  0  0
  2  4  1  0  0  0  0
  2  5  1  0  0  0  0
  5  6  2  0  0  0  0
  5  7  1  0  0  0  0
  7  8  1  0  0  0  0
  7  9  1  0  0  0  0
  9 10  1  0  0  0  0
  9 11  1  0  0  0  0
  9 29  1  0  0  0  0
 11 12  1  0  0  0  0
 11 13  1  0  0  0  0
 11 14  1  0  0  0  0
 14 15  1  0  0  0  0
 14 16  1  0  0  0  0
 14 17  1  0  0  0  0
 17 18  1  0  0  0  0
 17 19  1  0  0  0  0
 17 20  1  0  0  0  0
 20 21  1  0  0  0  0
 20 22  2  0  0  0  0
 22 23  1  0  0  0  0
 22 26  1  0  0  0  0
 23 24  1  0  0  0  0
 23 25  1  0  0  0  0
 26 27  1  0  0  0  0
 26 28  1  0  0  0  0
 29 30  2  0  0  0  0
 29 31  1  0  0  0  0
 31 32  1  0  0  0  0
 31 33  1  0  0  0  0
 33 34  1  0  0  0  0
 33 35  1  0  0  0  0
 33 36  1  0  0  0  0
M  CHG  1  20   1
M  END
$$$$

  -OEChem-03222214013D

 36 35  0     1  0  0  0  0  0999 V2000
   -3.9625   -4.1102    2.0897 H   0  0  0  0  0  0  0  0  0  0  0  0
   -4.0134   -3.1084    1.6541 C   0  0  0  0  0  0  0  0  0  0  0  0
   -4.6330   -2.4776    2.2961 H   0  0  0  0  0  0  0  0  0  0  0  0
   -4.4760   -3.1762    0.6666 H   0  0  0  0  0  0  0  0  0  0  0  0
   -2.6212   -2.5191    1.5351 C   0  0  0  0  0  0  0  0  0  0  0  0
   -1.6393   -3.1885    1.8237 O   0  0  0  0  0  0  0  0  0  0  0  0
   -2.4489   -1.2364    1.0566 N   0  0  0  0  0  0  0  0  0  0  0  0
   -3.2892   -0.6798    0.8970 H   0  0  0  0  0  0  0  0  0  0  0  0
   -1.1731   -0.5114    1.1222 C   0  0  1  0  0  0  0  0  0  0  0  0
   -0.5098   -0.9739    1.8596 H   0  0  0  0  0  0  0  0  0  0  0  0
   -0.5408   -0.5479   -0.2871 C   0  0  0  0  0  0  0  0  0  0  0  0
   -1.2912   -0.7847   -1.0499 H   0  0  0  0  0  0  0  0  0  0  0  0
   -0.1627    0.4547   -0.5178 H   0  0  0  0  0  0  0  0  0  0  0  0
    0.6292   -1.5424   -0.3692 C   0  0  0  0  0  0  0  0  0  0  0  0
    1.1330   -1.6206    0.5998 H   0  0  0  0  0  0  0  0  0  0  0  0
    0.2372   -2.5346   -0.6205 H   0  0  0  0  0  0  0  0  0  0  0  0
    1.6529   -1.0799   -1.4030 C   0  0  0  0  0  0  0  0  0  0  0  0
    1.1519   -0.9599   -2.3699 H   0  0  0  0  0  0  0  0  0  0  0  0
    2.0620   -0.1098   -1.0994 H   0  0  0  0  0  0  0  0  0  0  0  0
    2.7316   -2.0786   -1.5119 N   0  3  0  0  0  0  0  0  0  0  0  0
    2.6505   -2.9131   -0.9315 H   0  0  0  0  0  0  0  0  0  0  0  0
    3.7451   -1.9599   -2.3198 C   0  0  0  0  0  0  0  0  0  0  0  0
    3.8866   -0.8705   -3.1493 N   0  0  0  0  0  0  0  0  0  0  0  0
    3.0946   -0.2376   -3.2419 H   0  0  0  0  0  0  0  0  0  0  0  0
    4.5473   -0.9269   -3.9217 H   0  0  0  0  0  0  0  0  0  0  0  0
    4.7033   -2.9447   -2.3553 N   0  0  0  0  0  0  0  0  0  0  0  0
    4.6995   -3.6603   -1.6308 H   0  0  0  0  0  0  0  0  0  0  0  0
    5.5811   -2.7539   -2.8352 H   0  0  0  0  0  0  0  0  0  0  0  0
   -1.4132    0.9346    1.6039 C   0  0  0  0  0  0  0  0  0  0  0  0
   -2.3301    1.5841    1.1181 O   0  0  0  0  0  0  0  0  0  0  0  0
   -0.6016    1.5094    2.5655 N   0  0  0  0  0  0  0  0  0  0  0  0
    0.0713    0.9098    3.0344 H   0  0  0  0  0  0  0  0  0  0  0  0
   -0.8416    2.8438    3.1070 C   0  0  0  0  0  0  0  0  0  0  0  0
   -1.8167    2.8871    3.6042 H   0  0  0  0  0  0  0  0  0  0  0  0
   -0.0691    3.1023    3.8379 H   0  0  0  0  0  0  0  0  0  0  0  0
   -0.8225    3.5922    2.3075 H   0  0  0  0  0  0  0  0  0  0  0  0
  1  2  1  0  0  0  0
  2  3  1  0  0  0  0
  2  4  1  0  0  0  0
  2  5  1  0  0  0  0
  5  6  2  0  0  0  0
  5  7  1  0  0  0  0
  7  8  1  0  0  0  0
  7  9  1  0  0  0  0
  9 10  1  0  0  0  0
  9 11  1  0  0  0  0
  9 29  1  0  0  0  0
 11 12  1  0  0  0  0
 11 13  1  0  0  0  0
 11 14  1  0  0  0  0
 14 15  1  0  0  0  0
 14 16  1  0  0  0  0
 14 17  1  0  0  0  0
 17 18  1  0  0  0  0
 17 19  1  0  0  0  0
 17 20  1  0  0  0  0
 20 21  1  0  0  0  0
 20 22  2  0  0  0  0
 22 23  1  0  0  0  0
 22 26  1  0  0  0  0
 23 24  1  0  0  0  0
 23 25  1  0  0  0  0
 26 27  1  0  0  0  0
 26 28  1  0  0  0  0
 29 30  2  0  0  0  0
 29 31  1  0  0  0  0
 31 32  1  0  0  0  0
 31 33  1  0  0  0  0
 33 34  1  0  0  0  0
 33 35  1  0  0  0  0
 33 36  1  0  0  0  0
M  CHG  1  20   1
M  END
$$$$

  -OEChem-03222214013D

 36 35  0     1  0  0  0  0  0999 V2000
   -3.9611   -4.1137    2.0872 H   0  0  0  0  0  0  0  0  0  0  0  0
   -4.0106   -3.1128    1.6493 C   0  0  0  0  0  0  0  0  0  0  0  0
   -4.6408   -2.4833    2.2821 H   0  0  0  0  0  0  0  0  0  0  0  0
   -4.4608   -3.1838    0.6563 H   0  0  0  0  0  0  0  0  0  0  0  0
   -2.6197   -2.5176    1.5466 C   0  0  0  0  0  0  0  0  0  0  0  0
   -1.6390   -3.1793    1.8566 O   0  0  0  0  0  0  0  0  0  0  0  0
   -2.4472   -1.2360    1.0648 N   0  0  0  0  0  0  0  0  0  0  0  0
   -3.2876   -0.6851    0.8873 H   0  0  0  0  0  0  0  0  0  0  0  0
   -1.1735   -0.5082    1.1342 C   0  0  1  0  0  0  0  0  0  0  0  0
   -0.5126   -0.9635    1.8777 H   0  0  0  0  0  0  0  0  0  0  0  0
   -0.5366   -0.5414   -0.2745 C   0  0  0  0  0  0  0  0  0  0  0  0
   -1.2880   -0.7822   -1.0350 H   0  0  0  0  0  0  0  0  0  0  0  0
   -0.1715    0.4648   -0.5098 H   0  0  0  0  0  0  0  0  0  0  0  0
    0.6404   -1.5313   -0.3708 C   0  0  0  0  0  0  0  0  0  0  0  0
    0.9739   -1.8395    0.6255 H   0  0  0  0  0  0  0  0  0  0  0  0
    0.2991   -2.4334   -0.8909 H   0  0  0  0  0  0  0  0  0  0  0  0
    1.8225   -0.9031   -1.1066 C   0  0  0  0  0  0  0  0  0  0  0  0
    1.4939   -0.5844   -2.1022 H   0  0  0  0  0  0  0  0  0  0  0  0
    2.1659   -0.0215   -0.5536 H   0  0  0  0  0  0  0  0  0  0  0  0
    2.9128   -1.8884   -1.2234 N   0  3  0  0  0  0  0  0  0  0  0  0
    2.7473   -2.8115   -0.8229 H   0  0  0  0  0  0  0  0  0  0  0  0
    4.0437   -1.6456   -1.8207 C   0  0  0  0  0  0  0  0  0  0  0  0
    4.3090   -0.4266   -2.4026 N   0  0  0  0  0  0  0  0  0  0  0  0
    3.5367    0.2283   -2.5077 H   0  0  0  0  0  0  0  0  0  0  0  0
    5.0889   -0.3551   -3.0530 H   0  0  0  0  0  0  0  0  0  0  0  0
    5.0040   -2.6272   -1.8802 N   0  0  0  0  0  0  0  0  0  0  0  0
    4.8876   -3.4636   -1.3111 H   0  0  0  0  0  0  0  0  0  0  0  0
    5.9474   -2.3697   -2.1643 H   0  0  0  0  0  0  0  0  0  0  0  0
   -1.4202    0.9385    1.6101 C   0  0  0  0  0  0  0  0  0  0  0  0
   -2.3317    1.5870    1.1136 O   0  0  0  0  0  0  0  0  0  0  0  0
   -0.6142    1.5171    2.5742 N   0  0  0  0  0  0  0  0  0  0  0  0
    0.0454    0.9148    3.0584 H   0  0  0  0  0  0  0  0  0  0  0  0
   -0.8613    2.8515    3.1123 C   0  0  0  0  0  0  0  0  0  0  0  0
   -1.8384    2.8921    3.6057 H   0  0  0  0  0  0  0  0  0  0  0  0
   -0.0924    3.1134    3.8457 H   0  0  0  0  0  0  0  0  0  0  0  0
   -0.8411    3.5992    2.3120 H   0  0  0  0  0  0  0  0  0  0  0  0
  1  2  1  0  0  0  0
  2  3  1  0  0  0  0
  2  4  1  0  0  0  0
  2  5  1  0  0  0  0
  5  6  2  0  0  0  0
  5  7  1  0  0  0  0
  7  8  1  0  0  0  0
  7  9  1  0  0  0  0
  9 10  1  0  0  0  0
  9 11  1  0  0  0  0
  9 29  1  0  0  0  0
 11 12  1  0  0  0  0
 11 13  1  0  0  0  0
 11 14  1  0  0  0  0
 14 15  1  0  0  0  0
 14 16  1  0  0  0  0
 14 17  1  0  0  0  0
 17 18  1  0  0  0  0
 17 19  1  0  0  0  0
 17 20  1  0  0  0  0
 20 21  1  0  0  0  0
 20 22  2  0  0  0  0
 22 23  1  0  0  0  0
 22 26  1  0  0  0  0
 23 24  1  0  0  0  0
 23 25  1  0  0  0  0
 26 27  1  0  0  0  0
 26 28  1  0  0  0  0
 29 30  2  0  0  0  0
 29 31  1  0  0  0  0
 31 32  1  0  0  0  0
 31 33  1  0  0  0  0
 33 34  1  0  0  0  0
 33 35  1  0  0  0  0
 33 36  1  0  0  0  0
M  CHG  1  20   1
M  END
$$$$

  -OEChem-03222214013D

 36 35  0     1  0  0  0  0  0999 V2000
   -3.9573   -4.1227    2.0876 H   0  0  0  0  0  0  0  0  0  0  0  0
   -4.0072   -3.1252    1.6422 C   0  0  0  0  0  0  0  0  0  0  0  0
   -4.6508   -2.4961    2.2620 H   0  0  0  0  0  0  0  0  0  0  0  0
   -4.4424   -3.2067    0.6432 H   0  0  0  0  0  0  0  0  0  0  0  0
   -2.6188   -2.5212    1.5551 C   0  0  0  0  0  0  0  0  0  0  0  0
   -1.6380   -3.1738    1.8833 O   0  0  0  0  0  0  0  0  0  0  0  0
   -2.4488   -1.2396    1.0724 N   0  0  0  0  0  0  0  0  0  0  0  0
   -3.2897   -0.6956    0.8772 H   0  0  0  0  0  0  0  0  0  0  0  0
   -1.1773   -0.5073    1.1400 C   0  0  1  0  0  0  0  0  0  0  0  0
   -0.5122   -0.9596    1.8815 H   0  0  0  0  0  0  0  0  0  0  0  0
   -0.5361   -0.5315   -0.2674 C   0  0  0  0  0  0  0  0  0  0  0  0
   -1.2903   -0.7952   -1.0177 H   0  0  0  0  0  0  0  0  0  0  0  0
   -0.1918    0.4772   -0.5230 H   0  0  0  0  0  0  0  0  0  0  0  0
    0.6468   -1.5155   -0.3647 C   0  0  0  0  0  0  0  0  0  0  0  0
    0.7893   -2.0561    0.5773 H   0  0  0  0  0  0  0  0  0  0  0  0
    0.4110   -2.2650   -1.1282 H   0  0  0  0  0  0  0  0  0  0  0  0
    1.9354   -0.7890   -0.7454 C   0  0  0  0  0  0  0  0  0  0  0  0
    1.7851   -0.2720   -1.6996 H   0  0  0  0  0  0  0  0  0  0  0  0
    2.1691   -0.0432    0.0225 H   0  0  0  0  0  0  0  0  0  0  0  0
    3.0367   -1.7618   -0.8622 N   0  3  0  0  0  0  0  0  0  0  0  0
    2.8165   -2.7366   -0.6595 H   0  0  0  0  0  0  0  0  0  0  0  0
    4.2475   -1.4425   -1.2176 C   0  0  0  0  0  0  0  0  0  0  0  0
    4.5967   -0.1467   -1.5236 N   0  0  0  0  0  0  0  0  0  0  0  0
    3.8480    0.5342   -1.6330 H   0  0  0  0  0  0  0  0  0  0  0  0
    5.4707    0.0194   -2.0187 H   0  0  0  0  0  0  0  0  0  0  0  0
    5.2109   -2.4193   -1.2949 N   0  0  0  0  0  0  0  0  0  0  0  0
    5.0080   -3.3400   -0.9099 H   0  0  0  0  0  0  0  0  0  0  0  0
    6.1863   -2.1359   -1.3682 H   0  0  0  0  0  0  0  0  0  0  0  0
   -1.4262    0.9392    1.6148 C   0  0  0  0  0  0  0  0  0  0  0  0
   -2.3310    1.5909    1.1103 O   0  0  0  0  0  0  0  0  0  0  0  0
   -0.6191    1.5189    2.5776 N   0  0  0  0  0  0  0  0  0  0  0  0
    0.0265    0.9121    3.0750 H   0  0  0  0  0  0  0  0  0  0  0  0
   -0.8609    2.8584    3.1062 C   0  0  0  0  0  0  0  0  0  0  0  0
   -1.8358    2.9054    3.6035 H   0  0  0  0  0  0  0  0  0  0  0  0
   -0.0881    3.1253    3.8339 H   0  0  0  0  0  0  0  0  0  0  0  0
   -0.8429    3.5992    2.2995 H   0  0  0  0  0  0  0  0  0  0  0  0
  1  2  1  0  0  0  0
  2  3  1  0  0  0  0
  2  4  1  0  0  0  0
  2  5  1  0  0  0  0
  5  6  2  0  0  0  0
  5  7  1  0  0  0  0
  7  8  1  0  0  0  0
  7  9  1  0  0  0  0
  9 10  1  0  0  0  0
  9 11  1  0  0  0  0
  9 29  1  0  0  0  0
 11 12  1  0  0  0  0
 11 13  1  0  0  0  0
 11 14  1  0  0  0  0
 14 15  1  0  0  0  0
 14 16  1  0  0  0  0
 14 17  1  0  0  0  0
 17 18  1  0  0  0  0
 17 19  1  0  0  0  0
 17 20  1  0  0  0  0
 20 21  1  0  0  0  0
 20 22  2  0  0  0  0
 22 23  1  0  0  0  0
 22 26  1  0  0  0  0
 23 24  1  0  0  0  0
 23 25  1  0  0  0  0
 26 27  1  0  0  0  0
 26 28  1  0  0  0  0
 29 30  2  0  0  0  0
 29 31  1  0  0  0  0
 31 32  1  0  0  0  0
 31 33  1  0  0  0  0
 33 34  1  0  0  0  0
 33 35  1  0  0  0  0
 33 36  1  0  0  0  0
M  CHG  1  20   1
M  END
$$$$

  -OEChem-03222214013D

 36 35  0     1  0  0  0  0  0999 V2000
   -3.9193   -4.1393    2.0660 H   0  0  0  0  0  0  0  0  0  0  0  0
   -3.9791   -3.1336    1.6409 C   0  0  0  0  0  0  0  0  0  0  0  0
   -4.6214   -2.5205    2.2780 H   0  0  0  0  0  0  0  0  0  0  0  0
   -4.4216   -3.1980    0.6439 H   0  0  0  0  0  0  0  0  0  0  0  0
   -2.5952   -2.5202    1.5549 C   0  0  0  0  0  0  0  0  0  0  0  0
   -1.6112   -3.1636    1.8920 O   0  0  0  0  0  0  0  0  0  0  0  0
   -2.4337   -1.2373    1.0731 N   0  0  0  0  0  0  0  0  0  0  0  0
   -3.2778   -0.6998    0.8730 H   0  0  0  0  0  0  0  0  0  0  0  0
   -1.1664   -0.4979    1.1360 C   0  0  1  0  0  0  0  0  0  0  0  0
   -0.4893   -0.9481    1.8690 H   0  0  0  0  0  0  0  0  0  0  0  0
   -0.5305   -0.5062   -0.2730 C   0  0  0  0  0  0  0  0  0  0  0  0
   -1.2880   -0.7877   -1.0134 H   0  0  0  0  0  0  0  0  0  0  0  0
   -0.1973    0.5022   -0.5436 H   0  0  0  0  0  0  0  0  0  0  0  0
    0.6538   -1.4841   -0.3659 C   0  0  0  0  0  0  0  0  0  0  0  0
    0.6176   -2.2185    0.4468 H   0  0  0  0  0  0  0  0  0  0  0  0
    0.5634   -2.0421   -1.3044 H   0  0  0  0  0  0  0  0  0  0  0  0
    1.9876   -0.7414   -0.3674 C   0  0  0  0  0  0  0  0  0  0  0  0
    2.0153   -0.0550   -1.2210 H   0  0  0  0  0  0  0  0  0  0  0  0
    2.0759   -0.1563    0.5548 H   0  0  0  0  0  0  0  0  0  0  0  0
    3.0887   -1.7174   -0.4566 N   0  3  0  0  0  0  0  0  0  0  0  0
    2.8338   -2.7045   -0.4293 H   0  0  0  0  0  0  0  0  0  0  0  0
    4.3431   -1.3864   -0.5597 C   0  0  0  0  0  0  0  0  0  0  0  0
    4.7445   -0.0706   -0.6115 N   0  0  0  0  0  0  0  0  0  0  0  0
    4.0273    0.6403   -0.7408 H   0  0  0  0  0  0  0  0  0  0  0  0
    5.6879    0.1389   -0.9314 H   0  0  0  0  0  0  0  0  0  0  0  0
    5.2999   -2.3712   -0.6209 N   0  0  0  0  0  0  0  0  0  0  0  0
    5.0297   -3.3309   -0.4135 H   0  0  0  0  0  0  0  0  0  0  0  0
    6.2758   -2.1112   -0.4904 H   0  0  0  0  0  0  0  0  0  0  0  0
   -1.4298    0.9445    1.6141 C   0  0  0  0  0  0  0  0  0  0  0  0
   -2.3425    1.5876    1.1130 O   0  0  0  0  0  0  0  0  0  0  0  0
   -0.6268    1.5313    2.5758 N   0  0  0  0  0  0  0  0  0  0  0  0
    0.0128    0.9254    3.0813 H   0  0  0  0  0  0  0  0  0  0  0  0
   -0.9002    2.8579    3.1214 C   0  0  0  0  0  0  0  0  0  0  0  0
   -1.8772    2.8762    3.6167 H   0  0  0  0  0  0  0  0  0  0  0  0
   -0.1357    3.1329    3.8547 H   0  0  0  0  0  0  0  0  0  0  0  0
   -0.8978    3.6096    2.3247 H   0  0  0  0  0  0  0  0  0  0  0  0
  1  2  1  0  0  0  0
  2  3  1  0  0  0  0
  2  4  1  0  0  0  0
  2  5  1  0  0  0  0
  5  6  2  0  0  0  0
  5  7  1  0  0  0  0
  7  8  1  0  0  0  0
  7  9  1  0  0  0  0
  9 10  1  0  0  0  0
  9 11  1  0  0  0  0
  9 29  1  0  0  0  0
 11 12  1  0  0  0  0
 11 13  1  0  0  0  0
 11 14  1  0  0  0  0
 14 15  1  0  0  0  0
 14 16  1  0  0  0  0
 14 17  1  0  0  0  0
 17 18  1  0  0  0  0
 17 19  1  0  0  0  0
 17 20  1  0  0  0  0
 20 21  1  0  0  0  0
 20 22  2  0  0  0  0
 22 23  1  0  0  0  0
 22 26  1  0  0  0  0
 23 24  1  0  0  0  0
 23 25  1  0  0  0  0
 26 27  1  0  0  0  0
 26 28  1  0  0  0  0
 29 30  2  0  0  0  0
 29 31  1  0  0  0  0
 31 32  1  0  0  0  0
 31 33  1  0  0  0  0
 33 34  1  0  0  0  0
 33 35  1  0  0  0  0
 33 36  1  0  0  0  0
M  CHG  1  20   1
M  END
$$$$

  -OEChem-03222214013D

 36 35  0     1  0  0  0  0  0999 V2000
   -3.9239   -4.1698    1.9445 H   0  0  0  0  0  0  0  0  0  0  0  0
   -3.9825   -3.1422    1.5750 C   0  0  0  0  0  0  0  0  0  0  0  0
   -4.6227   -2.5633    2.2454 H   0  0  0  0  0  0  0  0  0  0  0  0
   -4.4274   -3.1516    0.5769 H   0  0  0  0  0  0  0  0  0  0  0  0
   -2.5981   -2.5258    1.5202 C   0  0  0  0  0  0  0  0  0  0  0  0
   -1.6187   -3.1696    1.8706 O   0  0  0  0  0  0  0  0  0  0  0  0
   -2.4325   -1.2367    1.0569 N   0  0  0  0  0  0  0  0  0  0  0  0
   -3.2751   -0.7003    0.8472 H   0  0  0  0  0  0  0  0  0  0  0  0
   -1.1681   -0.4942    1.1391 C   0  0  1  0  0  0  0  0  0  0  0  0
   -0.4971   -0.9558    1.8708 H   0  0  0  0  0  0  0  0  0  0  0  0
   -0.5146   -0.4863   -0.2616 C   0  0  0  0  0  0  0  0  0  0  0  0
   -1.2601   -0.7708   -1.0130 H   0  0  0  0  0  0  0  0  0  0  0  0
   -0.1785    0.5230   -0.5247 H   0  0  0  0  0  0  0  0  0  0  0  0
    0.6707   -1.4596   -0.3360 C   0  0  0  0  0  0  0  0  0  0  0  0
    0.4812   -2.3332    0.2985 H   0  0  0  0  0  0  0  0  0  0  0  0
    0.7620   -1.8196   -1.3668 H   0  0  0  0  0  0  0  0  0  0  0  0
    1.9741   -0.7680    0.0575 C   0  0  0  0  0  0  0  0  0  0  0  0
    2.1864    0.0315   -0.6606 H   0  0  0  0  0  0  0  0  0  0  0  0
    1.8610   -0.3215    1.0514 H   0  0  0  0  0  0  0  0  0  0  0  0
    3.0658   -1.7586    0.0729 N   0  3  0  0  0  0  0  0  0  0  0  0
    2.7948   -2.7416    0.0917 H   0  0  0  0  0  0  0  0  0  0  0  0
    4.3295   -1.4480    0.1003 C   0  0  0  0  0  0  0  0  0  0  0  0
    4.7570   -0.1398    0.0835 N   0  0  0  0  0  0  0  0  0  0  0  0
    4.0707    0.5824   -0.1252 H   0  0  0  0  0  0  0  0  0  0  0  0
    5.7334    0.0510   -0.1330 H   0  0  0  0  0  0  0  0  0  0  0  0
    5.2717   -2.4476    0.1475 N   0  0  0  0  0  0  0  0  0  0  0  0
    4.9662   -3.4009    0.3344 H   0  0  0  0  0  0  0  0  0  0  0  0
    6.2332   -2.2008    0.3757 H   0  0  0  0  0  0  0  0  0  0  0  0
   -1.4347    0.9421    1.6327 C   0  0  0  0  0  0  0  0  0  0  0  0
   -2.3446    1.5915    1.1351 O   0  0  0  0  0  0  0  0  0  0  0  0
   -0.6365    1.5146    2.6072 N   0  0  0  0  0  0  0  0  0  0  0  0
   -0.0117    0.8974    3.1173 H   0  0  0  0  0  0  0  0  0  0  0  0
   -0.9093    2.8358    3.1658 C   0  0  0  0  0  0  0  0  0  0  0  0
   -1.8751    2.8424    3.6826 H   0  0  0  0  0  0  0  0  0  0  0  0
   -0.1305    3.1134    3.8827 H   0  0  0  0  0  0  0  0  0  0  0  0
   -0.9312    3.5918    2.3734 H   0  0  0  0  0  0  0  0  0  0  0  0
  1  2  1  0  0  0  0
  2  3  1  0  0  0  0
  2  4  1  0  0  0  0
  2  5  1  0  0  0  0
  5  6  2  0  0  0  0
  5  7  1  0  0  0  0
  7  8  1  0  0  0  0
  7  9  1  0  0  0  0
  9 10  1  0  0  0  0
  9 11  1  0  0  0  0
  9 29  1  0  0  0  0
 11 12  1  0  0  0  0
 11 13  1  0  0  0  0
 11 14  1  0  0  0  0
 14 15  1  0  0  0  0
 14 16  1  0  0  0  0
 14 17  1  0  0  0  0
 17 18  1  0  0  0  0
 17 19  1  0  0  0  0
 17 20  1  0  0  0  0
 20 21  1  0  0  0  0
 20 22  2  0  0  0  0
 22 23  1  0  0  0  0
 22 26  1  0  0  0  0
 23 24  1  0  0  0  0
 23 25  1  0  0  0  0
 26 27  1  0  0  0  0
 26 28  1  0  0  0  0
 29 30  2  0  0  0  0
 29 31  1  0  0  0  0
 31 32  1  0  0  0  0
 31 33  1  0  0  0  0
 33 34  1  0  0  0  0
 33 35  1  0  0  0  0
 33 36  1  0  0  0  0
M  CHG  1  20   1
M  END
$$$$

  -OEChem-03222214013D

 36 35  0     1  0  0  0  0  0999 V2000
   -3.9360   -4.1739    1.8238 H   0  0  0  0  0  0  0  0  0  0  0  0
   -3.9850   -3.1489    1.4459 C   0  0  0  0  0  0  0  0  0  0  0  0
   -4.6721   -2.5757    2.0732 H   0  0  0  0  0  0  0  0  0  0  0  0
   -4.3685   -3.1687    0.4229 H   0  0  0  0  0  0  0  0  0  0  0  0
   -2.6073   -2.5156    1.4718 C   0  0  0  0  0  0  0  0  0  0  0  0
   -1.6416   -3.1513    1.8732 O   0  0  0  0  0  0  0  0  0  0  0  0
   -2.4274   -1.2232    1.0215 N   0  0  0  0  0  0  0  0  0  0  0  0
   -3.2597   -0.6929    0.7611 H   0  0  0  0  0  0  0  0  0  0  0  0
   -1.1742   -0.4742    1.1799 C   0  0  1  0  0  0  0  0  0  0  0  0
   -0.5451   -0.9368    1.9462 H   0  0  0  0  0  0  0  0  0  0  0  0
   -0.4469   -0.4592   -0.1842 C   0  0  0  0  0  0  0  0  0  0  0  0
   -1.1472   -0.7324   -0.9816 H   0  0  0  0  0  0  0  0  0  0  0  0
   -0.0889    0.5507   -0.4139 H   0  0  0  0  0  0  0  0  0  0  0  0
    0.7432   -1.4265   -0.1996 C   0  0  0  0  0  0  0  0  0  0  0  0
    0.4246   -2.3943    0.2050 H   0  0  0  0  0  0  0  0  0  0  0  0
    1.0526   -1.5896   -1.2376 H   0  0  0  0  0  0  0  0  0  0  0  0
    1.9294   -0.8785    0.5914 C   0  0  0  0  0  0  0  0  0  0  0  0
    2.3051    0.0233    0.0976 H   0  0  0  0  0  0  0  0  0  0  0  0
    1.6022   -0.6063    1.6005 H   0  0  0  0  0  0  0  0  0  0  0  0
    2.9716   -1.9185    0.6725 N   0  3  0  0  0  0  0  0  0  0  0  0
    2.6472   -2.8797    0.7795 H   0  0  0  0  0  0  0  0  0  0  0  0
    4.2518   -1.6822    0.6561 C   0  0  0  0  0  0  0  0  0  0  0  0
    4.7599   -0.4098    0.5253 N   0  0  0  0  0  0  0  0  0  0  0  0
    4.1177    0.3356    0.2657 H   0  0  0  0  0  0  0  0  0  0  0  0
    5.7426   -0.3000    0.2832 H   0  0  0  0  0  0  0  0  0  0  0  0
    5.1313   -2.7319    0.7725 N   0  0  0  0  0  0  0  0  0  0  0  0
    4.7710   -3.6469    1.0373 H   0  0  0  0  0  0  0  0  0  0  0  0
    6.1099   -2.5288    0.9680 H   0  0  0  0  0  0  0  0  0  0  0  0
   -1.4790    0.9591    1.6622 C   0  0  0  0  0  0  0  0  0  0  0  0
   -2.3638    1.6027    1.1146 O   0  0  0  0  0  0  0  0  0  0  0  0
   -0.7453    1.5364    2.6838 N   0  0  0  0  0  0  0  0  0  0  0  0
   -0.1437    0.9259    3.2283 H   0  0  0  0  0  0  0  0  0  0  0  0
   -1.0622    2.8556    3.2243 C   0  0  0  0  0  0  0  0  0  0  0  0
   -2.0743    2.8663    3.6433 H   0  0  0  0  0  0  0  0  0  0  0  0
   -0.3567    3.1223    4.0174 H   0  0  0  0  0  0  0  0  0  0  0  0
   -1.0006    3.6174    2.4396 H   0  0  0  0  0  0  0  0  0  0  0  0
  1  2  1  0  0  0  0
  2  3  1  0  0  0  0
  2  4  1  0  0  0  0
  2  5  1  0  0  0  0
  5  6  2  0  0  0  0
  5  7  1  0  0  0  0
  7  8  1  0  0  0  0
  7  9  1  0  0  0  0
  9 10  1  0  0  0  0
  9 11  1  0  0  0  0
  9 29  1  0  0  0  0
 11 12  1  0  0  0  0
 11 13  1  0  0  0  0
 11 14  1  0  0  0  0
 14 15  1  0  0  0  0
 14 16  1  0  0  0  0
 14 17  1  0  0  0  0
 17 18  1  0  0  0  0
 17 19  1  0  0  0  0
 17 20  1  0  0  0  0
 20 21  1  0  0  0  0
 20 22  2  0  0  0  0
 22 23  1  0  0  0  0
 22 26  1  0  0  0  0
 23 24  1  0  0  0  0
 23 25  1  0  0  0  0
 26 27  1  0  0  0  0
 26 28  1  0  0  0  0
 29 30  2  0  0  0  0
 29 31  1  0  0  0  0
 31 32  1  0  0  0  0
 31 33  1  0  0  0  0
 33 34  1  0  0  0  0
 33 35  1  0  0  0  0
 33 36  1  0  0  0  0
M  CHG  1  20   1
M  END
$$$$

  -OEChem-03222214013D

 36 35  0     1  0  0  0  0  0999 V2000
   -3.9697   -4.1422    1.5393 H   0  0  0  0  0  0  0  0  0  0  0  0
   -3.9798   -3.1108    1.1760 C   0  0  0  0  0  0  0  0  0  0  0  0
   -4.7319   -2.5485    1.7349 H   0  0  0  0  0  0  0  0  0  0  0  0
   -4.2497   -3.1134    0.1172 H   0  0  0  0  0  0  0  0  0  0  0  0
   -2.6148   -2.4773    1.3621 C   0  0  0  0  0  0  0  0  0  0  0  0
   -1.7015   -3.1114    1.8746 O   0  0  0  0  0  0  0  0  0  0  0  0
   -2.3834   -1.1868    0.9308 N   0  0  0  0  0  0  0  0  0  0  0  0
   -3.1815   -0.6568    0.5782 H   0  0  0  0  0  0  0  0  0  0  0  0
   -1.1686   -0.4305    1.2592 C   0  0  1  0  0  0  0  0  0  0  0  0
   -0.6630   -0.8858    2.1140 H   0  0  0  0  0  0  0  0  0  0  0  0
   -0.2615   -0.4262    0.0056 C   0  0  0  0  0  0  0  0  0  0  0  0
   -0.8466   -0.6870   -0.8836 H   0  0  0  0  0  0  0  0  0  0  0  0
    0.1250    0.5858   -0.1595 H   0  0  0  0  0  0  0  0  0  0  0  0
    0.9362   -1.3811    0.1252 C   0  0  0  0  0  0  0  0  0  0  0  0
    0.5458   -2.3983    0.2471 H   0  0  0  0  0  0  0  0  0  0  0  0
    1.5048   -1.3576   -0.8102 H   0  0  0  0  0  0  0  0  0  0  0  0
    1.8654   -1.0537    1.2968 C   0  0  0  0  0  0  0  0  0  0  0  0
    2.3668   -0.0963    1.1214 H   0  0  0  0  0  0  0  0  0  0  0  0
    1.2837   -0.9540    2.2180 H   0  0  0  0  0  0  0  0  0  0  0  0
    2.8395   -2.1483    1.4668 N   0  3  0  0  0  0  0  0  0  0  0  0
    2.4924   -2.9981    1.9129 H   0  0  0  0  0  0  0  0  0  0  0  0
    4.0807   -2.1012    1.0764 C   0  0  0  0  0  0  0  0  0  0  0  0
    4.6010   -1.0034    0.4297 N   0  0  0  0  0  0  0  0  0  0  0  0
    3.9491   -0.2968    0.0962 H   0  0  0  0  0  0  0  0  0  0  0  0
    5.4890   -1.1019   -0.0580 H   0  0  0  0  0  0  0  0  0  0  0  0
    4.9010   -3.1798    1.3070 N   0  0  0  0  0  0  0  0  0  0  0  0
    4.5757   -3.9187    1.9280 H   0  0  0  0  0  0  0  0  0  0  0  0
    5.9059   -3.0612    1.1922 H   0  0  0  0  0  0  0  0  0  0  0  0
   -1.5490    1.0034    1.6834 C   0  0  0  0  0  0  0  0  0  0  0  0
   -2.3649    1.6286    1.0194 O   0  0  0  0  0  0  0  0  0  0  0  0
   -0.9733    1.5947    2.7940 N   0  0  0  0  0  0  0  0  0  0  0  0
   -0.4301    1.0007    3.4128 H   0  0  0  0  0  0  0  0  0  0  0  0
   -1.3800    2.9106    3.2796 C   0  0  0  0  0  0  0  0  0  0  0  0
   -2.4341    2.9011    3.5773 H   0  0  0  0  0  0  0  0  0  0  0  0
   -0.7781    3.1992    4.1468 H   0  0  0  0  0  0  0  0  0  0  0  0
   -1.2432    3.6682    2.5003 H   0  0  0  0  0  0  0  0  0  0  0  0
  1  2  1  0  0  0  0
  2  3  1  0  0  0  0
  2  4  1  0  0  0  0
  2  5  1  0  0  0  0
  5  6  2  0  0  0  0
  5  7  1  0  0  0  0
  7  8  1  0  0  0  0
  7  9  1  0  0  0  0
  9 10  1  0  0  0  0
  9 11  1  0  0  0  0
  9 29  1  0  0  0  0
 11 12  1  0  0  0  0
 11 13  1  0  0  0  0
 11 14  1  0  0  0  0
 14 15  1  0  0  0  0
 14 16  1  0  0  0  0
 14 17  1  0  0  0  0
 17 18  1  0  0  0  0
 17 19  1  0  0  0  0
 17 20  1  0  0  0  0
 20 21  1  0  0  0  0
 20 22  2  0  0  0  0
 22 23  1  0  0  0  0
 22 26  1  0  0  0  0
 23 24  1  0  0  0  0
 23 25  1  0  0  0  0
 26 27  1  0  0  0  0
 26 28  1  0  0  0  0
 29 30  2  0  0  0  0
 29 31  1  0  0  0  0
 31 32  1  0  0  0  0
 31 33  1  0  0  0  0
 33 34  1  0  0  0  0
 33 35  1  0  0  0  0
 33 36  1  0  0  0  0
M  CHG  1  20   1
M  END
$$$$

  -OEChem-03222214013D

 36 35  0     1  0  0  0  0  0999 V2000
   -3.9920   -4.0695    2.0969 H   0  0  0  0  0  0  0  0  0  0  0  0
   -4.0245   -3.0798    1.6329 C   0  0  0  0  0  0  0  0  0  0  0  0
   -4.7231   -2.4519    2.1916 H   0  0  0  0  0  0  0  0  0  0  0  0
   -4.3827   -3.1840    0.6058 H   0  0  0  0  0  0  0  0  0  0  0  0
   -2.6440   -2.4523    1.6399 C   0  0  0  0  0  0  0  0  0  0  0  0
   -1.6890   -3.0539    2.1145 O   0  0  0  0  0  0  0  0  0  0  0  0
   -2.4470   -1.2044    1.0855 N   0  0  0  0  0  0  0  0  0  0  0  0
   -3.2703   -0.6910    0.7683 H   0  0  0  0  0  0  0  0  0  0  0  0
   -1.1935   -0.4516    1.2118 C   0  0  1  0  0  0  0  0  0  0  0  0
   -0.5945   -0.8427    2.0352 H   0  0  0  0  0  0  0  0  0  0  0  0
   -0.4543   -0.5504   -0.1451 C   0  0  0  0  0  0  0  0  0  0  0  0
   -1.1561   -0.8280   -0.9398 H   0  0  0  0  0  0  0  0  0  0  0  0
   -0.0751    0.4448   -0.4029 H   0  0  0  0  0  0  0  0  0  0  0  0
    0.7501   -1.5109   -0.1714 C   0  0  0  0  0  0  0  0  0  0  0  0
    0.3539   -2.5323   -0.2046 H   0  0  0  0  0  0  0  0  0  0  0  0
    1.3065   -1.3401   -1.0996 H   0  0  0  0  0  0  0  0  0  0  0  0
    1.7026   -1.4085    1.0225 C   0  0  0  0  0  0  0  0  0  0  0  0
    2.1015   -0.3900    1.0829 H   0  0  0  0  0  0  0  0  0  0  0  0
    1.1617   -1.6348    1.9468 H   0  0  0  0  0  0  0  0  0  0  0  0
    2.7952   -2.3825    0.8437 N   0  3  0  0  0  0  0  0  0  0  0  0
    2.6958   -3.0487    0.0785 H   0  0  0  0  0  0  0  0  0  0  0  0
    3.8198   -2.4836    1.6395 C   0  0  0  0  0  0  0  0  0  0  0  0
    3.9799   -1.6572    2.7279 N   0  0  0  0  0  0  0  0  0  0  0  0
    3.1875   -1.0826    3.0045 H   0  0  0  0  0  0  0  0  0  0  0  0
    4.6468   -1.9281    3.4478 H   0  0  0  0  0  0  0  0  0  0  0  0
    4.7721   -3.4445    1.3968 N   0  0  0  0  0  0  0  0  0  0  0  0
    4.7526   -3.9426    0.5088 H   0  0  0  0  0  0  0  0  0  0  0  0
    5.6574   -3.3924    1.8972 H   0  0  0  0  0  0  0  0  0  0  0  0
   -1.5208    1.0162    1.5629 C   0  0  0  0  0  0  0  0  0  0  0  0
   -2.4124    1.5940    0.9558 O   0  0  0  0  0  0  0  0  0  0  0  0
   -0.8242    1.6888    2.5515 N   0  0  0  0  0  0  0  0  0  0  0  0
   -0.2090    1.1439    3.1460 H   0  0  0  0  0  0  0  0  0  0  0  0
   -1.1702    3.0449    2.9694 C   0  0  0  0  0  0  0  0  0  0  0  0
   -2.1904    3.0759    3.3672 H   0  0  0  0  0  0  0  0  0  0  0  0
   -0.4843    3.3905    3.7489 H   0  0  0  0  0  0  0  0  0  0  0  0
   -1.1039    3.7366    2.1226 H   0  0  0  0  0  0  0  0  0  0  0  0
  1  2  1  0  0  0  0
  2  3  1  0  0  0  0
  2  4  1  0  0  0  0
  2  5  1  0  0  0  0
  5  6  2  0  0  0  0
  5  7  1  0  0  0  0
  7  8  1  0  0  0  0
  7  9  1  0  0  0  0
  9 10  1  0  0  0  0
  9 11  1  0  0  0  0
  9 29  1  0  0  0  0
 11 12  1  0  0  0  0
 11 13  1  0  0  0  0
 11 14  1  0  0  0  0
 14 15  1  0  0  0  0
 14 16  1  0  0  0  0
 14 17  1  0  0  0  0
 17 18  1  0  0  0  0
 17 19  1  0  0  0  0
 17 20  1  0  0  0  0
 20 21  1  0  0  0  0
 20 22  2  0  0  0  0
 22 23  1  0  0  0  0
 22 26  1  0  0  0  0
 23 24  1  0  0  0  0
 23 25  1  0  0  0  0
 26 27  1  0  0  0  0
 26 28  1  0  0  0  0
 29 30  2  0  0  0  0
 29 31  1  0  0  0  0
 31 32  1  0  0  0  0
 31 33  1  0  0  0  0
 33 34  1  0  0  0  0
 33 35  1  0  0  0  0
 33 36  1  0  0  0  0
M  CHG  1  20   1
M  END
$$$$

  -OEChem-03222214013D

 36 35  0     1  0  0  0  0  0999 V2000
   -3.0835   -4.1830    2.9068 H   0  0  0  0  0  0  0  0  0  0  0  0
   -3.3183   -3.3011    2.3044 C   0  0  0  0  0  0  0  0  0  0  0  0
   -4.0530   -2.6952    2.8411 H   0  0  0  0  0  0  0  0  0  0  0  0
   -3.7526   -3.6272    1.3559 H   0  0  0  0  0  0  0  0  0  0  0  0
   -2.0641   -2.4882    2.0477 C   0  0  0  0  0  0  0  0  0  0  0  0
   -0.9672   -2.8920    2.4286 O   0  0  0  0  0  0  0  0  0  0  0  0
   -2.1325   -1.3158    1.3244 N   0  0  0  0  0  0  0  0  0  0  0  0
   -3.0602   -0.9694    1.0719 H   0  0  0  0  0  0  0  0  0  0  0  0
   -1.0305   -0.3487    1.2758 C   0  0  1  0  0  0  0  0  0  0  0  0
   -0.3616   -0.4945    2.1215 H   0  0  0  0  0  0  0  0  0  0  0  0
   -0.3259   -0.5124   -0.0935 C   0  0  0  0  0  0  0  0  0  0  0  0
   -0.9958   -0.9984   -0.8121 H   0  0  0  0  0  0  0  0  0  0  0  0
   -0.1332    0.4919   -0.4881 H   0  0  0  0  0  0  0  0  0  0  0  0
    1.0335   -1.2464   -0.0798 C   0  0  0  0  0  0  0  0  0  0  0  0
    0.8138   -2.3098   -0.2250 H   0  0  0  0  0  0  0  0  0  0  0  0
    1.6220   -0.9174   -0.9431 H   0  0  0  0  0  0  0  0  0  0  0  0
    1.8781   -1.1153    1.1932 C   0  0  0  0  0  0  0  0  0  0  0  0
    2.2648   -0.0934    1.2725 H   0  0  0  0  0  0  0  0  0  0  0  0
    1.2750   -1.3140    2.0820 H   0  0  0  0  0  0  0  0  0  0  0  0
    2.9869   -2.0850    1.1579 N   0  3  0  0  0  0  0  0  0  0  0  0
    3.8287   -1.8111    0.6528 H   0  0  0  0  0  0  0  0  0  0  0  0
    2.9355   -3.2546    1.7330 C   0  0  0  0  0  0  0  0  0  0  0  0
    1.8215   -3.7041    2.4092 N   0  0  0  0  0  0  0  0  0  0  0  0
    0.9378   -3.1929    2.3060 H   0  0  0  0  0  0  0  0  0  0  0  0
    1.7583   -4.6897    2.6507 H   0  0  0  0  0  0  0  0  0  0  0  0
    4.0315   -4.0814    1.6677 N   0  0  0  0  0  0  0  0  0  0  0  0
    4.9160   -3.6962    1.3431 H   0  0  0  0  0  0  0  0  0  0  0  0
    4.0608   -4.8927    2.2824 H   0  0  0  0  0  0  0  0  0  0  0  0
   -1.5971    1.0769    1.4572 C   0  0  0  0  0  0  0  0  0  0  0  0
   -2.6314    1.3850    0.8805 O   0  0  0  0  0  0  0  0  0  0  0  0
   -0.9921    1.9878    2.3048 N   0  0  0  0  0  0  0  0  0  0  0  0
   -0.1773    1.6885    2.8311 H   0  0  0  0  0  0  0  0  0  0  0  0
   -1.5273    3.3252    2.5441 C   0  0  0  0  0  0  0  0  0  0  0  0
   -2.5269    3.2655    2.9881 H   0  0  0  0  0  0  0  0  0  0  0  0
   -0.8777    3.8788    3.2292 H   0  0  0  0  0  0  0  0  0  0  0  0
   -1.5932    3.8859    1.6054 H   0  0  0  0  0  0  0  0  0  0  0  0
  1  2  1  0  0  0  0
  2  3  1  0  0  0  0
  2  4  1  0  0  0  0
  2  5  1  0  0  0  0
  5  6  2  0  0  0  0
  5  7  1  0  0  0  0
  7  8  1  0  0  0  0
  7  9  1  0  0  0  0
  9 10  1  0  0  0  0
  9 11  1  0  0  0  0
  9 29  1  0  0  0  0
 11 12  1  0  0  0  0
 11 13  1  0  0  0  0
 11 14  1  0  0  0  0
 14 15  1  0  0  0  0
 14 16  1  0  0  0  0
 14 17  1  0  0  0  0
 17 18  1  0  0  0  0
 17 19  1  0  0  0  0
 17 20  1  0  0  0  0
 20 21  1  0  0  0  0
 20 22  2  0  0  0  0
 22 23  1  0  0  0  0
 22 26  1  0  0  0  0
 23 24  1  0  0  0  0
 23 25  1  0  0  0  0
 26 27  1  0  0  0  0
 26 28  1  0  0  0  0
 29 30  2  0  0  0  0
 29 31  1  0  0  0  0
 31 32  1  0  0  0  0
 31 33  1  0  0  0  0
 33 34  1  0  0  0  0
 33 35  1  0  0  0  0
 33 36  1  0  0  0  0
M  CHG  1  20   1
M  END
$$$$

  -OEChem-03222214013D

 36 35  0     1  0  0  0  0  0999 V2000
   -3.3414   -4.1166    2.8597 H   0  0  0  0  0  0  0  0  0  0  0  0
   -3.5082   -3.2184    2.2589 C   0  0  0  0  0  0  0  0  0  0  0  0
   -4.2301   -2.5804    2.7753 H   0  0  0  0  0  0  0  0  0  0  0  0
   -3.9234   -3.5127    1.2916 H   0  0  0  0  0  0  0  0  0  0  0  0
   -2.2052   -2.4689    2.0575 C   0  0  0  0  0  0  0  0  0  0  0  0
   -1.1495   -2.9279    2.4860 O   0  0  0  0  0  0  0  0  0  0  0  0
   -2.1867   -1.2988    1.3284 N   0  0  0  0  0  0  0  0  0  0  0  0
   -3.0879   -0.9189    1.0314 H   0  0  0  0  0  0  0  0  0  0  0  0
   -1.0515   -0.3679    1.3135 C   0  0  1  0  0  0  0  0  0  0  0  0
   -0.4148   -0.5218    2.1840 H   0  0  0  0  0  0  0  0  0  0  0  0
   -0.3039   -0.5592   -0.0317 C   0  0  0  0  0  0  0  0  0  0  0  0
   -0.9698   -1.0248   -0.7673 H   0  0  0  0  0  0  0  0  0  0  0  0
   -0.0738    0.4380   -0.4241 H   0  0  0  0  0  0  0  0  0  0  0  0
    1.0370   -1.3327    0.0025 C   0  0  0  0  0  0  0  0  0  0  0  0
    0.8344   -2.3259   -0.4129 H   0  0  0  0  0  0  0  0  0  0  0  0
    1.7504   -0.8429   -0.6690 H   0  0  0  0  0  0  0  0  0  0  0  0
    1.6840   -1.5301    1.3781 C   0  0  0  0  0  0  0  0  0  0  0  0
    2.1043   -0.5799    1.7254 H   0  0  0  0  0  0  0  0  0  0  0  0
    0.9309   -1.8457    2.1042 H   0  0  0  0  0  0  0  0  0  0  0  0
    2.7374   -2.5583    1.3014 N   0  3  0  0  0  0  0  0  0  0  0  0
    3.5985   -2.3072    0.8178 H   0  0  0  0  0  0  0  0  0  0  0  0
    2.6113   -3.7549    1.8039 C   0  0  0  0  0  0  0  0  0  0  0  0
    1.4684   -4.1749    2.4482 N   0  0  0  0  0  0  0  0  0  0  0  0
    0.6278   -3.5886    2.3946 H   0  0  0  0  0  0  0  0  0  0  0  0
    1.3339   -5.1684    2.6159 H   0  0  0  0  0  0  0  0  0  0  0  0
    3.6544   -4.6430    1.6909 N   0  0  0  0  0  0  0  0  0  0  0  0
    4.5631   -4.2944    1.3931 H   0  0  0  0  0  0  0  0  0  0  0  0
    3.6300   -5.4895    2.2566 H   0  0  0  0  0  0  0  0  0  0  0  0
   -1.5874    1.0737    1.4598 C   0  0  0  0  0  0  0  0  0  0  0  0
   -2.5914    1.4015    0.8415 O   0  0  0  0  0  0  0  0  0  0  0  0
   -0.9932    1.9775    2.3221 N   0  0  0  0  0  0  0  0  0  0  0  0
   -0.1968    1.6688    2.8708 H   0  0  0  0  0  0  0  0  0  0  0  0
   -1.4986    3.3327    2.5220 C   0  0  0  0  0  0  0  0  0  0  0  0
   -2.5302    3.3085    2.8900 H   0  0  0  0  0  0  0  0  0  0  0  0
   -0.8838    3.8644    3.2550 H   0  0  0  0  0  0  0  0  0  0  0  0
   -1.4749    3.8935    1.5813 H   0  0  0  0  0  0  0  0  0  0  0  0
  1  2  1  0  0  0  0
  2  3  1  0  0  0  0
  2  4  1  0  0  0  0
  2  5  1  0  0  0  0
  5  6  2  0  0  0  0
  5  7  1  0  0  0  0
  7  8  1  0  0  0  0
  7  9  1  0  0  0  0
  9 10  1  0  0  0  0
  9 11  1  0  0  0  0
  9 29  1  0  0  0  0
 11 12  1  0  0  0  0
 11 13  1  0  0  0  0
 11 14  1  0  0  0  0
 14 15  1  0  0  0  0
 14 16  1  0  0  0  0
 14 17  1  0  0  0  0
 17 18  1  0  0  0  0
 17 19  1  0  0  0  0
 17 20  1  0  0  0  0
 20 21  1  0  0  0  0
 20 22  2  0  0  0  0
 22 23  1  0  0  0  0
 22 26  1  0  0  0  0
 23 24  1  0  0  0  0
 23 25  1  0  0  0  0
 26 27  1  0  0  0  0
 26 28  1  0  0  0  0
 29 30  2  0  0  0  0
 29 31  1  0  0  0  0
 31 32  1  0  0  0  0
 31 33  1  0  0  0  0
 33 34  1  0  0  0  0
 33 35  1  0  0  0  0
 33 36  1  0  0  0  0
M  CHG  1  20   1
M  END
$$$$

  -OEChem-03222214013D

 36 35  0     1  0  0  0  0  0999 V2000
   -3.6053   -4.0862    2.7048 H   0  0  0  0  0  0  0  0  0  0  0  0
   -3.6814   -3.1778    2.1009 C   0  0  0  0  0  0  0  0  0  0  0  0
   -4.4054   -2.5056    2.5689 H   0  0  0  0  0  0  0  0  0  0  0  0
   -4.0392   -3.4456    1.1035 H   0  0  0  0  0  0  0  0  0  0  0  0
   -2.3313   -2.4942    2.0035 C   0  0  0  0  0  0  0  0  0  0  0  0
   -1.3435   -3.0088    2.5151 O   0  0  0  0  0  0  0  0  0  0  0  0
   -2.2121   -1.3134    1.3020 N   0  0  0  0  0  0  0  0  0  0  0  0
   -3.0794   -0.9075    0.9445 H   0  0  0  0  0  0  0  0  0  0  0  0
   -1.0528   -0.4071    1.3291 C   0  0  1  0  0  0  0  0  0  0  0  0
   -0.4384   -0.5897    2.2124 H   0  0  0  0  0  0  0  0  0  0  0  0
   -0.2604   -0.5778    0.0035 C   0  0  0  0  0  0  0  0  0  0  0  0
   -0.9153   -1.0324   -0.7486 H   0  0  0  0  0  0  0  0  0  0  0  0
   -0.0190    0.4213   -0.3771 H   0  0  0  0  0  0  0  0  0  0  0  0
    1.0731   -1.3667    0.0410 C   0  0  0  0  0  0  0  0  0  0  0  0
    0.9627   -2.2105   -0.6493 H   0  0  0  0  0  0  0  0  0  0  0  0
    1.8762   -0.7339   -0.3520 H   0  0  0  0  0  0  0  0  0  0  0  0
    1.4973   -1.9145    1.4064 C   0  0  0  0  0  0  0  0  0  0  0  0
    1.9564   -1.1118    1.9937 H   0  0  0  0  0  0  0  0  0  0  0  0
    0.6166   -2.2548    1.9479 H   0  0  0  0  0  0  0  0  0  0  0  0
    2.4413   -3.0361    1.2517 N   0  3  0  0  0  0  0  0  0  0  0  0
    3.2901   -2.8594    0.7165 H   0  0  0  0  0  0  0  0  0  0  0  0
    2.2410   -4.2193    1.7616 C   0  0  0  0  0  0  0  0  0  0  0  0
    1.1154   -4.5336    2.4899 N   0  0  0  0  0  0  0  0  0  0  0  0
    0.3308   -3.8722    2.4841 H   0  0  0  0  0  0  0  0  0  0  0  0
    0.8977   -5.5121    2.6579 H   0  0  0  0  0  0  0  0  0  0  0  0
    3.1842   -5.2011    1.5730 N   0  0  0  0  0  0  0  0  0  0  0  0
    4.0963   -4.9396    1.2048 H   0  0  0  0  0  0  0  0  0  0  0  0
    3.1221   -6.0444    2.1403 H   0  0  0  0  0  0  0  0  0  0  0  0
   -1.5686    1.0428    1.4670 C   0  0  0  0  0  0  0  0  0  0  0  0
   -2.5510    1.3884    0.8236 O   0  0  0  0  0  0  0  0  0  0  0  0
   -0.9873    1.9312    2.3538 N   0  0  0  0  0  0  0  0  0  0  0  0
   -0.2170    1.6031    2.9284 H   0  0  0  0  0  0  0  0  0  0  0  0
   -1.4913    3.2852    2.5657 C   0  0  0  0  0  0  0  0  0  0  0  0
   -2.5131    3.2571    2.9591 H   0  0  0  0  0  0  0  0  0  0  0  0
   -0.8598    3.8186    3.2830 H   0  0  0  0  0  0  0  0  0  0  0  0
   -1.4933    3.8471    1.6254 H   0  0  0  0  0  0  0  0  0  0  0  0
  1  2  1  0  0  0  0
  2  3  1  0  0  0  0
  2  4  1  0  0  0  0
  2  5  1  0  0  0  0
  5  6  2  0  0  0  0
  5  7  1  0  0  0  0
  7  8  1  0  0  0  0
  7  9  1  0  0  0  0
  9 10  1  0  0  0  0
  9 11  1  0  0  0  0
  9 29  1  0  0  0  0
 11 12  1  0  0  0  0
 11 13  1  0  0  0  0
 11 14  1  0  0  0  0
 14 15  1  0  0  0  0
 14 16  1  0  0  0  0
 14 17  1  0  0  0  0
 17 18  1  0  0  0  0
 17 19  1  0  0  0  0
 17 20  1  0  0  0  0
 20 21  1  0  0  0  0
 20 22  2  0  0  0  0
 22 23  1  0  0  0  0
 22 26  1  0  0  0  0
 23 24  1  0  0  0  0
 23 25  1  0  0  0  0
 26 27  1  0  0  0  0
 26 28  1  0  0  0  0
 29 30  2  0  0  0  0
 29 31  1  0  0  0  0
 31 32  1  0  0  0  0
 31 33  1  0  0  0  0
 33 34  1  0  0  0  0
 33 35  1  0  0  0  0
 33 36  1  0  0  0  0
M  CHG  1  20   1
M  END
$$$$

  -OEChem-03222214013D

 36 35  0     1  0  0  0  0  0999 V2000
   -3.8491   -4.0787    2.5246 H   0  0  0  0  0  0  0  0  0  0  0  0
   -3.8634   -3.1293    1.9823 C   0  0  0  0  0  0  0  0  0  0  0  0
   -4.5725   -2.4568    2.4718 H   0  0  0  0  0  0  0  0  0  0  0  0
   -4.1980   -3.3133    0.9583 H   0  0  0  0  0  0  0  0  0  0  0  0
   -2.4813   -2.5052    1.9733 C   0  0  0  0  0  0  0  0  0  0  0  0
   -1.5540   -3.0743    2.5398 O   0  0  0  0  0  0  0  0  0  0  0  0
   -2.2854   -1.3093    1.3110 N   0  0  0  0  0  0  0  0  0  0  0  0
   -3.1220   -0.8593    0.9333 H   0  0  0  0  0  0  0  0  0  0  0  0
   -1.0751   -0.4688    1.3437 C   0  0  1  0  0  0  0  0  0  0  0  0
   -0.4490   -0.7179    2.2036 H   0  0  0  0  0  0  0  0  0  0  0  0
   -0.3046   -0.5858   -0.0078 C   0  0  0  0  0  0  0  0  0  0  0  0
   -0.9935   -0.9889   -0.7585 H   0  0  0  0  0  0  0  0  0  0  0  0
   -0.0352    0.4182   -0.3556 H   0  0  0  0  0  0  0  0  0  0  0  0
    0.9908   -1.4351   -0.0351 C   0  0  0  0  0  0  0  0  0  0  0  0
    0.9839   -2.0404   -0.9480 H   0  0  0  0  0  0  0  0  0  0  0  0
    1.8592   -0.7697   -0.0883 H   0  0  0  0  0  0  0  0  0  0  0  0
    1.1439   -2.3399    1.1795 C   0  0  0  0  0  0  0  0  0  0  0  0
    1.4408   -1.7451    2.0503 H   0  0  0  0  0  0  0  0  0  0  0  0
    0.1640   -2.7680    1.3687 H   0  0  0  0  0  0  0  0  0  0  0  0
    2.0883   -3.4475    0.9722 N   0  3  0  0  0  0  0  0  0  0  0  0
    2.8874   -3.2863    0.3613 H   0  0  0  0  0  0  0  0  0  0  0  0
    1.9211   -4.6063    1.5454 C   0  0  0  0  0  0  0  0  0  0  0  0
    0.8515   -4.8615    2.3791 N   0  0  0  0  0  0  0  0  0  0  0  0
    0.0973   -4.1675    2.4353 H   0  0  0  0  0  0  0  0  0  0  0  0
    0.6238   -5.8251    2.6098 H   0  0  0  0  0  0  0  0  0  0  0  0
    2.8319   -5.6111    1.3214 N   0  0  0  0  0  0  0  0  0  0  0  0
    3.7132   -5.3799    0.8677 H   0  0  0  0  0  0  0  0  0  0  0  0
    2.8074   -6.4277    1.9291 H   0  0  0  0  0  0  0  0  0  0  0  0
   -1.5201    0.9989    1.5343 C   0  0  0  0  0  0  0  0  0  0  0  0
   -2.4843    1.4158    0.9052 O   0  0  0  0  0  0  0  0  0  0  0  0
   -0.8834    1.8309    2.4372 N   0  0  0  0  0  0  0  0  0  0  0  0
   -0.1225    1.4489    2.9907 H   0  0  0  0  0  0  0  0  0  0  0  0
   -1.2965    3.2114    2.6717 C   0  0  0  0  0  0  0  0  0  0  0  0
   -2.3178    3.2452    3.0662 H   0  0  0  0  0  0  0  0  0  0  0  0
   -0.6302    3.6903    3.3960 H   0  0  0  0  0  0  0  0  0  0  0  0
   -1.2614    3.7863    1.7398 H   0  0  0  0  0  0  0  0  0  0  0  0
  1  2  1  0  0  0  0
  2  3  1  0  0  0  0
  2  4  1  0  0  0  0
  2  5  1  0  0  0  0
  5  6  2  0  0  0  0
  5  7  1  0  0  0  0
  7  8  1  0  0  0  0
  7  9  1  0  0  0  0
  9 10  1  0  0  0  0
  9 11  1  0  0  0  0
  9 29  1  0  0  0  0
 11 12  1  0  0  0  0
 11 13  1  0  0  0  0
 11 14  1  0  0  0  0
 14 15  1  0  0  0  0
 14 16  1  0  0  0  0
 14 17  1  0  0  0  0
 17 18  1  0  0  0  0
 17 19  1  0  0  0  0
 17 20  1  0  0  0  0
 20 21  1  0  0  0  0
 20 22  2  0  0  0  0
 22 23  1  0  0  0  0
 22 26  1  0  0  0  0
 23 24  1  0  0  0  0
 23 25  1  0  0  0  0
 26 27  1  0  0  0  0
 26 28  1  0  0  0  0
 29 30  2  0  0  0  0
 29 31  1  0  0  0  0
 31 32  1  0  0  0  0
 31 33  1  0  0  0  0
 33 34  1  0  0  0  0
 33 35  1  0  0  0  0
 33 36  1  0  0  0  0
M  CHG  1  20   1
M  END
$$$$

  -OEChem-03222214013D

 36 35  0     1  0  0  0  0  0999 V2000
   -4.0569   -4.0330    2.3226 H   0  0  0  0  0  0  0  0  0  0  0  0
   -4.0329   -3.0555    1.8331 C   0  0  0  0  0  0  0  0  0  0  0  0
   -4.6776   -2.3694    2.3887 H   0  0  0  0  0  0  0  0  0  0  0  0
   -4.4195   -3.1603    0.8162 H   0  0  0  0  0  0  0  0  0  0  0  0
   -2.6156   -2.5170    1.7976 C   0  0  0  0  0  0  0  0  0  0  0  0
   -1.7011   -3.1750    2.2856 O   0  0  0  0  0  0  0  0  0  0  0  0
   -2.3723   -1.2913    1.2087 N   0  0  0  0  0  0  0  0  0  0  0  0
   -3.1910   -0.7634    0.8988 H   0  0  0  0  0  0  0  0  0  0  0  0
   -1.1104   -0.5336    1.2689 C   0  0  1  0  0  0  0  0  0  0  0  0
   -0.4815   -0.8771    2.0935 H   0  0  0  0  0  0  0  0  0  0  0  0
   -0.3678   -0.5976   -0.1000 C   0  0  0  0  0  0  0  0  0  0  0  0
   -1.0870   -0.9128   -0.8642 H   0  0  0  0  0  0  0  0  0  0  0  0
   -0.0356    0.4064   -0.3878 H   0  0  0  0  0  0  0  0  0  0  0  0
    0.8635   -1.5293   -0.1767 C   0  0  0  0  0  0  0  0  0  0  0  0
    0.9885   -1.8729   -1.2091 H   0  0  0  0  0  0  0  0  0  0  0  0
    1.7608   -0.9657    0.1002 H   0  0  0  0  0  0  0  0  0  0  0  0
    0.7204   -2.7169    0.7638 C   0  0  0  0  0  0  0  0  0  0  0  0
    0.7220   -2.3612    1.7987 H   0  0  0  0  0  0  0  0  0  0  0  0
   -0.2517   -3.1751    0.5559 H   0  0  0  0  0  0  0  0  0  0  0  0
    1.7539   -3.7496    0.6181 N   0  3  0  0  0  0  0  0  0  0  0  0
    2.4996   -3.5985   -0.0594 H   0  0  0  0  0  0  0  0  0  0  0  0
    1.6777   -4.8627    1.2906 C   0  0  0  0  0  0  0  0  0  0  0  0
    0.6505   -5.0904    2.1837 N   0  0  0  0  0  0  0  0  0  0  0  0
   -0.1246   -4.4176    2.2128 H   0  0  0  0  0  0  0  0  0  0  0  0
    0.4671   -6.0401    2.4967 H   0  0  0  0  0  0  0  0  0  0  0  0
    2.6304   -5.8374    1.1136 N   0  0  0  0  0  0  0  0  0  0  0  0
    3.4785   -5.6053    0.6009 H   0  0  0  0  0  0  0  0  0  0  0  0
    2.6708   -6.6013    1.7857 H   0  0  0  0  0  0  0  0  0  0  0  0
   -1.4612    0.9409    1.5722 C   0  0  0  0  0  0  0  0  0  0  0  0
   -2.4167    1.4560    1.0056 O   0  0  0  0  0  0  0  0  0  0  0  0
   -0.7559    1.6663    2.5153 N   0  0  0  0  0  0  0  0  0  0  0  0
   -0.0093    1.1995    3.0212 H   0  0  0  0  0  0  0  0  0  0  0  0
   -1.0942    3.0397    2.8770 C   0  0  0  0  0  0  0  0  0  0  0  0
   -2.1048    3.0887    3.2970 H   0  0  0  0  0  0  0  0  0  0  0  0
   -0.3909    3.4205    3.6244 H   0  0  0  0  0  0  0  0  0  0  0  0
   -1.0479    3.6918    1.9979 H   0  0  0  0  0  0  0  0  0  0  0  0
  1  2  1  0  0  0  0
  2  3  1  0  0  0  0
  2  4  1  0  0  0  0
  2  5  1  0  0  0  0
  5  6  2  0  0  0  0
  5  7  1  0  0  0  0
  7  8  1  0  0  0  0
  7  9  1  0  0  0  0
  9 10  1  0  0  0  0
  9 11  1  0  0  0  0
  9 29  1  0  0  0  0
 11 12  1  0  0  0  0
 11 13  1  0  0  0  0
 11 14  1  0  0  0  0
 14 15  1  0  0  0  0
 14 16  1  0  0  0  0
 14 17  1  0  0  0  0
 17 18  1  0  0  0  0
 17 19  1  0  0  0  0
 17 20  1  0  0  0  0
 20 21  1  0  0  0  0
 20 22  2  0  0  0  0
 22 23  1  0  0  0  0
 22 26  1  0  0  0  0
 23 24  1  0  0  0  0
 23 25  1  0  0  0  0
 26 27  1  0  0  0  0
 26 28  1  0  0  0  0
 29 30  2  0  0  0  0
 29 31  1  0  0  0  0
 31 32  1  0  0  0  0
 31 33  1  0  0  0  0
 33 34  1  0  0  0  0
 33 35  1  0  0  0  0
 33 36  1  0  0  0  0
M  CHG  1  20   1
M  END
$$$$

  -OEChem-03222214013D

 36 35  0     1  0  0  0  0  0999 V2000
   -4.2211   -4.0342    2.1018 H   0  0  0  0  0  0  0  0  0  0  0  0
   -4.1513   -3.0414    1.6489 C   0  0  0  0  0  0  0  0  0  0  0  0
   -4.7740   -2.3502    2.2228 H   0  0  0  0  0  0  0  0  0  0  0  0
   -4.5306   -3.0933    0.6253 H   0  0  0  0  0  0  0  0  0  0  0  0
   -2.7128   -2.5603    1.6464 C   0  0  0  0  0  0  0  0  0  0  0  0
   -1.8284   -3.2852    2.0909 O   0  0  0  0  0  0  0  0  0  0  0  0
   -2.4226   -1.3097    1.1358 N   0  0  0  0  0  0  0  0  0  0  0  0
   -3.2246   -0.7378    0.8625 H   0  0  0  0  0  0  0  0  0  0  0  0
   -1.1350   -0.5944    1.2066 C   0  0  1  0  0  0  0  0  0  0  0  0
   -0.4933   -1.0209    1.9826 H   0  0  0  0  0  0  0  0  0  0  0  0
   -0.4260   -0.6071   -0.1788 C   0  0  0  0  0  0  0  0  0  0  0  0
   -1.1635   -0.8577   -0.9493 H   0  0  0  0  0  0  0  0  0  0  0  0
   -0.0597    0.3983   -0.4165 H   0  0  0  0  0  0  0  0  0  0  0  0
    0.7676   -1.5753   -0.2982 C   0  0  0  0  0  0  0  0  0  0  0  0
    1.0421   -1.6846   -1.3530 H   0  0  0  0  0  0  0  0  0  0  0  0
    1.6288   -1.1557    0.2324 H   0  0  0  0  0  0  0  0  0  0  0  0
    0.4189   -2.9291    0.3003 C   0  0  0  0  0  0  0  0  0  0  0  0
    0.1874   -2.7738    1.3562 H   0  0  0  0  0  0  0  0  0  0  0  0
   -0.4779   -3.3144   -0.1981 H   0  0  0  0  0  0  0  0  0  0  0  0
    1.4956   -3.9249    0.2190 N   0  3  0  0  0  0  0  0  0  0  0  0
    2.2909   -3.7288   -0.3866 H   0  0  0  0  0  0  0  0  0  0  0  0
    1.4456   -5.0234    0.9178 C   0  0  0  0  0  0  0  0  0  0  0  0
    0.3751   -5.3049    1.7414 N   0  0  0  0  0  0  0  0  0  0  0  0
   -0.3410   -4.5816    1.8759 H   0  0  0  0  0  0  0  0  0  0  0  0
    0.4736   -6.0177    2.4595 H   0  0  0  0  0  0  0  0  0  0  0  0
    2.4775   -5.9282    0.8449 N   0  0  0  0  0  0  0  0  0  0  0  0
    3.1690   -5.8211    0.1057 H   0  0  0  0  0  0  0  0  0  0  0  0
    2.3273   -6.8602    1.2267 H   0  0  0  0  0  0  0  0  0  0  0  0
   -1.4187    0.8696    1.6096 C   0  0  0  0  0  0  0  0  0  0  0  0
   -2.3704    1.4530    1.1065 O   0  0  0  0  0  0  0  0  0  0  0  0
   -0.6579    1.5061    2.5734 N   0  0  0  0  0  0  0  0  0  0  0  0
    0.0889    0.9824    3.0199 H   0  0  0  0  0  0  0  0  0  0  0  0
   -0.9348    2.8628    3.0355 C   0  0  0  0  0  0  0  0  0  0  0  0
   -1.9295    2.9176    3.4907 H   0  0  0  0  0  0  0  0  0  0  0  0
   -0.1960    3.1682    3.7830 H   0  0  0  0  0  0  0  0  0  0  0  0
   -0.8914    3.5698    2.2000 H   0  0  0  0  0  0  0  0  0  0  0  0
  1  2  1  0  0  0  0
  2  3  1  0  0  0  0
  2  4  1  0  0  0  0
  2  5  1  0  0  0  0
  5  6  2  0  0  0  0
  5  7  1  0  0  0  0
  7  8  1  0  0  0  0
  7  9  1  0  0  0  0
  9 10  1  0  0  0  0
  9 11  1  0  0  0  0
  9 29  1  0  0  0  0
 11 12  1  0  0  0  0
 11 13  1  0  0  0  0
 11 14  1  0  0  0  0
 14 15  1  0  0  0  0
 14 16  1  0  0  0  0
 14 17  1  0  0  0  0
 17 18  1  0  0  0  0
 17 19  1  0  0  0  0
 17 20  1  0  0  0  0
 20 21  1  0  0  0  0
 20 22  2  0  0  0  0
 22 23  1  0  0  0  0
 22 26  1  0  0  0  0
 23 24  1  0  0  0  0
 23 25  1  0  0  0  0
 26 27  1  0  0  0  0
 26 28  1  0  0  0  0
 29 30  2  0  0  0  0
 29 31  1  0  0  0  0
 31 32  1  0  0  0  0
 31 33  1  0  0  0  0
 33 34  1  0  0  0  0
 33 35  1  0  0  0  0
 33 36  1  0  0  0  0
M  CHG  1  20   1
M  END
$$$$

  -OEChem-03222214013D

 36 35  0     1  0  0  0  0  0999 V2000
   -4.3795   -4.0802    1.7962 H   0  0  0  0  0  0  0  0  0  0  0  0
   -4.2776   -3.0561    1.4265 C   0  0  0  0  0  0  0  0  0  0  0  0
   -4.8928   -2.3974    2.0449 H   0  0  0  0  0  0  0  0  0  0  0  0
   -4.6396   -3.0152    0.3961 H   0  0  0  0  0  0  0  0  0  0  0  0
   -2.8282   -2.6142    1.4855 C   0  0  0  0  0  0  0  0  0  0  0  0
   -1.9731   -3.3769    1.9217 O   0  0  0  0  0  0  0  0  0  0  0  0
   -2.4890   -1.3432    1.0680 N   0  0  0  0  0  0  0  0  0  0  0  0
   -3.2633   -0.7210    0.8275 H   0  0  0  0  0  0  0  0  0  0  0  0
   -1.1598   -0.7110    1.1386 C   0  0  1  0  0  0  0  0  0  0  0  0
   -0.5029   -1.2519    1.8268 H   0  0  0  0  0  0  0  0  0  0  0  0
   -0.5104   -0.6047   -0.2710 C   0  0  0  0  0  0  0  0  0  0  0  0
   -1.2877   -0.7121   -1.0358 H   0  0  0  0  0  0  0  0  0  0  0  0
   -0.0832    0.3965   -0.4010 H   0  0  0  0  0  0  0  0  0  0  0  0
    0.6171   -1.6143   -0.5455 C   0  0  0  0  0  0  0  0  0  0  0  0
    1.0285   -1.4403   -1.5454 H   0  0  0  0  0  0  0  0  0  0  0  0
    1.4205   -1.4453    0.1796 H   0  0  0  0  0  0  0  0  0  0  0  0
    0.1247   -3.0523   -0.4397 C   0  0  0  0  0  0  0  0  0  0  0  0
   -0.5032   -3.1308    0.4397 H   0  0  0  0  0  0  0  0  0  0  0  0
   -0.4896   -3.2931   -1.3145 H   0  0  0  0  0  0  0  0  0  0  0  0
    1.2466   -4.0003   -0.3258 N   0  3  0  0  0  0  0  0  0  0  0  0
    2.0091   -3.9024   -0.9943 H   0  0  0  0  0  0  0  0  0  0  0  0
    1.2856   -4.9582    0.5579 C   0  0  0  0  0  0  0  0  0  0  0  0
    0.2832   -5.1578    1.4820 N   0  0  0  0  0  0  0  0  0  0  0  0
   -0.4658   -4.4608    1.5600 H   0  0  0  0  0  0  0  0  0  0  0  0
    0.4587   -5.7546    2.2862 H   0  0  0  0  0  0  0  0  0  0  0  0
    2.3650   -5.8093    0.5793 N   0  0  0  0  0  0  0  0  0  0  0  0
    3.0064   -5.8036   -0.2111 H   0  0  0  0  0  0  0  0  0  0  0  0
    2.2903   -6.6657    1.1252 H   0  0  0  0  0  0  0  0  0  0  0  0
   -1.3481    0.7247    1.6795 C   0  0  0  0  0  0  0  0  0  0  0  0
   -2.2718    1.4071    1.2546 O   0  0  0  0  0  0  0  0  0  0  0  0
   -0.5159    1.2345    2.6596 N   0  0  0  0  0  0  0  0  0  0  0  0
    0.2012    0.6271    3.0442 H   0  0  0  0  0  0  0  0  0  0  0  0
   -0.6870    2.5661    3.2329 C   0  0  0  0  0  0  0  0  0  0  0  0
   -1.6554    2.6449    3.7388 H   0  0  0  0  0  0  0  0  0  0  0  0
    0.1021    2.7701    3.9634 H   0  0  0  0  0  0  0  0  0  0  0  0
   -0.6367    3.3308    2.4502 H   0  0  0  0  0  0  0  0  0  0  0  0
  1  2  1  0  0  0  0
  2  3  1  0  0  0  0
  2  4  1  0  0  0  0
  2  5  1  0  0  0  0
  5  6  2  0  0  0  0
  5  7  1  0  0  0  0
  7  8  1  0  0  0  0
  7  9  1  0  0  0  0
  9 10  1  0  0  0  0
  9 11  1  0  0  0  0
  9 29  1  0  0  0  0
 11 12  1  0  0  0  0
 11 13  1  0  0  0  0
 11 14  1  0  0  0  0
 14 15  1  0  0  0  0
 14 16  1  0  0  0  0
 14 17  1  0  0  0  0
 17 18  1  0  0  0  0
 17 19  1  0  0  0  0
 17 20  1  0  0  0  0
 20 21  1  0  0  0  0
 20 22  2  0  0  0  0
 22 23  1  0  0  0  0
 22 26  1  0  0  0  0
 23 24  1  0  0  0  0
 23 25  1  0  0  0  0
 26 27  1  0  0  0  0
 26 28  1  0  0  0  0
 29 30  2  0  0  0  0
 29 31  1  0  0  0  0
 31 32  1  0  0  0  0
 31 33  1  0  0  0  0
 33 34  1  0  0  0  0
 33 35  1  0  0  0  0
 33 36  1  0  0  0  0
M  CHG  1  20   1
M  END
$$$$

  -OEChem-03222214013D

 36 35  0     1  0  0  0  0  0999 V2000
   -4.3164   -4.1277    1.6612 H   0  0  0  0  0  0  0  0  0  0  0  0
   -4.2444   -3.0895    1.3257 C   0  0  0  0  0  0  0  0  0  0  0  0
   -4.8402   -2.4631    1.9948 H   0  0  0  0  0  0  0  0  0  0  0  0
   -4.6527   -3.0165    0.3146 H   0  0  0  0  0  0  0  0  0  0  0  0
   -2.7991   -2.6303    1.3376 C   0  0  0  0  0  0  0  0  0  0  0  0
   -1.9101   -3.4047    1.6731 O   0  0  0  0  0  0  0  0  0  0  0  0
   -2.4869   -1.3402    0.9646 N   0  0  0  0  0  0  0  0  0  0  0  0
   -3.2719   -0.7086    0.7923 H   0  0  0  0  0  0  0  0  0  0  0  0
   -1.1633   -0.7061    1.0765 C   0  0  1  0  0  0  0  0  0  0  0  0
   -0.5202   -1.2672    1.7616 H   0  0  0  0  0  0  0  0  0  0  0  0
   -0.4935   -0.5744   -0.3165 C   0  0  0  0  0  0  0  0  0  0  0  0
   -1.2484   -0.6534   -1.1067 H   0  0  0  0  0  0  0  0  0  0  0  0
   -0.0519    0.4248   -0.4071 H   0  0  0  0  0  0  0  0  0  0  0  0
    0.6348   -1.5879   -0.5627 C   0  0  0  0  0  0  0  0  0  0  0  0
    1.2261   -1.2637   -1.4259 H   0  0  0  0  0  0  0  0  0  0  0  0
    1.3015   -1.6098    0.3061 H   0  0  0  0  0  0  0  0  0  0  0  0
    0.0773   -2.9823   -0.8398 C   0  0  0  0  0  0  0  0  0  0  0  0
   -0.6955   -3.2171   -0.1109 H   0  0  0  0  0  0  0  0  0  0  0  0
   -0.3954   -2.9899   -1.8282 H   0  0  0  0  0  0  0  0  0  0  0  0
    1.1557   -3.9871   -0.7899 N   0  3  0  0  0  0  0  0  0  0  0  0
    1.9285   -3.8655   -1.4427 H   0  0  0  0  0  0  0  0  0  0  0  0
    1.1508   -5.0223    0.0024 C   0  0  0  0  0  0  0  0  0  0  0  0
    0.1447   -5.2613    0.9100 N   0  0  0  0  0  0  0  0  0  0  0  0
   -0.5406   -4.5189    1.0867 H   0  0  0  0  0  0  0  0  0  0  0  0
    0.3023   -5.9368    1.6529 H   0  0  0  0  0  0  0  0  0  0  0  0
    2.1889   -5.9212   -0.0618 N   0  0  0  0  0  0  0  0  0  0  0  0
    2.8299   -5.8702   -0.8508 H   0  0  0  0  0  0  0  0  0  0  0  0
    2.0727   -6.8219    0.3988 H   0  0  0  0  0  0  0  0  0  0  0  0
   -1.3559    0.7095    1.6657 C   0  0  0  0  0  0  0  0  0  0  0  0
   -2.2789    1.4043    1.2600 O   0  0  0  0  0  0  0  0  0  0  0  0
   -0.5349    1.1839    2.6727 N   0  0  0  0  0  0  0  0  0  0  0  0
    0.1880    0.5689    3.0341 H   0  0  0  0  0  0  0  0  0  0  0  0
   -0.6988    2.5034    3.2754 C   0  0  0  0  0  0  0  0  0  0  0  0
   -1.6682    2.5778    3.7798 H   0  0  0  0  0  0  0  0  0  0  0  0
    0.0895    2.6864    4.0123 H   0  0  0  0  0  0  0  0  0  0  0  0
   -0.6410    3.2845    2.5095 H   0  0  0  0  0  0  0  0  0  0  0  0
  1  2  1  0  0  0  0
  2  3  1  0  0  0  0
  2  4  1  0  0  0  0
  2  5  1  0  0  0  0
  5  6  2  0  0  0  0
  5  7  1  0  0  0  0
  7  8  1  0  0  0  0
  7  9  1  0  0  0  0
  9 10  1  0  0  0  0
  9 11  1  0  0  0  0
  9 29  1  0  0  0  0
 11 12  1  0  0  0  0
 11 13  1  0  0  0  0
 11 14  1  0  0  0  0
 14 15  1  0  0  0  0
 14 16  1  0  0  0  0
 14 17  1  0  0  0  0
 17 18  1  0  0  0  0
 17 19  1  0  0  0  0
 17 20  1  0  0  0  0
 20 21  1  0  0  0  0
 20 22  2  0  0  0  0
 22 23  1  0  0  0  0
 22 26  1  0  0  0  0
 23 24  1  0  0  0  0
 23 25  1  0  0  0  0
 26 27  1  0  0  0  0
 26 28  1  0  0  0  0
 29 30  2  0  0  0  0
 29 31  1  0  0  0  0
 31 32  1  0  0  0  0
 31 33  1  0  0  0  0
 33 34  1  0  0  0  0
 33 35  1  0  0  0  0
 33 36  1  0  0  0  0
M  CHG  1  20   1
M  END
$$$$

  -OEChem-03222214013D

 36 35  0     1  0  0  0  0  0999 V2000
   -4.2378   -4.1582    1.4649 H   0  0  0  0  0  0  0  0  0  0  0  0
   -4.1954   -3.0992    1.1952 C   0  0  0  0  0  0  0  0  0  0  0  0
   -4.7547   -2.5256    1.9390 H   0  0  0  0  0  0  0  0  0  0  0  0
   -4.6651   -2.9650    0.2176 H   0  0  0  0  0  0  0  0  0  0  0  0
   -2.7559   -2.6237    1.1501 C   0  0  0  0  0  0  0  0  0  0  0  0
   -1.8379   -3.4111    1.3515 O   0  0  0  0  0  0  0  0  0  0  0  0
   -2.4722   -1.3133    0.8320 N   0  0  0  0  0  0  0  0  0  0  0  0
   -3.2679   -0.6781    0.7415 H   0  0  0  0  0  0  0  0  0  0  0  0
   -1.1573   -0.6756    0.9938 C   0  0  1  0  0  0  0  0  0  0  0  0
   -0.5315   -1.2562    1.6786 H   0  0  0  0  0  0  0  0  0  0  0  0
   -0.4780   -0.5416   -0.3895 C   0  0  0  0  0  0  0  0  0  0  0  0
   -1.2179   -0.6039   -1.1955 H   0  0  0  0  0  0  0  0  0  0  0  0
   -0.0269    0.4548   -0.4599 H   0  0  0  0  0  0  0  0  0  0  0  0
    0.6488   -1.5662   -0.6003 C   0  0  0  0  0  0  0  0  0  0  0  0
    1.3930   -1.1399   -1.2819 H   0  0  0  0  0  0  0  0  0  0  0  0
    1.1576   -1.7823    0.3448 H   0  0  0  0  0  0  0  0  0  0  0  0
    0.0937   -2.8470   -1.2244 C   0  0  0  0  0  0  0  0  0  0  0  0
   -0.7680   -3.1952   -0.6503 H   0  0  0  0  0  0  0  0  0  0  0  0
   -0.2595   -2.6304   -2.2387 H   0  0  0  0  0  0  0  0  0  0  0  0
    1.1399   -3.8858   -1.2693 N   0  3  0  0  0  0  0  0  0  0  0  0
    1.9011   -3.7426   -1.9309 H   0  0  0  0  0  0  0  0  0  0  0  0
    1.1289   -4.9661   -0.5404 C   0  0  0  0  0  0  0  0  0  0  0  0
    0.1423   -5.2329    0.3800 N   0  0  0  0  0  0  0  0  0  0  0  0
   -0.5139   -4.4822    0.6211 H   0  0  0  0  0  0  0  0  0  0  0  0
    0.3051   -5.9512    1.0806 H   0  0  0  0  0  0  0  0  0  0  0  0
    2.1411   -5.8843   -0.6865 N   0  0  0  0  0  0  0  0  0  0  0  0
    2.7645   -5.7996   -1.4866 H   0  0  0  0  0  0  0  0  0  0  0  0
    2.0132   -6.8083   -0.2782 H   0  0  0  0  0  0  0  0  0  0  0  0
   -1.3529    0.7149    1.6374 C   0  0  0  0  0  0  0  0  0  0  0  0
   -2.2814    1.4190    1.2623 O   0  0  0  0  0  0  0  0  0  0  0  0
   -0.5442    1.1459    2.6734 N   0  0  0  0  0  0  0  0  0  0  0  0
    0.1805    0.5191    3.0101 H   0  0  0  0  0  0  0  0  0  0  0  0
   -0.7336    2.4260    3.3498 C   0  0  0  0  0  0  0  0  0  0  0  0
   -1.7127    2.4610    3.8394 H   0  0  0  0  0  0  0  0  0  0  0  0
    0.0383    2.5720    4.1119 H   0  0  0  0  0  0  0  0  0  0  0  0
   -0.6700    3.2523    2.6333 H   0  0  0  0  0  0  0  0  0  0  0  0
  1  2  1  0  0  0  0
  2  3  1  0  0  0  0
  2  4  1  0  0  0  0
  2  5  1  0  0  0  0
  5  6  2  0  0  0  0
  5  7  1  0  0  0  0
  7  8  1  0  0  0  0
  7  9  1  0  0  0  0
  9 10  1  0  0  0  0
  9 11  1  0  0  0  0
  9 29  1  0  0  0  0
 11 12  1  0  0  0  0
 11 13  1  0  0  0  0
 11 14  1  0  0  0  0
 14 15  1  0  0  0  0
 14 16  1  0  0  0  0
 14 17  1  0  0  0  0
 17 18  1  0  0  0  0
 17 19  1  0  0  0  0
 17 20  1  0  0  0  0
 20 21  1  0  0  0  0
 20 22  2  0  0  0  0
 22 23  1  0  0  0  0
 22 26  1  0  0  0  0
 23 24  1  0  0  0  0
 23 25  1  0  0  0  0
 26 27  1  0  0  0  0
 26 28  1  0  0  0  0
 29 30  2  0  0  0  0
 29 31  1  0  0  0  0
 31 32  1  0  0  0  0
 31 33  1  0  0  0  0
 33 34  1  0  0  0  0
 33 35  1  0  0  0  0
 33 36  1  0  0  0  0
M  CHG  1  20   1
M  END
$$$$

  -OEChem-03222214013D

 36 35  0     1  0  0  0  0  0999 V2000
   -4.1245   -4.2050    1.2646 H   0  0  0  0  0  0  0  0  0  0  0  0
   -4.1176   -3.1285    1.0726 C   0  0  0  0  0  0  0  0  0  0  0  0
   -4.6446   -2.6239    1.8865 H   0  0  0  0  0  0  0  0  0  0  0  0
   -4.6440   -2.9340    0.1347 H   0  0  0  0  0  0  0  0  0  0  0  0
   -2.6927   -2.6179    0.9845 C   0  0  0  0  0  0  0  0  0  0  0  0
   -1.7475   -3.3960    1.0627 O   0  0  0  0  0  0  0  0  0  0  0  0
   -2.4497   -1.2881    0.7199 N   0  0  0  0  0  0  0  0  0  0  0  0
   -3.2613   -0.6672    0.6985 H   0  0  0  0  0  0  0  0  0  0  0  0
   -1.1496   -0.6345    0.9238 C   0  0  1  0  0  0  0  0  0  0  0  0
   -0.5344   -1.2280    1.6066 H   0  0  0  0  0  0  0  0  0  0  0  0
   -0.4656   -0.4888   -0.4525 C   0  0  0  0  0  0  0  0  0  0  0  0
   -1.1999   -0.5523   -1.2640 H   0  0  0  0  0  0  0  0  0  0  0  0
   -0.0248    0.5125   -0.5151 H   0  0  0  0  0  0  0  0  0  0  0  0
    0.6726   -1.5081   -0.6460 C   0  0  0  0  0  0  0  0  0  0  0  0
    1.5340   -0.9999   -1.0932 H   0  0  0  0  0  0  0  0  0  0  0  0
    1.0040   -1.9300    0.3077 H   0  0  0  0  0  0  0  0  0  0  0  0
    0.2126   -2.6180   -1.5909 C   0  0  0  0  0  0  0  0  0  0  0  0
   -0.7299   -3.0415   -1.2270 H   0  0  0  0  0  0  0  0  0  0  0  0
    0.0181   -2.1936   -2.5823 H   0  0  0  0  0  0  0  0  0  0  0  0
    1.2429   -3.6688   -1.6870 N   0  3  0  0  0  0  0  0  0  0  0  0
    2.0251   -3.4898   -2.3149 H   0  0  0  0  0  0  0  0  0  0  0  0
    1.1903   -4.8019   -1.0454 C   0  0  0  0  0  0  0  0  0  0  0  0
    0.1778   -5.1124   -0.1675 N   0  0  0  0  0  0  0  0  0  0  0  0
   -0.4534   -4.3613    0.1321 H   0  0  0  0  0  0  0  0  0  0  0  0
    0.3067   -5.8908    0.4732 H   0  0  0  0  0  0  0  0  0  0  0  0
    2.1821   -5.7322   -1.2445 N   0  0  0  0  0  0  0  0  0  0  0  0
    2.8174   -5.6045   -2.0295 H   0  0  0  0  0  0  0  0  0  0  0  0
    2.0210   -6.6817   -0.9138 H   0  0  0  0  0  0  0  0  0  0  0  0
   -1.3564    0.7277    1.6202 C   0  0  0  0  0  0  0  0  0  0  0  0
   -2.2972    1.4320    1.2783 O   0  0  0  0  0  0  0  0  0  0  0  0
   -0.5559    1.1217    2.6773 N   0  0  0  0  0  0  0  0  0  0  0  0
    0.1862    0.4967    2.9778 H   0  0  0  0  0  0  0  0  0  0  0  0
   -0.7565    2.3717    3.4046 C   0  0  0  0  0  0  0  0  0  0  0  0
   -1.7392    2.3816    3.8884 H   0  0  0  0  0  0  0  0  0  0  0  0
    0.0096    2.4896    4.1774 H   0  0  0  0  0  0  0  0  0  0  0  0
   -0.6921    3.2273    2.7236 H   0  0  0  0  0  0  0  0  0  0  0  0
  1  2  1  0  0  0  0
  2  3  1  0  0  0  0
  2  4  1  0  0  0  0
  2  5  1  0  0  0  0
  5  6  2  0  0  0  0
  5  7  1  0  0  0  0
  7  8  1  0  0  0  0
  7  9  1  0  0  0  0
  9 10  1  0  0  0  0
  9 11  1  0  0  0  0
  9 29  1  0  0  0  0
 11 12  1  0  0  0  0
 11 13  1  0  0  0  0
 11 14  1  0  0  0  0
 14 15  1  0  0  0  0
 14 16  1  0  0  0  0
 14 17  1  0  0  0  0
 17 18  1  0  0  0  0
 17 19  1  0  0  0  0
 17 20  1  0  0  0  0
 20 21  1  0  0  0  0
 20 22  2  0  0  0  0
 22 23  1  0  0  0  0
 22 26  1  0  0  0  0
 23 24  1  0  0  0  0
 23 25  1  0  0  0  0
 26 27  1  0  0  0  0
 26 28  1  0  0  0  0
 29 30  2  0  0  0  0
 29 31  1  0  0  0  0
 31 32  1  0  0  0  0
 31 33  1  0  0  0  0
 33 34  1  0  0  0  0
 33 35  1  0  0  0  0
 33 36  1  0  0  0  0
M  CHG  1  20   1
M  END
$$$$

  -OEChem-03222214013D

 36 35  0     1  0  0  0  0  0999 V2000
   -3.9893   -4.2544    1.1041 H   0  0  0  0  0  0  0  0  0  0  0  0
   -4.0172   -3.1689    0.9763 C   0  0  0  0  0  0  0  0  0  0  0  0
   -4.5163   -2.7264    1.8423 H   0  0  0  0  0  0  0  0  0  0  0  0
   -4.5927   -2.9340    0.0773 H   0  0  0  0  0  0  0  0  0  0  0  0
   -2.6106   -2.6166    0.8524 C   0  0  0  0  0  0  0  0  0  0  0  0
   -1.6423   -3.3705    0.8536 O   0  0  0  0  0  0  0  0  0  0  0  0
   -2.4111   -1.2736    0.6202 N   0  0  0  0  0  0  0  0  0  0  0  0
   -3.2402   -0.6765    0.6458 H   0  0  0  0  0  0  0  0  0  0  0  0
   -1.1301   -0.5919    0.8512 C   0  0  1  0  0  0  0  0  0  0  0  0
   -0.5112   -1.1822    1.5334 H   0  0  0  0  0  0  0  0  0  0  0  0
   -0.4351   -0.4194   -0.5157 C   0  0  0  0  0  0  0  0  0  0  0  0
   -1.1651   -0.5078   -1.3289 H   0  0  0  0  0  0  0  0  0  0  0  0
   -0.0245    0.5945   -0.5814 H   0  0  0  0  0  0  0  0  0  0  0  0
    0.7276   -1.4159   -0.6962 C   0  0  0  0  0  0  0  0  0  0  0  0
    1.6609   -0.8629   -0.8472 H   0  0  0  0  0  0  0  0  0  0  0  0
    0.8610   -2.0429    0.1904 H   0  0  0  0  0  0  0  0  0  0  0  0
    0.4602   -2.3041   -1.9102 C   0  0  0  0  0  0  0  0  0  0  0  0
   -0.5430   -2.7386   -1.8339 H   0  0  0  0  0  0  0  0  0  0  0  0
    0.4836   -1.6935   -2.8198 H   0  0  0  0  0  0  0  0  0  0  0  0
    1.4692   -3.3759   -1.9949 N   0  3  0  0  0  0  0  0  0  0  0  0
    2.3074   -3.1766   -2.5390 H   0  0  0  0  0  0  0  0  0  0  0  0
    1.3258   -4.5542   -1.4561 C   0  0  0  0  0  0  0  0  0  0  0  0
    0.2314   -4.8956   -0.6940 N   0  0  0  0  0  0  0  0  0  0  0  0
   -0.3746   -4.1426   -0.3505 H   0  0  0  0  0  0  0  0  0  0  0  0
    0.2802   -5.7360   -0.1239 H   0  0  0  0  0  0  0  0  0  0  0  0
    2.3025   -5.5018   -1.6488 N   0  0  0  0  0  0  0  0  0  0  0  0
    3.0117   -5.3338   -2.3594 H   0  0  0  0  0  0  0  0  0  0  0  0
    2.0888   -6.4679   -1.4085 H   0  0  0  0  0  0  0  0  0  0  0  0
   -1.3701    0.7479    1.5785 C   0  0  0  0  0  0  0  0  0  0  0  0
   -2.3267    1.4377    1.2518 O   0  0  0  0  0  0  0  0  0  0  0  0
   -0.5838    1.1321    2.6496 N   0  0  0  0  0  0  0  0  0  0  0  0
    0.1704    0.5159    2.9378 H   0  0  0  0  0  0  0  0  0  0  0  0
   -0.8191    2.3553    3.4106 C   0  0  0  0  0  0  0  0  0  0  0  0
   -1.8104    2.3341    3.8758 H   0  0  0  0  0  0  0  0  0  0  0  0
   -0.0695    2.4616    4.2008 H   0  0  0  0  0  0  0  0  0  0  0  0
   -0.7570    3.2317    2.7566 H   0  0  0  0  0  0  0  0  0  0  0  0
  1  2  1  0  0  0  0
  2  3  1  0  0  0  0
  2  4  1  0  0  0  0
  2  5  1  0  0  0  0
  5  6  2  0  0  0  0
  5  7  1  0  0  0  0
  7  8  1  0  0  0  0
  7  9  1  0  0  0  0
  9 10  1  0  0  0  0
  9 11  1  0  0  0  0
  9 29  1  0  0  0  0
 11 12  1  0  0  0  0
 11 13  1  0  0  0  0
 11 14  1  0  0  0  0
 14 15  1  0  0  0  0
 14 16  1  0  0  0  0
 14 17  1  0  0  0  0
 17 18  1  0  0  0  0
 17 19  1  0  0  0  0
 17 20  1  0  0  0  0
 20 21  1  0  0  0  0
 20 22  2  0  0  0  0
 22 23  1  0  0  0  0
 22 26  1  0  0  0  0
 23 24  1  0  0  0  0
 23 25  1  0  0  0  0
 26 27  1  0  0  0  0
 26 28  1  0  0  0  0
 29 30  2  0  0  0  0
 29 31  1  0  0  0  0
 31 32  1  0  0  0  0
 31 33  1  0  0  0  0
 33 34  1  0  0  0  0
 33 35  1  0  0  0  0
 33 36  1  0  0  0  0
M  CHG  1  20   1
M  END
$$$$

  -OEChem-03222214013D

 36 35  0     1  0  0  0  0  0999 V2000
   -4.0046   -4.0751    2.1215 H   0  0  0  0  0  0  0  0  0  0  0  0
   -4.0444   -3.0643    1.7056 C   0  0  0  0  0  0  0  0  0  0  0  0
   -4.5951   -2.4221    2.3976 H   0  0  0  0  0  0  0  0  0  0  0  0
   -4.5742   -3.0957    0.7506 H   0  0  0  0  0  0  0  0  0  0  0  0
   -2.6410   -2.5260    1.5047 C   0  0  0  0  0  0  0  0  0  0  0  0
   -1.6693   -3.2371    1.7197 O   0  0  0  0  0  0  0  0  0  0  0  0
   -2.4513   -1.2477    1.0230 N   0  0  0  0  0  0  0  0  0  0  0  0
   -3.2836   -0.6653    0.9192 H   0  0  0  0  0  0  0  0  0  0  0  0
   -1.1673   -0.5365    1.0978 C   0  0  1  0  0  0  0  0  0  0  0  0
   -0.5179   -0.9969    1.8497 H   0  0  0  0  0  0  0  0  0  0  0  0
   -0.5042   -0.5762   -0.2960 C   0  0  0  0  0  0  0  0  0  0  0  0
   -1.2608   -0.8176   -1.0512 H   0  0  0  0  0  0  0  0  0  0  0  0
   -0.1146    0.4153   -0.5527 H   0  0  0  0  0  0  0  0  0  0  0  0
    0.6604   -1.5835   -0.3476 C   0  0  0  0  0  0  0  0  0  0  0  0
    1.6154   -1.0496   -0.2949 H   0  0  0  0  0  0  0  0  0  0  0  0
    0.6097   -2.2676    0.5069 H   0  0  0  0  0  0  0  0  0  0  0  0
    0.5768   -2.4176   -1.6242 C   0  0  0  0  0  0  0  0  0  0  0  0
   -0.4114   -2.8889   -1.6727 H   0  0  0  0  0  0  0  0  0  0  0  0
    0.6937   -1.7606   -2.4932 H   0  0  0  0  0  0  0  0  0  0  0  0
    1.6267   -3.4525   -1.6178 N   0  3  0  0  0  0  0  0  0  0  0  0
    2.2378   -3.4874   -0.8030 H   0  0  0  0  0  0  0  0  0  0  0  0
    1.7646   -4.3439   -2.5560 C   0  0  0  0  0  0  0  0  0  0  0  0
    0.9314   -4.3781   -3.6508 N   0  0  0  0  0  0  0  0  0  0  0  0
    0.0959   -3.7973   -3.6257 H   0  0  0  0  0  0  0  0  0  0  0  0
    0.9094   -5.2222   -4.2193 H   0  0  0  0  0  0  0  0  0  0  0  0
    2.7638   -5.2828   -2.4593 N   0  0  0  0  0  0  0  0  0  0  0  0
    3.4815   -5.1645   -1.7468 H   0  0  0  0  0  0  0  0  0  0  0  0
    2.9936   -5.8356   -3.2832 H   0  0  0  0  0  0  0  0  0  0  0  0
   -1.4064    0.9122    1.5723 C   0  0  0  0  0  0  0  0  0  0  0  0
   -2.3512    1.5413    1.1134 O   0  0  0  0  0  0  0  0  0  0  0  0
   -0.6051    1.4898    2.5405 N   0  0  0  0  0  0  0  0  0  0  0  0
    0.1157    0.9150    2.9674 H   0  0  0  0  0  0  0  0  0  0  0  0
   -0.8522    2.8213    3.0857 C   0  0  0  0  0  0  0  0  0  0  0  0
   -1.8342    2.8619    3.5695 H   0  0  0  0  0  0  0  0  0  0  0  0
   -0.0904    3.0750    3.8296 H   0  0  0  0  0  0  0  0  0  0  0  0
   -0.8211    3.5747    2.2911 H   0  0  0  0  0  0  0  0  0  0  0  0
  1  2  1  0  0  0  0
  2  3  1  0  0  0  0
  2  4  1  0  0  0  0
  2  5  1  0  0  0  0
  5  6  2  0  0  0  0
  5  7  1  0  0  0  0
  7  8  1  0  0  0  0
  7  9  1  0  0  0  0
  9 10  1  0  0  0  0
  9 11  1  0  0  0  0
  9 29  1  0  0  0  0
 11 12  1  0  0  0  0
 11 13  1  0  0  0  0
 11 14  1  0  0  0  0
 14 15  1  0  0  0  0
 14 16  1  0  0  0  0
 14 17  1  0  0  0  0
 17 18  1  0  0  0  0
 17 19  1  0  0  0  0
 17 20  1  0  0  0  0
 20 21  1  0  0  0  0
 20 22  2  0  0  0  0
 22 23  1  0  0  0  0
 22 26  1  0  0  0  0
 23 24  1  0  0  0  0
 23 25  1  0  0  0  0
 26 27  1  0  0  0  0
 26 28  1  0  0  0  0
 29 30  2  0  0  0  0
 29 31  1  0  0  0  0
 31 32  1  0  0  0  0
 31 33  1  0  0  0  0
 33 34  1  0  0  0  0
 33 35  1  0  0  0  0
 33 36  1  0  0  0  0
M  CHG  1  20   1
M  END
$$$$

  -OEChem-03222214013D

 36 35  0     1  0  0  0  0  0999 V2000
   -3.9892   -4.1165    2.0945 H   0  0  0  0  0  0  0  0  0  0  0  0
   -4.0344   -3.0918    1.7149 C   0  0  0  0  0  0  0  0  0  0  0  0
   -4.5863   -2.4769    2.4302 H   0  0  0  0  0  0  0  0  0  0  0  0
   -4.5663   -3.0925    0.7605 H   0  0  0  0  0  0  0  0  0  0  0  0
   -2.6340   -2.5398    1.5299 C   0  0  0  0  0  0  0  0  0  0  0  0
   -1.6586   -3.2374    1.7693 O   0  0  0  0  0  0  0  0  0  0  0  0
   -2.4523   -1.2605    1.0465 N   0  0  0  0  0  0  0  0  0  0  0  0
   -3.2891   -0.6874    0.9298 H   0  0  0  0  0  0  0  0  0  0  0  0
   -1.1719   -0.5406    1.1030 C   0  0  1  0  0  0  0  0  0  0  0  0
   -0.5053   -1.0013    1.8398 H   0  0  0  0  0  0  0  0  0  0  0  0
   -0.5257   -0.5667   -0.2988 C   0  0  0  0  0  0  0  0  0  0  0  0
   -1.2878   -0.8278   -1.0417 H   0  0  0  0  0  0  0  0  0  0  0  0
   -0.1509    0.4277   -0.5657 H   0  0  0  0  0  0  0  0  0  0  0  0
    0.6417   -1.5645   -0.3561 C   0  0  0  0  0  0  0  0  0  0  0  0
    1.5688   -1.0765   -0.0367 H   0  0  0  0  0  0  0  0  0  0  0  0
    0.4439   -2.3981    0.3273 H   0  0  0  0  0  0  0  0  0  0  0  0
    0.7816   -2.1313   -1.7671 C   0  0  0  0  0  0  0  0  0  0  0  0
   -0.1848   -2.5391   -2.0840 H   0  0  0  0  0  0  0  0  0  0  0  0
    1.0624   -1.3246   -2.4535 H   0  0  0  0  0  0  0  0  0  0  0  0
    1.8018   -3.1955   -1.7766 N   0  3  0  0  0  0  0  0  0  0  0  0
    2.2124   -3.4498   -0.8788 H   0  0  0  0  0  0  0  0  0  0  0  0
    2.1373   -3.8634   -2.8420 C   0  0  0  0  0  0  0  0  0  0  0  0
    1.5686   -3.6048   -4.0686 N   0  0  0  0  0  0  0  0  0  0  0  0
    0.7591   -2.9881   -4.0950 H   0  0  0  0  0  0  0  0  0  0  0  0
    1.6642   -4.2995   -4.8064 H   0  0  0  0  0  0  0  0  0  0  0  0
    3.0798   -4.8595   -2.7480 N   0  0  0  0  0  0  0  0  0  0  0  0
    3.6250   -4.9396   -1.8918 H   0  0  0  0  0  0  0  0  0  0  0  0
    3.4790   -5.2349   -3.6062 H   0  0  0  0  0  0  0  0  0  0  0  0
   -1.4132    0.9065    1.5798 C   0  0  0  0  0  0  0  0  0  0  0  0
   -2.3547    1.5374    1.1168 O   0  0  0  0  0  0  0  0  0  0  0  0
   -0.6021    1.4896    2.5363 N   0  0  0  0  0  0  0  0  0  0  0  0
    0.1123    0.9124    2.9708 H   0  0  0  0  0  0  0  0  0  0  0  0
   -0.8305    2.8332    3.0595 C   0  0  0  0  0  0  0  0  0  0  0  0
   -1.7950    2.8854    3.5759 H   0  0  0  0  0  0  0  0  0  0  0  0
   -0.0428    3.1039    3.7695 H   0  0  0  0  0  0  0  0  0  0  0  0
   -0.8276    3.5680    2.2472 H   0  0  0  0  0  0  0  0  0  0  0  0
  1  2  1  0  0  0  0
  2  3  1  0  0  0  0
  2  4  1  0  0  0  0
  2  5  1  0  0  0  0
  5  6  2  0  0  0  0
  5  7  1  0  0  0  0
  7  8  1  0  0  0  0
  7  9  1  0  0  0  0
  9 10  1  0  0  0  0
  9 11  1  0  0  0  0
  9 29  1  0  0  0  0
 11 12  1  0  0  0  0
 11 13  1  0  0  0  0
 11 14  1  0  0  0  0
 14 15  1  0  0  0  0
 14 16  1  0  0  0  0
 14 17  1  0  0  0  0
 17 18  1  0  0  0  0
 17 19  1  0  0  0  0
 17 20  1  0  0  0  0
 20 21  1  0  0  0  0
 20 22  2  0  0  0  0
 22 23  1  0  0  0  0
 22 26  1  0  0  0  0
 23 24  1  0  0  0  0
 23 25  1  0  0  0  0
 26 27  1  0  0  0  0
 26 28  1  0  0  0  0
 29 30  2  0  0  0  0
 29 31  1  0  0  0  0
 31 32  1  0  0  0  0
 31 33  1  0  0  0  0
 33 34  1  0  0  0  0
 33 35  1  0  0  0  0
 33 36  1  0  0  0  0
M  CHG  1  20   1
M  END
$$$$

  -OEChem-03222214013D

 36 35  0     1  0  0  0  0  0999 V2000
   -3.9918   -4.0936    2.1145 H   0  0  0  0  0  0  0  0  0  0  0  0
   -4.0346   -3.0861    1.6913 C   0  0  0  0  0  0  0  0  0  0  0  0
   -4.6168   -2.4487    2.3614 H   0  0  0  0  0  0  0  0  0  0  0  0
   -4.5328   -3.1321    0.7200 H   0  0  0  0  0  0  0  0  0  0  0  0
   -2.6343   -2.5267    1.5311 C   0  0  0  0  0  0  0  0  0  0  0  0
   -1.6596   -3.2173    1.7921 O   0  0  0  0  0  0  0  0  0  0  0  0
   -2.4519   -1.2472    1.0485 N   0  0  0  0  0  0  0  0  0  0  0  0
   -3.2889   -0.6769    0.9204 H   0  0  0  0  0  0  0  0  0  0  0  0
   -1.1702   -0.5295    1.0991 C   0  0  1  0  0  0  0  0  0  0  0  0
   -0.4983   -0.9950    1.8283 H   0  0  0  0  0  0  0  0  0  0  0  0
   -0.5356   -0.5604   -0.3073 C   0  0  0  0  0  0  0  0  0  0  0  0
   -1.2973   -0.8210   -1.0508 H   0  0  0  0  0  0  0  0  0  0  0  0
   -0.1549    0.4325   -0.5720 H   0  0  0  0  0  0  0  0  0  0  0  0
    0.6248   -1.5622   -0.3611 C   0  0  0  0  0  0  0  0  0  0  0  0
    1.4870   -1.1640    0.1844 H   0  0  0  0  0  0  0  0  0  0  0  0
    0.3176   -2.4970    0.1219 H   0  0  0  0  0  0  0  0  0  0  0  0
    0.9958   -1.8558   -1.8124 C   0  0  0  0  0  0  0  0  0  0  0  0
    0.1014   -2.1974   -2.3453 H   0  0  0  0  0  0  0  0  0  0  0  0
    1.3544   -0.9355   -2.2870 H   0  0  0  0  0  0  0  0  0  0  0  0
    2.0376   -2.8982   -1.8577 N   0  3  0  0  0  0  0  0  0  0  0  0
    2.3281   -3.3004   -0.9671 H   0  0  0  0  0  0  0  0  0  0  0  0
    2.5533   -3.3550   -2.9621 C   0  0  0  0  0  0  0  0  0  0  0  0
    2.1599   -2.8842   -4.1944 N   0  0  0  0  0  0  0  0  0  0  0  0
    1.3314   -2.2939   -4.2339 H   0  0  0  0  0  0  0  0  0  0  0  0
    2.4016   -3.4244   -5.0226 H   0  0  0  0  0  0  0  0  0  0  0  0
    3.5140   -4.3369   -2.9079 N   0  0  0  0  0  0  0  0  0  0  0  0
    3.9290   -4.5687   -2.0073 H   0  0  0  0  0  0  0  0  0  0  0  0
    4.0534   -4.5369   -3.7483 H   0  0  0  0  0  0  0  0  0  0  0  0
   -1.4042    0.9179    1.5792 C   0  0  0  0  0  0  0  0  0  0  0  0
   -2.3438    1.5555    1.1214 O   0  0  0  0  0  0  0  0  0  0  0  0
   -0.5839    1.4945    2.5320 N   0  0  0  0  0  0  0  0  0  0  0  0
    0.1192    0.9064    2.9702 H   0  0  0  0  0  0  0  0  0  0  0  0
   -0.8230    2.8243    3.0846 C   0  0  0  0  0  0  0  0  0  0  0  0
   -1.7961    2.8624    3.5860 H   0  0  0  0  0  0  0  0  0  0  0  0
   -0.0479    3.0773    3.8149 H   0  0  0  0  0  0  0  0  0  0  0  0
   -0.8078    3.5795    2.2915 H   0  0  0  0  0  0  0  0  0  0  0  0
  1  2  1  0  0  0  0
  2  3  1  0  0  0  0
  2  4  1  0  0  0  0
  2  5  1  0  0  0  0
  5  6  2  0  0  0  0
  5  7  1  0  0  0  0
  7  8  1  0  0  0  0
  7  9  1  0  0  0  0
  9 10  1  0  0  0  0
  9 11  1  0  0  0  0
  9 29  1  0  0  0  0
 11 12  1  0  0  0  0
 11 13  1  0  0  0  0
 11 14  1  0  0  0  0
 14 15  1  0  0  0  0
 14 16  1  0  0  0  0
 14 17  1  0  0  0  0
 17 18  1  0  0  0  0
 17 19  1  0  0  0  0
 17 20  1  0  0  0  0
 20 21  1  0  0  0  0
 20 22  2  0  0  0  0
 22 23  1  0  0  0  0
 22 26  1  0  0  0  0
 23 24  1  0  0  0  0
 23 25  1  0  0  0  0
 26 27  1  0  0  0  0
 26 28  1  0  0  0  0
 29 30  2  0  0  0  0
 29 31  1  0  0  0  0
 31 32  1  0  0  0  0
 31 33  1  0  0  0  0
 33 34  1  0  0  0  0
 33 35  1  0  0  0  0
 33 36  1  0  0  0  0
M  CHG  1  20   1
M  END
$$$$

  -OEChem-03222214013D

 36 35  0     1  0  0  0  0  0999 V2000
   -4.0168   -4.0885    2.1063 H   0  0  0  0  0  0  0  0  0  0  0  0
   -4.0465   -3.0821    1.6793 C   0  0  0  0  0  0  0  0  0  0  0  0
   -4.6358   -2.4391    2.3378 H   0  0  0  0  0  0  0  0  0  0  0  0
   -4.5293   -3.1281    0.7002 H   0  0  0  0  0  0  0  0  0  0  0  0
   -2.6405   -2.5315    1.5397 C   0  0  0  0  0  0  0  0  0  0  0  0
   -1.6750   -3.2261    1.8227 O   0  0  0  0  0  0  0  0  0  0  0  0
   -2.4432   -1.2551    1.0542 N   0  0  0  0  0  0  0  0  0  0  0  0
   -3.2753   -0.6815    0.9107 H   0  0  0  0  0  0  0  0  0  0  0  0
   -1.1593   -0.5415    1.1140 C   0  0  1  0  0  0  0  0  0  0  0  0
   -0.4869   -1.0080    1.8420 H   0  0  0  0  0  0  0  0  0  0  0  0
   -0.5212   -0.5573   -0.2883 C   0  0  0  0  0  0  0  0  0  0  0  0
   -1.3022   -0.5268   -1.0563 H   0  0  0  0  0  0  0  0  0  0  0  0
    0.0969    0.3386   -0.4154 H   0  0  0  0  0  0  0  0  0  0  0  0
    0.3696   -1.7918   -0.4721 C   0  0  0  0  0  0  0  0  0  0  0  0
    1.1579   -1.7979    0.2884 H   0  0  0  0  0  0  0  0  0  0  0  0
   -0.2346   -2.6959   -0.3405 H   0  0  0  0  0  0  0  0  0  0  0  0
    0.9925   -1.7920   -1.8651 C   0  0  0  0  0  0  0  0  0  0  0  0
    0.1937   -1.7410   -2.6134 H   0  0  0  0  0  0  0  0  0  0  0  0
    1.6317   -0.9089   -1.9758 H   0  0  0  0  0  0  0  0  0  0  0  0
    1.7813   -3.0242   -2.0478 N   0  3  0  0  0  0  0  0  0  0  0  0
    1.7844   -3.6884   -1.2741 H   0  0  0  0  0  0  0  0  0  0  0  0
    2.4295   -3.3138   -3.1387 C   0  0  0  0  0  0  0  0  0  0  0  0
    2.4293   -2.4720   -4.2276 N   0  0  0  0  0  0  0  0  0  0  0  0
    1.7738   -1.6931   -4.2258 H   0  0  0  0  0  0  0  0  0  0  0  0
    2.7368   -2.8370   -5.1268 H   0  0  0  0  0  0  0  0  0  0  0  0
    3.1338   -4.4916   -3.2172 N   0  0  0  0  0  0  0  0  0  0  0  0
    3.2756   -5.0364   -2.3686 H   0  0  0  0  0  0  0  0  0  0  0  0
    3.7983   -4.6119   -3.9795 H   0  0  0  0  0  0  0  0  0  0  0  0
   -1.3986    0.9075    1.5855 C   0  0  0  0  0  0  0  0  0  0  0  0
   -2.3311    1.5443    1.1117 O   0  0  0  0  0  0  0  0  0  0  0  0
   -0.5887    1.4877    2.5448 N   0  0  0  0  0  0  0  0  0  0  0  0
    0.1134    0.9028    2.9894 H   0  0  0  0  0  0  0  0  0  0  0  0
   -0.8289    2.8227    3.0842 C   0  0  0  0  0  0  0  0  0  0  0  0
   -1.8063    2.8677    3.5770 H   0  0  0  0  0  0  0  0  0  0  0  0
   -0.0595    3.0797    3.8192 H   0  0  0  0  0  0  0  0  0  0  0  0
   -0.8041    3.5710    2.2846 H   0  0  0  0  0  0  0  0  0  0  0  0
  1  2  1  0  0  0  0
  2  3  1  0  0  0  0
  2  4  1  0  0  0  0
  2  5  1  0  0  0  0
  5  6  2  0  0  0  0
  5  7  1  0  0  0  0
  7  8  1  0  0  0  0
  7  9  1  0  0  0  0
  9 10  1  0  0  0  0
  9 11  1  0  0  0  0
  9 29  1  0  0  0  0
 11 12  1  0  0  0  0
 11 13  1  0  0  0  0
 11 14  1  0  0  0  0
 14 15  1  0  0  0  0
 14 16  1  0  0  0  0
 14 17  1  0  0  0  0
 17 18  1  0  0  0  0
 17 19  1  0  0  0  0
 17 20  1  0  0  0  0
 20 21  1  0  0  0  0
 20 22  2  0  0  0  0
 22 23  1  0  0  0  0
 22 26  1  0  0  0  0
 23 24  1  0  0  0  0
 23 25  1  0  0  0  0
 26 27  1  0  0  0  0
 26 28  1  0  0  0  0
 29 30  2  0  0  0  0
 29 31  1  0  0  0  0
 31 32  1  0  0  0  0
 31 33  1  0  0  0  0
 33 34  1  0  0  0  0
 33 35  1  0  0  0  0
 33 36  1  0  0  0  0
M  CHG  1  20   1
M  END
$$$$

  -OEChem-03222214013D

 36 35  0     1  0  0  0  0  0999 V2000
   -3.9800   -4.0976    2.0940 H   0  0  0  0  0  0  0  0  0  0  0  0
   -4.0216   -3.0932    1.6635 C   0  0  0  0  0  0  0  0  0  0  0  0
   -4.6151   -2.4542    2.3220 H   0  0  0  0  0  0  0  0  0  0  0  0
   -4.5070   -3.1476    0.6862 H   0  0  0  0  0  0  0  0  0  0  0  0
   -2.6220   -2.5285    1.5169 C   0  0  0  0  0  0  0  0  0  0  0  0
   -1.6466   -3.2184    1.7784 O   0  0  0  0  0  0  0  0  0  0  0  0
   -2.4388   -1.2462    1.0419 N   0  0  0  0  0  0  0  0  0  0  0  0
   -3.2755   -0.6770    0.9082 H   0  0  0  0  0  0  0  0  0  0  0  0
   -1.1595   -0.5268    1.1117 C   0  0  1  0  0  0  0  0  0  0  0  0
   -0.4882   -0.9935    1.8403 H   0  0  0  0  0  0  0  0  0  0  0  0
   -0.5265   -0.5396   -0.2924 C   0  0  0  0  0  0  0  0  0  0  0  0
   -1.3004   -0.4985   -1.0671 H   0  0  0  0  0  0  0  0  0  0  0  0
    0.0929    0.3574   -0.4037 H   0  0  0  0  0  0  0  0  0  0  0  0
    0.3669   -1.7730   -0.4808 C   0  0  0  0  0  0  0  0  0  0  0  0
    0.9944   -1.9196    0.4049 H   0  0  0  0  0  0  0  0  0  0  0  0
   -0.2663   -2.6602   -0.5933 H   0  0  0  0  0  0  0  0  0  0  0  0
    1.2649   -1.6007   -1.7021 C   0  0  0  0  0  0  0  0  0  0  0  0
    0.6390   -1.4179   -2.5825 H   0  0  0  0  0  0  0  0  0  0  0  0
    1.9183   -0.7340   -1.5521 H   0  0  0  0  0  0  0  0  0  0  0  0
    2.0679   -2.8222   -1.8928 N   0  3  0  0  0  0  0  0  0  0  0  0
    1.9151   -3.5824   -1.2303 H   0  0  0  0  0  0  0  0  0  0  0  0
    2.9240   -2.9812   -2.8603 C   0  0  0  0  0  0  0  0  0  0  0  0
    3.1449   -2.0013   -3.8016 N   0  0  0  0  0  0  0  0  0  0  0  0
    2.4994   -1.2145   -3.8282 H   0  0  0  0  0  0  0  0  0  0  0  0
    3.6318   -2.2504   -4.6603 H   0  0  0  0  0  0  0  0  0  0  0  0
    3.6306   -4.1565   -2.9544 N   0  0  0  0  0  0  0  0  0  0  0  0
    3.5985   -4.8118   -2.1756 H   0  0  0  0  0  0  0  0  0  0  0  0
    4.4386   -4.1902   -3.5733 H   0  0  0  0  0  0  0  0  0  0  0  0
   -1.4037    0.9174    1.5959 C   0  0  0  0  0  0  0  0  0  0  0  0
   -2.3330    1.5581    1.1217 O   0  0  0  0  0  0  0  0  0  0  0  0
   -0.5970    1.4911    2.5619 N   0  0  0  0  0  0  0  0  0  0  0  0
    0.0973    0.9005    3.0109 H   0  0  0  0  0  0  0  0  0  0  0  0
   -0.8370    2.8240    3.1067 C   0  0  0  0  0  0  0  0  0  0  0  0
   -1.8153    2.8684    3.5971 H   0  0  0  0  0  0  0  0  0  0  0  0
   -0.0690    3.0766    3.8443 H   0  0  0  0  0  0  0  0  0  0  0  0
   -0.8096    3.5758    2.3106 H   0  0  0  0  0  0  0  0  0  0  0  0
  1  2  1  0  0  0  0
  2  3  1  0  0  0  0
  2  4  1  0  0  0  0
  2  5  1  0  0  0  0
  5  6  2  0  0  0  0
  5  7  1  0  0  0  0
  7  8  1  0  0  0  0
  7  9  1  0  0  0  0
  9 10  1  0  0  0  0
  9 11  1  0  0  0  0
  9 29  1  0  0  0  0
 11 12  1  0  0  0  0
 11 13  1  0  0  0  0
 11 14  1  0  0  0  0
 14 15  1  0  0  0  0
 14 16  1  0  0  0  0
 14 17  1  0  0  0  0
 17 18  1  0  0  0  0
 17 19  1  0  0  0  0
 17 20  1  0  0  0  0
 20 21  1  0  0  0  0
 20 22  2  0  0  0  0
 22 23  1  0  0  0  0
 22 26  1  0  0  0  0
 23 24  1  0  0  0  0
 23 25  1  0  0  0  0
 26 27  1  0  0  0  0
 26 28  1  0  0  0  0
 29 30  2  0  0  0  0
 29 31  1  0  0  0  0
 31 32  1  0  0  0  0
 31 33  1  0  0  0  0
 33 34  1  0  0  0  0
 33 35  1  0  0  0  0
 33 36  1  0  0  0  0
M  CHG  1  20   1
M  END
$$$$

  -OEChem-03222214013D

 36 35  0     1  0  0  0  0  0999 V2000
   -3.9608   -4.1071    2.0787 H   0  0  0  0  0  0  0  0  0  0  0  0
   -4.0064   -3.1011    1.6522 C   0  0  0  0  0  0  0  0  0  0  0  0
   -4.6097   -2.4690    2.3084 H   0  0  0  0  0  0  0  0  0  0  0  0
   -4.4838   -3.1550    0.6708 H   0  0  0  0  0  0  0  0  0  0  0  0
   -2.6101   -2.5252    1.5180 C   0  0  0  0  0  0  0  0  0  0  0  0
   -1.6308   -3.2069    1.7868 O   0  0  0  0  0  0  0  0  0  0  0  0
   -2.4333   -1.2416    1.0443 N   0  0  0  0  0  0  0  0  0  0  0  0
   -3.2725   -0.6786    0.9006 H   0  0  0  0  0  0  0  0  0  0  0  0
   -1.1583   -0.5167    1.1206 C   0  0  1  0  0  0  0  0  0  0  0  0
   -0.4884   -0.9773    1.8535 H   0  0  0  0  0  0  0  0  0  0  0  0
   -0.5253   -0.5296   -0.2844 C   0  0  0  0  0  0  0  0  0  0  0  0
   -1.2960   -0.4846   -1.0622 H   0  0  0  0  0  0  0  0  0  0  0  0
    0.0877    0.3728   -0.3874 H   0  0  0  0  0  0  0  0  0  0  0  0
    0.3768   -1.7589   -0.4852 C   0  0  0  0  0  0  0  0  0  0  0  0
    0.8162   -2.0666    0.4699 H   0  0  0  0  0  0  0  0  0  0  0  0
   -0.2336   -2.5927   -0.8497 H   0  0  0  0  0  0  0  0  0  0  0  0
    1.5113   -1.4496   -1.4586 C   0  0  0  0  0  0  0  0  0  0  0  0
    1.0841   -1.1224   -2.4131 H   0  0  0  0  0  0  0  0  0  0  0  0
    2.1246   -0.6371   -1.0533 H   0  0  0  0  0  0  0  0  0  0  0  0
    2.3292   -2.6605   -1.6538 N   0  3  0  0  0  0  0  0  0  0  0  0
    2.0454   -3.4958   -1.1422 H   0  0  0  0  0  0  0  0  0  0  0  0
    3.3625   -2.7169   -2.4432 C   0  0  0  0  0  0  0  0  0  0  0  0
    3.7748   -1.6275   -3.1765 N   0  0  0  0  0  0  0  0  0  0  0  0
    3.1538   -0.8221   -3.2202 H   0  0  0  0  0  0  0  0  0  0  0  0
    4.4225   -1.7752   -3.9479 H   0  0  0  0  0  0  0  0  0  0  0  0
    4.0660   -3.8923   -2.5570 N   0  0  0  0  0  0  0  0  0  0  0  0
    3.8744   -4.6447   -1.8980 H   0  0  0  0  0  0  0  0  0  0  0  0
    4.9797   -3.8716   -3.0063 H   0  0  0  0  0  0  0  0  0  0  0  0
   -1.4105    0.9258    1.6047 C   0  0  0  0  0  0  0  0  0  0  0  0
   -2.3363    1.5664    1.1238 O   0  0  0  0  0  0  0  0  0  0  0  0
   -0.6097    1.5006    2.5749 N   0  0  0  0  0  0  0  0  0  0  0  0
    0.0766    0.9079    3.0333 H   0  0  0  0  0  0  0  0  0  0  0  0
   -0.8578    2.8316    3.1206 C   0  0  0  0  0  0  0  0  0  0  0  0
   -1.8380    2.8705    3.6076 H   0  0  0  0  0  0  0  0  0  0  0  0
   -0.0937    3.0874    3.8612 H   0  0  0  0  0  0  0  0  0  0  0  0
   -0.8309    3.5842    2.3252 H   0  0  0  0  0  0  0  0  0  0  0  0
  1  2  1  0  0  0  0
  2  3  1  0  0  0  0
  2  4  1  0  0  0  0
  2  5  1  0  0  0  0
  5  6  2  0  0  0  0
  5  7  1  0  0  0  0
  7  8  1  0  0  0  0
  7  9  1  0  0  0  0
  9 10  1  0  0  0  0
  9 11  1  0  0  0  0
  9 29  1  0  0  0  0
 11 12  1  0  0  0  0
 11 13  1  0  0  0  0
 11 14  1  0  0  0  0
 14 15  1  0  0  0  0
 14 16  1  0  0  0  0
 14 17  1  0  0  0  0
 17 18  1  0  0  0  0
 17 19  1  0  0  0  0
 17 20  1  0  0  0  0
 20 21  1  0  0  0  0
 20 22  2  0  0  0  0
 22 23  1  0  0  0  0
 22 26  1  0  0  0  0
 23 24  1  0  0  0  0
 23 25  1  0  0  0  0
 26 27  1  0  0  0  0
 26 28  1  0  0  0  0
 29 30  2  0  0  0  0
 29 31  1  0  0  0  0
 31 32  1  0  0  0  0
 31 33  1  0  0  0  0
 33 34  1  0  0  0  0
 33 35  1  0  0  0  0
 33 36  1  0  0  0  0
M  CHG  1  20   1
M  END
$$$$

  -OEChem-03222214013D

 36 35  0     1  0  0  0  0  0999 V2000
   -3.9536   -4.1118    2.0768 H   0  0  0  0  0  0  0  0  0  0  0  0
   -3.9994   -3.1083    1.6446 C   0  0  0  0  0  0  0  0  0  0  0  0
   -4.6151   -2.4764    2.2895 H   0  0  0  0  0  0  0  0  0  0  0  0
   -4.4635   -3.1699    0.6574 H   0  0  0  0  0  0  0  0  0  0  0  0
   -2.6047   -2.5251    1.5265 C   0  0  0  0  0  0  0  0  0  0  0  0
   -1.6262   -3.1995    1.8158 O   0  0  0  0  0  0  0  0  0  0  0  0
   -2.4281   -1.2415    1.0520 N   0  0  0  0  0  0  0  0  0  0  0  0
   -3.2683   -0.6840    0.8932 H   0  0  0  0  0  0  0  0  0  0  0  0
   -1.1555   -0.5119    1.1310 C   0  0  1  0  0  0  0  0  0  0  0  0
   -0.4846   -0.9676    1.8662 H   0  0  0  0  0  0  0  0  0  0  0  0
   -0.5193   -0.5218   -0.2734 C   0  0  0  0  0  0  0  0  0  0  0  0
   -1.2924   -0.4826   -1.0490 H   0  0  0  0  0  0  0  0  0  0  0  0
    0.0817    0.3882   -0.3805 H   0  0  0  0  0  0  0  0  0  0  0  0
    0.3918   -1.7461   -0.4849 C   0  0  0  0  0  0  0  0  0  0  0  0
    0.6129   -2.2306    0.4723 H   0  0  0  0  0  0  0  0  0  0  0  0
   -0.1399   -2.4785   -1.1021 H   0  0  0  0  0  0  0  0  0  0  0  0
    1.7099   -1.3488   -1.1449 C   0  0  0  0  0  0  0  0  0  0  0  0
    1.4978   -0.8724   -2.1086 H   0  0  0  0  0  0  0  0  0  0  0  0
    2.2324   -0.6284   -0.5054 H   0  0  0  0  0  0  0  0  0  0  0  0
    2.5390   -2.5519   -1.3414 N   0  3  0  0  0  0  0  0  0  0  0  0
    2.1532   -3.4368   -1.0121 H   0  0  0  0  0  0  0  0  0  0  0  0
    3.7099   -2.5389   -1.9096 C   0  0  0  0  0  0  0  0  0  0  0  0
    4.2695   -1.3767   -2.3903 N   0  0  0  0  0  0  0  0  0  0  0  0
    3.6753   -0.5522   -2.4492 H   0  0  0  0  0  0  0  0  0  0  0  0
    5.0590   -1.4436   -3.0292 H   0  0  0  0  0  0  0  0  0  0  0  0
    4.4127   -3.7131   -2.0405 N   0  0  0  0  0  0  0  0  0  0  0  0
    4.0879   -4.5374   -1.5382 H   0  0  0  0  0  0  0  0  0  0  0  0
    5.3983   -3.6652   -2.2921 H   0  0  0  0  0  0  0  0  0  0  0  0
   -1.4153    0.9308    1.6122 C   0  0  0  0  0  0  0  0  0  0  0  0
   -2.3396    1.5680    1.1242 O   0  0  0  0  0  0  0  0  0  0  0  0
   -0.6208    1.5119    2.5842 N   0  0  0  0  0  0  0  0  0  0  0  0
    0.0599    0.9212    3.0532 H   0  0  0  0  0  0  0  0  0  0  0  0
   -0.8807    2.8422    3.1267 C   0  0  0  0  0  0  0  0  0  0  0  0
   -1.8642    2.8757    3.6078 H   0  0  0  0  0  0  0  0  0  0  0  0
   -0.1227    3.1038    3.8716 H   0  0  0  0  0  0  0  0  0  0  0  0
   -0.8541    3.5944    2.3310 H   0  0  0  0  0  0  0  0  0  0  0  0
  1  2  1  0  0  0  0
  2  3  1  0  0  0  0
  2  4  1  0  0  0  0
  2  5  1  0  0  0  0
  5  6  2  0  0  0  0
  5  7  1  0  0  0  0
  7  8  1  0  0  0  0
  7  9  1  0  0  0  0
  9 10  1  0  0  0  0
  9 11  1  0  0  0  0
  9 29  1  0  0  0  0
 11 12  1  0  0  0  0
 11 13  1  0  0  0  0
 11 14  1  0  0  0  0
 14 15  1  0  0  0  0
 14 16  1  0  0  0  0
 14 17  1  0  0  0  0
 17 18  1  0  0  0  0
 17 19  1  0  0  0  0
 17 20  1  0  0  0  0
 20 21  1  0  0  0  0
 20 22  2  0  0  0  0
 22 23  1  0  0  0  0
 22 26  1  0  0  0  0
 23 24  1  0  0  0  0
 23 25  1  0  0  0  0
 26 27  1  0  0  0  0
 26 28  1  0  0  0  0
 29 30  2  0  0  0  0
 29 31  1  0  0  0  0
 31 32  1  0  0  0  0
 31 33  1  0  0  0  0
 33 34  1  0  0  0  0
 33 35  1  0  0  0  0
 33 36  1  0  0  0  0
M  CHG  1  20   1
M  END
$$$$

  -OEChem-03222214013D

 36 35  0     1  0  0  0  0  0999 V2000
   -3.9536   -4.1224    2.0598 H   0  0  0  0  0  0  0  0  0  0  0  0
   -3.9936   -3.1151    1.6355 C   0  0  0  0  0  0  0  0  0  0  0  0
   -4.6234   -2.4903    2.2736 H   0  0  0  0  0  0  0  0  0  0  0  0
   -4.4387   -3.1692    0.6390 H   0  0  0  0  0  0  0  0  0  0  0  0
   -2.5985   -2.5267    1.5484 C   0  0  0  0  0  0  0  0  0  0  0  0
   -1.6260   -3.1909    1.8776 O   0  0  0  0  0  0  0  0  0  0  0  0
   -2.4178   -1.2457    1.0689 N   0  0  0  0  0  0  0  0  0  0  0  0
   -3.2570   -0.6959    0.8809 H   0  0  0  0  0  0  0  0  0  0  0  0
   -1.1480   -0.5100    1.1418 C   0  0  1  0  0  0  0  0  0  0  0  0
   -0.4698   -0.9612    1.8734 H   0  0  0  0  0  0  0  0  0  0  0  0
   -0.5117   -0.5100   -0.2635 C   0  0  0  0  0  0  0  0  0  0  0  0
   -1.2966   -0.4907   -1.0282 H   0  0  0  0  0  0  0  0  0  0  0  0
    0.0696    0.4102   -0.3895 H   0  0  0  0  0  0  0  0  0  0  0  0
    0.4088   -1.7260   -0.4851 C   0  0  0  0  0  0  0  0  0  0  0  0
    0.4065   -2.3762    0.3960 H   0  0  0  0  0  0  0  0  0  0  0  0
    0.0145   -2.3151   -1.3203 H   0  0  0  0  0  0  0  0  0  0  0  0
    1.8426   -1.2977   -0.7912 C   0  0  0  0  0  0  0  0  0  0  0  0
    1.8486   -0.6877   -1.7014 H   0  0  0  0  0  0  0  0  0  0  0  0
    2.2240   -0.6920    0.0384 H   0  0  0  0  0  0  0  0  0  0  0  0
    2.6788   -2.4987   -0.9716 N   0  3  0  0  0  0  0  0  0  0  0  0
    2.2264   -3.4010   -0.8255 H   0  0  0  0  0  0  0  0  0  0  0  0
    3.9397   -2.4632   -1.2923 C   0  0  0  0  0  0  0  0  0  0  0  0
    4.5989   -1.2746   -1.5089 N   0  0  0  0  0  0  0  0  0  0  0  0
    4.0396   -0.4271   -1.5805 H   0  0  0  0  0  0  0  0  0  0  0  0
    5.5008   -1.2954   -1.9808 H   0  0  0  0  0  0  0  0  0  0  0  0
    4.6398   -3.6391   -1.4214 N   0  0  0  0  0  0  0  0  0  0  0  0
    4.2096   -4.5044   -1.0996 H   0  0  0  0  0  0  0  0  0  0  0  0
    5.6564   -3.5985   -1.4632 H   0  0  0  0  0  0  0  0  0  0  0  0
   -1.4183    0.9331    1.6155 C   0  0  0  0  0  0  0  0  0  0  0  0
   -2.3452    1.5630    1.1229 O   0  0  0  0  0  0  0  0  0  0  0  0
   -0.6270    1.5237    2.5842 N   0  0  0  0  0  0  0  0  0  0  0  0
    0.0456    0.9338    3.0655 H   0  0  0  0  0  0  0  0  0  0  0  0
   -0.9071    2.8479    3.1314 C   0  0  0  0  0  0  0  0  0  0  0  0
   -1.8922    2.8652    3.6101 H   0  0  0  0  0  0  0  0  0  0  0  0
   -0.1551    3.1172    3.8795 H   0  0  0  0  0  0  0  0  0  0  0  0
   -0.8893    3.6037    2.3387 H   0  0  0  0  0  0  0  0  0  0  0  0
  1  2  1  0  0  0  0
  2  3  1  0  0  0  0
  2  4  1  0  0  0  0
  2  5  1  0  0  0  0
  5  6  2  0  0  0  0
  5  7  1  0  0  0  0
  7  8  1  0  0  0  0
  7  9  1  0  0  0  0
  9 10  1  0  0  0  0
  9 11  1  0  0  0  0
  9 29  1  0  0  0  0
 11 12  1  0  0  0  0
 11 13  1  0  0  0  0
 11 14  1  0  0  0  0
 14 15  1  0  0  0  0
 14 16  1  0  0  0  0
 14 17  1  0  0  0  0
 17 18  1  0  0  0  0
 17 19  1  0  0  0  0
 17 20  1  0  0  0  0
 20 21  1  0  0  0  0
 20 22  2  0  0  0  0
 22 23  1  0  0  0  0
 22 26  1  0  0  0  0
 23 24  1  0  0  0  0
 23 25  1  0  0  0  0
 26 27  1  0  0  0  0
 26 28  1  0  0  0  0
 29 30  2  0  0  0  0
 29 31  1  0  0  0  0
 31 32  1  0  0  0  0
 31 33  1  0  0  0  0
 33 34  1  0  0  0  0
 33 35  1  0  0  0  0
 33 36  1  0  0  0  0
M  CHG  1  20   1
M  END
$$$$

  -OEChem-03222214013D

 36 35  0     1  0  0  0  0  0999 V2000
   -3.9367   -4.1551    1.9990 H   0  0  0  0  0  0  0  0  0  0  0  0
   -3.9813   -3.1357    1.6056 C   0  0  0  0  0  0  0  0  0  0  0  0
   -4.6199   -2.5353    2.2582 H   0  0  0  0  0  0  0  0  0  0  0  0
   -4.4194   -3.1633    0.6050 H   0  0  0  0  0  0  0  0  0  0  0  0
   -2.5898   -2.5353    1.5475 C   0  0  0  0  0  0  0  0  0  0  0  0
   -1.6208   -3.1894    1.9065 O   0  0  0  0  0  0  0  0  0  0  0  0
   -2.4101   -1.2518    1.0729 N   0  0  0  0  0  0  0  0  0  0  0  0
   -3.2493   -0.7101    0.8623 H   0  0  0  0  0  0  0  0  0  0  0  0
   -1.1437   -0.5094    1.1477 C   0  0  1  0  0  0  0  0  0  0  0  0
   -0.4613   -0.9635    1.8738 H   0  0  0  0  0  0  0  0  0  0  0  0
   -0.5007   -0.4871   -0.2548 C   0  0  0  0  0  0  0  0  0  0  0  0
   -1.2911   -0.4833   -1.0139 H   0  0  0  0  0  0  0  0  0  0  0  0
    0.0680    0.4398   -0.3899 H   0  0  0  0  0  0  0  0  0  0  0  0
    0.4271   -1.6933   -0.4803 C   0  0  0  0  0  0  0  0  0  0  0  0
    0.2116   -2.4833    0.2458 H   0  0  0  0  0  0  0  0  0  0  0  0
    0.2252   -2.1050   -1.4753 H   0  0  0  0  0  0  0  0  0  0  0  0
    1.8987   -1.2940   -0.4027 C   0  0  0  0  0  0  0  0  0  0  0  0
    2.1235   -0.5859   -1.2079 H   0  0  0  0  0  0  0  0  0  0  0  0
    2.0910   -0.8043    0.5584 H   0  0  0  0  0  0  0  0  0  0  0  0
    2.7293   -2.5054   -0.5276 N   0  3  0  0  0  0  0  0  0  0  0  0
    2.2409   -3.4005   -0.5057 H   0  0  0  0  0  0  0  0  0  0  0  0
    4.0268   -2.4922   -0.6260 C   0  0  0  0  0  0  0  0  0  0  0  0
    4.7425   -1.3167   -0.6517 N   0  0  0  0  0  0  0  0  0  0  0  0
    4.2252   -0.4470   -0.7622 H   0  0  0  0  0  0  0  0  0  0  0  0
    5.7105   -1.3418   -0.9660 H   0  0  0  0  0  0  0  0  0  0  0  0
    4.7099   -3.6820   -0.7070 N   0  0  0  0  0  0  0  0  0  0  0  0
    4.2088   -4.5475   -0.5143 H   0  0  0  0  0  0  0  0  0  0  0  0
    5.7187   -3.6739   -0.5678 H   0  0  0  0  0  0  0  0  0  0  0  0
   -1.4233    0.9305    1.6259 C   0  0  0  0  0  0  0  0  0  0  0  0
   -2.3513    1.5574    1.1318 O   0  0  0  0  0  0  0  0  0  0  0  0
   -0.6361    1.5237    2.5966 N   0  0  0  0  0  0  0  0  0  0  0  0
    0.0291    0.9333    3.0869 H   0  0  0  0  0  0  0  0  0  0  0  0
   -0.9226    2.8482    3.1402 C   0  0  0  0  0  0  0  0  0  0  0  0
   -1.8965    2.8544    3.6414 H   0  0  0  0  0  0  0  0  0  0  0  0
   -0.1564    3.1357    3.8670 H   0  0  0  0  0  0  0  0  0  0  0  0
   -0.9359    3.5977    2.3415 H   0  0  0  0  0  0  0  0  0  0  0  0
  1  2  1  0  0  0  0
  2  3  1  0  0  0  0
  2  4  1  0  0  0  0
  2  5  1  0  0  0  0
  5  6  2  0  0  0  0
  5  7  1  0  0  0  0
  7  8  1  0  0  0  0
  7  9  1  0  0  0  0
  9 10  1  0  0  0  0
  9 11  1  0  0  0  0
  9 29  1  0  0  0  0
 11 12  1  0  0  0  0
 11 13  1  0  0  0  0
 11 14  1  0  0  0  0
 14 15  1  0  0  0  0
 14 16  1  0  0  0  0
 14 17  1  0  0  0  0
 17 18  1  0  0  0  0
 17 19  1  0  0  0  0
 17 20  1  0  0  0  0
 20 21  1  0  0  0  0
 20 22  2  0  0  0  0
 22 23  1  0  0  0  0
 22 26  1  0  0  0  0
 23 24  1  0  0  0  0
 23 25  1  0  0  0  0
 26 27  1  0  0  0  0
 26 28  1  0  0  0  0
 29 30  2  0  0  0  0
 29 31  1  0  0  0  0
 31 32  1  0  0  0  0
 31 33  1  0  0  0  0
 33 34  1  0  0  0  0
 33 35  1  0  0  0  0
 33 36  1  0  0  0  0
M  CHG  1  20   1
M  END
$$$$

  -OEChem-03222214013D

 36 35  0     1  0  0  0  0  0999 V2000
   -3.9365   -4.1813    1.8207 H   0  0  0  0  0  0  0  0  0  0  0  0
   -3.9755   -3.1504    1.4580 C   0  0  0  0  0  0  0  0  0  0  0  0
   -4.6504   -2.5778    2.0990 H   0  0  0  0  0  0  0  0  0  0  0  0
   -4.3669   -3.1506    0.4378 H   0  0  0  0  0  0  0  0  0  0  0  0
   -2.5904   -2.5334    1.4827 C   0  0  0  0  0  0  0  0  0  0  0  0
   -1.6336   -3.1806    1.8864 O   0  0  0  0  0  0  0  0  0  0  0  0
   -2.4003   -1.2423    1.0328 N   0  0  0  0  0  0  0  0  0  0  0  0
   -3.2326   -0.7055    0.7848 H   0  0  0  0  0  0  0  0  0  0  0  0
   -1.1440   -0.4925    1.1737 C   0  0  1  0  0  0  0  0  0  0  0  0
   -0.4918   -0.9532    1.9227 H   0  0  0  0  0  0  0  0  0  0  0  0
   -0.4361   -0.4458   -0.1968 C   0  0  0  0  0  0  0  0  0  0  0  0
   -1.1914   -0.4428   -0.9909 H   0  0  0  0  0  0  0  0  0  0  0  0
    0.1335    0.4845   -0.2994 H   0  0  0  0  0  0  0  0  0  0  0  0
    0.5066   -1.6436   -0.3863 C   0  0  0  0  0  0  0  0  0  0  0  0
    0.0971   -2.5252    0.1155 H   0  0  0  0  0  0  0  0  0  0  0  0
    0.5665   -1.8798   -1.4542 H   0  0  0  0  0  0  0  0  0  0  0  0
    1.9126   -1.3349    0.1233 C   0  0  0  0  0  0  0  0  0  0  0  0
    2.3792   -0.5924   -0.5320 H   0  0  0  0  0  0  0  0  0  0  0  0
    1.8480   -0.9122    1.1320 H   0  0  0  0  0  0  0  0  0  0  0  0
    2.6934   -2.5856    0.1592 N   0  3  0  0  0  0  0  0  0  0  0  0
    2.1752   -3.4381    0.3731 H   0  0  0  0  0  0  0  0  0  0  0  0
    3.9832   -2.6544   -0.0040 C   0  0  0  0  0  0  0  0  0  0  0  0
    4.7454   -1.5429   -0.2834 N   0  0  0  0  0  0  0  0  0  0  0  0
    4.2602   -0.6835   -0.5312 H   0  0  0  0  0  0  0  0  0  0  0  0
    5.6906   -1.6772   -0.6372 H   0  0  0  0  0  0  0  0  0  0  0  0
    4.6127   -3.8718    0.1028 N   0  0  0  0  0  0  0  0  0  0  0  0
    4.0900   -4.6615    0.4778 H   0  0  0  0  0  0  0  0  0  0  0  0
    5.6274   -3.8887    0.1880 H   0  0  0  0  0  0  0  0  0  0  0  0
   -1.4539    0.9393    1.6581 C   0  0  0  0  0  0  0  0  0  0  0  0
   -2.3617    1.5691    1.1314 O   0  0  0  0  0  0  0  0  0  0  0  0
   -0.7129    1.5223    2.6706 N   0  0  0  0  0  0  0  0  0  0  0  0
   -0.0625    0.9303    3.1784 H   0  0  0  0  0  0  0  0  0  0  0  0
   -1.0232    2.8407    3.2159 C   0  0  0  0  0  0  0  0  0  0  0  0
   -2.0200    2.8445    3.6699 H   0  0  0  0  0  0  0  0  0  0  0  0
   -0.2931    3.1171    3.9830 H   0  0  0  0  0  0  0  0  0  0  0  0
   -0.9951    3.5993    2.4264 H   0  0  0  0  0  0  0  0  0  0  0  0
  1  2  1  0  0  0  0
  2  3  1  0  0  0  0
  2  4  1  0  0  0  0
  2  5  1  0  0  0  0
  5  6  2  0  0  0  0
  5  7  1  0  0  0  0
  7  8  1  0  0  0  0
  7  9  1  0  0  0  0
  9 10  1  0  0  0  0
  9 11  1  0  0  0  0
  9 29  1  0  0  0  0
 11 12  1  0  0  0  0
 11 13  1  0  0  0  0
 11 14  1  0  0  0  0
 14 15  1  0  0  0  0
 14 16  1  0  0  0  0
 14 17  1  0  0  0  0
 17 18  1  0  0  0  0
 17 19  1  0  0  0  0
 17 20  1  0  0  0  0
 20 21  1  0  0  0  0
 20 22  2  0  0  0  0
 22 23  1  0  0  0  0
 22 26  1  0  0  0  0
 23 24  1  0  0  0  0
 23 25  1  0  0  0  0
 26 27  1  0  0  0  0
 26 28  1  0  0  0  0
 29 30  2  0  0  0  0
 29 31  1  0  0  0  0
 31 32  1  0  0  0  0
 31 33  1  0  0  0  0
 33 34  1  0  0  0  0
 33 35  1  0  0  0  0
 33 36  1  0  0  0  0
M  CHG  1  20   1
M  END
$$$$

  -OEChem-03222214013D

 36 35  0     1  0  0  0  0  0999 V2000
   -3.0130   -4.6506    1.3602 H   0  0  0  0  0  0  0  0  0  0  0  0
   -3.2699   -3.5948    1.2368 C   0  0  0  0  0  0  0  0  0  0  0  0
   -3.8740   -3.2769    2.0904 H   0  0  0  0  0  0  0  0  0  0  0  0
   -3.8584   -3.4806    0.3228 H   0  0  0  0  0  0  0  0  0  0  0  0
   -2.0111   -2.7541    1.1511 C   0  0  0  0  0  0  0  0  0  0  0  0
   -0.8990   -3.2761    1.2488 O   0  0  0  0  0  0  0  0  0  0  0  0
   -2.0943   -1.3897    0.9476 N   0  0  0  0  0  0  0  0  0  0  0  0
   -3.0137   -0.9445    0.9787 H   0  0  0  0  0  0  0  0  0  0  0  0
   -0.9112   -0.5305    1.0284 C   0  0  1  0  0  0  0  0  0  0  0  0
   -0.0927   -1.0088    1.5656 H   0  0  0  0  0  0  0  0  0  0  0  0
   -0.4823   -0.0951   -0.3861 C   0  0  0  0  0  0  0  0  0  0  0  0
   -1.3681    0.0051   -1.0237 H   0  0  0  0  0  0  0  0  0  0  0  0
   -0.0013    0.8887   -0.3479 H   0  0  0  0  0  0  0  0  0  0  0  0
    0.5011   -1.1000   -1.0092 C   0  0  0  0  0  0  0  0  0  0  0  0
    0.0861   -2.1135   -0.9751 H   0  0  0  0  0  0  0  0  0  0  0  0
    0.5789   -0.8403   -2.0707 H   0  0  0  0  0  0  0  0  0  0  0  0
    1.9155   -1.0499   -0.4426 C   0  0  0  0  0  0  0  0  0  0  0  0
    2.6381   -1.2681   -1.2366 H   0  0  0  0  0  0  0  0  0  0  0  0
    2.1295   -0.0585   -0.0286 H   0  0  0  0  0  0  0  0  0  0  0  0
    1.9557   -2.1043    0.5924 N   0  3  0  0  0  0  0  0  0  0  0  0
    1.0523   -2.5193    0.8511 H   0  0  0  0  0  0  0  0  0  0  0  0
    3.0340   -2.6367    1.0802 C   0  0  0  0  0  0  0  0  0  0  0  0
    4.2890   -2.1877    0.7395 N   0  0  0  0  0  0  0  0  0  0  0  0
    4.3593   -1.3156    0.2194 H   0  0  0  0  0  0  0  0  0  0  0  0
    5.0841   -2.4774    1.3053 H   0  0  0  0  0  0  0  0  0  0  0  0
    2.9039   -3.6815    1.9626 N   0  0  0  0  0  0  0  0  0  0  0  0
    1.9831   -4.1103    2.0627 H   0  0  0  0  0  0  0  0  0  0  0  0
    3.7202   -4.2584    2.1556 H   0  0  0  0  0  0  0  0  0  0  0  0
   -1.2799    0.7228    1.8540 C   0  0  0  0  0  0  0  0  0  0  0  0
   -2.3557    1.2732    1.6619 O   0  0  0  0  0  0  0  0  0  0  0  0
   -0.4357    1.2063    2.8381 N   0  0  0  0  0  0  0  0  0  0  0  0
    0.4150    0.6910    3.0373 H   0  0  0  0  0  0  0  0  0  0  0  0
   -0.7712    2.3534    3.6775 C   0  0  0  0  0  0  0  0  0  0  0  0
   -1.6736    2.1501    4.2643 H   0  0  0  0  0  0  0  0  0  0  0  0
    0.0482    2.5716    4.3693 H   0  0  0  0  0  0  0  0  0  0  0  0
   -0.9469    3.2423    3.0618 H   0  0  0  0  0  0  0  0  0  0  0  0
  1  2  1  0  0  0  0
  2  3  1  0  0  0  0
  2  4  1  0  0  0  0
  2  5  1  0  0  0  0
  5  6  2  0  0  0  0
  5  7  1  0  0  0  0
  7  8  1  0  0  0  0
  7  9  1  0  0  0  0
  9 10  1  0  0  0  0
  9 11  1  0  0  0  0
  9 29  1  0  0  0  0
 11 12  1  0  0  0  0
 11 13  1  0  0  0  0
 11 14  1  0  0  0  0
 14 15  1  0  0  0  0
 14 16  1  0  0  0  0
 14 17  1  0  0  0  0
 17 18  1  0  0  0  0
 17 19  1  0  0  0  0
 17 20  1  0  0  0  0
 20 21  1  0  0  0  0
 20 22  2  0  0  0  0
 22 23  1  0  0  0  0
 22 26  1  0  0  0  0
 23 24  1  0  0  0  0
 23 25  1  0  0  0  0
 26 27  1  0  0  0  0
 26 28  1  0  0  0  0
 29 30  2  0  0  0  0
 29 31  1  0  0  0  0
 31 32  1  0  0  0  0
 31 33  1  0  0  0  0
 33 34  1  0  0  0  0
 33 35  1  0  0  0  0
 33 36  1  0  0  0  0
M  CHG  1  20   1
M  END
$$$$

  -OEChem-03222214013D

 36 35  0     1  0  0  0  0  0999 V2000
   -3.9288   -4.0955    2.1108 H   0  0  0  0  0  0  0  0  0  0  0  0
   -3.9734   -3.0992    1.6624 C   0  0  0  0  0  0  0  0  0  0  0  0
   -4.6347   -2.4720    2.2653 H   0  0  0  0  0  0  0  0  0  0  0  0
   -4.3853   -3.1849    0.6539 H   0  0  0  0  0  0  0  0  0  0  0  0
   -2.5870   -2.4874    1.6072 C   0  0  0  0  0  0  0  0  0  0  0  0
   -1.6158   -3.1121    2.0147 O   0  0  0  0  0  0  0  0  0  0  0  0
   -2.4052   -1.2284    1.0727 N   0  0  0  0  0  0  0  0  0  0  0  0
   -3.2403   -0.7006    0.8141 H   0  0  0  0  0  0  0  0  0  0  0  0
   -1.1508   -0.4741    1.1857 C   0  0  1  0  0  0  0  0  0  0  0  0
   -0.5202   -0.8779    1.9808 H   0  0  0  0  0  0  0  0  0  0  0  0
   -0.4380   -0.5205   -0.1825 C   0  0  0  0  0  0  0  0  0  0  0  0
   -1.1818   -0.5307   -0.9874 H   0  0  0  0  0  0  0  0  0  0  0  0
    0.1540    0.3927   -0.3088 H   0  0  0  0  0  0  0  0  0  0  0  0
    0.5103   -1.7212   -0.3367 C   0  0  0  0  0  0  0  0  0  0  0  0
   -0.0831   -2.6389   -0.2593 H   0  0  0  0  0  0  0  0  0  0  0  0
    0.9446   -1.6916   -1.3419 H   0  0  0  0  0  0  0  0  0  0  0  0
    1.6384   -1.7622    0.6956 C   0  0  0  0  0  0  0  0  0  0  0  0
    2.2657   -0.8711    0.5838 H   0  0  0  0  0  0  0  0  0  0  0  0
    1.2152   -1.7728    1.7051 H   0  0  0  0  0  0  0  0  0  0  0  0
    2.4306   -2.9868    0.4817 N   0  3  0  0  0  0  0  0  0  0  0  0
    2.0229   -3.6952   -0.1275 H   0  0  0  0  0  0  0  0  0  0  0  0
    3.5554   -3.2425    1.0833 C   0  0  0  0  0  0  0  0  0  0  0  0
    4.1186   -2.3608    1.9771 N   0  0  0  0  0  0  0  0  0  0  0  0
    3.5458   -1.5824    2.2949 H   0  0  0  0  0  0  0  0  0  0  0  0
    4.8459   -2.7035    2.6016 H   0  0  0  0  0  0  0  0  0  0  0  0
    4.2051   -4.4262    0.8273 N   0  0  0  0  0  0  0  0  0  0  0  0
    3.8863   -5.0012    0.0497 H   0  0  0  0  0  0  0  0  0  0  0  0
    5.1717   -4.5269    1.1311 H   0  0  0  0  0  0  0  0  0  0  0  0
   -1.4790    0.9840    1.5721 C   0  0  0  0  0  0  0  0  0  0  0  0
   -2.3978    1.5609    1.0055 O   0  0  0  0  0  0  0  0  0  0  0  0
   -0.7657    1.6427    2.5578 N   0  0  0  0  0  0  0  0  0  0  0  0
   -0.1044    1.1022    3.1060 H   0  0  0  0  0  0  0  0  0  0  0  0
   -1.1017    2.9921    3.0034 C   0  0  0  0  0  0  0  0  0  0  0  0
   -2.1076    3.0140    3.4364 H   0  0  0  0  0  0  0  0  0  0  0  0
   -0.3904    3.3308    3.7629 H   0  0  0  0  0  0  0  0  0  0  0  0
   -1.0667    3.6944    2.1633 H   0  0  0  0  0  0  0  0  0  0  0  0
  1  2  1  0  0  0  0
  2  3  1  0  0  0  0
  2  4  1  0  0  0  0
  2  5  1  0  0  0  0
  5  6  2  0  0  0  0
  5  7  1  0  0  0  0
  7  8  1  0  0  0  0
  7  9  1  0  0  0  0
  9 10  1  0  0  0  0
  9 11  1  0  0  0  0
  9 29  1  0  0  0  0
 11 12  1  0  0  0  0
 11 13  1  0  0  0  0
 11 14  1  0  0  0  0
 14 15  1  0  0  0  0
 14 16  1  0  0  0  0
 14 17  1  0  0  0  0
 17 18  1  0  0  0  0
 17 19  1  0  0  0  0
 17 20  1  0  0  0  0
 20 21  1  0  0  0  0
 20 22  2  0  0  0  0
 22 23  1  0  0  0  0
 22 26  1  0  0  0  0
 23 24  1  0  0  0  0
 23 25  1  0  0  0  0
 26 27  1  0  0  0  0
 26 28  1  0  0  0  0
 29 30  2  0  0  0  0
 29 31  1  0  0  0  0
 31 32  1  0  0  0  0
 31 33  1  0  0  0  0
 33 34  1  0  0  0  0
 33 35  1  0  0  0  0
 33 36  1  0  0  0  0
M  CHG  1  20   1
M  END
$$$$

  -OEChem-03222214013D

 36 35  0     1  0  0  0  0  0999 V2000
   -3.1044   -4.2171    2.8610 H   0  0  0  0  0  0  0  0  0  0  0  0
   -3.3350   -3.2972    2.3167 C   0  0  0  0  0  0  0  0  0  0  0  0
   -4.0117   -2.6910    2.9243 H   0  0  0  0  0  0  0  0  0  0  0  0
   -3.8356   -3.5566    1.3804 H   0  0  0  0  0  0  0  0  0  0  0  0
   -2.0636   -2.5229    2.0276 C   0  0  0  0  0  0  0  0  0  0  0  0
   -0.9696   -2.9792    2.3485 O   0  0  0  0  0  0  0  0  0  0  0  0
   -2.1203   -1.3262    1.3459 N   0  0  0  0  0  0  0  0  0  0  0  0
   -3.0467   -0.9411    1.1507 H   0  0  0  0  0  0  0  0  0  0  0  0
   -0.9924   -0.3916    1.2514 C   0  0  1  0  0  0  0  0  0  0  0  0
   -0.2563   -0.5853    2.0324 H   0  0  0  0  0  0  0  0  0  0  0  0
   -0.3909   -0.5167   -0.1653 C   0  0  0  0  0  0  0  0  0  0  0  0
   -1.1848   -0.7153   -0.8943 H   0  0  0  0  0  0  0  0  0  0  0  0
    0.0501    0.4495   -0.4348 H   0  0  0  0  0  0  0  0  0  0  0  0
    0.7206   -1.5763   -0.3016 C   0  0  0  0  0  0  0  0  0  0  0  0
    0.2404   -2.5607   -0.3167 H   0  0  0  0  0  0  0  0  0  0  0  0
    1.2177   -1.4398   -1.2680 H   0  0  0  0  0  0  0  0  0  0  0  0
    1.7663   -1.5651    0.8177 C   0  0  0  0  0  0  0  0  0  0  0  0
    2.2962   -0.6061    0.8108 H   0  0  0  0  0  0  0  0  0  0  0  0
    1.2828   -1.6706    1.7929 H   0  0  0  0  0  0  0  0  0  0  0  0
    2.7217   -2.6709    0.6230 N   0  3  0  0  0  0  0  0  0  0  0  0
    3.4727   -2.5193   -0.0490 H   0  0  0  0  0  0  0  0  0  0  0  0
    2.6618   -3.8033    1.2663 C   0  0  0  0  0  0  0  0  0  0  0  0
    1.6650   -4.0937    2.1700 N   0  0  0  0  0  0  0  0  0  0  0  0
    0.8267   -3.5020    2.1728 H   0  0  0  0  0  0  0  0  0  0  0  0
    1.5451   -5.0586    2.4669 H   0  0  0  0  0  0  0  0  0  0  0  0
    3.6291   -4.7536    1.0425 N   0  0  0  0  0  0  0  0  0  0  0  0
    4.4679   -4.4866    0.5314 H   0  0  0  0  0  0  0  0  0  0  0  0
    3.6937   -5.5369    1.6898 H   0  0  0  0  0  0  0  0  0  0  0  0
   -1.5069    1.0417    1.5070 C   0  0  0  0  0  0  0  0  0  0  0  0
   -2.5722    1.3886    1.0143 O   0  0  0  0  0  0  0  0  0  0  0  0
   -0.8246    1.9118    2.3383 N   0  0  0  0  0  0  0  0  0  0  0  0
    0.0235    1.5823    2.7889 H   0  0  0  0  0  0  0  0  0  0  0  0
   -1.3171    3.2471    2.6641 C   0  0  0  0  0  0  0  0  0  0  0  0
   -2.2831    3.1860    3.1769 H   0  0  0  0  0  0  0  0  0  0  0  0
   -0.6101    3.7640    3.3206 H   0  0  0  0  0  0  0  0  0  0  0  0
   -1.4411    3.8439    1.7538 H   0  0  0  0  0  0  0  0  0  0  0  0
  1  2  1  0  0  0  0
  2  3  1  0  0  0  0
  2  4  1  0  0  0  0
  2  5  1  0  0  0  0
  5  6  2  0  0  0  0
  5  7  1  0  0  0  0
  7  8  1  0  0  0  0
  7  9  1  0  0  0  0
  9 10  1  0  0  0  0
  9 11  1  0  0  0  0
  9 29  1  0  0  0  0
 11 12  1  0  0  0  0
 11 13  1  0  0  0  0
 11 14  1  0  0  0  0
 14 15  1  0  0  0  0
 14 16  1  0  0  0  0
 14 17  1  0  0  0  0
 17 18  1  0  0  0  0
 17 19  1  0  0  0  0
 17 20  1  0  0  0  0
 20 21  1  0  0  0  0
 20 22  2  0  0  0  0
 22 23  1  0  0  0  0
 22 26  1  0  0  0  0
 23 24  1  0  0  0  0
 23 25  1  0  0  0  0
 26 27  1  0  0  0  0
 26 28  1  0  0  0  0
 29 30  2  0  0  0  0
 29 31  1  0  0  0  0
 31 32  1  0  0  0  0
 31 33  1  0  0  0  0
 33 34  1  0  0  0  0
 33 35  1  0  0  0  0
 33 36  1  0  0  0  0
M  CHG  1  20   1
M  END
$$$$

  -OEChem-03222214013D

 36 35  0     1  0  0  0  0  0999 V2000
   -3.3999   -4.1292    2.8337 H   0  0  0  0  0  0  0  0  0  0  0  0
   -3.5472   -3.2166    2.2498 C   0  0  0  0  0  0  0  0  0  0  0  0
   -4.2403   -2.5645    2.7877 H   0  0  0  0  0  0  0  0  0  0  0  0
   -3.9865   -3.4816    1.2848 H   0  0  0  0  0  0  0  0  0  0  0  0
   -2.2248   -2.5050    2.0404 C   0  0  0  0  0  0  0  0  0  0  0  0
   -1.1820   -3.0043    2.4496 O   0  0  0  0  0  0  0  0  0  0  0  0
   -2.1856   -1.3191    1.3400 N   0  0  0  0  0  0  0  0  0  0  0  0
   -3.0839   -0.9160    1.0657 H   0  0  0  0  0  0  0  0  0  0  0  0
   -1.0324   -0.4094    1.2937 C   0  0  1  0  0  0  0  0  0  0  0  0
   -0.3447   -0.6012    2.1191 H   0  0  0  0  0  0  0  0  0  0  0  0
   -0.3542   -0.5683   -0.0870 C   0  0  0  0  0  0  0  0  0  0  0  0
   -1.1133   -0.7437   -0.8579 H   0  0  0  0  0  0  0  0  0  0  0  0
    0.1194    0.3896   -0.3300 H   0  0  0  0  0  0  0  0  0  0  0  0
    0.7525   -1.6415   -0.1936 C   0  0  0  0  0  0  0  0  0  0  0  0
    0.2648   -2.5791   -0.4818 H   0  0  0  0  0  0  0  0  0  0  0  0
    1.4372   -1.3669   -1.0031 H   0  0  0  0  0  0  0  0  0  0  0  0
    1.5469   -1.9073    1.0893 C   0  0  0  0  0  0  0  0  0  0  0  0
    2.1183   -1.0106    1.3524 H   0  0  0  0  0  0  0  0  0  0  0  0
    0.8666   -2.1192    1.9173 H   0  0  0  0  0  0  0  0  0  0  0  0
    2.4635   -3.0455    0.8901 N   0  3  0  0  0  0  0  0  0  0  0  0
    3.2528   -2.8980    0.2629 H   0  0  0  0  0  0  0  0  0  0  0  0
    2.3200   -4.2041    1.4697 C   0  0  0  0  0  0  0  0  0  0  0  0
    1.2721   -4.4870    2.3152 N   0  0  0  0  0  0  0  0  0  0  0  0
    0.4814   -3.8333    2.3393 H   0  0  0  0  0  0  0  0  0  0  0  0
    1.0765   -5.4586    2.5405 H   0  0  0  0  0  0  0  0  0  0  0  0
    3.2466   -5.1917    1.2349 N   0  0  0  0  0  0  0  0  0  0  0  0
    4.1181   -4.9431    0.7715 H   0  0  0  0  0  0  0  0  0  0  0  0
    3.2487   -6.0039    1.8490 H   0  0  0  0  0  0  0  0  0  0  0  0
   -1.5334    1.0387    1.4872 C   0  0  0  0  0  0  0  0  0  0  0  0
   -2.5571    1.3961    0.9192 O   0  0  0  0  0  0  0  0  0  0  0  0
   -0.8847    1.9135    2.3400 N   0  0  0  0  0  0  0  0  0  0  0  0
   -0.0727    1.5771    2.8485 H   0  0  0  0  0  0  0  0  0  0  0  0
   -1.3594    3.2697    2.5978 C   0  0  0  0  0  0  0  0  0  0  0  0
   -2.3687    3.2494    3.0231 H   0  0  0  0  0  0  0  0  0  0  0  0
   -0.6969    3.7765    3.3066 H   0  0  0  0  0  0  0  0  0  0  0  0
   -1.3811    3.8514    1.6699 H   0  0  0  0  0  0  0  0  0  0  0  0
  1  2  1  0  0  0  0
  2  3  1  0  0  0  0
  2  4  1  0  0  0  0
  2  5  1  0  0  0  0
  5  6  2  0  0  0  0
  5  7  1  0  0  0  0
  7  8  1  0  0  0  0
  7  9  1  0  0  0  0
  9 10  1  0  0  0  0
  9 11  1  0  0  0  0
  9 29  1  0  0  0  0
 11 12  1  0  0  0  0
 11 13  1  0  0  0  0
 11 14  1  0  0  0  0
 14 15  1  0  0  0  0
 14 16  1  0  0  0  0
 14 17  1  0  0  0  0
 17 18  1  0  0  0  0
 17 19  1  0  0  0  0
 17 20  1  0  0  0  0
 20 21  1  0  0  0  0
 20 22  2  0  0  0  0
 22 23  1  0  0  0  0
 22 26  1  0  0  0  0
 23 24  1  0  0  0  0
 23 25  1  0  0  0  0
 26 27  1  0  0  0  0
 26 28  1  0  0  0  0
 29 30  2  0  0  0  0
 29 31  1  0  0  0  0
 31 32  1  0  0  0  0
 31 33  1  0  0  0  0
 33 34  1  0  0  0  0
 33 35  1  0  0  0  0
 33 36  1  0  0  0  0
M  CHG  1  20   1
M  END
$$$$

  -OEChem-03222214013D

 36 35  0     1  0  0  0  0  0999 V2000
   -3.7135   -4.0701    2.6782 H   0  0  0  0  0  0  0  0  0  0  0  0
   -3.7512   -3.1504    2.0880 C   0  0  0  0  0  0  0  0  0  0  0  0
   -4.4667   -2.4663    2.5518 H   0  0  0  0  0  0  0  0  0  0  0  0
   -4.0950   -3.3924    1.0791 H   0  0  0  0  0  0  0  0  0  0  0  0
   -2.3808   -2.5032    2.0295 C   0  0  0  0  0  0  0  0  0  0  0  0
   -1.4261   -3.0476    2.5690 O   0  0  0  0  0  0  0  0  0  0  0  0
   -2.2217   -1.3162    1.3470 N   0  0  0  0  0  0  0  0  0  0  0  0
   -3.0774   -0.8910    0.9838 H   0  0  0  0  0  0  0  0  0  0  0  0
   -1.0394   -0.4371    1.3451 C   0  0  1  0  0  0  0  0  0  0  0  0
   -0.3810   -0.6539    2.1896 H   0  0  0  0  0  0  0  0  0  0  0  0
   -0.3117   -0.5819   -0.0169 C   0  0  0  0  0  0  0  0  0  0  0  0
   -1.0537   -0.7189   -0.8121 H   0  0  0  0  0  0  0  0  0  0  0  0
    0.1814    0.3753   -0.2208 H   0  0  0  0  0  0  0  0  0  0  0  0
    0.7873   -1.6629   -0.1544 C   0  0  0  0  0  0  0  0  0  0  0  0
    0.3517   -2.4839   -0.7345 H   0  0  0  0  0  0  0  0  0  0  0  0
    1.6207   -1.2590   -0.7394 H   0  0  0  0  0  0  0  0  0  0  0  0
    1.3156   -2.2515    1.1554 C   0  0  0  0  0  0  0  0  0  0  0  0
    1.9546   -1.5122    1.6508 H   0  0  0  0  0  0  0  0  0  0  0  0
    0.4844   -2.4626    1.8228 H   0  0  0  0  0  0  0  0  0  0  0  0
    2.0805   -3.4859    0.8984 N   0  3  0  0  0  0  0  0  0  0  0  0
    2.8252   -3.4332    0.2052 H   0  0  0  0  0  0  0  0  0  0  0  0
    1.8727   -4.6088    1.5270 C   0  0  0  0  0  0  0  0  0  0  0  0
    0.8852   -4.7566    2.4739 N   0  0  0  0  0  0  0  0  0  0  0  0
    0.1618   -4.0311    2.5289 H   0  0  0  0  0  0  0  0  0  0  0  0
    0.6204   -5.6956    2.7591 H   0  0  0  0  0  0  0  0  0  0  0  0
    2.6667   -5.6947    1.2451 N   0  0  0  0  0  0  0  0  0  0  0  0
    3.5107   -5.5545    0.6939 H   0  0  0  0  0  0  0  0  0  0  0  0
    2.6371   -6.4908    1.8792 H   0  0  0  0  0  0  0  0  0  0  0  0
   -1.5219    1.0211    1.5125 C   0  0  0  0  0  0  0  0  0  0  0  0
   -2.5134    1.3930    0.8978 O   0  0  0  0  0  0  0  0  0  0  0  0
   -0.8963    1.8898    2.3885 N   0  0  0  0  0  0  0  0  0  0  0  0
   -0.1116    1.5433    2.9324 H   0  0  0  0  0  0  0  0  0  0  0  0
   -1.3620    3.2541    2.6204 C   0  0  0  0  0  0  0  0  0  0  0  0
   -2.3763    3.2486    3.0337 H   0  0  0  0  0  0  0  0  0  0  0  0
   -0.7033    3.7660    3.3287 H   0  0  0  0  0  0  0  0  0  0  0  0
   -1.3682    3.8226    1.6842 H   0  0  0  0  0  0  0  0  0  0  0  0
  1  2  1  0  0  0  0
  2  3  1  0  0  0  0
  2  4  1  0  0  0  0
  2  5  1  0  0  0  0
  5  6  2  0  0  0  0
  5  7  1  0  0  0  0
  7  8  1  0  0  0  0
  7  9  1  0  0  0  0
  9 10  1  0  0  0  0
  9 11  1  0  0  0  0
  9 29  1  0  0  0  0
 11 12  1  0  0  0  0
 11 13  1  0  0  0  0
 11 14  1  0  0  0  0
 14 15  1  0  0  0  0
 14 16  1  0  0  0  0
 14 17  1  0  0  0  0
 17 18  1  0  0  0  0
 17 19  1  0  0  0  0
 17 20  1  0  0  0  0
 20 21  1  0  0  0  0
 20 22  2  0  0  0  0
 22 23  1  0  0  0  0
 22 26  1  0  0  0  0
 23 24  1  0  0  0  0
 23 25  1  0  0  0  0
 26 27  1  0  0  0  0
 26 28  1  0  0  0  0
 29 30  2  0  0  0  0
 29 31  1  0  0  0  0
 31 32  1  0  0  0  0
 31 33  1  0  0  0  0
 33 34  1  0  0  0  0
 33 35  1  0  0  0  0
 33 36  1  0  0  0  0
M  CHG  1  20   1
M  END
$$$$

  -OEChem-03222214013D

 36 35  0     1  0  0  0  0  0999 V2000
   -4.0342   -3.9760    2.5720 H   0  0  0  0  0  0  0  0  0  0  0  0
   -3.9899   -3.0422    2.0048 C   0  0  0  0  0  0  0  0  0  0  0  0
   -4.6839   -2.3270    2.4541 H   0  0  0  0  0  0  0  0  0  0  0  0
   -4.3005   -3.2392    0.9757 H   0  0  0  0  0  0  0  0  0  0  0  0
   -2.5825   -2.4771    2.0242 C   0  0  0  0  0  0  0  0  0  0  0  0
   -1.7038   -3.0674    2.6424 O   0  0  0  0  0  0  0  0  0  0  0  0
   -2.3251   -1.2946    1.3578 N   0  0  0  0  0  0  0  0  0  0  0  0
   -3.1383   -0.8214    0.9583 H   0  0  0  0  0  0  0  0  0  0  0  0
   -1.0829   -0.4988    1.3690 C   0  0  1  0  0  0  0  0  0  0  0  0
   -0.4402   -0.7746    2.2096 H   0  0  0  0  0  0  0  0  0  0  0  0
   -0.3382   -0.6081    0.0033 C   0  0  0  0  0  0  0  0  0  0  0  0
   -1.0873   -0.6794   -0.7936 H   0  0  0  0  0  0  0  0  0  0  0  0
    0.1969    0.3338   -0.1647 H   0  0  0  0  0  0  0  0  0  0  0  0
    0.7039   -1.7370   -0.1942 C   0  0  0  0  0  0  0  0  0  0  0  0
    0.3839   -2.3517   -1.0426 H   0  0  0  0  0  0  0  0  0  0  0  0
    1.6712   -1.2944   -0.4554 H   0  0  0  0  0  0  0  0  0  0  0  0
    0.8741   -2.6310    1.0225 C   0  0  0  0  0  0  0  0  0  0  0  0
    1.3086   -2.0555    1.8470 H   0  0  0  0  0  0  0  0  0  0  0  0
   -0.1201   -2.9545    1.3061 H   0  0  0  0  0  0  0  0  0  0  0  0
    1.6823   -3.8310    0.7599 N   0  3  0  0  0  0  0  0  0  0  0  0
    2.4144   -3.7699    0.0540 H   0  0  0  0  0  0  0  0  0  0  0  0
    1.4859   -4.9442    1.4086 C   0  0  0  0  0  0  0  0  0  0  0  0
    0.5044   -5.0655    2.3709 N   0  0  0  0  0  0  0  0  0  0  0  0
   -0.1773   -4.3050    2.4744 H   0  0  0  0  0  0  0  0  0  0  0  0
    0.2278   -5.9931    2.6815 H   0  0  0  0  0  0  0  0  0  0  0  0
    2.2745   -6.0360    1.1344 N   0  0  0  0  0  0  0  0  0  0  0  0
    3.1150   -5.9038    0.5756 H   0  0  0  0  0  0  0  0  0  0  0  0
    2.2484   -6.8243    1.7785 H   0  0  0  0  0  0  0  0  0  0  0  0
   -1.4834    0.9833    1.5530 C   0  0  0  0  0  0  0  0  0  0  0  0
   -2.4397    1.4252    0.9283 O   0  0  0  0  0  0  0  0  0  0  0  0
   -0.8120    1.8022    2.4427 N   0  0  0  0  0  0  0  0  0  0  0  0
   -0.0587    1.3994    2.9921 H   0  0  0  0  0  0  0  0  0  0  0  0
   -1.1864    3.1932    2.6814 C   0  0  0  0  0  0  0  0  0  0  0  0
   -2.2047    3.2542    3.0803 H   0  0  0  0  0  0  0  0  0  0  0  0
   -0.5046    3.6523    3.4041 H   0  0  0  0  0  0  0  0  0  0  0  0
   -1.1395    3.7691    1.7508 H   0  0  0  0  0  0  0  0  0  0  0  0
  1  2  1  0  0  0  0
  2  3  1  0  0  0  0
  2  4  1  0  0  0  0
  2  5  1  0  0  0  0
  5  6  2  0  0  0  0
  5  7  1  0  0  0  0
  7  8  1  0  0  0  0
  7  9  1  0  0  0  0
  9 10  1  0  0  0  0
  9 11  1  0  0  0  0
  9 29  1  0  0  0  0
 11 12  1  0  0  0  0
 11 13  1  0  0  0  0
 11 14  1  0  0  0  0
 14 15  1  0  0  0  0
 14 16  1  0  0  0  0
 14 17  1  0  0  0  0
 17 18  1  0  0  0  0
 17 19  1  0  0  0  0
 17 20  1  0  0  0  0
 20 21  1  0  0  0  0
 20 22  2  0  0  0  0
 22 23  1  0  0  0  0
 22 26  1  0  0  0  0
 23 24  1  0  0  0  0
 23 25  1  0  0  0  0
 26 27  1  0  0  0  0
 26 28  1  0  0  0  0
 29 30  2  0  0  0  0
 29 31  1  0  0  0  0
 31 32  1  0  0  0  0
 31 33  1  0  0  0  0
 33 34  1  0  0  0  0
 33 35  1  0  0  0  0
 33 36  1  0  0  0  0
M  CHG  1  20   1
M  END
$$$$

  -OEChem-03222214013D

 36 35  0     1  0  0  0  0  0999 V2000
   -4.3130   -3.8946    2.3406 H   0  0  0  0  0  0  0  0  0  0  0  0
   -4.2178   -2.9344    1.8264 C   0  0  0  0  0  0  0  0  0  0  0  0
   -4.8617   -2.2051    2.3250 H   0  0  0  0  0  0  0  0  0  0  0  0
   -4.5515   -3.0534    0.7925 H   0  0  0  0  0  0  0  0  0  0  0  0
   -2.7778   -2.4593    1.8570 C   0  0  0  0  0  0  0  0  0  0  0  0
   -1.9252   -3.1414    2.4175 O   0  0  0  0  0  0  0  0  0  0  0  0
   -2.4525   -1.2576    1.2577 N   0  0  0  0  0  0  0  0  0  0  0  0
   -3.2347   -0.7023    0.9042 H   0  0  0  0  0  0  0  0  0  0  0  0
   -1.1540   -0.5606    1.3074 C   0  0  1  0  0  0  0  0  0  0  0  0
   -0.5319   -0.9330    2.1256 H   0  0  0  0  0  0  0  0  0  0  0  0
   -0.4085   -0.6352   -0.0592 C   0  0  0  0  0  0  0  0  0  0  0  0
   -1.1646   -0.6260   -0.8526 H   0  0  0  0  0  0  0  0  0  0  0  0
    0.1853    0.2770   -0.1901 H   0  0  0  0  0  0  0  0  0  0  0  0
    0.5450   -1.8299   -0.3072 C   0  0  0  0  0  0  0  0  0  0  0  0
    0.4021   -2.1968   -1.3294 H   0  0  0  0  0  0  0  0  0  0  0  0
    1.5778   -1.4744   -0.2245 H   0  0  0  0  0  0  0  0  0  0  0  0
    0.3452   -2.9648    0.6825 C   0  0  0  0  0  0  0  0  0  0  0  0
    0.4686   -2.5803    1.6997 H   0  0  0  0  0  0  0  0  0  0  0  0
   -0.6828   -3.3186    0.5642 H   0  0  0  0  0  0  0  0  0  0  0  0
    1.2502   -4.1067    0.4955 N   0  3  0  0  0  0  0  0  0  0  0  0
    1.9150   -4.0766   -0.2758 H   0  0  0  0  0  0  0  0  0  0  0  0
    1.1630   -5.1591    1.2584 C   0  0  0  0  0  0  0  0  0  0  0  0
    0.2414   -5.2293    2.2827 N   0  0  0  0  0  0  0  0  0  0  0  0
   -0.4713   -4.4927    2.3428 H   0  0  0  0  0  0  0  0  0  0  0  0
    0.0228   -6.1348    2.6903 H   0  0  0  0  0  0  0  0  0  0  0  0
    1.9998   -6.2288    1.0472 N   0  0  0  0  0  0  0  0  0  0  0  0
    2.7965   -6.1099    0.4250 H   0  0  0  0  0  0  0  0  0  0  0  0
    2.0609   -6.9430    1.7706 H   0  0  0  0  0  0  0  0  0  0  0  0
   -1.4394    0.9321    1.5894 C   0  0  0  0  0  0  0  0  0  0  0  0
   -2.3673    1.4840    1.0110 O   0  0  0  0  0  0  0  0  0  0  0  0
   -0.7011    1.6357    2.5237 N   0  0  0  0  0  0  0  0  0  0  0  0
    0.0275    1.1421    3.0307 H   0  0  0  0  0  0  0  0  0  0  0  0
   -0.9701    3.0295    2.8646 C   0  0  0  0  0  0  0  0  0  0  0  0
   -1.9760    3.1354    3.2849 H   0  0  0  0  0  0  0  0  0  0  0  0
   -0.2474    3.3856    3.6054 H   0  0  0  0  0  0  0  0  0  0  0  0
   -0.8926    3.6650    1.9757 H   0  0  0  0  0  0  0  0  0  0  0  0
  1  2  1  0  0  0  0
  2  3  1  0  0  0  0
  2  4  1  0  0  0  0
  2  5  1  0  0  0  0
  5  6  2  0  0  0  0
  5  7  1  0  0  0  0
  7  8  1  0  0  0  0
  7  9  1  0  0  0  0
  9 10  1  0  0  0  0
  9 11  1  0  0  0  0
  9 29  1  0  0  0  0
 11 12  1  0  0  0  0
 11 13  1  0  0  0  0
 11 14  1  0  0  0  0
 14 15  1  0  0  0  0
 14 16  1  0  0  0  0
 14 17  1  0  0  0  0
 17 18  1  0  0  0  0
 17 19  1  0  0  0  0
 17 20  1  0  0  0  0
 20 21  1  0  0  0  0
 20 22  2  0  0  0  0
 22 23  1  0  0  0  0
 22 26  1  0  0  0  0
 23 24  1  0  0  0  0
 23 25  1  0  0  0  0
 26 27  1  0  0  0  0
 26 28  1  0  0  0  0
 29 30  2  0  0  0  0
 29 31  1  0  0  0  0
 31 32  1  0  0  0  0
 31 33  1  0  0  0  0
 33 34  1  0  0  0  0
 33 35  1  0  0  0  0
 33 36  1  0  0  0  0
M  CHG  1  20   1
M  END
$$$$

  -OEChem-03222214013D

 36 35  0     1  0  0  0  0  0999 V2000
   -4.4554   -3.8581    2.1965 H   0  0  0  0  0  0  0  0  0  0  0  0
   -4.3185   -2.8875    1.7120 C   0  0  0  0  0  0  0  0  0  0  0  0
   -4.9379   -2.1487    2.2274 H   0  0  0  0  0  0  0  0  0  0  0  0
   -4.6476   -2.9628    0.6727 H   0  0  0  0  0  0  0  0  0  0  0  0
   -2.8616   -2.4696    1.7682 C   0  0  0  0  0  0  0  0  0  0  0  0
   -2.0442   -3.2002    2.3167 O   0  0  0  0  0  0  0  0  0  0  0  0
   -2.4867   -1.2642    1.2077 N   0  0  0  0  0  0  0  0  0  0  0  0
   -3.2494   -0.6763    0.8641 H   0  0  0  0  0  0  0  0  0  0  0  0
   -1.1708   -0.5984    1.2770 C   0  0  1  0  0  0  0  0  0  0  0  0
   -0.5569   -1.0169    2.0805 H   0  0  0  0  0  0  0  0  0  0  0  0
   -0.4187   -0.6597   -0.0856 C   0  0  0  0  0  0  0  0  0  0  0  0
   -1.1705   -0.6262   -0.8821 H   0  0  0  0  0  0  0  0  0  0  0  0
    0.1948    0.2416   -0.2008 H   0  0  0  0  0  0  0  0  0  0  0  0
    0.5067   -1.8703   -0.3398 C   0  0  0  0  0  0  0  0  0  0  0  0
    0.5738   -2.0522   -1.4179 H   0  0  0  0  0  0  0  0  0  0  0  0
    1.5110   -1.6216    0.0197 H   0  0  0  0  0  0  0  0  0  0  0  0
    0.0393   -3.1252    0.3735 C   0  0  0  0  0  0  0  0  0  0  0  0
   -0.0076   -2.9020    1.4428 H   0  0  0  0  0  0  0  0  0  0  0  0
   -0.9692   -3.3726    0.0246 H   0  0  0  0  0  0  0  0  0  0  0  0
    0.9246   -4.2832    0.1841 N   0  3  0  0  0  0  0  0  0  0  0  0
    1.6734   -4.2093   -0.5025 H   0  0  0  0  0  0  0  0  0  0  0  0
    0.7825   -5.3661    0.8943 C   0  0  0  0  0  0  0  0  0  0  0  0
   -0.2181   -5.4845    1.8357 N   0  0  0  0  0  0  0  0  0  0  0  0
   -0.7889   -4.6572    2.0449 H   0  0  0  0  0  0  0  0  0  0  0  0
   -0.1485   -6.2070    2.5476 H   0  0  0  0  0  0  0  0  0  0  0  0
    1.6450   -6.4208    0.7128 N   0  0  0  0  0  0  0  0  0  0  0  0
    2.2548   -6.4174   -0.1021 H   0  0  0  0  0  0  0  0  0  0  0  0
    1.3955   -7.3210    1.1183 H   0  0  0  0  0  0  0  0  0  0  0  0
   -1.4210    0.8927    1.5958 C   0  0  0  0  0  0  0  0  0  0  0  0
   -2.3392    1.4782    1.0352 O   0  0  0  0  0  0  0  0  0  0  0  0
   -0.6683    1.5546    2.5485 N   0  0  0  0  0  0  0  0  0  0  0  0
    0.0461    1.0301    3.0448 H   0  0  0  0  0  0  0  0  0  0  0  0
   -0.9246    2.9361    2.9446 C   0  0  0  0  0  0  0  0  0  0  0  0
   -1.9317    3.0351    3.3637 H   0  0  0  0  0  0  0  0  0  0  0  0
   -0.2028    3.2541    3.7032 H   0  0  0  0  0  0  0  0  0  0  0  0
   -0.8364    3.6063    2.0828 H   0  0  0  0  0  0  0  0  0  0  0  0
  1  2  1  0  0  0  0
  2  3  1  0  0  0  0
  2  4  1  0  0  0  0
  2  5  1  0  0  0  0
  5  6  2  0  0  0  0
  5  7  1  0  0  0  0
  7  8  1  0  0  0  0
  7  9  1  0  0  0  0
  9 10  1  0  0  0  0
  9 11  1  0  0  0  0
  9 29  1  0  0  0  0
 11 12  1  0  0  0  0
 11 13  1  0  0  0  0
 11 14  1  0  0  0  0
 14 15  1  0  0  0  0
 14 16  1  0  0  0  0
 14 17  1  0  0  0  0
 17 18  1  0  0  0  0
 17 19  1  0  0  0  0
 17 20  1  0  0  0  0
 20 21  1  0  0  0  0
 20 22  2  0  0  0  0
 22 23  1  0  0  0  0
 22 26  1  0  0  0  0
 23 24  1  0  0  0  0
 23 25  1  0  0  0  0
 26 27  1  0  0  0  0
 26 28  1  0  0  0  0
 29 30  2  0  0  0  0
 29 31  1  0  0  0  0
 31 32  1  0  0  0  0
 31 33  1  0  0  0  0
 33 34  1  0  0  0  0
 33 35  1  0  0  0  0
 33 36  1  0  0  0  0
M  CHG  1  20   1
M  END
$$$$

  -OEChem-03222214013D

 36 35  0     1  0  0  0  0  0999 V2000
   -4.6083   -3.8191    2.0359 H   0  0  0  0  0  0  0  0  0  0  0  0
   -4.4239   -2.8446    1.5754 C   0  0  0  0  0  0  0  0  0  0  0  0
   -5.0171   -2.0920    2.1016 H   0  0  0  0  0  0  0  0  0  0  0  0
   -4.7434   -2.8813    0.5310 H   0  0  0  0  0  0  0  0  0  0  0  0
   -2.9514   -2.4912    1.6574 C   0  0  0  0  0  0  0  0  0  0  0  0
   -2.1730   -3.2821    2.1763 O   0  0  0  0  0  0  0  0  0  0  0  0
   -2.5258   -1.2794    1.1482 N   0  0  0  0  0  0  0  0  0  0  0  0
   -3.2677   -0.6547    0.8244 H   0  0  0  0  0  0  0  0  0  0  0  0
   -1.1934   -0.6477    1.2514 C   0  0  1  0  0  0  0  0  0  0  0  0
   -0.5994   -1.1183    2.0414 H   0  0  0  0  0  0  0  0  0  0  0  0
   -0.4224   -0.6769   -0.1015 C   0  0  0  0  0  0  0  0  0  0  0  0
   -1.1550   -0.5941   -0.9121 H   0  0  0  0  0  0  0  0  0  0  0  0
    0.2196    0.2091   -0.1678 H   0  0  0  0  0  0  0  0  0  0  0  0
    0.4756   -1.8999   -0.3708 C   0  0  0  0  0  0  0  0  0  0  0  0
    0.7637   -1.9047   -1.4274 H   0  0  0  0  0  0  0  0  0  0  0  0
    1.3903   -1.8118    0.2252 H   0  0  0  0  0  0  0  0  0  0  0  0
   -0.2195   -3.1968   -0.0142 C   0  0  0  0  0  0  0  0  0  0  0  0
   -0.3907   -3.1591    1.0602 H   0  0  0  0  0  0  0  0  0  0  0  0
   -1.1851   -3.2488   -0.5289 H   0  0  0  0  0  0  0  0  0  0  0  0
    0.5770   -4.3969   -0.3088 N   0  3  0  0  0  0  0  0  0  0  0  0
    1.1405   -4.3981   -1.1574 H   0  0  0  0  0  0  0  0  0  0  0  0
    0.4876   -5.4736    0.4202 C   0  0  0  0  0  0  0  0  0  0  0  0
   -0.3126   -5.5308    1.5424 N   0  0  0  0  0  0  0  0  0  0  0  0
   -0.9403   -4.7425    1.7383 H   0  0  0  0  0  0  0  0  0  0  0  0
   -0.5454   -6.4359    1.9429 H   0  0  0  0  0  0  0  0  0  0  0  0
    1.2053   -6.5921    0.0701 N   0  0  0  0  0  0  0  0  0  0  0  0
    1.9342   -6.5042   -0.6347 H   0  0  0  0  0  0  0  0  0  0  0  0
    1.2881   -7.3440    0.7517 H   0  0  0  0  0  0  0  0  0  0  0  0
   -1.4076    0.8378    1.6187 C   0  0  0  0  0  0  0  0  0  0  0  0
   -2.3040    1.4641    1.0670 O   0  0  0  0  0  0  0  0  0  0  0  0
   -0.6476    1.4497    2.5988 N   0  0  0  0  0  0  0  0  0  0  0  0
    0.0527    0.8935    3.0810 H   0  0  0  0  0  0  0  0  0  0  0  0
   -0.8538    2.8331    3.0177 C   0  0  0  0  0  0  0  0  0  0  0  0
   -1.8581    2.9626    3.4354 H   0  0  0  0  0  0  0  0  0  0  0  0
   -0.1231    3.1112    3.7835 H   0  0  0  0  0  0  0  0  0  0  0  0
   -0.7370    3.5145    2.1680 H   0  0  0  0  0  0  0  0  0  0  0  0
  1  2  1  0  0  0  0
  2  3  1  0  0  0  0
  2  4  1  0  0  0  0
  2  5  1  0  0  0  0
  5  6  2  0  0  0  0
  5  7  1  0  0  0  0
  7  8  1  0  0  0  0
  7  9  1  0  0  0  0
  9 10  1  0  0  0  0
  9 11  1  0  0  0  0
  9 29  1  0  0  0  0
 11 12  1  0  0  0  0
 11 13  1  0  0  0  0
 11 14  1  0  0  0  0
 14 15  1  0  0  0  0
 14 16  1  0  0  0  0
 14 17  1  0  0  0  0
 17 18  1  0  0  0  0
 17 19  1  0  0  0  0
 17 20  1  0  0  0  0
 20 21  1  0  0  0  0
 20 22  2  0  0  0  0
 22 23  1  0  0  0  0
 22 26  1  0  0  0  0
 23 24  1  0  0  0  0
 23 25  1  0  0  0  0
 26 27  1  0  0  0  0
 26 28  1  0  0  0  0
 29 30  2  0  0  0  0
 29 31  1  0  0  0  0
 31 32  1  0  0  0  0
 31 33  1  0  0  0  0
 33 34  1  0  0  0  0
 33 35  1  0  0  0  0
 33 36  1  0  0  0  0
M  CHG  1  20   1
M  END
$$$$

  -OEChem-03222214013D

 36 35  0     1  0  0  0  0  0999 V2000
   -4.6961   -3.8364    1.8600 H   0  0  0  0  0  0  0  0  0  0  0  0
   -4.5139   -2.8410    1.4452 C   0  0  0  0  0  0  0  0  0  0  0  0
   -5.0882   -2.1112    2.0220 H   0  0  0  0  0  0  0  0  0  0  0  0
   -4.8574   -2.8220    0.4079 H   0  0  0  0  0  0  0  0  0  0  0  0
   -3.0367   -2.5040    1.5101 C   0  0  0  0  0  0  0  0  0  0  0  0
   -2.2436   -3.3148    1.9751 O   0  0  0  0  0  0  0  0  0  0  0  0
   -2.5984   -1.2765    1.0579 N   0  0  0  0  0  0  0  0  0  0  0  0
   -3.3218   -0.6036    0.7952 H   0  0  0  0  0  0  0  0  0  0  0  0
   -1.2357   -0.7286    1.1774 C   0  0  1  0  0  0  0  0  0  0  0  0
   -0.6504   -1.2798    1.9202 H   0  0  0  0  0  0  0  0  0  0  0  0
   -0.4797   -0.6747   -0.1794 C   0  0  0  0  0  0  0  0  0  0  0  0
   -1.2032   -0.4647   -0.9750 H   0  0  0  0  0  0  0  0  0  0  0  0
    0.2190    0.1698   -0.1591 H   0  0  0  0  0  0  0  0  0  0  0  0
    0.3463   -1.9147   -0.5654 C   0  0  0  0  0  0  0  0  0  0  0  0
    0.8523   -1.7230   -1.5175 H   0  0  0  0  0  0  0  0  0  0  0  0
    1.1192   -2.0627    0.1964 H   0  0  0  0  0  0  0  0  0  0  0  0
   -0.4869   -3.1856   -0.6850 C   0  0  0  0  0  0  0  0  0  0  0  0
   -1.1208   -3.2807    0.1875 H   0  0  0  0  0  0  0  0  0  0  0  0
   -1.1405   -3.1088   -1.5611 H   0  0  0  0  0  0  0  0  0  0  0  0
    0.3843   -4.3689   -0.8047 N   0  3  0  0  0  0  0  0  0  0  0  0
    1.0492   -4.3760   -1.5764 H   0  0  0  0  0  0  0  0  0  0  0  0
    0.3293   -5.3949   -0.0024 C   0  0  0  0  0  0  0  0  0  0  0  0
   -0.5361   -5.4612    1.0663 N   0  0  0  0  0  0  0  0  0  0  0  0
   -1.0612   -4.6196    1.3273 H   0  0  0  0  0  0  0  0  0  0  0  0
   -0.3729   -6.1552    1.7910 H   0  0  0  0  0  0  0  0  0  0  0  0
    1.1662   -6.4624   -0.2238 N   0  0  0  0  0  0  0  0  0  0  0  0
    1.6605   -6.5170   -1.1118 H   0  0  0  0  0  0  0  0  0  0  0  0
    0.9713   -7.3339    0.2653 H   0  0  0  0  0  0  0  0  0  0  0  0
   -1.3780    0.7372    1.6488 C   0  0  0  0  0  0  0  0  0  0  0  0
   -2.2450    1.4441    1.1496 O   0  0  0  0  0  0  0  0  0  0  0  0
   -0.5785    1.2459    2.6560 N   0  0  0  0  0  0  0  0  0  0  0  0
    0.0944    0.6244    3.0950 H   0  0  0  0  0  0  0  0  0  0  0  0
   -0.7138    2.6069    3.1673 C   0  0  0  0  0  0  0  0  0  0  0  0
   -1.7057    2.7555    3.6078 H   0  0  0  0  0  0  0  0  0  0  0  0
    0.0387    2.8000    3.9384 H   0  0  0  0  0  0  0  0  0  0  0  0
   -0.5753    3.3359    2.3614 H   0  0  0  0  0  0  0  0  0  0  0  0
  1  2  1  0  0  0  0
  2  3  1  0  0  0  0
  2  4  1  0  0  0  0
  2  5  1  0  0  0  0
  5  6  2  0  0  0  0
  5  7  1  0  0  0  0
  7  8  1  0  0  0  0
  7  9  1  0  0  0  0
  9 10  1  0  0  0  0
  9 11  1  0  0  0  0
  9 29  1  0  0  0  0
 11 12  1  0  0  0  0
 11 13  1  0  0  0  0
 11 14  1  0  0  0  0
 14 15  1  0  0  0  0
 14 16  1  0  0  0  0
 14 17  1  0  0  0  0
 17 18  1  0  0  0  0
 17 19  1  0  0  0  0
 17 20  1  0  0  0  0
 20 21  1  0  0  0  0
 20 22  2  0  0  0  0
 22 23  1  0  0  0  0
 22 26  1  0  0  0  0
 23 24  1  0  0  0  0
 23 25  1  0  0  0  0
 26 27  1  0  0  0  0
 26 28  1  0  0  0  0
 29 30  2  0  0  0  0
 29 31  1  0  0  0  0
 31 32  1  0  0  0  0
 31 33  1  0  0  0  0
 33 34  1  0  0  0  0
 33 35  1  0  0  0  0
 33 36  1  0  0  0  0
M  CHG  1  20   1
M  END
$$$$

  -OEChem-03222214013D

 36 35  0     1  0  0  0  0  0999 V2000
   -4.6523   -3.8768    1.6551 H   0  0  0  0  0  0  0  0  0  0  0  0
   -4.4938   -2.8509    1.3117 C   0  0  0  0  0  0  0  0  0  0  0  0
   -5.0387   -2.1722    1.9730 H   0  0  0  0  0  0  0  0  0  0  0  0
   -4.8904   -2.7522    0.2982 H   0  0  0  0  0  0  0  0  0  0  0  0
   -3.0161   -2.5116    1.3278 C   0  0  0  0  0  0  0  0  0  0  0  0
   -2.1940   -3.3512    1.6757 O   0  0  0  0  0  0  0  0  0  0  0  0
   -2.5972   -1.2606    0.9301 N   0  0  0  0  0  0  0  0  0  0  0  0
   -3.3283   -0.5715    0.7406 H   0  0  0  0  0  0  0  0  0  0  0  0
   -1.2391   -0.7181    1.0945 C   0  0  1  0  0  0  0  0  0  0  0  0
   -0.6701   -1.2978    1.8285 H   0  0  0  0  0  0  0  0  0  0  0  0
   -0.4751   -0.6550   -0.2512 C   0  0  0  0  0  0  0  0  0  0  0  0
   -1.1748   -0.4205   -1.0612 H   0  0  0  0  0  0  0  0  0  0  0  0
    0.2406    0.1739   -0.2026 H   0  0  0  0  0  0  0  0  0  0  0  0
    0.3325   -1.9158   -0.6020 C   0  0  0  0  0  0  0  0  0  0  0  0
    1.0374   -1.6678   -1.4028 H   0  0  0  0  0  0  0  0  0  0  0  0
    0.9188   -2.2234    0.2702 H   0  0  0  0  0  0  0  0  0  0  0  0
   -0.5532   -3.0707   -1.0683 C   0  0  0  0  0  0  0  0  0  0  0  0
   -1.3324   -3.2693   -0.3355 H   0  0  0  0  0  0  0  0  0  0  0  0
   -1.0522   -2.7853   -2.0010 H   0  0  0  0  0  0  0  0  0  0  0  0
    0.2669   -4.2766   -1.2897 N   0  3  0  0  0  0  0  0  0  0  0  0
    0.9005   -4.2597   -2.0873 H   0  0  0  0  0  0  0  0  0  0  0  0
    0.2192   -5.3439   -0.5432 C   0  0  0  0  0  0  0  0  0  0  0  0
   -0.5996   -5.4489    0.5571 N   0  0  0  0  0  0  0  0  0  0  0  0
   -1.0845   -4.6086    0.8892 H   0  0  0  0  0  0  0  0  0  0  0  0
   -0.4291   -6.1896    1.2322 H   0  0  0  0  0  0  0  0  0  0  0  0
    1.0185   -6.4167   -0.8583 N   0  0  0  0  0  0  0  0  0  0  0  0
    1.4773   -6.4325   -1.7668 H   0  0  0  0  0  0  0  0  0  0  0  0
    0.8244   -7.3088   -0.4073 H   0  0  0  0  0  0  0  0  0  0  0  0
   -1.3721    0.7264    1.6274 C   0  0  0  0  0  0  0  0  0  0  0  0
   -2.2362    1.4571    1.1588 O   0  0  0  0  0  0  0  0  0  0  0  0
   -0.5799    1.1836    2.6648 N   0  0  0  0  0  0  0  0  0  0  0  0
    0.0870    0.5396    3.0802 H   0  0  0  0  0  0  0  0  0  0  0  0
   -0.7194    2.5171    3.2422 C   0  0  0  0  0  0  0  0  0  0  0  0
   -1.7160    2.6443    3.6786 H   0  0  0  0  0  0  0  0  0  0  0  0
    0.0247    2.6700    4.0301 H   0  0  0  0  0  0  0  0  0  0  0  0
   -0.5718    3.2855    2.4756 H   0  0  0  0  0  0  0  0  0  0  0  0
  1  2  1  0  0  0  0
  2  3  1  0  0  0  0
  2  4  1  0  0  0  0
  2  5  1  0  0  0  0
  5  6  2  0  0  0  0
  5  7  1  0  0  0  0
  7  8  1  0  0  0  0
  7  9  1  0  0  0  0
  9 10  1  0  0  0  0
  9 11  1  0  0  0  0
  9 29  1  0  0  0  0
 11 12  1  0  0  0  0
 11 13  1  0  0  0  0
 11 14  1  0  0  0  0
 14 15  1  0  0  0  0
 14 16  1  0  0  0  0
 14 17  1  0  0  0  0
 17 18  1  0  0  0  0
 17 19  1  0  0  0  0
 17 20  1  0  0  0  0
 20 21  1  0  0  0  0
 20 22  2  0  0  0  0
 22 23  1  0  0  0  0
 22 26  1  0  0  0  0
 23 24  1  0  0  0  0
 23 25  1  0  0  0  0
 26 27  1  0  0  0  0
 26 28  1  0  0  0  0
 29 30  2  0  0  0  0
 29 31  1  0  0  0  0
 31 32  1  0  0  0  0
 31 33  1  0  0  0  0
 33 34  1  0  0  0  0
 33 35  1  0  0  0  0
 33 36  1  0  0  0  0
M  CHG  1  20   1
M  END
$$$$

  -OEChem-03222214013D

 36 35  0     1  0  0  0  0  0999 V2000
   -4.5614   -3.9197    1.4416 H   0  0  0  0  0  0  0  0  0  0  0  0
   -4.4318   -2.8687    1.1693 C   0  0  0  0  0  0  0  0  0  0  0  0
   -4.9461   -2.2496    1.9088 H   0  0  0  0  0  0  0  0  0  0  0  0
   -4.8844   -2.6994    0.1892 H   0  0  0  0  0  0  0  0  0  0  0  0
   -2.9589   -2.5103    1.1319 C   0  0  0  0  0  0  0  0  0  0  0  0
   -2.1080   -3.3646    1.3511 O   0  0  0  0  0  0  0  0  0  0  0  0
   -2.5709   -1.2335    0.7909 N   0  0  0  0  0  0  0  0  0  0  0  0
   -3.3178   -0.5449    0.6767 H   0  0  0  0  0  0  0  0  0  0  0  0
   -1.2264   -0.6783    1.0071 C   0  0  1  0  0  0  0  0  0  0  0  0
   -0.6728   -1.2750    1.7389 H   0  0  0  0  0  0  0  0  0  0  0  0
   -0.4539   -0.6130   -0.3278 C   0  0  0  0  0  0  0  0  0  0  0  0
   -1.1341   -0.3748   -1.1533 H   0  0  0  0  0  0  0  0  0  0  0  0
    0.2648    0.2120   -0.2653 H   0  0  0  0  0  0  0  0  0  0  0  0
    0.3485   -1.8906   -0.6269 C   0  0  0  0  0  0  0  0  0  0  0  0
    1.2218   -1.6198   -1.2298 H   0  0  0  0  0  0  0  0  0  0  0  0
    0.7167   -2.3391    0.3018 H   0  0  0  0  0  0  0  0  0  0  0  0
   -0.4907   -2.8994   -1.4122 C   0  0  0  0  0  0  0  0  0  0  0  0
   -1.3876   -3.1651   -0.8469 H   0  0  0  0  0  0  0  0  0  0  0  0
   -0.8237   -2.4379   -2.3483 H   0  0  0  0  0  0  0  0  0  0  0  0
    0.3114   -4.1012   -1.7113 N   0  3  0  0  0  0  0  0  0  0  0  0
    0.9697   -4.0305   -2.4858 H   0  0  0  0  0  0  0  0  0  0  0  0
    0.2132   -5.2292   -1.0661 C   0  0  0  0  0  0  0  0  0  0  0  0
   -0.6397   -5.4051   -0.0022 N   0  0  0  0  0  0  0  0  0  0  0  0
   -1.0850   -4.5756    0.4043 H   0  0  0  0  0  0  0  0  0  0  0  0
   -0.5045   -6.2068    0.6078 H   0  0  0  0  0  0  0  0  0  0  0  0
    0.9902   -6.2945   -1.4546 N   0  0  0  0  0  0  0  0  0  0  0  0
    1.4800   -6.2418   -2.3453 H   0  0  0  0  0  0  0  0  0  0  0  0
    0.7538   -7.2175   -1.0956 H   0  0  0  0  0  0  0  0  0  0  0  0
   -1.3705    0.7422    1.5965 C   0  0  0  0  0  0  0  0  0  0  0  0
   -2.2430    1.4820    1.1595 O   0  0  0  0  0  0  0  0  0  0  0  0
   -0.5953    1.1561    2.6643 N   0  0  0  0  0  0  0  0  0  0  0  0
    0.0833    0.5040    3.0469 H   0  0  0  0  0  0  0  0  0  0  0  0
   -0.7517    2.4591    3.3036 C   0  0  0  0  0  0  0  0  0  0  0  0
   -1.7549    2.5592    3.7315 H   0  0  0  0  0  0  0  0  0  0  0  0
   -0.0201    2.5775    4.1089 H   0  0  0  0  0  0  0  0  0  0  0  0
   -0.5978    3.2647    2.5774 H   0  0  0  0  0  0  0  0  0  0  0  0
  1  2  1  0  0  0  0
  2  3  1  0  0  0  0
  2  4  1  0  0  0  0
  2  5  1  0  0  0  0
  5  6  2  0  0  0  0
  5  7  1  0  0  0  0
  7  8  1  0  0  0  0
  7  9  1  0  0  0  0
  9 10  1  0  0  0  0
  9 11  1  0  0  0  0
  9 29  1  0  0  0  0
 11 12  1  0  0  0  0
 11 13  1  0  0  0  0
 11 14  1  0  0  0  0
 14 15  1  0  0  0  0
 14 16  1  0  0  0  0
 14 17  1  0  0  0  0
 17 18  1  0  0  0  0
 17 19  1  0  0  0  0
 17 20  1  0  0  0  0
 20 21  1  0  0  0  0
 20 22  2  0  0  0  0
 22 23  1  0  0  0  0
 22 26  1  0  0  0  0
 23 24  1  0  0  0  0
 23 25  1  0  0  0  0
 26 27  1  0  0  0  0
 26 28  1  0  0  0  0
 29 30  2  0  0  0  0
 29 31  1  0  0  0  0
 31 32  1  0  0  0  0
 31 33  1  0  0  0  0
 33 34  1  0  0  0  0
 33 35  1  0  0  0  0
 33 36  1  0  0  0  0
M  CHG  1  20   1
M  END
$$$$

  -OEChem-03222214013D

 36 35  0     1  0  0  0  0  0999 V2000
   -4.4555   -3.9611    1.2488 H   0  0  0  0  0  0  0  0  0  0  0  0
   -4.3546   -2.8968    1.0196 C   0  0  0  0  0  0  0  0  0  0  0  0
   -4.8593   -2.3214    1.8002 H   0  0  0  0  0  0  0  0  0  0  0  0
   -4.8388   -2.6939    0.0611 H   0  0  0  0  0  0  0  0  0  0  0  0
   -2.8903   -2.5075    0.9555 C   0  0  0  0  0  0  0  0  0  0  0  0
   -2.0166   -3.3596    1.0680 O   0  0  0  0  0  0  0  0  0  0  0  0
   -2.5346   -1.2092    0.6660 N   0  0  0  0  0  0  0  0  0  0  0  0
   -3.2987   -0.5326    0.6072 H   0  0  0  0  0  0  0  0  0  0  0  0
   -1.2070   -0.6327    0.9259 C   0  0  1  0  0  0  0  0  0  0  0  0
   -0.6594   -1.2401    1.6538 H   0  0  0  0  0  0  0  0  0  0  0  0
   -0.4315   -0.5545   -0.4025 C   0  0  0  0  0  0  0  0  0  0  0  0
   -1.1096   -0.3239   -1.2323 H   0  0  0  0  0  0  0  0  0  0  0  0
    0.2770    0.2787   -0.3360 H   0  0  0  0  0  0  0  0  0  0  0  0
    0.3821   -1.8333   -0.6765 C   0  0  0  0  0  0  0  0  0  0  0  0
    1.3754   -1.5449   -1.0373 H   0  0  0  0  0  0  0  0  0  0  0  0
    0.5248   -2.4193    0.2371 H   0  0  0  0  0  0  0  0  0  0  0  0
   -0.2999   -2.6797   -1.7505 C   0  0  0  0  0  0  0  0  0  0  0  0
   -1.3009   -2.9692   -1.4127 H   0  0  0  0  0  0  0  0  0  0  0  0
   -0.4225   -2.0798   -2.6592 H   0  0  0  0  0  0  0  0  0  0  0  0
    0.5107   -3.8750   -2.0518 N   0  3  0  0  0  0  0  0  0  0  0  0
    1.2414   -3.7668   -2.7536 H   0  0  0  0  0  0  0  0  0  0  0  0
    0.3268   -5.0434   -1.5048 C   0  0  0  0  0  0  0  0  0  0  0  0
   -0.6235   -5.2686   -0.5370 N   0  0  0  0  0  0  0  0  0  0  0  0
   -1.0515   -4.4535   -0.0851 H   0  0  0  0  0  0  0  0  0  0  0  0
   -0.5663   -6.1222    0.0119 H   0  0  0  0  0  0  0  0  0  0  0  0
    1.1093   -6.1009   -1.9025 N   0  0  0  0  0  0  0  0  0  0  0  0
    1.6739   -6.0000   -2.7433 H   0  0  0  0  0  0  0  0  0  0  0  0
    0.8242   -7.0397   -1.6301 H   0  0  0  0  0  0  0  0  0  0  0  0
   -1.3747    0.7630    1.5628 C   0  0  0  0  0  0  0  0  0  0  0  0
   -2.2524    1.5050    1.1411 O   0  0  0  0  0  0  0  0  0  0  0  0
   -0.6187    1.1491    2.6546 N   0  0  0  0  0  0  0  0  0  0  0  0
    0.0679    0.4953    3.0197 H   0  0  0  0  0  0  0  0  0  0  0  0
   -0.7957    2.4301    3.3320 C   0  0  0  0  0  0  0  0  0  0  0  0
   -1.8031    2.5046    3.7556 H   0  0  0  0  0  0  0  0  0  0  0  0
   -0.0707    2.5335    4.1453 H   0  0  0  0  0  0  0  0  0  0  0  0
   -0.6471    3.2592    2.6317 H   0  0  0  0  0  0  0  0  0  0  0  0
  1  2  1  0  0  0  0
  2  3  1  0  0  0  0
  2  4  1  0  0  0  0
  2  5  1  0  0  0  0
  5  6  2  0  0  0  0
  5  7  1  0  0  0  0
  7  8  1  0  0  0  0
  7  9  1  0  0  0  0
  9 10  1  0  0  0  0
  9 11  1  0  0  0  0
  9 29  1  0  0  0  0
 11 12  1  0  0  0  0
 11 13  1  0  0  0  0
 11 14  1  0  0  0  0
 14 15  1  0  0  0  0
 14 16  1  0  0  0  0
 14 17  1  0  0  0  0
 17 18  1  0  0  0  0
 17 19  1  0  0  0  0
 17 20  1  0  0  0  0
 20 21  1  0  0  0  0
 20 22  2  0  0  0  0
 22 23  1  0  0  0  0
 22 26  1  0  0  0  0
 23 24  1  0  0  0  0
 23 25  1  0  0  0  0
 26 27  1  0  0  0  0
 26 28  1  0  0  0  0
 29 30  2  0  0  0  0
 29 31  1  0  0  0  0
 31 32  1  0  0  0  0
 31 33  1  0  0  0  0
 33 34  1  0  0  0  0
 33 35  1  0  0  0  0
 33 36  1  0  0  0  0
M  CHG  1  20   1
M  END
$$$$

  -OEChem-03222214013D

 36 35  0     1  0  0  0  0  0999 V2000
   -2.7049   -4.7963    2.1982 H   0  0  0  0  0  0  0  0  0  0  0  0
   -3.0107   -3.7790    1.9389 C   0  0  0  0  0  0  0  0  0  0  0  0
   -3.3914   -3.2902    2.8397 H   0  0  0  0  0  0  0  0  0  0  0  0
   -3.8122   -3.8268    1.1976 H   0  0  0  0  0  0  0  0  0  0  0  0
   -1.8349   -2.9966    1.3866 C   0  0  0  0  0  0  0  0  0  0  0  0
   -0.7777   -3.5647    1.1471 O   0  0  0  0  0  0  0  0  0  0  0  0
   -2.0091   -1.6882    0.9968 N   0  0  0  0  0  0  0  0  0  0  0  0
   -2.9428   -1.3077    1.1718 H   0  0  0  0  0  0  0  0  0  0  0  0
   -0.9621   -0.6527    0.9065 C   0  0  1  0  0  0  0  0  0  0  0  0
   -0.0879   -0.9547    1.4931 H   0  0  0  0  0  0  0  0  0  0  0  0
   -0.5464   -0.3983   -0.5597 C   0  0  0  0  0  0  0  0  0  0  0  0
   -1.4206   -0.5150   -1.2100 H   0  0  0  0  0  0  0  0  0  0  0  0
   -0.2244    0.6450   -0.6564 H   0  0  0  0  0  0  0  0  0  0  0  0
    0.6191   -1.2878   -1.0409 C   0  0  0  0  0  0  0  0  0  0  0  0
    1.4303   -0.6276   -1.3672 H   0  0  0  0  0  0  0  0  0  0  0  0
    1.0243   -1.8983   -0.2260 H   0  0  0  0  0  0  0  0  0  0  0  0
    0.2324   -2.1674   -2.2287 C   0  0  0  0  0  0  0  0  0  0  0  0
   -0.4523   -1.6317   -2.8956 H   0  0  0  0  0  0  0  0  0  0  0  0
    1.1310   -2.4421   -2.7916 H   0  0  0  0  0  0  0  0  0  0  0  0
   -0.3978   -3.3611   -1.6531 N   0  3  0  0  0  0  0  0  0  0  0  0
   -0.6939   -3.2716   -0.6770 H   0  0  0  0  0  0  0  0  0  0  0  0
   -0.3325   -4.5573   -2.1466 C   0  0  0  0  0  0  0  0  0  0  0  0
    0.1209   -4.8045   -3.4212 N   0  0  0  0  0  0  0  0  0  0  0  0
    0.2049   -4.0080   -4.0494 H   0  0  0  0  0  0  0  0  0  0  0  0
   -0.0676   -5.7168   -3.8311 H   0  0  0  0  0  0  0  0  0  0  0  0
   -0.7210   -5.5976   -1.3402 N   0  0  0  0  0  0  0  0  0  0  0  0
   -0.7895   -5.3952   -0.3406 H   0  0  0  0  0  0  0  0  0  0  0  0
   -0.4398   -6.5379   -1.6088 H   0  0  0  0  0  0  0  0  0  0  0  0
   -1.4986    0.6483    1.5408 C   0  0  0  0  0  0  0  0  0  0  0  0
   -2.6709    0.9524    1.3599 O   0  0  0  0  0  0  0  0  0  0  0  0
   -0.7225    1.3965    2.4067 N   0  0  0  0  0  0  0  0  0  0  0  0
    0.2330    1.0962    2.5794 H   0  0  0  0  0  0  0  0  0  0  0  0
   -1.2200    2.5813    3.0993 C   0  0  0  0  0  0  0  0  0  0  0  0
   -2.0344    2.3139    3.7810 H   0  0  0  0  0  0  0  0  0  0  0  0
   -0.4189    3.0446    3.6835 H   0  0  0  0  0  0  0  0  0  0  0  0
   -1.5921    3.3197    2.3808 H   0  0  0  0  0  0  0  0  0  0  0  0
  1  2  1  0  0  0  0
  2  3  1  0  0  0  0
  2  4  1  0  0  0  0
  2  5  1  0  0  0  0
  5  6  2  0  0  0  0
  5  7  1  0  0  0  0
  7  8  1  0  0  0  0
  7  9  1  0  0  0  0
  9 10  1  0  0  0  0
  9 11  1  0  0  0  0
  9 29  1  0  0  0  0
 11 12  1  0  0  0  0
 11 13  1  0  0  0  0
 11 14  1  0  0  0  0
 14 15  1  0  0  0  0
 14 16  1  0  0  0  0
 14 17  1  0  0  0  0
 17 18  1  0  0  0  0
 17 19  1  0  0  0  0
 17 20  1  0  0  0  0
 20 21  1  0  0  0  0
 20 22  2  0  0  0  0
 22 23  1  0  0  0  0
 22 26  1  0  0  0  0
 23 24  1  0  0  0  0
 23 25  1  0  0  0  0
 26 27  1  0  0  0  0
 26 28  1  0  0  0  0
 29 30  2  0  0  0  0
 29 31  1  0  0  0  0
 31 32  1  0  0  0  0
 31 33  1  0  0  0  0
 33 34  1  0  0  0  0
 33 35  1  0  0  0  0
 33 36  1  0  0  0  0
M  CHG  1  20   1
M  END
$$$$

  -OEChem-03222214013D

 36 35  0     1  0  0  0  0  0999 V2000
   -3.9850   -4.0964    2.3443 H   0  0  0  0  0  0  0  0  0  0  0  0
   -4.0311   -3.0883    1.9230 C   0  0  0  0  0  0  0  0  0  0  0  0
   -4.5488   -2.4360    2.6309 H   0  0  0  0  0  0  0  0  0  0  0  0
   -4.5974   -3.1212    0.9891 H   0  0  0  0  0  0  0  0  0  0  0  0
   -2.6315   -2.5645    1.6654 C   0  0  0  0  0  0  0  0  0  0  0  0
   -1.6611   -3.2755    1.8822 O   0  0  0  0  0  0  0  0  0  0  0  0
   -2.4564   -1.3002    1.1415 N   0  0  0  0  0  0  0  0  0  0  0  0
   -3.2950   -0.7244    1.0523 H   0  0  0  0  0  0  0  0  0  0  0  0
   -1.1764   -0.5750    1.1208 C   0  0  1  0  0  0  0  0  0  0  0  0
   -0.4669   -1.0142    1.8304 H   0  0  0  0  0  0  0  0  0  0  0  0
   -0.6004   -0.6170   -0.3089 C   0  0  0  0  0  0  0  0  0  0  0  0
   -1.4263   -0.6027   -1.0289 H   0  0  0  0  0  0  0  0  0  0  0  0
   -0.0031    0.2827   -0.4945 H   0  0  0  0  0  0  0  0  0  0  0  0
    0.3008   -1.8464   -0.5224 C   0  0  0  0  0  0  0  0  0  0  0  0
    1.3536   -1.5465   -0.4870 H   0  0  0  0  0  0  0  0  0  0  0  0
    0.1422   -2.5721    0.2799 H   0  0  0  0  0  0  0  0  0  0  0  0
   -0.0135   -2.5184   -1.8568 C   0  0  0  0  0  0  0  0  0  0  0  0
   -1.0990   -2.6332   -1.9538 H   0  0  0  0  0  0  0  0  0  0  0  0
    0.3436   -1.8821   -2.6736 H   0  0  0  0  0  0  0  0  0  0  0  0
    0.6284   -3.8452   -1.8963 N   0  3  0  0  0  0  0  0  0  0  0  0
    0.7652   -4.3120   -0.9997 H   0  0  0  0  0  0  0  0  0  0  0  0
    0.9345   -4.4761   -2.9923 C   0  0  0  0  0  0  0  0  0  0  0  0
    0.7007   -3.9319   -4.2346 N   0  0  0  0  0  0  0  0  0  0  0  0
    0.1177   -3.0988   -4.2837 H   0  0  0  0  0  0  0  0  0  0  0  0
    0.7262   -4.5453   -5.0467 H   0  0  0  0  0  0  0  0  0  0  0  0
    1.5038   -5.7247   -2.9150 N   0  0  0  0  0  0  0  0  0  0  0  0
    1.8337   -6.0557   -2.0101 H   0  0  0  0  0  0  0  0  0  0  0  0
    1.9310   -6.1173   -3.7519 H   0  0  0  0  0  0  0  0  0  0  0  0
   -1.4114    0.8831    1.5665 C   0  0  0  0  0  0  0  0  0  0  0  0
   -2.3878    1.4861    1.1391 O   0  0  0  0  0  0  0  0  0  0  0  0
   -0.5665    1.5000    2.4709 N   0  0  0  0  0  0  0  0  0  0  0  0
    0.1899    0.9508    2.8694 H   0  0  0  0  0  0  0  0  0  0  0  0
   -0.7955    2.8490    2.9790 C   0  0  0  0  0  0  0  0  0  0  0  0
   -1.7419    2.8968    3.5282 H   0  0  0  0  0  0  0  0  0  0  0  0
    0.0125    3.1420    3.6566 H   0  0  0  0  0  0  0  0  0  0  0  0
   -0.8312    3.5696    2.1548 H   0  0  0  0  0  0  0  0  0  0  0  0
  1  2  1  0  0  0  0
  2  3  1  0  0  0  0
  2  4  1  0  0  0  0
  2  5  1  0  0  0  0
  5  6  2  0  0  0  0
  5  7  1  0  0  0  0
  7  8  1  0  0  0  0
  7  9  1  0  0  0  0
  9 10  1  0  0  0  0
  9 11  1  0  0  0  0
  9 29  1  0  0  0  0
 11 12  1  0  0  0  0
 11 13  1  0  0  0  0
 11 14  1  0  0  0  0
 14 15  1  0  0  0  0
 14 16  1  0  0  0  0
 14 17  1  0  0  0  0
 17 18  1  0  0  0  0
 17 19  1  0  0  0  0
 17 20  1  0  0  0  0
 20 21  1  0  0  0  0
 20 22  2  0  0  0  0
 22 23  1  0  0  0  0
 22 26  1  0  0  0  0
 23 24  1  0  0  0  0
 23 25  1  0  0  0  0
 26 27  1  0  0  0  0
 26 28  1  0  0  0  0
 29 30  2  0  0  0  0
 29 31  1  0  0  0  0
 31 32  1  0  0  0  0
 31 33  1  0  0  0  0
 33 34  1  0  0  0  0
 33 35  1  0  0  0  0
 33 36  1  0  0  0  0
M  CHG  1  20   1
M  END
$$$$

  -OEChem-03222214013D

 36 35  0     1  0  0  0  0  0999 V2000
   -4.0288   -4.1244    2.1270 H   0  0  0  0  0  0  0  0  0  0  0  0
   -4.0542   -3.0837    1.7919 C   0  0  0  0  0  0  0  0  0  0  0  0
   -4.5819   -2.4864    2.5395 H   0  0  0  0  0  0  0  0  0  0  0  0
   -4.5976   -3.0314    0.8456 H   0  0  0  0  0  0  0  0  0  0  0  0
   -2.6441   -2.5557    1.6128 C   0  0  0  0  0  0  0  0  0  0  0  0
   -1.6851   -3.2548    1.9042 O   0  0  0  0  0  0  0  0  0  0  0  0
   -2.4437   -1.2915    1.0976 N   0  0  0  0  0  0  0  0  0  0  0  0
   -3.2763   -0.7170    0.9589 H   0  0  0  0  0  0  0  0  0  0  0  0
   -1.1604   -0.5723    1.1263 C   0  0  1  0  0  0  0  0  0  0  0  0
   -0.4774   -1.0199    1.8566 H   0  0  0  0  0  0  0  0  0  0  0  0
   -0.5280   -0.5985   -0.2798 C   0  0  0  0  0  0  0  0  0  0  0  0
   -1.3290   -0.5862   -1.0276 H   0  0  0  0  0  0  0  0  0  0  0  0
    0.0743    0.3028   -0.4394 H   0  0  0  0  0  0  0  0  0  0  0  0
    0.3758   -1.8257   -0.4720 C   0  0  0  0  0  0  0  0  0  0  0  0
    1.3894   -1.6029   -0.1220 H   0  0  0  0  0  0  0  0  0  0  0  0
   -0.0054   -2.6600    0.1235 H   0  0  0  0  0  0  0  0  0  0  0  0
    0.3891   -2.2514   -1.9375 C   0  0  0  0  0  0  0  0  0  0  0  0
   -0.6434   -2.3537   -2.2900 H   0  0  0  0  0  0  0  0  0  0  0  0
    0.8869   -1.4783   -2.5335 H   0  0  0  0  0  0  0  0  0  0  0  0
    1.0903   -3.5414   -2.0666 N   0  3  0  0  0  0  0  0  0  0  0  0
    1.2846   -4.0476   -1.2029 H   0  0  0  0  0  0  0  0  0  0  0  0
    1.3876   -4.0918   -3.2076 C   0  0  0  0  0  0  0  0  0  0  0  0
    1.0938   -3.4823   -4.4064 N   0  0  0  0  0  0  0  0  0  0  0  0
    0.4942   -2.6598   -4.3868 H   0  0  0  0  0  0  0  0  0  0  0  0
    1.1122   -4.0420   -5.2566 H   0  0  0  0  0  0  0  0  0  0  0  0
    2.0070   -5.3185   -3.2254 N   0  0  0  0  0  0  0  0  0  0  0  0
    2.3741   -5.6945   -2.3532 H   0  0  0  0  0  0  0  0  0  0  0  0
    2.4192   -5.6438   -4.0979 H   0  0  0  0  0  0  0  0  0  0  0  0
   -1.4093    0.8852    1.5661 C   0  0  0  0  0  0  0  0  0  0  0  0
   -2.3613    1.4955    1.0956 O   0  0  0  0  0  0  0  0  0  0  0  0
   -0.5979    1.4974    2.5036 N   0  0  0  0  0  0  0  0  0  0  0  0
    0.1331    0.9407    2.9377 H   0  0  0  0  0  0  0  0  0  0  0  0
   -0.8415    2.8470    3.0032 C   0  0  0  0  0  0  0  0  0  0  0  0
   -1.8110    2.8995    3.5103 H   0  0  0  0  0  0  0  0  0  0  0  0
   -0.0630    3.1353    3.7162 H   0  0  0  0  0  0  0  0  0  0  0  0
   -0.8368    3.5685    2.1791 H   0  0  0  0  0  0  0  0  0  0  0  0
  1  2  1  0  0  0  0
  2  3  1  0  0  0  0
  2  4  1  0  0  0  0
  2  5  1  0  0  0  0
  5  6  2  0  0  0  0
  5  7  1  0  0  0  0
  7  8  1  0  0  0  0
  7  9  1  0  0  0  0
  9 10  1  0  0  0  0
  9 11  1  0  0  0  0
  9 29  1  0  0  0  0
 11 12  1  0  0  0  0
 11 13  1  0  0  0  0
 11 14  1  0  0  0  0
 14 15  1  0  0  0  0
 14 16  1  0  0  0  0
 14 17  1  0  0  0  0
 17 18  1  0  0  0  0
 17 19  1  0  0  0  0
 17 20  1  0  0  0  0
 20 21  1  0  0  0  0
 20 22  2  0  0  0  0
 22 23  1  0  0  0  0
 22 26  1  0  0  0  0
 23 24  1  0  0  0  0
 23 25  1  0  0  0  0
 26 27  1  0  0  0  0
 26 28  1  0  0  0  0
 29 30  2  0  0  0  0
 29 31  1  0  0  0  0
 31 32  1  0  0  0  0
 31 33  1  0  0  0  0
 33 34  1  0  0  0  0
 33 35  1  0  0  0  0
 33 36  1  0  0  0  0
M  CHG  1  20   1
M  END
$$$$

  -OEChem-03222214013D

 36 35  0     1  0  0  0  0  0999 V2000
   -4.0282   -4.1083    2.1078 H   0  0  0  0  0  0  0  0  0  0  0  0
   -4.0564   -3.0796    1.7386 C   0  0  0  0  0  0  0  0  0  0  0  0
   -4.6067   -2.4649    2.4552 H   0  0  0  0  0  0  0  0  0  0  0  0
   -4.5794   -3.0634    0.7795 H   0  0  0  0  0  0  0  0  0  0  0  0
   -2.6471   -2.5446    1.5734 C   0  0  0  0  0  0  0  0  0  0  0  0
   -1.6867   -3.2415    1.8666 O   0  0  0  0  0  0  0  0  0  0  0  0
   -2.4455   -1.2750    1.0715 N   0  0  0  0  0  0  0  0  0  0  0  0
   -3.2768   -0.7004    0.9262 H   0  0  0  0  0  0  0  0  0  0  0  0
   -1.1605   -0.5606    1.1177 C   0  0  1  0  0  0  0  0  0  0  0  0
   -0.4839   -1.0189    1.8468 H   0  0  0  0  0  0  0  0  0  0  0  0
   -0.5191   -0.5776   -0.2842 C   0  0  0  0  0  0  0  0  0  0  0  0
   -1.3090   -0.5583   -1.0435 H   0  0  0  0  0  0  0  0  0  0  0  0
    0.0912    0.3217   -0.4270 H   0  0  0  0  0  0  0  0  0  0  0  0
    0.3775   -1.8084   -0.4711 C   0  0  0  0  0  0  0  0  0  0  0  0
    1.2960   -1.6941    0.1146 H   0  0  0  0  0  0  0  0  0  0  0  0
   -0.1468   -2.6971   -0.1065 H   0  0  0  0  0  0  0  0  0  0  0  0
    0.7027   -2.0082   -1.9486 C   0  0  0  0  0  0  0  0  0  0  0  0
   -0.2313   -2.0365   -2.5208 H   0  0  0  0  0  0  0  0  0  0  0  0
    1.3038   -1.1641   -2.3048 H   0  0  0  0  0  0  0  0  0  0  0  0
    1.4377   -3.2749   -2.1180 N   0  3  0  0  0  0  0  0  0  0  0  0
    1.5408   -3.8622   -1.2907 H   0  0  0  0  0  0  0  0  0  0  0  0
    1.9042   -3.6937   -3.2583 C   0  0  0  0  0  0  0  0  0  0  0  0
    1.7519   -2.9644   -4.4154 N   0  0  0  0  0  0  0  0  0  0  0  0
    1.1200   -2.1665   -4.3937 H   0  0  0  0  0  0  0  0  0  0  0  0
    1.9086   -3.4273   -5.3084 H   0  0  0  0  0  0  0  0  0  0  0  0
    2.5648   -4.8972   -3.3198 N   0  0  0  0  0  0  0  0  0  0  0  0
    2.8282   -5.3572   -2.4503 H   0  0  0  0  0  0  0  0  0  0  0  0
    3.0997   -5.1165   -4.1581 H   0  0  0  0  0  0  0  0  0  0  0  0
   -1.4044    0.8936    1.5715 C   0  0  0  0  0  0  0  0  0  0  0  0
   -2.3416    1.5195    1.0921 O   0  0  0  0  0  0  0  0  0  0  0  0
   -0.5954    1.4900    2.5215 N   0  0  0  0  0  0  0  0  0  0  0  0
    0.1113    0.9150    2.9717 H   0  0  0  0  0  0  0  0  0  0  0  0
   -0.8369    2.8332    3.0396 C   0  0  0  0  0  0  0  0  0  0  0  0
   -1.8081    2.8816    3.5436 H   0  0  0  0  0  0  0  0  0  0  0  0
   -0.0602    3.1087    3.7597 H   0  0  0  0  0  0  0  0  0  0  0  0
   -0.8270    3.5667    2.2262 H   0  0  0  0  0  0  0  0  0  0  0  0
  1  2  1  0  0  0  0
  2  3  1  0  0  0  0
  2  4  1  0  0  0  0
  2  5  1  0  0  0  0
  5  6  2  0  0  0  0
  5  7  1  0  0  0  0
  7  8  1  0  0  0  0
  7  9  1  0  0  0  0
  9 10  1  0  0  0  0
  9 11  1  0  0  0  0
  9 29  1  0  0  0  0
 11 12  1  0  0  0  0
 11 13  1  0  0  0  0
 11 14  1  0  0  0  0
 14 15  1  0  0  0  0
 14 16  1  0  0  0  0
 14 17  1  0  0  0  0
 17 18  1  0  0  0  0
 17 19  1  0  0  0  0
 17 20  1  0  0  0  0
 20 21  1  0  0  0  0
 20 22  2  0  0  0  0
 22 23  1  0  0  0  0
 22 26  1  0  0  0  0
 23 24  1  0  0  0  0
 23 25  1  0  0  0  0
 26 27  1  0  0  0  0
 26 28  1  0  0  0  0
 29 30  2  0  0  0  0
 29 31  1  0  0  0  0
 31 32  1  0  0  0  0
 31 33  1  0  0  0  0
 33 34  1  0  0  0  0
 33 35  1  0  0  0  0
 33 36  1  0  0  0  0
M  CHG  1  20   1
M  END
$$$$

  -OEChem-03222214013D

 36 35  0     1  0  0  0  0  0999 V2000
   -4.0699   -4.0677    2.1372 H   0  0  0  0  0  0  0  0  0  0  0  0
   -4.0875   -3.0710    1.6875 C   0  0  0  0  0  0  0  0  0  0  0  0
   -4.6721   -2.4078    2.3300 H   0  0  0  0  0  0  0  0  0  0  0  0
   -4.5676   -3.1339    0.7081 H   0  0  0  0  0  0  0  0  0  0  0  0
   -2.6751   -2.5385    1.5406 C   0  0  0  0  0  0  0  0  0  0  0  0
   -1.7181   -3.2499    1.8105 O   0  0  0  0  0  0  0  0  0  0  0  0
   -2.4642   -1.2649    1.0524 N   0  0  0  0  0  0  0  0  0  0  0  0
   -3.2913   -0.6822    0.9160 H   0  0  0  0  0  0  0  0  0  0  0  0
   -1.1748   -0.5594    1.1161 C   0  0  1  0  0  0  0  0  0  0  0  0
   -0.5121   -1.0350    1.8471 H   0  0  0  0  0  0  0  0  0  0  0  0
   -0.5103   -0.5731   -0.2724 C   0  0  0  0  0  0  0  0  0  0  0  0
   -1.2442   -0.2833   -1.0329 H   0  0  0  0  0  0  0  0  0  0  0  0
    0.2971    0.1672   -0.2927 H   0  0  0  0  0  0  0  0  0  0  0  0
    0.0750   -1.9528   -0.5992 C   0  0  0  0  0  0  0  0  0  0  0  0
    0.8095   -2.2338    0.1635 H   0  0  0  0  0  0  0  0  0  0  0  0
   -0.7251   -2.7000   -0.5886 H   0  0  0  0  0  0  0  0  0  0  0  0
    0.7270   -1.9395   -1.9776 C   0  0  0  0  0  0  0  0  0  0  0  0
   -0.0151   -1.6298   -2.7216 H   0  0  0  0  0  0  0  0  0  0  0  0
    1.5499   -1.2159   -1.9821 H   0  0  0  0  0  0  0  0  0  0  0  0
    1.2298   -3.2897   -2.2889 N   0  3  0  0  0  0  0  0  0  0  0  0
    1.0970   -4.0075   -1.5764 H   0  0  0  0  0  0  0  0  0  0  0  0
    1.8032   -3.6052   -3.4136 C   0  0  0  0  0  0  0  0  0  0  0  0
    1.9808   -2.6827   -4.4199 N   0  0  0  0  0  0  0  0  0  0  0  0
    1.5070   -1.7859   -4.3323 H   0  0  0  0  0  0  0  0  0  0  0  0
    2.2080   -3.0157   -5.3546 H   0  0  0  0  0  0  0  0  0  0  0  0
    2.2438   -4.8920   -3.6114 N   0  0  0  0  0  0  0  0  0  0  0  0
    2.2693   -5.5284   -2.8167 H   0  0  0  0  0  0  0  0  0  0  0  0
    2.8713   -5.0773   -4.3918 H   0  0  0  0  0  0  0  0  0  0  0  0
   -1.3980    0.8940    1.5814 C   0  0  0  0  0  0  0  0  0  0  0  0
   -2.3261    1.5367    1.1070 O   0  0  0  0  0  0  0  0  0  0  0  0
   -0.5843    1.4688    2.5407 N   0  0  0  0  0  0  0  0  0  0  0  0
    0.1202    0.8827    2.9799 H   0  0  0  0  0  0  0  0  0  0  0  0
   -0.8013    2.8136    3.0655 C   0  0  0  0  0  0  0  0  0  0  0  0
   -1.7750    2.8793    3.5627 H   0  0  0  0  0  0  0  0  0  0  0  0
   -0.0240    3.0681    3.7929 H   0  0  0  0  0  0  0  0  0  0  0  0
   -0.7702    3.5521    2.2571 H   0  0  0  0  0  0  0  0  0  0  0  0
  1  2  1  0  0  0  0
  2  3  1  0  0  0  0
  2  4  1  0  0  0  0
  2  5  1  0  0  0  0
  5  6  2  0  0  0  0
  5  7  1  0  0  0  0
  7  8  1  0  0  0  0
  7  9  1  0  0  0  0
  9 10  1  0  0  0  0
  9 11  1  0  0  0  0
  9 29  1  0  0  0  0
 11 12  1  0  0  0  0
 11 13  1  0  0  0  0
 11 14  1  0  0  0  0
 14 15  1  0  0  0  0
 14 16  1  0  0  0  0
 14 17  1  0  0  0  0
 17 18  1  0  0  0  0
 17 19  1  0  0  0  0
 17 20  1  0  0  0  0
 20 21  1  0  0  0  0
 20 22  2  0  0  0  0
 22 23  1  0  0  0  0
 22 26  1  0  0  0  0
 23 24  1  0  0  0  0
 23 25  1  0  0  0  0
 26 27  1  0  0  0  0
 26 28  1  0  0  0  0
 29 30  2  0  0  0  0
 29 31  1  0  0  0  0
 31 32  1  0  0  0  0
 31 33  1  0  0  0  0
 33 34  1  0  0  0  0
 33 35  1  0  0  0  0
 33 36  1  0  0  0  0
M  CHG  1  20   1
M  END
$$$$

  -OEChem-03222214013D

 36 35  0     1  0  0  0  0  0999 V2000
   -4.0267   -4.0853    2.0948 H   0  0  0  0  0  0  0  0  0  0  0  0
   -4.0552   -3.0807    1.6636 C   0  0  0  0  0  0  0  0  0  0  0  0
   -4.6380   -2.4328    2.3231 H   0  0  0  0  0  0  0  0  0  0  0  0
   -4.5442   -3.1285    0.6877 H   0  0  0  0  0  0  0  0  0  0  0  0
   -2.6482   -2.5361    1.5126 C   0  0  0  0  0  0  0  0  0  0  0  0
   -1.6827   -3.2428    1.7649 O   0  0  0  0  0  0  0  0  0  0  0  0
   -2.4500   -1.2554    1.0387 N   0  0  0  0  0  0  0  0  0  0  0  0
   -3.2819   -0.6780    0.9104 H   0  0  0  0  0  0  0  0  0  0  0  0
   -1.1667   -0.5414    1.1114 C   0  0  1  0  0  0  0  0  0  0  0  0
   -0.5003   -1.0177    1.8385 H   0  0  0  0  0  0  0  0  0  0  0  0
   -0.5127   -0.5460   -0.2814 C   0  0  0  0  0  0  0  0  0  0  0  0
   -1.2410   -0.2470   -1.0437 H   0  0  0  0  0  0  0  0  0  0  0  0
    0.2951    0.1943   -0.2884 H   0  0  0  0  0  0  0  0  0  0  0  0
    0.0745   -1.9248   -0.6127 C   0  0  0  0  0  0  0  0  0  0  0  0
    0.6210   -2.3116    0.2546 H   0  0  0  0  0  0  0  0  0  0  0  0
   -0.7416   -2.6219   -0.8326 H   0  0  0  0  0  0  0  0  0  0  0  0
    1.0246   -1.8347   -1.8023 C   0  0  0  0  0  0  0  0  0  0  0  0
    0.4823   -1.4311   -2.6645 H   0  0  0  0  0  0  0  0  0  0  0  0
    1.8483   -1.1549   -1.5577 H   0  0  0  0  0  0  0  0  0  0  0  0
    1.5440   -3.1799   -2.1079 N   0  3  0  0  0  0  0  0  0  0  0  0
    1.2285   -3.9425   -1.5085 H   0  0  0  0  0  0  0  0  0  0  0  0
    2.3551   -3.4365   -3.0928 C   0  0  0  0  0  0  0  0  0  0  0  0
    2.7929   -2.4497   -3.9464 N   0  0  0  0  0  0  0  0  0  0  0  0
    2.3380   -1.5406   -3.8938 H   0  0  0  0  0  0  0  0  0  0  0  0
    3.2187   -2.7219   -4.8301 H   0  0  0  0  0  0  0  0  0  0  0  0
    2.7890   -4.7247   -3.2968 N   0  0  0  0  0  0  0  0  0  0  0  0
    2.6125   -5.4208   -2.5745 H   0  0  0  0  0  0  0  0  0  0  0  0
    3.5739   -4.8793   -3.9272 H   0  0  0  0  0  0  0  0  0  0  0  0
   -1.4002    0.9048    1.5930 C   0  0  0  0  0  0  0  0  0  0  0  0
   -2.3319    1.5469    1.1251 O   0  0  0  0  0  0  0  0  0  0  0  0
   -0.5910    1.4739    2.5593 N   0  0  0  0  0  0  0  0  0  0  0  0
    0.1127    0.8855    2.9965 H   0  0  0  0  0  0  0  0  0  0  0  0
   -0.8198    2.8102    3.1005 C   0  0  0  0  0  0  0  0  0  0  0  0
   -1.7967    2.8635    3.5929 H   0  0  0  0  0  0  0  0  0  0  0  0
   -0.0486    3.0597    3.8358 H   0  0  0  0  0  0  0  0  0  0  0  0
   -0.7881    3.5589    2.3017 H   0  0  0  0  0  0  0  0  0  0  0  0
  1  2  1  0  0  0  0
  2  3  1  0  0  0  0
  2  4  1  0  0  0  0
  2  5  1  0  0  0  0
  5  6  2  0  0  0  0
  5  7  1  0  0  0  0
  7  8  1  0  0  0  0
  7  9  1  0  0  0  0
  9 10  1  0  0  0  0
  9 11  1  0  0  0  0
  9 29  1  0  0  0  0
 11 12  1  0  0  0  0
 11 13  1  0  0  0  0
 11 14  1  0  0  0  0
 14 15  1  0  0  0  0
 14 16  1  0  0  0  0
 14 17  1  0  0  0  0
 17 18  1  0  0  0  0
 17 19  1  0  0  0  0
 17 20  1  0  0  0  0
 20 21  1  0  0  0  0
 20 22  2  0  0  0  0
 22 23  1  0  0  0  0
 22 26  1  0  0  0  0
 23 24  1  0  0  0  0
 23 25  1  0  0  0  0
 26 27  1  0  0  0  0
 26 28  1  0  0  0  0
 29 30  2  0  0  0  0
 29 31  1  0  0  0  0
 31 32  1  0  0  0  0
 31 33  1  0  0  0  0
 33 34  1  0  0  0  0
 33 35  1  0  0  0  0
 33 36  1  0  0  0  0
M  CHG  1  20   1
M  END
$$$$

  -OEChem-03222214013D

 36 35  0     1  0  0  0  0  0999 V2000
   -4.0129   -4.0919    2.0769 H   0  0  0  0  0  0  0  0  0  0  0  0
   -4.0407   -3.0870    1.6463 C   0  0  0  0  0  0  0  0  0  0  0  0
   -4.6327   -2.4420    2.3003 H   0  0  0  0  0  0  0  0  0  0  0  0
   -4.5195   -3.1361    0.6655 H   0  0  0  0  0  0  0  0  0  0  0  0
   -2.6344   -2.5362    1.5104 C   0  0  0  0  0  0  0  0  0  0  0  0
   -1.6692   -3.2381    1.7763 O   0  0  0  0  0  0  0  0  0  0  0  0
   -2.4371   -1.2541    1.0401 N   0  0  0  0  0  0  0  0  0  0  0  0
   -3.2706   -0.6815    0.8999 H   0  0  0  0  0  0  0  0  0  0  0  0
   -1.1580   -0.5337    1.1210 C   0  0  1  0  0  0  0  0  0  0  0  0
   -0.4911   -1.0066    1.8496 H   0  0  0  0  0  0  0  0  0  0  0  0
   -0.5059   -0.5356   -0.2730 C   0  0  0  0  0  0  0  0  0  0  0  0
   -1.2307   -0.2339   -1.0374 H   0  0  0  0  0  0  0  0  0  0  0  0
    0.2970    0.2098   -0.2712 H   0  0  0  0  0  0  0  0  0  0  0  0
    0.0898   -1.9110   -0.6145 C   0  0  0  0  0  0  0  0  0  0  0  0
    0.4206   -2.4101    0.3031 H   0  0  0  0  0  0  0  0  0  0  0  0
   -0.6853   -2.5363   -1.0712 H   0  0  0  0  0  0  0  0  0  0  0  0
    1.2928   -1.7731   -1.5427 C   0  0  0  0  0  0  0  0  0  0  0  0
    0.9795   -1.2670   -2.4624 H   0  0  0  0  0  0  0  0  0  0  0  0
    2.0616   -1.1655   -1.0524 H   0  0  0  0  0  0  0  0  0  0  0  0
    1.8215   -3.1141   -1.8505 N   0  3  0  0  0  0  0  0  0  0  0  0
    1.3583   -3.9055   -1.4036 H   0  0  0  0  0  0  0  0  0  0  0  0
    2.8265   -3.3295   -2.6488 C   0  0  0  0  0  0  0  0  0  0  0  0
    3.4763   -2.2996   -3.2905 N   0  0  0  0  0  0  0  0  0  0  0  0
    3.0521   -1.3748   -3.2575 H   0  0  0  0  0  0  0  0  0  0  0  0
    4.0898   -2.5189   -4.0725 H   0  0  0  0  0  0  0  0  0  0  0  0
    3.2565   -4.6171   -2.8643 N   0  0  0  0  0  0  0  0  0  0  0  0
    2.9005   -5.3592   -2.2645 H   0  0  0  0  0  0  0  0  0  0  0  0
    4.1577   -4.7598   -3.3167 H   0  0  0  0  0  0  0  0  0  0  0  0
   -1.4019    0.9107    1.6030 C   0  0  0  0  0  0  0  0  0  0  0  0
   -2.3314    1.5500    1.1273 O   0  0  0  0  0  0  0  0  0  0  0  0
   -0.6021    1.4842    2.5746 N   0  0  0  0  0  0  0  0  0  0  0  0
    0.0973    0.8980    3.0214 H   0  0  0  0  0  0  0  0  0  0  0  0
   -0.8448    2.8185    3.1148 C   0  0  0  0  0  0  0  0  0  0  0  0
   -1.8261    2.8642    3.5996 H   0  0  0  0  0  0  0  0  0  0  0  0
   -0.0810    3.0732    3.8560 H   0  0  0  0  0  0  0  0  0  0  0  0
   -0.8129    3.5681    2.3167 H   0  0  0  0  0  0  0  0  0  0  0  0
  1  2  1  0  0  0  0
  2  3  1  0  0  0  0
  2  4  1  0  0  0  0
  2  5  1  0  0  0  0
  5  6  2  0  0  0  0
  5  7  1  0  0  0  0
  7  8  1  0  0  0  0
  7  9  1  0  0  0  0
  9 10  1  0  0  0  0
  9 11  1  0  0  0  0
  9 29  1  0  0  0  0
 11 12  1  0  0  0  0
 11 13  1  0  0  0  0
 11 14  1  0  0  0  0
 14 15  1  0  0  0  0
 14 16  1  0  0  0  0
 14 17  1  0  0  0  0
 17 18  1  0  0  0  0
 17 19  1  0  0  0  0
 17 20  1  0  0  0  0
 20 21  1  0  0  0  0
 20 22  2  0  0  0  0
 22 23  1  0  0  0  0
 22 26  1  0  0  0  0
 23 24  1  0  0  0  0
 23 25  1  0  0  0  0
 26 27  1  0  0  0  0
 26 28  1  0  0  0  0
 29 30  2  0  0  0  0
 29 31  1  0  0  0  0
 31 32  1  0  0  0  0
 31 33  1  0  0  0  0
 33 34  1  0  0  0  0
 33 35  1  0  0  0  0
 33 36  1  0  0  0  0
M  CHG  1  20   1
M  END
$$$$

  -OEChem-03222214013D

 36 35  0     1  0  0  0  0  0999 V2000
   -4.0028   -4.1256    1.9882 H   0  0  0  0  0  0  0  0  0  0  0  0
   -4.0274   -3.0997    1.6106 C   0  0  0  0  0  0  0  0  0  0  0  0
   -4.6386   -2.4925    2.2829 H   0  0  0  0  0  0  0  0  0  0  0  0
   -4.4827   -3.1001    0.6174 H   0  0  0  0  0  0  0  0  0  0  0  0
   -2.6219   -2.5350    1.5372 C   0  0  0  0  0  0  0  0  0  0  0  0
   -1.6663   -3.2180    1.8760 O   0  0  0  0  0  0  0  0  0  0  0  0
   -2.4166   -1.2582    1.0554 N   0  0  0  0  0  0  0  0  0  0  0  0
   -3.2487   -0.6994    0.8616 H   0  0  0  0  0  0  0  0  0  0  0  0
   -1.1446   -0.5249    1.1455 C   0  0  1  0  0  0  0  0  0  0  0  0
   -0.4810   -0.9825    1.8867 H   0  0  0  0  0  0  0  0  0  0  0  0
   -0.4750   -0.5284   -0.2425 C   0  0  0  0  0  0  0  0  0  0  0  0
   -1.2001   -0.2416   -1.0125 H   0  0  0  0  0  0  0  0  0  0  0  0
    0.3117    0.2342   -0.2417 H   0  0  0  0  0  0  0  0  0  0  0  0
    0.1448   -1.8960   -0.5845 C   0  0  0  0  0  0  0  0  0  0  0  0
    0.2297   -2.5036    0.3215 H   0  0  0  0  0  0  0  0  0  0  0  0
   -0.5165   -2.4281   -1.2769 H   0  0  0  0  0  0  0  0  0  0  0  0
    1.5420   -1.7483   -1.1813 C   0  0  0  0  0  0  0  0  0  0  0  0
    1.4762   -1.1825   -2.1171 H   0  0  0  0  0  0  0  0  0  0  0  0
    2.1793   -1.1961   -0.4818 H   0  0  0  0  0  0  0  0  0  0  0  0
    2.1008   -3.0903   -1.4265 N   0  3  0  0  0  0  0  0  0  0  0  0
    1.6069   -3.8774   -1.0058 H   0  0  0  0  0  0  0  0  0  0  0  0
    3.1857   -3.3120   -2.1099 C   0  0  0  0  0  0  0  0  0  0  0  0
    3.9124   -2.2865   -2.6700 N   0  0  0  0  0  0  0  0  0  0  0  0
    3.6713   -1.3332   -2.4073 H   0  0  0  0  0  0  0  0  0  0  0  0
    4.8631   -2.4734   -2.9822 H   0  0  0  0  0  0  0  0  0  0  0  0
    3.6280   -4.6023   -2.2776 N   0  0  0  0  0  0  0  0  0  0  0  0
    3.0080   -5.3687   -2.0216 H   0  0  0  0  0  0  0  0  0  0  0  0
    4.3475   -4.7830   -2.9754 H   0  0  0  0  0  0  0  0  0  0  0  0
   -1.4139    0.9233    1.6040 C   0  0  0  0  0  0  0  0  0  0  0  0
   -2.3406    1.5465    1.1021 O   0  0  0  0  0  0  0  0  0  0  0  0
   -0.6371    1.5200    2.5807 N   0  0  0  0  0  0  0  0  0  0  0  0
    0.0499    0.9430    3.0576 H   0  0  0  0  0  0  0  0  0  0  0  0
   -0.9187    2.8510    3.1105 C   0  0  0  0  0  0  0  0  0  0  0  0
   -1.9003    2.8711    3.5963 H   0  0  0  0  0  0  0  0  0  0  0  0
   -0.1619    3.1349    3.8483 H   0  0  0  0  0  0  0  0  0  0  0  0
   -0.9105    3.5950    2.3068 H   0  0  0  0  0  0  0  0  0  0  0  0
  1  2  1  0  0  0  0
  2  3  1  0  0  0  0
  2  4  1  0  0  0  0
  2  5  1  0  0  0  0
  5  6  2  0  0  0  0
  5  7  1  0  0  0  0
  7  8  1  0  0  0  0
  7  9  1  0  0  0  0
  9 10  1  0  0  0  0
  9 11  1  0  0  0  0
  9 29  1  0  0  0  0
 11 12  1  0  0  0  0
 11 13  1  0  0  0  0
 11 14  1  0  0  0  0
 14 15  1  0  0  0  0
 14 16  1  0  0  0  0
 14 17  1  0  0  0  0
 17 18  1  0  0  0  0
 17 19  1  0  0  0  0
 17 20  1  0  0  0  0
 20 21  1  0  0  0  0
 20 22  2  0  0  0  0
 22 23  1  0  0  0  0
 22 26  1  0  0  0  0
 23 24  1  0  0  0  0
 23 25  1  0  0  0  0
 26 27  1  0  0  0  0
 26 28  1  0  0  0  0
 29 30  2  0  0  0  0
 29 31  1  0  0  0  0
 31 32  1  0  0  0  0
 31 33  1  0  0  0  0
 33 34  1  0  0  0  0
 33 35  1  0  0  0  0
 33 36  1  0  0  0  0
M  CHG  1  20   1
M  END
$$$$

  -OEChem-03222214013D

 36 35  0     1  0  0  0  0  0999 V2000
   -4.0680   -4.1162    1.9185 H   0  0  0  0  0  0  0  0  0  0  0  0
   -4.0683   -3.0863    1.5502 C   0  0  0  0  0  0  0  0  0  0  0  0
   -4.7063   -2.4814    2.1994 H   0  0  0  0  0  0  0  0  0  0  0  0
   -4.4774   -3.0748    0.5370 H   0  0  0  0  0  0  0  0  0  0  0  0
   -2.6576   -2.5298    1.5477 C   0  0  0  0  0  0  0  0  0  0  0  0
   -1.7305   -3.2060    1.9691 O   0  0  0  0  0  0  0  0  0  0  0  0
   -2.4187   -1.2613    1.0587 N   0  0  0  0  0  0  0  0  0  0  0  0
   -3.2351   -0.7039    0.8039 H   0  0  0  0  0  0  0  0  0  0  0  0
   -1.1450   -0.5358    1.1822 C   0  0  1  0  0  0  0  0  0  0  0  0
   -0.5064   -0.9922    1.9458 H   0  0  0  0  0  0  0  0  0  0  0  0
   -0.4247   -0.5366   -0.1818 C   0  0  0  0  0  0  0  0  0  0  0  0
   -1.1363   -0.2578   -0.9675 H   0  0  0  0  0  0  0  0  0  0  0  0
    0.3526    0.2357   -0.1696 H   0  0  0  0  0  0  0  0  0  0  0  0
    0.2090   -1.8989   -0.5219 C   0  0  0  0  0  0  0  0  0  0  0  0
    0.0104   -2.6201    0.2746 H   0  0  0  0  0  0  0  0  0  0  0  0
   -0.2504   -2.2878   -1.4370 H   0  0  0  0  0  0  0  0  0  0  0  0
    1.7193   -1.7835   -0.7111 C   0  0  0  0  0  0  0  0  0  0  0  0
    1.9253   -1.1304   -1.5661 H   0  0  0  0  0  0  0  0  0  0  0  0
    2.1635   -1.3368    0.1853 H   0  0  0  0  0  0  0  0  0  0  0  0
    2.2796   -3.1290   -0.9333 N   0  3  0  0  0  0  0  0  0  0  0  0
    1.7421   -3.9153   -0.5678 H   0  0  0  0  0  0  0  0  0  0  0  0
    3.4200   -3.3562   -1.5174 C   0  0  0  0  0  0  0  0  0  0  0  0
    4.2130   -2.3346   -1.9881 N   0  0  0  0  0  0  0  0  0  0  0  0
    3.9681   -1.3829   -1.7231 H   0  0  0  0  0  0  0  0  0  0  0  0
    5.1866   -2.5351   -2.2081 H   0  0  0  0  0  0  0  0  0  0  0  0
    3.8548   -4.6511   -1.6687 N   0  0  0  0  0  0  0  0  0  0  0  0
    3.2017   -5.4103   -1.4832 H   0  0  0  0  0  0  0  0  0  0  0  0
    4.6282   -4.8325   -2.3059 H   0  0  0  0  0  0  0  0  0  0  0  0
   -1.4244    0.9188    1.6128 C   0  0  0  0  0  0  0  0  0  0  0  0
   -2.3240    1.5429    1.0646 O   0  0  0  0  0  0  0  0  0  0  0  0
   -0.6786    1.5232    2.6086 N   0  0  0  0  0  0  0  0  0  0  0  0
   -0.0237    0.9441    3.1264 H   0  0  0  0  0  0  0  0  0  0  0  0
   -0.9578    2.8699    3.0983 C   0  0  0  0  0  0  0  0  0  0  0  0
   -1.9439    2.9092    3.5735 H   0  0  0  0  0  0  0  0  0  0  0  0
   -0.2061    3.1705    3.8347 H   0  0  0  0  0  0  0  0  0  0  0  0
   -0.9370    3.5909    2.2738 H   0  0  0  0  0  0  0  0  0  0  0  0
  1  2  1  0  0  0  0
  2  3  1  0  0  0  0
  2  4  1  0  0  0  0
  2  5  1  0  0  0  0
  5  6  2  0  0  0  0
  5  7  1  0  0  0  0
  7  8  1  0  0  0  0
  7  9  1  0  0  0  0
  9 10  1  0  0  0  0
  9 11  1  0  0  0  0
  9 29  1  0  0  0  0
 11 12  1  0  0  0  0
 11 13  1  0  0  0  0
 11 14  1  0  0  0  0
 14 15  1  0  0  0  0
 14 16  1  0  0  0  0
 14 17  1  0  0  0  0
 17 18  1  0  0  0  0
 17 19  1  0  0  0  0
 17 20  1  0  0  0  0
 20 21  1  0  0  0  0
 20 22  2  0  0  0  0
 22 23  1  0  0  0  0
 22 26  1  0  0  0  0
 23 24  1  0  0  0  0
 23 25  1  0  0  0  0
 26 27  1  0  0  0  0
 26 28  1  0  0  0  0
 29 30  2  0  0  0  0
 29 31  1  0  0  0  0
 31 32  1  0  0  0  0
 31 33  1  0  0  0  0
 33 34  1  0  0  0  0
 33 35  1  0  0  0  0
 33 36  1  0  0  0  0
M  CHG  1  20   1
M  END
$$$$

  -OEChem-03222214013D

 36 35  0     1  0  0  0  0  0999 V2000
   -4.0864   -4.0980    1.9353 H   0  0  0  0  0  0  0  0  0  0  0  0
   -4.0768   -3.0848    1.5241 C   0  0  0  0  0  0  0  0  0  0  0  0
   -4.7308   -2.4538    2.1313 H   0  0  0  0  0  0  0  0  0  0  0  0
   -4.4605   -3.1156    0.5015 H   0  0  0  0  0  0  0  0  0  0  0  0
   -2.6658   -2.5287    1.5344 C   0  0  0  0  0  0  0  0  0  0  0  0
   -1.7432   -3.2013    1.9730 O   0  0  0  0  0  0  0  0  0  0  0  0
   -2.4228   -1.2596    1.0484 N   0  0  0  0  0  0  0  0  0  0  0  0
   -3.2362   -0.7034    0.7810 H   0  0  0  0  0  0  0  0  0  0  0  0
   -1.1492   -0.5350    1.1816 C   0  0  1  0  0  0  0  0  0  0  0  0
   -0.5191   -0.9940    1.9504 H   0  0  0  0  0  0  0  0  0  0  0  0
   -0.4042   -0.5240   -0.1698 C   0  0  0  0  0  0  0  0  0  0  0  0
   -1.1184   -0.2582   -0.9576 H   0  0  0  0  0  0  0  0  0  0  0  0
    0.3639    0.2574   -0.1623 H   0  0  0  0  0  0  0  0  0  0  0  0
    0.2392   -1.8803   -0.5097 C   0  0  0  0  0  0  0  0  0  0  0  0
   -0.1997   -2.6787    0.0920 H   0  0  0  0  0  0  0  0  0  0  0  0
    0.0303   -2.1158   -1.5588 H   0  0  0  0  0  0  0  0  0  0  0  0
    1.7520   -1.8431   -0.3057 C   0  0  0  0  0  0  0  0  0  0  0  0
    2.1980   -1.1622   -1.0384 H   0  0  0  0  0  0  0  0  0  0  0  0
    1.9716   -1.4649    0.6990 H   0  0  0  0  0  0  0  0  0  0  0  0
    2.2917   -3.2076   -0.4518 N   0  3  0  0  0  0  0  0  0  0  0  0
    1.6803   -3.9726   -0.1655 H   0  0  0  0  0  0  0  0  0  0  0  0
    3.4978   -3.4788   -0.8590 C   0  0  0  0  0  0  0  0  0  0  0  0
    4.3898   -2.4897   -1.2053 N   0  0  0  0  0  0  0  0  0  0  0  0
    4.1497   -1.5293   -0.9692 H   0  0  0  0  0  0  0  0  0  0  0  0
    5.3754   -2.7296   -1.2915 H   0  0  0  0  0  0  0  0  0  0  0  0
    3.9026   -4.7893   -0.9455 N   0  0  0  0  0  0  0  0  0  0  0  0
    3.2034   -5.5242   -0.8545 H   0  0  0  0  0  0  0  0  0  0  0  0
    4.7546   -5.0023   -1.4608 H   0  0  0  0  0  0  0  0  0  0  0  0
   -1.4324    0.9189    1.6129 C   0  0  0  0  0  0  0  0  0  0  0  0
   -2.3334    1.5420    1.0663 O   0  0  0  0  0  0  0  0  0  0  0  0
   -0.6928    1.5207    2.6151 N   0  0  0  0  0  0  0  0  0  0  0  0
   -0.0373    0.9416    3.1316 H   0  0  0  0  0  0  0  0  0  0  0  0
   -0.9850    2.8595    3.1186 C   0  0  0  0  0  0  0  0  0  0  0  0
   -1.9897    2.8956    3.5536 H   0  0  0  0  0  0  0  0  0  0  0  0
   -0.2631    3.1399    3.8919 H   0  0  0  0  0  0  0  0  0  0  0  0
   -0.9264    3.5967    2.3104 H   0  0  0  0  0  0  0  0  0  0  0  0
  1  2  1  0  0  0  0
  2  3  1  0  0  0  0
  2  4  1  0  0  0  0
  2  5  1  0  0  0  0
  5  6  2  0  0  0  0
  5  7  1  0  0  0  0
  7  8  1  0  0  0  0
  7  9  1  0  0  0  0
  9 10  1  0  0  0  0
  9 11  1  0  0  0  0
  9 29  1  0  0  0  0
 11 12  1  0  0  0  0
 11 13  1  0  0  0  0
 11 14  1  0  0  0  0
 14 15  1  0  0  0  0
 14 16  1  0  0  0  0
 14 17  1  0  0  0  0
 17 18  1  0  0  0  0
 17 19  1  0  0  0  0
 17 20  1  0  0  0  0
 20 21  1  0  0  0  0
 20 22  2  0  0  0  0
 22 23  1  0  0  0  0
 22 26  1  0  0  0  0
 23 24  1  0  0  0  0
 23 25  1  0  0  0  0
 26 27  1  0  0  0  0
 26 28  1  0  0  0  0
 29 30  2  0  0  0  0
 29 31  1  0  0  0  0
 31 32  1  0  0  0  0
 31 33  1  0  0  0  0
 33 34  1  0  0  0  0
 33 35  1  0  0  0  0
 33 36  1  0  0  0  0
M  CHG  1  20   1
M  END
$$$$

  -OEChem-03222214013D

 36 35  0     1  0  0  0  0  0999 V2000
   -3.8588   -4.2287    1.7586 H   0  0  0  0  0  0  0  0  0  0  0  0
   -3.8989   -3.2032    1.3808 C   0  0  0  0  0  0  0  0  0  0  0  0
   -4.5921   -2.6278    1.9996 H   0  0  0  0  0  0  0  0  0  0  0  0
   -4.2694   -3.2200    0.3528 H   0  0  0  0  0  0  0  0  0  0  0  0
   -2.5205   -2.5730    1.4258 C   0  0  0  0  0  0  0  0  0  0  0  0
   -1.5615   -3.2156    1.8370 O   0  0  0  0  0  0  0  0  0  0  0  0
   -2.3411   -1.2772    0.9827 N   0  0  0  0  0  0  0  0  0  0  0  0
   -3.1790   -0.7502    0.7310 H   0  0  0  0  0  0  0  0  0  0  0  0
   -1.1069   -0.4998    1.1713 C   0  0  1  0  0  0  0  0  0  0  0  0
   -0.4771   -0.9518    1.9440 H   0  0  0  0  0  0  0  0  0  0  0  0
   -0.3232   -0.4047   -0.1543 C   0  0  0  0  0  0  0  0  0  0  0  0
   -1.0248   -0.1490   -0.9563 H   0  0  0  0  0  0  0  0  0  0  0  0
    0.4137    0.4047   -0.1024 H   0  0  0  0  0  0  0  0  0  0  0  0
    0.3823   -1.7247   -0.4998 C   0  0  0  0  0  0  0  0  0  0  0  0
   -0.2181   -2.5746   -0.1694 H   0  0  0  0  0  0  0  0  0  0  0  0
    0.4670   -1.8064   -1.5887 H   0  0  0  0  0  0  0  0  0  0  0  0
    1.7882   -1.7768    0.0932 C   0  0  0  0  0  0  0  0  0  0  0  0
    2.4836   -1.2363   -0.5565 H   0  0  0  0  0  0  0  0  0  0  0  0
    1.7861   -1.2852    1.0725 H   0  0  0  0  0  0  0  0  0  0  0  0
    2.1733   -3.1901    0.2655 N   0  3  0  0  0  0  0  0  0  0  0  0
    1.5085   -3.7775    0.7724 H   0  0  0  0  0  0  0  0  0  0  0  0
    3.2823   -3.7176   -0.1649 C   0  0  0  0  0  0  0  0  0  0  0  0
    4.2361   -2.9815   -0.8303 N   0  0  0  0  0  0  0  0  0  0  0  0
    4.1438   -1.9682   -0.8253 H   0  0  0  0  0  0  0  0  0  0  0  0
    5.1686   -3.3758   -0.9359 H   0  0  0  0  0  0  0  0  0  0  0  0
    3.5152   -5.0549    0.0490 N   0  0  0  0  0  0  0  0  0  0  0  0
    2.7512   -5.6347    0.3920 H   0  0  0  0  0  0  0  0  0  0  0  0
    4.2628   -5.5086   -0.4726 H   0  0  0  0  0  0  0  0  0  0  0  0
   -1.4730    0.9230    1.6433 C   0  0  0  0  0  0  0  0  0  0  0  0
   -2.3993    1.5135    1.1032 O   0  0  0  0  0  0  0  0  0  0  0  0
   -0.7900    1.5273    2.6834 N   0  0  0  0  0  0  0  0  0  0  0  0
   -0.0994    0.9754    3.1832 H   0  0  0  0  0  0  0  0  0  0  0  0
   -1.1570    2.8359    3.2165 C   0  0  0  0  0  0  0  0  0  0  0  0
   -2.1796    2.8181    3.6083 H   0  0  0  0  0  0  0  0  0  0  0  0
   -0.4808    3.1188    4.0291 H   0  0  0  0  0  0  0  0  0  0  0  0
   -1.0946    3.6010    2.4351 H   0  0  0  0  0  0  0  0  0  0  0  0
  1  2  1  0  0  0  0
  2  3  1  0  0  0  0
  2  4  1  0  0  0  0
  2  5  1  0  0  0  0
  5  6  2  0  0  0  0
  5  7  1  0  0  0  0
  7  8  1  0  0  0  0
  7  9  1  0  0  0  0
  9 10  1  0  0  0  0
  9 11  1  0  0  0  0
  9 29  1  0  0  0  0
 11 12  1  0  0  0  0
 11 13  1  0  0  0  0
 11 14  1  0  0  0  0
 14 15  1  0  0  0  0
 14 16  1  0  0  0  0
 14 17  1  0  0  0  0
 17 18  1  0  0  0  0
 17 19  1  0  0  0  0
 17 20  1  0  0  0  0
 20 21  1  0  0  0  0
 20 22  2  0  0  0  0
 22 23  1  0  0  0  0
 22 26  1  0  0  0  0
 23 24  1  0  0  0  0
 23 25  1  0  0  0  0
 26 27  1  0  0  0  0
 26 28  1  0  0  0  0
 29 30  2  0  0  0  0
 29 31  1  0  0  0  0
 31 32  1  0  0  0  0
 31 33  1  0  0  0  0
 33 34  1  0  0  0  0
 33 35  1  0  0  0  0
 33 36  1  0  0  0  0
M  CHG  1  20   1
M  END
$$$$

  -OEChem-03222214013D

 36 35  0     1  0  0  0  0  0999 V2000
   -3.1888   -4.6870    1.4159 H   0  0  0  0  0  0  0  0  0  0  0  0
   -3.3794   -3.6367    1.1787 C   0  0  0  0  0  0  0  0  0  0  0  0
   -4.0580   -3.2249    1.9301 H   0  0  0  0  0  0  0  0  0  0  0  0
   -3.8585   -3.5783    0.1980 H   0  0  0  0  0  0  0  0  0  0  0  0
   -2.0807   -2.8544    1.1692 C   0  0  0  0  0  0  0  0  0  0  0  0
   -1.0102   -3.4222    1.3809 O   0  0  0  0  0  0  0  0  0  0  0  0
   -2.0916   -1.4971    0.9163 N   0  0  0  0  0  0  0  0  0  0  0  0
   -3.0018   -1.0373    0.8431 H   0  0  0  0  0  0  0  0  0  0  0  0
   -0.9187   -0.6223    1.0494 C   0  0  1  0  0  0  0  0  0  0  0  0
   -0.1373   -1.0872    1.6529 H   0  0  0  0  0  0  0  0  0  0  0  0
   -0.3791   -0.2240   -0.3402 C   0  0  0  0  0  0  0  0  0  0  0  0
   -1.2212    0.0945   -0.9654 H   0  0  0  0  0  0  0  0  0  0  0  0
    0.2899    0.6382   -0.2403 H   0  0  0  0  0  0  0  0  0  0  0  0
    0.3787   -1.3544   -1.0598 C   0  0  0  0  0  0  0  0  0  0  0  0
   -0.2231   -2.2693   -1.0853 H   0  0  0  0  0  0  0  0  0  0  0  0
    0.5070   -1.0395   -2.1012 H   0  0  0  0  0  0  0  0  0  0  0  0
    1.7747   -1.6239   -0.4969 C   0  0  0  0  0  0  0  0  0  0  0  0
    2.4214   -2.0065   -1.2939 H   0  0  0  0  0  0  0  0  0  0  0  0
    2.2128   -0.7013   -0.1001 H   0  0  0  0  0  0  0  0  0  0  0  0
    1.6056   -2.6416    0.5545 N   0  3  0  0  0  0  0  0  0  0  0  0
    0.6502   -2.7709    0.9056 H   0  0  0  0  0  0  0  0  0  0  0  0
    2.4804   -3.5320    0.9017 C   0  0  0  0  0  0  0  0  0  0  0  0
    3.7720   -3.5241    0.4294 N   0  0  0  0  0  0  0  0  0  0  0  0
    4.0914   -2.6901   -0.0585 H   0  0  0  0  0  0  0  0  0  0  0  0
    4.4660   -4.0958    0.9065 H   0  0  0  0  0  0  0  0  0  0  0  0
    2.0699   -4.5144    1.7676 N   0  0  0  0  0  0  0  0  0  0  0  0
    1.0648   -4.5935    1.9385 H   0  0  0  0  0  0  0  0  0  0  0  0
    2.6316   -5.3596    1.8413 H   0  0  0  0  0  0  0  0  0  0  0  0
   -1.3486    0.6633    1.7908 C   0  0  0  0  0  0  0  0  0  0  0  0
   -2.4202    1.1842    1.5109 O   0  0  0  0  0  0  0  0  0  0  0  0
   -0.5794    1.1927    2.8115 N   0  0  0  0  0  0  0  0  0  0  0  0
    0.2814    0.7173    3.0633 H   0  0  0  0  0  0  0  0  0  0  0  0
   -0.9753    2.3740    3.5730 C   0  0  0  0  0  0  0  0  0  0  0  0
   -1.9135    2.1902    4.1075 H   0  0  0  0  0  0  0  0  0  0  0  0
   -0.2047    2.6297    4.3068 H   0  0  0  0  0  0  0  0  0  0  0  0
   -1.1136    3.2326    2.9068 H   0  0  0  0  0  0  0  0  0  0  0  0
  1  2  1  0  0  0  0
  2  3  1  0  0  0  0
  2  4  1  0  0  0  0
  2  5  1  0  0  0  0
  5  6  2  0  0  0  0
  5  7  1  0  0  0  0
  7  8  1  0  0  0  0
  7  9  1  0  0  0  0
  9 10  1  0  0  0  0
  9 11  1  0  0  0  0
  9 29  1  0  0  0  0
 11 12  1  0  0  0  0
 11 13  1  0  0  0  0
 11 14  1  0  0  0  0
 14 15  1  0  0  0  0
 14 16  1  0  0  0  0
 14 17  1  0  0  0  0
 17 18  1  0  0  0  0
 17 19  1  0  0  0  0
 17 20  1  0  0  0  0
 20 21  1  0  0  0  0
 20 22  2  0  0  0  0
 22 23  1  0  0  0  0
 22 26  1  0  0  0  0
 23 24  1  0  0  0  0
 23 25  1  0  0  0  0
 26 27  1  0  0  0  0
 26 28  1  0  0  0  0
 29 30  2  0  0  0  0
 29 31  1  0  0  0  0
 31 32  1  0  0  0  0
 31 33  1  0  0  0  0
 33 34  1  0  0  0  0
 33 35  1  0  0  0  0
 33 36  1  0  0  0  0
M  CHG  1  20   1
M  END
$$$$

  -OEChem-03222214013D

 36 35  0     1  0  0  0  0  0999 V2000
   -3.1535   -4.3006    2.7312 H   0  0  0  0  0  0  0  0  0  0  0  0
   -3.3702   -3.3426    2.2507 C   0  0  0  0  0  0  0  0  0  0  0  0
   -3.9945   -2.7469    2.9217 H   0  0  0  0  0  0  0  0  0  0  0  0
   -3.9211   -3.5290    1.3253 H   0  0  0  0  0  0  0  0  0  0  0  0
   -2.0830   -2.6006    1.9478 C   0  0  0  0  0  0  0  0  0  0  0  0
   -0.9968   -3.1081    2.2093 O   0  0  0  0  0  0  0  0  0  0  0  0
   -2.1258   -1.3721    1.3243 N   0  0  0  0  0  0  0  0  0  0  0  0
   -3.0481   -0.9548    1.1839 H   0  0  0  0  0  0  0  0  0  0  0  0
   -0.9794   -0.4609    1.2041 C   0  0  1  0  0  0  0  0  0  0  0  0
   -0.1977   -0.7221    1.9219 H   0  0  0  0  0  0  0  0  0  0  0  0
   -0.4395   -0.5151   -0.2388 C   0  0  0  0  0  0  0  0  0  0  0  0
   -1.2756   -0.4268   -0.9418 H   0  0  0  0  0  0  0  0  0  0  0  0
    0.2156    0.3467   -0.4073 H   0  0  0  0  0  0  0  0  0  0  0  0
    0.3554   -1.7955   -0.5489 C   0  0  0  0  0  0  0  0  0  0  0  0
   -0.3034   -2.6639   -0.4449 H   0  0  0  0  0  0  0  0  0  0  0  0
    0.6826   -1.7567   -1.5934 H   0  0  0  0  0  0  0  0  0  0  0  0
    1.5771   -1.9629    0.3568 C   0  0  0  0  0  0  0  0  0  0  0  0
    2.2314   -1.0913    0.2457 H   0  0  0  0  0  0  0  0  0  0  0  0
    1.2633   -2.0086    1.4044 H   0  0  0  0  0  0  0  0  0  0  0  0
    2.3148   -3.1873   -0.0063 N   0  3  0  0  0  0  0  0  0  0  0  0
    2.9103   -3.1372   -0.8316 H   0  0  0  0  0  0  0  0  0  0  0  0
    2.2791   -4.2930    0.6826 C   0  0  0  0  0  0  0  0  0  0  0  0
    1.4861   -4.4486    1.7954 N   0  0  0  0  0  0  0  0  0  0  0  0
    0.7133   -3.7857    1.9220 H   0  0  0  0  0  0  0  0  0  0  0  0
    1.3403   -5.3886    2.1533 H   0  0  0  0  0  0  0  0  0  0  0  0
    3.0653   -5.3515    0.2940 N   0  0  0  0  0  0  0  0  0  0  0  0
    3.7884   -5.1931   -0.4048 H   0  0  0  0  0  0  0  0  0  0  0  0
    3.1946   -6.1208    0.9486 H   0  0  0  0  0  0  0  0  0  0  0  0
   -1.4330    0.9745    1.5471 C   0  0  0  0  0  0  0  0  0  0  0  0
   -2.5143    1.3710    1.1326 O   0  0  0  0  0  0  0  0  0  0  0  0
   -0.6782    1.7895    2.3716 N   0  0  0  0  0  0  0  0  0  0  0  0
    0.1839    1.4176    2.7583 H   0  0  0  0  0  0  0  0  0  0  0  0
   -1.1039    3.1281    2.7706 C   0  0  0  0  0  0  0  0  0  0  0  0
   -2.0277    3.0787    3.3571 H   0  0  0  0  0  0  0  0  0  0  0  0
   -0.3323    3.6070    3.3817 H   0  0  0  0  0  0  0  0  0  0  0  0
   -1.2809    3.7539    1.8891 H   0  0  0  0  0  0  0  0  0  0  0  0
  1  2  1  0  0  0  0
  2  3  1  0  0  0  0
  2  4  1  0  0  0  0
  2  5  1  0  0  0  0
  5  6  2  0  0  0  0
  5  7  1  0  0  0  0
  7  8  1  0  0  0  0
  7  9  1  0  0  0  0
  9 10  1  0  0  0  0
  9 11  1  0  0  0  0
  9 29  1  0  0  0  0
 11 12  1  0  0  0  0
 11 13  1  0  0  0  0
 11 14  1  0  0  0  0
 14 15  1  0  0  0  0
 14 16  1  0  0  0  0
 14 17  1  0  0  0  0
 17 18  1  0  0  0  0
 17 19  1  0  0  0  0
 17 20  1  0  0  0  0
 20 21  1  0  0  0  0
 20 22  2  0  0  0  0
 22 23  1  0  0  0  0
 22 26  1  0  0  0  0
 23 24  1  0  0  0  0
 23 25  1  0  0  0  0
 26 27  1  0  0  0  0
 26 28  1  0  0  0  0
 29 30  2  0  0  0  0
 29 31  1  0  0  0  0
 31 32  1  0  0  0  0
 31 33  1  0  0  0  0
 33 34  1  0  0  0  0
 33 35  1  0  0  0  0
 33 36  1  0  0  0  0
M  CHG  1  20   1
M  END
$$$$

  -OEChem-03222214013D

 36 35  0     1  0  0  0  0  0999 V2000
   -3.4220   -4.2114    2.7242 H   0  0  0  0  0  0  0  0  0  0  0  0
   -3.5618   -3.2685    2.1885 C   0  0  0  0  0  0  0  0  0  0  0  0
   -4.2288   -2.6291    2.7725 H   0  0  0  0  0  0  0  0  0  0  0  0
   -4.0275   -3.4774    1.2220 H   0  0  0  0  0  0  0  0  0  0  0  0
   -2.2292   -2.5740    1.9843 C   0  0  0  0  0  0  0  0  0  0  0  0
   -1.1926   -3.1074    2.3615 O   0  0  0  0  0  0  0  0  0  0  0  0
   -2.1836   -1.3597    1.3350 N   0  0  0  0  0  0  0  0  0  0  0  0
   -3.0825   -0.9328    1.1018 H   0  0  0  0  0  0  0  0  0  0  0  0
   -1.0167   -0.4672    1.2586 C   0  0  1  0  0  0  0  0  0  0  0  0
   -0.2781   -0.7203    2.0231 H   0  0  0  0  0  0  0  0  0  0  0  0
   -0.4120   -0.5588   -0.1587 C   0  0  0  0  0  0  0  0  0  0  0  0
   -1.2089   -0.4477   -0.9030 H   0  0  0  0  0  0  0  0  0  0  0  0
    0.2683    0.2900   -0.2905 H   0  0  0  0  0  0  0  0  0  0  0  0
    0.3878   -1.8415   -0.4579 C   0  0  0  0  0  0  0  0  0  0  0  0
   -0.3258   -2.6585   -0.6103 H   0  0  0  0  0  0  0  0  0  0  0  0
    0.9377   -1.7047   -1.3951 H   0  0  0  0  0  0  0  0  0  0  0  0
    1.3557   -2.2456    0.6584 C   0  0  0  0  0  0  0  0  0  0  0  0
    2.0977   -1.4512    0.7949 H   0  0  0  0  0  0  0  0  0  0  0  0
    0.8176   -2.3574    1.6024 H   0  0  0  0  0  0  0  0  0  0  0  0
    2.0374   -3.5047    0.3023 N   0  3  0  0  0  0  0  0  0  0  0  0
    2.6388   -3.4840   -0.5197 H   0  0  0  0  0  0  0  0  0  0  0  0
    1.9411   -4.6090    0.9876 C   0  0  0  0  0  0  0  0  0  0  0  0
    1.1415   -4.7242    2.1001 N   0  0  0  0  0  0  0  0  0  0  0  0
    0.4191   -4.0085    2.2349 H   0  0  0  0  0  0  0  0  0  0  0  0
    0.9300   -5.6562    2.4457 H   0  0  0  0  0  0  0  0  0  0  0  0
    2.6662   -5.7081    0.5937 N   0  0  0  0  0  0  0  0  0  0  0  0
    3.3974   -5.5868   -0.1038 H   0  0  0  0  0  0  0  0  0  0  0  0
    2.7514   -6.4873    1.2435 H   0  0  0  0  0  0  0  0  0  0  0  0
   -1.4718    0.9819    1.5353 C   0  0  0  0  0  0  0  0  0  0  0  0
   -2.5218    1.3787    1.0466 O   0  0  0  0  0  0  0  0  0  0  0  0
   -0.7573    1.8102    2.3816 N   0  0  0  0  0  0  0  0  0  0  0  0
    0.0798    1.4416    2.8229 H   0  0  0  0  0  0  0  0  0  0  0  0
   -1.1896    3.1633    2.7190 C   0  0  0  0  0  0  0  0  0  0  0  0
   -2.1519    3.1393    3.2418 H   0  0  0  0  0  0  0  0  0  0  0  0
   -0.4545    3.6471    3.3698 H   0  0  0  0  0  0  0  0  0  0  0  0
   -1.2980    3.7694    1.8129 H   0  0  0  0  0  0  0  0  0  0  0  0
  1  2  1  0  0  0  0
  2  3  1  0  0  0  0
  2  4  1  0  0  0  0
  2  5  1  0  0  0  0
  5  6  2  0  0  0  0
  5  7  1  0  0  0  0
  7  8  1  0  0  0  0
  7  9  1  0  0  0  0
  9 10  1  0  0  0  0
  9 11  1  0  0  0  0
  9 29  1  0  0  0  0
 11 12  1  0  0  0  0
 11 13  1  0  0  0  0
 11 14  1  0  0  0  0
 14 15  1  0  0  0  0
 14 16  1  0  0  0  0
 14 17  1  0  0  0  0
 17 18  1  0  0  0  0
 17 19  1  0  0  0  0
 17 20  1  0  0  0  0
 20 21  1  0  0  0  0
 20 22  2  0  0  0  0
 22 23  1  0  0  0  0
 22 26  1  0  0  0  0
 23 24  1  0  0  0  0
 23 25  1  0  0  0  0
 26 27  1  0  0  0  0
 26 28  1  0  0  0  0
 29 30  2  0  0  0  0
 29 31  1  0  0  0  0
 31 32  1  0  0  0  0
 31 33  1  0  0  0  0
 33 34  1  0  0  0  0
 33 35  1  0  0  0  0
 33 36  1  0  0  0  0
M  CHG  1  20   1
M  END
$$$$

  -OEChem-03222214013D

 36 35  0     1  0  0  0  0  0999 V2000
   -3.7516   -4.1093    2.6617 H   0  0  0  0  0  0  0  0  0  0  0  0
   -3.7819   -3.1757    2.0932 C   0  0  0  0  0  0  0  0  0  0  0  0
   -4.4797   -2.4911    2.5826 H   0  0  0  0  0  0  0  0  0  0  0  0
   -4.1428   -3.3883    1.0839 H   0  0  0  0  0  0  0  0  0  0  0  0
   -2.4019   -2.5496    2.0301 C   0  0  0  0  0  0  0  0  0  0  0  0
   -1.4541   -3.1163    2.5568 O   0  0  0  0  0  0  0  0  0  0  0  0
   -2.2362   -1.3488    1.3737 N   0  0  0  0  0  0  0  0  0  0  0  0
   -3.0935   -0.9073    1.0348 H   0  0  0  0  0  0  0  0  0  0  0  0
   -1.0401   -0.4876    1.3349 C   0  0  1  0  0  0  0  0  0  0  0  0
   -0.3388   -0.7517    2.1314 H   0  0  0  0  0  0  0  0  0  0  0  0
   -0.3747   -0.5879   -0.0603 C   0  0  0  0  0  0  0  0  0  0  0  0
   -1.1371   -0.4365   -0.8332 H   0  0  0  0  0  0  0  0  0  0  0  0
    0.3256    0.2510   -0.1411 H   0  0  0  0  0  0  0  0  0  0  0  0
    0.4288   -1.8618   -0.3964 C   0  0  0  0  0  0  0  0  0  0  0  0
   -0.2719   -2.5803   -0.8360 H   0  0  0  0  0  0  0  0  0  0  0  0
    1.1793   -1.6257   -1.1584 H   0  0  0  0  0  0  0  0  0  0  0  0
    1.0960   -2.5334    0.8048 C   0  0  0  0  0  0  0  0  0  0  0  0
    1.9069   -1.8915    1.1655 H   0  0  0  0  0  0  0  0  0  0  0  0
    0.3825   -2.6373    1.6169 H   0  0  0  0  0  0  0  0  0  0  0  0
    1.6385   -3.8512    0.4239 N   0  3  0  0  0  0  0  0  0  0  0  0
    2.2131   -3.8881   -0.4166 H   0  0  0  0  0  0  0  0  0  0  0  0
    1.4711   -4.9361    1.1265 C   0  0  0  0  0  0  0  0  0  0  0  0
    0.7095   -4.9669    2.2715 N   0  0  0  0  0  0  0  0  0  0  0  0
    0.0660   -4.1840    2.4304 H   0  0  0  0  0  0  0  0  0  0  0  0
    0.4287   -5.8715    2.6398 H   0  0  0  0  0  0  0  0  0  0  0  0
    2.0787   -6.1002    0.7197 N   0  0  0  0  0  0  0  0  0  0  0  0
    2.7941   -6.0514   -0.0029 H   0  0  0  0  0  0  0  0  0  0  0  0
    2.1172   -6.8774    1.3763 H   0  0  0  0  0  0  0  0  0  0  0  0
   -1.4781    0.9767    1.5573 C   0  0  0  0  0  0  0  0  0  0  0  0
   -2.4877    1.3864    0.9984 O   0  0  0  0  0  0  0  0  0  0  0  0
   -0.7885    1.8086    2.4204 N   0  0  0  0  0  0  0  0  0  0  0  0
    0.0145    1.4306    2.9143 H   0  0  0  0  0  0  0  0  0  0  0  0
   -1.1946    3.1844    2.6919 C   0  0  0  0  0  0  0  0  0  0  0  0
   -2.1899    3.2084    3.1486 H   0  0  0  0  0  0  0  0  0  0  0  0
   -0.4884    3.6619    3.3784 H   0  0  0  0  0  0  0  0  0  0  0  0
   -1.2200    3.7672    1.7648 H   0  0  0  0  0  0  0  0  0  0  0  0
  1  2  1  0  0  0  0
  2  3  1  0  0  0  0
  2  4  1  0  0  0  0
  2  5  1  0  0  0  0
  5  6  2  0  0  0  0
  5  7  1  0  0  0  0
  7  8  1  0  0  0  0
  7  9  1  0  0  0  0
  9 10  1  0  0  0  0
  9 11  1  0  0  0  0
  9 29  1  0  0  0  0
 11 12  1  0  0  0  0
 11 13  1  0  0  0  0
 11 14  1  0  0  0  0
 14 15  1  0  0  0  0
 14 16  1  0  0  0  0
 14 17  1  0  0  0  0
 17 18  1  0  0  0  0
 17 19  1  0  0  0  0
 17 20  1  0  0  0  0
 20 21  1  0  0  0  0
 20 22  2  0  0  0  0
 22 23  1  0  0  0  0
 22 26  1  0  0  0  0
 23 24  1  0  0  0  0
 23 25  1  0  0  0  0
 26 27  1  0  0  0  0
 26 28  1  0  0  0  0
 29 30  2  0  0  0  0
 29 31  1  0  0  0  0
 31 32  1  0  0  0  0
 31 33  1  0  0  0  0
 33 34  1  0  0  0  0
 33 35  1  0  0  0  0
 33 36  1  0  0  0  0
M  CHG  1  20   1
M  END
$$$$

  -OEChem-03222214013D

 36 35  0     1  0  0  0  0  0999 V2000
   -4.0797   -3.9629    2.6284 H   0  0  0  0  0  0  0  0  0  0  0  0
   -4.0097   -3.0455    2.0377 C   0  0  0  0  0  0  0  0  0  0  0  0
   -4.7040   -2.3096    2.4521 H   0  0  0  0  0  0  0  0  0  0  0  0
   -4.3005   -3.2659    1.0076 H   0  0  0  0  0  0  0  0  0  0  0  0
   -2.5959   -2.4977    2.0752 C   0  0  0  0  0  0  0  0  0  0  0  0
   -1.7421   -3.0853    2.7278 O   0  0  0  0  0  0  0  0  0  0  0  0
   -2.3184   -1.3236    1.4032 N   0  0  0  0  0  0  0  0  0  0  0  0
   -3.1266   -0.8539    0.9894 H   0  0  0  0  0  0  0  0  0  0  0  0
   -1.0752   -0.5264    1.3928 C   0  0  1  0  0  0  0  0  0  0  0  0
   -0.4180   -0.8127    2.2195 H   0  0  0  0  0  0  0  0  0  0  0  0
   -0.3378   -0.6269    0.0245 C   0  0  0  0  0  0  0  0  0  0  0  0
   -1.0594   -0.4255   -0.7755 H   0  0  0  0  0  0  0  0  0  0  0  0
    0.3916    0.1908   -0.0028 H   0  0  0  0  0  0  0  0  0  0  0  0
    0.4443   -1.9096   -0.3403 C   0  0  0  0  0  0  0  0  0  0  0  0
   -0.1541   -2.4669   -1.0691 H   0  0  0  0  0  0  0  0  0  0  0  0
    1.3857   -1.6366   -0.8290 H   0  0  0  0  0  0  0  0  0  0  0  0
    0.7192   -2.8239    0.8423 C   0  0  0  0  0  0  0  0  0  0  0  0
    1.4165   -2.3327    1.5298 H   0  0  0  0  0  0  0  0  0  0  0  0
   -0.2174   -2.9761    1.3563 H   0  0  0  0  0  0  0  0  0  0  0  0
    1.2498   -4.1336    0.4308 N   0  3  0  0  0  0  0  0  0  0  0  0
    1.8630   -4.1607   -0.3823 H   0  0  0  0  0  0  0  0  0  0  0  0
    0.9899   -5.2297    1.0867 C   0  0  0  0  0  0  0  0  0  0  0  0
    0.1755   -5.2437    2.1988 N   0  0  0  0  0  0  0  0  0  0  0  0
   -0.3741   -4.4033    2.4104 H   0  0  0  0  0  0  0  0  0  0  0  0
   -0.1801   -6.1338    2.5375 H   0  0  0  0  0  0  0  0  0  0  0  0
    1.5428   -6.4164    0.6677 N   0  0  0  0  0  0  0  0  0  0  0  0
    2.2858   -6.3910   -0.0274 H   0  0  0  0  0  0  0  0  0  0  0  0
    1.5080   -7.2139    1.3000 H   0  0  0  0  0  0  0  0  0  0  0  0
   -1.4663    0.9589    1.5639 C   0  0  0  0  0  0  0  0  0  0  0  0
   -2.4305    1.3961    0.9478 O   0  0  0  0  0  0  0  0  0  0  0  0
   -0.7810    1.7837    2.4370 N   0  0  0  0  0  0  0  0  0  0  0  0
   -0.0235    1.3828    2.9823 H   0  0  0  0  0  0  0  0  0  0  0  0
   -1.1456    3.1790    2.6633 C   0  0  0  0  0  0  0  0  0  0  0  0
   -2.1624    3.2502    3.0643 H   0  0  0  0  0  0  0  0  0  0  0  0
   -0.4587    3.6406    3.3795 H   0  0  0  0  0  0  0  0  0  0  0  0
   -1.0974    3.7452    1.7268 H   0  0  0  0  0  0  0  0  0  0  0  0
  1  2  1  0  0  0  0
  2  3  1  0  0  0  0
  2  4  1  0  0  0  0
  2  5  1  0  0  0  0
  5  6  2  0  0  0  0
  5  7  1  0  0  0  0
  7  8  1  0  0  0  0
  7  9  1  0  0  0  0
  9 10  1  0  0  0  0
  9 11  1  0  0  0  0
  9 29  1  0  0  0  0
 11 12  1  0  0  0  0
 11 13  1  0  0  0  0
 11 14  1  0  0  0  0
 14 15  1  0  0  0  0
 14 16  1  0  0  0  0
 14 17  1  0  0  0  0
 17 18  1  0  0  0  0
 17 19  1  0  0  0  0
 17 20  1  0  0  0  0
 20 21  1  0  0  0  0
 20 22  2  0  0  0  0
 22 23  1  0  0  0  0
 22 26  1  0  0  0  0
 23 24  1  0  0  0  0
 23 25  1  0  0  0  0
 26 27  1  0  0  0  0
 26 28  1  0  0  0  0
 29 30  2  0  0  0  0
 29 31  1  0  0  0  0
 31 32  1  0  0  0  0
 31 33  1  0  0  0  0
 33 34  1  0  0  0  0
 33 35  1  0  0  0  0
 33 36  1  0  0  0  0
M  CHG  1  20   1
M  END
$$$$

  -OEChem-03222214013D

 36 35  0     1  0  0  0  0  0999 V2000
   -4.5026   -3.7667    2.4117 H   0  0  0  0  0  0  0  0  0  0  0  0
   -4.3615   -2.8188    1.8852 C   0  0  0  0  0  0  0  0  0  0  0  0
   -4.9675   -2.0526    2.3760 H   0  0  0  0  0  0  0  0  0  0  0  0
   -4.7033   -2.9339    0.8536 H   0  0  0  0  0  0  0  0  0  0  0  0
   -2.9004   -2.4129    1.9077 C   0  0  0  0  0  0  0  0  0  0  0  0
   -2.0828   -3.1239    2.4836 O   0  0  0  0  0  0  0  0  0  0  0  0
   -2.5210   -1.2338    1.2952 N   0  0  0  0  0  0  0  0  0  0  0  0
   -3.2792   -0.6488    0.9378 H   0  0  0  0  0  0  0  0  0  0  0  0
   -1.1932   -0.5911    1.3254 C   0  0  1  0  0  0  0  0  0  0  0  0
   -0.5802   -0.9959    2.1360 H   0  0  0  0  0  0  0  0  0  0  0  0
   -0.4416   -0.6799   -0.0377 C   0  0  0  0  0  0  0  0  0  0  0  0
   -1.1359   -0.3640   -0.8249 H   0  0  0  0  0  0  0  0  0  0  0  0
    0.3664    0.0607   -0.0220 H   0  0  0  0  0  0  0  0  0  0  0  0
    0.1940   -2.0234   -0.4731 C   0  0  0  0  0  0  0  0  0  0  0  0
   -0.2318   -2.3273   -1.4357 H   0  0  0  0  0  0  0  0  0  0  0  0
    1.2677   -1.8660   -0.6227 H   0  0  0  0  0  0  0  0  0  0  0  0
   -0.0085   -3.1384    0.5343 C   0  0  0  0  0  0  0  0  0  0  0  0
    0.2458   -2.7662    1.5321 H   0  0  0  0  0  0  0  0  0  0  0  0
   -1.0693   -3.4007    0.5161 H   0  0  0  0  0  0  0  0  0  0  0  0
    0.7718   -4.3545    0.2691 N   0  3  0  0  0  0  0  0  0  0  0  0
    1.3433   -4.3890   -0.5736 H   0  0  0  0  0  0  0  0  0  0  0  0
    0.6973   -5.3824    1.0657 C   0  0  0  0  0  0  0  0  0  0  0  0
   -0.1044   -5.3638    2.1881 N   0  0  0  0  0  0  0  0  0  0  0  0
   -0.7527   -4.5764    2.3061 H   0  0  0  0  0  0  0  0  0  0  0  0
   -0.3390   -6.2425    2.6424 H   0  0  0  0  0  0  0  0  0  0  0  0
    1.4274   -6.5146    0.7939 N   0  0  0  0  0  0  0  0  0  0  0  0
    2.1597   -6.4635    0.0889 H   0  0  0  0  0  0  0  0  0  0  0  0
    1.5223   -7.2123    1.5295 H   0  0  0  0  0  0  0  0  0  0  0  0
   -1.4122    0.9151    1.5944 C   0  0  0  0  0  0  0  0  0  0  0  0
   -2.3256    1.4987    1.0238 O   0  0  0  0  0  0  0  0  0  0  0  0
   -0.6355    1.5958    2.5141 N   0  0  0  0  0  0  0  0  0  0  0  0
    0.0729    1.0751    3.0229 H   0  0  0  0  0  0  0  0  0  0  0  0
   -0.8496    2.9998    2.8522 C   0  0  0  0  0  0  0  0  0  0  0  0
   -1.8390    3.1405    3.3003 H   0  0  0  0  0  0  0  0  0  0  0  0
   -0.0948    3.3380    3.5691 H   0  0  0  0  0  0  0  0  0  0  0  0
   -0.7775    3.6265    1.9567 H   0  0  0  0  0  0  0  0  0  0  0  0
  1  2  1  0  0  0  0
  2  3  1  0  0  0  0
  2  4  1  0  0  0  0
  2  5  1  0  0  0  0
  5  6  2  0  0  0  0
  5  7  1  0  0  0  0
  7  8  1  0  0  0  0
  7  9  1  0  0  0  0
  9 10  1  0  0  0  0
  9 11  1  0  0  0  0
  9 29  1  0  0  0  0
 11 12  1  0  0  0  0
 11 13  1  0  0  0  0
 11 14  1  0  0  0  0
 14 15  1  0  0  0  0
 14 16  1  0  0  0  0
 14 17  1  0  0  0  0
 17 18  1  0  0  0  0
 17 19  1  0  0  0  0
 17 20  1  0  0  0  0
 20 21  1  0  0  0  0
 20 22  2  0  0  0  0
 22 23  1  0  0  0  0
 22 26  1  0  0  0  0
 23 24  1  0  0  0  0
 23 25  1  0  0  0  0
 26 27  1  0  0  0  0
 26 28  1  0  0  0  0
 29 30  2  0  0  0  0
 29 31  1  0  0  0  0
 31 32  1  0  0  0  0
 31 33  1  0  0  0  0
 33 34  1  0  0  0  0
 33 35  1  0  0  0  0
 33 36  1  0  0  0  0
M  CHG  1  20   1
M  END
$$$$

  -OEChem-03222214013D

 36 35  0     1  0  0  0  0  0999 V2000
   -4.6519   -3.7027    2.3107 H   0  0  0  0  0  0  0  0  0  0  0  0
   -4.4703   -2.7502    1.8053 C   0  0  0  0  0  0  0  0  0  0  0  0
   -5.0615   -1.9740    2.2983 H   0  0  0  0  0  0  0  0  0  0  0  0
   -4.7941   -2.8354    0.7650 H   0  0  0  0  0  0  0  0  0  0  0  0
   -2.9983   -2.3913    1.8650 C   0  0  0  0  0  0  0  0  0  0  0  0
   -2.2184   -3.1347    2.4495 O   0  0  0  0  0  0  0  0  0  0  0  0
   -2.5686   -1.2213    1.2697 N   0  0  0  0  0  0  0  0  0  0  0  0
   -3.3046   -0.6131    0.9043 H   0  0  0  0  0  0  0  0  0  0  0  0
   -1.2267   -0.6063    1.3234 C   0  0  1  0  0  0  0  0  0  0  0  0
   -0.6373   -1.0358    2.1397 H   0  0  0  0  0  0  0  0  0  0  0  0
   -0.4427   -0.7070   -0.0206 C   0  0  0  0  0  0  0  0  0  0  0  0
   -1.1292   -0.3952   -0.8161 H   0  0  0  0  0  0  0  0  0  0  0  0
    0.3679    0.0306   -0.0044 H   0  0  0  0  0  0  0  0  0  0  0  0
    0.1834   -2.0563   -0.4474 C   0  0  0  0  0  0  0  0  0  0  0  0
    0.0121   -2.2096   -1.5182 H   0  0  0  0  0  0  0  0  0  0  0  0
    1.2657   -1.9919   -0.2930 H   0  0  0  0  0  0  0  0  0  0  0  0
   -0.3371   -3.2483    0.3297 C   0  0  0  0  0  0  0  0  0  0  0  0
   -0.2287   -3.0245    1.3952 H   0  0  0  0  0  0  0  0  0  0  0  0
   -1.4010   -3.3747    0.1034 H   0  0  0  0  0  0  0  0  0  0  0  0
    0.3771   -4.5013    0.0435 N   0  3  0  0  0  0  0  0  0  0  0  0
    1.0429   -4.5086   -0.7273 H   0  0  0  0  0  0  0  0  0  0  0  0
    0.2003   -5.5666    0.7726 C   0  0  0  0  0  0  0  0  0  0  0  0
   -0.6866   -5.5812    1.8278 N   0  0  0  0  0  0  0  0  0  0  0  0
   -1.1355   -4.6985    2.0983 H   0  0  0  0  0  0  0  0  0  0  0  0
   -0.6108   -6.3119    2.5307 H   0  0  0  0  0  0  0  0  0  0  0  0
    0.9110   -6.7099    0.4958 N   0  0  0  0  0  0  0  0  0  0  0  0
    1.4189   -6.7679   -0.3843 H   0  0  0  0  0  0  0  0  0  0  0  0
    0.6129   -7.5797    0.9336 H   0  0  0  0  0  0  0  0  0  0  0  0
   -1.4172    0.9031    1.5947 C   0  0  0  0  0  0  0  0  0  0  0  0
   -2.3118    1.5065    1.0149 O   0  0  0  0  0  0  0  0  0  0  0  0
   -0.6405    1.5634    2.5291 N   0  0  0  0  0  0  0  0  0  0  0  0
    0.0505    1.0259    3.0442 H   0  0  0  0  0  0  0  0  0  0  0  0
   -0.8320    2.9691    2.8735 C   0  0  0  0  0  0  0  0  0  0  0  0
   -1.8223    3.1254    3.3149 H   0  0  0  0  0  0  0  0  0  0  0  0
   -0.0765    3.2888    3.5981 H   0  0  0  0  0  0  0  0  0  0  0  0
   -0.7417    3.6001    1.9826 H   0  0  0  0  0  0  0  0  0  0  0  0
  1  2  1  0  0  0  0
  2  3  1  0  0  0  0
  2  4  1  0  0  0  0
  2  5  1  0  0  0  0
  5  6  2  0  0  0  0
  5  7  1  0  0  0  0
  7  8  1  0  0  0  0
  7  9  1  0  0  0  0
  9 10  1  0  0  0  0
  9 11  1  0  0  0  0
  9 29  1  0  0  0  0
 11 12  1  0  0  0  0
 11 13  1  0  0  0  0
 11 14  1  0  0  0  0
 14 15  1  0  0  0  0
 14 16  1  0  0  0  0
 14 17  1  0  0  0  0
 17 18  1  0  0  0  0
 17 19  1  0  0  0  0
 17 20  1  0  0  0  0
 20 21  1  0  0  0  0
 20 22  2  0  0  0  0
 22 23  1  0  0  0  0
 22 26  1  0  0  0  0
 23 24  1  0  0  0  0
 23 25  1  0  0  0  0
 26 27  1  0  0  0  0
 26 28  1  0  0  0  0
 29 30  2  0  0  0  0
 29 31  1  0  0  0  0
 31 32  1  0  0  0  0
 31 33  1  0  0  0  0
 33 34  1  0  0  0  0
 33 35  1  0  0  0  0
 33 36  1  0  0  0  0
M  CHG  1  20   1
M  END
$$$$

  -OEChem-03222214013D

 36 35  0     1  0  0  0  0  0999 V2000
   -4.7990   -3.6076    2.2581 H   0  0  0  0  0  0  0  0  0  0  0  0
   -4.5698   -2.6673    1.7490 C   0  0  0  0  0  0  0  0  0  0  0  0
   -5.1252   -1.8615    2.2367 H   0  0  0  0  0  0  0  0  0  0  0  0
   -4.8936   -2.7408    0.7078 H   0  0  0  0  0  0  0  0  0  0  0  0
   -3.0824   -2.3797    1.8134 C   0  0  0  0  0  0  0  0  0  0  0  0
   -2.3408   -3.1741    2.3786 O   0  0  0  0  0  0  0  0  0  0  0  0
   -2.6022   -1.2182    1.2400 N   0  0  0  0  0  0  0  0  0  0  0  0
   -3.3160   -0.5770    0.8865 H   0  0  0  0  0  0  0  0  0  0  0  0
   -1.2447   -0.6376    1.3180 C   0  0  1  0  0  0  0  0  0  0  0  0
   -0.6791   -1.0923    2.1378 H   0  0  0  0  0  0  0  0  0  0  0  0
   -0.4350   -0.7369   -0.0113 C   0  0  0  0  0  0  0  0  0  0  0  0
   -1.1027   -0.4048   -0.8145 H   0  0  0  0  0  0  0  0  0  0  0  0
    0.3900   -0.0166    0.0277 H   0  0  0  0  0  0  0  0  0  0  0  0
    0.1700   -2.0913   -0.4433 C   0  0  0  0  0  0  0  0  0  0  0  0
    0.2579   -2.1087   -1.5349 H   0  0  0  0  0  0  0  0  0  0  0  0
    1.1810   -2.1658   -0.0283 H   0  0  0  0  0  0  0  0  0  0  0  0
   -0.6233   -3.2890    0.0295 C   0  0  0  0  0  0  0  0  0  0  0  0
   -0.6292   -3.2402    1.1185 H   0  0  0  0  0  0  0  0  0  0  0  0
   -1.6517   -3.2146   -0.3398 H   0  0  0  0  0  0  0  0  0  0  0  0
   -0.0357   -4.5771   -0.3688 N   0  3  0  0  0  0  0  0  0  0  0  0
    0.5102   -4.6074   -1.2284 H   0  0  0  0  0  0  0  0  0  0  0  0
   -0.2588   -5.6691    0.3065 C   0  0  0  0  0  0  0  0  0  0  0  0
   -1.0472   -5.6723    1.4384 N   0  0  0  0  0  0  0  0  0  0  0  0
   -1.4150   -4.7854    1.8011 H   0  0  0  0  0  0  0  0  0  0  0  0
   -1.1338   -6.5100    2.0077 H   0  0  0  0  0  0  0  0  0  0  0  0
    0.2938   -6.8545   -0.1174 N   0  0  0  0  0  0  0  0  0  0  0  0
    0.9994   -6.8451   -0.8509 H   0  0  0  0  0  0  0  0  0  0  0  0
    0.2111   -7.6806    0.4718 H   0  0  0  0  0  0  0  0  0  0  0  0
   -1.4091    0.8731    1.6000 C   0  0  0  0  0  0  0  0  0  0  0  0
   -2.2856    1.4967    1.0136 O   0  0  0  0  0  0  0  0  0  0  0  0
   -0.6352    1.5121    2.5511 N   0  0  0  0  0  0  0  0  0  0  0  0
    0.0398    0.9589    3.0712 H   0  0  0  0  0  0  0  0  0  0  0  0
   -0.8127    2.9167    2.9069 C   0  0  0  0  0  0  0  0  0  0  0  0
   -1.8129    3.0845    3.3207 H   0  0  0  0  0  0  0  0  0  0  0  0
   -0.0742    3.2155    3.6574 H   0  0  0  0  0  0  0  0  0  0  0  0
   -0.6858    3.5554    2.0260 H   0  0  0  0  0  0  0  0  0  0  0  0
  1  2  1  0  0  0  0
  2  3  1  0  0  0  0
  2  4  1  0  0  0  0
  2  5  1  0  0  0  0
  5  6  2  0  0  0  0
  5  7  1  0  0  0  0
  7  8  1  0  0  0  0
  7  9  1  0  0  0  0
  9 10  1  0  0  0  0
  9 11  1  0  0  0  0
  9 29  1  0  0  0  0
 11 12  1  0  0  0  0
 11 13  1  0  0  0  0
 11 14  1  0  0  0  0
 14 15  1  0  0  0  0
 14 16  1  0  0  0  0
 14 17  1  0  0  0  0
 17 18  1  0  0  0  0
 17 19  1  0  0  0  0
 17 20  1  0  0  0  0
 20 21  1  0  0  0  0
 20 22  2  0  0  0  0
 22 23  1  0  0  0  0
 22 26  1  0  0  0  0
 23 24  1  0  0  0  0
 23 25  1  0  0  0  0
 26 27  1  0  0  0  0
 26 28  1  0  0  0  0
 29 30  2  0  0  0  0
 29 31  1  0  0  0  0
 31 32  1  0  0  0  0
 31 33  1  0  0  0  0
 33 34  1  0  0  0  0
 33 35  1  0  0  0  0
 33 36  1  0  0  0  0
M  CHG  1  20   1
M  END
$$$$

  -OEChem-03222214013D

 36 35  0     1  0  0  0  0  0999 V2000
   -4.9864   -3.5660    2.0833 H   0  0  0  0  0  0  0  0  0  0  0  0
   -4.7384   -2.6071    1.6197 C   0  0  0  0  0  0  0  0  0  0  0  0
   -5.2669   -1.8135    2.1543 H   0  0  0  0  0  0  0  0  0  0  0  0
   -5.0754   -2.6199    0.5803 H   0  0  0  0  0  0  0  0  0  0  0  0
   -3.2430   -2.3627    1.6798 C   0  0  0  0  0  0  0  0  0  0  0  0
   -2.5097   -3.1979    2.1971 O   0  0  0  0  0  0  0  0  0  0  0  0
   -2.7235   -1.1936    1.1609 N   0  0  0  0  0  0  0  0  0  0  0  0
   -3.4038   -0.4919    0.8603 H   0  0  0  0  0  0  0  0  0  0  0  0
   -1.3297   -0.7182    1.2575 C   0  0  1  0  0  0  0  0  0  0  0  0
   -0.7891   -1.2632    2.0381 H   0  0  0  0  0  0  0  0  0  0  0  0
   -0.5227   -0.7610   -0.0744 C   0  0  0  0  0  0  0  0  0  0  0  0
   -1.1558   -0.3129   -0.8489 H   0  0  0  0  0  0  0  0  0  0  0  0
    0.3537   -0.1112    0.0319 H   0  0  0  0  0  0  0  0  0  0  0  0
   -0.0090   -2.1096   -0.6205 C   0  0  0  0  0  0  0  0  0  0  0  0
    0.3481   -1.9649   -1.6457 H   0  0  0  0  0  0  0  0  0  0  0  0
    0.8520   -2.4036   -0.0107 H   0  0  0  0  0  0  0  0  0  0  0  0
   -1.0179   -3.2463   -0.5920 C   0  0  0  0  0  0  0  0  0  0  0  0
   -1.4692   -3.2765    0.3879 H   0  0  0  0  0  0  0  0  0  0  0  0
   -1.8090   -3.0541   -1.3252 H   0  0  0  0  0  0  0  0  0  0  0  0
   -0.3651   -4.5393   -0.8636 N   0  3  0  0  0  0  0  0  0  0  0  0
    0.1673   -4.6183   -1.7287 H   0  0  0  0  0  0  0  0  0  0  0  0
   -0.4428   -5.5653   -0.0623 C   0  0  0  0  0  0  0  0  0  0  0  0
   -1.1419   -5.5329    1.1248 N   0  0  0  0  0  0  0  0  0  0  0  0
   -1.5154   -4.6371    1.4571 H   0  0  0  0  0  0  0  0  0  0  0  0
   -0.9859   -6.2639    1.8140 H   0  0  0  0  0  0  0  0  0  0  0  0
    0.1952   -6.7338   -0.4047 N   0  0  0  0  0  0  0  0  0  0  0  0
    0.5520   -6.8371   -1.3524 H   0  0  0  0  0  0  0  0  0  0  0  0
   -0.0398   -7.5796    0.1114 H   0  0  0  0  0  0  0  0  0  0  0  0
   -1.3893    0.7789    1.6403 C   0  0  0  0  0  0  0  0  0  0  0  0
   -2.2191    1.5021    1.1020 O   0  0  0  0  0  0  0  0  0  0  0  0
   -0.5645    1.2976    2.6218 N   0  0  0  0  0  0  0  0  0  0  0  0
    0.0740    0.6649    3.0953 H   0  0  0  0  0  0  0  0  0  0  0  0
   -0.6243    2.6894    3.0586 C   0  0  0  0  0  0  0  0  0  0  0  0
   -1.6081    2.9172    3.4829 H   0  0  0  0  0  0  0  0  0  0  0  0
    0.1340    2.8804    3.8242 H   0  0  0  0  0  0  0  0  0  0  0  0
   -0.4400    3.3650    2.2162 H   0  0  0  0  0  0  0  0  0  0  0  0
  1  2  1  0  0  0  0
  2  3  1  0  0  0  0
  2  4  1  0  0  0  0
  2  5  1  0  0  0  0
  5  6  2  0  0  0  0
  5  7  1  0  0  0  0
  7  8  1  0  0  0  0
  7  9  1  0  0  0  0
  9 10  1  0  0  0  0
  9 11  1  0  0  0  0
  9 29  1  0  0  0  0
 11 12  1  0  0  0  0
 11 13  1  0  0  0  0
 11 14  1  0  0  0  0
 14 15  1  0  0  0  0
 14 16  1  0  0  0  0
 14 17  1  0  0  0  0
 17 18  1  0  0  0  0
 17 19  1  0  0  0  0
 17 20  1  0  0  0  0
 20 21  1  0  0  0  0
 20 22  2  0  0  0  0
 22 23  1  0  0  0  0
 22 26  1  0  0  0  0
 23 24  1  0  0  0  0
 23 25  1  0  0  0  0
 26 27  1  0  0  0  0
 26 28  1  0  0  0  0
 29 30  2  0  0  0  0
 29 31  1  0  0  0  0
 31 32  1  0  0  0  0
 31 33  1  0  0  0  0
 33 34  1  0  0  0  0
 33 35  1  0  0  0  0
 33 36  1  0  0  0  0
M  CHG  1  20   1
M  END
$$$$

  -OEChem-03222214013D

 36 35  0     1  0  0  0  0  0999 V2000
   -5.0062   -3.5798    1.9202 H   0  0  0  0  0  0  0  0  0  0  0  0
   -4.7701   -2.5892    1.5219 C   0  0  0  0  0  0  0  0  0  0  0  0
   -5.2562   -1.8358    2.1472 H   0  0  0  0  0  0  0  0  0  0  0  0
   -5.1635   -2.5138    0.5051 H   0  0  0  0  0  0  0  0  0  0  0  0
   -3.2704   -2.3658    1.5179 C   0  0  0  0  0  0  0  0  0  0  0  0
   -2.5158   -3.2473    1.9124 O   0  0  0  0  0  0  0  0  0  0  0  0
   -2.7553   -1.1758    1.0483 N   0  0  0  0  0  0  0  0  0  0  0  0
   -3.4316   -0.4414    0.8278 H   0  0  0  0  0  0  0  0  0  0  0  0
   -1.3579   -0.7299    1.1856 C   0  0  1  0  0  0  0  0  0  0  0  0
   -0.8430   -1.3137    1.9554 H   0  0  0  0  0  0  0  0  0  0  0  0
   -0.5338   -0.7605   -0.1297 C   0  0  0  0  0  0  0  0  0  0  0  0
   -1.1251   -0.2724   -0.9127 H   0  0  0  0  0  0  0  0  0  0  0  0
    0.3647   -0.1499    0.0178 H   0  0  0  0  0  0  0  0  0  0  0  0
   -0.0591   -2.1256   -0.6633 C   0  0  0  0  0  0  0  0  0  0  0  0
    0.5381   -1.9564   -1.5658 H   0  0  0  0  0  0  0  0  0  0  0  0
    0.5995   -2.5717    0.0894 H   0  0  0  0  0  0  0  0  0  0  0  0
   -1.1749   -3.1156   -0.9887 C   0  0  0  0  0  0  0  0  0  0  0  0
   -1.8406   -3.2315   -0.1412 H   0  0  0  0  0  0  0  0  0  0  0  0
   -1.7715   -2.7234   -1.8196 H   0  0  0  0  0  0  0  0  0  0  0  0
   -0.5970   -4.4217   -1.3570 N   0  3  0  0  0  0  0  0  0  0  0  0
   -0.1350   -4.4808   -2.2632 H   0  0  0  0  0  0  0  0  0  0  0  0
   -0.6392   -5.4792   -0.5961 C   0  0  0  0  0  0  0  0  0  0  0  0
   -1.2303   -5.4808    0.6466 N   0  0  0  0  0  0  0  0  0  0  0  0
   -1.5575   -4.5928    1.0420 H   0  0  0  0  0  0  0  0  0  0  0  0
   -1.0355   -6.2428    1.2907 H   0  0  0  0  0  0  0  0  0  0  0  0
   -0.0686   -6.6474   -1.0416 N   0  0  0  0  0  0  0  0  0  0  0  0
    0.1932   -6.7186   -2.0226 H   0  0  0  0  0  0  0  0  0  0  0  0
   -0.2859   -7.5084   -0.5434 H   0  0  0  0  0  0  0  0  0  0  0  0
   -1.3881    0.7491    1.6336 C   0  0  0  0  0  0  0  0  0  0  0  0
   -2.2008    1.5116    1.1246 O   0  0  0  0  0  0  0  0  0  0  0  0
   -0.5647    1.2046    2.6470 N   0  0  0  0  0  0  0  0  0  0  0  0
    0.0613    0.5397    3.0922 H   0  0  0  0  0  0  0  0  0  0  0  0
   -0.5937    2.5784    3.1398 C   0  0  0  0  0  0  0  0  0  0  0  0
   -1.5740    2.8126    3.5690 H   0  0  0  0  0  0  0  0  0  0  0  0
    0.1656    2.7203    3.9153 H   0  0  0  0  0  0  0  0  0  0  0  0
   -0.3897    3.2831    2.3264 H   0  0  0  0  0  0  0  0  0  0  0  0
  1  2  1  0  0  0  0
  2  3  1  0  0  0  0
  2  4  1  0  0  0  0
  2  5  1  0  0  0  0
  5  6  2  0  0  0  0
  5  7  1  0  0  0  0
  7  8  1  0  0  0  0
  7  9  1  0  0  0  0
  9 10  1  0  0  0  0
  9 11  1  0  0  0  0
  9 29  1  0  0  0  0
 11 12  1  0  0  0  0
 11 13  1  0  0  0  0
 11 14  1  0  0  0  0
 14 15  1  0  0  0  0
 14 16  1  0  0  0  0
 14 17  1  0  0  0  0
 17 18  1  0  0  0  0
 17 19  1  0  0  0  0
 17 20  1  0  0  0  0
 20 21  1  0  0  0  0
 20 22  2  0  0  0  0
 22 23  1  0  0  0  0
 22 26  1  0  0  0  0
 23 24  1  0  0  0  0
 23 25  1  0  0  0  0
 26 27  1  0  0  0  0
 26 28  1  0  0  0  0
 29 30  2  0  0  0  0
 29 31  1  0  0  0  0
 31 32  1  0  0  0  0
 31 33  1  0  0  0  0
 33 34  1  0  0  0  0
 33 35  1  0  0  0  0
 33 36  1  0  0  0  0
M  CHG  1  20   1
M  END
$$$$

  -OEChem-03222214013D

 36 35  0     1  0  0  0  0  0999 V2000
   -4.9579   -3.6114    1.7191 H   0  0  0  0  0  0  0  0  0  0  0  0
   -4.7334   -2.5966    1.3791 C   0  0  0  0  0  0  0  0  0  0  0  0
   -5.1895   -1.8864    2.0740 H   0  0  0  0  0  0  0  0  0  0  0  0
   -5.1687   -2.4512    0.3873 H   0  0  0  0  0  0  0  0  0  0  0  0
   -3.2338   -2.3766    1.3269 C   0  0  0  0  0  0  0  0  0  0  0  0
   -2.4645   -3.2898    1.6017 O   0  0  0  0  0  0  0  0  0  0  0  0
   -2.7321   -1.1625    0.9109 N   0  0  0  0  0  0  0  0  0  0  0  0
   -3.4154   -0.4178    0.7566 H   0  0  0  0  0  0  0  0  0  0  0  0
   -1.3445   -0.7112    1.1038 C   0  0  1  0  0  0  0  0  0  0  0  0
   -0.8497   -1.3153    1.8713 H   0  0  0  0  0  0  0  0  0  0  0  0
   -0.5061   -0.7392   -0.1954 C   0  0  0  0  0  0  0  0  0  0  0  0
   -1.0657   -0.2426   -0.9961 H   0  0  0  0  0  0  0  0  0  0  0  0
    0.4002   -0.1470   -0.0249 H   0  0  0  0  0  0  0  0  0  0  0  0
   -0.0544   -2.1295   -0.6740 C   0  0  0  0  0  0  0  0  0  0  0  0
    0.7421   -1.9949   -1.4136 H   0  0  0  0  0  0  0  0  0  0  0  0
    0.3698   -2.6806    0.1719 H   0  0  0  0  0  0  0  0  0  0  0  0
   -1.1798   -2.9456   -1.3122 C   0  0  0  0  0  0  0  0  0  0  0  0
   -1.9904   -3.1090   -0.6030 H   0  0  0  0  0  0  0  0  0  0  0  0
   -1.5962   -2.3806   -2.1535 H   0  0  0  0  0  0  0  0  0  0  0  0
   -0.6519   -4.2362   -1.7944 N   0  3  0  0  0  0  0  0  0  0  0  0
   -0.1875   -4.2301   -2.7013 H   0  0  0  0  0  0  0  0  0  0  0  0
   -0.7379   -5.3569   -1.1350 C   0  0  0  0  0  0  0  0  0  0  0  0
   -1.3324   -5.4467    0.1019 N   0  0  0  0  0  0  0  0  0  0  0  0
   -1.6123   -4.5820    0.5770 H   0  0  0  0  0  0  0  0  0  0  0  0
   -1.1594   -6.2663    0.6778 H   0  0  0  0  0  0  0  0  0  0  0  0
   -0.2134   -6.5022   -1.6854 N   0  0  0  0  0  0  0  0  0  0  0  0
    0.0545   -6.4934   -2.6674 H   0  0  0  0  0  0  0  0  0  0  0  0
   -0.4714   -7.3957   -1.2708 H   0  0  0  0  0  0  0  0  0  0  0  0
   -1.3830    0.7499    1.6032 C   0  0  0  0  0  0  0  0  0  0  0  0
   -2.1920    1.5257    1.1092 O   0  0  0  0  0  0  0  0  0  0  0  0
   -0.5858    1.1700    2.6521 N   0  0  0  0  0  0  0  0  0  0  0  0
    0.0381    0.4933    3.0826 H   0  0  0  0  0  0  0  0  0  0  0  0
   -0.6365    2.5234    3.1969 C   0  0  0  0  0  0  0  0  0  0  0  0
   -1.6289    2.7339    3.6098 H   0  0  0  0  0  0  0  0  0  0  0  0
    0.1020    2.6399    3.9961 H   0  0  0  0  0  0  0  0  0  0  0  0
   -0.4174    3.2601    2.4163 H   0  0  0  0  0  0  0  0  0  0  0  0
  1  2  1  0  0  0  0
  2  3  1  0  0  0  0
  2  4  1  0  0  0  0
  2  5  1  0  0  0  0
  5  6  2  0  0  0  0
  5  7  1  0  0  0  0
  7  8  1  0  0  0  0
  7  9  1  0  0  0  0
  9 10  1  0  0  0  0
  9 11  1  0  0  0  0
  9 29  1  0  0  0  0
 11 12  1  0  0  0  0
 11 13  1  0  0  0  0
 11 14  1  0  0  0  0
 14 15  1  0  0  0  0
 14 16  1  0  0  0  0
 14 17  1  0  0  0  0
 17 18  1  0  0  0  0
 17 19  1  0  0  0  0
 17 20  1  0  0  0  0
 20 21  1  0  0  0  0
 20 22  2  0  0  0  0
 22 23  1  0  0  0  0
 22 26  1  0  0  0  0
 23 24  1  0  0  0  0
 23 25  1  0  0  0  0
 26 27  1  0  0  0  0
 26 28  1  0  0  0  0
 29 30  2  0  0  0  0
 29 31  1  0  0  0  0
 31 32  1  0  0  0  0
 31 33  1  0  0  0  0
 33 34  1  0  0  0  0
 33 35  1  0  0  0  0
 33 36  1  0  0  0  0
M  CHG  1  20   1
M  END
$$$$

  -OEChem-03222214013D

 36 35  0     1  0  0  0  0  0999 V2000
   -3.7276   -4.3603    2.2864 H   0  0  0  0  0  0  0  0  0  0  0  0
   -3.8230   -3.3071    2.0083 C   0  0  0  0  0  0  0  0  0  0  0  0
   -4.2027   -2.7517    2.8701 H   0  0  0  0  0  0  0  0  0  0  0  0
   -4.5395   -3.2204    1.1878 H   0  0  0  0  0  0  0  0  0  0  0  0
   -2.4780   -2.7470    1.5876 C   0  0  0  0  0  0  0  0  0  0  0  0
   -1.4937   -3.4762    1.5600 O   0  0  0  0  0  0  0  0  0  0  0  0
   -2.3895   -1.4355    1.1737 N   0  0  0  0  0  0  0  0  0  0  0  0
   -3.2382   -0.8751    1.2772 H   0  0  0  0  0  0  0  0  0  0  0  0
   -1.1461   -0.6562    1.0537 C   0  0  1  0  0  0  0  0  0  0  0  0
   -0.3391   -1.1391    1.6147 H   0  0  0  0  0  0  0  0  0  0  0  0
   -0.7205   -0.4731   -0.4197 C   0  0  0  0  0  0  0  0  0  0  0  0
   -1.5687   -0.1153   -1.0142 H   0  0  0  0  0  0  0  0  0  0  0  0
    0.0449    0.3106   -0.4530 H   0  0  0  0  0  0  0  0  0  0  0  0
   -0.1141   -1.7342   -1.0548 C   0  0  0  0  0  0  0  0  0  0  0  0
    0.5956   -1.4277   -1.8305 H   0  0  0  0  0  0  0  0  0  0  0  0
    0.4578   -2.2884   -0.3022 H   0  0  0  0  0  0  0  0  0  0  0  0
   -1.1782   -2.6159   -1.7154 C   0  0  0  0  0  0  0  0  0  0  0  0
   -2.1726   -2.2041   -1.5100 H   0  0  0  0  0  0  0  0  0  0  0  0
   -1.0279   -2.6174   -2.7992 H   0  0  0  0  0  0  0  0  0  0  0  0
   -1.0828   -3.9761   -1.1603 N   0  3  0  0  0  0  0  0  0  0  0  0
   -0.9653   -4.0278   -0.1419 H   0  0  0  0  0  0  0  0  0  0  0  0
   -1.2370   -5.0808   -1.8238 C   0  0  0  0  0  0  0  0  0  0  0  0
   -1.4566   -5.0988   -3.1819 N   0  0  0  0  0  0  0  0  0  0  0  0
   -1.3283   -4.2288   -3.6937 H   0  0  0  0  0  0  0  0  0  0  0  0
   -1.3228   -5.9741   -3.6840 H   0  0  0  0  0  0  0  0  0  0  0  0
   -1.1795   -6.2688   -1.1370 N   0  0  0  0  0  0  0  0  0  0  0  0
   -1.1638   -6.2354   -0.1181 H   0  0  0  0  0  0  0  0  0  0  0  0
   -1.5336   -7.1112   -1.5851 H   0  0  0  0  0  0  0  0  0  0  0  0
   -1.3801    0.7381    1.6737 C   0  0  0  0  0  0  0  0  0  0  0  0
   -2.4491    1.3025    1.4758 O   0  0  0  0  0  0  0  0  0  0  0  0
   -0.4489    1.3123    2.5192 N   0  0  0  0  0  0  0  0  0  0  0  0
    0.4101    0.8024    2.7059 H   0  0  0  0  0  0  0  0  0  0  0  0
   -0.6551    2.6019    3.1716 C   0  0  0  0  0  0  0  0  0  0  0  0
   -1.5366    2.5679    3.8207 H   0  0  0  0  0  0  0  0  0  0  0  0
    0.2140    2.8616    3.7840 H   0  0  0  0  0  0  0  0  0  0  0  0
   -0.7990    3.3913    2.4261 H   0  0  0  0  0  0  0  0  0  0  0  0
  1  2  1  0  0  0  0
  2  3  1  0  0  0  0
  2  4  1  0  0  0  0
  2  5  1  0  0  0  0
  5  6  2  0  0  0  0
  5  7  1  0  0  0  0
  7  8  1  0  0  0  0
  7  9  1  0  0  0  0
  9 10  1  0  0  0  0
  9 11  1  0  0  0  0
  9 29  1  0  0  0  0
 11 12  1  0  0  0  0
 11 13  1  0  0  0  0
 11 14  1  0  0  0  0
 14 15  1  0  0  0  0
 14 16  1  0  0  0  0
 14 17  1  0  0  0  0
 17 18  1  0  0  0  0
 17 19  1  0  0  0  0
 17 20  1  0  0  0  0
 20 21  1  0  0  0  0
 20 22  2  0  0  0  0
 22 23  1  0  0  0  0
 22 26  1  0  0  0  0
 23 24  1  0  0  0  0
 23 25  1  0  0  0  0
 26 27  1  0  0  0  0
 26 28  1  0  0  0  0
 29 30  2  0  0  0  0
 29 31  1  0  0  0  0
 31 32  1  0  0  0  0
 31 33  1  0  0  0  0
 33 34  1  0  0  0  0
 33 35  1  0  0  0  0
 33 36  1  0  0  0  0
M  CHG  1  20   1
M  END
$$$$

  -OEChem-03222214013D

 36 35  0     1  0  0  0  0  0999 V2000
   -3.4035   -4.5478    2.1048 H   0  0  0  0  0  0  0  0  0  0  0  0
   -3.5728   -3.5239    1.7605 C   0  0  0  0  0  0  0  0  0  0  0  0
   -4.0338   -2.9559    2.5732 H   0  0  0  0  0  0  0  0  0  0  0  0
   -4.2583   -3.5419    0.9097 H   0  0  0  0  0  0  0  0  0  0  0  0
   -2.2601   -2.8779    1.3618 C   0  0  0  0  0  0  0  0  0  0  0  0
   -1.2451   -3.5575    1.2837 O   0  0  0  0  0  0  0  0  0  0  0  0
   -2.2445   -1.5541    0.9838 N   0  0  0  0  0  0  0  0  0  0  0  0
   -3.1369   -1.0626    1.0731 H   0  0  0  0  0  0  0  0  0  0  0  0
   -1.0702   -0.6645    0.9800 C   0  0  1  0  0  0  0  0  0  0  0  0
   -0.2778   -1.0910    1.6046 H   0  0  0  0  0  0  0  0  0  0  0  0
   -0.5288   -0.4270   -0.4450 C   0  0  0  0  0  0  0  0  0  0  0  0
   -1.3518   -0.1387   -1.1083 H   0  0  0  0  0  0  0  0  0  0  0  0
    0.1564    0.4271   -0.4030 H   0  0  0  0  0  0  0  0  0  0  0  0
    0.2525   -1.6153   -1.0350 C   0  0  0  0  0  0  0  0  0  0  0  0
    1.1365   -1.2088   -1.5382 H   0  0  0  0  0  0  0  0  0  0  0  0
    0.6262   -2.2707   -0.2404 H   0  0  0  0  0  0  0  0  0  0  0  0
   -0.5385   -2.3939   -2.0903 C   0  0  0  0  0  0  0  0  0  0  0  0
   -1.4302   -1.8299   -2.3856 H   0  0  0  0  0  0  0  0  0  0  0  0
    0.0904   -2.5387   -2.9752 H   0  0  0  0  0  0  0  0  0  0  0  0
   -0.9094   -3.6957   -1.5164 N   0  3  0  0  0  0  0  0  0  0  0  0
   -0.8378   -3.7722   -0.4960 H   0  0  0  0  0  0  0  0  0  0  0  0
   -1.2956   -4.7341   -2.1906 C   0  0  0  0  0  0  0  0  0  0  0  0
   -1.4308   -4.7095   -3.5593 N   0  0  0  0  0  0  0  0  0  0  0  0
   -1.0766   -3.8951   -4.0562 H   0  0  0  0  0  0  0  0  0  0  0  0
   -1.4815   -5.5940   -4.0601 H   0  0  0  0  0  0  0  0  0  0  0  0
   -1.5733   -5.8904   -1.5042 N   0  0  0  0  0  0  0  0  0  0  0  0
   -1.5741   -5.8634   -0.4849 H   0  0  0  0  0  0  0  0  0  0  0  0
   -2.0778   -6.6390   -1.9741 H   0  0  0  0  0  0  0  0  0  0  0  0
   -1.4714    0.6897    1.6027 C   0  0  0  0  0  0  0  0  0  0  0  0
   -2.5744    1.1553    1.3436 O   0  0  0  0  0  0  0  0  0  0  0  0
   -0.6618    1.3201    2.5297 N   0  0  0  0  0  0  0  0  0  0  0  0
    0.2310    0.8917    2.7583 H   0  0  0  0  0  0  0  0  0  0  0  0
   -1.0351    2.5623    3.1999 C   0  0  0  0  0  0  0  0  0  0  0  0
   -1.9408    2.4184    3.7987 H   0  0  0  0  0  0  0  0  0  0  0  0
   -0.2310    2.8926    3.8648 H   0  0  0  0  0  0  0  0  0  0  0  0
   -1.2215    3.3542    2.4664 H   0  0  0  0  0  0  0  0  0  0  0  0
  1  2  1  0  0  0  0
  2  3  1  0  0  0  0
  2  4  1  0  0  0  0
  2  5  1  0  0  0  0
  5  6  2  0  0  0  0
  5  7  1  0  0  0  0
  7  8  1  0  0  0  0
  7  9  1  0  0  0  0
  9 10  1  0  0  0  0
  9 11  1  0  0  0  0
  9 29  1  0  0  0  0
 11 12  1  0  0  0  0
 11 13  1  0  0  0  0
 11 14  1  0  0  0  0
 14 15  1  0  0  0  0
 14 16  1  0  0  0  0
 14 17  1  0  0  0  0
 17 18  1  0  0  0  0
 17 19  1  0  0  0  0
 17 20  1  0  0  0  0
 20 21  1  0  0  0  0
 20 22  2  0  0  0  0
 22 23  1  0  0  0  0
 22 26  1  0  0  0  0
 23 24  1  0  0  0  0
 23 25  1  0  0  0  0
 26 27  1  0  0  0  0
 26 28  1  0  0  0  0
 29 30  2  0  0  0  0
 29 31  1  0  0  0  0
 31 32  1  0  0  0  0
 31 33  1  0  0  0  0
 33 34  1  0  0  0  0
 33 35  1  0  0  0  0
 33 36  1  0  0  0  0
M  CHG  1  20   1
M  END
$$$$

  -OEChem-03222214013D

 36 35  0     1  0  0  0  0  0999 V2000
   -4.0081   -4.1670    2.1240 H   0  0  0  0  0  0  0  0  0  0  0  0
   -4.0334   -3.1302    1.7770 C   0  0  0  0  0  0  0  0  0  0  0  0
   -4.5518   -2.5233    2.5237 H   0  0  0  0  0  0  0  0  0  0  0  0
   -4.5869   -3.0858    0.8362 H   0  0  0  0  0  0  0  0  0  0  0  0
   -2.6229   -2.6095    1.5784 C   0  0  0  0  0  0  0  0  0  0  0  0
   -1.6678   -3.3293    1.8257 O   0  0  0  0  0  0  0  0  0  0  0  0
   -2.4274   -1.3359    1.0844 N   0  0  0  0  0  0  0  0  0  0  0  0
   -3.2656   -0.7630    0.9749 H   0  0  0  0  0  0  0  0  0  0  0  0
   -1.1567   -0.5915    1.1250 C   0  0  1  0  0  0  0  0  0  0  0  0
   -0.4698   -1.0432    1.8489 H   0  0  0  0  0  0  0  0  0  0  0  0
   -0.5124   -0.5822   -0.2754 C   0  0  0  0  0  0  0  0  0  0  0  0
   -1.2619   -0.2861   -1.0183 H   0  0  0  0  0  0  0  0  0  0  0  0
    0.2738    0.1807   -0.2962 H   0  0  0  0  0  0  0  0  0  0  0  0
    0.1235   -1.9350   -0.6421 C   0  0  0  0  0  0  0  0  0  0  0  0
    1.1934   -1.7899   -0.8255 H   0  0  0  0  0  0  0  0  0  0  0  0
    0.0378   -2.6393    0.1882 H   0  0  0  0  0  0  0  0  0  0  0  0
   -0.5237   -2.5179   -1.8951 C   0  0  0  0  0  0  0  0  0  0  0  0
   -1.6131   -2.4819   -1.7813 H   0  0  0  0  0  0  0  0  0  0  0  0
   -0.2418   -1.9149   -2.7651 H   0  0  0  0  0  0  0  0  0  0  0  0
   -0.0861   -3.9154   -2.0602 N   0  3  0  0  0  0  0  0  0  0  0  0
    0.5214   -4.2950   -1.3347 H   0  0  0  0  0  0  0  0  0  0  0  0
   -0.5043   -4.6967   -3.0124 C   0  0  0  0  0  0  0  0  0  0  0  0
   -1.3482   -4.2458   -4.0015 N   0  0  0  0  0  0  0  0  0  0  0  0
   -1.5049   -3.2422   -4.0689 H   0  0  0  0  0  0  0  0  0  0  0  0
   -1.4560   -4.8058   -4.8447 H   0  0  0  0  0  0  0  0  0  0  0  0
   -0.0967   -6.0089   -3.0388 N   0  0  0  0  0  0  0  0  0  0  0  0
    0.3715   -6.3888   -2.2181 H   0  0  0  0  0  0  0  0  0  0  0  0
   -0.5941   -6.6582   -3.6451 H   0  0  0  0  0  0  0  0  0  0  0  0
   -1.4258    0.8567    1.5817 C   0  0  0  0  0  0  0  0  0  0  0  0
   -2.3959    1.4511    1.1278 O   0  0  0  0  0  0  0  0  0  0  0  0
   -0.6241    1.4702    2.5264 N   0  0  0  0  0  0  0  0  0  0  0  0
    0.1343    0.9299    2.9339 H   0  0  0  0  0  0  0  0  0  0  0  0
   -0.8721    2.8191    3.0258 C   0  0  0  0  0  0  0  0  0  0  0  0
   -1.8446    2.8709    3.5270 H   0  0  0  0  0  0  0  0  0  0  0  0
   -0.0982    3.1068    3.7441 H   0  0  0  0  0  0  0  0  0  0  0  0
   -0.8619    3.5413    2.2023 H   0  0  0  0  0  0  0  0  0  0  0  0
  1  2  1  0  0  0  0
  2  3  1  0  0  0  0
  2  4  1  0  0  0  0
  2  5  1  0  0  0  0
  5  6  2  0  0  0  0
  5  7  1  0  0  0  0
  7  8  1  0  0  0  0
  7  9  1  0  0  0  0
  9 10  1  0  0  0  0
  9 11  1  0  0  0  0
  9 29  1  0  0  0  0
 11 12  1  0  0  0  0
 11 13  1  0  0  0  0
 11 14  1  0  0  0  0
 14 15  1  0  0  0  0
 14 16  1  0  0  0  0
 14 17  1  0  0  0  0
 17 18  1  0  0  0  0
 17 19  1  0  0  0  0
 17 20  1  0  0  0  0
 20 21  1  0  0  0  0
 20 22  2  0  0  0  0
 22 23  1  0  0  0  0
 22 26  1  0  0  0  0
 23 24  1  0  0  0  0
 23 25  1  0  0  0  0
 26 27  1  0  0  0  0
 26 28  1  0  0  0  0
 29 30  2  0  0  0  0
 29 31  1  0  0  0  0
 31 32  1  0  0  0  0
 31 33  1  0  0  0  0
 33 34  1  0  0  0  0
 33 35  1  0  0  0  0
 33 36  1  0  0  0  0
M  CHG  1  20   1
M  END
$$$$

  -OEChem-03222214013D

 36 35  0     1  0  0  0  0  0999 V2000
   -4.1202   -4.0794    2.3019 H   0  0  0  0  0  0  0  0  0  0  0  0
   -4.1259   -3.0520    1.9276 C   0  0  0  0  0  0  0  0  0  0  0  0
   -4.6456   -2.4181    2.6505 H   0  0  0  0  0  0  0  0  0  0  0  0
   -4.6653   -3.0264    0.9778 H   0  0  0  0  0  0  0  0  0  0  0  0
   -2.7056   -2.5566    1.7354 C   0  0  0  0  0  0  0  0  0  0  0  0
   -1.7636   -3.2664    2.0522 O   0  0  0  0  0  0  0  0  0  0  0  0
   -2.4828   -1.3118    1.1825 N   0  0  0  0  0  0  0  0  0  0  0  0
   -3.3068   -0.7274    1.0337 H   0  0  0  0  0  0  0  0  0  0  0  0
   -1.1880   -0.6098    1.1622 C   0  0  1  0  0  0  0  0  0  0  0  0
   -0.4934   -1.0556    1.8826 H   0  0  0  0  0  0  0  0  0  0  0  0
   -0.5804   -0.6612   -0.2550 C   0  0  0  0  0  0  0  0  0  0  0  0
   -1.3588   -0.3787   -0.9730 H   0  0  0  0  0  0  0  0  0  0  0  0
    0.2174    0.0851   -0.3388 H   0  0  0  0  0  0  0  0  0  0  0  0
    0.0051   -2.0395   -0.6113 C   0  0  0  0  0  0  0  0  0  0  0  0
    1.0972   -2.0029   -0.5362 H   0  0  0  0  0  0  0  0  0  0  0  0
   -0.3415   -2.7950    0.0956 H   0  0  0  0  0  0  0  0  0  0  0  0
   -0.4132   -2.4586   -2.0181 C   0  0  0  0  0  0  0  0  0  0  0  0
   -1.5044   -2.3987   -2.1001 H   0  0  0  0  0  0  0  0  0  0  0  0
    0.0298   -1.7703   -2.7461 H   0  0  0  0  0  0  0  0  0  0  0  0
    0.0319   -3.8417   -2.2672 N   0  3  0  0  0  0  0  0  0  0  0  0
    0.2413   -4.4114   -1.4474 H   0  0  0  0  0  0  0  0  0  0  0  0
    0.1017   -4.3788   -3.4503 C   0  0  0  0  0  0  0  0  0  0  0  0
   -0.2257   -3.6751   -4.5870 N   0  0  0  0  0  0  0  0  0  0  0  0
   -0.6898   -2.7764   -4.4711 H   0  0  0  0  0  0  0  0  0  0  0  0
   -0.3878   -4.1898   -5.4501 H   0  0  0  0  0  0  0  0  0  0  0  0
    0.5075   -5.6857   -3.5780 N   0  0  0  0  0  0  0  0  0  0  0  0
    0.9106   -6.1544   -2.7688 H   0  0  0  0  0  0  0  0  0  0  0  0
    0.7583   -6.0295   -4.5032 H   0  0  0  0  0  0  0  0  0  0  0  0
   -1.4052    0.8637    1.5646 C   0  0  0  0  0  0  0  0  0  0  0  0
   -2.3608    1.4725    1.0987 O   0  0  0  0  0  0  0  0  0  0  0  0
   -0.5643    1.4907    2.4656 N   0  0  0  0  0  0  0  0  0  0  0  0
    0.1720    0.9371    2.8950 H   0  0  0  0  0  0  0  0  0  0  0  0
   -0.7739    2.8582    2.9312 C   0  0  0  0  0  0  0  0  0  0  0  0
   -1.7378    2.9459    3.4440 H   0  0  0  0  0  0  0  0  0  0  0  0
    0.0169    3.1467    3.6308 H   0  0  0  0  0  0  0  0  0  0  0  0
   -0.7596    3.5581    2.0888 H   0  0  0  0  0  0  0  0  0  0  0  0
  1  2  1  0  0  0  0
  2  3  1  0  0  0  0
  2  4  1  0  0  0  0
  2  5  1  0  0  0  0
  5  6  2  0  0  0  0
  5  7  1  0  0  0  0
  7  8  1  0  0  0  0
  7  9  1  0  0  0  0
  9 10  1  0  0  0  0
  9 11  1  0  0  0  0
  9 29  1  0  0  0  0
 11 12  1  0  0  0  0
 11 13  1  0  0  0  0
 11 14  1  0  0  0  0
 14 15  1  0  0  0  0
 14 16  1  0  0  0  0
 14 17  1  0  0  0  0
 17 18  1  0  0  0  0
 17 19  1  0  0  0  0
 17 20  1  0  0  0  0
 20 21  1  0  0  0  0
 20 22  2  0  0  0  0
 22 23  1  0  0  0  0
 22 26  1  0  0  0  0
 23 24  1  0  0  0  0
 23 25  1  0  0  0  0
 26 27  1  0  0  0  0
 26 28  1  0  0  0  0
 29 30  2  0  0  0  0
 29 31  1  0  0  0  0
 31 32  1  0  0  0  0
 31 33  1  0  0  0  0
 33 34  1  0  0  0  0
 33 35  1  0  0  0  0
 33 36  1  0  0  0  0
M  CHG  1  20   1
M  END
$$$$

  -OEChem-03222214013D

 36 35  0     1  0  0  0  0  0999 V2000
   -4.1574   -4.0327    2.2141 H   0  0  0  0  0  0  0  0  0  0  0  0
   -4.1413   -3.0364    1.7634 C   0  0  0  0  0  0  0  0  0  0  0  0
   -4.7111   -2.3546    2.3998 H   0  0  0  0  0  0  0  0  0  0  0  0
   -4.6147   -3.0854    0.7800 H   0  0  0  0  0  0  0  0  0  0  0  0
   -2.7129   -2.5454    1.6294 C   0  0  0  0  0  0  0  0  0  0  0  0
   -1.7837   -3.2597    1.9740 O   0  0  0  0  0  0  0  0  0  0  0  0
   -2.4655   -1.2943    1.1021 N   0  0  0  0  0  0  0  0  0  0  0  0
   -3.2802   -0.7039    0.9290 H   0  0  0  0  0  0  0  0  0  0  0  0
   -1.1672   -0.6016    1.1483 C   0  0  1  0  0  0  0  0  0  0  0  0
   -0.5081   -1.0619    1.8927 H   0  0  0  0  0  0  0  0  0  0  0  0
   -0.4916   -0.6336   -0.2376 C   0  0  0  0  0  0  0  0  0  0  0  0
   -1.2387   -0.3468   -0.9866 H   0  0  0  0  0  0  0  0  0  0  0  0
    0.3100    0.1122   -0.2773 H   0  0  0  0  0  0  0  0  0  0  0  0
    0.1014   -2.0090   -0.5836 C   0  0  0  0  0  0  0  0  0  0  0  0
    1.1224   -2.0792   -0.1933 H   0  0  0  0  0  0  0  0  0  0  0  0
   -0.4874   -2.7999   -0.1146 H   0  0  0  0  0  0  0  0  0  0  0  0
    0.0772   -2.2375   -2.0925 C   0  0  0  0  0  0  0  0  0  0  0  0
   -0.9486   -2.1106   -2.4556 H   0  0  0  0  0  0  0  0  0  0  0  0
    0.7154   -1.4934   -2.5822 H   0  0  0  0  0  0  0  0  0  0  0  0
    0.5546   -3.6004   -2.3887 N   0  3  0  0  0  0  0  0  0  0  0  0
    0.8158   -4.1806   -1.5917 H   0  0  0  0  0  0  0  0  0  0  0  0
    0.6125   -4.1015   -3.5883 C   0  0  0  0  0  0  0  0  0  0  0  0
    0.2308   -3.3789   -4.6957 N   0  0  0  0  0  0  0  0  0  0  0  0
   -0.2466   -2.4928   -4.5432 H   0  0  0  0  0  0  0  0  0  0  0  0
    0.0525   -3.8763   -5.5659 H   0  0  0  0  0  0  0  0  0  0  0  0
    1.0613   -5.3887   -3.7633 N   0  0  0  0  0  0  0  0  0  0  0  0
    1.5099   -5.8609   -2.9806 H   0  0  0  0  0  0  0  0  0  0  0  0
    1.2971   -5.6974   -4.7046 H   0  0  0  0  0  0  0  0  0  0  0  0
   -1.3947    0.8669    1.5619 C   0  0  0  0  0  0  0  0  0  0  0  0
   -2.3238    1.4897    1.0622 O   0  0  0  0  0  0  0  0  0  0  0  0
   -0.5903    1.4749    2.5081 N   0  0  0  0  0  0  0  0  0  0  0  0
    0.1139    0.9057    2.9698 H   0  0  0  0  0  0  0  0  0  0  0  0
   -0.8226    2.8310    2.9954 C   0  0  0  0  0  0  0  0  0  0  0  0
   -1.8001    2.9011    3.4847 H   0  0  0  0  0  0  0  0  0  0  0  0
   -0.0523    3.1115    3.7207 H   0  0  0  0  0  0  0  0  0  0  0  0
   -0.7927    3.5478    2.1677 H   0  0  0  0  0  0  0  0  0  0  0  0
  1  2  1  0  0  0  0
  2  3  1  0  0  0  0
  2  4  1  0  0  0  0
  2  5  1  0  0  0  0
  5  6  2  0  0  0  0
  5  7  1  0  0  0  0
  7  8  1  0  0  0  0
  7  9  1  0  0  0  0
  9 10  1  0  0  0  0
  9 11  1  0  0  0  0
  9 29  1  0  0  0  0
 11 12  1  0  0  0  0
 11 13  1  0  0  0  0
 11 14  1  0  0  0  0
 14 15  1  0  0  0  0
 14 16  1  0  0  0  0
 14 17  1  0  0  0  0
 17 18  1  0  0  0  0
 17 19  1  0  0  0  0
 17 20  1  0  0  0  0
 20 21  1  0  0  0  0
 20 22  2  0  0  0  0
 22 23  1  0  0  0  0
 22 26  1  0  0  0  0
 23 24  1  0  0  0  0
 23 25  1  0  0  0  0
 26 27  1  0  0  0  0
 26 28  1  0  0  0  0
 29 30  2  0  0  0  0
 29 31  1  0  0  0  0
 31 32  1  0  0  0  0
 31 33  1  0  0  0  0
 33 34  1  0  0  0  0
 33 35  1  0  0  0  0
 33 36  1  0  0  0  0
M  CHG  1  20   1
M  END
$$$$

  -OEChem-03222214013D

 36 35  0     1  0  0  0  0  0999 V2000
   -4.1222   -4.0475    2.1728 H   0  0  0  0  0  0  0  0  0  0  0  0
   -4.1211   -3.0497    1.7248 C   0  0  0  0  0  0  0  0  0  0  0  0
   -4.7002   -2.3779    2.3634 H   0  0  0  0  0  0  0  0  0  0  0  0
   -4.5941   -3.1031    0.7414 H   0  0  0  0  0  0  0  0  0  0  0  0
   -2.7000   -2.5380    1.5903 C   0  0  0  0  0  0  0  0  0  0  0  0
   -1.7578   -3.2504    1.9037 O   0  0  0  0  0  0  0  0  0  0  0  0
   -2.4682   -1.2772    1.0792 N   0  0  0  0  0  0  0  0  0  0  0  0
   -3.2876   -0.6893    0.9210 H   0  0  0  0  0  0  0  0  0  0  0  0
   -1.1726   -0.5817    1.1319 C   0  0  1  0  0  0  0  0  0  0  0  0
   -0.5126   -1.0497    1.8700 H   0  0  0  0  0  0  0  0  0  0  0  0
   -0.5002   -0.6080   -0.2543 C   0  0  0  0  0  0  0  0  0  0  0  0
   -1.2422   -0.3227   -1.0087 H   0  0  0  0  0  0  0  0  0  0  0  0
    0.3047    0.1344   -0.2881 H   0  0  0  0  0  0  0  0  0  0  0  0
    0.0866   -1.9865   -0.5888 C   0  0  0  0  0  0  0  0  0  0  0  0
    0.9843   -2.1628    0.0137 H   0  0  0  0  0  0  0  0  0  0  0  0
   -0.6405   -2.7663   -0.3467 H   0  0  0  0  0  0  0  0  0  0  0  0
    0.4057   -2.0787   -2.0777 C   0  0  0  0  0  0  0  0  0  0  0  0
   -0.5024   -1.8636   -2.6513 H   0  0  0  0  0  0  0  0  0  0  0  0
    1.1651   -1.3308   -2.3319 H   0  0  0  0  0  0  0  0  0  0  0  0
    0.8953   -3.4339   -2.3885 N   0  3  0  0  0  0  0  0  0  0  0  0
    0.9615   -4.0898   -1.6104 H   0  0  0  0  0  0  0  0  0  0  0  0
    1.2120   -3.8318   -3.5864 C   0  0  0  0  0  0  0  0  0  0  0  0
    1.1103   -2.9995   -4.6778 N   0  0  0  0  0  0  0  0  0  0  0  0
    0.6259   -2.1125   -4.5559 H   0  0  0  0  0  0  0  0  0  0  0  0
    1.1326   -3.4096   -5.6092 H   0  0  0  0  0  0  0  0  0  0  0  0
    1.6577   -5.1178   -3.7773 N   0  0  0  0  0  0  0  0  0  0  0  0
    1.8993   -5.6786   -2.9623 H   0  0  0  0  0  0  0  0  0  0  0  0
    2.0948   -5.3542   -4.6662 H   0  0  0  0  0  0  0  0  0  0  0  0
   -1.3950    0.8807    1.5684 C   0  0  0  0  0  0  0  0  0  0  0  0
   -2.3244    1.5138    1.0828 O   0  0  0  0  0  0  0  0  0  0  0  0
   -0.5842    1.4714    2.5200 N   0  0  0  0  0  0  0  0  0  0  0  0
    0.1225    0.8936    2.9667 H   0  0  0  0  0  0  0  0  0  0  0  0
   -0.8086    2.8208    3.0290 C   0  0  0  0  0  0  0  0  0  0  0  0
   -1.7836    2.8874    3.5237 H   0  0  0  0  0  0  0  0  0  0  0  0
   -0.0340    3.0862    3.7552 H   0  0  0  0  0  0  0  0  0  0  0  0
   -0.7786    3.5500    2.2124 H   0  0  0  0  0  0  0  0  0  0  0  0
  1  2  1  0  0  0  0
  2  3  1  0  0  0  0
  2  4  1  0  0  0  0
  2  5  1  0  0  0  0
  5  6  2  0  0  0  0
  5  7  1  0  0  0  0
  7  8  1  0  0  0  0
  7  9  1  0  0  0  0
  9 10  1  0  0  0  0
  9 11  1  0  0  0  0
  9 29  1  0  0  0  0
 11 12  1  0  0  0  0
 11 13  1  0  0  0  0
 11 14  1  0  0  0  0
 14 15  1  0  0  0  0
 14 16  1  0  0  0  0
 14 17  1  0  0  0  0
 17 18  1  0  0  0  0
 17 19  1  0  0  0  0
 17 20  1  0  0  0  0
 20 21  1  0  0  0  0
 20 22  2  0  0  0  0
 22 23  1  0  0  0  0
 22 26  1  0  0  0  0
 23 24  1  0  0  0  0
 23 25  1  0  0  0  0
 26 27  1  0  0  0  0
 26 28  1  0  0  0  0
 29 30  2  0  0  0  0
 29 31  1  0  0  0  0
 31 32  1  0  0  0  0
 31 33  1  0  0  0  0
 33 34  1  0  0  0  0
 33 35  1  0  0  0  0
 33 36  1  0  0  0  0
M  CHG  1  20   1
M  END
$$$$

  -OEChem-03222214013D

 36 35  0     1  0  0  0  0  0999 V2000
   -4.1340   -4.0373    2.1830 H   0  0  0  0  0  0  0  0  0  0  0  0
   -4.1440   -3.0373    1.7406 C   0  0  0  0  0  0  0  0  0  0  0  0
   -4.6923   -2.3657    2.4060 H   0  0  0  0  0  0  0  0  0  0  0  0
   -4.6573   -3.0825    0.7773 H   0  0  0  0  0  0  0  0  0  0  0  0
   -2.7256   -2.5353    1.5511 C   0  0  0  0  0  0  0  0  0  0  0  0
   -1.7765   -3.2700    1.7822 O   0  0  0  0  0  0  0  0  0  0  0  0
   -2.5027   -1.2654    1.0583 N   0  0  0  0  0  0  0  0  0  0  0  0
   -3.3232   -0.6678    0.9493 H   0  0  0  0  0  0  0  0  0  0  0  0
   -1.2038   -0.5739    1.1093 C   0  0  1  0  0  0  0  0  0  0  0  0
   -0.5526   -1.0619    1.8424 H   0  0  0  0  0  0  0  0  0  0  0  0
   -0.5115   -0.5996   -0.2672 C   0  0  0  0  0  0  0  0  0  0  0  0
   -1.1425   -0.0766   -0.9947 H   0  0  0  0  0  0  0  0  0  0  0  0
    0.4380   -0.0574   -0.1998 H   0  0  0  0  0  0  0  0  0  0  0  0
   -0.2460   -2.0296   -0.7582 C   0  0  0  0  0  0  0  0  0  0  0  0
    0.3778   -2.5569   -0.0277 H   0  0  0  0  0  0  0  0  0  0  0  0
   -1.1929   -2.5715   -0.8468 H   0  0  0  0  0  0  0  0  0  0  0  0
    0.4398   -2.0087   -2.1204 C   0  0  0  0  0  0  0  0  0  0  0  0
   -0.1944   -1.4701   -2.8332 H   0  0  0  0  0  0  0  0  0  0  0  0
    1.3967   -1.4815   -2.0368 H   0  0  0  0  0  0  0  0  0  0  0  0
    0.6566   -3.3956   -2.5712 N   0  3  0  0  0  0  0  0  0  0  0  0
    0.3875   -4.1372   -1.9246 H   0  0  0  0  0  0  0  0  0  0  0  0
    1.1548   -3.7111   -3.7313 C   0  0  0  0  0  0  0  0  0  0  0  0
    1.5194   -2.7518   -4.6490 N   0  0  0  0  0  0  0  0  0  0  0  0
    1.2430   -1.7891   -4.4672 H   0  0  0  0  0  0  0  0  0  0  0  0
    1.6778   -3.0320   -5.6148 H   0  0  0  0  0  0  0  0  0  0  0  0
    1.3216   -5.0360   -4.0584 N   0  0  0  0  0  0  0  0  0  0  0  0
    1.2212   -5.7375   -3.3267 H   0  0  0  0  0  0  0  0  0  0  0  0
    1.8922   -5.2696   -4.8690 H   0  0  0  0  0  0  0  0  0  0  0  0
   -1.4023    0.8834    1.5725 C   0  0  0  0  0  0  0  0  0  0  0  0
   -2.3357    1.5309    1.1149 O   0  0  0  0  0  0  0  0  0  0  0  0
   -0.5734    1.4520    2.5222 N   0  0  0  0  0  0  0  0  0  0  0  0
    0.1369    0.8629    2.9483 H   0  0  0  0  0  0  0  0  0  0  0  0
   -0.7792    2.7963    3.0527 C   0  0  0  0  0  0  0  0  0  0  0  0
   -1.7482    2.8649    3.5586 H   0  0  0  0  0  0  0  0  0  0  0  0
    0.0057    3.0452    3.7737 H   0  0  0  0  0  0  0  0  0  0  0  0
   -0.7519    3.5365    2.2458 H   0  0  0  0  0  0  0  0  0  0  0  0
  1  2  1  0  0  0  0
  2  3  1  0  0  0  0
  2  4  1  0  0  0  0
  2  5  1  0  0  0  0
  5  6  2  0  0  0  0
  5  7  1  0  0  0  0
  7  8  1  0  0  0  0
  7  9  1  0  0  0  0
  9 10  1  0  0  0  0
  9 11  1  0  0  0  0
  9 29  1  0  0  0  0
 11 12  1  0  0  0  0
 11 13  1  0  0  0  0
 11 14  1  0  0  0  0
 14 15  1  0  0  0  0
 14 16  1  0  0  0  0
 14 17  1  0  0  0  0
 17 18  1  0  0  0  0
 17 19  1  0  0  0  0
 17 20  1  0  0  0  0
 20 21  1  0  0  0  0
 20 22  2  0  0  0  0
 22 23  1  0  0  0  0
 22 26  1  0  0  0  0
 23 24  1  0  0  0  0
 23 25  1  0  0  0  0
 26 27  1  0  0  0  0
 26 28  1  0  0  0  0
 29 30  2  0  0  0  0
 29 31  1  0  0  0  0
 31 32  1  0  0  0  0
 31 33  1  0  0  0  0
 33 34  1  0  0  0  0
 33 35  1  0  0  0  0
 33 36  1  0  0  0  0
M  CHG  1  20   1
M  END
$$$$

  -OEChem-03222214013D

 36 35  0     1  0  0  0  0  0999 V2000
   -4.1058   -4.0533    2.1671 H   0  0  0  0  0  0  0  0  0  0  0  0
   -4.1209   -3.0633    1.7024 C   0  0  0  0  0  0  0  0  0  0  0  0
   -4.6826   -2.3827    2.3472 H   0  0  0  0  0  0  0  0  0  0  0  0
   -4.6237   -3.1337    0.7351 H   0  0  0  0  0  0  0  0  0  0  0  0
   -2.7059   -2.5503    1.5163 C   0  0  0  0  0  0  0  0  0  0  0  0
   -1.7523   -3.2783    1.7504 O   0  0  0  0  0  0  0  0  0  0  0  0
   -2.4928   -1.2724    1.0402 N   0  0  0  0  0  0  0  0  0  0  0  0
   -3.3201   -0.6855    0.9248 H   0  0  0  0  0  0  0  0  0  0  0  0
   -1.2039   -0.5636    1.1048 C   0  0  1  0  0  0  0  0  0  0  0  0
   -0.5491   -1.0519    1.8344 H   0  0  0  0  0  0  0  0  0  0  0  0
   -0.5149   -0.5713   -0.2727 C   0  0  0  0  0  0  0  0  0  0  0  0
   -1.1400   -0.0451   -1.0029 H   0  0  0  0  0  0  0  0  0  0  0  0
    0.4304   -0.0240   -0.1898 H   0  0  0  0  0  0  0  0  0  0  0  0
   -0.2365   -1.9971   -0.7670 C   0  0  0  0  0  0  0  0  0  0  0  0
    0.1870   -2.5852    0.0547 H   0  0  0  0  0  0  0  0  0  0  0  0
   -1.1741   -2.4723   -1.0750 H   0  0  0  0  0  0  0  0  0  0  0  0
    0.7532   -1.9854   -1.9273 C   0  0  0  0  0  0  0  0  0  0  0  0
    0.3146   -1.4367   -2.7681 H   0  0  0  0  0  0  0  0  0  0  0  0
    1.6709   -1.4741   -1.6163 H   0  0  0  0  0  0  0  0  0  0  0  0
    1.0509   -3.3758   -2.3160 N   0  3  0  0  0  0  0  0  0  0  0  0
    0.7184   -4.1086   -1.6892 H   0  0  0  0  0  0  0  0  0  0  0  0
    1.7261   -3.7041   -3.3787 C   0  0  0  0  0  0  0  0  0  0  0  0
    2.2283   -2.7556   -4.2399 N   0  0  0  0  0  0  0  0  0  0  0  0
    2.1984   -1.7822   -3.9435 H   0  0  0  0  0  0  0  0  0  0  0  0
    2.9469   -3.0323   -4.9057 H   0  0  0  0  0  0  0  0  0  0  0  0
    1.9536   -5.0314   -3.6528 N   0  0  0  0  0  0  0  0  0  0  0  0
    1.4412   -5.7342   -3.1231 H   0  0  0  0  0  0  0  0  0  0  0  0
    2.2928   -5.2854   -4.5788 H   0  0  0  0  0  0  0  0  0  0  0  0
   -1.4156    0.8866    1.5821 C   0  0  0  0  0  0  0  0  0  0  0  0
   -2.3457    1.5366    1.1223 O   0  0  0  0  0  0  0  0  0  0  0  0
   -0.5918    1.4483    2.5404 N   0  0  0  0  0  0  0  0  0  0  0  0
    0.1141    0.8553    2.9680 H   0  0  0  0  0  0  0  0  0  0  0  0
   -0.7863    2.7957    3.0667 C   0  0  0  0  0  0  0  0  0  0  0  0
   -1.7541    2.8748    3.5734 H   0  0  0  0  0  0  0  0  0  0  0  0
    0.0016    3.0400    3.7860 H   0  0  0  0  0  0  0  0  0  0  0  0
   -0.7524    3.5328    2.2572 H   0  0  0  0  0  0  0  0  0  0  0  0
  1  2  1  0  0  0  0
  2  3  1  0  0  0  0
  2  4  1  0  0  0  0
  2  5  1  0  0  0  0
  5  6  2  0  0  0  0
  5  7  1  0  0  0  0
  7  8  1  0  0  0  0
  7  9  1  0  0  0  0
  9 10  1  0  0  0  0
  9 11  1  0  0  0  0
  9 29  1  0  0  0  0
 11 12  1  0  0  0  0
 11 13  1  0  0  0  0
 11 14  1  0  0  0  0
 14 15  1  0  0  0  0
 14 16  1  0  0  0  0
 14 17  1  0  0  0  0
 17 18  1  0  0  0  0
 17 19  1  0  0  0  0
 17 20  1  0  0  0  0
 20 21  1  0  0  0  0
 20 22  2  0  0  0  0
 22 23  1  0  0  0  0
 22 26  1  0  0  0  0
 23 24  1  0  0  0  0
 23 25  1  0  0  0  0
 26 27  1  0  0  0  0
 26 28  1  0  0  0  0
 29 30  2  0  0  0  0
 29 31  1  0  0  0  0
 31 32  1  0  0  0  0
 31 33  1  0  0  0  0
 33 34  1  0  0  0  0
 33 35  1  0  0  0  0
 33 36  1  0  0  0  0
M  CHG  1  20   1
M  END
$$$$

  -OEChem-03222214013D

 36 35  0     1  0  0  0  0  0999 V2000
   -4.1190   -4.0634    2.1106 H   0  0  0  0  0  0  0  0  0  0  0  0
   -4.1207   -3.0602    1.6753 C   0  0  0  0  0  0  0  0  0  0  0  0
   -4.6987   -2.3982    2.3252 H   0  0  0  0  0  0  0  0  0  0  0  0
   -4.5980   -3.1021    0.6933 H   0  0  0  0  0  0  0  0  0  0  0  0
   -2.7007   -2.5445    1.5419 C   0  0  0  0  0  0  0  0  0  0  0  0
   -1.7572   -3.2608    1.8420 O   0  0  0  0  0  0  0  0  0  0  0  0
   -2.4740   -1.2726    1.0559 N   0  0  0  0  0  0  0  0  0  0  0  0
   -3.2983   -0.6913    0.8985 H   0  0  0  0  0  0  0  0  0  0  0  0
   -1.1861   -0.5620    1.1215 C   0  0  1  0  0  0  0  0  0  0  0  0
   -0.5316   -1.0430    1.8560 H   0  0  0  0  0  0  0  0  0  0  0  0
   -0.4971   -0.5725   -0.2573 C   0  0  0  0  0  0  0  0  0  0  0  0
   -1.1179   -0.0447   -0.9901 H   0  0  0  0  0  0  0  0  0  0  0  0
    0.4446   -0.0203   -0.1664 H   0  0  0  0  0  0  0  0  0  0  0  0
   -0.2108   -1.9955   -0.7616 C   0  0  0  0  0  0  0  0  0  0  0  0
   -0.0191   -2.6502    0.0939 H   0  0  0  0  0  0  0  0  0  0  0  0
   -1.0868   -2.3822   -1.2932 H   0  0  0  0  0  0  0  0  0  0  0  0
    1.0272   -2.0230   -1.6540 C   0  0  0  0  0  0  0  0  0  0  0  0
    0.8431   -1.4126   -2.5452 H   0  0  0  0  0  0  0  0  0  0  0  0
    1.8765   -1.5974   -1.1083 H   0  0  0  0  0  0  0  0  0  0  0  0
    1.3167   -3.4180   -2.0329 N   0  3  0  0  0  0  0  0  0  0  0  0
    0.8029   -4.1449   -1.5350 H   0  0  0  0  0  0  0  0  0  0  0  0
    2.1995   -3.7598   -2.9260 C   0  0  0  0  0  0  0  0  0  0  0  0
    2.9500   -2.8235   -3.6003 N   0  0  0  0  0  0  0  0  0  0  0  0
    2.9221   -1.8620   -3.2671 H   0  0  0  0  0  0  0  0  0  0  0  0
    3.7788   -3.1322   -4.1045 H   0  0  0  0  0  0  0  0  0  0  0  0
    2.3977   -5.0906   -3.2069 N   0  0  0  0  0  0  0  0  0  0  0  0
    1.7326   -5.7711   -2.8440 H   0  0  0  0  0  0  0  0  0  0  0  0
    2.9261   -5.3378   -4.0416 H   0  0  0  0  0  0  0  0  0  0  0  0
   -1.4080    0.8927    1.5817 C   0  0  0  0  0  0  0  0  0  0  0  0
   -2.3396    1.5331    1.1114 O   0  0  0  0  0  0  0  0  0  0  0  0
   -0.5938    1.4672    2.5406 N   0  0  0  0  0  0  0  0  0  0  0  0
    0.1085    0.8794    2.9811 H   0  0  0  0  0  0  0  0  0  0  0  0
   -0.8177    2.8073    3.0740 C   0  0  0  0  0  0  0  0  0  0  0  0
   -1.7917    2.8648    3.5718 H   0  0  0  0  0  0  0  0  0  0  0  0
   -0.0415    3.0601    3.8031 H   0  0  0  0  0  0  0  0  0  0  0  0
   -0.7899    3.5512    2.2705 H   0  0  0  0  0  0  0  0  0  0  0  0
  1  2  1  0  0  0  0
  2  3  1  0  0  0  0
  2  4  1  0  0  0  0
  2  5  1  0  0  0  0
  5  6  2  0  0  0  0
  5  7  1  0  0  0  0
  7  8  1  0  0  0  0
  7  9  1  0  0  0  0
  9 10  1  0  0  0  0
  9 11  1  0  0  0  0
  9 29  1  0  0  0  0
 11 12  1  0  0  0  0
 11 13  1  0  0  0  0
 11 14  1  0  0  0  0
 14 15  1  0  0  0  0
 14 16  1  0  0  0  0
 14 17  1  0  0  0  0
 17 18  1  0  0  0  0
 17 19  1  0  0  0  0
 17 20  1  0  0  0  0
 20 21  1  0  0  0  0
 20 22  2  0  0  0  0
 22 23  1  0  0  0  0
 22 26  1  0  0  0  0
 23 24  1  0  0  0  0
 23 25  1  0  0  0  0
 26 27  1  0  0  0  0
 26 28  1  0  0  0  0
 29 30  2  0  0  0  0
 29 31  1  0  0  0  0
 31 32  1  0  0  0  0
 31 33  1  0  0  0  0
 33 34  1  0  0  0  0
 33 35  1  0  0  0  0
 33 36  1  0  0  0  0
M  CHG  1  20   1
M  END
$$$$

  -OEChem-03222214013D

 36 35  0     1  0  0  0  0  0999 V2000
   -4.1573   -4.0510    2.1038 H   0  0  0  0  0  0  0  0  0  0  0  0
   -4.1399   -3.0468    1.6711 C   0  0  0  0  0  0  0  0  0  0  0  0
   -4.7306   -2.3820    2.3063 H   0  0  0  0  0  0  0  0  0  0  0  0
   -4.5905   -3.0825    0.6764 H   0  0  0  0  0  0  0  0  0  0  0  0
   -2.7138   -2.5398    1.5778 C   0  0  0  0  0  0  0  0  0  0  0  0
   -1.7864   -3.2486    1.9393 O   0  0  0  0  0  0  0  0  0  0  0  0
   -2.4669   -1.2768    1.0787 N   0  0  0  0  0  0  0  0  0  0  0  0
   -3.2835   -0.6963    0.8822 H   0  0  0  0  0  0  0  0  0  0  0  0
   -1.1754   -0.5727    1.1452 C   0  0  1  0  0  0  0  0  0  0  0  0
   -0.5240   -1.0485    1.8860 H   0  0  0  0  0  0  0  0  0  0  0  0
   -0.4799   -0.5827   -0.2328 C   0  0  0  0  0  0  0  0  0  0  0  0
   -1.1021   -0.0512   -0.9620 H   0  0  0  0  0  0  0  0  0  0  0  0
    0.4569   -0.0226   -0.1397 H   0  0  0  0  0  0  0  0  0  0  0  0
   -0.1856   -1.9983   -0.7624 C   0  0  0  0  0  0  0  0  0  0  0  0
   -0.2591   -2.7207    0.0537 H   0  0  0  0  0  0  0  0  0  0  0  0
   -0.9298   -2.2705   -1.5187 H   0  0  0  0  0  0  0  0  0  0  0  0
    1.2282   -2.0936   -1.3327 C   0  0  0  0  0  0  0  0  0  0  0  0
    1.3099   -1.4368   -2.2061 H   0  0  0  0  0  0  0  0  0  0  0  0
    1.9460   -1.7597   -0.5753 H   0  0  0  0  0  0  0  0  0  0  0  0
    1.5065   -3.4921   -1.7079 N   0  3  0  0  0  0  0  0  0  0  0  0
    0.8505   -4.1969   -1.3716 H   0  0  0  0  0  0  0  0  0  0  0  0
    2.5541   -3.8686   -2.3819 C   0  0  0  0  0  0  0  0  0  0  0  0
    3.4991   -2.9679   -2.8170 N   0  0  0  0  0  0  0  0  0  0  0  0
    3.4472   -2.0152   -2.4625 H   0  0  0  0  0  0  0  0  0  0  0  0
    4.4046   -3.3185   -3.1225 H   0  0  0  0  0  0  0  0  0  0  0  0
    2.7330   -5.2007   -2.6683 N   0  0  0  0  0  0  0  0  0  0  0  0
    1.9606   -5.8442   -2.5062 H   0  0  0  0  0  0  0  0  0  0  0  0
    3.4311   -5.4590   -3.3631 H   0  0  0  0  0  0  0  0  0  0  0  0
   -1.4033    0.8877    1.5850 C   0  0  0  0  0  0  0  0  0  0  0  0
   -2.3293    1.5225    1.0961 O   0  0  0  0  0  0  0  0  0  0  0  0
   -0.5994    1.4750    2.5446 N   0  0  0  0  0  0  0  0  0  0  0  0
    0.0907    0.8902    3.0075 H   0  0  0  0  0  0  0  0  0  0  0  0
   -0.8401    2.8170    3.0657 C   0  0  0  0  0  0  0  0  0  0  0  0
   -1.8189    2.8689    3.5546 H   0  0  0  0  0  0  0  0  0  0  0  0
   -0.0730    3.0833    3.7995 H   0  0  0  0  0  0  0  0  0  0  0  0
   -0.8125    3.5542    2.2561 H   0  0  0  0  0  0  0  0  0  0  0  0
  1  2  1  0  0  0  0
  2  3  1  0  0  0  0
  2  4  1  0  0  0  0
  2  5  1  0  0  0  0
  5  6  2  0  0  0  0
  5  7  1  0  0  0  0
  7  8  1  0  0  0  0
  7  9  1  0  0  0  0
  9 10  1  0  0  0  0
  9 11  1  0  0  0  0
  9 29  1  0  0  0  0
 11 12  1  0  0  0  0
 11 13  1  0  0  0  0
 11 14  1  0  0  0  0
 14 15  1  0  0  0  0
 14 16  1  0  0  0  0
 14 17  1  0  0  0  0
 17 18  1  0  0  0  0
 17 19  1  0  0  0  0
 17 20  1  0  0  0  0
 20 21  1  0  0  0  0
 20 22  2  0  0  0  0
 22 23  1  0  0  0  0
 22 26  1  0  0  0  0
 23 24  1  0  0  0  0
 23 25  1  0  0  0  0
 26 27  1  0  0  0  0
 26 28  1  0  0  0  0
 29 30  2  0  0  0  0
 29 31  1  0  0  0  0
 31 32  1  0  0  0  0
 31 33  1  0  0  0  0
 33 34  1  0  0  0  0
 33 35  1  0  0  0  0
 33 36  1  0  0  0  0
M  CHG  1  20   1
M  END
$$$$

  -OEChem-03222214013D

 36 35  0     1  0  0  0  0  0999 V2000
   -4.2232   -4.0584    1.9449 H   0  0  0  0  0  0  0  0  0  0  0  0
   -4.1871   -3.0308    1.5722 C   0  0  0  0  0  0  0  0  0  0  0  0
   -4.7980   -2.4000    2.2228 H   0  0  0  0  0  0  0  0  0  0  0  0
   -4.6018   -3.0082    0.5616 H   0  0  0  0  0  0  0  0  0  0  0  0
   -2.7569   -2.5261    1.5607 C   0  0  0  0  0  0  0  0  0  0  0  0
   -1.8559   -3.2292    1.9952 O   0  0  0  0  0  0  0  0  0  0  0  0
   -2.4744   -1.2711    1.0586 N   0  0  0  0  0  0  0  0  0  0  0  0
   -3.2735   -0.6906    0.7997 H   0  0  0  0  0  0  0  0  0  0  0  0
   -1.1812   -0.5769    1.1832 C   0  0  1  0  0  0  0  0  0  0  0  0
   -0.5745   -1.0499    1.9624 H   0  0  0  0  0  0  0  0  0  0  0  0
   -0.4044   -0.5971   -0.1524 C   0  0  0  0  0  0  0  0  0  0  0  0
   -1.0001   -0.0768   -0.9113 H   0  0  0  0  0  0  0  0  0  0  0  0
    0.5206   -0.0236   -0.0262 H   0  0  0  0  0  0  0  0  0  0  0  0
   -0.0781   -2.0099   -0.6747 C   0  0  0  0  0  0  0  0  0  0  0  0
   -0.4721   -2.7694    0.0012 H   0  0  0  0  0  0  0  0  0  0  0  0
   -0.5596   -2.1567   -1.6477 H   0  0  0  0  0  0  0  0  0  0  0  0
    1.4298   -2.2123   -0.8080 C   0  0  0  0  0  0  0  0  0  0  0  0
    1.8131   -1.5486   -1.5902 H   0  0  0  0  0  0  0  0  0  0  0  0
    1.9144   -1.9500    0.1392 H   0  0  0  0  0  0  0  0  0  0  0  0
    1.7021   -3.6244   -1.1330 N   0  3  0  0  0  0  0  0  0  0  0  0
    1.0430   -4.3117   -0.7672 H   0  0  0  0  0  0  0  0  0  0  0  0
    2.7426   -4.0354   -1.7980 C   0  0  0  0  0  0  0  0  0  0  0  0
    3.6990   -3.1639   -2.2670 N   0  0  0  0  0  0  0  0  0  0  0  0
    3.6741   -2.2053   -1.9260 H   0  0  0  0  0  0  0  0  0  0  0  0
    4.5958   -3.5409   -2.5668 H   0  0  0  0  0  0  0  0  0  0  0  0
    2.9006   -5.3790   -2.0404 N   0  0  0  0  0  0  0  0  0  0  0  0
    2.1224   -6.0062   -1.8454 H   0  0  0  0  0  0  0  0  0  0  0  0
    3.5872   -5.6711   -2.7335 H   0  0  0  0  0  0  0  0  0  0  0  0
   -1.4174    0.8912    1.5931 C   0  0  0  0  0  0  0  0  0  0  0  0
   -2.3044    1.5319    1.0436 O   0  0  0  0  0  0  0  0  0  0  0  0
   -0.6578    1.4828    2.5857 N   0  0  0  0  0  0  0  0  0  0  0  0
   -0.0055    0.8953    3.0971 H   0  0  0  0  0  0  0  0  0  0  0  0
   -0.8940    2.8426    3.0609 C   0  0  0  0  0  0  0  0  0  0  0  0
   -1.8868    2.9229    3.5166 H   0  0  0  0  0  0  0  0  0  0  0  0
   -0.1456    3.1190    3.8103 H   0  0  0  0  0  0  0  0  0  0  0  0
   -0.8293    3.5560    2.2321 H   0  0  0  0  0  0  0  0  0  0  0  0
  1  2  1  0  0  0  0
  2  3  1  0  0  0  0
  2  4  1  0  0  0  0
  2  5  1  0  0  0  0
  5  6  2  0  0  0  0
  5  7  1  0  0  0  0
  7  8  1  0  0  0  0
  7  9  1  0  0  0  0
  9 10  1  0  0  0  0
  9 11  1  0  0  0  0
  9 29  1  0  0  0  0
 11 12  1  0  0  0  0
 11 13  1  0  0  0  0
 11 14  1  0  0  0  0
 14 15  1  0  0  0  0
 14 16  1  0  0  0  0
 14 17  1  0  0  0  0
 17 18  1  0  0  0  0
 17 19  1  0  0  0  0
 17 20  1  0  0  0  0
 20 21  1  0  0  0  0
 20 22  2  0  0  0  0
 22 23  1  0  0  0  0
 22 26  1  0  0  0  0
 23 24  1  0  0  0  0
 23 25  1  0  0  0  0
 26 27  1  0  0  0  0
 26 28  1  0  0  0  0
 29 30  2  0  0  0  0
 29 31  1  0  0  0  0
 31 32  1  0  0  0  0
 31 33  1  0  0  0  0
 33 34  1  0  0  0  0
 33 35  1  0  0  0  0
 33 36  1  0  0  0  0
M  CHG  1  20   1
M  END
$$$$

  -OEChem-03222214013D

 36 35  0     1  0  0  0  0  0999 V2000
   -4.1669   -4.0841    1.8709 H   0  0  0  0  0  0  0  0  0  0  0  0
   -4.1399   -3.0595    1.4896 C   0  0  0  0  0  0  0  0  0  0  0  0
   -4.7696   -2.4320    2.1254 H   0  0  0  0  0  0  0  0  0  0  0  0
   -4.5404   -3.0511    0.4728 H   0  0  0  0  0  0  0  0  0  0  0  0
   -2.7166   -2.5357    1.4938 C   0  0  0  0  0  0  0  0  0  0  0  0
   -1.8032   -3.2414    1.9011 O   0  0  0  0  0  0  0  0  0  0  0  0
   -2.4488   -1.2681    1.0153 N   0  0  0  0  0  0  0  0  0  0  0  0
   -3.2541   -0.6892    0.7721 H   0  0  0  0  0  0  0  0  0  0  0  0
   -1.1666   -0.5617    1.1759 C   0  0  1  0  0  0  0  0  0  0  0  0
   -0.5724   -1.0377    1.9627 H   0  0  0  0  0  0  0  0  0  0  0  0
   -0.3500   -0.5479   -0.1360 C   0  0  0  0  0  0  0  0  0  0  0  0
   -0.9488   -0.0362   -0.8986 H   0  0  0  0  0  0  0  0  0  0  0  0
    0.5602    0.0455    0.0041 H   0  0  0  0  0  0  0  0  0  0  0  0
    0.0069   -1.9485   -0.6680 C   0  0  0  0  0  0  0  0  0  0  0  0
   -0.6316   -2.7132   -0.2269 H   0  0  0  0  0  0  0  0  0  0  0  0
   -0.1724   -1.9734   -1.7482 H   0  0  0  0  0  0  0  0  0  0  0  0
    1.4764   -2.2729   -0.4109 C   0  0  0  0  0  0  0  0  0  0  0  0
    2.1022   -1.6946   -1.0981 H   0  0  0  0  0  0  0  0  0  0  0  0
    1.7334   -1.9858    0.6149 H   0  0  0  0  0  0  0  0  0  0  0  0
    1.6823   -3.7235   -0.5762 N   0  3  0  0  0  0  0  0  0  0  0  0
    0.9675   -4.3296   -0.1719 H   0  0  0  0  0  0  0  0  0  0  0  0
    2.7283   -4.2637   -1.1304 C   0  0  0  0  0  0  0  0  0  0  0  0
    3.7610   -3.5082   -1.6372 N   0  0  0  0  0  0  0  0  0  0  0  0
    3.7794   -2.5168   -1.4084 H   0  0  0  0  0  0  0  0  0  0  0  0
    4.6464   -3.9681   -1.8394 H   0  0  0  0  0  0  0  0  0  0  0  0
    2.8126   -5.6331   -1.2114 N   0  0  0  0  0  0  0  0  0  0  0  0
    1.9861   -6.1871   -0.9936 H   0  0  0  0  0  0  0  0  0  0  0  0
    3.5138   -6.0424   -1.8259 H   0  0  0  0  0  0  0  0  0  0  0  0
   -1.4351    0.8952    1.6063 C   0  0  0  0  0  0  0  0  0  0  0  0
   -2.3279    1.5267    1.0557 O   0  0  0  0  0  0  0  0  0  0  0  0
   -0.7067    1.4843    2.6238 N   0  0  0  0  0  0  0  0  0  0  0  0
   -0.0502    0.9027    3.1365 H   0  0  0  0  0  0  0  0  0  0  0  0
   -0.9815    2.8303    3.1181 C   0  0  0  0  0  0  0  0  0  0  0  0
   -1.9923    2.8871    3.5363 H   0  0  0  0  0  0  0  0  0  0  0  0
   -0.2672    3.1008    3.9019 H   0  0  0  0  0  0  0  0  0  0  0  0
   -0.8959    3.5624    2.3077 H   0  0  0  0  0  0  0  0  0  0  0  0
  1  2  1  0  0  0  0
  2  3  1  0  0  0  0
  2  4  1  0  0  0  0
  2  5  1  0  0  0  0
  5  6  2  0  0  0  0
  5  7  1  0  0  0  0
  7  8  1  0  0  0  0
  7  9  1  0  0  0  0
  9 10  1  0  0  0  0
  9 11  1  0  0  0  0
  9 29  1  0  0  0  0
 11 12  1  0  0  0  0
 11 13  1  0  0  0  0
 11 14  1  0  0  0  0
 14 15  1  0  0  0  0
 14 16  1  0  0  0  0
 14 17  1  0  0  0  0
 17 18  1  0  0  0  0
 17 19  1  0  0  0  0
 17 20  1  0  0  0  0
 20 21  1  0  0  0  0
 20 22  2  0  0  0  0
 22 23  1  0  0  0  0
 22 26  1  0  0  0  0
 23 24  1  0  0  0  0
 23 25  1  0  0  0  0
 26 27  1  0  0  0  0
 26 28  1  0  0  0  0
 29 30  2  0  0  0  0
 29 31  1  0  0  0  0
 31 32  1  0  0  0  0
 31 33  1  0  0  0  0
 33 34  1  0  0  0  0
 33 35  1  0  0  0  0
 33 36  1  0  0  0  0
M  CHG  1  20   1
M  END
$$$$

  -OEChem-03222214013D

 36 35  0     1  0  0  0  0  0999 V2000
   -3.6079   -4.5608    1.1715 H   0  0  0  0  0  0  0  0  0  0  0  0
   -3.6982   -3.4973    0.9342 C   0  0  0  0  0  0  0  0  0  0  0  0
   -4.3497   -3.0271    1.6753 H   0  0  0  0  0  0  0  0  0  0  0  0
   -4.1534   -3.3934   -0.0541 H   0  0  0  0  0  0  0  0  0  0  0  0
   -2.3340   -2.8359    0.9490 C   0  0  0  0  0  0  0  0  0  0  0  0
   -1.3152   -3.5088    1.1026 O   0  0  0  0  0  0  0  0  0  0  0  0
   -2.2239   -1.4708    0.7690 N   0  0  0  0  0  0  0  0  0  0  0  0
   -3.0892   -0.9267    0.7404 H   0  0  0  0  0  0  0  0  0  0  0  0
   -0.9763   -0.7151    0.9523 C   0  0  1  0  0  0  0  0  0  0  0  0
   -0.2525   -1.2943    1.5314 H   0  0  0  0  0  0  0  0  0  0  0  0
   -0.3496   -0.2968   -0.3953 C   0  0  0  0  0  0  0  0  0  0  0  0
   -1.0737    0.3380   -0.9192 H   0  0  0  0  0  0  0  0  0  0  0  0
    0.5419    0.3143   -0.2177 H   0  0  0  0  0  0  0  0  0  0  0  0
    0.0035   -1.4789   -1.3191 C   0  0  0  0  0  0  0  0  0  0  0  0
   -0.7430   -2.2773   -1.2741 H   0  0  0  0  0  0  0  0  0  0  0  0
   -0.0256   -1.0970   -2.3455 H   0  0  0  0  0  0  0  0  0  0  0  0
    1.4159   -2.0087   -1.0895 C   0  0  0  0  0  0  0  0  0  0  0  0
    1.7780   -2.5047   -1.9968 H   0  0  0  0  0  0  0  0  0  0  0  0
    2.0986   -1.1908   -0.8343 H   0  0  0  0  0  0  0  0  0  0  0  0
    1.2844   -2.9780    0.0111 N   0  3  0  0  0  0  0  0  0  0  0  0
    0.3751   -2.9948    0.4859 H   0  0  0  0  0  0  0  0  0  0  0  0
    2.0891   -3.9631    0.2562 C   0  0  0  0  0  0  0  0  0  0  0  0
    3.2940   -4.1119   -0.3903 N   0  0  0  0  0  0  0  0  0  0  0  0
    3.6365   -3.3256   -0.9385 H   0  0  0  0  0  0  0  0  0  0  0  0
    3.9765   -4.7593   -0.0014 H   0  0  0  0  0  0  0  0  0  0  0  0
    1.6908   -4.8836    1.1932 N   0  0  0  0  0  0  0  0  0  0  0  0
    0.7127   -4.8503    1.4893 H   0  0  0  0  0  0  0  0  0  0  0  0
    2.1602   -5.7861    1.2127 H   0  0  0  0  0  0  0  0  0  0  0  0
   -1.2866    0.5636    1.7614 C   0  0  0  0  0  0  0  0  0  0  0  0
   -2.3097    1.1892    1.5163 O   0  0  0  0  0  0  0  0  0  0  0  0
   -0.4781    0.9645    2.8098 N   0  0  0  0  0  0  0  0  0  0  0  0
    0.3388    0.4041    3.0319 H   0  0  0  0  0  0  0  0  0  0  0  0
   -0.7820    2.1223    3.6460 C   0  0  0  0  0  0  0  0  0  0  0  0
   -1.7391    1.9839    4.1605 H   0  0  0  0  0  0  0  0  0  0  0  0
   -0.0019    2.2625    4.4007 H   0  0  0  0  0  0  0  0  0  0  0  0
   -0.8396    3.0316    3.0379 H   0  0  0  0  0  0  0  0  0  0  0  0
  1  2  1  0  0  0  0
  2  3  1  0  0  0  0
  2  4  1  0  0  0  0
  2  5  1  0  0  0  0
  5  6  2  0  0  0  0
  5  7  1  0  0  0  0
  7  8  1  0  0  0  0
  7  9  1  0  0  0  0
  9 10  1  0  0  0  0
  9 11  1  0  0  0  0
  9 29  1  0  0  0  0
 11 12  1  0  0  0  0
 11 13  1  0  0  0  0
 11 14  1  0  0  0  0
 14 15  1  0  0  0  0
 14 16  1  0  0  0  0
 14 17  1  0  0  0  0
 17 18  1  0  0  0  0
 17 19  1  0  0  0  0
 17 20  1  0  0  0  0
 20 21  1  0  0  0  0
 20 22  2  0  0  0  0
 22 23  1  0  0  0  0
 22 26  1  0  0  0  0
 23 24  1  0  0  0  0
 23 25  1  0  0  0  0
 26 27  1  0  0  0  0
 26 28  1  0  0  0  0
 29 30  2  0  0  0  0
 29 31  1  0  0  0  0
 31 32  1  0  0  0  0
 31 33  1  0  0  0  0
 33 34  1  0  0  0  0
 33 35  1  0  0  0  0
 33 36  1  0  0  0  0
M  CHG  1  20   1
M  END
$$$$

  -OEChem-03222214013D

 36 35  0     1  0  0  0  0  0999 V2000
   -3.2138   -4.3772    2.5911 H   0  0  0  0  0  0  0  0  0  0  0  0
   -3.4182   -3.3889    2.1706 C   0  0  0  0  0  0  0  0  0  0  0  0
   -3.9852   -2.8073    2.9021 H   0  0  0  0  0  0  0  0  0  0  0  0
   -4.0221   -3.5076    1.2675 H   0  0  0  0  0  0  0  0  0  0  0  0
   -2.1211   -2.6770    1.8382 C   0  0  0  0  0  0  0  0  0  0  0  0
   -1.0433   -3.2331    2.0217 O   0  0  0  0  0  0  0  0  0  0  0  0
   -2.1518   -1.4198    1.2736 N   0  0  0  0  0  0  0  0  0  0  0  0
   -3.0667   -0.9705    1.1987 H   0  0  0  0  0  0  0  0  0  0  0  0
   -0.9877   -0.5297    1.1425 C   0  0  1  0  0  0  0  0  0  0  0  0
   -0.1888   -0.8577    1.8144 H   0  0  0  0  0  0  0  0  0  0  0  0
   -0.4587   -0.5103   -0.3062 C   0  0  0  0  0  0  0  0  0  0  0  0
   -1.2595   -0.1439   -0.9584 H   0  0  0  0  0  0  0  0  0  0  0  0
    0.3724    0.1991   -0.3851 H   0  0  0  0  0  0  0  0  0  0  0  0
   -0.0080   -1.8871   -0.8213 C   0  0  0  0  0  0  0  0  0  0  0  0
   -0.7674   -2.6481   -0.6215 H   0  0  0  0  0  0  0  0  0  0  0  0
    0.1078   -1.8272   -1.9085 H   0  0  0  0  0  0  0  0  0  0  0  0
    1.3330   -2.2808   -0.2034 C   0  0  0  0  0  0  0  0  0  0  0  0
    2.0801   -1.5171   -0.4470 H   0  0  0  0  0  0  0  0  0  0  0  0
    1.2398   -2.3142    0.8874 H   0  0  0  0  0  0  0  0  0  0  0  0
    1.7743   -3.5887   -0.7243 N   0  3  0  0  0  0  0  0  0  0  0  0
    2.1672   -3.5993   -1.6643 H   0  0  0  0  0  0  0  0  0  0  0  0
    1.7441   -4.6962   -0.0383 C   0  0  0  0  0  0  0  0  0  0  0  0
    1.2137   -4.7679    1.2281 N   0  0  0  0  0  0  0  0  0  0  0  0
    0.5674   -4.0214    1.5065 H   0  0  0  0  0  0  0  0  0  0  0  0
    1.0329   -5.6884    1.6189 H   0  0  0  0  0  0  0  0  0  0  0  0
    2.2649   -5.8429   -0.5891 N   0  0  0  0  0  0  0  0  0  0  0  0
    2.8291   -5.7665   -1.4329 H   0  0  0  0  0  0  0  0  0  0  0  0
    2.4304   -6.6389    0.0239 H   0  0  0  0  0  0  0  0  0  0  0  0
   -1.3830    0.9003    1.5683 C   0  0  0  0  0  0  0  0  0  0  0  0
   -2.4742    1.3400    1.2302 O   0  0  0  0  0  0  0  0  0  0  0  0
   -0.5673    1.6550    2.3918 N   0  0  0  0  0  0  0  0  0  0  0  0
    0.3077    1.2470    2.7071 H   0  0  0  0  0  0  0  0  0  0  0  0
   -0.9359    2.9827    2.8745 C   0  0  0  0  0  0  0  0  0  0  0  0
   -1.8371    2.9294    3.4948 H   0  0  0  0  0  0  0  0  0  0  0  0
   -0.1269    3.4068    3.4772 H   0  0  0  0  0  0  0  0  0  0  0  0
   -1.1283    3.6579    2.0337 H   0  0  0  0  0  0  0  0  0  0  0  0
  1  2  1  0  0  0  0
  2  3  1  0  0  0  0
  2  4  1  0  0  0  0
  2  5  1  0  0  0  0
  5  6  2  0  0  0  0
  5  7  1  0  0  0  0
  7  8  1  0  0  0  0
  7  9  1  0  0  0  0
  9 10  1  0  0  0  0
  9 11  1  0  0  0  0
  9 29  1  0  0  0  0
 11 12  1  0  0  0  0
 11 13  1  0  0  0  0
 11 14  1  0  0  0  0
 14 15  1  0  0  0  0
 14 16  1  0  0  0  0
 14 17  1  0  0  0  0
 17 18  1  0  0  0  0
 17 19  1  0  0  0  0
 17 20  1  0  0  0  0
 20 21  1  0  0  0  0
 20 22  2  0  0  0  0
 22 23  1  0  0  0  0
 22 26  1  0  0  0  0
 23 24  1  0  0  0  0
 23 25  1  0  0  0  0
 26 27  1  0  0  0  0
 26 28  1  0  0  0  0
 29 30  2  0  0  0  0
 29 31  1  0  0  0  0
 31 32  1  0  0  0  0
 31 33  1  0  0  0  0
 33 34  1  0  0  0  0
 33 35  1  0  0  0  0
 33 36  1  0  0  0  0
M  CHG  1  20   1
M  END
$$$$

  -OEChem-03222214013D

 36 35  0     1  0  0  0  0  0999 V2000
   -3.4426   -4.3169    2.5681 H   0  0  0  0  0  0  0  0  0  0  0  0
   -3.5891   -3.3311    2.1183 C   0  0  0  0  0  0  0  0  0  0  0  0
   -4.1988   -2.7248    2.7935 H   0  0  0  0  0  0  0  0  0  0  0  0
   -4.1214   -3.4504    1.1713 H   0  0  0  0  0  0  0  0  0  0  0  0
   -2.2530   -2.6547    1.8812 C   0  0  0  0  0  0  0  0  0  0  0  0
   -1.2122   -3.2271    2.1810 O   0  0  0  0  0  0  0  0  0  0  0  0
   -2.2136   -1.4098    1.2919 N   0  0  0  0  0  0  0  0  0  0  0  0
   -3.1141   -0.9545    1.1294 H   0  0  0  0  0  0  0  0  0  0  0  0
   -1.0340   -0.5348    1.1948 C   0  0  1  0  0  0  0  0  0  0  0  0
   -0.2661   -0.8555    1.9053 H   0  0  0  0  0  0  0  0  0  0  0  0
   -0.4636   -0.5516   -0.2399 C   0  0  0  0  0  0  0  0  0  0  0  0
   -1.2287   -0.1703   -0.9257 H   0  0  0  0  0  0  0  0  0  0  0  0
    0.3864    0.1376   -0.2900 H   0  0  0  0  0  0  0  0  0  0  0  0
   -0.0089   -1.9331   -0.7405 C   0  0  0  0  0  0  0  0  0  0  0  0
   -0.8650   -2.6155   -0.7612 H   0  0  0  0  0  0  0  0  0  0  0  0
    0.3573   -1.8330   -1.7677 H   0  0  0  0  0  0  0  0  0  0  0  0
    1.0960   -2.5173    0.1420 C   0  0  0  0  0  0  0  0  0  0  0  0
    1.9599   -1.8437    0.1277 H   0  0  0  0  0  0  0  0  0  0  0  0
    0.7484   -2.5820    1.1763 H   0  0  0  0  0  0  0  0  0  0  0  0
    1.4971   -3.8467   -0.3575 N   0  3  0  0  0  0  0  0  0  0  0  0
    1.8668   -3.8879   -1.3058 H   0  0  0  0  0  0  0  0  0  0  0  0
    1.4692   -4.9350    0.3588 C   0  0  0  0  0  0  0  0  0  0  0  0
    0.9729   -4.9631    1.6403 N   0  0  0  0  0  0  0  0  0  0  0  0
    0.3467   -4.1955    1.9065 H   0  0  0  0  0  0  0  0  0  0  0  0
    0.7776   -5.8698    2.0558 H   0  0  0  0  0  0  0  0  0  0  0  0
    1.9569   -6.1048   -0.1737 N   0  0  0  0  0  0  0  0  0  0  0  0
    2.4962   -6.0611   -1.0357 H   0  0  0  0  0  0  0  0  0  0  0  0
    2.1310   -6.8846    0.4574 H   0  0  0  0  0  0  0  0  0  0  0  0
   -1.4333    0.9086    1.5666 C   0  0  0  0  0  0  0  0  0  0  0  0
   -2.5003    1.3524    1.1623 O   0  0  0  0  0  0  0  0  0  0  0  0
   -0.6489    1.6743    2.4096 N   0  0  0  0  0  0  0  0  0  0  0  0
    0.2032    1.2636    2.7796 H   0  0  0  0  0  0  0  0  0  0  0  0
   -1.0185    3.0216    2.8330 C   0  0  0  0  0  0  0  0  0  0  0  0
   -1.9593    3.0041    3.3939 H   0  0  0  0  0  0  0  0  0  0  0  0
   -0.2406    3.4442    3.4767 H   0  0  0  0  0  0  0  0  0  0  0  0
   -1.1405    3.6777    1.9642 H   0  0  0  0  0  0  0  0  0  0  0  0
  1  2  1  0  0  0  0
  2  3  1  0  0  0  0
  2  4  1  0  0  0  0
  2  5  1  0  0  0  0
  5  6  2  0  0  0  0
  5  7  1  0  0  0  0
  7  8  1  0  0  0  0
  7  9  1  0  0  0  0
  9 10  1  0  0  0  0
  9 11  1  0  0  0  0
  9 29  1  0  0  0  0
 11 12  1  0  0  0  0
 11 13  1  0  0  0  0
 11 14  1  0  0  0  0
 14 15  1  0  0  0  0
 14 16  1  0  0  0  0
 14 17  1  0  0  0  0
 17 18  1  0  0  0  0
 17 19  1  0  0  0  0
 17 20  1  0  0  0  0
 20 21  1  0  0  0  0
 20 22  2  0  0  0  0
 22 23  1  0  0  0  0
 22 26  1  0  0  0  0
 23 24  1  0  0  0  0
 23 25  1  0  0  0  0
 26 27  1  0  0  0  0
 26 28  1  0  0  0  0
 29 30  2  0  0  0  0
 29 31  1  0  0  0  0
 31 32  1  0  0  0  0
 31 33  1  0  0  0  0
 33 34  1  0  0  0  0
 33 35  1  0  0  0  0
 33 36  1  0  0  0  0
M  CHG  1  20   1
M  END
$$$$

  -OEChem-03222214013D

 36 35  0     1  0  0  0  0  0999 V2000
   -3.7187   -4.2049    2.5591 H   0  0  0  0  0  0  0  0  0  0  0  0
   -3.7693   -3.2426    2.0421 C   0  0  0  0  0  0  0  0  0  0  0  0
   -4.4444   -2.5837    2.5945 H   0  0  0  0  0  0  0  0  0  0  0  0
   -4.1719   -3.4019    1.0387 H   0  0  0  0  0  0  0  0  0  0  0  0
   -2.3913   -2.6150    1.9572 C   0  0  0  0  0  0  0  0  0  0  0  0
   -1.4295   -3.1990    2.4367 O   0  0  0  0  0  0  0  0  0  0  0  0
   -2.2442   -1.3896    1.3436 N   0  0  0  0  0  0  0  0  0  0  0  0
   -3.1109   -0.9266    1.0626 H   0  0  0  0  0  0  0  0  0  0  0  0
   -1.0396   -0.5413    1.2798 C   0  0  1  0  0  0  0  0  0  0  0  0
   -0.3066   -0.8614    2.0267 H   0  0  0  0  0  0  0  0  0  0  0  0
   -0.4209   -0.5809   -0.1395 C   0  0  0  0  0  0  0  0  0  0  0  0
   -1.1459   -0.1682   -0.8506 H   0  0  0  0  0  0  0  0  0  0  0  0
    0.4461    0.0889   -0.1415 H   0  0  0  0  0  0  0  0  0  0  0  0
    0.0439   -1.9473   -0.6761 C   0  0  0  0  0  0  0  0  0  0  0  0
   -0.8468   -2.5207   -0.9550 H   0  0  0  0  0  0  0  0  0  0  0  0
    0.6392   -1.7973   -1.5830 H   0  0  0  0  0  0  0  0  0  0  0  0
    0.8449   -2.7543    0.3473 C   0  0  0  0  0  0  0  0  0  0  0  0
    1.8074   -2.2581    0.5129 H   0  0  0  0  0  0  0  0  0  0  0  0
    0.3231   -2.7689    1.3012 H   0  0  0  0  0  0  0  0  0  0  0  0
    1.0754   -4.1265   -0.1440 N   0  3  0  0  0  0  0  0  0  0  0  0
    1.3892   -4.2232   -1.1082 H   0  0  0  0  0  0  0  0  0  0  0  0
    0.9871   -5.1905    0.6032 C   0  0  0  0  0  0  0  0  0  0  0  0
    0.5787   -5.1396    1.9150 N   0  0  0  0  0  0  0  0  0  0  0  0
    0.0474   -4.3091    2.1982 H   0  0  0  0  0  0  0  0  0  0  0  0
    0.3280   -6.0128    2.3706 H   0  0  0  0  0  0  0  0  0  0  0  0
    1.3187   -6.4151    0.0740 N   0  0  0  0  0  0  0  0  0  0  0  0
    1.7963   -6.4470   -0.8242 H   0  0  0  0  0  0  0  0  0  0  0  0
    1.4516   -7.1965    0.7132 H   0  0  0  0  0  0  0  0  0  0  0  0
   -1.4343    0.9199    1.5851 C   0  0  0  0  0  0  0  0  0  0  0  0
   -2.4676    1.3692    1.1055 O   0  0  0  0  0  0  0  0  0  0  0  0
   -0.6824    1.7003    2.4443 N   0  0  0  0  0  0  0  0  0  0  0  0
    0.1394    1.2863    2.8745 H   0  0  0  0  0  0  0  0  0  0  0  0
   -1.0542    3.0634    2.8117 C   0  0  0  0  0  0  0  0  0  0  0  0
   -2.0261    3.0740    3.3168 H   0  0  0  0  0  0  0  0  0  0  0  0
   -0.3087    3.4913    3.4892 H   0  0  0  0  0  0  0  0  0  0  0  0
   -1.1149    3.6987    1.9215 H   0  0  0  0  0  0  0  0  0  0  0  0
  1  2  1  0  0  0  0
  2  3  1  0  0  0  0
  2  4  1  0  0  0  0
  2  5  1  0  0  0  0
  5  6  2  0  0  0  0
  5  7  1  0  0  0  0
  7  8  1  0  0  0  0
  7  9  1  0  0  0  0
  9 10  1  0  0  0  0
  9 11  1  0  0  0  0
  9 29  1  0  0  0  0
 11 12  1  0  0  0  0
 11 13  1  0  0  0  0
 11 14  1  0  0  0  0
 14 15  1  0  0  0  0
 14 16  1  0  0  0  0
 14 17  1  0  0  0  0
 17 18  1  0  0  0  0
 17 19  1  0  0  0  0
 17 20  1  0  0  0  0
 20 21  1  0  0  0  0
 20 22  2  0  0  0  0
 22 23  1  0  0  0  0
 22 26  1  0  0  0  0
 23 24  1  0  0  0  0
 23 25  1  0  0  0  0
 26 27  1  0  0  0  0
 26 28  1  0  0  0  0
 29 30  2  0  0  0  0
 29 31  1  0  0  0  0
 31 32  1  0  0  0  0
 31 33  1  0  0  0  0
 33 34  1  0  0  0  0
 33 35  1  0  0  0  0
 33 36  1  0  0  0  0
M  CHG  1  20   1
M  END
$$$$

  -OEChem-03222214013D

 36 35  0     1  0  0  0  0  0999 V2000
   -4.0311   -4.0535    2.5828 H   0  0  0  0  0  0  0  0  0  0  0  0
   -3.9820   -3.1103    2.0317 C   0  0  0  0  0  0  0  0  0  0  0  0
   -4.6695   -2.3984    2.4963 H   0  0  0  0  0  0  0  0  0  0  0  0
   -4.2981   -3.2858    1.0003 H   0  0  0  0  0  0  0  0  0  0  0  0
   -2.5711   -2.5549    2.0574 C   0  0  0  0  0  0  0  0  0  0  0  0
   -1.7046   -3.1503    2.6835 O   0  0  0  0  0  0  0  0  0  0  0  0
   -2.3138   -1.3652    1.4070 N   0  0  0  0  0  0  0  0  0  0  0  0
   -3.1364   -0.8915    1.0280 H   0  0  0  0  0  0  0  0  0  0  0  0
   -1.0756   -0.5599    1.3632 C   0  0  1  0  0  0  0  0  0  0  0  0
   -0.3886   -0.8763    2.1544 H   0  0  0  0  0  0  0  0  0  0  0  0
   -0.3780   -0.6337   -0.0264 C   0  0  0  0  0  0  0  0  0  0  0  0
   -1.0473   -0.1929   -0.7744 H   0  0  0  0  0  0  0  0  0  0  0  0
    0.5021    0.0164    0.0302 H   0  0  0  0  0  0  0  0  0  0  0  0
    0.1067   -1.9886   -0.5835 C   0  0  0  0  0  0  0  0  0  0  0  0
   -0.7263   -2.4286   -1.1425 H   0  0  0  0  0  0  0  0  0  0  0  0
    0.9281   -1.8247   -1.2890 H   0  0  0  0  0  0  0  0  0  0  0  0
    0.5268   -2.9810    0.4932 C   0  0  0  0  0  0  0  0  0  0  0  0
    1.4746   -2.6488    0.9310 H   0  0  0  0  0  0  0  0  0  0  0  0
   -0.2134   -2.9766    1.2784 H   0  0  0  0  0  0  0  0  0  0  0  0
    0.6792   -4.3432   -0.0474 N   0  3  0  0  0  0  0  0  0  0  0  0
    1.0348   -4.4301   -0.9980 H   0  0  0  0  0  0  0  0  0  0  0  0
    0.4652   -5.4171    0.6594 C   0  0  0  0  0  0  0  0  0  0  0  0
   -0.0049   -5.3657    1.9523 N   0  0  0  0  0  0  0  0  0  0  0  0
   -0.4175   -4.4826    2.2724 H   0  0  0  0  0  0  0  0  0  0  0  0
   -0.3622   -6.2197    2.3724 H   0  0  0  0  0  0  0  0  0  0  0  0
    0.7207   -6.6504    0.1088 N   0  0  0  0  0  0  0  0  0  0  0  0
    1.2511   -6.6957   -0.7588 H   0  0  0  0  0  0  0  0  0  0  0  0
    0.7575   -7.4558    0.7310 H   0  0  0  0  0  0  0  0  0  0  0  0
   -1.4456    0.9238    1.5829 C   0  0  0  0  0  0  0  0  0  0  0  0
   -2.4393    1.3785    1.0293 O   0  0  0  0  0  0  0  0  0  0  0  0
   -0.7144    1.7220    2.4435 N   0  0  0  0  0  0  0  0  0  0  0  0
    0.0649    1.3022    2.9421 H   0  0  0  0  0  0  0  0  0  0  0  0
   -1.0638    3.1093    2.7330 C   0  0  0  0  0  0  0  0  0  0  0  0
   -2.0500    3.1663    3.2063 H   0  0  0  0  0  0  0  0  0  0  0  0
   -0.3287    3.5527    3.4120 H   0  0  0  0  0  0  0  0  0  0  0  0
   -1.0815    3.7021    1.8120 H   0  0  0  0  0  0  0  0  0  0  0  0
  1  2  1  0  0  0  0
  2  3  1  0  0  0  0
  2  4  1  0  0  0  0
  2  5  1  0  0  0  0
  5  6  2  0  0  0  0
  5  7  1  0  0  0  0
  7  8  1  0  0  0  0
  7  9  1  0  0  0  0
  9 10  1  0  0  0  0
  9 11  1  0  0  0  0
  9 29  1  0  0  0  0
 11 12  1  0  0  0  0
 11 13  1  0  0  0  0
 11 14  1  0  0  0  0
 14 15  1  0  0  0  0
 14 16  1  0  0  0  0
 14 17  1  0  0  0  0
 17 18  1  0  0  0  0
 17 19  1  0  0  0  0
 17 20  1  0  0  0  0
 20 21  1  0  0  0  0
 20 22  2  0  0  0  0
 22 23  1  0  0  0  0
 22 26  1  0  0  0  0
 23 24  1  0  0  0  0
 23 25  1  0  0  0  0
 26 27  1  0  0  0  0
 26 28  1  0  0  0  0
 29 30  2  0  0  0  0
 29 31  1  0  0  0  0
 31 32  1  0  0  0  0
 31 33  1  0  0  0  0
 33 34  1  0  0  0  0
 33 35  1  0  0  0  0
 33 36  1  0  0  0  0
M  CHG  1  20   1
M  END
$$$$

  -OEChem-03222214013D

 36 35  0     1  0  0  0  0  0999 V2000
   -4.5682   -3.6952    2.5701 H   0  0  0  0  0  0  0  0  0  0  0  0
   -4.4238   -2.7621    2.0187 C   0  0  0  0  0  0  0  0  0  0  0  0
   -4.9932   -1.9718    2.5148 H   0  0  0  0  0  0  0  0  0  0  0  0
   -4.8054   -2.8893    1.0027 H   0  0  0  0  0  0  0  0  0  0  0  0
   -2.9538   -2.3917    1.9807 C   0  0  0  0  0  0  0  0  0  0  0  0
   -2.1316   -3.1196    2.5283 O   0  0  0  0  0  0  0  0  0  0  0  0
   -2.5703   -1.2261    1.3446 N   0  0  0  0  0  0  0  0  0  0  0  0
   -3.3289   -0.6247    1.0157 H   0  0  0  0  0  0  0  0  0  0  0  0
   -1.2303   -0.6070    1.3288 C   0  0  1  0  0  0  0  0  0  0  0  0
   -0.6123   -1.0285    2.1277 H   0  0  0  0  0  0  0  0  0  0  0  0
   -0.4850   -0.7186   -0.0366 C   0  0  0  0  0  0  0  0  0  0  0  0
   -1.0618   -0.1654   -0.7870 H   0  0  0  0  0  0  0  0  0  0  0  0
    0.4674   -0.1893    0.0776 H   0  0  0  0  0  0  0  0  0  0  0  0
   -0.1615   -2.1051   -0.6404 C   0  0  0  0  0  0  0  0  0  0  0  0
   -0.8374   -2.2991   -1.4805 H   0  0  0  0  0  0  0  0  0  0  0  0
    0.8587   -2.0805   -1.0380 H   0  0  0  0  0  0  0  0  0  0  0  0
   -0.2990   -3.2367    0.3586 C   0  0  0  0  0  0  0  0  0  0  0  0
    0.0925   -2.9045    1.3261 H   0  0  0  0  0  0  0  0  0  0  0  0
   -1.3659   -3.4459    0.4633 H   0  0  0  0  0  0  0  0  0  0  0  0
    0.3783   -4.4825   -0.0253 N   0  3  0  0  0  0  0  0  0  0  0  0
    1.0239   -4.4586   -0.8130 H   0  0  0  0  0  0  0  0  0  0  0  0
    0.2335   -5.5664    0.6827 C   0  0  0  0  0  0  0  0  0  0  0  0
   -0.6041   -5.6031    1.7782 N   0  0  0  0  0  0  0  0  0  0  0  0
   -1.0330   -4.7244    2.0904 H   0  0  0  0  0  0  0  0  0  0  0  0
   -0.4932   -6.3477    2.4616 H   0  0  0  0  0  0  0  0  0  0  0  0
    0.9288   -6.7025    0.3450 N   0  0  0  0  0  0  0  0  0  0  0  0
    1.3988   -6.7372   -0.5572 H   0  0  0  0  0  0  0  0  0  0  0  0
    0.6483   -7.5833    0.7721 H   0  0  0  0  0  0  0  0  0  0  0  0
   -1.4046    0.9068    1.5879 C   0  0  0  0  0  0  0  0  0  0  0  0
   -2.3278    1.5039    1.0476 O   0  0  0  0  0  0  0  0  0  0  0  0
   -0.5835    1.5776    2.4759 N   0  0  0  0  0  0  0  0  0  0  0  0
    0.1352    1.0470    2.9596 H   0  0  0  0  0  0  0  0  0  0  0  0
   -0.7570    2.9880    2.8105 C   0  0  0  0  0  0  0  0  0  0  0  0
   -1.7394    3.1576    3.2643 H   0  0  0  0  0  0  0  0  0  0  0  0
    0.0109    3.3071    3.5221 H   0  0  0  0  0  0  0  0  0  0  0  0
   -0.6732    3.6092    1.9123 H   0  0  0  0  0  0  0  0  0  0  0  0
  1  2  1  0  0  0  0
  2  3  1  0  0  0  0
  2  4  1  0  0  0  0
  2  5  1  0  0  0  0
  5  6  2  0  0  0  0
  5  7  1  0  0  0  0
  7  8  1  0  0  0  0
  7  9  1  0  0  0  0
  9 10  1  0  0  0  0
  9 11  1  0  0  0  0
  9 29  1  0  0  0  0
 11 12  1  0  0  0  0
 11 13  1  0  0  0  0
 11 14  1  0  0  0  0
 14 15  1  0  0  0  0
 14 16  1  0  0  0  0
 14 17  1  0  0  0  0
 17 18  1  0  0  0  0
 17 19  1  0  0  0  0
 17 20  1  0  0  0  0
 20 21  1  0  0  0  0
 20 22  2  0  0  0  0
 22 23  1  0  0  0  0
 22 26  1  0  0  0  0
 23 24  1  0  0  0  0
 23 25  1  0  0  0  0
 26 27  1  0  0  0  0
 26 28  1  0  0  0  0
 29 30  2  0  0  0  0
 29 31  1  0  0  0  0
 31 32  1  0  0  0  0
 31 33  1  0  0  0  0
 33 34  1  0  0  0  0
 33 35  1  0  0  0  0
 33 36  1  0  0  0  0
M  CHG  1  20   1
M  END
$$$$

  -OEChem-03222214013D

 36 35  0     1  0  0  0  0  0999 V2000
   -4.8189   -3.5266    2.4958 H   0  0  0  0  0  0  0  0  0  0  0  0
   -4.6047   -2.5990    1.9579 C   0  0  0  0  0  0  0  0  0  0  0  0
   -5.1230   -1.7771    2.4589 H   0  0  0  0  0  0  0  0  0  0  0  0
   -4.9835   -2.6865    0.9366 H   0  0  0  0  0  0  0  0  0  0  0  0
   -3.1124   -2.3303    1.9387 C   0  0  0  0  0  0  0  0  0  0  0  0
   -2.3487   -3.1234    2.4778 O   0  0  0  0  0  0  0  0  0  0  0  0
   -2.6471   -1.1862    1.3190 N   0  0  0  0  0  0  0  0  0  0  0  0
   -3.3668   -0.5398    0.9881 H   0  0  0  0  0  0  0  0  0  0  0  0
   -1.2801   -0.6253    1.3403 C   0  0  1  0  0  0  0  0  0  0  0  0
   -0.7083   -1.0749    2.1585 H   0  0  0  0  0  0  0  0  0  0  0  0
   -0.4787   -0.7593    0.0068 C   0  0  0  0  0  0  0  0  0  0  0  0
   -1.0243   -0.1920   -0.7565 H   0  0  0  0  0  0  0  0  0  0  0  0
    0.4786   -0.2452    0.1497 H   0  0  0  0  0  0  0  0  0  0  0  0
   -0.1646   -2.1436   -0.6122 C   0  0  0  0  0  0  0  0  0  0  0  0
   -0.5780   -2.1860   -1.6256 H   0  0  0  0  0  0  0  0  0  0  0  0
    0.9232   -2.2408   -0.6975 H   0  0  0  0  0  0  0  0  0  0  0  0
   -0.6977   -3.3121    0.1876 C   0  0  0  0  0  0  0  0  0  0  0  0
   -0.4241   -3.1515    1.2354 H   0  0  0  0  0  0  0  0  0  0  0  0
   -1.7886   -3.3177    0.1058 H   0  0  0  0  0  0  0  0  0  0  0  0
   -0.1758   -4.6184   -0.2397 N   0  3  0  0  0  0  0  0  0  0  0  0
    0.2239   -4.6932   -1.1739 H   0  0  0  0  0  0  0  0  0  0  0  0
   -0.2959   -5.6746    0.5135 C   0  0  0  0  0  0  0  0  0  0  0  0
   -0.8830   -5.6091    1.7595 N   0  0  0  0  0  0  0  0  0  0  0  0
   -1.3467   -4.7342    2.0307 H   0  0  0  0  0  0  0  0  0  0  0  0
   -1.1929   -6.4677    2.2068 H   0  0  0  0  0  0  0  0  0  0  0  0
    0.1651   -6.8891    0.0646 N   0  0  0  0  0  0  0  0  0  0  0  0
    0.7651   -6.9094   -0.7573 H   0  0  0  0  0  0  0  0  0  0  0  0
    0.2495   -7.6498    0.7361 H   0  0  0  0  0  0  0  0  0  0  0  0
   -1.4061    0.8939    1.5948 C   0  0  0  0  0  0  0  0  0  0  0  0
   -2.2963    1.5215    1.0336 O   0  0  0  0  0  0  0  0  0  0  0  0
   -0.5876    1.5357    2.5057 N   0  0  0  0  0  0  0  0  0  0  0  0
    0.1016    0.9814    3.0056 H   0  0  0  0  0  0  0  0  0  0  0  0
   -0.7232    2.9507    2.8377 C   0  0  0  0  0  0  0  0  0  0  0  0
   -1.6987    3.1460    3.2961 H   0  0  0  0  0  0  0  0  0  0  0  0
    0.0571    3.2512    3.5438 H   0  0  0  0  0  0  0  0  0  0  0  0
   -0.6289    3.5682    1.9378 H   0  0  0  0  0  0  0  0  0  0  0  0
  1  2  1  0  0  0  0
  2  3  1  0  0  0  0
  2  4  1  0  0  0  0
  2  5  1  0  0  0  0
  5  6  2  0  0  0  0
  5  7  1  0  0  0  0
  7  8  1  0  0  0  0
  7  9  1  0  0  0  0
  9 10  1  0  0  0  0
  9 11  1  0  0  0  0
  9 29  1  0  0  0  0
 11 12  1  0  0  0  0
 11 13  1  0  0  0  0
 11 14  1  0  0  0  0
 14 15  1  0  0  0  0
 14 16  1  0  0  0  0
 14 17  1  0  0  0  0
 17 18  1  0  0  0  0
 17 19  1  0  0  0  0
 17 20  1  0  0  0  0
 20 21  1  0  0  0  0
 20 22  2  0  0  0  0
 22 23  1  0  0  0  0
 22 26  1  0  0  0  0
 23 24  1  0  0  0  0
 23 25  1  0  0  0  0
 26 27  1  0  0  0  0
 26 28  1  0  0  0  0
 29 30  2  0  0  0  0
 29 31  1  0  0  0  0
 31 32  1  0  0  0  0
 31 33  1  0  0  0  0
 33 34  1  0  0  0  0
 33 35  1  0  0  0  0
 33 36  1  0  0  0  0
M  CHG  1  20   1
M  END
$$$$

  -OEChem-03222214013D

 36 35  0     1  0  0  0  0  0999 V2000
   -4.9356   -3.4303    2.5035 H   0  0  0  0  0  0  0  0  0  0  0  0
   -4.6892   -2.5263    1.9396 C   0  0  0  0  0  0  0  0  0  0  0  0
   -5.1964   -1.6764    2.4038 H   0  0  0  0  0  0  0  0  0  0  0  0
   -5.0511   -2.6382    0.9147 H   0  0  0  0  0  0  0  0  0  0  0  0
   -3.1907   -2.2938    1.9402 C   0  0  0  0  0  0  0  0  0  0  0  0
   -2.4556   -3.1079    2.4855 O   0  0  0  0  0  0  0  0  0  0  0  0
   -2.6897   -1.1651    1.3201 N   0  0  0  0  0  0  0  0  0  0  0  0
   -3.3917   -0.5032    0.9818 H   0  0  0  0  0  0  0  0  0  0  0  0
   -1.3121   -0.6285    1.3548 C   0  0  1  0  0  0  0  0  0  0  0  0
   -0.7627   -1.0816    2.1864 H   0  0  0  0  0  0  0  0  0  0  0  0
   -0.4819   -0.7853    0.0399 C   0  0  0  0  0  0  0  0  0  0  0  0
   -1.0231   -0.2285   -0.7341 H   0  0  0  0  0  0  0  0  0  0  0  0
    0.4738   -0.2686    0.1824 H   0  0  0  0  0  0  0  0  0  0  0  0
   -0.1663   -2.1723   -0.5711 C   0  0  0  0  0  0  0  0  0  0  0  0
   -0.2900   -2.1195   -1.6581 H   0  0  0  0  0  0  0  0  0  0  0  0
    0.8870   -2.3970   -0.3717 H   0  0  0  0  0  0  0  0  0  0  0  0
   -0.9990   -3.3071   -0.0209 C   0  0  0  0  0  0  0  0  0  0  0  0
   -0.8668   -3.2893    1.0620 H   0  0  0  0  0  0  0  0  0  0  0  0
   -2.0534   -3.1321   -0.2593 H   0  0  0  0  0  0  0  0  0  0  0  0
   -0.5838   -4.6291   -0.5124 N   0  3  0  0  0  0  0  0  0  0  0  0
   -0.0727   -4.6727   -1.3927 H   0  0  0  0  0  0  0  0  0  0  0  0
   -0.8386   -5.7184    0.1553 C   0  0  0  0  0  0  0  0  0  0  0  0
   -1.5233   -5.6941    1.3521 N   0  0  0  0  0  0  0  0  0  0  0  0
   -1.7328   -4.7826    1.7746 H   0  0  0  0  0  0  0  0  0  0  0  0
   -1.4677   -6.5002    1.9694 H   0  0  0  0  0  0  0  0  0  0  0  0
   -0.4168   -6.9307   -0.3360 N   0  0  0  0  0  0  0  0  0  0  0  0
   -0.0851   -6.9792   -1.2971 H   0  0  0  0  0  0  0  0  0  0  0  0
   -0.7987   -7.7779    0.0806 H   0  0  0  0  0  0  0  0  0  0  0  0
   -1.4157    0.8951    1.5947 C   0  0  0  0  0  0  0  0  0  0  0  0
   -2.2891    1.5313    1.0170 O   0  0  0  0  0  0  0  0  0  0  0  0
   -0.5989    1.5319    2.5110 N   0  0  0  0  0  0  0  0  0  0  0  0
    0.0737    0.9703    3.0254 H   0  0  0  0  0  0  0  0  0  0  0  0
   -0.7173    2.9512    2.8317 C   0  0  0  0  0  0  0  0  0  0  0  0
   -1.6934    3.1628    3.2815 H   0  0  0  0  0  0  0  0  0  0  0  0
    0.0615    3.2468    3.5416 H   0  0  0  0  0  0  0  0  0  0  0  0
   -0.6076    3.5610    1.9282 H   0  0  0  0  0  0  0  0  0  0  0  0
  1  2  1  0  0  0  0
  2  3  1  0  0  0  0
  2  4  1  0  0  0  0
  2  5  1  0  0  0  0
  5  6  2  0  0  0  0
  5  7  1  0  0  0  0
  7  8  1  0  0  0  0
  7  9  1  0  0  0  0
  9 10  1  0  0  0  0
  9 11  1  0  0  0  0
  9 29  1  0  0  0  0
 11 12  1  0  0  0  0
 11 13  1  0  0  0  0
 11 14  1  0  0  0  0
 14 15  1  0  0  0  0
 14 16  1  0  0  0  0
 14 17  1  0  0  0  0
 17 18  1  0  0  0  0
 17 19  1  0  0  0  0
 17 20  1  0  0  0  0
 20 21  1  0  0  0  0
 20 22  2  0  0  0  0
 22 23  1  0  0  0  0
 22 26  1  0  0  0  0
 23 24  1  0  0  0  0
 23 25  1  0  0  0  0
 26 27  1  0  0  0  0
 26 28  1  0  0  0  0
 29 30  2  0  0  0  0
 29 31  1  0  0  0  0
 31 32  1  0  0  0  0
 31 33  1  0  0  0  0
 33 34  1  0  0  0  0
 33 35  1  0  0  0  0
 33 36  1  0  0  0  0
M  CHG  1  20   1
M  END
$$$$

  -OEChem-03222214013D

 36 35  0     1  0  0  0  0  0999 V2000
   -5.3382   -3.2281    2.0959 H   0  0  0  0  0  0  0  0  0  0  0  0
   -4.9943   -2.3070    1.6172 C   0  0  0  0  0  0  0  0  0  0  0  0
   -5.4576   -1.4563    2.1241 H   0  0  0  0  0  0  0  0  0  0  0  0
   -5.3114   -2.3119    0.5716 H   0  0  0  0  0  0  0  0  0  0  0  0
   -3.4843   -2.1986    1.7036 C   0  0  0  0  0  0  0  0  0  0  0  0
   -2.8411   -3.0904    2.2460 O   0  0  0  0  0  0  0  0  0  0  0  0
   -2.8549   -1.0890    1.1721 N   0  0  0  0  0  0  0  0  0  0  0  0
   -3.4705   -0.3407    0.8454 H   0  0  0  0  0  0  0  0  0  0  0  0
   -1.4348   -0.7069    1.3149 C   0  0  1  0  0  0  0  0  0  0  0  0
   -0.9878   -1.2609    2.1467 H   0  0  0  0  0  0  0  0  0  0  0  0
   -0.5268   -0.8587    0.0518 C   0  0  0  0  0  0  0  0  0  0  0  0
   -0.9583   -0.2026   -0.7131 H   0  0  0  0  0  0  0  0  0  0  0  0
    0.4614   -0.4507    0.2926 H   0  0  0  0  0  0  0  0  0  0  0  0
   -0.2998   -2.2207   -0.6448 C   0  0  0  0  0  0  0  0  0  0  0  0
   -0.0465   -2.0486   -1.6966 H   0  0  0  0  0  0  0  0  0  0  0  0
    0.5729   -2.6825   -0.1709 H   0  0  0  0  0  0  0  0  0  0  0  0
   -1.4464   -3.2080   -0.5548 C   0  0  0  0  0  0  0  0  0  0  0  0
   -2.2860   -2.8594   -1.1660 H   0  0  0  0  0  0  0  0  0  0  0  0
   -1.7641   -3.2384    0.4754 H   0  0  0  0  0  0  0  0  0  0  0  0
   -1.0370   -4.5648   -0.9569 N   0  3  0  0  0  0  0  0  0  0  0  0
   -0.7684   -4.7032   -1.9302 H   0  0  0  0  0  0  0  0  0  0  0  0
   -1.0681   -5.5839   -0.1432 C   0  0  0  0  0  0  0  0  0  0  0  0
   -1.4561   -5.4694    1.1753 N   0  0  0  0  0  0  0  0  0  0  0  0
   -1.8693   -4.5854    1.4921 H   0  0  0  0  0  0  0  0  0  0  0  0
   -1.6933   -6.3106    1.6949 H   0  0  0  0  0  0  0  0  0  0  0  0
   -0.6996   -6.8250   -0.6046 N   0  0  0  0  0  0  0  0  0  0  0  0
   -0.2356   -6.8937   -1.5079 H   0  0  0  0  0  0  0  0  0  0  0  0
   -0.5309   -7.5625    0.0770 H   0  0  0  0  0  0  0  0  0  0  0  0
   -1.4013    0.8030    1.6448 C   0  0  0  0  0  0  0  0  0  0  0  0
   -2.1683    1.5605    1.0620 O   0  0  0  0  0  0  0  0  0  0  0  0
   -0.5818    1.2952    2.6439 N   0  0  0  0  0  0  0  0  0  0  0  0
   -0.0018    0.6368    3.1564 H   0  0  0  0  0  0  0  0  0  0  0  0
   -0.5751    2.6974    3.0497 C   0  0  0  0  0  0  0  0  0  0  0  0
   -1.5587    2.9918    3.4313 H   0  0  0  0  0  0  0  0  0  0  0  0
    0.1643    2.8601    3.8400 H   0  0  0  0  0  0  0  0  0  0  0  0
   -0.3198    3.3422    2.2018 H   0  0  0  0  0  0  0  0  0  0  0  0
  1  2  1  0  0  0  0
  2  3  1  0  0  0  0
  2  4  1  0  0  0  0
  2  5  1  0  0  0  0
  5  6  2  0  0  0  0
  5  7  1  0  0  0  0
  7  8  1  0  0  0  0
  7  9  1  0  0  0  0
  9 10  1  0  0  0  0
  9 11  1  0  0  0  0
  9 29  1  0  0  0  0
 11 12  1  0  0  0  0
 11 13  1  0  0  0  0
 11 14  1  0  0  0  0
 14 15  1  0  0  0  0
 14 16  1  0  0  0  0
 14 17  1  0  0  0  0
 17 18  1  0  0  0  0
 17 19  1  0  0  0  0
 17 20  1  0  0  0  0
 20 21  1  0  0  0  0
 20 22  2  0  0  0  0
 22 23  1  0  0  0  0
 22 26  1  0  0  0  0
 23 24  1  0  0  0  0
 23 25  1  0  0  0  0
 26 27  1  0  0  0  0
 26 28  1  0  0  0  0
 29 30  2  0  0  0  0
 29 31  1  0  0  0  0
 31 32  1  0  0  0  0
 31 33  1  0  0  0  0
 33 34  1  0  0  0  0
 33 35  1  0  0  0  0
 33 36  1  0  0  0  0
M  CHG  1  20   1
M  END
$$$$

  -OEChem-03222214013D

 36 35  0     1  0  0  0  0  0999 V2000
   -5.2074   -3.2899    2.3148 H   0  0  0  0  0  0  0  0  0  0  0  0
   -4.9348   -2.3348    1.8575 C   0  0  0  0  0  0  0  0  0  0  0  0
   -5.3269   -1.5253    2.4791 H   0  0  0  0  0  0  0  0  0  0  0  0
   -5.3912   -2.2743    0.8664 H   0  0  0  0  0  0  0  0  0  0  0  0
   -3.4275   -2.2154    1.7457 C   0  0  0  0  0  0  0  0  0  0  0  0
   -2.7094   -3.1413    2.1061 O   0  0  0  0  0  0  0  0  0  0  0  0
   -2.8689   -1.0772    1.2007 N   0  0  0  0  0  0  0  0  0  0  0  0
   -3.5116   -0.3070    1.0023 H   0  0  0  0  0  0  0  0  0  0  0  0
   -1.4438   -0.7059    1.2639 C   0  0  1  0  0  0  0  0  0  0  0  0
   -0.9468   -1.2858    2.0489 H   0  0  0  0  0  0  0  0  0  0  0  0
   -0.6209   -0.8332   -0.0513 C   0  0  0  0  0  0  0  0  0  0  0  0
   -1.0815   -0.1519   -0.7762 H   0  0  0  0  0  0  0  0  0  0  0  0
    0.3875   -0.4517    0.1445 H   0  0  0  0  0  0  0  0  0  0  0  0
   -0.4631   -2.1891   -0.7739 C   0  0  0  0  0  0  0  0  0  0  0  0
   -0.0233   -2.0075   -1.7604 H   0  0  0  0  0  0  0  0  0  0  0  0
    0.2594   -2.7768   -0.1977 H   0  0  0  0  0  0  0  0  0  0  0  0
   -1.7226   -3.0327   -0.9398 C   0  0  0  0  0  0  0  0  0  0  0  0
   -2.2366   -3.1279    0.0064 H   0  0  0  0  0  0  0  0  0  0  0  0
   -2.4037   -2.5316   -1.6364 H   0  0  0  0  0  0  0  0  0  0  0  0
   -1.3740   -4.3744   -1.4427 N   0  3  0  0  0  0  0  0  0  0  0  0
   -1.0495   -4.4363   -2.4066 H   0  0  0  0  0  0  0  0  0  0  0  0
   -1.4476   -5.4592   -0.7229 C   0  0  0  0  0  0  0  0  0  0  0  0
   -1.8608   -5.4545    0.5910 N   0  0  0  0  0  0  0  0  0  0  0  0
   -2.0152   -4.5563    1.0617 H   0  0  0  0  0  0  0  0  0  0  0  0
   -1.6889   -6.2709    1.1722 H   0  0  0  0  0  0  0  0  0  0  0  0
   -1.0984   -6.6636   -1.2859 N   0  0  0  0  0  0  0  0  0  0  0  0
   -0.9791   -6.7148   -2.2955 H   0  0  0  0  0  0  0  0  0  0  0  0
   -1.3519   -7.5173   -0.7919 H   0  0  0  0  0  0  0  0  0  0  0  0
   -1.3773    0.7909    1.6446 C   0  0  0  0  0  0  0  0  0  0  0  0
   -2.1773    1.5716    1.1427 O   0  0  0  0  0  0  0  0  0  0  0  0
   -0.4908    1.2436    2.6043 N   0  0  0  0  0  0  0  0  0  0  0  0
    0.1245    0.5665    3.0466 H   0  0  0  0  0  0  0  0  0  0  0  0
   -0.4368    2.6339    3.0460 C   0  0  0  0  0  0  0  0  0  0  0  0
   -1.3900    2.9318    3.4958 H   0  0  0  0  0  0  0  0  0  0  0  0
    0.3528    2.7652    3.7925 H   0  0  0  0  0  0  0  0  0  0  0  0
   -0.2247    3.2972    2.2005 H   0  0  0  0  0  0  0  0  0  0  0  0
  1  2  1  0  0  0  0
  2  3  1  0  0  0  0
  2  4  1  0  0  0  0
  2  5  1  0  0  0  0
  5  6  2  0  0  0  0
  5  7  1  0  0  0  0
  7  8  1  0  0  0  0
  7  9  1  0  0  0  0
  9 10  1  0  0  0  0
  9 11  1  0  0  0  0
  9 29  1  0  0  0  0
 11 12  1  0  0  0  0
 11 13  1  0  0  0  0
 11 14  1  0  0  0  0
 14 15  1  0  0  0  0
 14 16  1  0  0  0  0
 14 17  1  0  0  0  0
 17 18  1  0  0  0  0
 17 19  1  0  0  0  0
 17 20  1  0  0  0  0
 20 21  1  0  0  0  0
 20 22  2  0  0  0  0
 22 23  1  0  0  0  0
 22 26  1  0  0  0  0
 23 24  1  0  0  0  0
 23 25  1  0  0  0  0
 26 27  1  0  0  0  0
 26 28  1  0  0  0  0
 29 30  2  0  0  0  0
 29 31  1  0  0  0  0
 31 32  1  0  0  0  0
 31 33  1  0  0  0  0
 33 34  1  0  0  0  0
 33 35  1  0  0  0  0
 33 36  1  0  0  0  0
M  CHG  1  20   1
M  END
$$$$

  -OEChem-03222214013D

 36 35  0     1  0  0  0  0  0999 V2000
   -5.1793   -3.3448    2.1245 H   0  0  0  0  0  0  0  0  0  0  0  0
   -4.9197   -2.3537    1.7418 C   0  0  0  0  0  0  0  0  0  0  0  0
   -5.2768   -1.6011    2.4499 H   0  0  0  0  0  0  0  0  0  0  0  0
   -5.4197   -2.2028    0.7819 H   0  0  0  0  0  0  0  0  0  0  0  0
   -3.4178   -2.2310    1.5727 C   0  0  0  0  0  0  0  0  0  0  0  0
   -2.6905   -3.1892    1.8058 O   0  0  0  0  0  0  0  0  0  0  0  0
   -2.8722   -1.0644    1.0797 N   0  0  0  0  0  0  0  0  0  0  0  0
   -3.5169   -0.2804    0.9552 H   0  0  0  0  0  0  0  0  0  0  0  0
   -1.4509   -0.6934    1.1884 C   0  0  1  0  0  0  0  0  0  0  0  0
   -0.9763   -1.2997    1.9671 H   0  0  0  0  0  0  0  0  0  0  0  0
   -0.6104   -0.8148   -0.1096 C   0  0  0  0  0  0  0  0  0  0  0  0
   -1.0328   -0.1216   -0.8460 H   0  0  0  0  0  0  0  0  0  0  0  0
    0.4032   -0.4640    0.1141 H   0  0  0  0  0  0  0  0  0  0  0  0
   -0.4801   -2.1899   -0.7937 C   0  0  0  0  0  0  0  0  0  0  0  0
    0.1794   -2.0779   -1.6609 H   0  0  0  0  0  0  0  0  0  0  0  0
    0.0120   -2.8713   -0.0917 H   0  0  0  0  0  0  0  0  0  0  0  0
   -1.7922   -2.8247   -1.2550 C   0  0  0  0  0  0  0  0  0  0  0  0
   -2.4806   -2.9482   -0.4240 H   0  0  0  0  0  0  0  0  0  0  0  0
   -2.2749   -2.1601   -1.9800 H   0  0  0  0  0  0  0  0  0  0  0  0
   -1.5234   -4.1348   -1.8775 N   0  3  0  0  0  0  0  0  0  0  0  0
   -1.2180   -4.1269   -2.8498 H   0  0  0  0  0  0  0  0  0  0  0  0
   -1.6484   -5.2757   -1.2595 C   0  0  0  0  0  0  0  0  0  0  0  0
   -2.0333   -5.3676    0.0583 N   0  0  0  0  0  0  0  0  0  0  0  0
   -2.1096   -4.5071    0.6111 H   0  0  0  0  0  0  0  0  0  0  0  0
   -1.8869   -6.2396    0.5599 H   0  0  0  0  0  0  0  0  0  0  0  0
   -1.3846   -6.4406   -1.9399 N   0  0  0  0  0  0  0  0  0  0  0  0
   -1.2923   -6.4031   -2.9529 H   0  0  0  0  0  0  0  0  0  0  0  0
   -1.6837   -7.3196   -1.5216 H   0  0  0  0  0  0  0  0  0  0  0  0
   -1.3774    0.7852    1.6286 C   0  0  0  0  0  0  0  0  0  0  0  0
   -2.1714    1.5881    1.1536 O   0  0  0  0  0  0  0  0  0  0  0  0
   -0.5047    1.1919    2.6210 N   0  0  0  0  0  0  0  0  0  0  0  0
    0.1032    0.4945    3.0415 H   0  0  0  0  0  0  0  0  0  0  0  0
   -0.4551    2.5607    3.1259 C   0  0  0  0  0  0  0  0  0  0  0  0
   -1.4134    2.8371    3.5785 H   0  0  0  0  0  0  0  0  0  0  0  0
    0.3263    2.6580    3.8862 H   0  0  0  0  0  0  0  0  0  0  0  0
   -0.2344    3.2626    2.3143 H   0  0  0  0  0  0  0  0  0  0  0  0
  1  2  1  0  0  0  0
  2  3  1  0  0  0  0
  2  4  1  0  0  0  0
  2  5  1  0  0  0  0
  5  6  2  0  0  0  0
  5  7  1  0  0  0  0
  7  8  1  0  0  0  0
  7  9  1  0  0  0  0
  9 10  1  0  0  0  0
  9 11  1  0  0  0  0
  9 29  1  0  0  0  0
 11 12  1  0  0  0  0
 11 13  1  0  0  0  0
 11 14  1  0  0  0  0
 14 15  1  0  0  0  0
 14 16  1  0  0  0  0
 14 17  1  0  0  0  0
 17 18  1  0  0  0  0
 17 19  1  0  0  0  0
 17 20  1  0  0  0  0
 20 21  1  0  0  0  0
 20 22  2  0  0  0  0
 22 23  1  0  0  0  0
 22 26  1  0  0  0  0
 23 24  1  0  0  0  0
 23 25  1  0  0  0  0
 26 27  1  0  0  0  0
 26 28  1  0  0  0  0
 29 30  2  0  0  0  0
 29 31  1  0  0  0  0
 31 32  1  0  0  0  0
 31 33  1  0  0  0  0
 33 34  1  0  0  0  0
 33 35  1  0  0  0  0
 33 36  1  0  0  0  0
M  CHG  1  20   1
M  END
$$$$

  -OEChem-03222214013D

 36 35  0     1  0  0  0  0  0999 V2000
   -3.9787   -4.1256    2.6092 H   0  0  0  0  0  0  0  0  0  0  0  0
   -4.0350   -3.0846    2.2791 C   0  0  0  0  0  0  0  0  0  0  0  0
   -4.3172   -2.4638    3.1338 H   0  0  0  0  0  0  0  0  0  0  0  0
   -4.8046   -2.9972    1.5082 H   0  0  0  0  0  0  0  0  0  0  0  0
   -2.6951   -2.6304    1.7329 C   0  0  0  0  0  0  0  0  0  0  0  0
   -1.7770   -3.4337    1.6216 O   0  0  0  0  0  0  0  0  0  0  0  0
   -2.5484   -1.3350    1.2838 N   0  0  0  0  0  0  0  0  0  0  0  0
   -3.3442   -0.7142    1.4477 H   0  0  0  0  0  0  0  0  0  0  0  0
   -1.2629   -0.6420    1.0900 C   0  0  1  0  0  0  0  0  0  0  0  0
   -0.4812   -1.1735    1.6436 H   0  0  0  0  0  0  0  0  0  0  0  0
   -0.8165   -0.5124   -0.3869 C   0  0  0  0  0  0  0  0  0  0  0  0
   -1.5476    0.0978   -0.9291 H   0  0  0  0  0  0  0  0  0  0  0  0
    0.1337    0.0327   -0.4042 H   0  0  0  0  0  0  0  0  0  0  0  0
   -0.6152   -1.8339   -1.1463 C   0  0  0  0  0  0  0  0  0  0  0  0
   -0.0451   -1.6346   -2.0598 H   0  0  0  0  0  0  0  0  0  0  0  0
   -0.0030   -2.4967   -0.5242 H   0  0  0  0  0  0  0  0  0  0  0  0
   -1.9278   -2.5173   -1.5423 C   0  0  0  0  0  0  0  0  0  0  0  0
   -2.7640   -2.0270   -1.0330 H   0  0  0  0  0  0  0  0  0  0  0  0
   -2.0852   -2.4086   -2.6194 H   0  0  0  0  0  0  0  0  0  0  0  0
   -1.8706   -3.9347   -1.1448 N   0  3  0  0  0  0  0  0  0  0  0  0
   -1.6108   -4.1025   -0.1658 H   0  0  0  0  0  0  0  0  0  0  0  0
   -2.1877   -4.9469   -1.8941 C   0  0  0  0  0  0  0  0  0  0  0  0
   -2.5879   -4.7963   -3.2018 N   0  0  0  0  0  0  0  0  0  0  0  0
   -2.4694   -3.8813   -3.6306 H   0  0  0  0  0  0  0  0  0  0  0  0
   -2.5824   -5.6136   -3.8084 H   0  0  0  0  0  0  0  0  0  0  0  0
   -2.1207   -6.2105   -1.3597 N   0  0  0  0  0  0  0  0  0  0  0  0
   -1.9642   -6.3046   -0.3570 H   0  0  0  0  0  0  0  0  0  0  0  0
   -2.5822   -6.9746   -1.8492 H   0  0  0  0  0  0  0  0  0  0  0  0
   -1.3753    0.7771    1.6865 C   0  0  0  0  0  0  0  0  0  0  0  0
   -2.4196    1.3999    1.5370 O   0  0  0  0  0  0  0  0  0  0  0  0
   -0.3704    1.3057    2.4754 N   0  0  0  0  0  0  0  0  0  0  0  0
    0.4654    0.7476    2.6273 H   0  0  0  0  0  0  0  0  0  0  0  0
   -0.4733    2.6075    3.1280 C   0  0  0  0  0  0  0  0  0  0  0  0
   -1.3090    2.6170    3.8361 H   0  0  0  0  0  0  0  0  0  0  0  0
    0.4461    2.8314    3.6777 H   0  0  0  0  0  0  0  0  0  0  0  0
   -0.6322    3.3980    2.3862 H   0  0  0  0  0  0  0  0  0  0  0  0
  1  2  1  0  0  0  0
  2  3  1  0  0  0  0
  2  4  1  0  0  0  0
  2  5  1  0  0  0  0
  5  6  2  0  0  0  0
  5  7  1  0  0  0  0
  7  8  1  0  0  0  0
  7  9  1  0  0  0  0
  9 10  1  0  0  0  0
  9 11  1  0  0  0  0
  9 29  1  0  0  0  0
 11 12  1  0  0  0  0
 11 13  1  0  0  0  0
 11 14  1  0  0  0  0
 14 15  1  0  0  0  0
 14 16  1  0  0  0  0
 14 17  1  0  0  0  0
 17 18  1  0  0  0  0
 17 19  1  0  0  0  0
 17 20  1  0  0  0  0
 20 21  1  0  0  0  0
 20 22  2  0  0  0  0
 22 23  1  0  0  0  0
 22 26  1  0  0  0  0
 23 24  1  0  0  0  0
 23 25  1  0  0  0  0
 26 27  1  0  0  0  0
 26 28  1  0  0  0  0
 29 30  2  0  0  0  0
 29 31  1  0  0  0  0
 31 32  1  0  0  0  0
 31 33  1  0  0  0  0
 33 34  1  0  0  0  0
 33 35  1  0  0  0  0
 33 36  1  0  0  0  0
M  CHG  1  20   1
M  END
$$$$

  -OEChem-03222214013D

 36 35  0     1  0  0  0  0  0999 V2000
   -3.8186   -4.2897    2.2342 H   0  0  0  0  0  0  0  0  0  0  0  0
   -3.9102   -3.2494    1.9104 C   0  0  0  0  0  0  0  0  0  0  0  0
   -4.2739   -2.6542    2.7522 H   0  0  0  0  0  0  0  0  0  0  0  0
   -4.6362   -3.1922    1.0959 H   0  0  0  0  0  0  0  0  0  0  0  0
   -2.5663   -2.7201    1.4492 C   0  0  0  0  0  0  0  0  0  0  0  0
   -1.6249   -3.4906    1.3128 O   0  0  0  0  0  0  0  0  0  0  0  0
   -2.4542   -1.3996    1.0700 N   0  0  0  0  0  0  0  0  0  0  0  0
   -3.2924   -0.8323    1.2139 H   0  0  0  0  0  0  0  0  0  0  0  0
   -1.2057   -0.6169    1.0135 C   0  0  1  0  0  0  0  0  0  0  0  0
   -0.4388   -1.1237    1.6090 H   0  0  0  0  0  0  0  0  0  0  0  0
   -0.6707   -0.4358   -0.4238 C   0  0  0  0  0  0  0  0  0  0  0  0
   -1.3892    0.1400   -1.0182 H   0  0  0  0  0  0  0  0  0  0  0  0
    0.2487    0.1575   -0.3676 H   0  0  0  0  0  0  0  0  0  0  0  0
   -0.3451   -1.7568   -1.1352 C   0  0  0  0  0  0  0  0  0  0  0  0
    0.4545   -1.5733   -1.8606 H   0  0  0  0  0  0  0  0  0  0  0  0
    0.0523   -2.4736   -0.4090 H   0  0  0  0  0  0  0  0  0  0  0  0
   -1.5433   -2.3208   -1.9022 C   0  0  0  0  0  0  0  0  0  0  0  0
   -2.4474   -1.7645   -1.6305 H   0  0  0  0  0  0  0  0  0  0  0  0
   -1.3767   -2.2054   -2.9777 H   0  0  0  0  0  0  0  0  0  0  0  0
   -1.6994   -3.7368   -1.5279 N   0  3  0  0  0  0  0  0  0  0  0  0
   -1.4642   -3.9633   -0.5547 H   0  0  0  0  0  0  0  0  0  0  0  0
   -2.1820   -4.6702   -2.2898 C   0  0  0  0  0  0  0  0  0  0  0  0
   -2.5725   -4.4271   -3.5864 N   0  0  0  0  0  0  0  0  0  0  0  0
   -2.3194   -3.5311   -3.9972 H   0  0  0  0  0  0  0  0  0  0  0  0
   -2.7109   -5.2193   -4.2101 H   0  0  0  0  0  0  0  0  0  0  0  0
   -2.3075   -5.9388   -1.7781 N   0  0  0  0  0  0  0  0  0  0  0  0
   -2.1454   -6.0802   -0.7817 H   0  0  0  0  0  0  0  0  0  0  0  0
   -2.8752   -6.6195   -2.2784 H   0  0  0  0  0  0  0  0  0  0  0  0
   -1.4459    0.7670    1.6509 C   0  0  0  0  0  0  0  0  0  0  0  0
   -2.5136    1.3323    1.4489 O   0  0  0  0  0  0  0  0  0  0  0  0
   -0.5360    1.3131    2.5367 N   0  0  0  0  0  0  0  0  0  0  0  0
    0.3229    0.8012    2.7188 H   0  0  0  0  0  0  0  0  0  0  0  0
   -0.7622    2.5737    3.2368 C   0  0  0  0  0  0  0  0  0  0  0  0
   -1.6535    2.5070    3.8699 H   0  0  0  0  0  0  0  0  0  0  0  0
    0.0952    2.8135    3.8735 H   0  0  0  0  0  0  0  0  0  0  0  0
   -0.8999    3.3916    2.5213 H   0  0  0  0  0  0  0  0  0  0  0  0
  1  2  1  0  0  0  0
  2  3  1  0  0  0  0
  2  4  1  0  0  0  0
  2  5  1  0  0  0  0
  5  6  2  0  0  0  0
  5  7  1  0  0  0  0
  7  8  1  0  0  0  0
  7  9  1  0  0  0  0
  9 10  1  0  0  0  0
  9 11  1  0  0  0  0
  9 29  1  0  0  0  0
 11 12  1  0  0  0  0
 11 13  1  0  0  0  0
 11 14  1  0  0  0  0
 14 15  1  0  0  0  0
 14 16  1  0  0  0  0
 14 17  1  0  0  0  0
 17 18  1  0  0  0  0
 17 19  1  0  0  0  0
 17 20  1  0  0  0  0
 20 21  1  0  0  0  0
 20 22  2  0  0  0  0
 22 23  1  0  0  0  0
 22 26  1  0  0  0  0
 23 24  1  0  0  0  0
 23 25  1  0  0  0  0
 26 27  1  0  0  0  0
 26 28  1  0  0  0  0
 29 30  2  0  0  0  0
 29 31  1  0  0  0  0
 31 32  1  0  0  0  0
 31 33  1  0  0  0  0
 33 34  1  0  0  0  0
 33 35  1  0  0  0  0
 33 36  1  0  0  0  0
M  CHG  1  20   1
M  END
$$$$

  -OEChem-03222214013D

 36 35  0     1  0  0  0  0  0999 V2000
   -3.9165   -4.1978    2.3623 H   0  0  0  0  0  0  0  0  0  0  0  0
   -3.9822   -3.1704    1.9934 C   0  0  0  0  0  0  0  0  0  0  0  0
   -4.4208   -2.5460    2.7761 H   0  0  0  0  0  0  0  0  0  0  0  0
   -4.6332   -3.1498    1.1164 H   0  0  0  0  0  0  0  0  0  0  0  0
   -2.6032   -2.6533    1.6317 C   0  0  0  0  0  0  0  0  0  0  0  0
   -1.6446   -3.4085    1.6728 O   0  0  0  0  0  0  0  0  0  0  0  0
   -2.4638   -1.3592    1.1731 N   0  0  0  0  0  0  0  0  0  0  0  0
   -3.3100   -0.7883    1.2120 H   0  0  0  0  0  0  0  0  0  0  0  0
   -1.2101   -0.5838    1.0966 C   0  0  1  0  0  0  0  0  0  0  0  0
   -0.4513   -1.0560    1.7299 H   0  0  0  0  0  0  0  0  0  0  0  0
   -0.6847   -0.5174   -0.3528 C   0  0  0  0  0  0  0  0  0  0  0  0
   -1.4039    0.0155   -0.9853 H   0  0  0  0  0  0  0  0  0  0  0  0
    0.2406    0.0695   -0.3538 H   0  0  0  0  0  0  0  0  0  0  0  0
   -0.3816   -1.9050   -0.9372 C   0  0  0  0  0  0  0  0  0  0  0  0
    0.5705   -1.8582   -1.4762 H   0  0  0  0  0  0  0  0  0  0  0  0
   -0.2405   -2.6332   -0.1372 H   0  0  0  0  0  0  0  0  0  0  0  0
   -1.4551   -2.3430   -1.9289 C   0  0  0  0  0  0  0  0  0  0  0  0
   -2.4332   -1.9957   -1.5769 H   0  0  0  0  0  0  0  0  0  0  0  0
   -1.2596   -1.8934   -2.9073 H   0  0  0  0  0  0  0  0  0  0  0  0
   -1.4520   -3.8155   -1.9880 N   0  3  0  0  0  0  0  0  0  0  0  0
   -1.2168   -4.2994   -1.1195 H   0  0  0  0  0  0  0  0  0  0  0  0
   -1.7798   -4.5126   -3.0357 C   0  0  0  0  0  0  0  0  0  0  0  0
   -2.1373   -3.9192   -4.2248 N   0  0  0  0  0  0  0  0  0  0  0  0
   -1.9951   -2.9159   -4.3184 H   0  0  0  0  0  0  0  0  0  0  0  0
   -2.1452   -4.4848   -5.0711 H   0  0  0  0  0  0  0  0  0  0  0  0
   -1.7707   -5.8844   -2.9588 N   0  0  0  0  0  0  0  0  0  0  0  0
   -1.6693   -6.3218   -2.0446 H   0  0  0  0  0  0  0  0  0  0  0  0
   -2.2255   -6.4174   -3.6975 H   0  0  0  0  0  0  0  0  0  0  0  0
   -1.4446    0.8419    1.6339 C   0  0  0  0  0  0  0  0  0  0  0  0
   -2.4829    1.4208    1.3385 O   0  0  0  0  0  0  0  0  0  0  0  0
   -0.5468    1.4371    2.5002 N   0  0  0  0  0  0  0  0  0  0  0  0
    0.2795    0.9103    2.7703 H   0  0  0  0  0  0  0  0  0  0  0  0
   -0.7581    2.7583    3.0835 C   0  0  0  0  0  0  0  0  0  0  0  0
   -1.6624    2.7654    3.7015 H   0  0  0  0  0  0  0  0  0  0  0  0
    0.0930    3.0354    3.7135 H   0  0  0  0  0  0  0  0  0  0  0  0
   -0.8638    3.5135    2.2972 H   0  0  0  0  0  0  0  0  0  0  0  0
  1  2  1  0  0  0  0
  2  3  1  0  0  0  0
  2  4  1  0  0  0  0
  2  5  1  0  0  0  0
  5  6  2  0  0  0  0
  5  7  1  0  0  0  0
  7  8  1  0  0  0  0
  7  9  1  0  0  0  0
  9 10  1  0  0  0  0
  9 11  1  0  0  0  0
  9 29  1  0  0  0  0
 11 12  1  0  0  0  0
 11 13  1  0  0  0  0
 11 14  1  0  0  0  0
 14 15  1  0  0  0  0
 14 16  1  0  0  0  0
 14 17  1  0  0  0  0
 17 18  1  0  0  0  0
 17 19  1  0  0  0  0
 17 20  1  0  0  0  0
 20 21  1  0  0  0  0
 20 22  2  0  0  0  0
 22 23  1  0  0  0  0
 22 26  1  0  0  0  0
 23 24  1  0  0  0  0
 23 25  1  0  0  0  0
 26 27  1  0  0  0  0
 26 28  1  0  0  0  0
 29 30  2  0  0  0  0
 29 31  1  0  0  0  0
 31 32  1  0  0  0  0
 31 33  1  0  0  0  0
 33 34  1  0  0  0  0
 33 35  1  0  0  0  0
 33 36  1  0  0  0  0
M  CHG  1  20   1
M  END
$$$$

  -OEChem-03222214013D

 36 35  0     1  0  0  0  0  0999 V2000
   -4.1714   -4.0622    2.2822 H   0  0  0  0  0  0  0  0  0  0  0  0
   -4.1609   -3.0583    1.8482 C   0  0  0  0  0  0  0  0  0  0  0  0
   -4.7069   -2.3838    2.5128 H   0  0  0  0  0  0  0  0  0  0  0  0
   -4.6631   -3.0868    0.8785 H   0  0  0  0  0  0  0  0  0  0  0  0
   -2.7334   -2.5749    1.6820 C   0  0  0  0  0  0  0  0  0  0  0  0
   -1.8045   -3.2962    2.0090 O   0  0  0  0  0  0  0  0  0  0  0  0
   -2.4943   -1.3263    1.1444 N   0  0  0  0  0  0  0  0  0  0  0  0
   -3.3133   -0.7339    1.0014 H   0  0  0  0  0  0  0  0  0  0  0  0
   -1.1991   -0.6232    1.1625 C   0  0  1  0  0  0  0  0  0  0  0  0
   -0.5325   -1.0833    1.9000 H   0  0  0  0  0  0  0  0  0  0  0  0
   -0.5249   -0.6536   -0.2262 C   0  0  0  0  0  0  0  0  0  0  0  0
   -1.1640   -0.1164   -0.9364 H   0  0  0  0  0  0  0  0  0  0  0  0
    0.4185   -0.0996   -0.1667 H   0  0  0  0  0  0  0  0  0  0  0  0
   -0.2270   -2.0685   -0.7574 C   0  0  0  0  0  0  0  0  0  0  0  0
    0.8524   -2.1634   -0.9178 H   0  0  0  0  0  0  0  0  0  0  0  0
   -0.5054   -2.8295   -0.0270 H   0  0  0  0  0  0  0  0  0  0  0  0
   -0.9547   -2.3213   -2.0752 C   0  0  0  0  0  0  0  0  0  0  0  0
   -2.0268   -2.1500   -1.9271 H   0  0  0  0  0  0  0  0  0  0  0  0
   -0.5898   -1.6176   -2.8315 H   0  0  0  0  0  0  0  0  0  0  0  0
   -0.7183   -3.7117   -2.5041 N   0  3  0  0  0  0  0  0  0  0  0  0
   -0.0670   -4.2621   -1.9453 H   0  0  0  0  0  0  0  0  0  0  0  0
   -1.3140   -4.2668   -3.5189 C   0  0  0  0  0  0  0  0  0  0  0  0
   -2.2005   -3.5696   -4.3079 N   0  0  0  0  0  0  0  0  0  0  0  0
   -2.2539   -2.5606   -4.1830 H   0  0  0  0  0  0  0  0  0  0  0  0
   -2.4521   -3.9536   -5.2164 H   0  0  0  0  0  0  0  0  0  0  0  0
   -1.0556   -5.5831   -3.8189 N   0  0  0  0  0  0  0  0  0  0  0  0
   -0.5509   -6.1485   -3.1386 H   0  0  0  0  0  0  0  0  0  0  0  0
   -1.6728   -6.0622   -4.4720 H   0  0  0  0  0  0  0  0  0  0  0  0
   -1.4201    0.8482    1.5696 C   0  0  0  0  0  0  0  0  0  0  0  0
   -2.3688    1.4594    1.0920 O   0  0  0  0  0  0  0  0  0  0  0  0
   -0.5991    1.4660    2.4949 N   0  0  0  0  0  0  0  0  0  0  0  0
    0.1339    0.9105    2.9281 H   0  0  0  0  0  0  0  0  0  0  0  0
   -0.8130    2.8317    2.9640 C   0  0  0  0  0  0  0  0  0  0  0  0
   -1.7804    2.9172    3.4705 H   0  0  0  0  0  0  0  0  0  0  0  0
   -0.0272    3.1182    3.6698 H   0  0  0  0  0  0  0  0  0  0  0  0
   -0.7932    3.5343    2.1240 H   0  0  0  0  0  0  0  0  0  0  0  0
  1  2  1  0  0  0  0
  2  3  1  0  0  0  0
  2  4  1  0  0  0  0
  2  5  1  0  0  0  0
  5  6  2  0  0  0  0
  5  7  1  0  0  0  0
  7  8  1  0  0  0  0
  7  9  1  0  0  0  0
  9 10  1  0  0  0  0
  9 11  1  0  0  0  0
  9 29  1  0  0  0  0
 11 12  1  0  0  0  0
 11 13  1  0  0  0  0
 11 14  1  0  0  0  0
 14 15  1  0  0  0  0
 14 16  1  0  0  0  0
 14 17  1  0  0  0  0
 17 18  1  0  0  0  0
 17 19  1  0  0  0  0
 17 20  1  0  0  0  0
 20 21  1  0  0  0  0
 20 22  2  0  0  0  0
 22 23  1  0  0  0  0
 22 26  1  0  0  0  0
 23 24  1  0  0  0  0
 23 25  1  0  0  0  0
 26 27  1  0  0  0  0
 26 28  1  0  0  0  0
 29 30  2  0  0  0  0
 29 31  1  0  0  0  0
 31 32  1  0  0  0  0
 31 33  1  0  0  0  0
 33 34  1  0  0  0  0
 33 35  1  0  0  0  0
 33 36  1  0  0  0  0
M  CHG  1  20   1
M  END
$$$$

  -OEChem-03222214013D

 36 35  0     1  0  0  0  0  0999 V2000
   -4.2313   -4.0225    2.4293 H   0  0  0  0  0  0  0  0  0  0  0  0
   -4.2218   -3.0011    2.0383 C   0  0  0  0  0  0  0  0  0  0  0  0
   -4.7073   -2.3431    2.7635 H   0  0  0  0  0  0  0  0  0  0  0  0
   -4.7848   -2.9762    1.1025 H   0  0  0  0  0  0  0  0  0  0  0  0
   -2.7950   -2.5450    1.8014 C   0  0  0  0  0  0  0  0  0  0  0  0
   -1.8621   -3.2711    2.1077 O   0  0  0  0  0  0  0  0  0  0  0  0
   -2.5557   -1.3145    1.2225 N   0  0  0  0  0  0  0  0  0  0  0  0
   -3.3686   -0.7107    1.0923 H   0  0  0  0  0  0  0  0  0  0  0  0
   -1.2453   -0.6417    1.1773 C   0  0  1  0  0  0  0  0  0  0  0  0
   -0.5655   -1.0972    1.9057 H   0  0  0  0  0  0  0  0  0  0  0  0
   -0.6053   -0.7149   -0.2265 C   0  0  0  0  0  0  0  0  0  0  0  0
   -1.2736   -0.1932   -0.9213 H   0  0  0  0  0  0  0  0  0  0  0  0
    0.3418   -0.1643   -0.2202 H   0  0  0  0  0  0  0  0  0  0  0  0
   -0.3441   -2.1423   -0.7449 C   0  0  0  0  0  0  0  0  0  0  0  0
    0.7230   -2.3688   -0.6483 H   0  0  0  0  0  0  0  0  0  0  0  0
   -0.8849   -2.8795   -0.1503 H   0  0  0  0  0  0  0  0  0  0  0  0
   -0.7875   -2.2784   -2.1993 C   0  0  0  0  0  0  0  0  0  0  0  0
   -1.8565   -2.0485   -2.2698 H   0  0  0  0  0  0  0  0  0  0  0  0
   -0.2339   -1.5582   -2.8119 H   0  0  0  0  0  0  0  0  0  0  0  0
   -0.5331   -3.6536   -2.6659 N   0  3  0  0  0  0  0  0  0  0  0  0
   -0.2756   -4.3410   -1.9580 H   0  0  0  0  0  0  0  0  0  0  0  0
   -0.6517   -4.0293   -3.9063 C   0  0  0  0  0  0  0  0  0  0  0  0
   -1.0343   -3.1527   -4.8961 N   0  0  0  0  0  0  0  0  0  0  0  0
   -1.3824   -2.2389   -4.6129 H   0  0  0  0  0  0  0  0  0  0  0  0
   -1.3475   -3.5291   -5.7886 H   0  0  0  0  0  0  0  0  0  0  0  0
   -0.3936   -5.3357   -4.2472 N   0  0  0  0  0  0  0  0  0  0  0  0
    0.0570   -5.9400   -3.5624 H   0  0  0  0  0  0  0  0  0  0  0  0
   -0.2844   -5.5676   -5.2328 H   0  0  0  0  0  0  0  0  0  0  0  0
   -1.4198    0.8431    1.5553 C   0  0  0  0  0  0  0  0  0  0  0  0
   -2.3644    1.4691    1.0893 O   0  0  0  0  0  0  0  0  0  0  0  0
   -0.5517    1.4614    2.4358 N   0  0  0  0  0  0  0  0  0  0  0  0
    0.1795    0.8970    2.8601 H   0  0  0  0  0  0  0  0  0  0  0  0
   -0.7120    2.8448    2.8712 C   0  0  0  0  0  0  0  0  0  0  0  0
   -1.6693    2.9767    3.3870 H   0  0  0  0  0  0  0  0  0  0  0  0
    0.0923    3.1222    3.5596 H   0  0  0  0  0  0  0  0  0  0  0  0
   -0.6788    3.5233    2.0121 H   0  0  0  0  0  0  0  0  0  0  0  0
  1  2  1  0  0  0  0
  2  3  1  0  0  0  0
  2  4  1  0  0  0  0
  2  5  1  0  0  0  0
  5  6  2  0  0  0  0
  5  7  1  0  0  0  0
  7  8  1  0  0  0  0
  7  9  1  0  0  0  0
  9 10  1  0  0  0  0
  9 11  1  0  0  0  0
  9 29  1  0  0  0  0
 11 12  1  0  0  0  0
 11 13  1  0  0  0  0
 11 14  1  0  0  0  0
 14 15  1  0  0  0  0
 14 16  1  0  0  0  0
 14 17  1  0  0  0  0
 17 18  1  0  0  0  0
 17 19  1  0  0  0  0
 17 20  1  0  0  0  0
 20 21  1  0  0  0  0
 20 22  2  0  0  0  0
 22 23  1  0  0  0  0
 22 26  1  0  0  0  0
 23 24  1  0  0  0  0
 23 25  1  0  0  0  0
 26 27  1  0  0  0  0
 26 28  1  0  0  0  0
 29 30  2  0  0  0  0
 29 31  1  0  0  0  0
 31 32  1  0  0  0  0
 31 33  1  0  0  0  0
 33 34  1  0  0  0  0
 33 35  1  0  0  0  0
 33 36  1  0  0  0  0
M  CHG  1  20   1
M  END
$$$$

  -OEChem-03222214013D

 36 35  0     1  0  0  0  0  0999 V2000
   -4.2128   -4.0008    2.3151 H   0  0  0  0  0  0  0  0  0  0  0  0
   -4.1975   -3.0107    1.8505 C   0  0  0  0  0  0  0  0  0  0  0  0
   -4.7349   -2.3121    2.4968 H   0  0  0  0  0  0  0  0  0  0  0  0
   -4.7053   -3.0656    0.8848 H   0  0  0  0  0  0  0  0  0  0  0  0
   -2.7674   -2.5425    1.6614 C   0  0  0  0  0  0  0  0  0  0  0  0
   -1.8368   -3.2749    1.9610 O   0  0  0  0  0  0  0  0  0  0  0  0
   -2.5181   -1.2979    1.1187 N   0  0  0  0  0  0  0  0  0  0  0  0
   -3.3290   -0.6937    0.9783 H   0  0  0  0  0  0  0  0  0  0  0  0
   -1.2102   -0.6198    1.1425 C   0  0  1  0  0  0  0  0  0  0  0  0
   -0.5617   -1.0873    1.8917 H   0  0  0  0  0  0  0  0  0  0  0  0
   -0.5068   -0.6714   -0.2311 C   0  0  0  0  0  0  0  0  0  0  0  0
   -1.1531   -0.1548   -0.9500 H   0  0  0  0  0  0  0  0  0  0  0  0
    0.4359   -0.1154   -0.1836 H   0  0  0  0  0  0  0  0  0  0  0  0
   -0.2238   -2.0948   -0.7425 C   0  0  0  0  0  0  0  0  0  0  0  0
    0.7399   -2.4396   -0.3527 H   0  0  0  0  0  0  0  0  0  0  0  0
   -0.9895   -2.7876   -0.3896 H   0  0  0  0  0  0  0  0  0  0  0  0
   -0.2413   -2.1289   -2.2680 C   0  0  0  0  0  0  0  0  0  0  0  0
   -1.2030   -1.7423   -2.6229 H   0  0  0  0  0  0  0  0  0  0  0  0
    0.5584   -1.4868   -2.6541 H   0  0  0  0  0  0  0  0  0  0  0  0
   -0.0512   -3.5167   -2.7264 N   0  3  0  0  0  0  0  0  0  0  0  0
    0.1135   -4.2209   -2.0073 H   0  0  0  0  0  0  0  0  0  0  0  0
   -0.1161   -3.8814   -3.9738 C   0  0  0  0  0  0  0  0  0  0  0  0
   -0.3663   -2.9774   -4.9814 N   0  0  0  0  0  0  0  0  0  0  0  0
   -0.6533   -2.0371   -4.7171 H   0  0  0  0  0  0  0  0  0  0  0  0
   -0.6502   -3.3272   -5.8942 H   0  0  0  0  0  0  0  0  0  0  0  0
    0.0642   -5.2037   -4.3020 N   0  0  0  0  0  0  0  0  0  0  0  0
    0.4239   -5.8389   -3.5920 H   0  0  0  0  0  0  0  0  0  0  0  0
    0.2137   -5.4461   -5.2796 H   0  0  0  0  0  0  0  0  0  0  0  0
   -1.4083    0.8556    1.5465 C   0  0  0  0  0  0  0  0  0  0  0  0
   -2.3418    1.4847    1.0627 O   0  0  0  0  0  0  0  0  0  0  0  0
   -0.5815    1.4592    2.4759 N   0  0  0  0  0  0  0  0  0  0  0  0
    0.1290    0.8863    2.9234 H   0  0  0  0  0  0  0  0  0  0  0  0
   -0.7920    2.8193    2.9623 C   0  0  0  0  0  0  0  0  0  0  0  0
   -1.7589    2.8999    3.4704 H   0  0  0  0  0  0  0  0  0  0  0  0
   -0.0053    3.0952    3.6714 H   0  0  0  0  0  0  0  0  0  0  0  0
   -0.7714    3.5328    2.1315 H   0  0  0  0  0  0  0  0  0  0  0  0
  1  2  1  0  0  0  0
  2  3  1  0  0  0  0
  2  4  1  0  0  0  0
  2  5  1  0  0  0  0
  5  6  2  0  0  0  0
  5  7  1  0  0  0  0
  7  8  1  0  0  0  0
  7  9  1  0  0  0  0
  9 10  1  0  0  0  0
  9 11  1  0  0  0  0
  9 29  1  0  0  0  0
 11 12  1  0  0  0  0
 11 13  1  0  0  0  0
 11 14  1  0  0  0  0
 14 15  1  0  0  0  0
 14 16  1  0  0  0  0
 14 17  1  0  0  0  0
 17 18  1  0  0  0  0
 17 19  1  0  0  0  0
 17 20  1  0  0  0  0
 20 21  1  0  0  0  0
 20 22  2  0  0  0  0
 22 23  1  0  0  0  0
 22 26  1  0  0  0  0
 23 24  1  0  0  0  0
 23 25  1  0  0  0  0
 26 27  1  0  0  0  0
 26 28  1  0  0  0  0
 29 30  2  0  0  0  0
 29 31  1  0  0  0  0
 31 32  1  0  0  0  0
 31 33  1  0  0  0  0
 33 34  1  0  0  0  0
 33 35  1  0  0  0  0
 33 36  1  0  0  0  0
M  CHG  1  20   1
M  END
$$$$

  -OEChem-03222214013D

 36 35  0     1  0  0  0  0  0999 V2000
   -4.1694   -4.0168    2.2564 H   0  0  0  0  0  0  0  0  0  0  0  0
   -4.1716   -3.0258    1.7940 C   0  0  0  0  0  0  0  0  0  0  0  0
   -4.7176   -2.3375    2.4439 H   0  0  0  0  0  0  0  0  0  0  0  0
   -4.6818   -3.0867    0.8298 H   0  0  0  0  0  0  0  0  0  0  0  0
   -2.7496   -2.5367    1.5998 C   0  0  0  0  0  0  0  0  0  0  0  0
   -1.8065   -3.2704    1.8561 O   0  0  0  0  0  0  0  0  0  0  0  0
   -2.5173   -1.2779    1.0829 N   0  0  0  0  0  0  0  0  0  0  0  0
   -3.3338   -0.6769    0.9627 H   0  0  0  0  0  0  0  0  0  0  0  0
   -1.2141   -0.5929    1.1208 C   0  0  1  0  0  0  0  0  0  0  0  0
   -0.5662   -1.0711    1.8633 H   0  0  0  0  0  0  0  0  0  0  0  0
   -0.5110   -0.6347   -0.2519 C   0  0  0  0  0  0  0  0  0  0  0  0
   -1.1511   -0.1202   -0.9776 H   0  0  0  0  0  0  0  0  0  0  0  0
    0.4332   -0.0821   -0.1969 H   0  0  0  0  0  0  0  0  0  0  0  0
   -0.2345   -2.0628   -0.7479 C   0  0  0  0  0  0  0  0  0  0  0  0
    0.5752   -2.5062   -0.1580 H   0  0  0  0  0  0  0  0  0  0  0  0
   -1.1240   -2.6845   -0.6177 H   0  0  0  0  0  0  0  0  0  0  0  0
    0.1139   -2.0541   -2.2328 C   0  0  0  0  0  0  0  0  0  0  0  0
   -0.7029   -1.5827   -2.7902 H   0  0  0  0  0  0  0  0  0  0  0  0
    1.0273   -1.4690   -2.3878 H   0  0  0  0  0  0  0  0  0  0  0  0
    0.3102   -3.4411   -2.6910 N   0  3  0  0  0  0  0  0  0  0  0  0
    0.2552   -4.1720   -1.9818 H   0  0  0  0  0  0  0  0  0  0  0  0
    0.5257   -3.7692   -3.9318 C   0  0  0  0  0  0  0  0  0  0  0  0
    0.5893   -2.8246   -4.9309 N   0  0  0  0  0  0  0  0  0  0  0  0
    0.3031   -1.8738   -4.7063 H   0  0  0  0  0  0  0  0  0  0  0  0
    0.5223   -3.1304   -5.8995 H   0  0  0  0  0  0  0  0  0  0  0  0
    0.6935   -5.0924   -4.2642 N   0  0  0  0  0  0  0  0  0  0  0  0
    0.8216   -5.7720   -3.5166 H   0  0  0  0  0  0  0  0  0  0  0  0
    1.0686   -5.3181   -5.1838 H   0  0  0  0  0  0  0  0  0  0  0  0
   -1.4084    0.8736    1.5567 C   0  0  0  0  0  0  0  0  0  0  0  0
   -2.3386    1.5167    1.0861 O   0  0  0  0  0  0  0  0  0  0  0  0
   -0.5770    1.4545    2.4967 N   0  0  0  0  0  0  0  0  0  0  0  0
    0.1307    0.8687    2.9318 H   0  0  0  0  0  0  0  0  0  0  0  0
   -0.7787    2.8059    3.0101 C   0  0  0  0  0  0  0  0  0  0  0  0
   -1.7450    2.8827    3.5201 H   0  0  0  0  0  0  0  0  0  0  0  0
    0.0102    3.0629    3.7238 H   0  0  0  0  0  0  0  0  0  0  0  0
   -0.7541    3.5353    2.1934 H   0  0  0  0  0  0  0  0  0  0  0  0
  1  2  1  0  0  0  0
  2  3  1  0  0  0  0
  2  4  1  0  0  0  0
  2  5  1  0  0  0  0
  5  6  2  0  0  0  0
  5  7  1  0  0  0  0
  7  8  1  0  0  0  0
  7  9  1  0  0  0  0
  9 10  1  0  0  0  0
  9 11  1  0  0  0  0
  9 29  1  0  0  0  0
 11 12  1  0  0  0  0
 11 13  1  0  0  0  0
 11 14  1  0  0  0  0
 14 15  1  0  0  0  0
 14 16  1  0  0  0  0
 14 17  1  0  0  0  0
 17 18  1  0  0  0  0
 17 19  1  0  0  0  0
 17 20  1  0  0  0  0
 20 21  1  0  0  0  0
 20 22  2  0  0  0  0
 22 23  1  0  0  0  0
 22 26  1  0  0  0  0
 23 24  1  0  0  0  0
 23 25  1  0  0  0  0
 26 27  1  0  0  0  0
 26 28  1  0  0  0  0
 29 30  2  0  0  0  0
 29 31  1  0  0  0  0
 31 32  1  0  0  0  0
 31 33  1  0  0  0  0
 33 34  1  0  0  0  0
 33 35  1  0  0  0  0
 33 36  1  0  0  0  0
M  CHG  1  20   1
M  END
$$$$

  -OEChem-03222214013D

 36 35  0     1  0  0  0  0  0999 V2000
   -4.1969   -4.0144    2.2506 H   0  0  0  0  0  0  0  0  0  0  0  0
   -4.2061   -3.0048    1.8302 C   0  0  0  0  0  0  0  0  0  0  0  0
   -4.6981   -2.3346    2.5397 H   0  0  0  0  0  0  0  0  0  0  0  0
   -4.7740   -3.0150    0.8970 H   0  0  0  0  0  0  0  0  0  0  0  0
   -2.7881   -2.5335    1.5717 C   0  0  0  0  0  0  0  0  0  0  0  0
   -1.8445   -3.2857    1.7629 O   0  0  0  0  0  0  0  0  0  0  0  0
   -2.5631   -1.2672    1.0707 N   0  0  0  0  0  0  0  0  0  0  0  0
   -3.3793   -0.6585    0.9943 H   0  0  0  0  0  0  0  0  0  0  0  0
   -1.2576   -0.5853    1.0959 C   0  0  1  0  0  0  0  0  0  0  0  0
   -0.6161   -1.0805    1.8331 H   0  0  0  0  0  0  0  0  0  0  0  0
   -0.5402   -0.6365   -0.2704 C   0  0  0  0  0  0  0  0  0  0  0  0
   -1.0235    0.0784   -0.9461 H   0  0  0  0  0  0  0  0  0  0  0  0
    0.4990   -0.3165   -0.1386 H   0  0  0  0  0  0  0  0  0  0  0  0
   -0.5752   -2.0237   -0.9285 C   0  0  0  0  0  0  0  0  0  0  0  0
   -0.1008   -2.7504   -0.2593 H   0  0  0  0  0  0  0  0  0  0  0  0
   -1.6110   -2.3375   -1.0938 H   0  0  0  0  0  0  0  0  0  0  0  0
    0.1527   -1.9921   -2.2685 C   0  0  0  0  0  0  0  0  0  0  0  0
   -0.3666   -1.3032   -2.9441 H   0  0  0  0  0  0  0  0  0  0  0  0
    1.1747   -1.6283   -2.1156 H   0  0  0  0  0  0  0  0  0  0  0  0
    0.1794   -3.3514   -2.8374 N   0  3  0  0  0  0  0  0  0  0  0  0
   -0.0719   -4.1164   -2.2116 H   0  0  0  0  0  0  0  0  0  0  0  0
    0.5277   -3.6171   -4.0629 C   0  0  0  0  0  0  0  0  0  0  0  0
    0.9070   -2.6268   -4.9405 N   0  0  0  0  0  0  0  0  0  0  0  0
    1.0686   -1.6945   -4.5648 H   0  0  0  0  0  0  0  0  0  0  0  0
    1.3926   -2.8901   -5.7957 H   0  0  0  0  0  0  0  0  0  0  0  0
    0.5229   -4.9197   -4.5012 N   0  0  0  0  0  0  0  0  0  0  0  0
    0.0856   -5.6305   -3.9177 H   0  0  0  0  0  0  0  0  0  0  0  0
    0.5862   -5.0962   -5.5021 H   0  0  0  0  0  0  0  0  0  0  0  0
   -1.4272    0.8760    1.5560 C   0  0  0  0  0  0  0  0  0  0  0  0
   -2.3650    1.5320    1.1204 O   0  0  0  0  0  0  0  0  0  0  0  0
   -0.5706    1.4341    2.4869 N   0  0  0  0  0  0  0  0  0  0  0  0
    0.1431    0.8363    2.8949 H   0  0  0  0  0  0  0  0  0  0  0  0
   -0.7444    2.7815    3.0202 C   0  0  0  0  0  0  0  0  0  0  0  0
   -1.6975    2.8637    3.5536 H   0  0  0  0  0  0  0  0  0  0  0  0
    0.0639    3.0205    3.7182 H   0  0  0  0  0  0  0  0  0  0  0  0
   -0.7298    3.5199    2.2115 H   0  0  0  0  0  0  0  0  0  0  0  0
  1  2  1  0  0  0  0
  2  3  1  0  0  0  0
  2  4  1  0  0  0  0
  2  5  1  0  0  0  0
  5  6  2  0  0  0  0
  5  7  1  0  0  0  0
  7  8  1  0  0  0  0
  7  9  1  0  0  0  0
  9 10  1  0  0  0  0
  9 11  1  0  0  0  0
  9 29  1  0  0  0  0
 11 12  1  0  0  0  0
 11 13  1  0  0  0  0
 11 14  1  0  0  0  0
 14 15  1  0  0  0  0
 14 16  1  0  0  0  0
 14 17  1  0  0  0  0
 17 18  1  0  0  0  0
 17 19  1  0  0  0  0
 17 20  1  0  0  0  0
 20 21  1  0  0  0  0
 20 22  2  0  0  0  0
 22 23  1  0  0  0  0
 22 26  1  0  0  0  0
 23 24  1  0  0  0  0
 23 25  1  0  0  0  0
 26 27  1  0  0  0  0
 26 28  1  0  0  0  0
 29 30  2  0  0  0  0
 29 31  1  0  0  0  0
 31 32  1  0  0  0  0
 31 33  1  0  0  0  0
 33 34  1  0  0  0  0
 33 35  1  0  0  0  0
 33 36  1  0  0  0  0
M  CHG  1  20   1
M  END
$$$$

  -OEChem-03222214013D

 36 35  0     1  0  0  0  0  0999 V2000
   -4.1859   -4.0268    2.2049 H   0  0  0  0  0  0  0  0  0  0  0  0
   -4.1863   -3.0309    1.7532 C   0  0  0  0  0  0  0  0  0  0  0  0
   -4.7380   -2.3506    2.4066 H   0  0  0  0  0  0  0  0  0  0  0  0
   -4.6893   -3.0818    0.7849 H   0  0  0  0  0  0  0  0  0  0  0  0
   -2.7642   -2.5372    1.5736 C   0  0  0  0  0  0  0  0  0  0  0  0
   -1.8232   -3.2741    1.8262 O   0  0  0  0  0  0  0  0  0  0  0  0
   -2.5334   -1.2706    1.0758 N   0  0  0  0  0  0  0  0  0  0  0  0
   -3.3522   -0.6728    0.9560 H   0  0  0  0  0  0  0  0  0  0  0  0
   -1.2330   -0.5788    1.1107 C   0  0  1  0  0  0  0  0  0  0  0  0
   -0.5874   -1.0712    1.8458 H   0  0  0  0  0  0  0  0  0  0  0  0
   -0.5257   -0.6179   -0.2614 C   0  0  0  0  0  0  0  0  0  0  0  0
   -1.0019    0.1025   -0.9362 H   0  0  0  0  0  0  0  0  0  0  0  0
    0.5136   -0.3019   -0.1209 H   0  0  0  0  0  0  0  0  0  0  0  0
   -0.5609   -2.0025   -0.9245 C   0  0  0  0  0  0  0  0  0  0  0  0
   -0.2973   -2.7613   -0.1805 H   0  0  0  0  0  0  0  0  0  0  0  0
   -1.5709   -2.2169   -1.2902 H   0  0  0  0  0  0  0  0  0  0  0  0
    0.4443   -2.0766   -2.0699 C   0  0  0  0  0  0  0  0  0  0  0  0
    0.1632   -1.3531   -2.8433 H   0  0  0  0  0  0  0  0  0  0  0  0
    1.4405   -1.8181   -1.6939 H   0  0  0  0  0  0  0  0  0  0  0  0
    0.4496   -3.4445   -2.6187 N   0  3  0  0  0  0  0  0  0  0  0  0
   -0.0326   -4.1595   -2.0745 H   0  0  0  0  0  0  0  0  0  0  0  0
    1.0574   -3.7827   -3.7185 C   0  0  0  0  0  0  0  0  0  0  0  0
    1.7570   -2.8678   -4.4721 N   0  0  0  0  0  0  0  0  0  0  0  0
    1.9343   -1.9524   -4.0637 H   0  0  0  0  0  0  0  0  0  0  0  0
    2.4043   -3.2103   -5.1792 H   0  0  0  0  0  0  0  0  0  0  0  0
    1.0082   -5.0886   -4.1440 N   0  0  0  0  0  0  0  0  0  0  0  0
    0.3596   -5.7278   -3.6883 H   0  0  0  0  0  0  0  0  0  0  0  0
    1.2997   -5.3020   -5.0961 H   0  0  0  0  0  0  0  0  0  0  0  0
   -1.4146    0.8824    1.5680 C   0  0  0  0  0  0  0  0  0  0  0  0
   -2.3514    1.5335    1.1230 O   0  0  0  0  0  0  0  0  0  0  0  0
   -0.5683    1.4473    2.5047 N   0  0  0  0  0  0  0  0  0  0  0  0
    0.1445    0.8540    2.9206 H   0  0  0  0  0  0  0  0  0  0  0  0
   -0.7561    2.7934    3.0371 C   0  0  0  0  0  0  0  0  0  0  0  0
   -1.7153    2.8689    3.5604 H   0  0  0  0  0  0  0  0  0  0  0  0
    0.0429    3.0374    3.7441 H   0  0  0  0  0  0  0  0  0  0  0  0
   -0.7377    3.5326    2.2292 H   0  0  0  0  0  0  0  0  0  0  0  0
  1  2  1  0  0  0  0
  2  3  1  0  0  0  0
  2  4  1  0  0  0  0
  2  5  1  0  0  0  0
  5  6  2  0  0  0  0
  5  7  1  0  0  0  0
  7  8  1  0  0  0  0
  7  9  1  0  0  0  0
  9 10  1  0  0  0  0
  9 11  1  0  0  0  0
  9 29  1  0  0  0  0
 11 12  1  0  0  0  0
 11 13  1  0  0  0  0
 11 14  1  0  0  0  0
 14 15  1  0  0  0  0
 14 16  1  0  0  0  0
 14 17  1  0  0  0  0
 17 18  1  0  0  0  0
 17 19  1  0  0  0  0
 17 20  1  0  0  0  0
 20 21  1  0  0  0  0
 20 22  2  0  0  0  0
 22 23  1  0  0  0  0
 22 26  1  0  0  0  0
 23 24  1  0  0  0  0
 23 25  1  0  0  0  0
 26 27  1  0  0  0  0
 26 28  1  0  0  0  0
 29 30  2  0  0  0  0
 29 31  1  0  0  0  0
 31 32  1  0  0  0  0
 31 33  1  0  0  0  0
 33 34  1  0  0  0  0
 33 35  1  0  0  0  0
 33 36  1  0  0  0  0
M  CHG  1  20   1
M  END
$$$$

  -OEChem-03222214013D

 36 35  0     1  0  0  0  0  0999 V2000
   -4.2247   -4.0140    2.1954 H   0  0  0  0  0  0  0  0  0  0  0  0
   -4.2064   -3.0168    1.7469 C   0  0  0  0  0  0  0  0  0  0  0  0
   -4.7641   -2.3327    2.3914 H   0  0  0  0  0  0  0  0  0  0  0  0
   -4.6917   -3.0599    0.7691 H   0  0  0  0  0  0  0  0  0  0  0  0
   -2.7757   -2.5366    1.5971 C   0  0  0  0  0  0  0  0  0  0  0  0
   -1.8478   -3.2687    1.9060 O   0  0  0  0  0  0  0  0  0  0  0  0
   -2.5246   -1.2773    1.0904 N   0  0  0  0  0  0  0  0  0  0  0  0
   -3.3375   -0.6787    0.9380 H   0  0  0  0  0  0  0  0  0  0  0  0
   -1.2205   -0.5919    1.1278 C   0  0  1  0  0  0  0  0  0  0  0  0
   -0.5769   -1.0824    1.8660 H   0  0  0  0  0  0  0  0  0  0  0  0
   -0.5119   -0.6257   -0.2456 C   0  0  0  0  0  0  0  0  0  0  0  0
   -0.9771    0.1047   -0.9172 H   0  0  0  0  0  0  0  0  0  0  0  0
    0.5263   -0.3121   -0.0920 H   0  0  0  0  0  0  0  0  0  0  0  0
   -0.5436   -2.0013   -0.9320 C   0  0  0  0  0  0  0  0  0  0  0  0
   -0.5281   -2.7853   -0.1704 H   0  0  0  0  0  0  0  0  0  0  0  0
   -1.4665   -2.1075   -1.5125 H   0  0  0  0  0  0  0  0  0  0  0  0
    0.6872   -2.1973   -1.8142 C   0  0  0  0  0  0  0  0  0  0  0  0
    0.6671   -1.4649   -2.6289 H   0  0  0  0  0  0  0  0  0  0  0  0
    1.5895   -2.0298   -1.2158 H   0  0  0  0  0  0  0  0  0  0  0  0
    0.6861   -3.5704   -2.3515 N   0  3  0  0  0  0  0  0  0  0  0  0
    0.0250   -4.2260   -1.9353 H   0  0  0  0  0  0  0  0  0  0  0  0
    1.5047   -3.9904   -3.2718 C   0  0  0  0  0  0  0  0  0  0  0  0
    2.4511   -3.1644   -3.8341 N   0  0  0  0  0  0  0  0  0  0  0  0
    2.6068   -2.2565   -3.4011 H   0  0  0  0  0  0  0  0  0  0  0  0
    3.2178   -3.5843   -4.3558 H   0  0  0  0  0  0  0  0  0  0  0  0
    1.4325   -5.2955   -3.6971 N   0  0  0  0  0  0  0  0  0  0  0  0
    0.6295   -5.8567   -3.4187 H   0  0  0  0  0  0  0  0  0  0  0  0
    1.9253   -5.5569   -4.5491 H   0  0  0  0  0  0  0  0  0  0  0  0
   -1.4074    0.8735    1.5702 C   0  0  0  0  0  0  0  0  0  0  0  0
   -2.3391    1.5214    1.1098 O   0  0  0  0  0  0  0  0  0  0  0  0
   -0.5698    1.4468    2.5091 N   0  0  0  0  0  0  0  0  0  0  0  0
    0.1309    0.8536    2.9450 H   0  0  0  0  0  0  0  0  0  0  0  0
   -0.7668    2.7959    3.0304 C   0  0  0  0  0  0  0  0  0  0  0  0
   -1.7292    2.8707    3.5480 H   0  0  0  0  0  0  0  0  0  0  0  0
    0.0276    3.0491    3.7393 H   0  0  0  0  0  0  0  0  0  0  0  0
   -0.7481    3.5296    2.2174 H   0  0  0  0  0  0  0  0  0  0  0  0
  1  2  1  0  0  0  0
  2  3  1  0  0  0  0
  2  4  1  0  0  0  0
  2  5  1  0  0  0  0
  5  6  2  0  0  0  0
  5  7  1  0  0  0  0
  7  8  1  0  0  0  0
  7  9  1  0  0  0  0
  9 10  1  0  0  0  0
  9 11  1  0  0  0  0
  9 29  1  0  0  0  0
 11 12  1  0  0  0  0
 11 13  1  0  0  0  0
 11 14  1  0  0  0  0
 14 15  1  0  0  0  0
 14 16  1  0  0  0  0
 14 17  1  0  0  0  0
 17 18  1  0  0  0  0
 17 19  1  0  0  0  0
 17 20  1  0  0  0  0
 20 21  1  0  0  0  0
 20 22  2  0  0  0  0
 22 23  1  0  0  0  0
 22 26  1  0  0  0  0
 23 24  1  0  0  0  0
 23 25  1  0  0  0  0
 26 27  1  0  0  0  0
 26 28  1  0  0  0  0
 29 30  2  0  0  0  0
 29 31  1  0  0  0  0
 31 32  1  0  0  0  0
 31 33  1  0  0  0  0
 33 34  1  0  0  0  0
 33 35  1  0  0  0  0
 33 36  1  0  0  0  0
M  CHG  1  20   1
M  END
$$$$

  -OEChem-03222214013D

 36 35  0     1  0  0  0  0  0999 V2000
   -4.2481   -4.0081    2.2018 H   0  0  0  0  0  0  0  0  0  0  0  0
   -4.2224   -3.0132    1.7481 C   0  0  0  0  0  0  0  0  0  0  0  0
   -4.7931   -2.3260    2.3777 H   0  0  0  0  0  0  0  0  0  0  0  0
   -4.6887   -3.0625    0.7612 H   0  0  0  0  0  0  0  0  0  0  0  0
   -2.7901   -2.5309    1.6233 C   0  0  0  0  0  0  0  0  0  0  0  0
   -1.8671   -3.2578    1.9599 O   0  0  0  0  0  0  0  0  0  0  0  0
   -2.5309   -1.2765    1.1078 N   0  0  0  0  0  0  0  0  0  0  0  0
   -3.3402   -0.6786    0.9344 H   0  0  0  0  0  0  0  0  0  0  0  0
   -1.2234   -0.5973    1.1389 C   0  0  1  0  0  0  0  0  0  0  0  0
   -0.5817   -1.0858    1.8796 H   0  0  0  0  0  0  0  0  0  0  0  0
   -0.5102   -0.6335   -0.2339 C   0  0  0  0  0  0  0  0  0  0  0  0
   -0.9809    0.0971   -0.9019 H   0  0  0  0  0  0  0  0  0  0  0  0
    0.5237   -0.3066   -0.0794 H   0  0  0  0  0  0  0  0  0  0  0  0
   -0.5295   -2.0016   -0.9434 C   0  0  0  0  0  0  0  0  0  0  0  0
   -0.7878   -2.7890   -0.2341 H   0  0  0  0  0  0  0  0  0  0  0  0
   -1.2888   -1.9984   -1.7328 H   0  0  0  0  0  0  0  0  0  0  0  0
    0.8471   -2.3387   -1.5123 C   0  0  0  0  0  0  0  0  0  0  0  0
    1.0962   -1.6202   -2.3013 H   0  0  0  0  0  0  0  0  0  0  0  0
    1.5945   -2.2567   -0.7153 H   0  0  0  0  0  0  0  0  0  0  0  0
    0.8338   -3.7126   -2.0473 N   0  3  0  0  0  0  0  0  0  0  0  0
    0.0255   -4.2889   -1.8147 H   0  0  0  0  0  0  0  0  0  0  0  0
    1.8112   -4.2343   -2.7300 C   0  0  0  0  0  0  0  0  0  0  0  0
    2.9510   -3.5213   -3.0246 N   0  0  0  0  0  0  0  0  0  0  0  0
    3.0868   -2.6291   -2.5539 H   0  0  0  0  0  0  0  0  0  0  0  0
    3.7768   -4.0284   -3.3366 H   0  0  0  0  0  0  0  0  0  0  0  0
    1.7140   -5.5333   -3.1689 N   0  0  0  0  0  0  0  0  0  0  0  0
    0.8144   -6.0061   -3.1047 H   0  0  0  0  0  0  0  0  0  0  0  0
    2.3767   -5.8612   -3.8691 H   0  0  0  0  0  0  0  0  0  0  0  0
   -1.4055    0.8717    1.5720 C   0  0  0  0  0  0  0  0  0  0  0  0
   -2.3387    1.5183    1.1129 O   0  0  0  0  0  0  0  0  0  0  0  0
   -0.5652    1.4487    2.5066 N   0  0  0  0  0  0  0  0  0  0  0  0
    0.1380    0.8585    2.9423 H   0  0  0  0  0  0  0  0  0  0  0  0
   -0.7646    2.7981    3.0262 C   0  0  0  0  0  0  0  0  0  0  0  0
   -1.7281    2.8719    3.5420 H   0  0  0  0  0  0  0  0  0  0  0  0
    0.0279    3.0534    3.7367 H   0  0  0  0  0  0  0  0  0  0  0  0
   -0.7452    3.5306    2.2120 H   0  0  0  0  0  0  0  0  0  0  0  0
  1  2  1  0  0  0  0
  2  3  1  0  0  0  0
  2  4  1  0  0  0  0
  2  5  1  0  0  0  0
  5  6  2  0  0  0  0
  5  7  1  0  0  0  0
  7  8  1  0  0  0  0
  7  9  1  0  0  0  0
  9 10  1  0  0  0  0
  9 11  1  0  0  0  0
  9 29  1  0  0  0  0
 11 12  1  0  0  0  0
 11 13  1  0  0  0  0
 11 14  1  0  0  0  0
 14 15  1  0  0  0  0
 14 16  1  0  0  0  0
 14 17  1  0  0  0  0
 17 18  1  0  0  0  0
 17 19  1  0  0  0  0
 17 20  1  0  0  0  0
 20 21  1  0  0  0  0
 20 22  2  0  0  0  0
 22 23  1  0  0  0  0
 22 26  1  0  0  0  0
 23 24  1  0  0  0  0
 23 25  1  0  0  0  0
 26 27  1  0  0  0  0
 26 28  1  0  0  0  0
 29 30  2  0  0  0  0
 29 31  1  0  0  0  0
 31 32  1  0  0  0  0
 31 33  1  0  0  0  0
 33 34  1  0  0  0  0
 33 35  1  0  0  0  0
 33 36  1  0  0  0  0
M  CHG  1  20   1
M  END
$$$$

  -OEChem-03222214013D

 36 35  0     1  0  0  0  0  0999 V2000
   -4.2460   -4.0016    2.2324 H   0  0  0  0  0  0  0  0  0  0  0  0
   -4.2270   -3.0108    1.7700 C   0  0  0  0  0  0  0  0  0  0  0  0
   -4.7857   -2.3179    2.4041 H   0  0  0  0  0  0  0  0  0  0  0  0
   -4.7106   -3.0676    0.7920 H   0  0  0  0  0  0  0  0  0  0  0  0
   -2.7965   -2.5322    1.6161 C   0  0  0  0  0  0  0  0  0  0  0  0
   -1.8674   -3.2659    1.9217 O   0  0  0  0  0  0  0  0  0  0  0  0
   -2.5422   -1.2758    1.1023 N   0  0  0  0  0  0  0  0  0  0  0  0
   -3.3517   -0.6733    0.9459 H   0  0  0  0  0  0  0  0  0  0  0  0
   -1.2327   -0.6007    1.1351 C   0  0  1  0  0  0  0  0  0  0  0  0
   -0.5964   -1.0910    1.8790 H   0  0  0  0  0  0  0  0  0  0  0  0
   -0.5003   -0.6289   -0.2291 C   0  0  0  0  0  0  0  0  0  0  0  0
   -0.9861    0.0979   -0.8904 H   0  0  0  0  0  0  0  0  0  0  0  0
    0.5267   -0.2792   -0.0785 H   0  0  0  0  0  0  0  0  0  0  0  0
   -0.4997   -1.9870   -0.9629 C   0  0  0  0  0  0  0  0  0  0  0  0
   -1.0464   -2.7424   -0.3991 H   0  0  0  0  0  0  0  0  0  0  0  0
   -1.0039   -1.8739   -1.9288 H   0  0  0  0  0  0  0  0  0  0  0  0
    0.9283   -2.4826   -1.1827 C   0  0  0  0  0  0  0  0  0  0  0  0
    1.4428   -1.8082   -1.8764 H   0  0  0  0  0  0  0  0  0  0  0  0
    1.4600   -2.4730   -0.2246 H   0  0  0  0  0  0  0  0  0  0  0  0
    0.8944   -3.8551   -1.7198 N   0  3  0  0  0  0  0  0  0  0  0  0
   -0.0056   -4.3336   -1.7002 H   0  0  0  0  0  0  0  0  0  0  0  0
    1.9484   -4.5008   -2.1267 C   0  0  0  0  0  0  0  0  0  0  0  0
    3.1999   -3.9284   -2.1135 N   0  0  0  0  0  0  0  0  0  0  0  0
    3.3116   -3.0455   -1.6195 H   0  0  0  0  0  0  0  0  0  0  0  0
    4.0137   -4.5334   -2.2026 H   0  0  0  0  0  0  0  0  0  0  0  0
    1.8189   -5.7924   -2.5786 N   0  0  0  0  0  0  0  0  0  0  0  0
    0.8852   -6.1614   -2.7481 H   0  0  0  0  0  0  0  0  0  0  0  0
    2.5986   -6.2146   -3.0793 H   0  0  0  0  0  0  0  0  0  0  0  0
   -1.4161    0.8669    1.5739 C   0  0  0  0  0  0  0  0  0  0  0  0
   -2.3507    1.5139    1.1186 O   0  0  0  0  0  0  0  0  0  0  0  0
   -0.5770    1.4418    2.5112 N   0  0  0  0  0  0  0  0  0  0  0  0
    0.1284    0.8524    2.9440 H   0  0  0  0  0  0  0  0  0  0  0  0
   -0.7720    2.7930    3.0275 C   0  0  0  0  0  0  0  0  0  0  0  0
   -1.7349    2.8711    3.5437 H   0  0  0  0  0  0  0  0  0  0  0  0
    0.0217    3.0481    3.7365 H   0  0  0  0  0  0  0  0  0  0  0  0
   -0.7512    3.5230    2.2112 H   0  0  0  0  0  0  0  0  0  0  0  0
  1  2  1  0  0  0  0
  2  3  1  0  0  0  0
  2  4  1  0  0  0  0
  2  5  1  0  0  0  0
  5  6  2  0  0  0  0
  5  7  1  0  0  0  0
  7  8  1  0  0  0  0
  7  9  1  0  0  0  0
  9 10  1  0  0  0  0
  9 11  1  0  0  0  0
  9 29  1  0  0  0  0
 11 12  1  0  0  0  0
 11 13  1  0  0  0  0
 11 14  1  0  0  0  0
 14 15  1  0  0  0  0
 14 16  1  0  0  0  0
 14 17  1  0  0  0  0
 17 18  1  0  0  0  0
 17 19  1  0  0  0  0
 17 20  1  0  0  0  0
 20 21  1  0  0  0  0
 20 22  2  0  0  0  0
 22 23  1  0  0  0  0
 22 26  1  0  0  0  0
 23 24  1  0  0  0  0
 23 25  1  0  0  0  0
 26 27  1  0  0  0  0
 26 28  1  0  0  0  0
 29 30  2  0  0  0  0
 29 31  1  0  0  0  0
 31 32  1  0  0  0  0
 31 33  1  0  0  0  0
 33 34  1  0  0  0  0
 33 35  1  0  0  0  0
 33 36  1  0  0  0  0
M  CHG  1  20   1
M  END
$$$$

  -OEChem-03222214013D

 36 35  0     1  0  0  0  0  0999 V2000
   -4.1911   -4.0223    2.2333 H   0  0  0  0  0  0  0  0  0  0  0  0
   -4.1927   -3.0316    1.7701 C   0  0  0  0  0  0  0  0  0  0  0  0
   -4.7444   -2.3443    2.4164 H   0  0  0  0  0  0  0  0  0  0  0  0
   -4.6973   -3.0943    0.8031 H   0  0  0  0  0  0  0  0  0  0  0  0
   -2.7711   -2.5381    1.5831 C   0  0  0  0  0  0  0  0  0  0  0  0
   -1.8260   -3.2747    1.8307 O   0  0  0  0  0  0  0  0  0  0  0  0
   -2.5391   -1.2730    1.0801 N   0  0  0  0  0  0  0  0  0  0  0  0
   -3.3555   -0.6721    0.9554 H   0  0  0  0  0  0  0  0  0  0  0  0
   -1.2350   -0.5893    1.1193 C   0  0  1  0  0  0  0  0  0  0  0  0
   -0.6008   -1.0794    1.8654 H   0  0  0  0  0  0  0  0  0  0  0  0
   -0.4865   -0.6105   -0.2355 C   0  0  0  0  0  0  0  0  0  0  0  0
   -0.9919    0.1024   -0.8971 H   0  0  0  0  0  0  0  0  0  0  0  0
    0.5340   -0.2388   -0.0936 H   0  0  0  0  0  0  0  0  0  0  0  0
   -0.4686   -1.9690   -0.9673 C   0  0  0  0  0  0  0  0  0  0  0  0
   -1.2463   -2.6413   -0.6044 H   0  0  0  0  0  0  0  0  0  0  0  0
   -0.6721   -1.7954   -2.0296 H   0  0  0  0  0  0  0  0  0  0  0  0
    0.9037   -2.6259   -0.8378 C   0  0  0  0  0  0  0  0  0  0  0  0
    1.6456   -2.0285   -1.3790 H   0  0  0  0  0  0  0  0  0  0  0  0
    1.1814   -2.6559    0.2218 H   0  0  0  0  0  0  0  0  0  0  0  0
    0.8466   -3.9978   -1.3737 N   0  3  0  0  0  0  0  0  0  0  0  0
   -0.0792   -4.3733   -1.5754 H   0  0  0  0  0  0  0  0  0  0  0  0
    1.8859   -4.7711   -1.4960 C   0  0  0  0  0  0  0  0  0  0  0  0
    3.1506   -4.3441   -1.1614 N   0  0  0  0  0  0  0  0  0  0  0  0
    3.2316   -3.4693   -0.6476 H   0  0  0  0  0  0  0  0  0  0  0  0
    3.8802   -5.0422   -1.0331 H   0  0  0  0  0  0  0  0  0  0  0  0
    1.7264   -6.0521   -1.9680 N   0  0  0  0  0  0  0  0  0  0  0  0
    0.8302   -6.3179   -2.3714 H   0  0  0  0  0  0  0  0  0  0  0  0
    2.5535   -6.5726   -2.2542 H   0  0  0  0  0  0  0  0  0  0  0  0
   -1.4272    0.8722    1.5742 C   0  0  0  0  0  0  0  0  0  0  0  0
   -2.3708    1.5155    1.1327 O   0  0  0  0  0  0  0  0  0  0  0  0
   -0.5909    1.4426    2.5168 N   0  0  0  0  0  0  0  0  0  0  0  0
    0.1275    0.8582    2.9343 H   0  0  0  0  0  0  0  0  0  0  0  0
   -0.7853    2.7923    3.0372 C   0  0  0  0  0  0  0  0  0  0  0  0
   -1.7491    2.8697    3.5517 H   0  0  0  0  0  0  0  0  0  0  0  0
    0.0074    3.0441    3.7486 H   0  0  0  0  0  0  0  0  0  0  0  0
   -0.7619    3.5247    2.2230 H   0  0  0  0  0  0  0  0  0  0  0  0
  1  2  1  0  0  0  0
  2  3  1  0  0  0  0
  2  4  1  0  0  0  0
  2  5  1  0  0  0  0
  5  6  2  0  0  0  0
  5  7  1  0  0  0  0
  7  8  1  0  0  0  0
  7  9  1  0  0  0  0
  9 10  1  0  0  0  0
  9 11  1  0  0  0  0
  9 29  1  0  0  0  0
 11 12  1  0  0  0  0
 11 13  1  0  0  0  0
 11 14  1  0  0  0  0
 14 15  1  0  0  0  0
 14 16  1  0  0  0  0
 14 17  1  0  0  0  0
 17 18  1  0  0  0  0
 17 19  1  0  0  0  0
 17 20  1  0  0  0  0
 20 21  1  0  0  0  0
 20 22  2  0  0  0  0
 22 23  1  0  0  0  0
 22 26  1  0  0  0  0
 23 24  1  0  0  0  0
 23 25  1  0  0  0  0
 26 27  1  0  0  0  0
 26 28  1  0  0  0  0
 29 30  2  0  0  0  0
 29 31  1  0  0  0  0
 31 32  1  0  0  0  0
 31 33  1  0  0  0  0
 33 34  1  0  0  0  0
 33 35  1  0  0  0  0
 33 36  1  0  0  0  0
M  CHG  1  20   1
M  END
$$$$

  -OEChem-03222214013D

 36 35  0     1  0  0  0  0  0999 V2000
   -3.2266   -4.4388    2.5406 H   0  0  0  0  0  0  0  0  0  0  0  0
   -3.4449   -3.4460    2.1377 C   0  0  0  0  0  0  0  0  0  0  0  0
   -3.9508   -2.8600    2.9094 H   0  0  0  0  0  0  0  0  0  0  0  0
   -4.1122   -3.5517    1.2787 H   0  0  0  0  0  0  0  0  0  0  0  0
   -2.1628   -2.7521    1.7197 C   0  0  0  0  0  0  0  0  0  0  0  0
   -1.0903   -3.3439    1.7830 O   0  0  0  0  0  0  0  0  0  0  0  0
   -2.2070   -1.4759    1.1989 N   0  0  0  0  0  0  0  0  0  0  0  0
   -3.1165   -1.0097    1.2096 H   0  0  0  0  0  0  0  0  0  0  0  0
   -1.0402   -0.5867    1.0724 C   0  0  1  0  0  0  0  0  0  0  0  0
   -0.2457   -0.9501    1.7323 H   0  0  0  0  0  0  0  0  0  0  0  0
   -0.4735   -0.5188   -0.3639 C   0  0  0  0  0  0  0  0  0  0  0  0
   -1.1699    0.0821   -0.9600 H   0  0  0  0  0  0  0  0  0  0  0  0
    0.4836    0.0142   -0.3601 H   0  0  0  0  0  0  0  0  0  0  0  0
   -0.3259   -1.8758   -1.0773 C   0  0  0  0  0  0  0  0  0  0  0  0
   -1.1198   -2.5754   -0.8077 H   0  0  0  0  0  0  0  0  0  0  0  0
   -0.4103   -1.7055   -2.1558 H   0  0  0  0  0  0  0  0  0  0  0  0
    1.0538   -2.4656   -0.7923 C   0  0  0  0  0  0  0  0  0  0  0  0
    1.8243   -1.7676   -1.1384 H   0  0  0  0  0  0  0  0  0  0  0  0
    1.1832   -2.5877    0.2887 H   0  0  0  0  0  0  0  0  0  0  0  0
    1.2125   -3.7612   -1.4790 N   0  3  0  0  0  0  0  0  0  0  0  0
    1.4607   -3.7300   -2.4668 H   0  0  0  0  0  0  0  0  0  0  0  0
    1.1088   -4.9173   -0.8871 C   0  0  0  0  0  0  0  0  0  0  0  0
    0.7601   -5.0420    0.4373 N   0  0  0  0  0  0  0  0  0  0  0  0
    0.3025   -4.2386    0.8819 H   0  0  0  0  0  0  0  0  0  0  0  0
    0.4893   -5.9608    0.7767 H   0  0  0  0  0  0  0  0  0  0  0  0
    1.3586   -6.0634   -1.6036 N   0  0  0  0  0  0  0  0  0  0  0  0
    1.8002   -5.9808   -2.5169 H   0  0  0  0  0  0  0  0  0  0  0  0
    1.4848   -6.9337   -1.0907 H   0  0  0  0  0  0  0  0  0  0  0  0
   -1.4113    0.8310    1.5554 C   0  0  0  0  0  0  0  0  0  0  0  0
   -2.5091    1.2877    1.2640 O   0  0  0  0  0  0  0  0  0  0  0  0
   -0.5688    1.5494    2.3841 N   0  0  0  0  0  0  0  0  0  0  0  0
    0.3149    1.1275    2.6546 H   0  0  0  0  0  0  0  0  0  0  0  0
   -0.9102    2.8652    2.9170 C   0  0  0  0  0  0  0  0  0  0  0  0
   -1.8132    2.8078    3.5343 H   0  0  0  0  0  0  0  0  0  0  0  0
   -0.0934    3.2486    3.5363 H   0  0  0  0  0  0  0  0  0  0  0  0
   -1.0871    3.5756    2.1022 H   0  0  0  0  0  0  0  0  0  0  0  0
  1  2  1  0  0  0  0
  2  3  1  0  0  0  0
  2  4  1  0  0  0  0
  2  5  1  0  0  0  0
  5  6  2  0  0  0  0
  5  7  1  0  0  0  0
  7  8  1  0  0  0  0
  7  9  1  0  0  0  0
  9 10  1  0  0  0  0
  9 11  1  0  0  0  0
  9 29  1  0  0  0  0
 11 12  1  0  0  0  0
 11 13  1  0  0  0  0
 11 14  1  0  0  0  0
 14 15  1  0  0  0  0
 14 16  1  0  0  0  0
 14 17  1  0  0  0  0
 17 18  1  0  0  0  0
 17 19  1  0  0  0  0
 17 20  1  0  0  0  0
 20 21  1  0  0  0  0
 20 22  2  0  0  0  0
 22 23  1  0  0  0  0
 22 26  1  0  0  0  0
 23 24  1  0  0  0  0
 23 25  1  0  0  0  0
 26 27  1  0  0  0  0
 26 28  1  0  0  0  0
 29 30  2  0  0  0  0
 29 31  1  0  0  0  0
 31 32  1  0  0  0  0
 31 33  1  0  0  0  0
 33 34  1  0  0  0  0
 33 35  1  0  0  0  0
 33 36  1  0  0  0  0
M  CHG  1  20   1
M  END
$$$$

  -OEChem-03222214013D

 36 35  0     1  0  0  0  0  0999 V2000
   -3.4698   -4.3743    2.4806 H   0  0  0  0  0  0  0  0  0  0  0  0
   -3.6241   -3.3627    2.0958 C   0  0  0  0  0  0  0  0  0  0  0  0
   -4.1444   -2.7740    2.8560 H   0  0  0  0  0  0  0  0  0  0  0  0
   -4.2485   -3.4163    1.2004 H   0  0  0  0  0  0  0  0  0  0  0  0
   -2.2937   -2.7150    1.7643 C   0  0  0  0  0  0  0  0  0  0  0  0
   -1.2485   -3.3326    1.9311 O   0  0  0  0  0  0  0  0  0  0  0  0
   -2.2689   -1.4461    1.2272 N   0  0  0  0  0  0  0  0  0  0  0  0
   -3.1667   -0.9611    1.1690 H   0  0  0  0  0  0  0  0  0  0  0  0
   -1.0801   -0.5845    1.1150 C   0  0  1  0  0  0  0  0  0  0  0  0
   -0.3067   -0.9575    1.7939 H   0  0  0  0  0  0  0  0  0  0  0  0
   -0.4964   -0.5533   -0.3165 C   0  0  0  0  0  0  0  0  0  0  0  0
   -1.1606    0.0622   -0.9342 H   0  0  0  0  0  0  0  0  0  0  0  0
    0.4793   -0.0560   -0.3013 H   0  0  0  0  0  0  0  0  0  0  0  0
   -0.3724   -1.9227   -1.0065 C   0  0  0  0  0  0  0  0  0  0  0  0
   -1.2996   -2.4960   -0.9160 H   0  0  0  0  0  0  0  0  0  0  0  0
   -0.1956   -1.7614   -2.0751 H   0  0  0  0  0  0  0  0  0  0  0  0
    0.8070   -2.6970   -0.4174 C   0  0  0  0  0  0  0  0  0  0  0  0
    1.7268   -2.1224   -0.5726 H   0  0  0  0  0  0  0  0  0  0  0  0
    0.6680   -2.8068    0.6624 H   0  0  0  0  0  0  0  0  0  0  0  0
    0.9349   -4.0166   -1.0654 N   0  3  0  0  0  0  0  0  0  0  0  0
    1.1362   -4.0196   -2.0640 H   0  0  0  0  0  0  0  0  0  0  0  0
    0.8902   -5.1509   -0.4253 C   0  0  0  0  0  0  0  0  0  0  0  0
    0.6166   -5.2294    0.9197 N   0  0  0  0  0  0  0  0  0  0  0  0
    0.1466   -4.4206    1.3410 H   0  0  0  0  0  0  0  0  0  0  0  0
    0.3839   -6.1398    1.3067 H   0  0  0  0  0  0  0  0  0  0  0  0
    1.1310   -6.3191   -1.1089 N   0  0  0  0  0  0  0  0  0  0  0  0
    1.5200   -6.2625   -2.0478 H   0  0  0  0  0  0  0  0  0  0  0  0
    1.3129   -7.1629   -0.5689 H   0  0  0  0  0  0  0  0  0  0  0  0
   -1.4301    0.8491    1.5655 C   0  0  0  0  0  0  0  0  0  0  0  0
   -2.5118    1.3242    1.2443 O   0  0  0  0  0  0  0  0  0  0  0  0
   -0.5908    1.5615    2.4025 N   0  0  0  0  0  0  0  0  0  0  0  0
    0.2787    1.1258    2.6958 H   0  0  0  0  0  0  0  0  0  0  0  0
   -0.9141    2.8921    2.9087 C   0  0  0  0  0  0  0  0  0  0  0  0
   -1.8222    2.8607    3.5204 H   0  0  0  0  0  0  0  0  0  0  0  0
   -0.0951    3.2734    3.5266 H   0  0  0  0  0  0  0  0  0  0  0  0
   -1.0734    3.5901    2.0797 H   0  0  0  0  0  0  0  0  0  0  0  0
  1  2  1  0  0  0  0
  2  3  1  0  0  0  0
  2  4  1  0  0  0  0
  2  5  1  0  0  0  0
  5  6  2  0  0  0  0
  5  7  1  0  0  0  0
  7  8  1  0  0  0  0
  7  9  1  0  0  0  0
  9 10  1  0  0  0  0
  9 11  1  0  0  0  0
  9 29  1  0  0  0  0
 11 12  1  0  0  0  0
 11 13  1  0  0  0  0
 11 14  1  0  0  0  0
 14 15  1  0  0  0  0
 14 16  1  0  0  0  0
 14 17  1  0  0  0  0
 17 18  1  0  0  0  0
 17 19  1  0  0  0  0
 17 20  1  0  0  0  0
 20 21  1  0  0  0  0
 20 22  2  0  0  0  0
 22 23  1  0  0  0  0
 22 26  1  0  0  0  0
 23 24  1  0  0  0  0
 23 25  1  0  0  0  0
 26 27  1  0  0  0  0
 26 28  1  0  0  0  0
 29 30  2  0  0  0  0
 29 31  1  0  0  0  0
 31 32  1  0  0  0  0
 31 33  1  0  0  0  0
 33 34  1  0  0  0  0
 33 35  1  0  0  0  0
 33 36  1  0  0  0  0
M  CHG  1  20   1
M  END
$$$$

  -OEChem-03222214013D

 36 35  0     1  0  0  0  0  0999 V2000
   -3.7327   -4.2786    2.4549 H   0  0  0  0  0  0  0  0  0  0  0  0
   -3.8001   -3.2911    1.9901 C   0  0  0  0  0  0  0  0  0  0  0  0
   -4.4223   -2.6503    2.6204 H   0  0  0  0  0  0  0  0  0  0  0  0
   -4.2746   -3.3929    1.0109 H   0  0  0  0  0  0  0  0  0  0  0  0
   -2.4189   -2.6827    1.8396 C   0  0  0  0  0  0  0  0  0  0  0  0
   -1.4354   -3.3107    2.2071 O   0  0  0  0  0  0  0  0  0  0  0  0
   -2.2893   -1.4299    1.2798 N   0  0  0  0  0  0  0  0  0  0  0  0
   -3.1628   -0.9347    1.0888 H   0  0  0  0  0  0  0  0  0  0  0  0
   -1.0748   -0.5963    1.2039 C   0  0  1  0  0  0  0  0  0  0  0  0
   -0.3314   -0.9727    1.9138 H   0  0  0  0  0  0  0  0  0  0  0  0
   -0.4606   -0.5796   -0.2197 C   0  0  0  0  0  0  0  0  0  0  0  0
   -1.0820    0.0655   -0.8517 H   0  0  0  0  0  0  0  0  0  0  0  0
    0.5304   -0.1159   -0.1645 H   0  0  0  0  0  0  0  0  0  0  0  0
   -0.3380   -1.9310   -0.9426 C   0  0  0  0  0  0  0  0  0  0  0  0
   -1.3358   -2.3636   -1.0698 H   0  0  0  0  0  0  0  0  0  0  0  0
    0.0834   -1.7714   -1.9406 H   0  0  0  0  0  0  0  0  0  0  0  0
    0.5498   -2.8959   -0.1561 C   0  0  0  0  0  0  0  0  0  0  0  0
    1.5778   -2.5171   -0.1669 H   0  0  0  0  0  0  0  0  0  0  0  0
    0.2303   -2.9271    0.8849 H   0  0  0  0  0  0  0  0  0  0  0  0
    0.5145   -4.2414   -0.7597 N   0  3  0  0  0  0  0  0  0  0  0  0
    0.6234   -4.2942   -1.7711 H   0  0  0  0  0  0  0  0  0  0  0  0
    0.4591   -5.3453   -0.0695 C   0  0  0  0  0  0  0  0  0  0  0  0
    0.3165   -5.3533    1.2979 N   0  0  0  0  0  0  0  0  0  0  0  0
   -0.0743   -4.5040    1.7197 H   0  0  0  0  0  0  0  0  0  0  0  0
    0.0712   -6.2321    1.7453 H   0  0  0  0  0  0  0  0  0  0  0  0
    0.5522   -6.5524   -0.7207 N   0  0  0  0  0  0  0  0  0  0  0  0
    0.8492   -6.5603   -1.6943 H   0  0  0  0  0  0  0  0  0  0  0  0
    0.7249   -7.3870   -0.1637 H   0  0  0  0  0  0  0  0  0  0  0  0
   -1.4209    0.8552    1.5981 C   0  0  0  0  0  0  0  0  0  0  0  0
   -2.4691    1.3448    1.1966 O   0  0  0  0  0  0  0  0  0  0  0  0
   -0.6120    1.5754    2.4580 N   0  0  0  0  0  0  0  0  0  0  0  0
    0.2280    1.1291    2.8151 H   0  0  0  0  0  0  0  0  0  0  0  0
   -0.9291    2.9293    2.9018 C   0  0  0  0  0  0  0  0  0  0  0  0
   -1.8684    2.9390    3.4649 H   0  0  0  0  0  0  0  0  0  0  0  0
   -0.1341    3.3121    3.5491 H   0  0  0  0  0  0  0  0  0  0  0  0
   -1.0276    3.6024    2.0433 H   0  0  0  0  0  0  0  0  0  0  0  0
  1  2  1  0  0  0  0
  2  3  1  0  0  0  0
  2  4  1  0  0  0  0
  2  5  1  0  0  0  0
  5  6  2  0  0  0  0
  5  7  1  0  0  0  0
  7  8  1  0  0  0  0
  7  9  1  0  0  0  0
  9 10  1  0  0  0  0
  9 11  1  0  0  0  0
  9 29  1  0  0  0  0
 11 12  1  0  0  0  0
 11 13  1  0  0  0  0
 11 14  1  0  0  0  0
 14 15  1  0  0  0  0
 14 16  1  0  0  0  0
 14 17  1  0  0  0  0
 17 18  1  0  0  0  0
 17 19  1  0  0  0  0
 17 20  1  0  0  0  0
 20 21  1  0  0  0  0
 20 22  2  0  0  0  0
 22 23  1  0  0  0  0
 22 26  1  0  0  0  0
 23 24  1  0  0  0  0
 23 25  1  0  0  0  0
 26 27  1  0  0  0  0
 26 28  1  0  0  0  0
 29 30  2  0  0  0  0
 29 31  1  0  0  0  0
 31 32  1  0  0  0  0
 31 33  1  0  0  0  0
 33 34  1  0  0  0  0
 33 35  1  0  0  0  0
 33 36  1  0  0  0  0
M  CHG  1  20   1
M  END
$$$$

  -OEChem-03222214013D

 36 35  0     1  0  0  0  0  0999 V2000
   -3.9554   -4.1657    2.4870 H   0  0  0  0  0  0  0  0  0  0  0  0
   -3.9377   -3.2017    1.9712 C   0  0  0  0  0  0  0  0  0  0  0  0
   -4.6060   -2.5131    2.4953 H   0  0  0  0  0  0  0  0  0  0  0  0
   -4.3013   -3.3397    0.9501 H   0  0  0  0  0  0  0  0  0  0  0  0
   -2.5303   -2.6371    1.9508 C   0  0  0  0  0  0  0  0  0  0  0  0
   -1.6254   -3.2568    2.4927 O   0  0  0  0  0  0  0  0  0  0  0  0
   -2.3104   -1.4169    1.3471 N   0  0  0  0  0  0  0  0  0  0  0  0
   -3.1508   -0.9228    1.0400 H   0  0  0  0  0  0  0  0  0  0  0  0
   -1.0753   -0.6089    1.2962 C   0  0  1  0  0  0  0  0  0  0  0  0
   -0.3689   -0.9687    2.0514 H   0  0  0  0  0  0  0  0  0  0  0  0
   -0.4003   -0.6213   -0.1068 C   0  0  0  0  0  0  0  0  0  0  0  0
   -0.9659    0.0443   -0.7695 H   0  0  0  0  0  0  0  0  0  0  0  0
    0.5958   -0.1807    0.0089 H   0  0  0  0  0  0  0  0  0  0  0  0
   -0.2406   -1.9553   -0.8597 C   0  0  0  0  0  0  0  0  0  0  0  0
   -1.2272   -2.2406   -1.2406 H   0  0  0  0  0  0  0  0  0  0  0  0
    0.4206   -1.8184   -1.7218 H   0  0  0  0  0  0  0  0  0  0  0  0
    0.2843   -3.0778    0.0310 C   0  0  0  0  0  0  0  0  0  0  0  0
    1.3593   -2.9296    0.1825 H   0  0  0  0  0  0  0  0  0  0  0  0
   -0.1851   -3.0138    1.0050 H   0  0  0  0  0  0  0  0  0  0  0  0
    0.0493   -4.4017   -0.5745 N   0  3  0  0  0  0  0  0  0  0  0  0
    0.0921   -4.4611   -1.5905 H   0  0  0  0  0  0  0  0  0  0  0  0
   -0.0911   -5.4931    0.1237 C   0  0  0  0  0  0  0  0  0  0  0  0
   -0.1446   -5.4840    1.4983 N   0  0  0  0  0  0  0  0  0  0  0  0
   -0.3902   -4.5924    1.9421 H   0  0  0  0  0  0  0  0  0  0  0  0
   -0.4655   -6.3258    1.9689 H   0  0  0  0  0  0  0  0  0  0  0  0
   -0.1847   -6.7020   -0.5237 N   0  0  0  0  0  0  0  0  0  0  0  0
    0.0462   -6.7429   -1.5143 H   0  0  0  0  0  0  0  0  0  0  0  0
   -0.0714   -7.5514    0.0264 H   0  0  0  0  0  0  0  0  0  0  0  0
   -1.4329    0.8622    1.6027 C   0  0  0  0  0  0  0  0  0  0  0  0
   -2.4527    1.3384    1.1187 O   0  0  0  0  0  0  0  0  0  0  0  0
   -0.6689    1.6188    2.4722 N   0  0  0  0  0  0  0  0  0  0  0  0
    0.1379    1.1811    2.9080 H   0  0  0  0  0  0  0  0  0  0  0  0
   -1.0057    2.9908    2.8400 C   0  0  0  0  0  0  0  0  0  0  0  0
   -1.9758    3.0262    3.3474 H   0  0  0  0  0  0  0  0  0  0  0  0
   -0.2482    3.4000    3.5155 H   0  0  0  0  0  0  0  0  0  0  0  0
   -1.0518    3.6273    1.9497 H   0  0  0  0  0  0  0  0  0  0  0  0
  1  2  1  0  0  0  0
  2  3  1  0  0  0  0
  2  4  1  0  0  0  0
  2  5  1  0  0  0  0
  5  6  2  0  0  0  0
  5  7  1  0  0  0  0
  7  8  1  0  0  0  0
  7  9  1  0  0  0  0
  9 10  1  0  0  0  0
  9 11  1  0  0  0  0
  9 29  1  0  0  0  0
 11 12  1  0  0  0  0
 11 13  1  0  0  0  0
 11 14  1  0  0  0  0
 14 15  1  0  0  0  0
 14 16  1  0  0  0  0
 14 17  1  0  0  0  0
 17 18  1  0  0  0  0
 17 19  1  0  0  0  0
 17 20  1  0  0  0  0
 20 21  1  0  0  0  0
 20 22  2  0  0  0  0
 22 23  1  0  0  0  0
 22 26  1  0  0  0  0
 23 24  1  0  0  0  0
 23 25  1  0  0  0  0
 26 27  1  0  0  0  0
 26 28  1  0  0  0  0
 29 30  2  0  0  0  0
 29 31  1  0  0  0  0
 31 32  1  0  0  0  0
 31 33  1  0  0  0  0
 33 34  1  0  0  0  0
 33 35  1  0  0  0  0
 33 36  1  0  0  0  0
M  CHG  1  20   1
M  END
$$$$

  -OEChem-03222214013D

 36 35  0     1  0  0  0  0  0999 V2000
   -4.6209   -3.6547    2.6820 H   0  0  0  0  0  0  0  0  0  0  0  0
   -4.4823   -2.7190    2.1336 C   0  0  0  0  0  0  0  0  0  0  0  0
   -4.9930   -1.9184    2.6751 H   0  0  0  0  0  0  0  0  0  0  0  0
   -4.9319   -2.8195    1.1428 H   0  0  0  0  0  0  0  0  0  0  0  0
   -3.0065   -2.3946    2.0048 C   0  0  0  0  0  0  0  0  0  0  0  0
   -2.1737   -3.1746    2.4571 O   0  0  0  0  0  0  0  0  0  0  0  0
   -2.6279   -1.2241    1.3731 N   0  0  0  0  0  0  0  0  0  0  0  0
   -3.3860   -0.5869    1.1192 H   0  0  0  0  0  0  0  0  0  0  0  0
   -1.2739   -0.6387    1.3060 C   0  0  1  0  0  0  0  0  0  0  0  0
   -0.6452   -1.0981    2.0754 H   0  0  0  0  0  0  0  0  0  0  0  0
   -0.5560   -0.7503   -0.0764 C   0  0  0  0  0  0  0  0  0  0  0  0
   -0.9735    0.0102   -0.7468 H   0  0  0  0  0  0  0  0  0  0  0  0
    0.4918   -0.4790    0.0920 H   0  0  0  0  0  0  0  0  0  0  0  0
   -0.5701   -2.0787   -0.8631 C   0  0  0  0  0  0  0  0  0  0  0  0
   -1.4398   -2.0976   -1.5289 H   0  0  0  0  0  0  0  0  0  0  0  0
    0.3284   -2.1234   -1.4878 H   0  0  0  0  0  0  0  0  0  0  0  0
   -0.6362   -3.2840    0.0526 C   0  0  0  0  0  0  0  0  0  0  0  0
   -0.0622   -3.0670    0.9602 H   0  0  0  0  0  0  0  0  0  0  0  0
   -1.6839   -3.4228    0.3211 H   0  0  0  0  0  0  0  0  0  0  0  0
   -0.1562   -4.5439   -0.5290 N   0  3  0  0  0  0  0  0  0  0  0  0
    0.1771   -4.5394   -1.4917 H   0  0  0  0  0  0  0  0  0  0  0  0
   -0.2062   -5.6503    0.1569 C   0  0  0  0  0  0  0  0  0  0  0  0
   -0.6857   -5.6695    1.4514 N   0  0  0  0  0  0  0  0  0  0  0  0
   -1.1285   -4.8195    1.8184 H   0  0  0  0  0  0  0  0  0  0  0  0
   -0.9354   -6.5588    1.8765 H   0  0  0  0  0  0  0  0  0  0  0  0
    0.2210   -6.8273   -0.4099 N   0  0  0  0  0  0  0  0  0  0  0  0
    0.7378   -6.7882   -1.2860 H   0  0  0  0  0  0  0  0  0  0  0  0
    0.3724   -7.6292    0.1991 H   0  0  0  0  0  0  0  0  0  0  0  0
   -1.3906    0.8732    1.6035 C   0  0  0  0  0  0  0  0  0  0  0  0
   -2.3260    1.5045    1.1267 O   0  0  0  0  0  0  0  0  0  0  0  0
   -0.5090    1.5018    2.4636 N   0  0  0  0  0  0  0  0  0  0  0  0
    0.2251    0.9445    2.8910 H   0  0  0  0  0  0  0  0  0  0  0  0
   -0.6200    2.9114    2.8266 C   0  0  0  0  0  0  0  0  0  0  0  0
   -1.5731    3.1051    3.3304 H   0  0  0  0  0  0  0  0  0  0  0  0
    0.1915    3.1948    3.5042 H   0  0  0  0  0  0  0  0  0  0  0  0
   -0.5602    3.5436    1.9342 H   0  0  0  0  0  0  0  0  0  0  0  0
  1  2  1  0  0  0  0
  2  3  1  0  0  0  0
  2  4  1  0  0  0  0
  2  5  1  0  0  0  0
  5  6  2  0  0  0  0
  5  7  1  0  0  0  0
  7  8  1  0  0  0  0
  7  9  1  0  0  0  0
  9 10  1  0  0  0  0
  9 11  1  0  0  0  0
  9 29  1  0  0  0  0
 11 12  1  0  0  0  0
 11 13  1  0  0  0  0
 11 14  1  0  0  0  0
 14 15  1  0  0  0  0
 14 16  1  0  0  0  0
 14 17  1  0  0  0  0
 17 18  1  0  0  0  0
 17 19  1  0  0  0  0
 17 20  1  0  0  0  0
 20 21  1  0  0  0  0
 20 22  2  0  0  0  0
 22 23  1  0  0  0  0
 22 26  1  0  0  0  0
 23 24  1  0  0  0  0
 23 25  1  0  0  0  0
 26 27  1  0  0  0  0
 26 28  1  0  0  0  0
 29 30  2  0  0  0  0
 29 31  1  0  0  0  0
 31 32  1  0  0  0  0
 31 33  1  0  0  0  0
 33 34  1  0  0  0  0
 33 35  1  0  0  0  0
 33 36  1  0  0  0  0
M  CHG  1  20   1
M  END
$$$$

  -OEChem-03222214013D

 36 35  0     1  0  0  0  0  0999 V2000
   -4.8823   -3.4601    2.6450 H   0  0  0  0  0  0  0  0  0  0  0  0
   -4.6750   -2.5320    2.1054 C   0  0  0  0  0  0  0  0  0  0  0  0
   -5.1410   -1.7030    2.6448 H   0  0  0  0  0  0  0  0  0  0  0  0
   -5.1153   -2.5971    1.1075 H   0  0  0  0  0  0  0  0  0  0  0  0
   -3.1796   -2.3026    2.0005 C   0  0  0  0  0  0  0  0  0  0  0  0
   -2.4063   -3.1370    2.4580 O   0  0  0  0  0  0  0  0  0  0  0  0
   -2.7197   -1.1615    1.3702 N   0  0  0  0  0  0  0  0  0  0  0  0
   -3.4377   -0.4851    1.1015 H   0  0  0  0  0  0  0  0  0  0  0  0
   -1.3377   -0.6389    1.3322 C   0  0  1  0  0  0  0  0  0  0  0  0
   -0.7572   -1.1166    2.1282 H   0  0  0  0  0  0  0  0  0  0  0  0
   -0.5634   -0.7929   -0.0185 C   0  0  0  0  0  0  0  0  0  0  0  0
   -0.9289   -0.0195   -0.7045 H   0  0  0  0  0  0  0  0  0  0  0  0
    0.4830   -0.5479    0.1943 H   0  0  0  0  0  0  0  0  0  0  0  0
   -0.5687   -2.1133   -0.8261 C   0  0  0  0  0  0  0  0  0  0  0  0
   -1.2098   -1.9927   -1.7061 H   0  0  0  0  0  0  0  0  0  0  0  0
    0.4491   -2.3020   -1.1841 H   0  0  0  0  0  0  0  0  0  0  0  0
   -1.0616   -3.3052   -0.0354 C   0  0  0  0  0  0  0  0  0  0  0  0
   -0.6503   -3.2243    0.9761 H   0  0  0  0  0  0  0  0  0  0  0  0
   -2.1522   -3.2522    0.0224 H   0  0  0  0  0  0  0  0  0  0  0  0
   -0.6756   -4.6079   -0.5952 N   0  3  0  0  0  0  0  0  0  0  0  0
   -0.4061   -4.6486   -1.5768 H   0  0  0  0  0  0  0  0  0  0  0  0
   -0.7511   -5.6961    0.1169 C   0  0  0  0  0  0  0  0  0  0  0  0
   -1.1653   -5.6704    1.4325 N   0  0  0  0  0  0  0  0  0  0  0  0
   -1.5434   -4.7919    1.8055 H   0  0  0  0  0  0  0  0  0  0  0  0
   -1.4487   -6.5380    1.8806 H   0  0  0  0  0  0  0  0  0  0  0  0
   -0.4166   -6.9043   -0.4460 N   0  0  0  0  0  0  0  0  0  0  0  0
    0.0657   -6.9072   -1.3423 H   0  0  0  0  0  0  0  0  0  0  0  0
   -0.2798   -7.7017    0.1723 H   0  0  0  0  0  0  0  0  0  0  0  0
   -1.3996    0.8801    1.6102 C   0  0  0  0  0  0  0  0  0  0  0  0
   -2.2981    1.5422    1.1048 O   0  0  0  0  0  0  0  0  0  0  0  0
   -0.5163    1.4828    2.4869 N   0  0  0  0  0  0  0  0  0  0  0  0
    0.1862    0.9022    2.9362 H   0  0  0  0  0  0  0  0  0  0  0  0
   -0.5814    2.8994    2.8331 C   0  0  0  0  0  0  0  0  0  0  0  0
   -1.5393    3.1347    3.3096 H   0  0  0  0  0  0  0  0  0  0  0  0
    0.2229    3.1583    3.5290 H   0  0  0  0  0  0  0  0  0  0  0  0
   -0.4741    3.5192    1.9361 H   0  0  0  0  0  0  0  0  0  0  0  0
  1  2  1  0  0  0  0
  2  3  1  0  0  0  0
  2  4  1  0  0  0  0
  2  5  1  0  0  0  0
  5  6  2  0  0  0  0
  5  7  1  0  0  0  0
  7  8  1  0  0  0  0
  7  9  1  0  0  0  0
  9 10  1  0  0  0  0
  9 11  1  0  0  0  0
  9 29  1  0  0  0  0
 11 12  1  0  0  0  0
 11 13  1  0  0  0  0
 11 14  1  0  0  0  0
 14 15  1  0  0  0  0
 14 16  1  0  0  0  0
 14 17  1  0  0  0  0
 17 18  1  0  0  0  0
 17 19  1  0  0  0  0
 17 20  1  0  0  0  0
 20 21  1  0  0  0  0
 20 22  2  0  0  0  0
 22 23  1  0  0  0  0
 22 26  1  0  0  0  0
 23 24  1  0  0  0  0
 23 25  1  0  0  0  0
 26 27  1  0  0  0  0
 26 28  1  0  0  0  0
 29 30  2  0  0  0  0
 29 31  1  0  0  0  0
 31 32  1  0  0  0  0
 31 33  1  0  0  0  0
 33 34  1  0  0  0  0
 33 35  1  0  0  0  0
 33 36  1  0  0  0  0
M  CHG  1  20   1
M  END
$$$$

  -OEChem-03222214013D

 36 35  0     1  0  0  0  0  0999 V2000
   -4.9687   -3.3201    2.7654 H   0  0  0  0  0  0  0  0  0  0  0  0
   -4.7442   -2.4284    2.1733 C   0  0  0  0  0  0  0  0  0  0  0  0
   -5.1857   -1.5606    2.6705 H   0  0  0  0  0  0  0  0  0  0  0  0
   -5.1950   -2.5373    1.1838 H   0  0  0  0  0  0  0  0  0  0  0  0
   -3.2445   -2.2424    2.0460 C   0  0  0  0  0  0  0  0  0  0  0  0
   -2.4923   -3.0924    2.5065 O   0  0  0  0  0  0  0  0  0  0  0  0
   -2.7592   -1.1233    1.3957 N   0  0  0  0  0  0  0  0  0  0  0  0
   -3.4638   -0.4339    1.1241 H   0  0  0  0  0  0  0  0  0  0  0  0
   -1.3687   -0.6203    1.3587 C   0  0  1  0  0  0  0  0  0  0  0  0
   -0.8087   -1.0868    2.1759 H   0  0  0  0  0  0  0  0  0  0  0  0
   -0.5592   -0.8126    0.0313 C   0  0  0  0  0  0  0  0  0  0  0  0
   -0.9278   -0.0595   -0.6754 H   0  0  0  0  0  0  0  0  0  0  0  0
    0.4803   -0.5446    0.2501 H   0  0  0  0  0  0  0  0  0  0  0  0
   -0.5348   -2.1419   -0.7656 C   0  0  0  0  0  0  0  0  0  0  0  0
   -0.8895   -1.9532   -1.7848 H   0  0  0  0  0  0  0  0  0  0  0  0
    0.5070   -2.4726   -0.8382 H   0  0  0  0  0  0  0  0  0  0  0  0
   -1.3558   -3.2582   -0.1623 C   0  0  0  0  0  0  0  0  0  0  0  0
   -1.0742   -3.3155    0.8911 H   0  0  0  0  0  0  0  0  0  0  0  0
   -2.4182   -3.0057   -0.2389 H   0  0  0  0  0  0  0  0  0  0  0  0
   -1.1088   -4.5716   -0.7746 N   0  3  0  0  0  0  0  0  0  0  0  0
   -0.7071   -4.5950   -1.7104 H   0  0  0  0  0  0  0  0  0  0  0  0
   -1.3713   -5.6790   -0.1406 C   0  0  0  0  0  0  0  0  0  0  0  0
   -1.9118   -5.6764    1.1283 N   0  0  0  0  0  0  0  0  0  0  0  0
   -1.9863   -4.7795    1.6214 H   0  0  0  0  0  0  0  0  0  0  0  0
   -1.8518   -6.5210    1.6912 H   0  0  0  0  0  0  0  0  0  0  0  0
   -1.1052   -6.8865   -0.7403 N   0  0  0  0  0  0  0  0  0  0  0  0
   -0.8771   -6.9009   -1.7322 H   0  0  0  0  0  0  0  0  0  0  0  0
   -1.5010   -7.7289   -0.3272 H   0  0  0  0  0  0  0  0  0  0  0  0
   -1.4171    0.9053    1.6020 C   0  0  0  0  0  0  0  0  0  0  0  0
   -2.3080    1.5642    1.0790 O   0  0  0  0  0  0  0  0  0  0  0  0
   -0.5356    1.5178    2.4737 N   0  0  0  0  0  0  0  0  0  0  0  0
    0.1545    0.9391    2.9441 H   0  0  0  0  0  0  0  0  0  0  0  0
   -0.5987    2.9391    2.8010 C   0  0  0  0  0  0  0  0  0  0  0  0
   -1.5486    3.1776    3.2915 H   0  0  0  0  0  0  0  0  0  0  0  0
    0.2173    3.2106    3.4782 H   0  0  0  0  0  0  0  0  0  0  0  0
   -0.5092    3.5474    1.8943 H   0  0  0  0  0  0  0  0  0  0  0  0
  1  2  1  0  0  0  0
  2  3  1  0  0  0  0
  2  4  1  0  0  0  0
  2  5  1  0  0  0  0
  5  6  2  0  0  0  0
  5  7  1  0  0  0  0
  7  8  1  0  0  0  0
  7  9  1  0  0  0  0
  9 10  1  0  0  0  0
  9 11  1  0  0  0  0
  9 29  1  0  0  0  0
 11 12  1  0  0  0  0
 11 13  1  0  0  0  0
 11 14  1  0  0  0  0
 14 15  1  0  0  0  0
 14 16  1  0  0  0  0
 14 17  1  0  0  0  0
 17 18  1  0  0  0  0
 17 19  1  0  0  0  0
 17 20  1  0  0  0  0
 20 21  1  0  0  0  0
 20 22  2  0  0  0  0
 22 23  1  0  0  0  0
 22 26  1  0  0  0  0
 23 24  1  0  0  0  0
 23 25  1  0  0  0  0
 26 27  1  0  0  0  0
 26 28  1  0  0  0  0
 29 30  2  0  0  0  0
 29 31  1  0  0  0  0
 31 32  1  0  0  0  0
 31 33  1  0  0  0  0
 33 34  1  0  0  0  0
 33 35  1  0  0  0  0
 33 36  1  0  0  0  0
M  CHG  1  20   1
M  END
$$$$

  -OEChem-03222214013D

 36 35  0     1  0  0  0  0  0999 V2000
   -5.1406   -3.2218    2.7224 H   0  0  0  0  0  0  0  0  0  0  0  0
   -4.8827   -2.2968    2.1992 C   0  0  0  0  0  0  0  0  0  0  0  0
   -5.2622   -1.4509    2.7787 H   0  0  0  0  0  0  0  0  0  0  0  0
   -5.3641   -2.2994    1.2182 H   0  0  0  0  0  0  0  0  0  0  0  0
   -3.3791   -2.1792    2.0429 C   0  0  0  0  0  0  0  0  0  0  0  0
   -2.6560   -3.0747    2.4633 O   0  0  0  0  0  0  0  0  0  0  0  0
   -2.8548   -1.0693    1.4075 N   0  0  0  0  0  0  0  0  0  0  0  0
   -3.5277   -0.3357    1.1735 H   0  0  0  0  0  0  0  0  0  0  0  0
   -1.4407   -0.6411    1.3593 C   0  0  1  0  0  0  0  0  0  0  0  0
   -0.8946   -1.1543    2.1578 H   0  0  0  0  0  0  0  0  0  0  0  0
   -0.6503   -0.8354    0.0202 C   0  0  0  0  0  0  0  0  0  0  0  0
   -1.0128   -0.0536   -0.6577 H   0  0  0  0  0  0  0  0  0  0  0  0
    0.4023   -0.6051    0.2199 H   0  0  0  0  0  0  0  0  0  0  0  0
   -0.6924   -2.1352   -0.8233 C   0  0  0  0  0  0  0  0  0  0  0  0
   -0.7467   -1.8705   -1.8850 H   0  0  0  0  0  0  0  0  0  0  0  0
    0.2584   -2.6563   -0.6665 H   0  0  0  0  0  0  0  0  0  0  0  0
   -1.8073   -3.1013   -0.4896 C   0  0  0  0  0  0  0  0  0  0  0  0
   -1.7702   -3.2417    0.5832 H   0  0  0  0  0  0  0  0  0  0  0  0
   -2.7745   -2.6647   -0.7619 H   0  0  0  0  0  0  0  0  0  0  0  0
   -1.6285   -4.4160   -1.1255 N   0  3  0  0  0  0  0  0  0  0  0  0
   -1.3568   -4.4332   -2.1073 H   0  0  0  0  0  0  0  0  0  0  0  0
   -1.7990   -5.5334   -0.4758 C   0  0  0  0  0  0  0  0  0  0  0  0
   -2.1711   -5.5647    0.8527 N   0  0  0  0  0  0  0  0  0  0  0  0
   -2.1979   -4.6842    1.3782 H   0  0  0  0  0  0  0  0  0  0  0  0
   -2.0520   -6.4261    1.3799 H   0  0  0  0  0  0  0  0  0  0  0  0
   -1.6025   -6.7279   -1.1266 N   0  0  0  0  0  0  0  0  0  0  0  0
   -1.5047   -6.7237   -2.1397 H   0  0  0  0  0  0  0  0  0  0  0  0
   -1.9326   -7.5820   -0.6810 H   0  0  0  0  0  0  0  0  0  0  0  0
   -1.4098    0.8787    1.6399 C   0  0  0  0  0  0  0  0  0  0  0  0
   -2.2702    1.5948    1.1412 O   0  0  0  0  0  0  0  0  0  0  0  0
   -0.4863    1.4247    2.5121 N   0  0  0  0  0  0  0  0  0  0  0  0
    0.1847    0.8015    2.9525 H   0  0  0  0  0  0  0  0  0  0  0  0
   -0.4539    2.8435    2.8530 C   0  0  0  0  0  0  0  0  0  0  0  0
   -1.4004    3.1510    3.3105 H   0  0  0  0  0  0  0  0  0  0  0  0
    0.3534    3.0456    3.5640 H   0  0  0  0  0  0  0  0  0  0  0  0
   -0.2831    3.4494    1.9567 H   0  0  0  0  0  0  0  0  0  0  0  0
  1  2  1  0  0  0  0
  2  3  1  0  0  0  0
  2  4  1  0  0  0  0
  2  5  1  0  0  0  0
  5  6  2  0  0  0  0
  5  7  1  0  0  0  0
  7  8  1  0  0  0  0
  7  9  1  0  0  0  0
  9 10  1  0  0  0  0
  9 11  1  0  0  0  0
  9 29  1  0  0  0  0
 11 12  1  0  0  0  0
 11 13  1  0  0  0  0
 11 14  1  0  0  0  0
 14 15  1  0  0  0  0
 14 16  1  0  0  0  0
 14 17  1  0  0  0  0
 17 18  1  0  0  0  0
 17 19  1  0  0  0  0
 17 20  1  0  0  0  0
 20 21  1  0  0  0  0
 20 22  2  0  0  0  0
 22 23  1  0  0  0  0
 22 26  1  0  0  0  0
 23 24  1  0  0  0  0
 23 25  1  0  0  0  0
 26 27  1  0  0  0  0
 26 28  1  0  0  0  0
 29 30  2  0  0  0  0
 29 31  1  0  0  0  0
 31 32  1  0  0  0  0
 31 33  1  0  0  0  0
 33 34  1  0  0  0  0
 33 35  1  0  0  0  0
 33 36  1  0  0  0  0
M  CHG  1  20   1
M  END
$$$$

  -OEChem-03222214013D

 36 35  0     1  0  0  0  0  0999 V2000
   -5.2615   -3.0826    2.7259 H   0  0  0  0  0  0  0  0  0  0  0  0
   -4.9973   -2.1490    2.2215 C   0  0  0  0  0  0  0  0  0  0  0  0
   -5.2943   -1.3121    2.8588 H   0  0  0  0  0  0  0  0  0  0  0  0
   -5.5458   -2.0891    1.2784 H   0  0  0  0  0  0  0  0  0  0  0  0
   -3.5046   -2.0949    1.9607 C   0  0  0  0  0  0  0  0  0  0  0  0
   -2.7986   -3.0600    2.2314 O   0  0  0  0  0  0  0  0  0  0  0  0
   -2.9541   -0.9814    1.3572 N   0  0  0  0  0  0  0  0  0  0  0  0
   -3.5797   -0.1830    1.2277 H   0  0  0  0  0  0  0  0  0  0  0  0
   -1.5156   -0.6611    1.3042 C   0  0  1  0  0  0  0  0  0  0  0  0
   -1.0003   -1.2470    2.0727 H   0  0  0  0  0  0  0  0  0  0  0  0
   -0.7528   -0.8634   -0.0430 C   0  0  0  0  0  0  0  0  0  0  0  0
   -1.0639   -0.0334   -0.6885 H   0  0  0  0  0  0  0  0  0  0  0  0
    0.3154   -0.7202    0.1532 H   0  0  0  0  0  0  0  0  0  0  0  0
   -0.9006   -2.1223   -0.9324 C   0  0  0  0  0  0  0  0  0  0  0  0
   -0.6504   -1.8525   -1.9644 H   0  0  0  0  0  0  0  0  0  0  0  0
   -0.1381   -2.8304   -0.5906 H   0  0  0  0  0  0  0  0  0  0  0  0
   -2.2342   -2.8592   -0.9212 C   0  0  0  0  0  0  0  0  0  0  0  0
   -2.5705   -2.9906    0.0960 H   0  0  0  0  0  0  0  0  0  0  0  0
   -2.9865   -2.2623   -1.4486 H   0  0  0  0  0  0  0  0  0  0  0  0
   -2.0947   -4.1863   -1.5466 N   0  3  0  0  0  0  0  0  0  0  0  0
   -1.9405   -4.2111   -2.5535 H   0  0  0  0  0  0  0  0  0  0  0  0
   -2.1356   -5.3034   -0.8751 C   0  0  0  0  0  0  0  0  0  0  0  0
   -2.3222   -5.3458    0.4897 N   0  0  0  0  0  0  0  0  0  0  0  0
   -2.3352   -4.4678    1.0200 H   0  0  0  0  0  0  0  0  0  0  0  0
   -2.1189   -6.2036    0.9962 H   0  0  0  0  0  0  0  0  0  0  0  0
   -1.9837   -6.4944   -1.5438 N   0  0  0  0  0  0  0  0  0  0  0  0
   -2.0342   -6.4934   -2.5605 H   0  0  0  0  0  0  0  0  0  0  0  0
   -2.2239   -7.3549   -1.0550 H   0  0  0  0  0  0  0  0  0  0  0  0
   -1.3590    0.8353    1.6575 C   0  0  0  0  0  0  0  0  0  0  0  0
   -2.1731    1.6403    1.2213 O   0  0  0  0  0  0  0  0  0  0  0  0
   -0.3809    1.2599    2.5379 N   0  0  0  0  0  0  0  0  0  0  0  0
    0.2446    0.5632    2.9330 H   0  0  0  0  0  0  0  0  0  0  0  0
   -0.2458    2.6476    2.9694 C   0  0  0  0  0  0  0  0  0  0  0  0
   -1.1641    2.9883    3.4597 H   0  0  0  0  0  0  0  0  0  0  0  0
    0.5809    2.7464    3.6797 H   0  0  0  0  0  0  0  0  0  0  0  0
   -0.0433    3.2983    2.1118 H   0  0  0  0  0  0  0  0  0  0  0  0
  1  2  1  0  0  0  0
  2  3  1  0  0  0  0
  2  4  1  0  0  0  0
  2  5  1  0  0  0  0
  5  6  2  0  0  0  0
  5  7  1  0  0  0  0
  7  8  1  0  0  0  0
  7  9  1  0  0  0  0
  9 10  1  0  0  0  0
  9 11  1  0  0  0  0
  9 29  1  0  0  0  0
 11 12  1  0  0  0  0
 11 13  1  0  0  0  0
 11 14  1  0  0  0  0
 14 15  1  0  0  0  0
 14 16  1  0  0  0  0
 14 17  1  0  0  0  0
 17 18  1  0  0  0  0
 17 19  1  0  0  0  0
 17 20  1  0  0  0  0
 20 21  1  0  0  0  0
 20 22  2  0  0  0  0
 22 23  1  0  0  0  0
 22 26  1  0  0  0  0
 23 24  1  0  0  0  0
 23 25  1  0  0  0  0
 26 27  1  0  0  0  0
 26 28  1  0  0  0  0
 29 30  2  0  0  0  0
 29 31  1  0  0  0  0
 31 32  1  0  0  0  0
 31 33  1  0  0  0  0
 33 34  1  0  0  0  0
 33 35  1  0  0  0  0
 33 36  1  0  0  0  0
M  CHG  1  20   1
M  END
$$$$

  -OEChem-03222214013D

 36 35  0     1  0  0  0  0  0999 V2000
   -5.2013   -3.1102    2.7504 H   0  0  0  0  0  0  0  0  0  0  0  0
   -4.9518   -2.1385    2.3151 C   0  0  0  0  0  0  0  0  0  0  0  0
   -5.5990   -1.9592    1.4530 H   0  0  0  0  0  0  0  0  0  0  0  0
   -5.1356   -1.3634    3.0638 H   0  0  0  0  0  0  0  0  0  0  0  0
   -3.4968   -2.1096    1.8901 C   0  0  0  0  0  0  0  0  0  0  0  0
   -2.8158   -3.1263    1.9526 O   0  0  0  0  0  0  0  0  0  0  0  0
   -2.9669   -0.9664    1.3276 N   0  0  0  0  0  0  0  0  0  0  0  0
   -3.5730   -0.1427    1.3308 H   0  0  0  0  0  0  0  0  0  0  0  0
   -1.5264   -0.6717    1.2337 C   0  0  1  0  0  0  0  0  0  0  0  0
   -0.9999   -1.3081    1.9531 H   0  0  0  0  0  0  0  0  0  0  0  0
   -0.8286   -0.8506   -0.1462 C   0  0  0  0  0  0  0  0  0  0  0  0
   -1.1329    0.0049   -0.7605 H   0  0  0  0  0  0  0  0  0  0  0  0
    0.2515   -0.7576    0.0099 H   0  0  0  0  0  0  0  0  0  0  0  0
   -1.0703   -2.0949   -1.0297 C   0  0  0  0  0  0  0  0  0  0  0  0
   -0.6378   -1.9031   -2.0177 H   0  0  0  0  0  0  0  0  0  0  0  0
   -0.5032   -2.9170   -0.5811 H   0  0  0  0  0  0  0  0  0  0  0  0
   -2.5138   -2.5641   -1.2083 C   0  0  0  0  0  0  0  0  0  0  0  0
   -2.9983   -2.7121   -0.2502 H   0  0  0  0  0  0  0  0  0  0  0  0
   -3.0785   -1.7926   -1.7432 H   0  0  0  0  0  0  0  0  0  0  0  0
   -2.5486   -3.8322   -1.9593 N   0  3  0  0  0  0  0  0  0  0  0  0
   -2.6798   -3.7684   -2.9680 H   0  0  0  0  0  0  0  0  0  0  0  0
   -2.4753   -5.0057   -1.3959 C   0  0  0  0  0  0  0  0  0  0  0  0
   -2.3187   -5.1677   -0.0370 N   0  0  0  0  0  0  0  0  0  0  0  0
   -2.4071   -4.3447    0.5691 H   0  0  0  0  0  0  0  0  0  0  0  0
   -2.5100   -6.0764    0.3769 H   0  0  0  0  0  0  0  0  0  0  0  0
   -2.5458   -6.1323   -2.1797 N   0  0  0  0  0  0  0  0  0  0  0  0
   -2.4668   -6.0309   -3.1895 H   0  0  0  0  0  0  0  0  0  0  0  0
   -2.2799   -7.0244   -1.7667 H   0  0  0  0  0  0  0  0  0  0  0  0
   -1.3088    0.7961    1.6633 C   0  0  0  0  0  0  0  0  0  0  0  0
   -2.1208    1.6440    1.3132 O   0  0  0  0  0  0  0  0  0  0  0  0
   -0.2823    1.1447    2.5218 N   0  0  0  0  0  0  0  0  0  0  0  0
    0.3516    0.4143    2.8348 H   0  0  0  0  0  0  0  0  0  0  0  0
   -0.0747    2.5073    3.0025 C   0  0  0  0  0  0  0  0  0  0  0  0
   -0.9454    2.8518    3.5709 H   0  0  0  0  0  0  0  0  0  0  0  0
    0.8024    2.5505    3.6557 H   0  0  0  0  0  0  0  0  0  0  0  0
    0.0879    3.1902    2.1615 H   0  0  0  0  0  0  0  0  0  0  0  0
  1  2  1  0  0  0  0
  2  3  1  0  0  0  0
  2  4  1  0  0  0  0
  2  5  1  0  0  0  0
  5  6  2  0  0  0  0
  5  7  1  0  0  0  0
  7  8  1  0  0  0  0
  7  9  1  0  0  0  0
  9 10  1  0  0  0  0
  9 11  1  0  0  0  0
  9 29  1  0  0  0  0
 11 12  1  0  0  0  0
 11 13  1  0  0  0  0
 11 14  1  0  0  0  0
 14 15  1  0  0  0  0
 14 16  1  0  0  0  0
 14 17  1  0  0  0  0
 17 18  1  0  0  0  0
 17 19  1  0  0  0  0
 17 20  1  0  0  0  0
 20 21  1  0  0  0  0
 20 22  2  0  0  0  0
 22 23  1  0  0  0  0
 22 26  1  0  0  0  0
 23 24  1  0  0  0  0
 23 25  1  0  0  0  0
 26 27  1  0  0  0  0
 26 28  1  0  0  0  0
 29 30  2  0  0  0  0
 29 31  1  0  0  0  0
 31 32  1  0  0  0  0
 31 33  1  0  0  0  0
 33 34  1  0  0  0  0
 33 35  1  0  0  0  0
 33 36  1  0  0  0  0
M  CHG  1  20   1
M  END
$$$$

  -OEChem-03222214013D

 36 35  0     1  0  0  0  0  0999 V2000
   -4.3308   -3.7769    2.8413 H   0  0  0  0  0  0  0  0  0  0  0  0
   -4.3188   -2.7531    2.4569 C   0  0  0  0  0  0  0  0  0  0  0  0
   -4.5542   -2.0691    3.2763 H   0  0  0  0  0  0  0  0  0  0  0  0
   -5.0828   -2.6557    1.6826 H   0  0  0  0  0  0  0  0  0  0  0  0
   -2.9522   -2.4229    1.8893 C   0  0  0  0  0  0  0  0  0  0  0  0
   -2.0819   -3.2786    1.8437 O   0  0  0  0  0  0  0  0  0  0  0  0
   -2.7201   -1.1822    1.3303 N   0  0  0  0  0  0  0  0  0  0  0  0
   -3.4744   -0.5003    1.4327 H   0  0  0  0  0  0  0  0  0  0  0  0
   -1.3774   -0.5915    1.2044 C   0  0  1  0  0  0  0  0  0  0  0  0
   -0.7174   -1.1078    1.9104 H   0  0  0  0  0  0  0  0  0  0  0  0
   -0.6930   -0.6625   -0.1868 C   0  0  0  0  0  0  0  0  0  0  0  0
   -1.1589    0.0980   -0.8236 H   0  0  0  0  0  0  0  0  0  0  0  0
    0.3558   -0.3731   -0.0597 H   0  0  0  0  0  0  0  0  0  0  0  0
   -0.7287   -1.9875   -0.9760 C   0  0  0  0  0  0  0  0  0  0  0  0
   -0.1514   -1.8581   -1.8977 H   0  0  0  0  0  0  0  0  0  0  0  0
   -0.2174   -2.7406   -0.3658 H   0  0  0  0  0  0  0  0  0  0  0  0
   -2.1173   -2.5190   -1.3356 C   0  0  0  0  0  0  0  0  0  0  0  0
   -2.7552   -2.5502   -0.4550 H   0  0  0  0  0  0  0  0  0  0  0  0
   -2.5770   -1.8484   -2.0697 H   0  0  0  0  0  0  0  0  0  0  0  0
   -1.9912   -3.8818   -1.8819 N   0  3  0  0  0  0  0  0  0  0  0  0
   -1.0472   -4.2461   -1.9998 H   0  0  0  0  0  0  0  0  0  0  0  0
   -3.0067   -4.6676   -2.0879 C   0  0  0  0  0  0  0  0  0  0  0  0
   -4.3016   -4.2328   -1.9227 N   0  0  0  0  0  0  0  0  0  0  0  0
   -4.4463   -3.2302   -1.8228 H   0  0  0  0  0  0  0  0  0  0  0  0
   -5.0518   -4.7845   -2.3333 H   0  0  0  0  0  0  0  0  0  0  0  0
   -2.7910   -5.9650   -2.4858 N   0  0  0  0  0  0  0  0  0  0  0  0
   -1.8468   -6.3397   -2.4167 H   0  0  0  0  0  0  0  0  0  0  0  0
   -3.5657   -6.6222   -2.4195 H   0  0  0  0  0  0  0  0  0  0  0  0
   -1.4440    0.8841    1.6504 C   0  0  0  0  0  0  0  0  0  0  0  0
   -2.4259    1.5507    1.3456 O   0  0  0  0  0  0  0  0  0  0  0  0
   -0.4817    1.4229    2.4839 N   0  0  0  0  0  0  0  0  0  0  0  0
    0.2952    0.8304    2.7644 H   0  0  0  0  0  0  0  0  0  0  0  0
   -0.5472    2.7859    3.0021 C   0  0  0  0  0  0  0  0  0  0  0  0
   -1.4519    2.9259    3.6037 H   0  0  0  0  0  0  0  0  0  0  0  0
    0.3220    2.9940    3.6338 H   0  0  0  0  0  0  0  0  0  0  0  0
   -0.5568    3.5092    2.1797 H   0  0  0  0  0  0  0  0  0  0  0  0
  1  2  1  0  0  0  0
  2  3  1  0  0  0  0
  2  4  1  0  0  0  0
  2  5  1  0  0  0  0
  5  6  2  0  0  0  0
  5  7  1  0  0  0  0
  7  8  1  0  0  0  0
  7  9  1  0  0  0  0
  9 10  1  0  0  0  0
  9 11  1  0  0  0  0
  9 29  1  0  0  0  0
 11 12  1  0  0  0  0
 11 13  1  0  0  0  0
 11 14  1  0  0  0  0
 14 15  1  0  0  0  0
 14 16  1  0  0  0  0
 14 17  1  0  0  0  0
 17 18  1  0  0  0  0
 17 19  1  0  0  0  0
 17 20  1  0  0  0  0
 20 21  1  0  0  0  0
 20 22  2  0  0  0  0
 22 23  1  0  0  0  0
 22 26  1  0  0  0  0
 23 24  1  0  0  0  0
 23 25  1  0  0  0  0
 26 27  1  0  0  0  0
 26 28  1  0  0  0  0
 29 30  2  0  0  0  0
 29 31  1  0  0  0  0
 31 32  1  0  0  0  0
 31 33  1  0  0  0  0
 33 34  1  0  0  0  0
 33 35  1  0  0  0  0
 33 36  1  0  0  0  0
M  CHG  1  20   1
M  END
$$$$

  -OEChem-03222214013D

 36 35  0     1  0  0  0  0  0999 V2000
   -3.9929   -4.1797    2.3793 H   0  0  0  0  0  0  0  0  0  0  0  0
   -4.0369   -3.1077    2.1678 C   0  0  0  0  0  0  0  0  0  0  0  0
   -4.2255   -2.5757    3.1042 H   0  0  0  0  0  0  0  0  0  0  0  0
   -4.8625   -2.9146    1.4783 H   0  0  0  0  0  0  0  0  0  0  0  0
   -2.7297   -2.6349    1.5621 C   0  0  0  0  0  0  0  0  0  0  0  0
   -1.8590   -3.4477    1.2817 O   0  0  0  0  0  0  0  0  0  0  0  0
   -2.5959   -1.3152    1.1872 N   0  0  0  0  0  0  0  0  0  0  0  0
   -3.3850   -0.7134    1.4338 H   0  0  0  0  0  0  0  0  0  0  0  0
   -1.3205   -0.5879    1.0485 C   0  0  1  0  0  0  0  0  0  0  0  0
   -0.5596   -1.1429    1.6082 H   0  0  0  0  0  0  0  0  0  0  0  0
   -0.7960   -0.4245   -0.3998 C   0  0  0  0  0  0  0  0  0  0  0  0
   -1.3705    0.3656   -0.8969 H   0  0  0  0  0  0  0  0  0  0  0  0
    0.2433   -0.0824   -0.3472 H   0  0  0  0  0  0  0  0  0  0  0  0
   -0.8490   -1.6810   -1.2812 C   0  0  0  0  0  0  0  0  0  0  0  0
   -0.2172   -1.5182   -2.1607 H   0  0  0  0  0  0  0  0  0  0  0  0
   -0.4025   -2.5104   -0.7221 H   0  0  0  0  0  0  0  0  0  0  0  0
   -2.2552   -2.0353   -1.7719 C   0  0  0  0  0  0  0  0  0  0  0  0
   -2.9973   -1.4508   -1.2176 H   0  0  0  0  0  0  0  0  0  0  0  0
   -2.3480   -1.7834   -2.8327 H   0  0  0  0  0  0  0  0  0  0  0  0
   -2.4704   -3.4734   -1.5321 N   0  3  0  0  0  0  0  0  0  0  0  0
   -2.1095   -3.8266   -0.6385 H   0  0  0  0  0  0  0  0  0  0  0  0
   -3.0922   -4.2884   -2.3291 C   0  0  0  0  0  0  0  0  0  0  0  0
   -3.6315   -3.8751   -3.5255 N   0  0  0  0  0  0  0  0  0  0  0  0
   -3.4011   -2.9398   -3.8531 H   0  0  0  0  0  0  0  0  0  0  0  0
   -3.8813   -4.5786   -4.2172 H   0  0  0  0  0  0  0  0  0  0  0  0
   -3.2137   -5.6064   -1.9614 N   0  0  0  0  0  0  0  0  0  0  0  0
   -2.9308   -5.8799   -1.0214 H   0  0  0  0  0  0  0  0  0  0  0  0
   -3.8710   -6.2010   -2.4618 H   0  0  0  0  0  0  0  0  0  0  0  0
   -1.4490    0.7979    1.7125 C   0  0  0  0  0  0  0  0  0  0  0  0
   -2.5043    1.4090    1.5972 O   0  0  0  0  0  0  0  0  0  0  0  0
   -0.4547    1.2939    2.5349 N   0  0  0  0  0  0  0  0  0  0  0  0
    0.3949    0.7466    2.6453 H   0  0  0  0  0  0  0  0  0  0  0  0
   -0.5690    2.5628    3.2474 C   0  0  0  0  0  0  0  0  0  0  0  0
   -1.4195    2.5414    3.9373 H   0  0  0  0  0  0  0  0  0  0  0  0
    0.3395    2.7570    3.8262 H   0  0  0  0  0  0  0  0  0  0  0  0
   -0.7108    3.3882    2.5414 H   0  0  0  0  0  0  0  0  0  0  0  0
  1  2  1  0  0  0  0
  2  3  1  0  0  0  0
  2  4  1  0  0  0  0
  2  5  1  0  0  0  0
  5  6  2  0  0  0  0
  5  7  1  0  0  0  0
  7  8  1  0  0  0  0
  7  9  1  0  0  0  0
  9 10  1  0  0  0  0
  9 11  1  0  0  0  0
  9 29  1  0  0  0  0
 11 12  1  0  0  0  0
 11 13  1  0  0  0  0
 11 14  1  0  0  0  0
 14 15  1  0  0  0  0
 14 16  1  0  0  0  0
 14 17  1  0  0  0  0
 17 18  1  0  0  0  0
 17 19  1  0  0  0  0
 17 20  1  0  0  0  0
 20 21  1  0  0  0  0
 20 22  2  0  0  0  0
 22 23  1  0  0  0  0
 22 26  1  0  0  0  0
 23 24  1  0  0  0  0
 23 25  1  0  0  0  0
 26 27  1  0  0  0  0
 26 28  1  0  0  0  0
 29 30  2  0  0  0  0
 29 31  1  0  0  0  0
 31 32  1  0  0  0  0
 31 33  1  0  0  0  0
 33 34  1  0  0  0  0
 33 35  1  0  0  0  0
 33 36  1  0  0  0  0
M  CHG  1  20   1
M  END
$$$$

  -OEChem-03222214013D

 36 35  0     1  0  0  0  0  0999 V2000
   -4.0015   -4.1172    2.5529 H   0  0  0  0  0  0  0  0  0  0  0  0
   -4.0608   -3.0874    2.1894 C   0  0  0  0  0  0  0  0  0  0  0  0
   -4.4442   -2.4548    2.9941 H   0  0  0  0  0  0  0  0  0  0  0  0
   -4.7535   -3.0493    1.3457 H   0  0  0  0  0  0  0  0  0  0  0  0
   -2.6890   -2.6024    1.7619 C   0  0  0  0  0  0  0  0  0  0  0  0
   -1.7311   -3.3559    1.8219 O   0  0  0  0  0  0  0  0  0  0  0  0
   -2.5442   -1.3286    1.2511 N   0  0  0  0  0  0  0  0  0  0  0  0
   -3.3731   -0.7346    1.3059 H   0  0  0  0  0  0  0  0  0  0  0  0
   -1.2685   -0.5954    1.1436 C   0  0  1  0  0  0  0  0  0  0  0  0
   -0.5362   -1.0701    1.8059 H   0  0  0  0  0  0  0  0  0  0  0  0
   -0.6861   -0.5852   -0.2896 C   0  0  0  0  0  0  0  0  0  0  0  0
   -1.2261    0.1473   -0.9000 H   0  0  0  0  0  0  0  0  0  0  0  0
    0.3533   -0.2454   -0.2260 H   0  0  0  0  0  0  0  0  0  0  0  0
   -0.7146   -1.9473   -0.9999 C   0  0  0  0  0  0  0  0  0  0  0  0
    0.1169   -1.9892   -1.7116 H   0  0  0  0  0  0  0  0  0  0  0  0
   -0.5495   -2.7485   -0.2753 H   0  0  0  0  0  0  0  0  0  0  0  0
   -2.0130   -2.1521   -1.7777 C   0  0  0  0  0  0  0  0  0  0  0  0
   -2.8624   -1.8748   -1.1442 H   0  0  0  0  0  0  0  0  0  0  0  0
   -2.0127   -1.5027   -2.6593 H   0  0  0  0  0  0  0  0  0  0  0  0
   -2.1212   -3.5718   -2.1584 N   0  3  0  0  0  0  0  0  0  0  0  0
   -1.5993   -4.2366   -1.5869 H   0  0  0  0  0  0  0  0  0  0  0  0
   -2.8851   -4.0160   -3.1131 C   0  0  0  0  0  0  0  0  0  0  0  0
   -3.6369   -3.1699   -3.8959 N   0  0  0  0  0  0  0  0  0  0  0  0
   -3.4641   -2.1699   -3.8170 H   0  0  0  0  0  0  0  0  0  0  0  0
   -4.0189   -3.5236   -4.7706 H   0  0  0  0  0  0  0  0  0  0  0  0
   -2.9498   -5.3680   -3.3518 N   0  0  0  0  0  0  0  0  0  0  0  0
   -2.5303   -6.0056   -2.6773 H   0  0  0  0  0  0  0  0  0  0  0  0
   -3.6967   -5.7233   -3.9456 H   0  0  0  0  0  0  0  0  0  0  0  0
   -1.4617    0.8542    1.6316 C   0  0  0  0  0  0  0  0  0  0  0  0
   -2.4872    1.4484    1.3206 O   0  0  0  0  0  0  0  0  0  0  0  0
   -0.5458    1.4548    2.4751 N   0  0  0  0  0  0  0  0  0  0  0  0
    0.2657    0.9142    2.7629 H   0  0  0  0  0  0  0  0  0  0  0  0
   -0.7247    2.7964    3.0214 C   0  0  0  0  0  0  0  0  0  0  0  0
   -1.6303    2.8437    3.6354 H   0  0  0  0  0  0  0  0  0  0  0  0
    0.1306    3.0695    3.6472 H   0  0  0  0  0  0  0  0  0  0  0  0
   -0.8089    3.5317    2.2140 H   0  0  0  0  0  0  0  0  0  0  0  0
  1  2  1  0  0  0  0
  2  3  1  0  0  0  0
  2  4  1  0  0  0  0
  2  5  1  0  0  0  0
  5  6  2  0  0  0  0
  5  7  1  0  0  0  0
  7  8  1  0  0  0  0
  7  9  1  0  0  0  0
  9 10  1  0  0  0  0
  9 11  1  0  0  0  0
  9 29  1  0  0  0  0
 11 12  1  0  0  0  0
 11 13  1  0  0  0  0
 11 14  1  0  0  0  0
 14 15  1  0  0  0  0
 14 16  1  0  0  0  0
 14 17  1  0  0  0  0
 17 18  1  0  0  0  0
 17 19  1  0  0  0  0
 17 20  1  0  0  0  0
 20 21  1  0  0  0  0
 20 22  2  0  0  0  0
 22 23  1  0  0  0  0
 22 26  1  0  0  0  0
 23 24  1  0  0  0  0
 23 25  1  0  0  0  0
 26 27  1  0  0  0  0
 26 28  1  0  0  0  0
 29 30  2  0  0  0  0
 29 31  1  0  0  0  0
 31 32  1  0  0  0  0
 31 33  1  0  0  0  0
 33 34  1  0  0  0  0
 33 35  1  0  0  0  0
 33 36  1  0  0  0  0
M  CHG  1  20   1
M  END
$$$$

  -OEChem-03222214013D

 36 35  0     1  0  0  0  0  0999 V2000
   -4.1830   -4.0276    2.4076 H   0  0  0  0  0  0  0  0  0  0  0  0
   -4.1858   -3.0421    1.9332 C   0  0  0  0  0  0  0  0  0  0  0  0
   -4.6975   -2.3378    2.5942 H   0  0  0  0  0  0  0  0  0  0  0  0
   -4.7309   -3.1054    0.9889 H   0  0  0  0  0  0  0  0  0  0  0  0
   -2.7637   -2.5776    1.6848 C   0  0  0  0  0  0  0  0  0  0  0  0
   -1.8279   -3.3164    1.9438 O   0  0  0  0  0  0  0  0  0  0  0  0
   -2.5381   -1.3252    1.1492 N   0  0  0  0  0  0  0  0  0  0  0  0
   -3.3559   -0.7194    1.0699 H   0  0  0  0  0  0  0  0  0  0  0  0
   -1.2381   -0.6284    1.1454 C   0  0  1  0  0  0  0  0  0  0  0  0
   -0.5743   -1.1010    1.8778 H   0  0  0  0  0  0  0  0  0  0  0  0
   -0.5463   -0.6557   -0.2375 C   0  0  0  0  0  0  0  0  0  0  0  0
   -1.0119    0.0907   -0.8913 H   0  0  0  0  0  0  0  0  0  0  0  0
    0.4942   -0.3448   -0.0946 H   0  0  0  0  0  0  0  0  0  0  0  0
   -0.5552   -2.0234   -0.9429 C   0  0  0  0  0  0  0  0  0  0  0  0
    0.4384   -2.1981   -1.3692 H   0  0  0  0  0  0  0  0  0  0  0  0
   -0.7396   -2.8329   -0.2343 H   0  0  0  0  0  0  0  0  0  0  0  0
   -1.5750   -2.0419   -2.0780 C   0  0  0  0  0  0  0  0  0  0  0  0
   -2.5548   -1.7595   -1.6771 H   0  0  0  0  0  0  0  0  0  0  0  0
   -1.2853   -1.3090   -2.8392 H   0  0  0  0  0  0  0  0  0  0  0  0
   -1.6358   -3.3945   -2.6598 N   0  3  0  0  0  0  0  0  0  0  0  0
   -0.9294   -4.0619   -2.3510 H   0  0  0  0  0  0  0  0  0  0  0  0
   -2.5466   -3.7737   -3.5079 C   0  0  0  0  0  0  0  0  0  0  0  0
   -3.5193   -2.9106   -3.9593 N   0  0  0  0  0  0  0  0  0  0  0  0
   -3.4084   -1.9209   -3.7471 H   0  0  0  0  0  0  0  0  0  0  0  0
   -4.0495   -3.1648   -4.7903 H   0  0  0  0  0  0  0  0  0  0  0  0
   -2.5442   -5.0680   -3.9703 N   0  0  0  0  0  0  0  0  0  0  0  0
   -1.9446   -5.7502   -3.5095 H   0  0  0  0  0  0  0  0  0  0  0  0
   -3.3693   -5.4109   -4.4588 H   0  0  0  0  0  0  0  0  0  0  0  0
   -1.4438    0.8402    1.5682 C   0  0  0  0  0  0  0  0  0  0  0  0
   -2.4111    1.4518    1.1290 O   0  0  0  0  0  0  0  0  0  0  0  0
   -0.6004    1.4458    2.4805 N   0  0  0  0  0  0  0  0  0  0  0  0
    0.1520    0.8888    2.8772 H   0  0  0  0  0  0  0  0  0  0  0  0
   -0.8001    2.8054    2.9719 C   0  0  0  0  0  0  0  0  0  0  0  0
   -1.7595    2.8887    3.4937 H   0  0  0  0  0  0  0  0  0  0  0  0
   -0.0024    3.0773    3.6702 H   0  0  0  0  0  0  0  0  0  0  0  0
   -0.7886    3.5196    2.1418 H   0  0  0  0  0  0  0  0  0  0  0  0
  1  2  1  0  0  0  0
  2  3  1  0  0  0  0
  2  4  1  0  0  0  0
  2  5  1  0  0  0  0
  5  6  2  0  0  0  0
  5  7  1  0  0  0  0
  7  8  1  0  0  0  0
  7  9  1  0  0  0  0
  9 10  1  0  0  0  0
  9 11  1  0  0  0  0
  9 29  1  0  0  0  0
 11 12  1  0  0  0  0
 11 13  1  0  0  0  0
 11 14  1  0  0  0  0
 14 15  1  0  0  0  0
 14 16  1  0  0  0  0
 14 17  1  0  0  0  0
 17 18  1  0  0  0  0
 17 19  1  0  0  0  0
 17 20  1  0  0  0  0
 20 21  1  0  0  0  0
 20 22  2  0  0  0  0
 22 23  1  0  0  0  0
 22 26  1  0  0  0  0
 23 24  1  0  0  0  0
 23 25  1  0  0  0  0
 26 27  1  0  0  0  0
 26 28  1  0  0  0  0
 29 30  2  0  0  0  0
 29 31  1  0  0  0  0
 31 32  1  0  0  0  0
 31 33  1  0  0  0  0
 33 34  1  0  0  0  0
 33 35  1  0  0  0  0
 33 36  1  0  0  0  0
M  CHG  1  20   1
M  END
$$$$

  -OEChem-03222214013D

 36 35  0     1  0  0  0  0  0999 V2000
   -4.2101   -4.0119    2.4397 H   0  0  0  0  0  0  0  0  0  0  0  0
   -4.2086   -3.0278    1.9625 C   0  0  0  0  0  0  0  0  0  0  0  0
   -4.7256   -2.3217    2.6173 H   0  0  0  0  0  0  0  0  0  0  0  0
   -4.7457   -3.0943    1.0137 H   0  0  0  0  0  0  0  0  0  0  0  0
   -2.7845   -2.5642    1.7230 C   0  0  0  0  0  0  0  0  0  0  0  0
   -1.8486   -3.2962    2.0026 O   0  0  0  0  0  0  0  0  0  0  0  0
   -2.5515   -1.3219    1.1663 N   0  0  0  0  0  0  0  0  0  0  0  0
   -3.3663   -0.7158    1.0623 H   0  0  0  0  0  0  0  0  0  0  0  0
   -1.2461   -0.6359    1.1535 C   0  0  1  0  0  0  0  0  0  0  0  0
   -0.5881   -1.1008    1.8959 H   0  0  0  0  0  0  0  0  0  0  0  0
   -0.5454   -0.6872   -0.2257 C   0  0  0  0  0  0  0  0  0  0  0  0
   -1.0257    0.0486   -0.8808 H   0  0  0  0  0  0  0  0  0  0  0  0
    0.4923   -0.3609   -0.0959 H   0  0  0  0  0  0  0  0  0  0  0  0
   -0.5484   -2.0591   -0.9314 C   0  0  0  0  0  0  0  0  0  0  0  0
    0.4893   -2.3722   -1.0892 H   0  0  0  0  0  0  0  0  0  0  0  0
   -1.0173   -2.8270   -0.3154 H   0  0  0  0  0  0  0  0  0  0  0  0
   -1.2591   -1.9732   -2.2798 C   0  0  0  0  0  0  0  0  0  0  0  0
   -2.2768   -1.6004   -2.1190 H   0  0  0  0  0  0  0  0  0  0  0  0
   -0.7261   -1.2662   -2.9254 H   0  0  0  0  0  0  0  0  0  0  0  0
   -1.3001   -3.3079   -2.9037 N   0  3  0  0  0  0  0  0  0  0  0  0
   -0.7201   -4.0329   -2.4824 H   0  0  0  0  0  0  0  0  0  0  0  0
   -2.0331   -3.5979   -3.9390 C   0  0  0  0  0  0  0  0  0  0  0  0
   -2.8248   -2.6537   -4.5525 N   0  0  0  0  0  0  0  0  0  0  0  0
   -2.6986   -1.6802   -4.2825 H   0  0  0  0  0  0  0  0  0  0  0  0
   -3.1889   -2.8500   -5.4825 H   0  0  0  0  0  0  0  0  0  0  0  0
   -2.0217   -4.8776   -4.4409 N   0  0  0  0  0  0  0  0  0  0  0  0
   -1.5840   -5.6153   -3.8918 H   0  0  0  0  0  0  0  0  0  0  0  0
   -2.7404   -5.1441   -5.1116 H   0  0  0  0  0  0  0  0  0  0  0  0
   -1.4406    0.8412    1.5522 C   0  0  0  0  0  0  0  0  0  0  0  0
   -2.3960    1.4576    1.0944 O   0  0  0  0  0  0  0  0  0  0  0  0
   -0.5939    1.4551    2.4564 N   0  0  0  0  0  0  0  0  0  0  0  0
    0.1428    0.8939    2.8760 H   0  0  0  0  0  0  0  0  0  0  0  0
   -0.7960    2.8178    2.9382 C   0  0  0  0  0  0  0  0  0  0  0  0
   -1.7537    2.9008    3.4631 H   0  0  0  0  0  0  0  0  0  0  0  0
    0.0029    3.0981    3.6317 H   0  0  0  0  0  0  0  0  0  0  0  0
   -0.7907    3.5266    2.1031 H   0  0  0  0  0  0  0  0  0  0  0  0
  1  2  1  0  0  0  0
  2  3  1  0  0  0  0
  2  4  1  0  0  0  0
  2  5  1  0  0  0  0
  5  6  2  0  0  0  0
  5  7  1  0  0  0  0
  7  8  1  0  0  0  0
  7  9  1  0  0  0  0
  9 10  1  0  0  0  0
  9 11  1  0  0  0  0
  9 29  1  0  0  0  0
 11 12  1  0  0  0  0
 11 13  1  0  0  0  0
 11 14  1  0  0  0  0
 14 15  1  0  0  0  0
 14 16  1  0  0  0  0
 14 17  1  0  0  0  0
 17 18  1  0  0  0  0
 17 19  1  0  0  0  0
 17 20  1  0  0  0  0
 20 21  1  0  0  0  0
 20 22  2  0  0  0  0
 22 23  1  0  0  0  0
 22 26  1  0  0  0  0
 23 24  1  0  0  0  0
 23 25  1  0  0  0  0
 26 27  1  0  0  0  0
 26 28  1  0  0  0  0
 29 30  2  0  0  0  0
 29 31  1  0  0  0  0
 31 32  1  0  0  0  0
 31 33  1  0  0  0  0
 33 34  1  0  0  0  0
 33 35  1  0  0  0  0
 33 36  1  0  0  0  0
M  CHG  1  20   1
M  END
$$$$

  -OEChem-03222214013D

 36 35  0     1  0  0  0  0  0999 V2000
   -4.2425   -4.0020    2.4853 H   0  0  0  0  0  0  0  0  0  0  0  0
   -4.2461   -2.9903    2.0697 C   0  0  0  0  0  0  0  0  0  0  0  0
   -4.7090   -2.3155    2.7940 H   0  0  0  0  0  0  0  0  0  0  0  0
   -4.8378   -2.9878    1.1514 H   0  0  0  0  0  0  0  0  0  0  0  0
   -2.8273   -2.5410    1.7780 C   0  0  0  0  0  0  0  0  0  0  0  0
   -1.8883   -3.2851    2.0140 O   0  0  0  0  0  0  0  0  0  0  0  0
   -2.5989   -1.3043    1.2076 N   0  0  0  0  0  0  0  0  0  0  0  0
   -3.4090   -0.6889    1.1237 H   0  0  0  0  0  0  0  0  0  0  0  0
   -1.2846   -0.6387    1.1584 C   0  0  1  0  0  0  0  0  0  0  0  0
   -0.6207   -1.1072    1.8932 H   0  0  0  0  0  0  0  0  0  0  0  0
   -0.6017   -0.7191   -0.2285 C   0  0  0  0  0  0  0  0  0  0  0  0
   -1.1093    0.0018   -0.8797 H   0  0  0  0  0  0  0  0  0  0  0  0
    0.4372   -0.3852   -0.1351 H   0  0  0  0  0  0  0  0  0  0  0  0
   -0.6269   -2.0981   -0.9213 C   0  0  0  0  0  0  0  0  0  0  0  0
    0.3592   -2.5640   -0.8211 H   0  0  0  0  0  0  0  0  0  0  0  0
   -1.3475   -2.7688   -0.4520 H   0  0  0  0  0  0  0  0  0  0  0  0
   -1.0033   -1.9548   -2.3945 C   0  0  0  0  0  0  0  0  0  0  0  0
   -1.9912   -1.4861   -2.4652 H   0  0  0  0  0  0  0  0  0  0  0  0
   -0.2730   -1.3066   -2.8922 H   0  0  0  0  0  0  0  0  0  0  0  0
   -1.0235   -3.2841   -3.0315 N   0  3  0  0  0  0  0  0  0  0  0  0
   -0.7621   -4.0791   -2.4491 H   0  0  0  0  0  0  0  0  0  0  0  0
   -1.3690   -3.4856   -4.2700 C   0  0  0  0  0  0  0  0  0  0  0  0
   -1.7568   -2.4511   -5.0913 N   0  0  0  0  0  0  0  0  0  0  0  0
   -1.9200   -1.5408   -4.6654 H   0  0  0  0  0  0  0  0  0  0  0  0
   -2.2455   -2.6701   -5.9570 H   0  0  0  0  0  0  0  0  0  0  0  0
   -1.3527   -4.7619   -4.7799 N   0  0  0  0  0  0  0  0  0  0  0  0
   -0.9033   -5.4987   -4.2396 H   0  0  0  0  0  0  0  0  0  0  0  0
   -1.4167   -4.8823   -5.7890 H   0  0  0  0  0  0  0  0  0  0  0  0
   -1.4412    0.8434    1.5534 C   0  0  0  0  0  0  0  0  0  0  0  0
   -2.3890    1.4797    1.1082 O   0  0  0  0  0  0  0  0  0  0  0  0
   -0.5597    1.4455    2.4317 N   0  0  0  0  0  0  0  0  0  0  0  0
    0.1717    0.8708    2.8418 H   0  0  0  0  0  0  0  0  0  0  0  0
   -0.7087    2.8228    2.8906 C   0  0  0  0  0  0  0  0  0  0  0  0
   -1.6512    2.9467    3.4348 H   0  0  0  0  0  0  0  0  0  0  0  0
    0.1147    3.0916    3.5598 H   0  0  0  0  0  0  0  0  0  0  0  0
   -0.7006    3.5138    2.0407 H   0  0  0  0  0  0  0  0  0  0  0  0
  1  2  1  0  0  0  0
  2  3  1  0  0  0  0
  2  4  1  0  0  0  0
  2  5  1  0  0  0  0
  5  6  2  0  0  0  0
  5  7  1  0  0  0  0
  7  8  1  0  0  0  0
  7  9  1  0  0  0  0
  9 10  1  0  0  0  0
  9 11  1  0  0  0  0
  9 29  1  0  0  0  0
 11 12  1  0  0  0  0
 11 13  1  0  0  0  0
 11 14  1  0  0  0  0
 14 15  1  0  0  0  0
 14 16  1  0  0  0  0
 14 17  1  0  0  0  0
 17 18  1  0  0  0  0
 17 19  1  0  0  0  0
 17 20  1  0  0  0  0
 20 21  1  0  0  0  0
 20 22  2  0  0  0  0
 22 23  1  0  0  0  0
 22 26  1  0  0  0  0
 23 24  1  0  0  0  0
 23 25  1  0  0  0  0
 26 27  1  0  0  0  0
 26 28  1  0  0  0  0
 29 30  2  0  0  0  0
 29 31  1  0  0  0  0
 31 32  1  0  0  0  0
 31 33  1  0  0  0  0
 33 34  1  0  0  0  0
 33 35  1  0  0  0  0
 33 36  1  0  0  0  0
M  CHG  1  20   1
M  END
$$$$

  -OEChem-03222214013D

 36 35  0     1  0  0  0  0  0999 V2000
   -4.2434   -3.9857    2.4331 H   0  0  0  0  0  0  0  0  0  0  0  0
   -4.2478   -2.9785    2.0072 C   0  0  0  0  0  0  0  0  0  0  0  0
   -4.7027   -2.2949    2.7285 H   0  0  0  0  0  0  0  0  0  0  0  0
   -4.8471   -2.9844    1.0939 H   0  0  0  0  0  0  0  0  0  0  0  0
   -2.8305   -2.5358    1.6989 C   0  0  0  0  0  0  0  0  0  0  0  0
   -1.8931   -3.2946    1.8928 O   0  0  0  0  0  0  0  0  0  0  0  0
   -2.6006   -1.2902    1.1493 N   0  0  0  0  0  0  0  0  0  0  0  0
   -3.4091   -0.6707    1.0802 H   0  0  0  0  0  0  0  0  0  0  0  0
   -1.2849   -0.6269    1.1298 C   0  0  1  0  0  0  0  0  0  0  0  0
   -0.6380   -1.1052    1.8732 H   0  0  0  0  0  0  0  0  0  0  0  0
   -0.5731   -0.7075   -0.2416 C   0  0  0  0  0  0  0  0  0  0  0  0
   -1.0762    0.0056   -0.9046 H   0  0  0  0  0  0  0  0  0  0  0  0
    0.4640   -0.3721   -0.1352 H   0  0  0  0  0  0  0  0  0  0  0  0
   -0.5950   -2.0904   -0.9227 C   0  0  0  0  0  0  0  0  0  0  0  0
    0.2574   -2.6816   -0.5710 H   0  0  0  0  0  0  0  0  0  0  0  0
   -1.5039   -2.6388   -0.6671 H   0  0  0  0  0  0  0  0  0  0  0  0
   -0.5694   -1.9354   -2.4411 C   0  0  0  0  0  0  0  0  0  0  0  0
   -1.4333   -1.3382   -2.7524 H   0  0  0  0  0  0  0  0  0  0  0  0
    0.3450   -1.4076   -2.7348 H   0  0  0  0  0  0  0  0  0  0  0  0
   -0.6134   -3.2666   -3.0729 N   0  3  0  0  0  0  0  0  0  0  0  0
   -0.5517   -4.0737   -2.4527 H   0  0  0  0  0  0  0  0  0  0  0  0
   -0.7328   -3.4534   -4.3555 C   0  0  0  0  0  0  0  0  0  0  0  0
   -0.8383   -2.3997   -5.2347 N   0  0  0  0  0  0  0  0  0  0  0  0
   -0.9818   -1.4695   -4.8469 H   0  0  0  0  0  0  0  0  0  0  0  0
   -1.1699   -2.5817   -6.1798 H   0  0  0  0  0  0  0  0  0  0  0  0
   -0.7579   -4.7332   -4.8561 N   0  0  0  0  0  0  0  0  0  0  0  0
   -0.5019   -5.5037   -4.2414 H   0  0  0  0  0  0  0  0  0  0  0  0
   -0.6421   -4.8649   -5.8594 H   0  0  0  0  0  0  0  0  0  0  0  0
   -1.4406    0.8502    1.5444 C   0  0  0  0  0  0  0  0  0  0  0  0
   -2.3794    1.4972    1.0961 O   0  0  0  0  0  0  0  0  0  0  0  0
   -0.5690    1.4355    2.4442 N   0  0  0  0  0  0  0  0  0  0  0  0
    0.1511    0.8501    2.8591 H   0  0  0  0  0  0  0  0  0  0  0  0
   -0.7205    2.8055    2.9241 C   0  0  0  0  0  0  0  0  0  0  0  0
   -1.6635    2.9200    3.4692 H   0  0  0  0  0  0  0  0  0  0  0  0
    0.1016    3.0648    3.5986 H   0  0  0  0  0  0  0  0  0  0  0  0
   -0.7123    3.5092    2.0848 H   0  0  0  0  0  0  0  0  0  0  0  0
  1  2  1  0  0  0  0
  2  3  1  0  0  0  0
  2  4  1  0  0  0  0
  2  5  1  0  0  0  0
  5  6  2  0  0  0  0
  5  7  1  0  0  0  0
  7  8  1  0  0  0  0
  7  9  1  0  0  0  0
  9 10  1  0  0  0  0
  9 11  1  0  0  0  0
  9 29  1  0  0  0  0
 11 12  1  0  0  0  0
 11 13  1  0  0  0  0
 11 14  1  0  0  0  0
 14 15  1  0  0  0  0
 14 16  1  0  0  0  0
 14 17  1  0  0  0  0
 17 18  1  0  0  0  0
 17 19  1  0  0  0  0
 17 20  1  0  0  0  0
 20 21  1  0  0  0  0
 20 22  2  0  0  0  0
 22 23  1  0  0  0  0
 22 26  1  0  0  0  0
 23 24  1  0  0  0  0
 23 25  1  0  0  0  0
 26 27  1  0  0  0  0
 26 28  1  0  0  0  0
 29 30  2  0  0  0  0
 29 31  1  0  0  0  0
 31 32  1  0  0  0  0
 31 33  1  0  0  0  0
 33 34  1  0  0  0  0
 33 35  1  0  0  0  0
 33 36  1  0  0  0  0
M  CHG  1  20   1
M  END
$$$$

  -OEChem-03222214013D

 36 35  0     1  0  0  0  0  0999 V2000
   -4.2281   -3.9919    2.3486 H   0  0  0  0  0  0  0  0  0  0  0  0
   -4.2354   -2.9825    1.9278 C   0  0  0  0  0  0  0  0  0  0  0  0
   -4.6957   -2.3051    2.6514 H   0  0  0  0  0  0  0  0  0  0  0  0
   -4.8319   -2.9857    1.0127 H   0  0  0  0  0  0  0  0  0  0  0  0
   -2.8197   -2.5304    1.6262 C   0  0  0  0  0  0  0  0  0  0  0  0
   -1.8800   -3.2920    1.7982 O   0  0  0  0  0  0  0  0  0  0  0  0
   -2.5920   -1.2728    1.1040 N   0  0  0  0  0  0  0  0  0  0  0  0
   -3.4026   -0.6553    1.0414 H   0  0  0  0  0  0  0  0  0  0  0  0
   -1.2782   -0.6056    1.1061 C   0  0  1  0  0  0  0  0  0  0  0  0
   -0.6365   -1.0971    1.8455 H   0  0  0  0  0  0  0  0  0  0  0  0
   -0.5612   -0.6735   -0.2611 C   0  0  0  0  0  0  0  0  0  0  0  0
   -1.0533    0.0409   -0.9309 H   0  0  0  0  0  0  0  0  0  0  0  0
    0.4784   -0.3499   -0.1423 H   0  0  0  0  0  0  0  0  0  0  0  0
   -0.5950   -2.0584   -0.9290 C   0  0  0  0  0  0  0  0  0  0  0  0
    0.0770   -2.7376   -0.3926 H   0  0  0  0  0  0  0  0  0  0  0  0
   -1.6035   -2.4790   -0.8866 H   0  0  0  0  0  0  0  0  0  0  0  0
   -0.2005   -1.9461   -2.3982 C   0  0  0  0  0  0  0  0  0  0  0  0
   -0.8990   -1.2726   -2.9068 H   0  0  0  0  0  0  0  0  0  0  0  0
    0.8080   -1.5236   -2.4698 H   0  0  0  0  0  0  0  0  0  0  0  0
   -0.2370   -3.2850   -3.0138 N   0  3  0  0  0  0  0  0  0  0  0  0
   -0.4026   -4.0743   -2.3896 H   0  0  0  0  0  0  0  0  0  0  0  0
   -0.0789   -3.5011   -4.2873 C   0  0  0  0  0  0  0  0  0  0  0  0
    0.1349   -2.4724   -5.1765 N   0  0  0  0  0  0  0  0  0  0  0  0
    0.0135   -1.5193   -4.8402 H   0  0  0  0  0  0  0  0  0  0  0  0
    0.0086   -2.6503   -6.1708 H   0  0  0  0  0  0  0  0  0  0  0  0
   -0.1297   -4.7881   -4.7673 N   0  0  0  0  0  0  0  0  0  0  0  0
   -0.1132   -5.5593   -4.1024 H   0  0  0  0  0  0  0  0  0  0  0  0
    0.1982   -4.9671   -5.7147 H   0  0  0  0  0  0  0  0  0  0  0  0
   -1.4306    0.8632    1.5490 C   0  0  0  0  0  0  0  0  0  0  0  0
   -2.3672    1.5213    1.1131 O   0  0  0  0  0  0  0  0  0  0  0  0
   -0.5607    1.4274    2.4638 N   0  0  0  0  0  0  0  0  0  0  0  0
    0.1560    0.8315    2.8695 H   0  0  0  0  0  0  0  0  0  0  0  0
   -0.7159    2.7850    2.9766 C   0  0  0  0  0  0  0  0  0  0  0  0
   -1.6616    2.8848    3.5200 H   0  0  0  0  0  0  0  0  0  0  0  0
    0.1027    3.0289    3.6608 H   0  0  0  0  0  0  0  0  0  0  0  0
   -0.7049    3.5095    2.1553 H   0  0  0  0  0  0  0  0  0  0  0  0
  1  2  1  0  0  0  0
  2  3  1  0  0  0  0
  2  4  1  0  0  0  0
  2  5  1  0  0  0  0
  5  6  2  0  0  0  0
  5  7  1  0  0  0  0
  7  8  1  0  0  0  0
  7  9  1  0  0  0  0
  9 10  1  0  0  0  0
  9 11  1  0  0  0  0
  9 29  1  0  0  0  0
 11 12  1  0  0  0  0
 11 13  1  0  0  0  0
 11 14  1  0  0  0  0
 14 15  1  0  0  0  0
 14 16  1  0  0  0  0
 14 17  1  0  0  0  0
 17 18  1  0  0  0  0
 17 19  1  0  0  0  0
 17 20  1  0  0  0  0
 20 21  1  0  0  0  0
 20 22  2  0  0  0  0
 22 23  1  0  0  0  0
 22 26  1  0  0  0  0
 23 24  1  0  0  0  0
 23 25  1  0  0  0  0
 26 27  1  0  0  0  0
 26 28  1  0  0  0  0
 29 30  2  0  0  0  0
 29 31  1  0  0  0  0
 31 32  1  0  0  0  0
 31 33  1  0  0  0  0
 33 34  1  0  0  0  0
 33 35  1  0  0  0  0
 33 36  1  0  0  0  0
M  CHG  1  20   1
M  END
$$$$

  -OEChem-03222214013D

 36 35  0     1  0  0  0  0  0999 V2000
   -4.1939   -3.9931    2.3615 H   0  0  0  0  0  0  0  0  0  0  0  0
   -4.2168   -3.0068    1.8896 C   0  0  0  0  0  0  0  0  0  0  0  0
   -4.7222   -2.3089    2.5619 H   0  0  0  0  0  0  0  0  0  0  0  0
   -4.7802   -3.0740    0.9561 H   0  0  0  0  0  0  0  0  0  0  0  0
   -2.8045   -2.5294    1.6125 C   0  0  0  0  0  0  0  0  0  0  0  0
   -1.8575   -3.2813    1.7836 O   0  0  0  0  0  0  0  0  0  0  0  0
   -2.5903   -1.2642    1.1046 N   0  0  0  0  0  0  0  0  0  0  0  0
   -3.4065   -0.6534    1.0519 H   0  0  0  0  0  0  0  0  0  0  0  0
   -1.2826   -0.5848    1.0973 C   0  0  1  0  0  0  0  0  0  0  0  0
   -0.6354   -1.0805    1.8293 H   0  0  0  0  0  0  0  0  0  0  0  0
   -0.5697   -0.6519   -0.2754 C   0  0  0  0  0  0  0  0  0  0  0  0
   -0.8689    0.2205   -0.8675 H   0  0  0  0  0  0  0  0  0  0  0  0
    0.5115   -0.5838   -0.1144 H   0  0  0  0  0  0  0  0  0  0  0  0
   -0.8939   -1.9094   -1.0972 C   0  0  0  0  0  0  0  0  0  0  0  0
   -0.6015   -2.7964   -0.5243 H   0  0  0  0  0  0  0  0  0  0  0  0
   -1.9697   -1.9645   -1.2939 H   0  0  0  0  0  0  0  0  0  0  0  0
   -0.1465   -1.8840   -2.4268 C   0  0  0  0  0  0  0  0  0  0  0  0
   -0.4859   -1.0236   -3.0142 H   0  0  0  0  0  0  0  0  0  0  0  0
    0.9268   -1.7752   -2.2357 H   0  0  0  0  0  0  0  0  0  0  0  0
   -0.4089   -3.1413   -3.1505 N   0  3  0  0  0  0  0  0  0  0  0  0
   -0.8427   -3.8949   -2.6182 H   0  0  0  0  0  0  0  0  0  0  0  0
   -0.0906   -3.3429   -4.3961 C   0  0  0  0  0  0  0  0  0  0  0  0
    0.5328   -2.3757   -5.1509 N   0  0  0  0  0  0  0  0  0  0  0  0
    0.8930   -1.5559   -4.6666 H   0  0  0  0  0  0  0  0  0  0  0  0
    0.9786   -2.6505   -6.0239 H   0  0  0  0  0  0  0  0  0  0  0  0
   -0.3763   -4.5537   -4.9806 N   0  0  0  0  0  0  0  0  0  0  0  0
   -0.9867   -5.2035   -4.4883 H   0  0  0  0  0  0  0  0  0  0  0  0
   -0.3142   -4.6315   -5.9941 H   0  0  0  0  0  0  0  0  0  0  0  0
   -1.4378    0.8780    1.5598 C   0  0  0  0  0  0  0  0  0  0  0  0
   -2.3850    1.5345    1.1452 O   0  0  0  0  0  0  0  0  0  0  0  0
   -0.5588    1.4374    2.4689 N   0  0  0  0  0  0  0  0  0  0  0  0
    0.1626    0.8388    2.8621 H   0  0  0  0  0  0  0  0  0  0  0  0
   -0.7222    2.7833    3.0099 C   0  0  0  0  0  0  0  0  0  0  0  0
   -1.6679    2.8660    3.5563 H   0  0  0  0  0  0  0  0  0  0  0  0
    0.0955    3.0176    3.6986 H   0  0  0  0  0  0  0  0  0  0  0  0
   -0.7165    3.5255    2.2045 H   0  0  0  0  0  0  0  0  0  0  0  0
  1  2  1  0  0  0  0
  2  3  1  0  0  0  0
  2  4  1  0  0  0  0
  2  5  1  0  0  0  0
  5  6  2  0  0  0  0
  5  7  1  0  0  0  0
  7  8  1  0  0  0  0
  7  9  1  0  0  0  0
  9 10  1  0  0  0  0
  9 11  1  0  0  0  0
  9 29  1  0  0  0  0
 11 12  1  0  0  0  0
 11 13  1  0  0  0  0
 11 14  1  0  0  0  0
 14 15  1  0  0  0  0
 14 16  1  0  0  0  0
 14 17  1  0  0  0  0
 17 18  1  0  0  0  0
 17 19  1  0  0  0  0
 17 20  1  0  0  0  0
 20 21  1  0  0  0  0
 20 22  2  0  0  0  0
 22 23  1  0  0  0  0
 22 26  1  0  0  0  0
 23 24  1  0  0  0  0
 23 25  1  0  0  0  0
 26 27  1  0  0  0  0
 26 28  1  0  0  0  0
 29 30  2  0  0  0  0
 29 31  1  0  0  0  0
 31 32  1  0  0  0  0
 31 33  1  0  0  0  0
 33 34  1  0  0  0  0
 33 35  1  0  0  0  0
 33 36  1  0  0  0  0
M  CHG  1  20   1
M  END
$$$$

  -OEChem-03222214013D

 36 35  0     1  0  0  0  0  0999 V2000
   -4.2465   -3.9971    2.2980 H   0  0  0  0  0  0  0  0  0  0  0  0
   -4.2436   -2.9902    1.8707 C   0  0  0  0  0  0  0  0  0  0  0  0
   -4.7354   -2.3111    2.5717 H   0  0  0  0  0  0  0  0  0  0  0  0
   -4.8039   -3.0023    0.9329 H   0  0  0  0  0  0  0  0  0  0  0  0
   -2.8201   -2.5315    1.6212 C   0  0  0  0  0  0  0  0  0  0  0  0
   -1.8851   -3.2848    1.8442 O   0  0  0  0  0  0  0  0  0  0  0  0
   -2.5830   -1.2730    1.1055 N   0  0  0  0  0  0  0  0  0  0  0  0
   -3.3941   -0.6594    1.0165 H   0  0  0  0  0  0  0  0  0  0  0  0
   -1.2703   -0.6020    1.1098 C   0  0  1  0  0  0  0  0  0  0  0  0
   -0.6292   -1.0978    1.8467 H   0  0  0  0  0  0  0  0  0  0  0  0
   -0.5547   -0.6644   -0.2616 C   0  0  0  0  0  0  0  0  0  0  0  0
   -0.8283    0.2161   -0.8541 H   0  0  0  0  0  0  0  0  0  0  0  0
    0.5246   -0.6149   -0.0825 H   0  0  0  0  0  0  0  0  0  0  0  0
   -0.8849   -1.9125   -1.0940 C   0  0  0  0  0  0  0  0  0  0  0  0
   -0.8244   -2.7983   -0.4541 H   0  0  0  0  0  0  0  0  0  0  0  0
   -1.9043   -1.8411   -1.4887 H   0  0  0  0  0  0  0  0  0  0  0  0
    0.1200   -2.0718   -2.2312 C   0  0  0  0  0  0  0  0  0  0  0  0
    0.0300   -1.2187   -2.9128 H   0  0  0  0  0  0  0  0  0  0  0  0
    1.1340   -2.0822   -1.8164 H   0  0  0  0  0  0  0  0  0  0  0  0
   -0.1458   -3.3342   -2.9448 N   0  3  0  0  0  0  0  0  0  0  0  0
   -0.7693   -3.9988   -2.4873 H   0  0  0  0  0  0  0  0  0  0  0  0
    0.4058   -3.6554   -4.0788 C   0  0  0  0  0  0  0  0  0  0  0  0
    1.2935   -2.8185   -4.7159 N   0  0  0  0  0  0  0  0  0  0  0  0
    1.6368   -2.0106   -4.2005 H   0  0  0  0  0  0  0  0  0  0  0  0
    1.8822   -3.2018   -5.4526 H   0  0  0  0  0  0  0  0  0  0  0  0
    0.1048   -4.8636   -4.6608 N   0  0  0  0  0  0  0  0  0  0  0  0
   -0.6726   -5.4059   -4.2887 H   0  0  0  0  0  0  0  0  0  0  0  0
    0.3729   -5.0165   -5.6313 H   0  0  0  0  0  0  0  0  0  0  0  0
   -1.4269    0.8653    1.5573 C   0  0  0  0  0  0  0  0  0  0  0  0
   -2.3643    1.5221    1.1215 O   0  0  0  0  0  0  0  0  0  0  0  0
   -0.5592    1.4303    2.4740 N   0  0  0  0  0  0  0  0  0  0  0  0
    0.1559    0.8345    2.8825 H   0  0  0  0  0  0  0  0  0  0  0  0
   -0.7196    2.7862    2.9906 C   0  0  0  0  0  0  0  0  0  0  0  0
   -1.6620    2.8787    3.5412 H   0  0  0  0  0  0  0  0  0  0  0  0
    0.1027    3.0342    3.6690 H   0  0  0  0  0  0  0  0  0  0  0  0
   -0.7189    3.5121    2.1704 H   0  0  0  0  0  0  0  0  0  0  0  0
  1  2  1  0  0  0  0
  2  3  1  0  0  0  0
  2  4  1  0  0  0  0
  2  5  1  0  0  0  0
  5  6  2  0  0  0  0
  5  7  1  0  0  0  0
  7  8  1  0  0  0  0
  7  9  1  0  0  0  0
  9 10  1  0  0  0  0
  9 11  1  0  0  0  0
  9 29  1  0  0  0  0
 11 12  1  0  0  0  0
 11 13  1  0  0  0  0
 11 14  1  0  0  0  0
 14 15  1  0  0  0  0
 14 16  1  0  0  0  0
 14 17  1  0  0  0  0
 17 18  1  0  0  0  0
 17 19  1  0  0  0  0
 17 20  1  0  0  0  0
 20 21  1  0  0  0  0
 20 22  2  0  0  0  0
 22 23  1  0  0  0  0
 22 26  1  0  0  0  0
 23 24  1  0  0  0  0
 23 25  1  0  0  0  0
 26 27  1  0  0  0  0
 26 28  1  0  0  0  0
 29 30  2  0  0  0  0
 29 31  1  0  0  0  0
 31 32  1  0  0  0  0
 31 33  1  0  0  0  0
 33 34  1  0  0  0  0
 33 35  1  0  0  0  0
 33 36  1  0  0  0  0
M  CHG  1  20   1
M  END
$$$$

  -OEChem-03222214013D

 36 35  0     1  0  0  0  0  0999 V2000
   -4.2627   -3.9722    2.3307 H   0  0  0  0  0  0  0  0  0  0  0  0
   -4.2537   -2.9817    1.8668 C   0  0  0  0  0  0  0  0  0  0  0  0
   -4.7673   -2.2805    2.5294 H   0  0  0  0  0  0  0  0  0  0  0  0
   -4.7897   -3.0314    0.9161 H   0  0  0  0  0  0  0  0  0  0  0  0
   -2.8262   -2.5243    1.6373 C   0  0  0  0  0  0  0  0  0  0  0  0
   -1.8947   -3.2759    1.8820 O   0  0  0  0  0  0  0  0  0  0  0  0
   -2.5808   -1.2690    1.1172 N   0  0  0  0  0  0  0  0  0  0  0  0
   -3.3894   -0.6541    1.0149 H   0  0  0  0  0  0  0  0  0  0  0  0
   -1.2658   -0.6023    1.1145 C   0  0  1  0  0  0  0  0  0  0  0  0
   -0.6233   -1.0980    1.8501 H   0  0  0  0  0  0  0  0  0  0  0  0
   -0.5531   -0.6615   -0.2606 C   0  0  0  0  0  0  0  0  0  0  0  0
   -0.8215    0.2234   -0.8490 H   0  0  0  0  0  0  0  0  0  0  0  0
    0.5250   -0.6092   -0.0743 H   0  0  0  0  0  0  0  0  0  0  0  0
   -0.8755   -1.9017   -1.1138 C   0  0  0  0  0  0  0  0  0  0  0  0
   -1.0602   -2.7590   -0.4625 H   0  0  0  0  0  0  0  0  0  0  0  0
   -1.7788   -1.7221   -1.7069 H   0  0  0  0  0  0  0  0  0  0  0  0
    0.3100   -2.2611   -2.0066 C   0  0  0  0  0  0  0  0  0  0  0  0
    0.4788   -1.4502   -2.7239 H   0  0  0  0  0  0  0  0  0  0  0  0
    1.2061   -2.3716   -1.3854 H   0  0  0  0  0  0  0  0  0  0  0  0
    0.0278   -3.5250   -2.7115 N   0  3  0  0  0  0  0  0  0  0  0  0
   -0.7847   -4.0546   -2.3974 H   0  0  0  0  0  0  0  0  0  0  0  0
    0.7823   -4.0160   -3.6513 C   0  0  0  0  0  0  0  0  0  0  0  0
    1.9197   -3.3712   -4.0804 N   0  0  0  0  0  0  0  0  0  0  0  0
    2.2543   -2.5837   -3.5292 H   0  0  0  0  0  0  0  0  0  0  0  0
    2.5987   -3.8936   -4.6302 H   0  0  0  0  0  0  0  0  0  0  0  0
    0.4439   -5.2140   -4.2335 N   0  0  0  0  0  0  0  0  0  0  0  0
   -0.4761   -5.6074   -4.0450 H   0  0  0  0  0  0  0  0  0  0  0  0
    0.9137   -5.4875   -5.0946 H   0  0  0  0  0  0  0  0  0  0  0  0
   -1.4211    0.8668    1.5580 C   0  0  0  0  0  0  0  0  0  0  0  0
   -2.3655    1.5202    1.1323 O   0  0  0  0  0  0  0  0  0  0  0  0
   -0.5501    1.4328    2.4709 N   0  0  0  0  0  0  0  0  0  0  0  0
    0.1656    0.8368    2.8776 H   0  0  0  0  0  0  0  0  0  0  0  0
   -0.7249    2.7792    3.0069 C   0  0  0  0  0  0  0  0  0  0  0  0
   -1.6753    2.8574    3.5457 H   0  0  0  0  0  0  0  0  0  0  0  0
    0.0860    3.0203    3.7014 H   0  0  0  0  0  0  0  0  0  0  0  0
   -0.7171    3.5190    2.1993 H   0  0  0  0  0  0  0  0  0  0  0  0
  1  2  1  0  0  0  0
  2  3  1  0  0  0  0
  2  4  1  0  0  0  0
  2  5  1  0  0  0  0
  5  6  2  0  0  0  0
  5  7  1  0  0  0  0
  7  8  1  0  0  0  0
  7  9  1  0  0  0  0
  9 10  1  0  0  0  0
  9 11  1  0  0  0  0
  9 29  1  0  0  0  0
 11 12  1  0  0  0  0
 11 13  1  0  0  0  0
 11 14  1  0  0  0  0
 14 15  1  0  0  0  0
 14 16  1  0  0  0  0
 14 17  1  0  0  0  0
 17 18  1  0  0  0  0
 17 19  1  0  0  0  0
 17 20  1  0  0  0  0
 20 21  1  0  0  0  0
 20 22  2  0  0  0  0
 22 23  1  0  0  0  0
 22 26  1  0  0  0  0
 23 24  1  0  0  0  0
 23 25  1  0  0  0  0
 26 27  1  0  0  0  0
 26 28  1  0  0  0  0
 29 30  2  0  0  0  0
 29 31  1  0  0  0  0
 31 32  1  0  0  0  0
 31 33  1  0  0  0  0
 33 34  1  0  0  0  0
 33 35  1  0  0  0  0
 33 36  1  0  0  0  0
M  CHG  1  20   1
M  END
$$$$

  -OEChem-03222214013D

 36 35  0     1  0  0  0  0  0999 V2000
   -4.2869   -3.9531    2.3619 H   0  0  0  0  0  0  0  0  0  0  0  0
   -4.2766   -2.9642    1.8950 C   0  0  0  0  0  0  0  0  0  0  0  0
   -4.7743   -2.2565    2.5631 H   0  0  0  0  0  0  0  0  0  0  0  0
   -4.8272   -3.0117    0.9526 H   0  0  0  0  0  0  0  0  0  0  0  0
   -2.8490   -2.5199    1.6424 C   0  0  0  0  0  0  0  0  0  0  0  0
   -1.9190   -3.2806    1.8659 O   0  0  0  0  0  0  0  0  0  0  0  0
   -2.6001   -1.2657    1.1212 N   0  0  0  0  0  0  0  0  0  0  0  0
   -3.4050   -0.6442    1.0291 H   0  0  0  0  0  0  0  0  0  0  0  0
   -1.2801   -0.6098    1.1143 C   0  0  1  0  0  0  0  0  0  0  0  0
   -0.6427   -1.1094    1.8517 H   0  0  0  0  0  0  0  0  0  0  0  0
   -0.5545   -0.6659   -0.2560 C   0  0  0  0  0  0  0  0  0  0  0  0
   -0.8203    0.2248   -0.8368 H   0  0  0  0  0  0  0  0  0  0  0  0
    0.5211   -0.6038   -0.0590 H   0  0  0  0  0  0  0  0  0  0  0  0
   -0.8577   -1.8939   -1.1409 C   0  0  0  0  0  0  0  0  0  0  0  0
   -1.3176   -2.6891   -0.5531 H   0  0  0  0  0  0  0  0  0  0  0  0
   -1.5616   -1.6139   -1.9322 H   0  0  0  0  0  0  0  0  0  0  0  0
    0.4313   -2.4600   -1.7340 C   0  0  0  0  0  0  0  0  0  0  0  0
    0.8655   -1.7259   -2.4217 H   0  0  0  0  0  0  0  0  0  0  0  0
    1.1454   -2.6455   -0.9239 H   0  0  0  0  0  0  0  0  0  0  0  0
    0.1379   -3.7203   -2.4404 N   0  3  0  0  0  0  0  0  0  0  0  0
   -0.7951   -4.1114   -2.3151 H   0  0  0  0  0  0  0  0  0  0  0  0
    1.0167   -4.3824   -3.1352 C   0  0  0  0  0  0  0  0  0  0  0  0
    2.3084   -3.9326   -3.2899 N   0  0  0  0  0  0  0  0  0  0  0  0
    2.6113   -3.1515   -2.7118 H   0  0  0  0  0  0  0  0  0  0  0  0
    3.0156   -4.5849   -3.6225 H   0  0  0  0  0  0  0  0  0  0  0  0
    0.6552   -5.5669   -3.7316 N   0  0  0  0  0  0  0  0  0  0  0  0
   -0.3312   -5.8176   -3.7656 H   0  0  0  0  0  0  0  0  0  0  0  0
    1.2752   -5.9684   -4.4327 H   0  0  0  0  0  0  0  0  0  0  0  0
   -1.4281    0.8593    1.5604 C   0  0  0  0  0  0  0  0  0  0  0  0
   -2.3717    1.5178    1.1409 O   0  0  0  0  0  0  0  0  0  0  0  0
   -0.5519    1.4194    2.4718 N   0  0  0  0  0  0  0  0  0  0  0  0
    0.1634    0.8200    2.8742 H   0  0  0  0  0  0  0  0  0  0  0  0
   -0.7181    2.7676    3.0062 C   0  0  0  0  0  0  0  0  0  0  0  0
   -1.6667    2.8520    3.5473 H   0  0  0  0  0  0  0  0  0  0  0  0
    0.0962    3.0057    3.6976 H   0  0  0  0  0  0  0  0  0  0  0  0
   -0.7094    3.5060    2.1971 H   0  0  0  0  0  0  0  0  0  0  0  0
  1  2  1  0  0  0  0
  2  3  1  0  0  0  0
  2  4  1  0  0  0  0
  2  5  1  0  0  0  0
  5  6  2  0  0  0  0
  5  7  1  0  0  0  0
  7  8  1  0  0  0  0
  7  9  1  0  0  0  0
  9 10  1  0  0  0  0
  9 11  1  0  0  0  0
  9 29  1  0  0  0  0
 11 12  1  0  0  0  0
 11 13  1  0  0  0  0
 11 14  1  0  0  0  0
 14 15  1  0  0  0  0
 14 16  1  0  0  0  0
 14 17  1  0  0  0  0
 17 18  1  0  0  0  0
 17 19  1  0  0  0  0
 17 20  1  0  0  0  0
 20 21  1  0  0  0  0
 20 22  2  0  0  0  0
 22 23  1  0  0  0  0
 22 26  1  0  0  0  0
 23 24  1  0  0  0  0
 23 25  1  0  0  0  0
 26 27  1  0  0  0  0
 26 28  1  0  0  0  0
 29 30  2  0  0  0  0
 29 31  1  0  0  0  0
 31 32  1  0  0  0  0
 31 33  1  0  0  0  0
 33 34  1  0  0  0  0
 33 35  1  0  0  0  0
 33 36  1  0  0  0  0
M  CHG  1  20   1
M  END
$$$$

  -OEChem-03222214013D

 36 35  0     1  0  0  0  0  0999 V2000
   -4.2673   -3.9563    2.3656 H   0  0  0  0  0  0  0  0  0  0  0  0
   -4.2691   -2.9668    1.8997 C   0  0  0  0  0  0  0  0  0  0  0  0
   -4.7525   -2.2612    2.5801 H   0  0  0  0  0  0  0  0  0  0  0  0
   -4.8412   -3.0137    0.9700 H   0  0  0  0  0  0  0  0  0  0  0  0
   -2.8486   -2.5194    1.6139 C   0  0  0  0  0  0  0  0  0  0  0  0
   -1.9135   -3.2891    1.7826 O   0  0  0  0  0  0  0  0  0  0  0  0
   -2.6116   -1.2579    1.1052 N   0  0  0  0  0  0  0  0  0  0  0  0
   -3.4174   -0.6334    1.0430 H   0  0  0  0  0  0  0  0  0  0  0  0
   -1.2923   -0.6014    1.0999 C   0  0  1  0  0  0  0  0  0  0  0  0
   -0.6595   -1.1065    1.8371 H   0  0  0  0  0  0  0  0  0  0  0  0
   -0.5499   -0.6550   -0.2617 C   0  0  0  0  0  0  0  0  0  0  0  0
   -0.8418    0.2307   -0.8383 H   0  0  0  0  0  0  0  0  0  0  0  0
    0.5242   -0.5603   -0.0700 H   0  0  0  0  0  0  0  0  0  0  0  0
   -0.8294   -1.8800   -1.1632 C   0  0  0  0  0  0  0  0  0  0  0  0
   -1.5537   -2.5607   -0.7160 H   0  0  0  0  0  0  0  0  0  0  0  0
   -1.2538   -1.5363   -2.1128 H   0  0  0  0  0  0  0  0  0  0  0  0
    0.4634   -2.6489   -1.4283 C   0  0  0  0  0  0  0  0  0  0  0  0
    1.1408   -2.0255   -2.0222 H   0  0  0  0  0  0  0  0  0  0  0  0
    0.9438   -2.8741   -0.4695 H   0  0  0  0  0  0  0  0  0  0  0  0
    0.1580   -3.9044   -2.1377 N   0  3  0  0  0  0  0  0  0  0  0  0
   -0.8261   -4.1528   -2.2308 H   0  0  0  0  0  0  0  0  0  0  0  0
    1.0658   -4.7391   -2.5527 C   0  0  0  0  0  0  0  0  0  0  0  0
    2.4094   -4.4878   -2.3922 N   0  0  0  0  0  0  0  0  0  0  0  0
    2.6759   -3.7141   -1.7869 H   0  0  0  0  0  0  0  0  0  0  0  0
    3.0646   -5.2595   -2.4977 H   0  0  0  0  0  0  0  0  0  0  0  0
    0.6822   -5.9086   -3.1646 N   0  0  0  0  0  0  0  0  0  0  0  0
   -0.2926   -6.0237   -3.4351 H   0  0  0  0  0  0  0  0  0  0  0  0
    1.3849   -6.4517   -3.6629 H   0  0  0  0  0  0  0  0  0  0  0  0
   -1.4374    0.8624    1.5642 C   0  0  0  0  0  0  0  0  0  0  0  0
   -2.3891    1.5216    1.1654 O   0  0  0  0  0  0  0  0  0  0  0  0
   -0.5571    1.4130    2.4777 N   0  0  0  0  0  0  0  0  0  0  0  0
    0.1709    0.8153    2.8590 H   0  0  0  0  0  0  0  0  0  0  0  0
   -0.7189    2.7563    3.0255 C   0  0  0  0  0  0  0  0  0  0  0  0
   -1.6676    2.8384    3.5667 H   0  0  0  0  0  0  0  0  0  0  0  0
    0.0955    2.9846    3.7201 H   0  0  0  0  0  0  0  0  0  0  0  0
   -0.7068    3.5027    2.2238 H   0  0  0  0  0  0  0  0  0  0  0  0
  1  2  1  0  0  0  0
  2  3  1  0  0  0  0
  2  4  1  0  0  0  0
  2  5  1  0  0  0  0
  5  6  2  0  0  0  0
  5  7  1  0  0  0  0
  7  8  1  0  0  0  0
  7  9  1  0  0  0  0
  9 10  1  0  0  0  0
  9 11  1  0  0  0  0
  9 29  1  0  0  0  0
 11 12  1  0  0  0  0
 11 13  1  0  0  0  0
 11 14  1  0  0  0  0
 14 15  1  0  0  0  0
 14 16  1  0  0  0  0
 14 17  1  0  0  0  0
 17 18  1  0  0  0  0
 17 19  1  0  0  0  0
 17 20  1  0  0  0  0
 20 21  1  0  0  0  0
 20 22  2  0  0  0  0
 22 23  1  0  0  0  0
 22 26  1  0  0  0  0
 23 24  1  0  0  0  0
 23 25  1  0  0  0  0
 26 27  1  0  0  0  0
 26 28  1  0  0  0  0
 29 30  2  0  0  0  0
 29 31  1  0  0  0  0
 31 32  1  0  0  0  0
 31 33  1  0  0  0  0
 33 34  1  0  0  0  0
 33 35  1  0  0  0  0
 33 36  1  0  0  0  0
M  CHG  1  20   1
M  END
$$$$

  -OEChem-03222214013D

 36 35  0     1  0  0  0  0  0999 V2000
   -3.2922   -4.5190    2.2893 H   0  0  0  0  0  0  0  0  0  0  0  0
   -3.5191   -3.5060    1.9456 C   0  0  0  0  0  0  0  0  0  0  0  0
   -3.9848   -2.9545    2.7666 H   0  0  0  0  0  0  0  0  0  0  0  0
   -4.2243   -3.5644    1.1128 H   0  0  0  0  0  0  0  0  0  0  0  0
   -2.2502   -2.8026    1.5050 C   0  0  0  0  0  0  0  0  0  0  0  0
   -1.1915   -3.4183    1.4419 O   0  0  0  0  0  0  0  0  0  0  0  0
   -2.3006   -1.4952    1.0694 N   0  0  0  0  0  0  0  0  0  0  0  0
   -3.1989   -1.0178    1.1687 H   0  0  0  0  0  0  0  0  0  0  0  0
   -1.1270   -0.6117    0.9632 C   0  0  1  0  0  0  0  0  0  0  0  0
   -0.3386   -1.0301    1.5976 H   0  0  0  0  0  0  0  0  0  0  0  0
   -0.5356   -0.4849   -0.4633 C   0  0  0  0  0  0  0  0  0  0  0  0
   -1.0641    0.3393   -0.9567 H   0  0  0  0  0  0  0  0  0  0  0  0
    0.5153   -0.1836   -0.3946 H   0  0  0  0  0  0  0  0  0  0  0  0
   -0.6907   -1.7127   -1.3883 C   0  0  0  0  0  0  0  0  0  0  0  0
   -1.4749   -2.3974   -1.0628 H   0  0  0  0  0  0  0  0  0  0  0  0
   -0.9786   -1.3643   -2.3859 H   0  0  0  0  0  0  0  0  0  0  0  0
    0.6501   -2.4359   -1.4984 C   0  0  0  0  0  0  0  0  0  0  0  0
    1.3732   -1.7834   -2.0000 H   0  0  0  0  0  0  0  0  0  0  0  0
    1.0370   -2.6414   -0.4943 H   0  0  0  0  0  0  0  0  0  0  0  0
    0.5040   -3.6949   -2.2519 N   0  3  0  0  0  0  0  0  0  0  0  0
    0.5314   -3.6289   -3.2684 H   0  0  0  0  0  0  0  0  0  0  0  0
    0.4225   -4.8686   -1.6914 C   0  0  0  0  0  0  0  0  0  0  0  0
    0.3585   -5.0336   -0.3272 N   0  0  0  0  0  0  0  0  0  0  0  0
    0.0497   -4.2286    0.2285 H   0  0  0  0  0  0  0  0  0  0  0  0
    0.1008   -5.9492    0.0306 H   0  0  0  0  0  0  0  0  0  0  0  0
    0.4045   -5.9921   -2.4829 N   0  0  0  0  0  0  0  0  0  0  0  0
    0.6493   -5.8980   -3.4665 H   0  0  0  0  0  0  0  0  0  0  0  0
    0.5580   -6.8954   -2.0388 H   0  0  0  0  0  0  0  0  0  0  0  0
   -1.4561    0.7788    1.5461 C   0  0  0  0  0  0  0  0  0  0  0  0
   -2.5621    1.2608    1.3392 O   0  0  0  0  0  0  0  0  0  0  0  0
   -0.5724    1.4283    2.3886 N   0  0  0  0  0  0  0  0  0  0  0  0
    0.3185    0.9818    2.5866 H   0  0  0  0  0  0  0  0  0  0  0  0
   -0.8777    2.7008    3.0354 C   0  0  0  0  0  0  0  0  0  0  0  0
   -1.7500    2.5992    3.6900 H   0  0  0  0  0  0  0  0  0  0  0  0
   -0.0289    3.0326    3.6414 H   0  0  0  0  0  0  0  0  0  0  0  0
   -1.0885    3.4720    2.2865 H   0  0  0  0  0  0  0  0  0  0  0  0
  1  2  1  0  0  0  0
  2  3  1  0  0  0  0
  2  4  1  0  0  0  0
  2  5  1  0  0  0  0
  5  6  2  0  0  0  0
  5  7  1  0  0  0  0
  7  8  1  0  0  0  0
  7  9  1  0  0  0  0
  9 10  1  0  0  0  0
  9 11  1  0  0  0  0
  9 29  1  0  0  0  0
 11 12  1  0  0  0  0
 11 13  1  0  0  0  0
 11 14  1  0  0  0  0
 14 15  1  0  0  0  0
 14 16  1  0  0  0  0
 14 17  1  0  0  0  0
 17 18  1  0  0  0  0
 17 19  1  0  0  0  0
 17 20  1  0  0  0  0
 20 21  1  0  0  0  0
 20 22  2  0  0  0  0
 22 23  1  0  0  0  0
 22 26  1  0  0  0  0
 23 24  1  0  0  0  0
 23 25  1  0  0  0  0
 26 27  1  0  0  0  0
 26 28  1  0  0  0  0
 29 30  2  0  0  0  0
 29 31  1  0  0  0  0
 31 32  1  0  0  0  0
 31 33  1  0  0  0  0
 33 34  1  0  0  0  0
 33 35  1  0  0  0  0
 33 36  1  0  0  0  0
M  CHG  1  20   1
M  END
$$$$

  -OEChem-03222214013D

 36 35  0     1  0  0  0  0  0999 V2000
   -3.4309   -4.4516    2.3623 H   0  0  0  0  0  0  0  0  0  0  0  0
   -3.6118   -3.4267    2.0277 C   0  0  0  0  0  0  0  0  0  0  0  0
   -4.0742   -2.8681    2.8456 H   0  0  0  0  0  0  0  0  0  0  0  0
   -4.3001   -3.4477    1.1793 H   0  0  0  0  0  0  0  0  0  0  0  0
   -2.3092   -2.7646    1.6238 C   0  0  0  0  0  0  0  0  0  0  0  0
   -1.2625   -3.4022    1.6383 O   0  0  0  0  0  0  0  0  0  0  0  0
   -2.3173   -1.4721    1.1455 N   0  0  0  0  0  0  0  0  0  0  0  0
   -3.2111   -0.9785    1.1908 H   0  0  0  0  0  0  0  0  0  0  0  0
   -1.1291   -0.6086    1.0378 C   0  0  1  0  0  0  0  0  0  0  0  0
   -0.3571   -1.0166    1.6986 H   0  0  0  0  0  0  0  0  0  0  0  0
   -0.5198   -0.5335   -0.3851 C   0  0  0  0  0  0  0  0  0  0  0  0
   -1.0296    0.2824   -0.9110 H   0  0  0  0  0  0  0  0  0  0  0  0
    0.5366   -0.2521   -0.3184 H   0  0  0  0  0  0  0  0  0  0  0  0
   -0.6885   -1.7872   -1.2664 C   0  0  0  0  0  0  0  0  0  0  0  0
   -1.6377   -2.2977   -1.0872 H   0  0  0  0  0  0  0  0  0  0  0  0
   -0.6928   -1.4745   -2.3159 H   0  0  0  0  0  0  0  0  0  0  0  0
    0.4975   -2.7250   -1.0463 C   0  0  0  0  0  0  0  0  0  0  0  0
    1.4201   -2.2191   -1.3516 H   0  0  0  0  0  0  0  0  0  0  0  0
    0.5847   -2.9508    0.0215 H   0  0  0  0  0  0  0  0  0  0  0  0
    0.3282   -3.9655   -1.8264 N   0  3  0  0  0  0  0  0  0  0  0  0
    0.3749   -3.8807   -2.8405 H   0  0  0  0  0  0  0  0  0  0  0  0
    0.1932   -5.1470   -1.2935 C   0  0  0  0  0  0  0  0  0  0  0  0
    0.1082   -5.3392    0.0654 N   0  0  0  0  0  0  0  0  0  0  0  0
   -0.1453   -4.5240    0.6343 H   0  0  0  0  0  0  0  0  0  0  0  0
   -0.2109   -6.2433    0.4023 H   0  0  0  0  0  0  0  0  0  0  0  0
    0.1358   -6.2509   -2.1106 N   0  0  0  0  0  0  0  0  0  0  0  0
    0.3877   -6.1452   -3.0911 H   0  0  0  0  0  0  0  0  0  0  0  0
    0.2489   -7.1697   -1.6865 H   0  0  0  0  0  0  0  0  0  0  0  0
   -1.4547    0.8042    1.5660 C   0  0  0  0  0  0  0  0  0  0  0  0
   -2.5455    1.2953    1.3057 O   0  0  0  0  0  0  0  0  0  0  0  0
   -0.5854    1.4732    2.4082 N   0  0  0  0  0  0  0  0  0  0  0  0
    0.2912    1.0208    2.6516 H   0  0  0  0  0  0  0  0  0  0  0  0
   -0.8818    2.7820    2.9831 C   0  0  0  0  0  0  0  0  0  0  0  0
   -1.7655    2.7275    3.6280 H   0  0  0  0  0  0  0  0  0  0  0  0
   -0.0371    3.1332    3.5839 H   0  0  0  0  0  0  0  0  0  0  0  0
   -1.0694    3.5159    2.1917 H   0  0  0  0  0  0  0  0  0  0  0  0
  1  2  1  0  0  0  0
  2  3  1  0  0  0  0
  2  4  1  0  0  0  0
  2  5  1  0  0  0  0
  5  6  2  0  0  0  0
  5  7  1  0  0  0  0
  7  8  1  0  0  0  0
  7  9  1  0  0  0  0
  9 10  1  0  0  0  0
  9 11  1  0  0  0  0
  9 29  1  0  0  0  0
 11 12  1  0  0  0  0
 11 13  1  0  0  0  0
 11 14  1  0  0  0  0
 14 15  1  0  0  0  0
 14 16  1  0  0  0  0
 14 17  1  0  0  0  0
 17 18  1  0  0  0  0
 17 19  1  0  0  0  0
 17 20  1  0  0  0  0
 20 21  1  0  0  0  0
 20 22  2  0  0  0  0
 22 23  1  0  0  0  0
 22 26  1  0  0  0  0
 23 24  1  0  0  0  0
 23 25  1  0  0  0  0
 26 27  1  0  0  0  0
 26 28  1  0  0  0  0
 29 30  2  0  0  0  0
 29 31  1  0  0  0  0
 31 32  1  0  0  0  0
 31 33  1  0  0  0  0
 33 34  1  0  0  0  0
 33 35  1  0  0  0  0
 33 36  1  0  0  0  0
M  CHG  1  20   1
M  END
$$$$

  -OEChem-03222214013D

 36 35  0     1  0  0  0  0  0999 V2000
   -3.7122   -4.3425    2.3415 H   0  0  0  0  0  0  0  0  0  0  0  0
   -3.8068   -3.3244    1.9543 C   0  0  0  0  0  0  0  0  0  0  0  0
   -4.3395   -2.7183    2.6919 H   0  0  0  0  0  0  0  0  0  0  0  0
   -4.3894   -3.3502    1.0302 H   0  0  0  0  0  0  0  0  0  0  0  0
   -2.4372   -2.7294    1.6904 C   0  0  0  0  0  0  0  0  0  0  0  0
   -1.4325   -3.4000    1.8879 O   0  0  0  0  0  0  0  0  0  0  0  0
   -2.3397   -1.4502    1.1871 N   0  0  0  0  0  0  0  0  0  0  0  0
   -3.2160   -0.9288    1.1165 H   0  0  0  0  0  0  0  0  0  0  0  0
   -1.1197   -0.6262    1.1093 C   0  0  1  0  0  0  0  0  0  0  0  0
   -0.3767   -1.0458    1.7956 H   0  0  0  0  0  0  0  0  0  0  0  0
   -0.4864   -0.5668   -0.3072 C   0  0  0  0  0  0  0  0  0  0  0  0
   -0.9452    0.2728   -0.8423 H   0  0  0  0  0  0  0  0  0  0  0  0
    0.5806   -0.3374   -0.2146 H   0  0  0  0  0  0  0  0  0  0  0  0
   -0.6771   -1.8031   -1.2024 C   0  0  0  0  0  0  0  0  0  0  0  0
   -1.7232   -2.1249   -1.2001 H   0  0  0  0  0  0  0  0  0  0  0  0
   -0.4204   -1.5404   -2.2341 H   0  0  0  0  0  0  0  0  0  0  0  0
    0.2426   -2.9289   -0.7286 C   0  0  0  0  0  0  0  0  0  0  0  0
    1.2833   -2.6377   -0.9087 H   0  0  0  0  0  0  0  0  0  0  0  0
    0.1264   -3.0635    0.3485 H   0  0  0  0  0  0  0  0  0  0  0  0
   -0.0520   -4.1826   -1.4479 N   0  3  0  0  0  0  0  0  0  0  0  0
   -0.0981   -4.1299   -2.4640 H   0  0  0  0  0  0  0  0  0  0  0  0
   -0.1496   -5.3451   -0.8672 C   0  0  0  0  0  0  0  0  0  0  0  0
   -0.0923   -5.4948    0.4986 N   0  0  0  0  0  0  0  0  0  0  0  0
   -0.3023   -4.6614    1.0590 H   0  0  0  0  0  0  0  0  0  0  0  0
   -0.3763   -6.3876    0.8926 H   0  0  0  0  0  0  0  0  0  0  0  0
   -0.3090   -6.4714   -1.6387 N   0  0  0  0  0  0  0  0  0  0  0  0
   -0.1638   -6.3985   -2.6434 H   0  0  0  0  0  0  0  0  0  0  0  0
   -0.1625   -7.3790   -1.2012 H   0  0  0  0  0  0  0  0  0  0  0  0
   -1.4347    0.8061    1.5902 C   0  0  0  0  0  0  0  0  0  0  0  0
   -2.4978    1.3193    1.2644 O   0  0  0  0  0  0  0  0  0  0  0  0
   -0.5875    1.4736    2.4556 N   0  0  0  0  0  0  0  0  0  0  0  0
    0.2646    1.0054    2.7508 H   0  0  0  0  0  0  0  0  0  0  0  0
   -0.8778    2.8017    2.9870 C   0  0  0  0  0  0  0  0  0  0  0  0
   -1.8052    2.7888    3.5695 H   0  0  0  0  0  0  0  0  0  0  0  0
   -0.0658    3.1360    3.6400 H   0  0  0  0  0  0  0  0  0  0  0  0
   -0.9849    3.5261    2.1726 H   0  0  0  0  0  0  0  0  0  0  0  0
  1  2  1  0  0  0  0
  2  3  1  0  0  0  0
  2  4  1  0  0  0  0
  2  5  1  0  0  0  0
  5  6  2  0  0  0  0
  5  7  1  0  0  0  0
  7  8  1  0  0  0  0
  7  9  1  0  0  0  0
  9 10  1  0  0  0  0
  9 11  1  0  0  0  0
  9 29  1  0  0  0  0
 11 12  1  0  0  0  0
 11 13  1  0  0  0  0
 11 14  1  0  0  0  0
 14 15  1  0  0  0  0
 14 16  1  0  0  0  0
 14 17  1  0  0  0  0
 17 18  1  0  0  0  0
 17 19  1  0  0  0  0
 17 20  1  0  0  0  0
 20 21  1  0  0  0  0
 20 22  2  0  0  0  0
 22 23  1  0  0  0  0
 22 26  1  0  0  0  0
 23 24  1  0  0  0  0
 23 25  1  0  0  0  0
 26 27  1  0  0  0  0
 26 28  1  0  0  0  0
 29 30  2  0  0  0  0
 29 31  1  0  0  0  0
 31 32  1  0  0  0  0
 31 33  1  0  0  0  0
 33 34  1  0  0  0  0
 33 35  1  0  0  0  0
 33 36  1  0  0  0  0
M  CHG  1  20   1
M  END
$$$$

  -OEChem-03222214013D

 36 35  0     1  0  0  0  0  0999 V2000
   -3.9316   -4.2380    2.3752 H   0  0  0  0  0  0  0  0  0  0  0  0
   -3.9467   -3.2486    1.9097 C   0  0  0  0  0  0  0  0  0  0  0  0
   -4.5605   -2.5840    2.5235 H   0  0  0  0  0  0  0  0  0  0  0  0
   -4.3969   -3.3302    0.9174 H   0  0  0  0  0  0  0  0  0  0  0  0
   -2.5393   -2.6939    1.8000 C   0  0  0  0  0  0  0  0  0  0  0  0
   -1.5954   -3.3611    2.2001 O   0  0  0  0  0  0  0  0  0  0  0  0
   -2.3516   -1.4429    1.2518 N   0  0  0  0  0  0  0  0  0  0  0  0
   -3.2040   -0.9157    1.0513 H   0  0  0  0  0  0  0  0  0  0  0  0
   -1.1097   -0.6460    1.1963 C   0  0  1  0  0  0  0  0  0  0  0  0
   -0.3955   -1.0537    1.9194 H   0  0  0  0  0  0  0  0  0  0  0  0
   -0.4383   -0.6098   -0.2095 C   0  0  0  0  0  0  0  0  0  0  0  0
   -0.8424    0.2463   -0.7621 H   0  0  0  0  0  0  0  0  0  0  0  0
    0.6311   -0.4182   -0.0715 H   0  0  0  0  0  0  0  0  0  0  0  0
   -0.6071   -1.8281   -1.1328 C   0  0  0  0  0  0  0  0  0  0  0  0
   -1.6742   -1.9704   -1.3349 H   0  0  0  0  0  0  0  0  0  0  0  0
   -0.1106   -1.6378   -2.0902 H   0  0  0  0  0  0  0  0  0  0  0  0
   -0.0265   -3.0861   -0.4904 C   0  0  0  0  0  0  0  0  0  0  0  0
    1.0663   -3.0402   -0.5572 H   0  0  0  0  0  0  0  0  0  0  0  0
   -0.2795   -3.0998    0.5659 H   0  0  0  0  0  0  0  0  0  0  0  0
   -0.5101   -4.3078   -1.1600 N   0  3  0  0  0  0  0  0  0  0  0  0
   -0.6406   -4.2626   -2.1694 H   0  0  0  0  0  0  0  0  0  0  0  0
   -0.6415   -5.4513   -0.5486 C   0  0  0  0  0  0  0  0  0  0  0  0
   -0.4618   -5.5819    0.8090 N   0  0  0  0  0  0  0  0  0  0  0  0
   -0.5536   -4.7261    1.3673 H   0  0  0  0  0  0  0  0  0  0  0  0
   -0.7673   -6.4449    1.2504 H   0  0  0  0  0  0  0  0  0  0  0  0
   -0.9627   -6.5739   -1.2737 N   0  0  0  0  0  0  0  0  0  0  0  0
   -0.9049   -6.5307   -2.2890 H   0  0  0  0  0  0  0  0  0  0  0  0
   -0.8439   -7.4824   -0.8294 H   0  0  0  0  0  0  0  0  0  0  0  0
   -1.4328    0.8097    1.5984 C   0  0  0  0  0  0  0  0  0  0  0  0
   -2.4709    1.3197    1.1946 O   0  0  0  0  0  0  0  0  0  0  0  0
   -0.6224    1.5055    2.4767 N   0  0  0  0  0  0  0  0  0  0  0  0
    0.2055    1.0398    2.8377 H   0  0  0  0  0  0  0  0  0  0  0  0
   -0.9315    2.8511    2.9504 C   0  0  0  0  0  0  0  0  0  0  0  0
   -1.9025    2.8664    3.4570 H   0  0  0  0  0  0  0  0  0  0  0  0
   -0.1686    3.1898    3.6585 H   0  0  0  0  0  0  0  0  0  0  0  0
   -0.9615    3.5557    2.1123 H   0  0  0  0  0  0  0  0  0  0  0  0
  1  2  1  0  0  0  0
  2  3  1  0  0  0  0
  2  4  1  0  0  0  0
  2  5  1  0  0  0  0
  5  6  2  0  0  0  0
  5  7  1  0  0  0  0
  7  8  1  0  0  0  0
  7  9  1  0  0  0  0
  9 10  1  0  0  0  0
  9 11  1  0  0  0  0
  9 29  1  0  0  0  0
 11 12  1  0  0  0  0
 11 13  1  0  0  0  0
 11 14  1  0  0  0  0
 14 15  1  0  0  0  0
 14 16  1  0  0  0  0
 14 17  1  0  0  0  0
 17 18  1  0  0  0  0
 17 19  1  0  0  0  0
 17 20  1  0  0  0  0
 20 21  1  0  0  0  0
 20 22  2  0  0  0  0
 22 23  1  0  0  0  0
 22 26  1  0  0  0  0
 23 24  1  0  0  0  0
 23 25  1  0  0  0  0
 26 27  1  0  0  0  0
 26 28  1  0  0  0  0
 29 30  2  0  0  0  0
 29 31  1  0  0  0  0
 31 32  1  0  0  0  0
 31 33  1  0  0  0  0
 33 34  1  0  0  0  0
 33 35  1  0  0  0  0
 33 36  1  0  0  0  0
M  CHG  1  20   1
M  END
$$$$

  -OEChem-03222214013D

 36 35  0     1  0  0  0  0  0999 V2000
   -4.1813   -4.0398    2.6361 H   0  0  0  0  0  0  0  0  0  0  0  0
   -4.1259   -3.0852    2.1056 C   0  0  0  0  0  0  0  0  0  0  0  0
   -4.7126   -2.3458    2.6576 H   0  0  0  0  0  0  0  0  0  0  0  0
   -4.5569   -3.2069    1.1089 H   0  0  0  0  0  0  0  0  0  0  0  0
   -2.6857   -2.6218    1.9988 C   0  0  0  0  0  0  0  0  0  0  0  0
   -1.7970   -3.3121    2.4804 O   0  0  0  0  0  0  0  0  0  0  0  0
   -2.4186   -1.4214    1.3710 N   0  0  0  0  0  0  0  0  0  0  0  0
   -3.2432   -0.8766    1.1093 H   0  0  0  0  0  0  0  0  0  0  0  0
   -1.1504   -0.6635    1.2991 C   0  0  1  0  0  0  0  0  0  0  0  0
   -0.4755   -1.0377    2.0764 H   0  0  0  0  0  0  0  0  0  0  0  0
   -0.4027   -0.6916   -0.0767 C   0  0  0  0  0  0  0  0  0  0  0  0
   -0.7400    0.1653   -0.6721 H   0  0  0  0  0  0  0  0  0  0  0  0
    0.6581   -0.5218    0.1370 H   0  0  0  0  0  0  0  0  0  0  0  0
   -0.4986   -1.9081   -1.0184 C   0  0  0  0  0  0  0  0  0  0  0  0
   -1.4935   -1.8926   -1.4765 H   0  0  0  0  0  0  0  0  0  0  0  0
    0.2404   -1.8182   -1.8219 H   0  0  0  0  0  0  0  0  0  0  0  0
   -0.3184   -3.2285   -0.2854 C   0  0  0  0  0  0  0  0  0  0  0  0
    0.7481   -3.3724   -0.0797 H   0  0  0  0  0  0  0  0  0  0  0  0
   -0.8211   -3.1632    0.6647 H   0  0  0  0  0  0  0  0  0  0  0  0
   -0.8365   -4.3784   -1.0444 N   0  3  0  0  0  0  0  0  0  0  0  0
   -0.8599   -4.2997   -2.0599 H   0  0  0  0  0  0  0  0  0  0  0  0
   -1.1598   -5.5035   -0.4720 C   0  0  0  0  0  0  0  0  0  0  0  0
   -1.1232   -5.6652    0.8960 N   0  0  0  0  0  0  0  0  0  0  0  0
   -1.0747   -4.8201    1.4757 H   0  0  0  0  0  0  0  0  0  0  0  0
   -1.5708   -6.4820    1.3035 H   0  0  0  0  0  0  0  0  0  0  0  0
   -1.5442   -6.5716   -1.2472 N   0  0  0  0  0  0  0  0  0  0  0  0
   -1.3907   -6.5241   -2.2525 H   0  0  0  0  0  0  0  0  0  0  0  0
   -1.5773   -7.4927   -0.8143 H   0  0  0  0  0  0  0  0  0  0  0  0
   -1.4673    0.8217    1.5836 C   0  0  0  0  0  0  0  0  0  0  0  0
   -2.4819    1.3155    1.1057 O   0  0  0  0  0  0  0  0  0  0  0  0
   -0.6776    1.5673    2.4391 N   0  0  0  0  0  0  0  0  0  0  0  0
    0.1264    1.1151    2.8661 H   0  0  0  0  0  0  0  0  0  0  0  0
   -0.9768    2.9499    2.7990 C   0  0  0  0  0  0  0  0  0  0  0  0
   -1.9435    3.0133    3.3101 H   0  0  0  0  0  0  0  0  0  0  0  0
   -0.2058    3.3429    3.4692 H   0  0  0  0  0  0  0  0  0  0  0  0
   -1.0103    3.5816    1.9047 H   0  0  0  0  0  0  0  0  0  0  0  0
  1  2  1  0  0  0  0
  2  3  1  0  0  0  0
  2  4  1  0  0  0  0
  2  5  1  0  0  0  0
  5  6  2  0  0  0  0
  5  7  1  0  0  0  0
  7  8  1  0  0  0  0
  7  9  1  0  0  0  0
  9 10  1  0  0  0  0
  9 11  1  0  0  0  0
  9 29  1  0  0  0  0
 11 12  1  0  0  0  0
 11 13  1  0  0  0  0
 11 14  1  0  0  0  0
 14 15  1  0  0  0  0
 14 16  1  0  0  0  0
 14 17  1  0  0  0  0
 17 18  1  0  0  0  0
 17 19  1  0  0  0  0
 17 20  1  0  0  0  0
 20 21  1  0  0  0  0
 20 22  2  0  0  0  0
 22 23  1  0  0  0  0
 22 26  1  0  0  0  0
 23 24  1  0  0  0  0
 23 25  1  0  0  0  0
 26 27  1  0  0  0  0
 26 28  1  0  0  0  0
 29 30  2  0  0  0  0
 29 31  1  0  0  0  0
 31 32  1  0  0  0  0
 31 33  1  0  0  0  0
 33 34  1  0  0  0  0
 33 35  1  0  0  0  0
 33 36  1  0  0  0  0
M  CHG  1  20   1
M  END
$$$$

  -OEChem-03222214013D

 36 35  0     1  0  0  0  0  0999 V2000
   -4.7822   -3.4983    2.8396 H   0  0  0  0  0  0  0  0  0  0  0  0
   -4.6274   -2.5501    2.3173 C   0  0  0  0  0  0  0  0  0  0  0  0
   -5.0151   -1.7409    2.9420 H   0  0  0  0  0  0  0  0  0  0  0  0
   -5.1836   -2.5690    1.3768 H   0  0  0  0  0  0  0  0  0  0  0  0
   -3.1517   -2.3299    2.0464 C   0  0  0  0  0  0  0  0  0  0  0  0
   -2.3423   -3.1945    2.3645 O   0  0  0  0  0  0  0  0  0  0  0  0
   -2.7495   -1.1693    1.4114 N   0  0  0  0  0  0  0  0  0  0  0  0
   -3.4829   -0.4759    1.2471 H   0  0  0  0  0  0  0  0  0  0  0  0
   -1.3720   -0.6462    1.3022 C   0  0  1  0  0  0  0  0  0  0  0  0
   -0.7585   -1.1386    2.0641 H   0  0  0  0  0  0  0  0  0  0  0  0
   -0.6465   -0.7923   -0.0780 C   0  0  0  0  0  0  0  0  0  0  0  0
   -0.8229    0.1198   -0.6607 H   0  0  0  0  0  0  0  0  0  0  0  0
    0.4266   -0.8168    0.1405 H   0  0  0  0  0  0  0  0  0  0  0  0
   -0.9471   -1.9650   -1.0387 C   0  0  0  0  0  0  0  0  0  0  0  0
   -1.7560   -1.6767   -1.7187 H   0  0  0  0  0  0  0  0  0  0  0  0
   -0.0545   -2.1509   -1.6454 H   0  0  0  0  0  0  0  0  0  0  0  0
   -1.3595   -3.2283   -0.3121 C   0  0  0  0  0  0  0  0  0  0  0  0
   -0.8058   -3.2627    0.6322 H   0  0  0  0  0  0  0  0  0  0  0  0
   -2.4280   -3.1623   -0.0902 H   0  0  0  0  0  0  0  0  0  0  0  0
   -1.1035   -4.4749   -1.0458 N   0  3  0  0  0  0  0  0  0  0  0  0
   -0.7790   -4.4112   -2.0095 H   0  0  0  0  0  0  0  0  0  0  0  0
   -1.2407   -5.6322   -0.4642 C   0  0  0  0  0  0  0  0  0  0  0  0
   -1.6604   -5.7329    0.8465 N   0  0  0  0  0  0  0  0  0  0  0  0
   -1.7603   -4.8695    1.3921 H   0  0  0  0  0  0  0  0  0  0  0  0
   -1.4996   -6.5999    1.3530 H   0  0  0  0  0  0  0  0  0  0  0  0
   -0.9618   -6.7841   -1.1599 N   0  0  0  0  0  0  0  0  0  0  0  0
   -0.8387   -6.7272   -2.1688 H   0  0  0  0  0  0  0  0  0  0  0  0
   -1.2659   -7.6719   -0.7646 H   0  0  0  0  0  0  0  0  0  0  0  0
   -1.4138    0.8655    1.6192 C   0  0  0  0  0  0  0  0  0  0  0  0
   -2.3416    1.5390    1.1871 O   0  0  0  0  0  0  0  0  0  0  0  0
   -0.4772    1.4457    2.4546 N   0  0  0  0  0  0  0  0  0  0  0  0
    0.2491    0.8527    2.8464 H   0  0  0  0  0  0  0  0  0  0  0  0
   -0.5103    2.8557    2.8308 C   0  0  0  0  0  0  0  0  0  0  0  0
   -1.4300    3.0858    3.3792 H   0  0  0  0  0  0  0  0  0  0  0  0
    0.3435    3.0981    3.4712 H   0  0  0  0  0  0  0  0  0  0  0  0
   -0.4639    3.4923    1.9406 H   0  0  0  0  0  0  0  0  0  0  0  0
  1  2  1  0  0  0  0
  2  3  1  0  0  0  0
  2  4  1  0  0  0  0
  2  5  1  0  0  0  0
  5  6  2  0  0  0  0
  5  7  1  0  0  0  0
  7  8  1  0  0  0  0
  7  9  1  0  0  0  0
  9 10  1  0  0  0  0
  9 11  1  0  0  0  0
  9 29  1  0  0  0  0
 11 12  1  0  0  0  0
 11 13  1  0  0  0  0
 11 14  1  0  0  0  0
 14 15  1  0  0  0  0
 14 16  1  0  0  0  0
 14 17  1  0  0  0  0
 17 18  1  0  0  0  0
 17 19  1  0  0  0  0
 17 20  1  0  0  0  0
 20 21  1  0  0  0  0
 20 22  2  0  0  0  0
 22 23  1  0  0  0  0
 22 26  1  0  0  0  0
 23 24  1  0  0  0  0
 23 25  1  0  0  0  0
 26 27  1  0  0  0  0
 26 28  1  0  0  0  0
 29 30  2  0  0  0  0
 29 31  1  0  0  0  0
 31 32  1  0  0  0  0
 31 33  1  0  0  0  0
 33 34  1  0  0  0  0
 33 35  1  0  0  0  0
 33 36  1  0  0  0  0
M  CHG  1  20   1
M  END
$$$$

  -OEChem-03222214013D

 36 35  0     1  0  0  0  0  0999 V2000
   -4.9470   -3.3186    2.8927 H   0  0  0  0  0  0  0  0  0  0  0  0
   -4.7504   -2.3905    2.3487 C   0  0  0  0  0  0  0  0  0  0  0  0
   -5.1176   -1.5517    2.9462 H   0  0  0  0  0  0  0  0  0  0  0  0
   -5.2928   -2.4139    1.4004 H   0  0  0  0  0  0  0  0  0  0  0  0
   -3.2637   -2.2313    2.0953 C   0  0  0  0  0  0  0  0  0  0  0  0
   -2.4955   -3.1264    2.4264 O   0  0  0  0  0  0  0  0  0  0  0  0
   -2.8102   -1.0991    1.4444 N   0  0  0  0  0  0  0  0  0  0  0  0
   -3.5165   -0.3816    1.2652 H   0  0  0  0  0  0  0  0  0  0  0  0
   -1.4156   -0.6196    1.3400 C   0  0  1  0  0  0  0  0  0  0  0  0
   -0.8333   -1.1126    2.1261 H   0  0  0  0  0  0  0  0  0  0  0  0
   -0.6516   -0.8182   -0.0161 C   0  0  0  0  0  0  0  0  0  0  0  0
   -0.7969    0.0873   -0.6174 H   0  0  0  0  0  0  0  0  0  0  0  0
    0.4135   -0.8473    0.2377 H   0  0  0  0  0  0  0  0  0  0  0  0
   -0.9204   -1.9972   -0.9863 C   0  0  0  0  0  0  0  0  0  0  0  0
   -1.4753   -1.6242   -1.8541 H   0  0  0  0  0  0  0  0  0  0  0  0
    0.0448   -2.3668   -1.3488 H   0  0  0  0  0  0  0  0  0  0  0  0
   -1.7057   -3.1387   -0.3797 C   0  0  0  0  0  0  0  0  0  0  0  0
   -1.2906   -3.3046    0.6172 H   0  0  0  0  0  0  0  0  0  0  0  0
   -2.7550   -2.8418   -0.2876 H   0  0  0  0  0  0  0  0  0  0  0  0
   -1.6104   -4.4008   -1.1269 N   0  3  0  0  0  0  0  0  0  0  0  0
   -1.3488   -4.3577   -2.1106 H   0  0  0  0  0  0  0  0  0  0  0  0
   -1.8324   -5.5481   -0.5502 C   0  0  0  0  0  0  0  0  0  0  0  0
   -2.1874   -5.6340    0.7804 N   0  0  0  0  0  0  0  0  0  0  0  0
   -2.1578   -4.7798    1.3482 H   0  0  0  0  0  0  0  0  0  0  0  0
   -2.0903   -6.5252    1.2606 H   0  0  0  0  0  0  0  0  0  0  0  0
   -1.7127   -6.7102   -1.2740 N   0  0  0  0  0  0  0  0  0  0  0  0
   -1.6290   -6.6505   -2.2866 H   0  0  0  0  0  0  0  0  0  0  0  0
   -2.0868   -7.5689   -0.8743 H   0  0  0  0  0  0  0  0  0  0  0  0
   -1.4201    0.8991    1.6262 C   0  0  0  0  0  0  0  0  0  0  0  0
   -2.3274    1.5869    1.1733 O   0  0  0  0  0  0  0  0  0  0  0  0
   -0.4780    1.4710    2.4610 N   0  0  0  0  0  0  0  0  0  0  0  0
    0.2326    0.8682    2.8666 H   0  0  0  0  0  0  0  0  0  0  0  0
   -0.4878    2.8850    2.8231 C   0  0  0  0  0  0  0  0  0  0  0  0
   -1.4133    3.1401    3.3505 H   0  0  0  0  0  0  0  0  0  0  0  0
    0.3572    3.1153    3.4795 H   0  0  0  0  0  0  0  0  0  0  0  0
   -0.4093    3.5115    1.9280 H   0  0  0  0  0  0  0  0  0  0  0  0
  1  2  1  0  0  0  0
  2  3  1  0  0  0  0
  2  4  1  0  0  0  0
  2  5  1  0  0  0  0
  5  6  2  0  0  0  0
  5  7  1  0  0  0  0
  7  8  1  0  0  0  0
  7  9  1  0  0  0  0
  9 10  1  0  0  0  0
  9 11  1  0  0  0  0
  9 29  1  0  0  0  0
 11 12  1  0  0  0  0
 11 13  1  0  0  0  0
 11 14  1  0  0  0  0
 14 15  1  0  0  0  0
 14 16  1  0  0  0  0
 14 17  1  0  0  0  0
 17 18  1  0  0  0  0
 17 19  1  0  0  0  0
 17 20  1  0  0  0  0
 20 21  1  0  0  0  0
 20 22  2  0  0  0  0
 22 23  1  0  0  0  0
 22 26  1  0  0  0  0
 23 24  1  0  0  0  0
 23 25  1  0  0  0  0
 26 27  1  0  0  0  0
 26 28  1  0  0  0  0
 29 30  2  0  0  0  0
 29 31  1  0  0  0  0
 31 32  1  0  0  0  0
 31 33  1  0  0  0  0
 33 34  1  0  0  0  0
 33 35  1  0  0  0  0
 33 36  1  0  0  0  0
M  CHG  1  20   1
M  END
$$$$

  -OEChem-03222214013D

 36 35  0     1  0  0  0  0  0999 V2000
   -5.0729   -3.1795    2.9756 H   0  0  0  0  0  0  0  0  0  0  0  0
   -4.8536   -2.2462    2.4493 C   0  0  0  0  0  0  0  0  0  0  0  0
   -5.1569   -1.4092    3.0840 H   0  0  0  0  0  0  0  0  0  0  0  0
   -5.4328   -2.2170    1.5232 H   0  0  0  0  0  0  0  0  0  0  0  0
   -3.3720   -2.1495    2.1416 C   0  0  0  0  0  0  0  0  0  0  0  0
   -2.6323   -3.0804    2.4366 O   0  0  0  0  0  0  0  0  0  0  0  0
   -2.8907   -1.0313    1.4862 N   0  0  0  0  0  0  0  0  0  0  0  0
   -3.5683   -0.2788    1.3421 H   0  0  0  0  0  0  0  0  0  0  0  0
   -1.4784   -0.6139    1.3538 C   0  0  1  0  0  0  0  0  0  0  0  0
   -0.9058   -1.1351    2.1285 H   0  0  0  0  0  0  0  0  0  0  0  0
   -0.7317   -0.8324   -0.0109 C   0  0  0  0  0  0  0  0  0  0  0  0
   -0.8759    0.0815   -0.5996 H   0  0  0  0  0  0  0  0  0  0  0  0
    0.3379   -0.8767    0.2207 H   0  0  0  0  0  0  0  0  0  0  0  0
   -1.0382   -1.9857   -1.0043 C   0  0  0  0  0  0  0  0  0  0  0  0
   -1.3001   -1.5570   -1.9778 H   0  0  0  0  0  0  0  0  0  0  0  0
   -0.1147   -2.5589   -1.1413 H   0  0  0  0  0  0  0  0  0  0  0  0
   -2.1354   -2.9379   -0.5844 C   0  0  0  0  0  0  0  0  0  0  0  0
   -1.9345   -3.1798    0.4538 H   0  0  0  0  0  0  0  0  0  0  0  0
   -3.1083   -2.4397   -0.6563 H   0  0  0  0  0  0  0  0  0  0  0  0
   -2.1358   -4.1955   -1.3472 N   0  3  0  0  0  0  0  0  0  0  0  0
   -1.9678   -4.1417   -2.3508 H   0  0  0  0  0  0  0  0  0  0  0  0
   -2.3320   -5.3506   -0.7754 C   0  0  0  0  0  0  0  0  0  0  0  0
   -2.5644   -5.4699    0.5799 N   0  0  0  0  0  0  0  0  0  0  0  0
   -2.4485   -4.6408    1.1723 H   0  0  0  0  0  0  0  0  0  0  0  0
   -2.4621   -6.3810    1.0197 H   0  0  0  0  0  0  0  0  0  0  0  0
   -2.3100   -6.4947   -1.5365 N   0  0  0  0  0  0  0  0  0  0  0  0
   -2.3240   -6.4089   -2.5506 H   0  0  0  0  0  0  0  0  0  0  0  0
   -2.6616   -7.3566   -1.1239 H   0  0  0  0  0  0  0  0  0  0  0  0
   -1.4144    0.9015    1.6515 C   0  0  0  0  0  0  0  0  0  0  0  0
   -2.3031    1.6296    1.2254 O   0  0  0  0  0  0  0  0  0  0  0  0
   -0.4316    1.4268    2.4699 N   0  0  0  0  0  0  0  0  0  0  0  0
    0.2664    0.7927    2.8489 H   0  0  0  0  0  0  0  0  0  0  0  0
   -0.3670    2.8389    2.8338 C   0  0  0  0  0  0  0  0  0  0  0  0
   -1.2768    3.1419    3.3633 H   0  0  0  0  0  0  0  0  0  0  0  0
    0.4903    3.0233    3.4887 H   0  0  0  0  0  0  0  0  0  0  0  0
   -0.2573    3.4614    1.9393 H   0  0  0  0  0  0  0  0  0  0  0  0
  1  2  1  0  0  0  0
  2  3  1  0  0  0  0
  2  4  1  0  0  0  0
  2  5  1  0  0  0  0
  5  6  2  0  0  0  0
  5  7  1  0  0  0  0
  7  8  1  0  0  0  0
  7  9  1  0  0  0  0
  9 10  1  0  0  0  0
  9 11  1  0  0  0  0
  9 29  1  0  0  0  0
 11 12  1  0  0  0  0
 11 13  1  0  0  0  0
 11 14  1  0  0  0  0
 14 15  1  0  0  0  0
 14 16  1  0  0  0  0
 14 17  1  0  0  0  0
 17 18  1  0  0  0  0
 17 19  1  0  0  0  0
 17 20  1  0  0  0  0
 20 21  1  0  0  0  0
 20 22  2  0  0  0  0
 22 23  1  0  0  0  0
 22 26  1  0  0  0  0
 23 24  1  0  0  0  0
 23 25  1  0  0  0  0
 26 27  1  0  0  0  0
 26 28  1  0  0  0  0
 29 30  2  0  0  0  0
 29 31  1  0  0  0  0
 31 32  1  0  0  0  0
 31 33  1  0  0  0  0
 33 34  1  0  0  0  0
 33 35  1  0  0  0  0
 33 36  1  0  0  0  0
M  CHG  1  20   1
M  END
$$$$

  -OEChem-03222214013D

 36 35  0     1  0  0  0  0  0999 V2000
   -5.1362   -3.0576    3.1027 H   0  0  0  0  0  0  0  0  0  0  0  0
   -4.9243   -2.1095    2.6006 C   0  0  0  0  0  0  0  0  0  0  0  0
   -5.1125   -1.2933    3.3031 H   0  0  0  0  0  0  0  0  0  0  0  0
   -5.5964   -2.0034    1.7456 H   0  0  0  0  0  0  0  0  0  0  0  0
   -3.4810   -2.0690    2.1382 C   0  0  0  0  0  0  0  0  0  0  0  0
   -2.7694   -3.0595    2.2621 O   0  0  0  0  0  0  0  0  0  0  0  0
   -2.9959   -0.9416    1.5035 N   0  0  0  0  0  0  0  0  0  0  0  0
   -3.6252   -0.1357    1.4787 H   0  0  0  0  0  0  0  0  0  0  0  0
   -1.5677   -0.6154    1.3276 C   0  0  1  0  0  0  0  0  0  0  0  0
   -1.0016   -1.2035    2.0579 H   0  0  0  0  0  0  0  0  0  0  0  0
   -0.8867   -0.8343   -0.0655 C   0  0  0  0  0  0  0  0  0  0  0  0
   -1.0232    0.1052   -0.6144 H   0  0  0  0  0  0  0  0  0  0  0  0
    0.1904   -0.9290    0.1089 H   0  0  0  0  0  0  0  0  0  0  0  0
   -1.2956   -1.9229   -1.0934 C   0  0  0  0  0  0  0  0  0  0  0  0
   -1.2503   -1.4928   -2.1001 H   0  0  0  0  0  0  0  0  0  0  0  0
   -0.5208   -2.6955   -1.0425 H   0  0  0  0  0  0  0  0  0  0  0  0
   -2.6361   -2.6221   -0.9196 C   0  0  0  0  0  0  0  0  0  0  0  0
   -2.7802   -2.8552    0.1242 H   0  0  0  0  0  0  0  0  0  0  0  0
   -3.4448   -1.9521   -1.2314 H   0  0  0  0  0  0  0  0  0  0  0  0
   -2.6752   -3.8814   -1.6835 N   0  3  0  0  0  0  0  0  0  0  0  0
   -2.6636   -3.8108   -2.7000 H   0  0  0  0  0  0  0  0  0  0  0  0
   -2.6981   -5.0558   -1.1165 C   0  0  0  0  0  0  0  0  0  0  0  0
   -2.6987   -5.2195    0.2529 N   0  0  0  0  0  0  0  0  0  0  0  0
   -2.4837   -6.1320    0.6464 H   0  0  0  0  0  0  0  0  0  0  0  0
   -2.5717   -4.3977    0.8536 H   0  0  0  0  0  0  0  0  0  0  0  0
   -2.7188   -6.1822   -1.9037 N   0  0  0  0  0  0  0  0  0  0  0  0
   -2.9093   -6.0804   -2.8983 H   0  0  0  0  0  0  0  0  0  0  0  0
   -2.9399   -7.0736   -1.4640 H   0  0  0  0  0  0  0  0  0  0  0  0
   -1.3824    0.8768    1.6872 C   0  0  0  0  0  0  0  0  0  0  0  0
   -2.2390    1.6831    1.3444 O   0  0  0  0  0  0  0  0  0  0  0  0
   -0.3307    1.2926    2.4828 N   0  0  0  0  0  0  0  0  0  0  0  0
    0.3355    0.5942    2.8009 H   0  0  0  0  0  0  0  0  0  0  0  0
   -0.1561    2.6755    2.9162 C   0  0  0  0  0  0  0  0  0  0  0  0
   -1.0073    2.9979    3.5255 H   0  0  0  0  0  0  0  0  0  0  0  0
    0.7539    2.7736    3.5162 H   0  0  0  0  0  0  0  0  0  0  0  0
   -0.0711    3.3420    2.0511 H   0  0  0  0  0  0  0  0  0  0  0  0
  1  2  1  0  0  0  0
  2  3  1  0  0  0  0
  2  4  1  0  0  0  0
  2  5  1  0  0  0  0
  5  6  2  0  0  0  0
  5  7  1  0  0  0  0
  7  8  1  0  0  0  0
  7  9  1  0  0  0  0
  9 10  1  0  0  0  0
  9 11  1  0  0  0  0
  9 29  1  0  0  0  0
 11 12  1  0  0  0  0
 11 13  1  0  0  0  0
 11 14  1  0  0  0  0
 14 15  1  0  0  0  0
 14 16  1  0  0  0  0
 14 17  1  0  0  0  0
 17 18  1  0  0  0  0
 17 19  1  0  0  0  0
 17 20  1  0  0  0  0
 20 21  1  0  0  0  0
 20 22  2  0  0  0  0
 22 23  1  0  0  0  0
 22 26  1  0  0  0  0
 23 24  1  0  0  0  0
 23 25  1  0  0  0  0
 26 27  1  0  0  0  0
 26 28  1  0  0  0  0
 29 30  2  0  0  0  0
 29 31  1  0  0  0  0
 31 32  1  0  0  0  0
 31 33  1  0  0  0  0
 33 34  1  0  0  0  0
 33 35  1  0  0  0  0
 33 36  1  0  0  0  0
M  CHG  1  20   1
M  END
$$$$

  -OEChem-03222214013D

 36 35  0     1  0  0  0  0  0999 V2000
   -2.3252   -4.2000    4.2214 H   0  0  0  0  0  0  0  0  0  0  0  0
   -2.8014   -3.3329    3.7548 C   0  0  0  0  0  0  0  0  0  0  0  0
   -3.7388   -3.6505    3.2926 H   0  0  0  0  0  0  0  0  0  0  0  0
   -3.0181   -2.5947    4.5310 H   0  0  0  0  0  0  0  0  0  0  0  0
   -1.8806   -2.7321    2.7105 C   0  0  0  0  0  0  0  0  0  0  0  0
   -0.8515   -3.3078    2.3962 O   0  0  0  0  0  0  0  0  0  0  0  0
   -2.2368   -1.5661    2.0608 N   0  0  0  0  0  0  0  0  0  0  0  0
   -3.0526   -1.0793    2.4362 H   0  0  0  0  0  0  0  0  0  0  0  0
   -1.2742   -0.7099    1.3443 C   0  0  1  0  0  0  0  0  0  0  0  0
   -0.2708   -0.9540    1.7112 H   0  0  0  0  0  0  0  0  0  0  0  0
   -1.2206   -0.7981   -0.2123 C   0  0  0  0  0  0  0  0  0  0  0  0
   -1.9401   -0.0588   -0.5826 H   0  0  0  0  0  0  0  0  0  0  0  0
   -0.2315   -0.4536   -0.5332 H   0  0  0  0  0  0  0  0  0  0  0  0
   -1.5531   -2.0898   -0.9997 C   0  0  0  0  0  0  0  0  0  0  0  0
   -1.8856   -1.7928   -2.0000 H   0  0  0  0  0  0  0  0  0  0  0  0
   -0.6199   -2.6500   -1.1232 H   0  0  0  0  0  0  0  0  0  0  0  0
   -2.5707   -3.0500   -0.3900 C   0  0  0  0  0  0  0  0  0  0  0  0
   -2.1108   -3.5639    0.4577 H   0  0  0  0  0  0  0  0  0  0  0  0
   -3.4328   -2.4911   -0.0133 H   0  0  0  0  0  0  0  0  0  0  0  0
   -2.9947   -4.0562   -1.3808 N   0  3  0  0  0  0  0  0  0  0  0  0
   -2.4391   -4.9099   -1.4284 H   0  0  0  0  0  0  0  0  0  0  0  0
   -4.0449   -3.9346   -2.1406 C   0  0  0  0  0  0  0  0  0  0  0  0
   -4.8452   -2.8149   -2.1029 N   0  0  0  0  0  0  0  0  0  0  0  0
   -5.7736   -2.8598   -2.5177 H   0  0  0  0  0  0  0  0  0  0  0  0
   -4.6795   -2.1331   -1.3648 H   0  0  0  0  0  0  0  0  0  0  0  0
   -4.3704   -4.9479   -3.0102 N   0  0  0  0  0  0  0  0  0  0  0  0
   -3.6960   -5.6946   -3.1670 H   0  0  0  0  0  0  0  0  0  0  0  0
   -5.0575   -4.7628   -3.7387 H   0  0  0  0  0  0  0  0  0  0  0  0
   -1.5547    0.7577    1.7310 C   0  0  0  0  0  0  0  0  0  0  0  0
   -2.7186    1.1347    1.8112 O   0  0  0  0  0  0  0  0  0  0  0  0
   -0.5265    1.6238    2.0522 N   0  0  0  0  0  0  0  0  0  0  0  0
    0.4240    1.2627    2.0391 H   0  0  0  0  0  0  0  0  0  0  0  0
   -0.7481    2.9969    2.4943 C   0  0  0  0  0  0  0  0  0  0  0  0
   -1.3051    3.0110    3.4370 H   0  0  0  0  0  0  0  0  0  0  0  0
    0.2088    3.5049    2.6505 H   0  0  0  0  0  0  0  0  0  0  0  0
   -1.3152    3.5561    1.7425 H   0  0  0  0  0  0  0  0  0  0  0  0
  1  2  1  0  0  0  0
  2  3  1  0  0  0  0
  2  4  1  0  0  0  0
  2  5  1  0  0  0  0
  5  6  2  0  0  0  0
  5  7  1  0  0  0  0
  7  8  1  0  0  0  0
  7  9  1  0  0  0  0
  9 10  1  0  0  0  0
  9 11  1  0  0  0  0
  9 29  1  0  0  0  0
 11 12  1  0  0  0  0
 11 13  1  0  0  0  0
 11 14  1  0  0  0  0
 14 15  1  0  0  0  0
 14 16  1  0  0  0  0
 14 17  1  0  0  0  0
 17 18  1  0  0  0  0
 17 19  1  0  0  0  0
 17 20  1  0  0  0  0
 20 21  1  0  0  0  0
 20 22  2  0  0  0  0
 22 23  1  0  0  0  0
 22 26  1  0  0  0  0
 23 24  1  0  0  0  0
 23 25  1  0  0  0  0
 26 27  1  0  0  0  0
 26 28  1  0  0  0  0
 29 30  2  0  0  0  0
 29 31  1  0  0  0  0
 31 32  1  0  0  0  0
 31 33  1  0  0  0  0
 33 34  1  0  0  0  0
 33 35  1  0  0  0  0
 33 36  1  0  0  0  0
M  CHG  1  20   1
M  END
$$$$

  -OEChem-03222214013D

 36 35  0     1  0  0  0  0  0999 V2000
   -3.3046   -3.8872    4.1553 H   0  0  0  0  0  0  0  0  0  0  0  0
   -3.6073   -3.0174    3.5651 C   0  0  0  0  0  0  0  0  0  0  0  0
   -3.8954   -2.2151    4.2491 H   0  0  0  0  0  0  0  0  0  0  0  0
   -4.4685   -3.2894    2.9507 H   0  0  0  0  0  0  0  0  0  0  0  0
   -2.4609   -2.5608    2.6838 C   0  0  0  0  0  0  0  0  0  0  0  0
   -1.4530   -3.2415    2.5837 O   0  0  0  0  0  0  0  0  0  0  0  0
   -2.5875   -1.4199    1.9159 N   0  0  0  0  0  0  0  0  0  0  0  0
   -3.4197   -0.8554    2.0936 H   0  0  0  0  0  0  0  0  0  0  0  0
   -1.4304   -0.6788    1.3847 C   0  0  1  0  0  0  0  0  0  0  0  0
   -0.5543   -0.9634    1.9780 H   0  0  0  0  0  0  0  0  0  0  0  0
   -1.0536   -0.9106   -0.1071 C   0  0  0  0  0  0  0  0  0  0  0  0
   -1.6060   -0.1666   -0.6922 H   0  0  0  0  0  0  0  0  0  0  0  0
    0.0096   -0.6749   -0.2246 H   0  0  0  0  0  0  0  0  0  0  0  0
   -1.3251   -2.2631   -0.8043 C   0  0  0  0  0  0  0  0  0  0  0  0
   -1.1712   -2.1178   -1.8786 H   0  0  0  0  0  0  0  0  0  0  0  0
   -0.5709   -2.9795   -0.4606 H   0  0  0  0  0  0  0  0  0  0  0  0
   -2.6997   -2.8878   -0.5657 C   0  0  0  0  0  0  0  0  0  0  0  0
   -2.7147   -3.3612    0.4194 H   0  0  0  0  0  0  0  0  0  0  0  0
   -3.4683   -2.1084   -0.5696 H   0  0  0  0  0  0  0  0  0  0  0  0
   -2.9830   -3.9091   -1.5912 N   0  3  0  0  0  0  0  0  0  0  0  0
   -2.5443   -4.8205   -1.4617 H   0  0  0  0  0  0  0  0  0  0  0  0
   -3.7589   -3.7131   -2.6182 C   0  0  0  0  0  0  0  0  0  0  0  0
   -4.3616   -2.4976   -2.8514 N   0  0  0  0  0  0  0  0  0  0  0  0
   -4.0518   -1.7004   -2.2985 H   0  0  0  0  0  0  0  0  0  0  0  0
   -4.7649   -2.3173   -3.7685 H   0  0  0  0  0  0  0  0  0  0  0  0
   -3.9841   -4.7399   -3.5039 N   0  0  0  0  0  0  0  0  0  0  0  0
   -3.6886   -5.6803   -3.2480 H   0  0  0  0  0  0  0  0  0  0  0  0
   -4.7453   -4.6444   -4.1737 H   0  0  0  0  0  0  0  0  0  0  0  0
   -1.6528    0.8302    1.6165 C   0  0  0  0  0  0  0  0  0  0  0  0
   -2.7644    1.3009    1.4038 O   0  0  0  0  0  0  0  0  0  0  0  0
   -0.6428    1.6385    2.1044 N   0  0  0  0  0  0  0  0  0  0  0  0
    0.2524    1.2075    2.3211 H   0  0  0  0  0  0  0  0  0  0  0  0
   -0.8224    3.0594    2.3857 C   0  0  0  0  0  0  0  0  0  0  0  0
   -1.6338    3.2100    3.1058 H   0  0  0  0  0  0  0  0  0  0  0  0
    0.0946    3.4823    2.8083 H   0  0  0  0  0  0  0  0  0  0  0  0
   -1.0622    3.6051    1.4668 H   0  0  0  0  0  0  0  0  0  0  0  0
  1  2  1  0  0  0  0
  2  3  1  0  0  0  0
  2  4  1  0  0  0  0
  2  5  1  0  0  0  0
  5  6  2  0  0  0  0
  5  7  1  0  0  0  0
  7  8  1  0  0  0  0
  7  9  1  0  0  0  0
  9 10  1  0  0  0  0
  9 11  1  0  0  0  0
  9 29  1  0  0  0  0
 11 12  1  0  0  0  0
 11 13  1  0  0  0  0
 11 14  1  0  0  0  0
 14 15  1  0  0  0  0
 14 16  1  0  0  0  0
 14 17  1  0  0  0  0
 17 18  1  0  0  0  0
 17 19  1  0  0  0  0
 17 20  1  0  0  0  0
 20 21  1  0  0  0  0
 20 22  2  0  0  0  0
 22 23  1  0  0  0  0
 22 26  1  0  0  0  0
 23 24  1  0  0  0  0
 23 25  1  0  0  0  0
 26 27  1  0  0  0  0
 26 28  1  0  0  0  0
 29 30  2  0  0  0  0
 29 31  1  0  0  0  0
 31 32  1  0  0  0  0
 31 33  1  0  0  0  0
 33 34  1  0  0  0  0
 33 35  1  0  0  0  0
 33 36  1  0  0  0  0
M  CHG  1  20   1
M  END
$$$$

  -OEChem-03222214013D

 36 35  0     1  0  0  0  0  0999 V2000
   -3.6664   -3.9403    3.5879 H   0  0  0  0  0  0  0  0  0  0  0  0
   -3.8629   -2.9843    3.0942 C   0  0  0  0  0  0  0  0  0  0  0  0
   -4.1195   -2.2442    3.8562 H   0  0  0  0  0  0  0  0  0  0  0  0
   -4.7095   -3.1048    2.4146 H   0  0  0  0  0  0  0  0  0  0  0  0
   -2.6359   -2.5327    2.3262 C   0  0  0  0  0  0  0  0  0  0  0  0
   -1.6754   -3.2767    2.2104 O   0  0  0  0  0  0  0  0  0  0  0  0
   -2.6348   -1.3169    1.6719 N   0  0  0  0  0  0  0  0  0  0  0  0
   -3.4367   -0.7128    1.8586 H   0  0  0  0  0  0  0  0  0  0  0  0
   -1.3997   -0.6089    1.2973 C   0  0  1  0  0  0  0  0  0  0  0  0
   -0.5909   -1.0063    1.9210 H   0  0  0  0  0  0  0  0  0  0  0  0
   -0.9341   -0.7548   -0.1767 C   0  0  0  0  0  0  0  0  0  0  0  0
   -1.3781    0.0664   -0.7505 H   0  0  0  0  0  0  0  0  0  0  0  0
    0.1510   -0.6075   -0.2013 H   0  0  0  0  0  0  0  0  0  0  0  0
   -1.2633   -2.0520   -0.9441 C   0  0  0  0  0  0  0  0  0  0  0  0
   -0.8214   -1.9726   -1.9429 H   0  0  0  0  0  0  0  0  0  0  0  0
   -0.7758   -2.8895   -0.4325 H   0  0  0  0  0  0  0  0  0  0  0  0
   -2.7563   -2.3587   -1.0834 C   0  0  0  0  0  0  0  0  0  0  0  0
   -3.1821   -2.6125   -0.1106 H   0  0  0  0  0  0  0  0  0  0  0  0
   -3.2688   -1.4665   -1.4553 H   0  0  0  0  0  0  0  0  0  0  0  0
   -2.9413   -3.5008   -1.9974 N   0  3  0  0  0  0  0  0  0  0  0  0
   -2.3481   -4.3140   -1.8344 H   0  0  0  0  0  0  0  0  0  0  0  0
   -3.8334   -3.5437   -2.9443 C   0  0  0  0  0  0  0  0  0  0  0  0
   -4.6744   -2.4856   -3.2050 N   0  0  0  0  0  0  0  0  0  0  0  0
   -4.4767   -1.5973   -2.7488 H   0  0  0  0  0  0  0  0  0  0  0  0
   -5.1779   -2.4674   -4.0892 H   0  0  0  0  0  0  0  0  0  0  0  0
   -3.9449   -4.6761   -3.7152 N   0  0  0  0  0  0  0  0  0  0  0  0
   -3.4551   -5.5189   -3.4206 H   0  0  0  0  0  0  0  0  0  0  0  0
   -4.7686   -4.7841   -4.3040 H   0  0  0  0  0  0  0  0  0  0  0  0
   -1.5367    0.8832    1.6608 C   0  0  0  0  0  0  0  0  0  0  0  0
   -2.6027    1.4469    1.4419 O   0  0  0  0  0  0  0  0  0  0  0  0
   -0.5126    1.5649    2.2910 N   0  0  0  0  0  0  0  0  0  0  0  0
    0.3371    1.0524    2.5135 H   0  0  0  0  0  0  0  0  0  0  0  0
   -0.6254    2.9553    2.7197 C   0  0  0  0  0  0  0  0  0  0  0  0
   -1.4268    3.0659    3.4580 H   0  0  0  0  0  0  0  0  0  0  0  0
    0.3121    3.2893    3.1755 H   0  0  0  0  0  0  0  0  0  0  0  0
   -0.8434    3.6048    1.8651 H   0  0  0  0  0  0  0  0  0  0  0  0
  1  2  1  0  0  0  0
  2  3  1  0  0  0  0
  2  4  1  0  0  0  0
  2  5  1  0  0  0  0
  5  6  2  0  0  0  0
  5  7  1  0  0  0  0
  7  8  1  0  0  0  0
  7  9  1  0  0  0  0
  9 10  1  0  0  0  0
  9 11  1  0  0  0  0
  9 29  1  0  0  0  0
 11 12  1  0  0  0  0
 11 13  1  0  0  0  0
 11 14  1  0  0  0  0
 14 15  1  0  0  0  0
 14 16  1  0  0  0  0
 14 17  1  0  0  0  0
 17 18  1  0  0  0  0
 17 19  1  0  0  0  0
 17 20  1  0  0  0  0
 20 21  1  0  0  0  0
 20 22  2  0  0  0  0
 22 23  1  0  0  0  0
 22 26  1  0  0  0  0
 23 24  1  0  0  0  0
 23 25  1  0  0  0  0
 26 27  1  0  0  0  0
 26 28  1  0  0  0  0
 29 30  2  0  0  0  0
 29 31  1  0  0  0  0
 31 32  1  0  0  0  0
 31 33  1  0  0  0  0
 33 34  1  0  0  0  0
 33 35  1  0  0  0  0
 33 36  1  0  0  0  0
M  CHG  1  20   1
M  END
$$$$

  -OEChem-03222214013D

 36 35  0     1  0  0  0  0  0999 V2000
   -3.9329   -4.0517    2.8661 H   0  0  0  0  0  0  0  0  0  0  0  0
   -4.0414   -3.0465    2.4488 C   0  0  0  0  0  0  0  0  0  0  0  0
   -4.3789   -2.3744    3.2419 H   0  0  0  0  0  0  0  0  0  0  0  0
   -4.7936   -3.0711    1.6574 H   0  0  0  0  0  0  0  0  0  0  0  0
   -2.7145   -2.5663    1.8938 C   0  0  0  0  0  0  0  0  0  0  0  0
   -1.7567   -3.3213    1.8608 O   0  0  0  0  0  0  0  0  0  0  0  0
   -2.6091   -1.2975    1.3610 N   0  0  0  0  0  0  0  0  0  0  0  0
   -3.4200   -0.6919    1.4974 H   0  0  0  0  0  0  0  0  0  0  0  0
   -1.3300   -0.5873    1.1844 C   0  0  1  0  0  0  0  0  0  0  0  0
   -0.5907   -1.0626    1.8390 H   0  0  0  0  0  0  0  0  0  0  0  0
   -0.7471   -0.6128   -0.2529 C   0  0  0  0  0  0  0  0  0  0  0  0
   -1.1002    0.2716   -0.7957 H   0  0  0  0  0  0  0  0  0  0  0  0
    0.3416   -0.5237   -0.1726 H   0  0  0  0  0  0  0  0  0  0  0  0
   -1.0733   -1.8480   -1.1100 C   0  0  0  0  0  0  0  0  0  0  0  0
   -0.3917   -1.8653   -1.9669 H   0  0  0  0  0  0  0  0  0  0  0  0
   -0.8820   -2.7514   -0.5221 H   0  0  0  0  0  0  0  0  0  0  0  0
   -2.5112   -1.8456   -1.6318 C   0  0  0  0  0  0  0  0  0  0  0  0
   -3.2131   -1.7325   -0.8014 H   0  0  0  0  0  0  0  0  0  0  0  0
   -2.6407   -0.9941   -2.3081 H   0  0  0  0  0  0  0  0  0  0  0  0
   -2.7754   -3.1146   -2.3326 N   0  3  0  0  0  0  0  0  0  0  0  0
   -2.1341   -3.8848   -2.1453 H   0  0  0  0  0  0  0  0  0  0  0  0
   -3.7944   -3.3086   -3.1177 C   0  0  0  0  0  0  0  0  0  0  0  0
   -4.6999   -2.3087   -3.3906 N   0  0  0  0  0  0  0  0  0  0  0  0
   -4.4681   -1.3637   -3.0908 H   0  0  0  0  0  0  0  0  0  0  0  0
   -5.3245   -2.4191   -4.1868 H   0  0  0  0  0  0  0  0  0  0  0  0
   -3.9792   -4.5420   -3.6954 N   0  0  0  0  0  0  0  0  0  0  0  0
   -3.4228   -5.3271   -3.3617 H   0  0  0  0  0  0  0  0  0  0  0  0
   -4.8754   -4.7441   -4.1348 H   0  0  0  0  0  0  0  0  0  0  0  0
   -1.4800    0.8688    1.6678 C   0  0  0  0  0  0  0  0  0  0  0  0
   -2.5102    1.4747    1.3958 O   0  0  0  0  0  0  0  0  0  0  0  0
   -0.5171    1.4644    2.4609 N   0  0  0  0  0  0  0  0  0  0  0  0
    0.2988    0.9144    2.7172 H   0  0  0  0  0  0  0  0  0  0  0  0
   -0.6495    2.8141    3.0000 C   0  0  0  0  0  0  0  0  0  0  0  0
   -1.5359    2.8874    3.6391 H   0  0  0  0  0  0  0  0  0  0  0  0
    0.2294    3.0713    3.5993 H   0  0  0  0  0  0  0  0  0  0  0  0
   -0.7391    3.5449    2.1892 H   0  0  0  0  0  0  0  0  0  0  0  0
  1  2  1  0  0  0  0
  2  3  1  0  0  0  0
  2  4  1  0  0  0  0
  2  5  1  0  0  0  0
  5  6  2  0  0  0  0
  5  7  1  0  0  0  0
  7  8  1  0  0  0  0
  7  9  1  0  0  0  0
  9 10  1  0  0  0  0
  9 11  1  0  0  0  0
  9 29  1  0  0  0  0
 11 12  1  0  0  0  0
 11 13  1  0  0  0  0
 11 14  1  0  0  0  0
 14 15  1  0  0  0  0
 14 16  1  0  0  0  0
 14 17  1  0  0  0  0
 17 18  1  0  0  0  0
 17 19  1  0  0  0  0
 17 20  1  0  0  0  0
 20 21  1  0  0  0  0
 20 22  2  0  0  0  0
 22 23  1  0  0  0  0
 22 26  1  0  0  0  0
 23 24  1  0  0  0  0
 23 25  1  0  0  0  0
 26 27  1  0  0  0  0
 26 28  1  0  0  0  0
 29 30  2  0  0  0  0
 29 31  1  0  0  0  0
 31 32  1  0  0  0  0
 31 33  1  0  0  0  0
 33 34  1  0  0  0  0
 33 35  1  0  0  0  0
 33 36  1  0  0  0  0
M  CHG  1  20   1
M  END
$$$$

  -OEChem-03222214013D

 36 35  0     1  0  0  0  0  0999 V2000
   -4.0904   -4.0992    2.4945 H   0  0  0  0  0  0  0  0  0  0  0  0
   -4.1282   -3.0556    2.1693 C   0  0  0  0  0  0  0  0  0  0  0  0
   -4.5152   -2.4467    2.9904 H   0  0  0  0  0  0  0  0  0  0  0  0
   -4.8050   -2.9762    1.3158 H   0  0  0  0  0  0  0  0  0  0  0  0
   -2.7418   -2.5782    1.7833 C   0  0  0  0  0  0  0  0  0  0  0  0
   -1.7808   -3.3160    1.9239 O   0  0  0  0  0  0  0  0  0  0  0  0
   -2.5765   -1.3211    1.2372 N   0  0  0  0  0  0  0  0  0  0  0  0
   -3.3976   -0.7154    1.2620 H   0  0  0  0  0  0  0  0  0  0  0  0
   -1.2826   -0.6170    1.1557 C   0  0  1  0  0  0  0  0  0  0  0  0
   -0.5866   -1.0845    1.8610 H   0  0  0  0  0  0  0  0  0  0  0  0
   -0.6309   -0.6541   -0.2501 C   0  0  0  0  0  0  0  0  0  0  0  0
   -0.9265    0.2360   -0.8174 H   0  0  0  0  0  0  0  0  0  0  0  0
    0.4540   -0.5935   -0.1114 H   0  0  0  0  0  0  0  0  0  0  0  0
   -0.9452   -1.8991   -1.0968 C   0  0  0  0  0  0  0  0  0  0  0  0
   -0.1025   -2.0771   -1.7737 H   0  0  0  0  0  0  0  0  0  0  0  0
   -1.0396   -2.7858   -0.4639 H   0  0  0  0  0  0  0  0  0  0  0  0
   -2.2006   -1.6779   -1.9381 C   0  0  0  0  0  0  0  0  0  0  0  0
   -3.0359   -1.4302   -1.2740 H   0  0  0  0  0  0  0  0  0  0  0  0
   -2.0346   -0.8339   -2.6164 H   0  0  0  0  0  0  0  0  0  0  0  0
   -2.5070   -2.8994   -2.7033 N   0  3  0  0  0  0  0  0  0  0  0  0
   -1.8721   -3.6886   -2.5876 H   0  0  0  0  0  0  0  0  0  0  0  0
   -3.5373   -3.0154   -3.4895 C   0  0  0  0  0  0  0  0  0  0  0  0
   -4.4209   -1.9773   -3.6807 N   0  0  0  0  0  0  0  0  0  0  0  0
   -4.1620   -1.0608   -3.3198 H   0  0  0  0  0  0  0  0  0  0  0  0
   -5.0603   -2.0176   -4.4717 H   0  0  0  0  0  0  0  0  0  0  0  0
   -3.7567   -4.2006   -4.1500 N   0  0  0  0  0  0  0  0  0  0  0  0
   -3.2131   -5.0191   -3.8824 H   0  0  0  0  0  0  0  0  0  0  0  0
   -4.6609   -4.3512   -4.5936 H   0  0  0  0  0  0  0  0  0  0  0  0
   -1.4707    0.8483    1.5967 C   0  0  0  0  0  0  0  0  0  0  0  0
   -2.4683    1.4520    1.2179 O   0  0  0  0  0  0  0  0  0  0  0  0
   -0.5782    1.4589    2.4577 N   0  0  0  0  0  0  0  0  0  0  0  0
    0.2058    0.9098    2.8013 H   0  0  0  0  0  0  0  0  0  0  0  0
   -0.7584    2.8158    2.9639 C   0  0  0  0  0  0  0  0  0  0  0  0
   -1.6831    2.8886    3.5462 H   0  0  0  0  0  0  0  0  0  0  0  0
    0.0795    3.0940    3.6108 H   0  0  0  0  0  0  0  0  0  0  0  0
   -0.8064    3.5317    2.1363 H   0  0  0  0  0  0  0  0  0  0  0  0
  1  2  1  0  0  0  0
  2  3  1  0  0  0  0
  2  4  1  0  0  0  0
  2  5  1  0  0  0  0
  5  6  2  0  0  0  0
  5  7  1  0  0  0  0
  7  8  1  0  0  0  0
  7  9  1  0  0  0  0
  9 10  1  0  0  0  0
  9 11  1  0  0  0  0
  9 29  1  0  0  0  0
 11 12  1  0  0  0  0
 11 13  1  0  0  0  0
 11 14  1  0  0  0  0
 14 15  1  0  0  0  0
 14 16  1  0  0  0  0
 14 17  1  0  0  0  0
 17 18  1  0  0  0  0
 17 19  1  0  0  0  0
 17 20  1  0  0  0  0
 20 21  1  0  0  0  0
 20 22  2  0  0  0  0
 22 23  1  0  0  0  0
 22 26  1  0  0  0  0
 23 24  1  0  0  0  0
 23 25  1  0  0  0  0
 26 27  1  0  0  0  0
 26 28  1  0  0  0  0
 29 30  2  0  0  0  0
 29 31  1  0  0  0  0
 31 32  1  0  0  0  0
 31 33  1  0  0  0  0
 33 34  1  0  0  0  0
 33 35  1  0  0  0  0
 33 36  1  0  0  0  0
M  CHG  1  20   1
M  END
$$$$

  -OEChem-03222214013D

 36 35  0     1  0  0  0  0  0999 V2000
   -4.1560   -4.0514    2.4842 H   0  0  0  0  0  0  0  0  0  0  0  0
   -4.1830   -3.0484    2.0485 C   0  0  0  0  0  0  0  0  0  0  0  0
   -4.6582   -2.3703    2.7618 H   0  0  0  0  0  0  0  0  0  0  0  0
   -4.7770   -3.0765    1.1324 H   0  0  0  0  0  0  0  0  0  0  0  0
   -2.7757   -2.5731    1.7424 C   0  0  0  0  0  0  0  0  0  0  0  0
   -1.8234   -3.3067    1.9506 O   0  0  0  0  0  0  0  0  0  0  0  0
   -2.5771   -1.3232    1.1898 N   0  0  0  0  0  0  0  0  0  0  0  0
   -3.3968   -0.7167    1.1488 H   0  0  0  0  0  0  0  0  0  0  0  0
   -1.2747   -0.6315    1.1468 C   0  0  1  0  0  0  0  0  0  0  0  0
   -0.6038   -1.0989    1.8765 H   0  0  0  0  0  0  0  0  0  0  0  0
   -0.5844   -0.6786   -0.2409 C   0  0  0  0  0  0  0  0  0  0  0  0
   -0.8542    0.2183   -0.8106 H   0  0  0  0  0  0  0  0  0  0  0  0
    0.4962   -0.6248   -0.0708 H   0  0  0  0  0  0  0  0  0  0  0  0
   -0.8800   -1.9202   -1.1052 C   0  0  0  0  0  0  0  0  0  0  0  0
    0.0605   -2.2569   -1.5546 H   0  0  0  0  0  0  0  0  0  0  0  0
   -1.2548   -2.7529   -0.5064 H   0  0  0  0  0  0  0  0  0  0  0  0
   -1.8516   -1.5663   -2.2282 C   0  0  0  0  0  0  0  0  0  0  0  0
   -2.7659   -1.1560   -1.7847 H   0  0  0  0  0  0  0  0  0  0  0  0
   -1.4006   -0.7997   -2.8683 H   0  0  0  0  0  0  0  0  0  0  0  0
   -2.1655   -2.7714   -3.0166 N   0  3  0  0  0  0  0  0  0  0  0  0
   -1.5859   -3.5944   -2.8551 H   0  0  0  0  0  0  0  0  0  0  0  0
   -3.1285   -2.8275   -3.8902 C   0  0  0  0  0  0  0  0  0  0  0  0
   -3.9262   -1.7381   -4.1583 N   0  0  0  0  0  0  0  0  0  0  0  0
   -3.6390   -0.8366   -3.7816 H   0  0  0  0  0  0  0  0  0  0  0  0
   -4.4939   -1.7442   -5.0032 H   0  0  0  0  0  0  0  0  0  0  0  0
   -3.3614   -3.9994   -4.5699 N   0  0  0  0  0  0  0  0  0  0  0  0
   -2.8966   -4.8491   -4.2555 H   0  0  0  0  0  0  0  0  0  0  0  0
   -4.2315   -4.0956   -5.0904 H   0  0  0  0  0  0  0  0  0  0  0  0
   -1.4667    0.8396    1.5668 C   0  0  0  0  0  0  0  0  0  0  0  0
   -2.4358    1.4544    1.1350 O   0  0  0  0  0  0  0  0  0  0  0  0
   -0.5998    1.4504    2.4532 N   0  0  0  0  0  0  0  0  0  0  0  0
    0.1548    0.8913    2.8434 H   0  0  0  0  0  0  0  0  0  0  0  0
   -0.7845    2.8142    2.9389 C   0  0  0  0  0  0  0  0  0  0  0  0
   -1.7301    2.9029    3.4846 H   0  0  0  0  0  0  0  0  0  0  0  0
    0.0312    3.0902    3.6146 H   0  0  0  0  0  0  0  0  0  0  0  0
   -0.7930    3.5222    2.1033 H   0  0  0  0  0  0  0  0  0  0  0  0
  1  2  1  0  0  0  0
  2  3  1  0  0  0  0
  2  4  1  0  0  0  0
  2  5  1  0  0  0  0
  5  6  2  0  0  0  0
  5  7  1  0  0  0  0
  7  8  1  0  0  0  0
  7  9  1  0  0  0  0
  9 10  1  0  0  0  0
  9 11  1  0  0  0  0
  9 29  1  0  0  0  0
 11 12  1  0  0  0  0
 11 13  1  0  0  0  0
 11 14  1  0  0  0  0
 14 15  1  0  0  0  0
 14 16  1  0  0  0  0
 14 17  1  0  0  0  0
 17 18  1  0  0  0  0
 17 19  1  0  0  0  0
 17 20  1  0  0  0  0
 20 21  1  0  0  0  0
 20 22  2  0  0  0  0
 22 23  1  0  0  0  0
 22 26  1  0  0  0  0
 23 24  1  0  0  0  0
 23 25  1  0  0  0  0
 26 27  1  0  0  0  0
 26 28  1  0  0  0  0
 29 30  2  0  0  0  0
 29 31  1  0  0  0  0
 31 32  1  0  0  0  0
 31 33  1  0  0  0  0
 33 34  1  0  0  0  0
 33 35  1  0  0  0  0
 33 36  1  0  0  0  0
M  CHG  1  20   1
M  END
$$$$

  -OEChem-03222214013D

 36 35  0     1  0  0  0  0  0999 V2000
   -4.1810   -4.0153    2.6038 H   0  0  0  0  0  0  0  0  0  0  0  0
   -4.2094   -3.0054    2.1846 C   0  0  0  0  0  0  0  0  0  0  0  0
   -4.6223   -2.3265    2.9348 H   0  0  0  0  0  0  0  0  0  0  0  0
   -4.8590   -3.0050    1.3066 H   0  0  0  0  0  0  0  0  0  0  0  0
   -2.8118   -2.5601    1.8002 C   0  0  0  0  0  0  0  0  0  0  0  0
   -1.8617   -3.3079    1.9662 O   0  0  0  0  0  0  0  0  0  0  0  0
   -2.6160   -1.3194    1.2260 N   0  0  0  0  0  0  0  0  0  0  0  0
   -3.4291   -0.7031    1.2021 H   0  0  0  0  0  0  0  0  0  0  0  0
   -1.3064   -0.6454    1.1504 C   0  0  1  0  0  0  0  0  0  0  0  0
   -0.6342   -1.1104    1.8801 H   0  0  0  0  0  0  0  0  0  0  0  0
   -0.6215   -0.7232   -0.2395 C   0  0  0  0  0  0  0  0  0  0  0  0
   -0.9090    0.1661   -0.8123 H   0  0  0  0  0  0  0  0  0  0  0  0
    0.4611   -0.6547   -0.0870 H   0  0  0  0  0  0  0  0  0  0  0  0
   -0.9201   -1.9720   -1.0988 C   0  0  0  0  0  0  0  0  0  0  0  0
    0.0247   -2.4872   -1.3020 H   0  0  0  0  0  0  0  0  0  0  0  0
   -1.5598   -2.6873   -0.5799 H   0  0  0  0  0  0  0  0  0  0  0  0
   -1.5680   -1.5644   -2.4199 C   0  0  0  0  0  0  0  0  0  0  0  0
   -2.4890   -1.0115   -2.2045 H   0  0  0  0  0  0  0  0  0  0  0  0
   -0.8853   -0.9042   -2.9665 H   0  0  0  0  0  0  0  0  0  0  0  0
   -1.8703   -2.7612   -3.2249 N   0  3  0  0  0  0  0  0  0  0  0  0
   -1.5282   -3.6549   -2.8730 H   0  0  0  0  0  0  0  0  0  0  0  0
   -2.5472   -2.7255   -4.3359 C   0  0  0  0  0  0  0  0  0  0  0  0
   -3.0496   -1.5469   -4.8393 N   0  0  0  0  0  0  0  0  0  0  0  0
   -3.0169   -0.7225   -4.2424 H   0  0  0  0  0  0  0  0  0  0  0  0
   -3.7656   -1.5880   -5.5616 H   0  0  0  0  0  0  0  0  0  0  0  0
   -2.7750   -3.8891   -5.0309 N   0  0  0  0  0  0  0  0  0  0  0  0
   -2.2546   -4.7241   -4.7684 H   0  0  0  0  0  0  0  0  0  0  0  0
   -3.1164   -3.8222   -5.9881 H   0  0  0  0  0  0  0  0  0  0  0  0
   -1.4719    0.8338    1.5540 C   0  0  0  0  0  0  0  0  0  0  0  0
   -2.4363    1.4582    1.1263 O   0  0  0  0  0  0  0  0  0  0  0  0
   -0.5819    1.4461    2.4163 N   0  0  0  0  0  0  0  0  0  0  0  0
    0.1688    0.8818    2.8064 H   0  0  0  0  0  0  0  0  0  0  0  0
   -0.7385    2.8217    2.8778 C   0  0  0  0  0  0  0  0  0  0  0  0
   -1.6673    2.9322    3.4476 H   0  0  0  0  0  0  0  0  0  0  0  0
    0.0990    3.1031    3.5236 H   0  0  0  0  0  0  0  0  0  0  0  0
   -0.7639    3.5124    2.0281 H   0  0  0  0  0  0  0  0  0  0  0  0
  1  2  1  0  0  0  0
  2  3  1  0  0  0  0
  2  4  1  0  0  0  0
  2  5  1  0  0  0  0
  5  6  2  0  0  0  0
  5  7  1  0  0  0  0
  7  8  1  0  0  0  0
  7  9  1  0  0  0  0
  9 10  1  0  0  0  0
  9 11  1  0  0  0  0
  9 29  1  0  0  0  0
 11 12  1  0  0  0  0
 11 13  1  0  0  0  0
 11 14  1  0  0  0  0
 14 15  1  0  0  0  0
 14 16  1  0  0  0  0
 14 17  1  0  0  0  0
 17 18  1  0  0  0  0
 17 19  1  0  0  0  0
 17 20  1  0  0  0  0
 20 21  1  0  0  0  0
 20 22  2  0  0  0  0
 22 23  1  0  0  0  0
 22 26  1  0  0  0  0
 23 24  1  0  0  0  0
 23 25  1  0  0  0  0
 26 27  1  0  0  0  0
 26 28  1  0  0  0  0
 29 30  2  0  0  0  0
 29 31  1  0  0  0  0
 31 32  1  0  0  0  0
 31 33  1  0  0  0  0
 33 34  1  0  0  0  0
 33 35  1  0  0  0  0
 33 36  1  0  0  0  0
M  CHG  1  20   1
M  END
$$$$

  -OEChem-03222214013D

 36 35  0     1  0  0  0  0  0999 V2000
   -4.2082   -4.0081    2.5652 H   0  0  0  0  0  0  0  0  0  0  0  0
   -4.2359   -2.9937    2.1573 C   0  0  0  0  0  0  0  0  0  0  0  0
   -4.6470   -2.3225    2.9154 H   0  0  0  0  0  0  0  0  0  0  0  0
   -4.8871   -2.9832    1.2803 H   0  0  0  0  0  0  0  0  0  0  0  0
   -2.8386   -2.5459    1.7747 C   0  0  0  0  0  0  0  0  0  0  0  0
   -1.8909   -3.3033    1.9102 O   0  0  0  0  0  0  0  0  0  0  0  0
   -2.6417   -1.2994    1.2144 N   0  0  0  0  0  0  0  0  0  0  0  0
   -3.4530   -0.6805    1.1965 H   0  0  0  0  0  0  0  0  0  0  0  0
   -1.3295   -0.6326    1.1378 C   0  0  1  0  0  0  0  0  0  0  0  0
   -0.6631   -1.1080    1.8661 H   0  0  0  0  0  0  0  0  0  0  0  0
   -0.6372   -0.7230   -0.2474 C   0  0  0  0  0  0  0  0  0  0  0  0
   -0.9536    0.1558   -0.8212 H   0  0  0  0  0  0  0  0  0  0  0  0
    0.4454   -0.6327   -0.1086 H   0  0  0  0  0  0  0  0  0  0  0  0
   -0.9328   -1.9757   -1.1037 C   0  0  0  0  0  0  0  0  0  0  0  0
   -0.0735   -2.6526   -1.0490 H   0  0  0  0  0  0  0  0  0  0  0  0
   -1.7985   -2.5281   -0.7359 H   0  0  0  0  0  0  0  0  0  0  0  0
   -1.2110   -1.5767   -2.5511 C   0  0  0  0  0  0  0  0  0  0  0  0
   -2.0738   -0.9019   -2.5730 H   0  0  0  0  0  0  0  0  0  0  0  0
   -0.3409   -1.0438   -2.9508 H   0  0  0  0  0  0  0  0  0  0  0  0
   -1.4840   -2.7800   -3.3573 N   0  3  0  0  0  0  0  0  0  0  0  0
   -1.3231   -3.6820   -2.9099 H   0  0  0  0  0  0  0  0  0  0  0  0
   -1.9139   -2.7412   -4.5853 C   0  0  0  0  0  0  0  0  0  0  0  0
   -2.1644   -1.5495   -5.2270 N   0  0  0  0  0  0  0  0  0  0  0  0
   -2.1597   -0.6980   -4.6688 H   0  0  0  0  0  0  0  0  0  0  0  0
   -2.7151   -1.5588   -6.0829 H   0  0  0  0  0  0  0  0  0  0  0  0
   -2.1294   -3.9150   -5.2670 N   0  0  0  0  0  0  0  0  0  0  0  0
   -1.7722   -4.7823   -4.8708 H   0  0  0  0  0  0  0  0  0  0  0  0
   -2.2660   -3.8724   -6.2752 H   0  0  0  0  0  0  0  0  0  0  0  0
   -1.4706    0.8444    1.5579 C   0  0  0  0  0  0  0  0  0  0  0  0
   -2.4267    1.4888    1.1427 O   0  0  0  0  0  0  0  0  0  0  0  0
   -0.5640    1.4348    2.4184 N   0  0  0  0  0  0  0  0  0  0  0  0
    0.1782    0.8546    2.8012 H   0  0  0  0  0  0  0  0  0  0  0  0
   -0.6928    2.8098    2.8902 C   0  0  0  0  0  0  0  0  0  0  0  0
   -1.6130    2.9314    3.4715 H   0  0  0  0  0  0  0  0  0  0  0  0
    0.1566    3.0738    3.5279 H   0  0  0  0  0  0  0  0  0  0  0  0
   -0.7168    3.5061    2.0449 H   0  0  0  0  0  0  0  0  0  0  0  0
  1  2  1  0  0  0  0
  2  3  1  0  0  0  0
  2  4  1  0  0  0  0
  2  5  1  0  0  0  0
  5  6  2  0  0  0  0
  5  7  1  0  0  0  0
  7  8  1  0  0  0  0
  7  9  1  0  0  0  0
  9 10  1  0  0  0  0
  9 11  1  0  0  0  0
  9 29  1  0  0  0  0
 11 12  1  0  0  0  0
 11 13  1  0  0  0  0
 11 14  1  0  0  0  0
 14 15  1  0  0  0  0
 14 16  1  0  0  0  0
 14 17  1  0  0  0  0
 17 18  1  0  0  0  0
 17 19  1  0  0  0  0
 17 20  1  0  0  0  0
 20 21  1  0  0  0  0
 20 22  2  0  0  0  0
 22 23  1  0  0  0  0
 22 26  1  0  0  0  0
 23 24  1  0  0  0  0
 23 25  1  0  0  0  0
 26 27  1  0  0  0  0
 26 28  1  0  0  0  0
 29 30  2  0  0  0  0
 29 31  1  0  0  0  0
 31 32  1  0  0  0  0
 31 33  1  0  0  0  0
 33 34  1  0  0  0  0
 33 35  1  0  0  0  0
 33 36  1  0  0  0  0
M  CHG  1  20   1
M  END
$$$$

  -OEChem-03222214013D

 36 35  0     1  0  0  0  0  0999 V2000
   -4.2112   -4.0029    2.5030 H   0  0  0  0  0  0  0  0  0  0  0  0
   -4.2434   -2.9898    2.0920 C   0  0  0  0  0  0  0  0  0  0  0  0
   -4.6643   -2.3194    2.8455 H   0  0  0  0  0  0  0  0  0  0  0  0
   -4.8890   -2.9863    1.2107 H   0  0  0  0  0  0  0  0  0  0  0  0
   -2.8466   -2.5340    1.7170 C   0  0  0  0  0  0  0  0  0  0  0  0
   -1.8995   -3.2961    1.8317 O   0  0  0  0  0  0  0  0  0  0  0  0
   -2.6487   -1.2792    1.1765 N   0  0  0  0  0  0  0  0  0  0  0  0
   -3.4596   -0.6596    1.1651 H   0  0  0  0  0  0  0  0  0  0  0  0
   -1.3358   -0.6132    1.1161 C   0  0  1  0  0  0  0  0  0  0  0  0
   -0.6785   -1.0985    1.8458 H   0  0  0  0  0  0  0  0  0  0  0  0
   -0.6312   -0.7085   -0.2614 C   0  0  0  0  0  0  0  0  0  0  0  0
   -0.9576    0.1604   -0.8445 H   0  0  0  0  0  0  0  0  0  0  0  0
    0.4509   -0.6123   -0.1234 H   0  0  0  0  0  0  0  0  0  0  0  0
   -0.9315   -1.9675   -1.1021 C   0  0  0  0  0  0  0  0  0  0  0  0
   -0.2347   -2.7645   -0.8203 H   0  0  0  0  0  0  0  0  0  0  0  0
   -1.9437   -2.3350   -0.9208 H   0  0  0  0  0  0  0  0  0  0  0  0
   -0.8316   -1.6440   -2.5910 C   0  0  0  0  0  0  0  0  0  0  0  0
   -1.5537   -0.8566   -2.8334 H   0  0  0  0  0  0  0  0  0  0  0  0
    0.1757   -1.2737   -2.8129 H   0  0  0  0  0  0  0  0  0  0  0  0
   -1.1116   -2.8567   -3.3812 N   0  3  0  0  0  0  0  0  0  0  0  0
   -1.1820   -3.7354   -2.8689 H   0  0  0  0  0  0  0  0  0  0  0  0
   -1.2667   -2.8557   -4.6734 C   0  0  0  0  0  0  0  0  0  0  0  0
   -1.1916   -1.6962   -5.4115 N   0  0  0  0  0  0  0  0  0  0  0  0
   -1.1692   -0.8114   -4.9084 H   0  0  0  0  0  0  0  0  0  0  0  0
   -1.5487   -1.6978   -6.3647 H   0  0  0  0  0  0  0  0  0  0  0  0
   -1.5155   -4.0380   -5.3284 N   0  0  0  0  0  0  0  0  0  0  0  0
   -1.3953   -4.9129   -4.8216 H   0  0  0  0  0  0  0  0  0  0  0  0
   -1.4291   -4.0584   -6.3428 H   0  0  0  0  0  0  0  0  0  0  0  0
   -1.4657    0.8588    1.5559 C   0  0  0  0  0  0  0  0  0  0  0  0
   -2.4149    1.5175    1.1488 O   0  0  0  0  0  0  0  0  0  0  0  0
   -0.5555    1.4280    2.4271 N   0  0  0  0  0  0  0  0  0  0  0  0
    0.1758    0.8327    2.8074 H   0  0  0  0  0  0  0  0  0  0  0  0
   -0.6735    2.7957    2.9228 C   0  0  0  0  0  0  0  0  0  0  0  0
   -1.5921    2.9146    3.5073 H   0  0  0  0  0  0  0  0  0  0  0  0
    0.1786    3.0421    3.5642 H   0  0  0  0  0  0  0  0  0  0  0  0
   -0.6929    3.5065    2.0896 H   0  0  0  0  0  0  0  0  0  0  0  0
  1  2  1  0  0  0  0
  2  3  1  0  0  0  0
  2  4  1  0  0  0  0
  2  5  1  0  0  0  0
  5  6  2  0  0  0  0
  5  7  1  0  0  0  0
  7  8  1  0  0  0  0
  7  9  1  0  0  0  0
  9 10  1  0  0  0  0
  9 11  1  0  0  0  0
  9 29  1  0  0  0  0
 11 12  1  0  0  0  0
 11 13  1  0  0  0  0
 11 14  1  0  0  0  0
 14 15  1  0  0  0  0
 14 16  1  0  0  0  0
 14 17  1  0  0  0  0
 17 18  1  0  0  0  0
 17 19  1  0  0  0  0
 17 20  1  0  0  0  0
 20 21  1  0  0  0  0
 20 22  2  0  0  0  0
 22 23  1  0  0  0  0
 22 26  1  0  0  0  0
 23 24  1  0  0  0  0
 23 25  1  0  0  0  0
 26 27  1  0  0  0  0
 26 28  1  0  0  0  0
 29 30  2  0  0  0  0
 29 31  1  0  0  0  0
 31 32  1  0  0  0  0
 31 33  1  0  0  0  0
 33 34  1  0  0  0  0
 33 35  1  0  0  0  0
 33 36  1  0  0  0  0
M  CHG  1  20   1
M  END
$$$$

  -OEChem-03222214013D

 36 35  0     1  0  0  0  0  0999 V2000
   -4.2204   -3.9897    2.4348 H   0  0  0  0  0  0  0  0  0  0  0  0
   -4.2450   -2.9787    2.0185 C   0  0  0  0  0  0  0  0  0  0  0  0
   -4.6746   -2.3045    2.7635 H   0  0  0  0  0  0  0  0  0  0  0  0
   -4.8788   -2.9779    1.1288 H   0  0  0  0  0  0  0  0  0  0  0  0
   -2.8430   -2.5260    1.6599 C   0  0  0  0  0  0  0  0  0  0  0  0
   -1.8987   -3.2906    1.7828 O   0  0  0  0  0  0  0  0  0  0  0  0
   -2.6362   -1.2658    1.1359 N   0  0  0  0  0  0  0  0  0  0  0  0
   -3.4468   -0.6456    1.1177 H   0  0  0  0  0  0  0  0  0  0  0  0
   -1.3219   -0.6006    1.0973 C   0  0  1  0  0  0  0  0  0  0  0  0
   -0.6722   -1.0953    1.8277 H   0  0  0  0  0  0  0  0  0  0  0  0
   -0.6120   -0.6895   -0.2759 C   0  0  0  0  0  0  0  0  0  0  0  0
   -0.9235    0.1795   -0.8669 H   0  0  0  0  0  0  0  0  0  0  0  0
    0.4703   -0.6117   -0.1277 H   0  0  0  0  0  0  0  0  0  0  0  0
   -0.9311   -1.9485   -1.1012 C   0  0  0  0  0  0  0  0  0  0  0  0
   -0.4347   -2.8140   -0.6483 H   0  0  0  0  0  0  0  0  0  0  0  0
   -2.0078   -2.1416   -1.1104 H   0  0  0  0  0  0  0  0  0  0  0  0
   -0.4821   -1.7526   -2.5464 C   0  0  0  0  0  0  0  0  0  0  0  0
   -1.0154   -0.8965   -2.9738 H   0  0  0  0  0  0  0  0  0  0  0  0
    0.5925   -1.5387   -2.5634 H   0  0  0  0  0  0  0  0  0  0  0  0
   -0.7679   -2.9742   -3.3200 N   0  3  0  0  0  0  0  0  0  0  0  0
   -1.0779   -3.7909   -2.7939 H   0  0  0  0  0  0  0  0  0  0  0  0
   -0.6366   -3.0586   -4.6122 C   0  0  0  0  0  0  0  0  0  0  0  0
   -0.2252   -1.9865   -5.3712 N   0  0  0  0  0  0  0  0  0  0  0  0
   -0.1698   -1.0760   -4.9192 H   0  0  0  0  0  0  0  0  0  0  0  0
   -0.3710   -2.0145   -6.3784 H   0  0  0  0  0  0  0  0  0  0  0  0
   -0.9171   -4.2458   -5.2458 N   0  0  0  0  0  0  0  0  0  0  0  0
   -1.0525   -5.0821   -4.6805 H   0  0  0  0  0  0  0  0  0  0  0  0
   -0.6117   -4.3656   -6.2100 H   0  0  0  0  0  0  0  0  0  0  0  0
   -1.4504    0.8669    1.5511 C   0  0  0  0  0  0  0  0  0  0  0  0
   -2.3963    1.5324    1.1480 O   0  0  0  0  0  0  0  0  0  0  0  0
   -0.5458    1.4214    2.4375 N   0  0  0  0  0  0  0  0  0  0  0  0
    0.1792    0.8180    2.8166 H   0  0  0  0  0  0  0  0  0  0  0  0
   -0.6742    2.7771    2.9622 C   0  0  0  0  0  0  0  0  0  0  0  0
   -1.6000    2.8799    3.5385 H   0  0  0  0  0  0  0  0  0  0  0  0
    0.1692    3.0116    3.6190 H   0  0  0  0  0  0  0  0  0  0  0  0
   -0.6862    3.5061    2.1448 H   0  0  0  0  0  0  0  0  0  0  0  0
  1  2  1  0  0  0  0
  2  3  1  0  0  0  0
  2  4  1  0  0  0  0
  2  5  1  0  0  0  0
  5  6  2  0  0  0  0
  5  7  1  0  0  0  0
  7  8  1  0  0  0  0
  7  9  1  0  0  0  0
  9 10  1  0  0  0  0
  9 11  1  0  0  0  0
  9 29  1  0  0  0  0
 11 12  1  0  0  0  0
 11 13  1  0  0  0  0
 11 14  1  0  0  0  0
 14 15  1  0  0  0  0
 14 16  1  0  0  0  0
 14 17  1  0  0  0  0
 17 18  1  0  0  0  0
 17 19  1  0  0  0  0
 17 20  1  0  0  0  0
 20 21  1  0  0  0  0
 20 22  2  0  0  0  0
 22 23  1  0  0  0  0
 22 26  1  0  0  0  0
 23 24  1  0  0  0  0
 23 25  1  0  0  0  0
 26 27  1  0  0  0  0
 26 28  1  0  0  0  0
 29 30  2  0  0  0  0
 29 31  1  0  0  0  0
 31 32  1  0  0  0  0
 31 33  1  0  0  0  0
 33 34  1  0  0  0  0
 33 35  1  0  0  0  0
 33 36  1  0  0  0  0
M  CHG  1  20   1
M  END
$$$$

  -OEChem-03222214013D

 36 35  0     1  0  0  0  0  0999 V2000
   -4.1869   -4.0160    2.4119 H   0  0  0  0  0  0  0  0  0  0  0  0
   -4.2190   -3.0019    2.0036 C   0  0  0  0  0  0  0  0  0  0  0  0
   -4.6588   -2.3371    2.7513 H   0  0  0  0  0  0  0  0  0  0  0  0
   -4.8476   -3.0003    1.1101 H   0  0  0  0  0  0  0  0  0  0  0  0
   -2.8190   -2.5342    1.6561 C   0  0  0  0  0  0  0  0  0  0  0  0
   -1.8676   -3.2877    1.7892 O   0  0  0  0  0  0  0  0  0  0  0  0
   -2.6212   -1.2720    1.1340 N   0  0  0  0  0  0  0  0  0  0  0  0
   -3.4362   -0.6577    1.1161 H   0  0  0  0  0  0  0  0  0  0  0  0
   -1.3116   -0.5964    1.0955 C   0  0  1  0  0  0  0  0  0  0  0  0
   -0.6564   -1.0848    1.8249 H   0  0  0  0  0  0  0  0  0  0  0  0
   -0.6086   -0.6796   -0.2843 C   0  0  0  0  0  0  0  0  0  0  0  0
   -0.6779    0.2970   -0.7771 H   0  0  0  0  0  0  0  0  0  0  0  0
    0.4542   -0.8861   -0.1197 H   0  0  0  0  0  0  0  0  0  0  0  0
   -1.1890   -1.7288   -1.2456 C   0  0  0  0  0  0  0  0  0  0  0  0
   -1.1167   -2.7199   -0.7842 H   0  0  0  0  0  0  0  0  0  0  0  0
   -2.2448   -1.5133   -1.4420 H   0  0  0  0  0  0  0  0  0  0  0  0
   -0.4161   -1.7140   -2.5616 C   0  0  0  0  0  0  0  0  0  0  0  0
   -0.5367   -0.7335   -3.0352 H   0  0  0  0  0  0  0  0  0  0  0  0
    0.6482   -1.8735   -2.3558 H   0  0  0  0  0  0  0  0  0  0  0  0
   -0.9238   -2.7778   -3.4468 N   0  3  0  0  0  0  0  0  0  0  0  0
   -1.5259   -3.4827   -3.0223 H   0  0  0  0  0  0  0  0  0  0  0  0
   -0.6088   -2.8807   -4.7056 C   0  0  0  0  0  0  0  0  0  0  0  0
    0.2372   -1.9838   -5.3174 N   0  0  0  0  0  0  0  0  0  0  0  0
    0.7405   -1.3260   -4.7256 H   0  0  0  0  0  0  0  0  0  0  0  0
    0.6501   -2.2343   -6.2136 H   0  0  0  0  0  0  0  0  0  0  0  0
   -1.1264   -3.9120   -5.4522 N   0  0  0  0  0  0  0  0  0  0  0  0
   -1.8844   -4.4668   -5.0595 H   0  0  0  0  0  0  0  0  0  0  0  0
   -1.0470   -3.8639   -6.4663 H   0  0  0  0  0  0  0  0  0  0  0  0
   -1.4564    0.8690    1.5523 C   0  0  0  0  0  0  0  0  0  0  0  0
   -2.4079    1.5252    1.1470 O   0  0  0  0  0  0  0  0  0  0  0  0
   -0.5591    1.4332    2.4403 N   0  0  0  0  0  0  0  0  0  0  0  0
    0.1689    0.8364    2.8242 H   0  0  0  0  0  0  0  0  0  0  0  0
   -0.7023    2.7877    2.9653 C   0  0  0  0  0  0  0  0  0  0  0  0
   -1.6267    2.8789    3.5457 H   0  0  0  0  0  0  0  0  0  0  0  0
    0.1414    3.0330    3.6182 H   0  0  0  0  0  0  0  0  0  0  0  0
   -0.7280    3.5170    2.1485 H   0  0  0  0  0  0  0  0  0  0  0  0
  1  2  1  0  0  0  0
  2  3  1  0  0  0  0
  2  4  1  0  0  0  0
  2  5  1  0  0  0  0
  5  6  2  0  0  0  0
  5  7  1  0  0  0  0
  7  8  1  0  0  0  0
  7  9  1  0  0  0  0
  9 10  1  0  0  0  0
  9 11  1  0  0  0  0
  9 29  1  0  0  0  0
 11 12  1  0  0  0  0
 11 13  1  0  0  0  0
 11 14  1  0  0  0  0
 14 15  1  0  0  0  0
 14 16  1  0  0  0  0
 14 17  1  0  0  0  0
 17 18  1  0  0  0  0
 17 19  1  0  0  0  0
 17 20  1  0  0  0  0
 20 21  1  0  0  0  0
 20 22  2  0  0  0  0
 22 23  1  0  0  0  0
 22 26  1  0  0  0  0
 23 24  1  0  0  0  0
 23 25  1  0  0  0  0
 26 27  1  0  0  0  0
 26 28  1  0  0  0  0
 29 30  2  0  0  0  0
 29 31  1  0  0  0  0
 31 32  1  0  0  0  0
 31 33  1  0  0  0  0
 33 34  1  0  0  0  0
 33 35  1  0  0  0  0
 33 36  1  0  0  0  0
M  CHG  1  20   1
M  END
$$$$

  -OEChem-03222214013D

 36 35  0     1  0  0  0  0  0999 V2000
   -4.2127   -3.9892    2.4280 H   0  0  0  0  0  0  0  0  0  0  0  0
   -4.2353   -2.9843    1.9966 C   0  0  0  0  0  0  0  0  0  0  0  0
   -4.6821   -2.3017    2.7238 H   0  0  0  0  0  0  0  0  0  0  0  0
   -4.8528   -3.0006    1.0955 H   0  0  0  0  0  0  0  0  0  0  0  0
   -2.8293   -2.5286    1.6571 C   0  0  0  0  0  0  0  0  0  0  0  0
   -1.8843   -3.2874    1.8063 O   0  0  0  0  0  0  0  0  0  0  0  0
   -2.6180   -1.2692    1.1327 N   0  0  0  0  0  0  0  0  0  0  0  0
   -3.4289   -0.6498    1.1020 H   0  0  0  0  0  0  0  0  0  0  0  0
   -1.3033   -0.6024    1.0973 C   0  0  1  0  0  0  0  0  0  0  0  0
   -0.6502   -1.0942    1.8266 H   0  0  0  0  0  0  0  0  0  0  0  0
   -0.6015   -0.6775   -0.2840 C   0  0  0  0  0  0  0  0  0  0  0  0
   -0.6470    0.3028   -0.7722 H   0  0  0  0  0  0  0  0  0  0  0  0
    0.4559   -0.9018   -0.1076 H   0  0  0  0  0  0  0  0  0  0  0  0
   -1.1863   -1.7132   -1.2580 C   0  0  0  0  0  0  0  0  0  0  0  0
   -1.3387   -2.6620   -0.7341 H   0  0  0  0  0  0  0  0  0  0  0  0
   -2.1549   -1.3654   -1.6333 H   0  0  0  0  0  0  0  0  0  0  0  0
   -0.2144   -1.9563   -2.4096 C   0  0  0  0  0  0  0  0  0  0  0  0
   -0.0896   -1.0267   -2.9760 H   0  0  0  0  0  0  0  0  0  0  0  0
    0.7588   -2.2501   -2.0009 H   0  0  0  0  0  0  0  0  0  0  0  0
   -0.7361   -3.0241   -3.2819 N   0  3  0  0  0  0  0  0  0  0  0  0
   -1.5342   -3.5545   -2.9345 H   0  0  0  0  0  0  0  0  0  0  0  0
   -0.2060   -3.3455   -4.4263 C   0  0  0  0  0  0  0  0  0  0  0  0
    0.9016   -2.6945   -4.9201 N   0  0  0  0  0  0  0  0  0  0  0  0
    1.4008   -2.0664   -4.2935 H   0  0  0  0  0  0  0  0  0  0  0  0
    1.4228   -3.1261   -5.6807 H   0  0  0  0  0  0  0  0  0  0  0  0
   -0.7566   -4.3634   -5.1675 N   0  0  0  0  0  0  0  0  0  0  0  0
   -1.6657   -4.7318   -4.8946 H   0  0  0  0  0  0  0  0  0  0  0  0
   -0.4723   -4.4654   -6.1400 H   0  0  0  0  0  0  0  0  0  0  0  0
   -1.4469    0.8644    1.5513 C   0  0  0  0  0  0  0  0  0  0  0  0
   -2.3993    1.5200    1.1471 O   0  0  0  0  0  0  0  0  0  0  0  0
   -0.5522    1.4275    2.4428 N   0  0  0  0  0  0  0  0  0  0  0  0
    0.1780    0.8319    2.8242 H   0  0  0  0  0  0  0  0  0  0  0  0
   -0.7035    2.7774    2.9767 C   0  0  0  0  0  0  0  0  0  0  0  0
   -1.6351    2.8626    3.5463 H   0  0  0  0  0  0  0  0  0  0  0  0
    0.1314    3.0184    3.6422 H   0  0  0  0  0  0  0  0  0  0  0  0
   -0.7193    3.5126    2.1650 H   0  0  0  0  0  0  0  0  0  0  0  0
  1  2  1  0  0  0  0
  2  3  1  0  0  0  0
  2  4  1  0  0  0  0
  2  5  1  0  0  0  0
  5  6  2  0  0  0  0
  5  7  1  0  0  0  0
  7  8  1  0  0  0  0
  7  9  1  0  0  0  0
  9 10  1  0  0  0  0
  9 11  1  0  0  0  0
  9 29  1  0  0  0  0
 11 12  1  0  0  0  0
 11 13  1  0  0  0  0
 11 14  1  0  0  0  0
 14 15  1  0  0  0  0
 14 16  1  0  0  0  0
 14 17  1  0  0  0  0
 17 18  1  0  0  0  0
 17 19  1  0  0  0  0
 17 20  1  0  0  0  0
 20 21  1  0  0  0  0
 20 22  2  0  0  0  0
 22 23  1  0  0  0  0
 22 26  1  0  0  0  0
 23 24  1  0  0  0  0
 23 25  1  0  0  0  0
 26 27  1  0  0  0  0
 26 28  1  0  0  0  0
 29 30  2  0  0  0  0
 29 31  1  0  0  0  0
 31 32  1  0  0  0  0
 31 33  1  0  0  0  0
 33 34  1  0  0  0  0
 33 35  1  0  0  0  0
 33 36  1  0  0  0  0
M  CHG  1  20   1
M  END
$$$$

  -OEChem-03222214013D

 36 35  0     1  0  0  0  0  0999 V2000
   -4.2358   -3.9726    2.4479 H   0  0  0  0  0  0  0  0  0  0  0  0
   -4.2548   -2.9726    2.0056 C   0  0  0  0  0  0  0  0  0  0  0  0
   -4.7061   -2.2817    2.7222 H   0  0  0  0  0  0  0  0  0  0  0  0
   -4.8670   -2.9974    1.1012 H   0  0  0  0  0  0  0  0  0  0  0  0
   -2.8461   -2.5227    1.6693 C   0  0  0  0  0  0  0  0  0  0  0  0
   -1.9045   -3.2878    1.8105 O   0  0  0  0  0  0  0  0  0  0  0  0
   -2.6293   -1.2643    1.1452 N   0  0  0  0  0  0  0  0  0  0  0  0
   -3.4373   -0.6410    1.1145 H   0  0  0  0  0  0  0  0  0  0  0  0
   -1.3119   -0.6042    1.1006 C   0  0  1  0  0  0  0  0  0  0  0  0
   -0.6582   -1.0990    1.8275 H   0  0  0  0  0  0  0  0  0  0  0  0
   -0.6101   -0.6757   -0.2830 C   0  0  0  0  0  0  0  0  0  0  0  0
   -0.6446    0.3085   -0.7645 H   0  0  0  0  0  0  0  0  0  0  0  0
    0.4455   -0.9002   -0.0960 H   0  0  0  0  0  0  0  0  0  0  0  0
   -1.1819   -1.7020   -1.2814 C   0  0  0  0  0  0  0  0  0  0  0  0
   -1.5693   -2.5731   -0.7473 H   0  0  0  0  0  0  0  0  0  0  0  0
   -2.0064   -1.2535   -1.8460 H   0  0  0  0  0  0  0  0  0  0  0  0
   -0.0789   -2.2048   -2.2104 C   0  0  0  0  0  0  0  0  0  0  0  0
    0.2943   -1.3684   -2.8118 H   0  0  0  0  0  0  0  0  0  0  0  0
    0.7465   -2.5963   -1.6054 H   0  0  0  0  0  0  0  0  0  0  0  0
   -0.6105   -3.2677   -3.0825 N   0  3  0  0  0  0  0  0  0  0  0  0
   -1.5516   -3.6028   -2.8800 H   0  0  0  0  0  0  0  0  0  0  0  0
    0.0720   -3.8253   -4.0400 C   0  0  0  0  0  0  0  0  0  0  0  0
    1.3647   -3.4477   -4.3234 N   0  0  0  0  0  0  0  0  0  0  0  0
    1.8358   -2.8369   -3.6593 H   0  0  0  0  0  0  0  0  0  0  0  0
    1.9373   -4.0625   -4.8980 H   0  0  0  0  0  0  0  0  0  0  0  0
   -0.5033   -4.8229   -4.7904 N   0  0  0  0  0  0  0  0  0  0  0  0
   -1.5035   -4.9909   -4.6995 H   0  0  0  0  0  0  0  0  0  0  0  0
   -0.0468   -5.1071   -5.6553 H   0  0  0  0  0  0  0  0  0  0  0  0
   -1.4484    0.8625    1.5577 C   0  0  0  0  0  0  0  0  0  0  0  0
   -2.4042    1.5208    1.1665 O   0  0  0  0  0  0  0  0  0  0  0  0
   -0.5453    1.4204    2.4438 N   0  0  0  0  0  0  0  0  0  0  0  0
    0.1858    0.8215    2.8180 H   0  0  0  0  0  0  0  0  0  0  0  0
   -0.6896    2.7689    2.9835 C   0  0  0  0  0  0  0  0  0  0  0  0
   -1.6210    2.8564    3.5533 H   0  0  0  0  0  0  0  0  0  0  0  0
    0.1463    3.0026    3.6503 H   0  0  0  0  0  0  0  0  0  0  0  0
   -0.7016    3.5079    2.1751 H   0  0  0  0  0  0  0  0  0  0  0  0
  1  2  1  0  0  0  0
  2  3  1  0  0  0  0
  2  4  1  0  0  0  0
  2  5  1  0  0  0  0
  5  6  2  0  0  0  0
  5  7  1  0  0  0  0
  7  8  1  0  0  0  0
  7  9  1  0  0  0  0
  9 10  1  0  0  0  0
  9 11  1  0  0  0  0
  9 29  1  0  0  0  0
 11 12  1  0  0  0  0
 11 13  1  0  0  0  0
 11 14  1  0  0  0  0
 14 15  1  0  0  0  0
 14 16  1  0  0  0  0
 14 17  1  0  0  0  0
 17 18  1  0  0  0  0
 17 19  1  0  0  0  0
 17 20  1  0  0  0  0
 20 21  1  0  0  0  0
 20 22  2  0  0  0  0
 22 23  1  0  0  0  0
 22 26  1  0  0  0  0
 23 24  1  0  0  0  0
 23 25  1  0  0  0  0
 26 27  1  0  0  0  0
 26 28  1  0  0  0  0
 29 30  2  0  0  0  0
 29 31  1  0  0  0  0
 31 32  1  0  0  0  0
 31 33  1  0  0  0  0
 33 34  1  0  0  0  0
 33 35  1  0  0  0  0
 33 36  1  0  0  0  0
M  CHG  1  20   1
M  END
$$$$

  -OEChem-03222214013D

 36 35  0     1  0  0  0  0  0999 V2000
   -4.2470   -4.0116    2.4024 H   0  0  0  0  0  0  0  0  0  0  0  0
   -4.2639   -2.9727    2.0612 C   0  0  0  0  0  0  0  0  0  0  0  0
   -4.6538   -2.3451    2.8666 H   0  0  0  0  0  0  0  0  0  0  0  0
   -4.9274   -2.8961    1.1967 H   0  0  0  0  0  0  0  0  0  0  0  0
   -2.8651   -2.5225    1.6864 C   0  0  0  0  0  0  0  0  0  0  0  0
   -1.9216   -3.2923    1.7875 O   0  0  0  0  0  0  0  0  0  0  0  0
   -2.6602   -1.2621    1.1615 N   0  0  0  0  0  0  0  0  0  0  0  0
   -3.4669   -0.6361    1.1570 H   0  0  0  0  0  0  0  0  0  0  0  0
   -1.3428   -0.6047    1.0981 C   0  0  1  0  0  0  0  0  0  0  0  0
   -0.6873   -1.1005    1.8223 H   0  0  0  0  0  0  0  0  0  0  0  0
   -0.6375   -0.6814   -0.2838 C   0  0  0  0  0  0  0  0  0  0  0  0
   -0.6824    0.3032   -0.7635 H   0  0  0  0  0  0  0  0  0  0  0  0
    0.4212   -0.8846   -0.0909 H   0  0  0  0  0  0  0  0  0  0  0  0
   -1.1848   -1.7076   -1.3020 C   0  0  0  0  0  0  0  0  0  0  0  0
   -1.8207   -2.4515   -0.8192 H   0  0  0  0  0  0  0  0  0  0  0  0
   -1.7897   -1.1896   -2.0540 H   0  0  0  0  0  0  0  0  0  0  0  0
   -0.0280   -2.4615   -1.9552 C   0  0  0  0  0  0  0  0  0  0  0  0
    0.6070   -1.7499   -2.4946 H   0  0  0  0  0  0  0  0  0  0  0  0
    0.5697   -2.9391   -1.1707 H   0  0  0  0  0  0  0  0  0  0  0  0
   -0.5506   -3.4833   -2.8801 N   0  3  0  0  0  0  0  0  0  0  0  0
   -1.5633   -3.5827   -2.9352 H   0  0  0  0  0  0  0  0  0  0  0  0
    0.2084   -4.2813   -3.5738 C   0  0  0  0  0  0  0  0  0  0  0  0
    1.5814   -4.2206   -3.4987 N   0  0  0  0  0  0  0  0  0  0  0  0
    1.9892   -3.6548   -2.7572 H   0  0  0  0  0  0  0  0  0  0  0  0
    2.1242   -5.0045   -3.8549 H   0  0  0  0  0  0  0  0  0  0  0  0
   -0.3658   -5.2150   -4.4031 N   0  0  0  0  0  0  0  0  0  0  0  0
   -1.3631   -5.1502   -4.5973 H   0  0  0  0  0  0  0  0  0  0  0  0
    0.2243   -5.6884   -5.0848 H   0  0  0  0  0  0  0  0  0  0  0  0
   -1.4654    0.8615    1.5604 C   0  0  0  0  0  0  0  0  0  0  0  0
   -2.4261    1.5235    1.1886 O   0  0  0  0  0  0  0  0  0  0  0  0
   -0.5457    1.4144    2.4327 N   0  0  0  0  0  0  0  0  0  0  0  0
    0.1978    0.8171    2.7839 H   0  0  0  0  0  0  0  0  0  0  0  0
   -0.6621    2.7709    2.9588 C   0  0  0  0  0  0  0  0  0  0  0  0
   -1.5670    2.8705    3.5676 H   0  0  0  0  0  0  0  0  0  0  0  0
    0.2035    3.0118    3.5837 H   0  0  0  0  0  0  0  0  0  0  0  0
   -0.7080    3.4981    2.1411 H   0  0  0  0  0  0  0  0  0  0  0  0
  1  2  1  0  0  0  0
  2  3  1  0  0  0  0
  2  4  1  0  0  0  0
  2  5  1  0  0  0  0
  5  6  2  0  0  0  0
  5  7  1  0  0  0  0
  7  8  1  0  0  0  0
  7  9  1  0  0  0  0
  9 10  1  0  0  0  0
  9 11  1  0  0  0  0
  9 29  1  0  0  0  0
 11 12  1  0  0  0  0
 11 13  1  0  0  0  0
 11 14  1  0  0  0  0
 14 15  1  0  0  0  0
 14 16  1  0  0  0  0
 14 17  1  0  0  0  0
 17 18  1  0  0  0  0
 17 19  1  0  0  0  0
 17 20  1  0  0  0  0
 20 21  1  0  0  0  0
 20 22  2  0  0  0  0
 22 23  1  0  0  0  0
 22 26  1  0  0  0  0
 23 24  1  0  0  0  0
 23 25  1  0  0  0  0
 26 27  1  0  0  0  0
 26 28  1  0  0  0  0
 29 30  2  0  0  0  0
 29 31  1  0  0  0  0
 31 32  1  0  0  0  0
 31 33  1  0  0  0  0
 33 34  1  0  0  0  0
 33 35  1  0  0  0  0
 33 36  1  0  0  0  0
M  CHG  1  20   1
M  END
$$$$

  -OEChem-03222214013D

 36 35  0     1  0  0  0  0  0999 V2000
   -3.3743   -4.5633    1.9873 H   0  0  0  0  0  0  0  0  0  0  0  0
   -3.5906   -3.5148    1.7648 C   0  0  0  0  0  0  0  0  0  0  0  0
   -3.9575   -3.0333    2.6750 H   0  0  0  0  0  0  0  0  0  0  0  0
   -4.3702   -3.4680    1.0005 H   0  0  0  0  0  0  0  0  0  0  0  0
   -2.3390   -2.8113    1.2773 C   0  0  0  0  0  0  0  0  0  0  0  0
   -1.3074   -3.4444    1.0808 O   0  0  0  0  0  0  0  0  0  0  0  0
   -2.3856   -1.4809    0.9192 N   0  0  0  0  0  0  0  0  0  0  0  0
   -3.2684   -0.9978    1.0988 H   0  0  0  0  0  0  0  0  0  0  0  0
   -1.1994   -0.6088    0.8704 C   0  0  1  0  0  0  0  0  0  0  0  0
   -0.4330   -1.0731    1.5004 H   0  0  0  0  0  0  0  0  0  0  0  0
   -0.5601   -0.4261   -0.5321 C   0  0  0  0  0  0  0  0  0  0  0  0
   -0.8289    0.5724   -0.8957 H   0  0  0  0  0  0  0  0  0  0  0  0
    0.5290   -0.4241   -0.4134 H   0  0  0  0  0  0  0  0  0  0  0  0
   -0.9782   -1.4235   -1.6394 C   0  0  0  0  0  0  0  0  0  0  0  0
   -1.7275   -2.1410   -1.3054 H   0  0  0  0  0  0  0  0  0  0  0  0
   -1.4256   -0.8696   -2.4717 H   0  0  0  0  0  0  0  0  0  0  0  0
    0.2562   -2.1736   -2.1367 C   0  0  0  0  0  0  0  0  0  0  0  0
    0.8952   -1.4864   -2.7024 H   0  0  0  0  0  0  0  0  0  0  0  0
    0.8380   -2.5288   -1.2790 H   0  0  0  0  0  0  0  0  0  0  0  0
   -0.1324   -3.3173   -2.9820 N   0  3  0  0  0  0  0  0  0  0  0  0
   -0.2185   -3.1438   -3.9827 H   0  0  0  0  0  0  0  0  0  0  0  0
   -0.2900   -4.5284   -2.5265 C   0  0  0  0  0  0  0  0  0  0  0  0
   -0.2077   -4.8319   -1.1859 N   0  0  0  0  0  0  0  0  0  0  0  0
   -0.3234   -4.0649   -0.5149 H   0  0  0  0  0  0  0  0  0  0  0  0
   -0.5279   -5.7469   -0.8805 H   0  0  0  0  0  0  0  0  0  0  0  0
   -0.5440   -5.5504   -3.4098 N   0  0  0  0  0  0  0  0  0  0  0  0
   -0.4111   -5.3781   -4.4043 H   0  0  0  0  0  0  0  0  0  0  0  0
   -0.4510   -6.5080   -3.0763 H   0  0  0  0  0  0  0  0  0  0  0  0
   -1.5158    0.7477    1.5339 C   0  0  0  0  0  0  0  0  0  0  0  0
   -2.6168    1.2506    1.3511 O   0  0  0  0  0  0  0  0  0  0  0  0
   -0.6318    1.3375    2.4186 N   0  0  0  0  0  0  0  0  0  0  0  0
    0.2566    0.8753    2.5906 H   0  0  0  0  0  0  0  0  0  0  0  0
   -0.9288    2.5737    3.1359 C   0  0  0  0  0  0  0  0  0  0  0  0
   -1.8129    2.4478    3.7701 H   0  0  0  0  0  0  0  0  0  0  0  0
   -0.0849    2.8553    3.7731 H   0  0  0  0  0  0  0  0  0  0  0  0
   -1.1161    3.3915    2.4320 H   0  0  0  0  0  0  0  0  0  0  0  0
  1  2  1  0  0  0  0
  2  3  1  0  0  0  0
  2  4  1  0  0  0  0
  2  5  1  0  0  0  0
  5  6  2  0  0  0  0
  5  7  1  0  0  0  0
  7  8  1  0  0  0  0
  7  9  1  0  0  0  0
  9 10  1  0  0  0  0
  9 11  1  0  0  0  0
  9 29  1  0  0  0  0
 11 12  1  0  0  0  0
 11 13  1  0  0  0  0
 11 14  1  0  0  0  0
 14 15  1  0  0  0  0
 14 16  1  0  0  0  0
 14 17  1  0  0  0  0
 17 18  1  0  0  0  0
 17 19  1  0  0  0  0
 17 20  1  0  0  0  0
 20 21  1  0  0  0  0
 20 22  2  0  0  0  0
 22 23  1  0  0  0  0
 22 26  1  0  0  0  0
 23 24  1  0  0  0  0
 23 25  1  0  0  0  0
 26 27  1  0  0  0  0
 26 28  1  0  0  0  0
 29 30  2  0  0  0  0
 29 31  1  0  0  0  0
 31 32  1  0  0  0  0
 31 33  1  0  0  0  0
 33 34  1  0  0  0  0
 33 35  1  0  0  0  0
 33 36  1  0  0  0  0
M  CHG  1  20   1
M  END
$$$$

  -OEChem-03222214013D

 36 35  0     1  0  0  0  0  0999 V2000
   -3.4269   -4.5089    2.1689 H   0  0  0  0  0  0  0  0  0  0  0  0
   -3.6236   -3.4632    1.9167 C   0  0  0  0  0  0  0  0  0  0  0  0
   -3.9842   -2.9501    2.8122 H   0  0  0  0  0  0  0  0  0  0  0  0
   -4.4002   -3.4237    1.1489 H   0  0  0  0  0  0  0  0  0  0  0  0
   -2.3590   -2.7938    1.4141 C   0  0  0  0  0  0  0  0  0  0  0  0
   -1.3340   -3.4472    1.2554 O   0  0  0  0  0  0  0  0  0  0  0  0
   -2.3878   -1.4752    1.0149 N   0  0  0  0  0  0  0  0  0  0  0  0
   -3.2675   -0.9784    1.1710 H   0  0  0  0  0  0  0  0  0  0  0  0
   -1.1968   -0.6121    0.9391 C   0  0  1  0  0  0  0  0  0  0  0  0
   -0.4349   -1.0619    1.5849 H   0  0  0  0  0  0  0  0  0  0  0  0
   -0.5537   -0.4840   -0.4677 C   0  0  0  0  0  0  0  0  0  0  0  0
   -0.8414    0.4960   -0.8661 H   0  0  0  0  0  0  0  0  0  0  0  0
    0.5365   -0.4645   -0.3636 H   0  0  0  0  0  0  0  0  0  0  0  0
   -0.9778   -1.5194   -1.5337 C   0  0  0  0  0  0  0  0  0  0  0  0
   -1.9165   -2.0219   -1.2941 H   0  0  0  0  0  0  0  0  0  0  0  0
   -1.1393   -0.9991   -2.4838 H   0  0  0  0  0  0  0  0  0  0  0  0
    0.1520   -2.5311   -1.7203 C   0  0  0  0  0  0  0  0  0  0  0  0
    1.0196   -2.0278   -2.1615 H   0  0  0  0  0  0  0  0  0  0  0  0
    0.4588   -2.9132   -0.7407 H   0  0  0  0  0  0  0  0  0  0  0  0
   -0.2796   -3.6414   -2.5894 N   0  3  0  0  0  0  0  0  0  0  0  0
   -0.3529   -3.4446   -3.5864 H   0  0  0  0  0  0  0  0  0  0  0  0
   -0.5027   -4.8514   -2.1603 C   0  0  0  0  0  0  0  0  0  0  0  0
   -0.4391   -5.1869   -0.8276 N   0  0  0  0  0  0  0  0  0  0  0  0
   -0.4996   -4.4228   -0.1454 H   0  0  0  0  0  0  0  0  0  0  0  0
   -0.8184   -6.0843   -0.5388 H   0  0  0  0  0  0  0  0  0  0  0  0
   -0.8097   -5.8397   -3.0647 N   0  0  0  0  0  0  0  0  0  0  0  0
   -0.6613   -5.6556   -4.0547 H   0  0  0  0  0  0  0  0  0  0  0  0
   -0.7707   -6.8072   -2.7499 H   0  0  0  0  0  0  0  0  0  0  0  0
   -1.5027    0.7677    1.5580 C   0  0  0  0  0  0  0  0  0  0  0  0
   -2.5997    1.2733    1.3586 O   0  0  0  0  0  0  0  0  0  0  0  0
   -0.6131    1.3783    2.4230 N   0  0  0  0  0  0  0  0  0  0  0  0
    0.2697    0.9120    2.6125 H   0  0  0  0  0  0  0  0  0  0  0  0
   -0.8941    2.6449    3.0921 C   0  0  0  0  0  0  0  0  0  0  0  0
   -1.7751    2.5526    3.7361 H   0  0  0  0  0  0  0  0  0  0  0  0
   -0.0437    2.9440    3.7129 H   0  0  0  0  0  0  0  0  0  0  0  0
   -1.0783    3.4351    2.3564 H   0  0  0  0  0  0  0  0  0  0  0  0
  1  2  1  0  0  0  0
  2  3  1  0  0  0  0
  2  4  1  0  0  0  0
  2  5  1  0  0  0  0
  5  6  2  0  0  0  0
  5  7  1  0  0  0  0
  7  8  1  0  0  0  0
  7  9  1  0  0  0  0
  9 10  1  0  0  0  0
  9 11  1  0  0  0  0
  9 29  1  0  0  0  0
 11 12  1  0  0  0  0
 11 13  1  0  0  0  0
 11 14  1  0  0  0  0
 14 15  1  0  0  0  0
 14 16  1  0  0  0  0
 14 17  1  0  0  0  0
 17 18  1  0  0  0  0
 17 19  1  0  0  0  0
 17 20  1  0  0  0  0
 20 21  1  0  0  0  0
 20 22  2  0  0  0  0
 22 23  1  0  0  0  0
 22 26  1  0  0  0  0
 23 24  1  0  0  0  0
 23 25  1  0  0  0  0
 26 27  1  0  0  0  0
 26 28  1  0  0  0  0
 29 30  2  0  0  0  0
 29 31  1  0  0  0  0
 31 32  1  0  0  0  0
 31 33  1  0  0  0  0
 33 34  1  0  0  0  0
 33 35  1  0  0  0  0
 33 36  1  0  0  0  0
M  CHG  1  20   1
M  END
$$$$

  -OEChem-03222214013D

 36 35  0     1  0  0  0  0  0999 V2000
   -3.6651   -4.4079    2.2047 H   0  0  0  0  0  0  0  0  0  0  0  0
   -3.7887   -3.3577    1.9270 C   0  0  0  0  0  0  0  0  0  0  0  0
   -4.1902   -2.8144    2.7864 H   0  0  0  0  0  0  0  0  0  0  0  0
   -4.5016   -3.2906    1.1015 H   0  0  0  0  0  0  0  0  0  0  0  0
   -2.4574   -2.7587    1.5165 C   0  0  0  0  0  0  0  0  0  0  0  0
   -1.4519   -3.4576    1.4908 O   0  0  0  0  0  0  0  0  0  0  0  0
   -2.4031   -1.4537    1.0778 N   0  0  0  0  0  0  0  0  0  0  0  0
   -3.2734   -0.9224    1.1497 H   0  0  0  0  0  0  0  0  0  0  0  0
   -1.1831   -0.6295    1.0120 C   0  0  1  0  0  0  0  0  0  0  0  0
   -0.4448   -1.0841    1.6814 H   0  0  0  0  0  0  0  0  0  0  0  0
   -0.5234   -0.5368   -0.3910 C   0  0  0  0  0  0  0  0  0  0  0  0
   -0.7726    0.4466   -0.8063 H   0  0  0  0  0  0  0  0  0  0  0  0
    0.5662   -0.5602   -0.2824 H   0  0  0  0  0  0  0  0  0  0  0  0
   -0.9764   -1.5694   -1.4412 C   0  0  0  0  0  0  0  0  0  0  0  0
   -2.0322   -1.8322   -1.3319 H   0  0  0  0  0  0  0  0  0  0  0  0
   -0.8609   -1.1336   -2.4392 H   0  0  0  0  0  0  0  0  0  0  0  0
   -0.0757   -2.7996   -1.3397 C   0  0  0  0  0  0  0  0  0  0  0  0
    0.9380   -2.5299   -1.6555 H   0  0  0  0  0  0  0  0  0  0  0  0
   -0.0185   -3.1130   -0.2936 H   0  0  0  0  0  0  0  0  0  0  0  0
   -0.5858   -3.8970   -2.1823 N   0  3  0  0  0  0  0  0  0  0  0  0
   -0.7053   -3.6987   -3.1744 H   0  0  0  0  0  0  0  0  0  0  0  0
   -0.7923   -5.1066   -1.7436 C   0  0  0  0  0  0  0  0  0  0  0  0
   -0.6493   -5.4445   -0.4175 N   0  0  0  0  0  0  0  0  0  0  0  0
   -0.6675   -4.6770    0.2634 H   0  0  0  0  0  0  0  0  0  0  0  0
   -1.0182   -6.3392   -0.1070 H   0  0  0  0  0  0  0  0  0  0  0  0
   -1.1597   -6.0911   -2.6297 N   0  0  0  0  0  0  0  0  0  0  0  0
   -1.0791   -5.9027   -3.6267 H   0  0  0  0  0  0  0  0  0  0  0  0
   -1.0971   -7.0600   -2.3231 H   0  0  0  0  0  0  0  0  0  0  0  0
   -1.4742    0.7767    1.5776 C   0  0  0  0  0  0  0  0  0  0  0  0
   -2.5478    1.3049    1.3174 O   0  0  0  0  0  0  0  0  0  0  0  0
   -0.6005    1.3951    2.4532 N   0  0  0  0  0  0  0  0  0  0  0  0
    0.2676    0.9191    2.6826 H   0  0  0  0  0  0  0  0  0  0  0  0
   -0.8691    2.6953    3.0604 C   0  0  0  0  0  0  0  0  0  0  0  0
   -1.7783    2.6545    3.6699 H   0  0  0  0  0  0  0  0  0  0  0  0
   -0.0362    2.9939    3.7045 H   0  0  0  0  0  0  0  0  0  0  0  0
   -0.9986    3.4610    2.2878 H   0  0  0  0  0  0  0  0  0  0  0  0
  1  2  1  0  0  0  0
  2  3  1  0  0  0  0
  2  4  1  0  0  0  0
  2  5  1  0  0  0  0
  5  6  2  0  0  0  0
  5  7  1  0  0  0  0
  7  8  1  0  0  0  0
  7  9  1  0  0  0  0
  9 10  1  0  0  0  0
  9 11  1  0  0  0  0
  9 29  1  0  0  0  0
 11 12  1  0  0  0  0
 11 13  1  0  0  0  0
 11 14  1  0  0  0  0
 14 15  1  0  0  0  0
 14 16  1  0  0  0  0
 14 17  1  0  0  0  0
 17 18  1  0  0  0  0
 17 19  1  0  0  0  0
 17 20  1  0  0  0  0
 20 21  1  0  0  0  0
 20 22  2  0  0  0  0
 22 23  1  0  0  0  0
 22 26  1  0  0  0  0
 23 24  1  0  0  0  0
 23 25  1  0  0  0  0
 26 27  1  0  0  0  0
 26 28  1  0  0  0  0
 29 30  2  0  0  0  0
 29 31  1  0  0  0  0
 31 32  1  0  0  0  0
 31 33  1  0  0  0  0
 33 34  1  0  0  0  0
 33 35  1  0  0  0  0
 33 36  1  0  0  0  0
M  CHG  1  20   1
M  END
$$$$

  -OEChem-03222214013D

 36 35  0     1  0  0  0  0  0999 V2000
   -3.8986   -4.2851    2.2929 H   0  0  0  0  0  0  0  0  0  0  0  0
   -3.9473   -3.2711    1.8869 C   0  0  0  0  0  0  0  0  0  0  0  0
   -4.4595   -2.6309    2.6102 H   0  0  0  0  0  0  0  0  0  0  0  0
   -4.5227   -3.2873    0.9582 H   0  0  0  0  0  0  0  0  0  0  0  0
   -2.5518   -2.7384    1.6260 C   0  0  0  0  0  0  0  0  0  0  0  0
   -1.5827   -3.4616    1.8119 O   0  0  0  0  0  0  0  0  0  0  0  0
   -2.3999   -1.4583    1.1386 N   0  0  0  0  0  0  0  0  0  0  0  0
   -3.2557   -0.9022    1.0790 H   0  0  0  0  0  0  0  0  0  0  0  0
   -1.1546   -0.6681    1.0985 C   0  0  1  0  0  0  0  0  0  0  0  0
   -0.4439   -1.1136    1.8027 H   0  0  0  0  0  0  0  0  0  0  0  0
   -0.4624   -0.5882   -0.2949 C   0  0  0  0  0  0  0  0  0  0  0  0
   -0.6534    0.4063   -0.7154 H   0  0  0  0  0  0  0  0  0  0  0  0
    0.6214   -0.6637   -0.1546 H   0  0  0  0  0  0  0  0  0  0  0  0
   -0.9114   -1.5971   -1.3653 C   0  0  0  0  0  0  0  0  0  0  0  0
   -2.0046   -1.6356   -1.4092 H   0  0  0  0  0  0  0  0  0  0  0  0
   -0.5554   -1.2704   -2.3482 H   0  0  0  0  0  0  0  0  0  0  0  0
   -0.3249   -2.9720   -1.0488 C   0  0  0  0  0  0  0  0  0  0  0  0
    0.7449   -2.9624   -1.2852 H   0  0  0  0  0  0  0  0  0  0  0  0
   -0.4146   -3.1606    0.0200 H   0  0  0  0  0  0  0  0  0  0  0  0
   -0.9943   -4.0342   -1.8208 N   0  3  0  0  0  0  0  0  0  0  0  0
   -1.1971   -3.8372   -2.7994 H   0  0  0  0  0  0  0  0  0  0  0  0
   -1.2158   -5.2285   -1.3495 C   0  0  0  0  0  0  0  0  0  0  0  0
   -0.9535   -5.5638   -0.0409 N   0  0  0  0  0  0  0  0  0  0  0  0
   -0.8693   -4.7911    0.6286 H   0  0  0  0  0  0  0  0  0  0  0  0
   -1.3300   -6.4378    0.3162 H   0  0  0  0  0  0  0  0  0  0  0  0
   -1.7222   -6.1986   -2.1812 N   0  0  0  0  0  0  0  0  0  0  0  0
   -1.7329   -6.0218   -3.1837 H   0  0  0  0  0  0  0  0  0  0  0  0
   -1.6774   -7.1675   -1.8710 H   0  0  0  0  0  0  0  0  0  0  0  0
   -1.4608    0.7635    1.5891 C   0  0  0  0  0  0  0  0  0  0  0  0
   -2.5085    1.2954    1.2426 O   0  0  0  0  0  0  0  0  0  0  0  0
   -0.6283    1.4067    2.4859 N   0  0  0  0  0  0  0  0  0  0  0  0
    0.2151    0.9267    2.7880 H   0  0  0  0  0  0  0  0  0  0  0  0
   -0.9075    2.7368    3.0181 C   0  0  0  0  0  0  0  0  0  0  0  0
   -1.8605    2.7426    3.5580 H   0  0  0  0  0  0  0  0  0  0  0  0
   -0.1174    3.0429    3.7108 H   0  0  0  0  0  0  0  0  0  0  0  0
   -0.9589    3.4715    2.2073 H   0  0  0  0  0  0  0  0  0  0  0  0
  1  2  1  0  0  0  0
  2  3  1  0  0  0  0
  2  4  1  0  0  0  0
  2  5  1  0  0  0  0
  5  6  2  0  0  0  0
  5  7  1  0  0  0  0
  7  8  1  0  0  0  0
  7  9  1  0  0  0  0
  9 10  1  0  0  0  0
  9 11  1  0  0  0  0
  9 29  1  0  0  0  0
 11 12  1  0  0  0  0
 11 13  1  0  0  0  0
 11 14  1  0  0  0  0
 14 15  1  0  0  0  0
 14 16  1  0  0  0  0
 14 17  1  0  0  0  0
 17 18  1  0  0  0  0
 17 19  1  0  0  0  0
 17 20  1  0  0  0  0
 20 21  1  0  0  0  0
 20 22  2  0  0  0  0
 22 23  1  0  0  0  0
 22 26  1  0  0  0  0
 23 24  1  0  0  0  0
 23 25  1  0  0  0  0
 26 27  1  0  0  0  0
 26 28  1  0  0  0  0
 29 30  2  0  0  0  0
 29 31  1  0  0  0  0
 31 32  1  0  0  0  0
 31 33  1  0  0  0  0
 33 34  1  0  0  0  0
 33 35  1  0  0  0  0
 33 36  1  0  0  0  0
M  CHG  1  20   1
M  END
$$$$

  -OEChem-03222214013D

 36 35  0     1  0  0  0  0  0999 V2000
   -4.0848   -4.1643    2.4444 H   0  0  0  0  0  0  0  0  0  0  0  0
   -4.0694   -3.1821    1.9638 C   0  0  0  0  0  0  0  0  0  0  0  0
   -4.6128   -2.4762    2.5979 H   0  0  0  0  0  0  0  0  0  0  0  0
   -4.5746   -3.2510    0.9973 H   0  0  0  0  0  0  0  0  0  0  0  0
   -2.6413   -2.7079    1.7759 C   0  0  0  0  0  0  0  0  0  0  0  0
   -1.7167   -3.4386    2.1041 O   0  0  0  0  0  0  0  0  0  0  0  0
   -2.4170   -1.4654    1.2212 N   0  0  0  0  0  0  0  0  0  0  0  0
   -3.2529   -0.8974    1.0663 H   0  0  0  0  0  0  0  0  0  0  0  0
   -1.1537   -0.7001    1.1901 C   0  0  1  0  0  0  0  0  0  0  0  0
   -0.4761   -1.1141    1.9446 H   0  0  0  0  0  0  0  0  0  0  0  0
   -0.4030   -0.6591   -0.1816 C   0  0  0  0  0  0  0  0  0  0  0  0
   -0.5343    0.3350   -0.6252 H   0  0  0  0  0  0  0  0  0  0  0  0
    0.6676   -0.7671    0.0229 H   0  0  0  0  0  0  0  0  0  0  0  0
   -0.7875   -1.6641   -1.2820 C   0  0  0  0  0  0  0  0  0  0  0  0
   -1.8426   -1.5090   -1.5317 H   0  0  0  0  0  0  0  0  0  0  0  0
   -0.1993   -1.4731   -2.1859 H   0  0  0  0  0  0  0  0  0  0  0  0
   -0.5699   -3.1013   -0.8201 C   0  0  0  0  0  0  0  0  0  0  0  0
    0.4870   -3.3547   -0.9576 H   0  0  0  0  0  0  0  0  0  0  0  0
   -0.7735   -3.1623    0.2424 H   0  0  0  0  0  0  0  0  0  0  0  0
   -1.4065   -4.0608   -1.5613 N   0  3  0  0  0  0  0  0  0  0  0  0
   -1.6412   -3.8276   -2.5247 H   0  0  0  0  0  0  0  0  0  0  0  0
   -1.7345   -5.2267   -1.0814 C   0  0  0  0  0  0  0  0  0  0  0  0
   -1.4223   -5.6019    0.2061 N   0  0  0  0  0  0  0  0  0  0  0  0
   -1.1845   -4.8543    0.8670 H   0  0  0  0  0  0  0  0  0  0  0  0
   -1.8713   -6.4289    0.5906 H   0  0  0  0  0  0  0  0  0  0  0  0
   -2.4079   -6.1217   -1.8782 N   0  0  0  0  0  0  0  0  0  0  0  0
   -2.4665   -5.9339   -2.8771 H   0  0  0  0  0  0  0  0  0  0  0  0
   -2.4542   -7.0928   -1.5750 H   0  0  0  0  0  0  0  0  0  0  0  0
   -1.4781    0.7596    1.5785 C   0  0  0  0  0  0  0  0  0  0  0  0
   -2.5009    1.2747    1.1420 O   0  0  0  0  0  0  0  0  0  0  0  0
   -0.6881    1.4530    2.4764 N   0  0  0  0  0  0  0  0  0  0  0  0
    0.1278    0.9839    2.8603 H   0  0  0  0  0  0  0  0  0  0  0  0
   -0.9881    2.8112    2.9186 C   0  0  0  0  0  0  0  0  0  0  0  0
   -1.9524    2.8426    3.4370 H   0  0  0  0  0  0  0  0  0  0  0  0
   -0.2148    3.1662    3.6070 H   0  0  0  0  0  0  0  0  0  0  0  0
   -1.0266    3.4939    2.0630 H   0  0  0  0  0  0  0  0  0  0  0  0
  1  2  1  0  0  0  0
  2  3  1  0  0  0  0
  2  4  1  0  0  0  0
  2  5  1  0  0  0  0
  5  6  2  0  0  0  0
  5  7  1  0  0  0  0
  7  8  1  0  0  0  0
  7  9  1  0  0  0  0
  9 10  1  0  0  0  0
  9 11  1  0  0  0  0
  9 29  1  0  0  0  0
 11 12  1  0  0  0  0
 11 13  1  0  0  0  0
 11 14  1  0  0  0  0
 14 15  1  0  0  0  0
 14 16  1  0  0  0  0
 14 17  1  0  0  0  0
 17 18  1  0  0  0  0
 17 19  1  0  0  0  0
 17 20  1  0  0  0  0
 20 21  1  0  0  0  0
 20 22  2  0  0  0  0
 22 23  1  0  0  0  0
 22 26  1  0  0  0  0
 23 24  1  0  0  0  0
 23 25  1  0  0  0  0
 26 27  1  0  0  0  0
 26 28  1  0  0  0  0
 29 30  2  0  0  0  0
 29 31  1  0  0  0  0
 31 32  1  0  0  0  0
 31 33  1  0  0  0  0
 33 34  1  0  0  0  0
 33 35  1  0  0  0  0
 33 36  1  0  0  0  0
M  CHG  1  20   1
M  END
$$$$

  -OEChem-03222214013D

 36 35  0     1  0  0  0  0  0999 V2000
   -4.6953   -3.5556    2.9527 H   0  0  0  0  0  0  0  0  0  0  0  0
   -4.5758   -2.5669    2.5010 C   0  0  0  0  0  0  0  0  0  0  0  0
   -4.8289   -1.8094    3.2475 H   0  0  0  0  0  0  0  0  0  0  0  0
   -5.2641   -2.4770    1.6571 H   0  0  0  0  0  0  0  0  0  0  0  0
   -3.1476   -2.3693    2.0315 C   0  0  0  0  0  0  0  0  0  0  0  0
   -2.3425   -3.2890    2.1320 O   0  0  0  0  0  0  0  0  0  0  0  0
   -2.7942   -1.1742    1.4321 N   0  0  0  0  0  0  0  0  0  0  0  0
   -3.5151   -0.4491    1.4294 H   0  0  0  0  0  0  0  0  0  0  0  0
   -1.4194   -0.6730    1.2309 C   0  0  1  0  0  0  0  0  0  0  0  0
   -0.7582   -1.2159    1.9148 H   0  0  0  0  0  0  0  0  0  0  0  0
   -0.8137   -0.7810   -0.2087 C   0  0  0  0  0  0  0  0  0  0  0  0
   -0.7697    0.2209   -0.6517 H   0  0  0  0  0  0  0  0  0  0  0  0
    0.2237   -1.1111   -0.0900 H   0  0  0  0  0  0  0  0  0  0  0  0
   -1.4719   -1.6877   -1.2695 C   0  0  0  0  0  0  0  0  0  0  0  0
   -2.3810   -1.2102   -1.6508 H   0  0  0  0  0  0  0  0  0  0  0  0
   -0.7773   -1.8029   -2.1081 H   0  0  0  0  0  0  0  0  0  0  0  0
   -1.8296   -3.0423   -0.6874 C   0  0  0  0  0  0  0  0  0  0  0  0
   -1.1597   -3.2163    0.1612 H   0  0  0  0  0  0  0  0  0  0  0  0
   -2.8571   -2.9974   -0.3147 H   0  0  0  0  0  0  0  0  0  0  0  0
   -1.7057   -4.1788   -1.6093 N   0  3  0  0  0  0  0  0  0  0  0  0
   -1.7340   -3.9955   -2.6111 H   0  0  0  0  0  0  0  0  0  0  0  0
   -1.6512   -5.3986   -1.1553 C   0  0  0  0  0  0  0  0  0  0  0  0
   -1.6729   -5.6621    0.2002 N   0  0  0  0  0  0  0  0  0  0  0  0
   -1.8552   -4.8855    0.8454 H   0  0  0  0  0  0  0  0  0  0  0  0
   -1.8697   -6.6067    0.5211 H   0  0  0  0  0  0  0  0  0  0  0  0
   -1.5745   -6.4523   -2.0345 N   0  0  0  0  0  0  0  0  0  0  0  0
   -1.3676   -6.2568   -3.0118 H   0  0  0  0  0  0  0  0  0  0  0  0
   -1.3214   -7.3678   -1.6678 H   0  0  0  0  0  0  0  0  0  0  0  0
   -1.3942    0.8165    1.6407 C   0  0  0  0  0  0  0  0  0  0  0  0
   -2.3395    1.5330    1.3342 O   0  0  0  0  0  0  0  0  0  0  0  0
   -0.3736    1.3264    2.4217 N   0  0  0  0  0  0  0  0  0  0  0  0
    0.3742    0.6989    2.7045 H   0  0  0  0  0  0  0  0  0  0  0  0
   -0.3405    2.7103    2.8849 C   0  0  0  0  0  0  0  0  0  0  0  0
   -1.2129    2.9275    3.5105 H   0  0  0  0  0  0  0  0  0  0  0  0
    0.5621    2.8912    3.4770 H   0  0  0  0  0  0  0  0  0  0  0  0
   -0.3384    3.4001    2.0341 H   0  0  0  0  0  0  0  0  0  0  0  0
  1  2  1  0  0  0  0
  2  3  1  0  0  0  0
  2  4  1  0  0  0  0
  2  5  1  0  0  0  0
  5  6  2  0  0  0  0
  5  7  1  0  0  0  0
  7  8  1  0  0  0  0
  7  9  1  0  0  0  0
  9 10  1  0  0  0  0
  9 11  1  0  0  0  0
  9 29  1  0  0  0  0
 11 12  1  0  0  0  0
 11 13  1  0  0  0  0
 11 14  1  0  0  0  0
 14 15  1  0  0  0  0
 14 16  1  0  0  0  0
 14 17  1  0  0  0  0
 17 18  1  0  0  0  0
 17 19  1  0  0  0  0
 17 20  1  0  0  0  0
 20 21  1  0  0  0  0
 20 22  2  0  0  0  0
 22 23  1  0  0  0  0
 22 26  1  0  0  0  0
 23 24  1  0  0  0  0
 23 25  1  0  0  0  0
 26 27  1  0  0  0  0
 26 28  1  0  0  0  0
 29 30  2  0  0  0  0
 29 31  1  0  0  0  0
 31 32  1  0  0  0  0
 31 33  1  0  0  0  0
 33 34  1  0  0  0  0
 33 35  1  0  0  0  0
 33 36  1  0  0  0  0
M  CHG  1  20   1
M  END
$$$$

  -OEChem-03222214013D

 36 35  0     1  0  0  0  0  0999 V2000
   -4.0538   -4.1222    2.8961 H   0  0  0  0  0  0  0  0  0  0  0  0
   -4.0707   -3.1597    2.3773 C   0  0  0  0  0  0  0  0  0  0  0  0
   -4.5089   -2.4131    3.0454 H   0  0  0  0  0  0  0  0  0  0  0  0
   -4.6959   -3.2457    1.4859 H   0  0  0  0  0  0  0  0  0  0  0  0
   -2.6637   -2.7405    1.9953 C   0  0  0  0  0  0  0  0  0  0  0  0
   -1.7241   -3.4746    2.2599 O   0  0  0  0  0  0  0  0  0  0  0  0
   -2.4823   -1.5572    1.3115 N   0  0  0  0  0  0  0  0  0  0  0  0
   -3.3272   -0.9963    1.1809 H   0  0  0  0  0  0  0  0  0  0  0  0
   -1.2375   -0.7689    1.2595 C   0  0  1  0  0  0  0  0  0  0  0  0
   -0.6090   -1.0795    2.1017 H   0  0  0  0  0  0  0  0  0  0  0  0
   -0.3529   -0.8085   -0.0313 C   0  0  0  0  0  0  0  0  0  0  0  0
   -0.4274    0.1619   -0.5366 H   0  0  0  0  0  0  0  0  0  0  0  0
    0.6783   -0.8774    0.3318 H   0  0  0  0  0  0  0  0  0  0  0  0
   -0.4812   -1.8643   -1.1560 C   0  0  0  0  0  0  0  0  0  0  0  0
   -1.1604   -1.4665   -1.9172 H   0  0  0  0  0  0  0  0  0  0  0  0
    0.4999   -1.9595   -1.6344 H   0  0  0  0  0  0  0  0  0  0  0  0
   -0.9531   -3.2604   -0.7648 C   0  0  0  0  0  0  0  0  0  0  0  0
   -0.8037   -3.3880    0.3071 H   0  0  0  0  0  0  0  0  0  0  0  0
   -0.3035   -3.9849   -1.2682 H   0  0  0  0  0  0  0  0  0  0  0  0
   -2.3449   -3.5476   -1.1594 N   0  3  0  0  0  0  0  0  0  0  0  0
   -2.7761   -2.9259   -1.8417 H   0  0  0  0  0  0  0  0  0  0  0  0
   -2.9574   -4.6344   -0.7871 C   0  0  0  0  0  0  0  0  0  0  0  0
   -2.4106   -5.4794    0.1527 N   0  0  0  0  0  0  0  0  0  0  0  0
   -1.7125   -5.0655    0.7777 H   0  0  0  0  0  0  0  0  0  0  0  0
   -3.0013   -6.2083    0.5448 H   0  0  0  0  0  0  0  0  0  0  0  0
   -4.1806   -4.9487   -1.3285 N   0  0  0  0  0  0  0  0  0  0  0  0
   -4.4833   -4.4407   -2.1576 H   0  0  0  0  0  0  0  0  0  0  0  0
   -4.5247   -5.8997   -1.2080 H   0  0  0  0  0  0  0  0  0  0  0  0
   -1.6339    0.7083    1.4821 C   0  0  0  0  0  0  0  0  0  0  0  0
   -2.6664    1.1289    0.9718 O   0  0  0  0  0  0  0  0  0  0  0  0
   -0.9139    1.5159    2.3424 N   0  0  0  0  0  0  0  0  0  0  0  0
   -0.0861    1.1258    2.7855 H   0  0  0  0  0  0  0  0  0  0  0  0
   -1.2902    2.8918    2.6520 C   0  0  0  0  0  0  0  0  0  0  0  0
   -2.2676    2.9214    3.1452 H   0  0  0  0  0  0  0  0  0  0  0  0
   -0.5524    3.3454    3.3212 H   0  0  0  0  0  0  0  0  0  0  0  0
   -1.3397    3.4925    1.7376 H   0  0  0  0  0  0  0  0  0  0  0  0
  1  2  1  0  0  0  0
  2  3  1  0  0  0  0
  2  4  1  0  0  0  0
  2  5  1  0  0  0  0
  5  6  2  0  0  0  0
  5  7  1  0  0  0  0
  7  8  1  0  0  0  0
  7  9  1  0  0  0  0
  9 10  1  0  0  0  0
  9 11  1  0  0  0  0
  9 29  1  0  0  0  0
 11 12  1  0  0  0  0
 11 13  1  0  0  0  0
 11 14  1  0  0  0  0
 14 15  1  0  0  0  0
 14 16  1  0  0  0  0
 14 17  1  0  0  0  0
 17 18  1  0  0  0  0
 17 19  1  0  0  0  0
 17 20  1  0  0  0  0
 20 21  1  0  0  0  0
 20 22  2  0  0  0  0
 22 23  1  0  0  0  0
 22 26  1  0  0  0  0
 23 24  1  0  0  0  0
 23 25  1  0  0  0  0
 26 27  1  0  0  0  0
 26 28  1  0  0  0  0
 29 30  2  0  0  0  0
 29 31  1  0  0  0  0
 31 32  1  0  0  0  0
 31 33  1  0  0  0  0
 33 34  1  0  0  0  0
 33 35  1  0  0  0  0
 33 36  1  0  0  0  0
M  CHG  1  20   1
M  END
$$$$

  -OEChem-03222214013D

 36 35  0     1  0  0  0  0  0999 V2000
   -4.9423   -3.2170    3.1664 H   0  0  0  0  0  0  0  0  0  0  0  0
   -4.7673   -2.2555    2.6757 C   0  0  0  0  0  0  0  0  0  0  0  0
   -4.9626   -1.4562    3.3956 H   0  0  0  0  0  0  0  0  0  0  0  0
   -5.4600   -2.1542    1.8368 H   0  0  0  0  0  0  0  0  0  0  0  0
   -3.3354   -2.1674    2.1843 C   0  0  0  0  0  0  0  0  0  0  0  0
   -2.5954   -3.1371    2.2971 O   0  0  0  0  0  0  0  0  0  0  0  0
   -2.9091   -1.0221    1.5378 N   0  0  0  0  0  0  0  0  0  0  0  0
   -3.5796   -0.2500    1.5219 H   0  0  0  0  0  0  0  0  0  0  0  0
   -1.5054   -0.6118    1.3239 C   0  0  1  0  0  0  0  0  0  0  0  0
   -0.8932   -1.1568    2.0510 H   0  0  0  0  0  0  0  0  0  0  0  0
   -0.8384   -0.8114   -0.0851 C   0  0  0  0  0  0  0  0  0  0  0  0
   -0.7122    0.1751   -0.5468 H   0  0  0  0  0  0  0  0  0  0  0  0
    0.1736   -1.1776    0.1172 H   0  0  0  0  0  0  0  0  0  0  0  0
   -1.4191   -1.7173   -1.2041 C   0  0  0  0  0  0  0  0  0  0  0  0
   -1.8510   -1.0803   -1.9836 H   0  0  0  0  0  0  0  0  0  0  0  0
   -0.5873   -2.2670   -1.6577 H   0  0  0  0  0  0  0  0  0  0  0  0
   -2.4856   -2.6943   -0.7565 C   0  0  0  0  0  0  0  0  0  0  0  0
   -2.1657   -3.0586    0.2156 H   0  0  0  0  0  0  0  0  0  0  0  0
   -3.4425   -2.1733   -0.6440 H   0  0  0  0  0  0  0  0  0  0  0  0
   -2.6267   -3.8559   -1.6468 N   0  3  0  0  0  0  0  0  0  0  0  0
   -2.5921   -3.6909   -2.6516 H   0  0  0  0  0  0  0  0  0  0  0  0
   -2.7820   -5.0644   -1.1829 C   0  0  0  0  0  0  0  0  0  0  0  0
   -2.8338   -5.3298    0.1711 N   0  0  0  0  0  0  0  0  0  0  0  0
   -2.6158   -4.5728    0.8277 H   0  0  0  0  0  0  0  0  0  0  0  0
   -2.6992   -6.2855    0.4917 H   0  0  0  0  0  0  0  0  0  0  0  0
   -2.8982   -6.1163   -2.0598 N   0  0  0  0  0  0  0  0  0  0  0  0
   -3.0480   -5.9170   -3.0468 H   0  0  0  0  0  0  0  0  0  0  0  0
   -3.2177   -7.0134   -1.6990 H   0  0  0  0  0  0  0  0  0  0  0  0
   -1.4059    0.8901    1.6737 C   0  0  0  0  0  0  0  0  0  0  0  0
   -2.3145    1.6398    1.3366 O   0  0  0  0  0  0  0  0  0  0  0  0
   -0.3645    1.3771    2.4416 N   0  0  0  0  0  0  0  0  0  0  0  0
    0.3540    0.7250    2.7442 H   0  0  0  0  0  0  0  0  0  0  0  0
   -0.2610    2.7741    2.8515 C   0  0  0  0  0  0  0  0  0  0  0  0
   -1.1276    3.0626    3.4556 H   0  0  0  0  0  0  0  0  0  0  0  0
    0.6425    2.9286    3.4497 H   0  0  0  0  0  0  0  0  0  0  0  0
   -0.2100    3.4294    1.9753 H   0  0  0  0  0  0  0  0  0  0  0  0
  1  2  1  0  0  0  0
  2  3  1  0  0  0  0
  2  4  1  0  0  0  0
  2  5  1  0  0  0  0
  5  6  2  0  0  0  0
  5  7  1  0  0  0  0
  7  8  1  0  0  0  0
  7  9  1  0  0  0  0
  9 10  1  0  0  0  0
  9 11  1  0  0  0  0
  9 29  1  0  0  0  0
 11 12  1  0  0  0  0
 11 13  1  0  0  0  0
 11 14  1  0  0  0  0
 14 15  1  0  0  0  0
 14 16  1  0  0  0  0
 14 17  1  0  0  0  0
 17 18  1  0  0  0  0
 17 19  1  0  0  0  0
 17 20  1  0  0  0  0
 20 21  1  0  0  0  0
 20 22  2  0  0  0  0
 22 23  1  0  0  0  0
 22 26  1  0  0  0  0
 23 24  1  0  0  0  0
 23 25  1  0  0  0  0
 26 27  1  0  0  0  0
 26 28  1  0  0  0  0
 29 30  2  0  0  0  0
 29 31  1  0  0  0  0
 31 32  1  0  0  0  0
 31 33  1  0  0  0  0
 33 34  1  0  0  0  0
 33 35  1  0  0  0  0
 33 36  1  0  0  0  0
M  CHG  1  20   1
M  END
$$$$

  -OEChem-03222214013D

 36 35  0     1  0  0  0  0  0999 V2000
   -4.8281   -3.1261    3.4436 H   0  0  0  0  0  0  0  0  0  0  0  0
   -4.6798   -2.1488    2.9757 C   0  0  0  0  0  0  0  0  0  0  0  0
   -4.7232   -1.3806    3.7523 H   0  0  0  0  0  0  0  0  0  0  0  0
   -5.4849   -1.9734    2.2579 H   0  0  0  0  0  0  0  0  0  0  0  0
   -3.3360   -2.0991    2.2749 C   0  0  0  0  0  0  0  0  0  0  0  0
   -2.6579   -3.1152    2.1718 O   0  0  0  0  0  0  0  0  0  0  0  0
   -2.9324   -0.9375    1.6447 N   0  0  0  0  0  0  0  0  0  0  0  0
   -3.5334   -0.1220    1.7864 H   0  0  0  0  0  0  0  0  0  0  0  0
   -1.5343   -0.6166    1.2998 C   0  0  1  0  0  0  0  0  0  0  0  0
   -0.8936   -1.2399    1.9331 H   0  0  0  0  0  0  0  0  0  0  0  0
   -1.0276   -0.7997   -0.1727 C   0  0  0  0  0  0  0  0  0  0  0  0
   -0.9099    0.2038   -0.5982 H   0  0  0  0  0  0  0  0  0  0  0  0
   -0.0147   -1.2102   -0.0988 H   0  0  0  0  0  0  0  0  0  0  0  0
   -1.7640   -1.6082   -1.2777 C   0  0  0  0  0  0  0  0  0  0  0  0
   -1.9409   -0.9470   -2.1333 H   0  0  0  0  0  0  0  0  0  0  0  0
   -1.0666   -2.3826   -1.6154 H   0  0  0  0  0  0  0  0  0  0  0  0
   -3.0823   -2.2833   -0.9269 C   0  0  0  0  0  0  0  0  0  0  0  0
   -3.0180   -2.6640    0.0825 H   0  0  0  0  0  0  0  0  0  0  0  0
   -3.8950   -1.5494   -0.9619 H   0  0  0  0  0  0  0  0  0  0  0  0
   -3.3571   -3.4193   -1.8229 N   0  3  0  0  0  0  0  0  0  0  0  0
   -3.5488   -3.2081   -2.8011 H   0  0  0  0  0  0  0  0  0  0  0  0
   -3.3379   -4.6589   -1.4176 C   0  0  0  0  0  0  0  0  0  0  0  0
   -3.0690   -5.0090   -0.1100 N   0  0  0  0  0  0  0  0  0  0  0  0
   -2.7789   -4.2831    0.5544 H   0  0  0  0  0  0  0  0  0  0  0  0
   -2.8395   -5.9746    0.1109 H   0  0  0  0  0  0  0  0  0  0  0  0
   -3.5898   -5.6643   -2.3204 N   0  0  0  0  0  0  0  0  0  0  0  0
   -3.9708   -5.4192   -3.2319 H   0  0  0  0  0  0  0  0  0  0  0  0
   -3.7715   -6.6002   -1.9626 H   0  0  0  0  0  0  0  0  0  0  0  0
   -1.2811    0.8514    1.7130 C   0  0  0  0  0  0  0  0  0  0  0  0
   -2.1642    1.6808    1.5300 O   0  0  0  0  0  0  0  0  0  0  0  0
   -0.1292    1.2159    2.3853 N   0  0  0  0  0  0  0  0  0  0  0  0
    0.5685    0.4992    2.5658 H   0  0  0  0  0  0  0  0  0  0  0  0
    0.1151    2.5700    2.8727 C   0  0  0  0  0  0  0  0  0  0  0  0
   -0.6535    2.8622    3.5963 H   0  0  0  0  0  0  0  0  0  0  0  0
    1.0907    2.6267    3.3654 H   0  0  0  0  0  0  0  0  0  0  0  0
    0.1060    3.2849    2.0429 H   0  0  0  0  0  0  0  0  0  0  0  0
  1  2  1  0  0  0  0
  2  3  1  0  0  0  0
  2  4  1  0  0  0  0
  2  5  1  0  0  0  0
  5  6  2  0  0  0  0
  5  7  1  0  0  0  0
  7  8  1  0  0  0  0
  7  9  1  0  0  0  0
  9 10  1  0  0  0  0
  9 11  1  0  0  0  0
  9 29  1  0  0  0  0
 11 12  1  0  0  0  0
 11 13  1  0  0  0  0
 11 14  1  0  0  0  0
 14 15  1  0  0  0  0
 14 16  1  0  0  0  0
 14 17  1  0  0  0  0
 17 18  1  0  0  0  0
 17 19  1  0  0  0  0
 17 20  1  0  0  0  0
 20 21  1  0  0  0  0
 20 22  2  0  0  0  0
 22 23  1  0  0  0  0
 22 26  1  0  0  0  0
 23 24  1  0  0  0  0
 23 25  1  0  0  0  0
 26 27  1  0  0  0  0
 26 28  1  0  0  0  0
 29 30  2  0  0  0  0
 29 31  1  0  0  0  0
 31 32  1  0  0  0  0
 31 33  1  0  0  0  0
 33 34  1  0  0  0  0
 33 35  1  0  0  0  0
 33 36  1  0  0  0  0
M  CHG  1  20   1
M  END
$$$$

  -OEChem-03222214013D

 36 35  0     1  0  0  0  0  0999 V2000
   -2.4103   -3.2456    4.2427 H   0  0  0  0  0  0  0  0  0  0  0  0
   -2.2673   -3.8350    3.3336 C   0  0  0  0  0  0  0  0  0  0  0  0
   -3.2421   -4.1480    2.9534 H   0  0  0  0  0  0  0  0  0  0  0  0
   -1.6823   -4.7249    3.5832 H   0  0  0  0  0  0  0  0  0  0  0  0
   -1.5407   -3.0103    2.2890 C   0  0  0  0  0  0  0  0  0  0  0  0
   -0.5604   -3.4634    1.7218 O   0  0  0  0  0  0  0  0  0  0  0  0
   -2.0338   -1.7765    1.9117 N   0  0  0  0  0  0  0  0  0  0  0  0
   -2.8002   -1.4131    2.4802 H   0  0  0  0  0  0  0  0  0  0  0  0
   -1.2062   -0.7519    1.2516 C   0  0  1  0  0  0  0  0  0  0  0  0
   -0.1572   -0.9873    1.4642 H   0  0  0  0  0  0  0  0  0  0  0  0
   -1.3175   -0.5791   -0.2983 C   0  0  0  0  0  0  0  0  0  0  0  0
   -1.8783    0.3471   -0.4693 H   0  0  0  0  0  0  0  0  0  0  0  0
   -0.3066   -0.3909   -0.6762 H   0  0  0  0  0  0  0  0  0  0  0  0
   -1.9799   -1.6186   -1.2425 C   0  0  0  0  0  0  0  0  0  0  0  0
   -2.5601   -1.0656   -1.9889 H   0  0  0  0  0  0  0  0  0  0  0  0
   -1.1753   -2.1315   -1.7811 H   0  0  0  0  0  0  0  0  0  0  0  0
   -2.8614   -2.7018   -0.6276 C   0  0  0  0  0  0  0  0  0  0  0  0
   -2.2278   -3.4106   -0.0844 H   0  0  0  0  0  0  0  0  0  0  0  0
   -3.5522   -2.2532    0.0930 H   0  0  0  0  0  0  0  0  0  0  0  0
   -3.6119   -3.4174   -1.6758 N   0  3  0  0  0  0  0  0  0  0  0  0
   -3.1320   -4.1899   -2.1371 H   0  0  0  0  0  0  0  0  0  0  0  0
   -4.8374   -3.1308   -2.0106 C   0  0  0  0  0  0  0  0  0  0  0  0
   -5.5223   -2.0862   -1.4303 N   0  0  0  0  0  0  0  0  0  0  0  0
   -4.9931   -1.4347   -0.8527 H   0  0  0  0  0  0  0  0  0  0  0  0
   -6.3705   -1.7470   -1.8793 H   0  0  0  0  0  0  0  0  0  0  0  0
   -5.4701   -3.8796   -2.9738 N   0  0  0  0  0  0  0  0  0  0  0  0
   -5.0416   -4.7538   -3.2723 H   0  0  0  0  0  0  0  0  0  0  0  0
   -6.4784   -3.7832   -3.0779 H   0  0  0  0  0  0  0  0  0  0  0  0
   -1.4997    0.6024    1.9311 C   0  0  0  0  0  0  0  0  0  0  0  0
   -2.6631    0.8854    2.1969 O   0  0  0  0  0  0  0  0  0  0  0  0
   -0.4803    1.4665    2.2839 N   0  0  0  0  0  0  0  0  0  0  0  0
    0.4772    1.1784    2.0976 H   0  0  0  0  0  0  0  0  0  0  0  0
   -0.7102    2.7334    2.9712 C   0  0  0  0  0  0  0  0  0  0  0  0
   -1.1803    2.5625    3.9455 H   0  0  0  0  0  0  0  0  0  0  0  0
    0.2381    3.2552    3.1333 H   0  0  0  0  0  0  0  0  0  0  0  0
   -1.3621    3.3809    2.3752 H   0  0  0  0  0  0  0  0  0  0  0  0
  1  2  1  0  0  0  0
  2  3  1  0  0  0  0
  2  4  1  0  0  0  0
  2  5  1  0  0  0  0
  5  6  2  0  0  0  0
  5  7  1  0  0  0  0
  7  8  1  0  0  0  0
  7  9  1  0  0  0  0
  9 10  1  0  0  0  0
  9 11  1  0  0  0  0
  9 29  1  0  0  0  0
 11 12  1  0  0  0  0
 11 13  1  0  0  0  0
 11 14  1  0  0  0  0
 14 15  1  0  0  0  0
 14 16  1  0  0  0  0
 14 17  1  0  0  0  0
 17 18  1  0  0  0  0
 17 19  1  0  0  0  0
 17 20  1  0  0  0  0
 20 21  1  0  0  0  0
 20 22  2  0  0  0  0
 22 23  1  0  0  0  0
 22 26  1  0  0  0  0
 23 24  1  0  0  0  0
 23 25  1  0  0  0  0
 26 27  1  0  0  0  0
 26 28  1  0  0  0  0
 29 30  2  0  0  0  0
 29 31  1  0  0  0  0
 31 32  1  0  0  0  0
 31 33  1  0  0  0  0
 33 34  1  0  0  0  0
 33 35  1  0  0  0  0
 33 36  1  0  0  0  0
M  CHG  1  20   1
M  END
$$$$

  -OEChem-03222214013D

 36 35  0     1  0  0  0  0  0999 V2000
   -2.8530   -4.1645    4.0393 H   0  0  0  0  0  0  0  0  0  0  0  0
   -3.2255   -3.2327    3.6040 C   0  0  0  0  0  0  0  0  0  0  0  0
   -3.3940   -2.5139    4.4100 H   0  0  0  0  0  0  0  0  0  0  0  0
   -4.1736   -3.4329    3.1001 H   0  0  0  0  0  0  0  0  0  0  0  0
   -2.2160   -2.6774    2.6180 C   0  0  0  0  0  0  0  0  0  0  0  0
   -1.2019   -3.3027    2.3562 O   0  0  0  0  0  0  0  0  0  0  0  0
   -2.4758   -1.4984    1.9475 N   0  0  0  0  0  0  0  0  0  0  0  0
   -3.2995   -0.9842    2.2631 H   0  0  0  0  0  0  0  0  0  0  0  0
   -1.4107   -0.6678    1.3604 C   0  0  1  0  0  0  0  0  0  0  0  0
   -0.4745   -0.9366    1.8631 H   0  0  0  0  0  0  0  0  0  0  0  0
   -1.1364   -0.7962   -0.1703 C   0  0  0  0  0  0  0  0  0  0  0  0
   -1.5533    0.1038   -0.6362 H   0  0  0  0  0  0  0  0  0  0  0  0
   -0.0528   -0.7429   -0.3202 H   0  0  0  0  0  0  0  0  0  0  0  0
   -1.6752   -1.9694   -1.0271 C   0  0  0  0  0  0  0  0  0  0  0  0
   -1.7535   -1.6170   -2.0610 H   0  0  0  0  0  0  0  0  0  0  0  0
   -0.9186   -2.7618   -1.0135 H   0  0  0  0  0  0  0  0  0  0  0  0
   -2.9967   -2.6098   -0.6049 C   0  0  0  0  0  0  0  0  0  0  0  0
   -2.8249   -3.2409    0.2725 H   0  0  0  0  0  0  0  0  0  0  0  0
   -3.7134   -1.8330   -0.3189 H   0  0  0  0  0  0  0  0  0  0  0  0
   -3.5355   -3.4363   -1.7011 N   0  3  0  0  0  0  0  0  0  0  0  0
   -3.1612   -4.3807   -1.7892 H   0  0  0  0  0  0  0  0  0  0  0  0
   -4.4402   -3.0250   -2.5423 C   0  0  0  0  0  0  0  0  0  0  0  0
   -4.9569   -1.7500   -2.4874 N   0  0  0  0  0  0  0  0  0  0  0  0
   -4.5000   -1.0781   -1.8728 H   0  0  0  0  0  0  0  0  0  0  0  0
   -5.4685   -1.3933   -3.2918 H   0  0  0  0  0  0  0  0  0  0  0  0
   -4.8897   -3.8769   -3.5225 N   0  0  0  0  0  0  0  0  0  0  0  0
   -4.6481   -4.8641   -3.4583 H   0  0  0  0  0  0  0  0  0  0  0  0
   -5.7339   -3.6247   -4.0333 H   0  0  0  0  0  0  0  0  0  0  0  0
   -1.6833    0.8077    1.7192 C   0  0  0  0  0  0  0  0  0  0  0  0
   -2.8321    1.2283    1.6386 O   0  0  0  0  0  0  0  0  0  0  0  0
   -0.6722    1.6377    2.1659 N   0  0  0  0  0  0  0  0  0  0  0  0
    0.2584    1.2415    2.2730 H   0  0  0  0  0  0  0  0  0  0  0  0
   -0.8959    3.0205    2.5762 C   0  0  0  0  0  0  0  0  0  0  0  0
   -1.5813    3.0620    3.4295 H   0  0  0  0  0  0  0  0  0  0  0  0
    0.0494    3.4874    2.8703 H   0  0  0  0  0  0  0  0  0  0  0  0
   -1.3244    3.6017    1.7527 H   0  0  0  0  0  0  0  0  0  0  0  0
  1  2  1  0  0  0  0
  2  3  1  0  0  0  0
  2  4  1  0  0  0  0
  2  5  1  0  0  0  0
  5  6  2  0  0  0  0
  5  7  1  0  0  0  0
  7  8  1  0  0  0  0
  7  9  1  0  0  0  0
  9 10  1  0  0  0  0
  9 11  1  0  0  0  0
  9 29  1  0  0  0  0
 11 12  1  0  0  0  0
 11 13  1  0  0  0  0
 11 14  1  0  0  0  0
 14 15  1  0  0  0  0
 14 16  1  0  0  0  0
 14 17  1  0  0  0  0
 17 18  1  0  0  0  0
 17 19  1  0  0  0  0
 17 20  1  0  0  0  0
 20 21  1  0  0  0  0
 20 22  2  0  0  0  0
 22 23  1  0  0  0  0
 22 26  1  0  0  0  0
 23 24  1  0  0  0  0
 23 25  1  0  0  0  0
 26 27  1  0  0  0  0
 26 28  1  0  0  0  0
 29 30  2  0  0  0  0
 29 31  1  0  0  0  0
 31 32  1  0  0  0  0
 31 33  1  0  0  0  0
 33 34  1  0  0  0  0
 33 35  1  0  0  0  0
 33 36  1  0  0  0  0
M  CHG  1  20   1
M  END
$$$$

  -OEChem-03222214013D

 36 35  0     1  0  0  0  0  0999 V2000
   -3.0429   -4.1641    3.8693 H   0  0  0  0  0  0  0  0  0  0  0  0
   -3.3945   -3.2409    3.3996 C   0  0  0  0  0  0  0  0  0  0  0  0
   -3.6395   -2.5212    4.1848 H   0  0  0  0  0  0  0  0  0  0  0  0
   -4.2948   -3.4605    2.8213 H   0  0  0  0  0  0  0  0  0  0  0  0
   -2.3172   -2.6740    2.4952 C   0  0  0  0  0  0  0  0  0  0  0  0
   -1.2937   -3.3042    2.2884 O   0  0  0  0  0  0  0  0  0  0  0  0
   -2.5219   -1.4783    1.8354 N   0  0  0  0  0  0  0  0  0  0  0  0
   -3.3543   -0.9569    2.1133 H   0  0  0  0  0  0  0  0  0  0  0  0
   -1.4165   -0.6610    1.3076 C   0  0  1  0  0  0  0  0  0  0  0  0
   -0.5037   -0.9579    1.8369 H   0  0  0  0  0  0  0  0  0  0  0  0
   -1.1061   -0.7860   -0.2135 C   0  0  0  0  0  0  0  0  0  0  0  0
   -1.4707    0.1272   -0.6968 H   0  0  0  0  0  0  0  0  0  0  0  0
   -0.0173   -0.7861   -0.3323 H   0  0  0  0  0  0  0  0  0  0  0  0
   -1.6750   -1.9550   -1.0493 C   0  0  0  0  0  0  0  0  0  0  0  0
   -1.5038   -1.7231   -2.1057 H   0  0  0  0  0  0  0  0  0  0  0  0
   -1.0978   -2.8566   -0.8149 H   0  0  0  0  0  0  0  0  0  0  0  0
   -3.1549   -2.2746   -0.8263 C   0  0  0  0  0  0  0  0  0  0  0  0
   -3.2668   -2.8530    0.0956 H   0  0  0  0  0  0  0  0  0  0  0  0
   -3.7176   -1.3438   -0.7011 H   0  0  0  0  0  0  0  0  0  0  0  0
   -3.6843   -3.0591   -1.9575 N   0  3  0  0  0  0  0  0  0  0  0  0
   -3.4203   -4.0433   -1.9951 H   0  0  0  0  0  0  0  0  0  0  0  0
   -4.4557   -2.5677   -2.8846 C   0  0  0  0  0  0  0  0  0  0  0  0
   -4.8231   -1.2410   -2.8975 N   0  0  0  0  0  0  0  0  0  0  0  0
   -4.3510   -0.6091   -2.2530 H   0  0  0  0  0  0  0  0  0  0  0  0
   -5.2200   -0.8493   -3.7489 H   0  0  0  0  0  0  0  0  0  0  0  0
   -4.9160   -3.3872   -3.8874 N   0  0  0  0  0  0  0  0  0  0  0  0
   -4.7971   -4.3938   -3.7892 H   0  0  0  0  0  0  0  0  0  0  0  0
   -5.6759   -3.0521   -4.4768 H   0  0  0  0  0  0  0  0  0  0  0  0
   -1.6681    0.8152    1.6770 C   0  0  0  0  0  0  0  0  0  0  0  0
   -2.8003    1.2668    1.5426 O   0  0  0  0  0  0  0  0  0  0  0  0
   -0.6581    1.6150    2.1777 N   0  0  0  0  0  0  0  0  0  0  0  0
    0.2545    1.1922    2.3285 H   0  0  0  0  0  0  0  0  0  0  0  0
   -0.8682    2.9954    2.6028 C   0  0  0  0  0  0  0  0  0  0  0  0
   -1.5571    3.0346    3.4535 H   0  0  0  0  0  0  0  0  0  0  0  0
    0.0812    3.4485    2.9058 H   0  0  0  0  0  0  0  0  0  0  0  0
   -1.2862    3.5912    1.7843 H   0  0  0  0  0  0  0  0  0  0  0  0
  1  2  1  0  0  0  0
  2  3  1  0  0  0  0
  2  4  1  0  0  0  0
  2  5  1  0  0  0  0
  5  6  2  0  0  0  0
  5  7  1  0  0  0  0
  7  8  1  0  0  0  0
  7  9  1  0  0  0  0
  9 10  1  0  0  0  0
  9 11  1  0  0  0  0
  9 29  1  0  0  0  0
 11 12  1  0  0  0  0
 11 13  1  0  0  0  0
 11 14  1  0  0  0  0
 14 15  1  0  0  0  0
 14 16  1  0  0  0  0
 14 17  1  0  0  0  0
 17 18  1  0  0  0  0
 17 19  1  0  0  0  0
 17 20  1  0  0  0  0
 20 21  1  0  0  0  0
 20 22  2  0  0  0  0
 22 23  1  0  0  0  0
 22 26  1  0  0  0  0
 23 24  1  0  0  0  0
 23 25  1  0  0  0  0
 26 27  1  0  0  0  0
 26 28  1  0  0  0  0
 29 30  2  0  0  0  0
 29 31  1  0  0  0  0
 31 32  1  0  0  0  0
 31 33  1  0  0  0  0
 33 34  1  0  0  0  0
 33 35  1  0  0  0  0
 33 36  1  0  0  0  0
M  CHG  1  20   1
M  END
$$$$

  -OEChem-03222214013D

 36 35  0     1  0  0  0  0  0999 V2000
   -3.6770   -4.0855    3.2289 H   0  0  0  0  0  0  0  0  0  0  0  0
   -3.8605   -3.0979    2.7954 C   0  0  0  0  0  0  0  0  0  0  0  0
   -4.1549   -2.4148    3.5961 H   0  0  0  0  0  0  0  0  0  0  0  0
   -4.6763   -3.1756    2.0734 H   0  0  0  0  0  0  0  0  0  0  0  0
   -2.6062   -2.5865    2.1131 C   0  0  0  0  0  0  0  0  0  0  0  0
   -1.6278   -3.3069    2.0073 O   0  0  0  0  0  0  0  0  0  0  0  0
   -2.5922   -1.3320    1.5376 N   0  0  0  0  0  0  0  0  0  0  0  0
   -3.3999   -0.7432    1.7433 H   0  0  0  0  0  0  0  0  0  0  0  0
   -1.3488   -0.6005    1.2430 C   0  0  1  0  0  0  0  0  0  0  0  0
   -0.5557   -1.0297    1.8661 H   0  0  0  0  0  0  0  0  0  0  0  0
   -0.8460   -0.6691   -0.2260 C   0  0  0  0  0  0  0  0  0  0  0  0
   -1.0295    0.3027   -0.6982 H   0  0  0  0  0  0  0  0  0  0  0  0
    0.2406   -0.8042   -0.1989 H   0  0  0  0  0  0  0  0  0  0  0  0
   -1.4364   -1.7370   -1.1689 C   0  0  0  0  0  0  0  0  0  0  0  0
   -0.9357   -1.6436   -2.1385 H   0  0  0  0  0  0  0  0  0  0  0  0
   -1.1996   -2.7281   -0.7658 H   0  0  0  0  0  0  0  0  0  0  0  0
   -2.9501   -1.6251   -1.3719 C   0  0  0  0  0  0  0  0  0  0  0  0
   -3.4767   -1.8831   -0.4502 H   0  0  0  0  0  0  0  0  0  0  0  0
   -3.1928   -0.5891   -1.6300 H   0  0  0  0  0  0  0  0  0  0  0  0
   -3.3766   -2.5375   -2.4478 N   0  3  0  0  0  0  0  0  0  0  0  0
   -2.7686   -3.3307   -2.6483 H   0  0  0  0  0  0  0  0  0  0  0  0
   -4.4858   -2.3965   -3.1137 C   0  0  0  0  0  0  0  0  0  0  0  0
   -5.3493   -1.3516   -2.8735 N   0  0  0  0  0  0  0  0  0  0  0  0
   -5.0253   -0.5959   -2.2727 H   0  0  0  0  0  0  0  0  0  0  0  0
   -6.0647   -1.1393   -3.5658 H   0  0  0  0  0  0  0  0  0  0  0  0
   -4.8140   -3.3110   -4.0856 N   0  0  0  0  0  0  0  0  0  0  0  0
   -4.2757   -4.1729   -4.1488 H   0  0  0  0  0  0  0  0  0  0  0  0
   -5.7657   -3.3145   -4.4481 H   0  0  0  0  0  0  0  0  0  0  0  0
   -1.5041    0.8649    1.6967 C   0  0  0  0  0  0  0  0  0  0  0  0
   -2.5654    1.4372    1.4730 O   0  0  0  0  0  0  0  0  0  0  0  0
   -0.5035    1.5106    2.3987 N   0  0  0  0  0  0  0  0  0  0  0  0
    0.3445    0.9899    2.6085 H   0  0  0  0  0  0  0  0  0  0  0  0
   -0.6359    2.8704    2.9123 C   0  0  0  0  0  0  0  0  0  0  0  0
   -1.4798    2.9381    3.6073 H   0  0  0  0  0  0  0  0  0  0  0  0
    0.2734    3.1648    3.4457 H   0  0  0  0  0  0  0  0  0  0  0  0
   -0.7982    3.5777    2.0919 H   0  0  0  0  0  0  0  0  0  0  0  0
  1  2  1  0  0  0  0
  2  3  1  0  0  0  0
  2  4  1  0  0  0  0
  2  5  1  0  0  0  0
  5  6  2  0  0  0  0
  5  7  1  0  0  0  0
  7  8  1  0  0  0  0
  7  9  1  0  0  0  0
  9 10  1  0  0  0  0
  9 11  1  0  0  0  0
  9 29  1  0  0  0  0
 11 12  1  0  0  0  0
 11 13  1  0  0  0  0
 11 14  1  0  0  0  0
 14 15  1  0  0  0  0
 14 16  1  0  0  0  0
 14 17  1  0  0  0  0
 17 18  1  0  0  0  0
 17 19  1  0  0  0  0
 17 20  1  0  0  0  0
 20 21  1  0  0  0  0
 20 22  2  0  0  0  0
 22 23  1  0  0  0  0
 22 26  1  0  0  0  0
 23 24  1  0  0  0  0
 23 25  1  0  0  0  0
 26 27  1  0  0  0  0
 26 28  1  0  0  0  0
 29 30  2  0  0  0  0
 29 31  1  0  0  0  0
 31 32  1  0  0  0  0
 31 33  1  0  0  0  0
 33 34  1  0  0  0  0
 33 35  1  0  0  0  0
 33 36  1  0  0  0  0
M  CHG  1  20   1
M  END
$$$$

  -OEChem-03222214013D

 36 35  0     1  0  0  0  0  0999 V2000
   -3.9521   -4.1345    2.6636 H   0  0  0  0  0  0  0  0  0  0  0  0
   -4.0374   -3.0938    2.3376 C   0  0  0  0  0  0  0  0  0  0  0  0
   -4.3525   -2.4857    3.1894 H   0  0  0  0  0  0  0  0  0  0  0  0
   -4.7947   -3.0308    1.5532 H   0  0  0  0  0  0  0  0  0  0  0  0
   -2.7019   -2.5995    1.8159 C   0  0  0  0  0  0  0  0  0  0  0  0
   -1.7305   -3.3365    1.8231 O   0  0  0  0  0  0  0  0  0  0  0  0
   -2.5932   -1.3304    1.2836 N   0  0  0  0  0  0  0  0  0  0  0  0
   -3.4080   -0.7296    1.4103 H   0  0  0  0  0  0  0  0  0  0  0  0
   -1.3081   -0.6172    1.1574 C   0  0  1  0  0  0  0  0  0  0  0  0
   -0.5875   -1.0842    1.8386 H   0  0  0  0  0  0  0  0  0  0  0  0
   -0.6798   -0.6328   -0.2627 C   0  0  0  0  0  0  0  0  0  0  0  0
   -0.7658    0.3622   -0.7140 H   0  0  0  0  0  0  0  0  0  0  0  0
    0.3907   -0.8328   -0.1470 H   0  0  0  0  0  0  0  0  0  0  0  0
   -1.2523   -1.6556   -1.2568 C   0  0  0  0  0  0  0  0  0  0  0  0
   -0.5622   -1.7437   -2.1028 H   0  0  0  0  0  0  0  0  0  0  0  0
   -1.3170   -2.6397   -0.7802 H   0  0  0  0  0  0  0  0  0  0  0  0
   -2.6205   -1.2128   -1.7767 C   0  0  0  0  0  0  0  0  0  0  0  0
   -3.3099   -1.0852   -0.9369 H   0  0  0  0  0  0  0  0  0  0  0  0
   -2.5120   -0.2467   -2.2813 H   0  0  0  0  0  0  0  0  0  0  0  0
   -3.1503   -2.2202   -2.7117 N   0  3  0  0  0  0  0  0  0  0  0  0
   -2.5772   -3.0470   -2.8761 H   0  0  0  0  0  0  0  0  0  0  0  0
   -4.2958   -2.1008   -3.3169 C   0  0  0  0  0  0  0  0  0  0  0  0
   -5.0982   -0.9977   -3.1310 N   0  0  0  0  0  0  0  0  0  0  0  0
   -4.7005   -0.2015   -2.6353 H   0  0  0  0  0  0  0  0  0  0  0  0
   -5.8466   -0.8204   -3.7977 H   0  0  0  0  0  0  0  0  0  0  0  0
   -4.7226   -3.0939   -4.1656 N   0  0  0  0  0  0  0  0  0  0  0  0
   -4.2221   -3.9807   -4.1731 H   0  0  0  0  0  0  0  0  0  0  0  0
   -5.6950   -3.0906   -4.4683 H   0  0  0  0  0  0  0  0  0  0  0  0
   -1.4958    0.8360    1.6353 C   0  0  0  0  0  0  0  0  0  0  0  0
   -2.5119    1.4350    1.2985 O   0  0  0  0  0  0  0  0  0  0  0  0
   -0.5767    1.4432    2.4698 N   0  0  0  0  0  0  0  0  0  0  0  0
    0.2300    0.9000    2.7674 H   0  0  0  0  0  0  0  0  0  0  0  0
   -0.7438    2.7947    2.9939 C   0  0  0  0  0  0  0  0  0  0  0  0
   -1.6467    2.8578    3.6107 H   0  0  0  0  0  0  0  0  0  0  0  0
    0.1162    3.0717    3.6119 H   0  0  0  0  0  0  0  0  0  0  0  0
   -0.8252    3.5167    2.1743 H   0  0  0  0  0  0  0  0  0  0  0  0
  1  2  1  0  0  0  0
  2  3  1  0  0  0  0
  2  4  1  0  0  0  0
  2  5  1  0  0  0  0
  5  6  2  0  0  0  0
  5  7  1  0  0  0  0
  7  8  1  0  0  0  0
  7  9  1  0  0  0  0
  9 10  1  0  0  0  0
  9 11  1  0  0  0  0
  9 29  1  0  0  0  0
 11 12  1  0  0  0  0
 11 13  1  0  0  0  0
 11 14  1  0  0  0  0
 14 15  1  0  0  0  0
 14 16  1  0  0  0  0
 14 17  1  0  0  0  0
 17 18  1  0  0  0  0
 17 19  1  0  0  0  0
 17 20  1  0  0  0  0
 20 21  1  0  0  0  0
 20 22  2  0  0  0  0
 22 23  1  0  0  0  0
 22 26  1  0  0  0  0
 23 24  1  0  0  0  0
 23 25  1  0  0  0  0
 26 27  1  0  0  0  0
 26 28  1  0  0  0  0
 29 30  2  0  0  0  0
 29 31  1  0  0  0  0
 31 32  1  0  0  0  0
 31 33  1  0  0  0  0
 33 34  1  0  0  0  0
 33 35  1  0  0  0  0
 33 36  1  0  0  0  0
M  CHG  1  20   1
M  END
$$$$

  -OEChem-03222214013D

 36 35  0     1  0  0  0  0  0999 V2000
   -4.0747   -4.0975    2.5130 H   0  0  0  0  0  0  0  0  0  0  0  0
   -4.1329   -3.0867    2.0988 C   0  0  0  0  0  0  0  0  0  0  0  0
   -4.5751   -2.4264    2.8489 H   0  0  0  0  0  0  0  0  0  0  0  0
   -4.7738   -3.1039    1.2146 H   0  0  0  0  0  0  0  0  0  0  0  0
   -2.7470   -2.5944    1.7289 C   0  0  0  0  0  0  0  0  0  0  0  0
   -1.7802   -3.3246    1.8670 O   0  0  0  0  0  0  0  0  0  0  0  0
   -2.5835   -1.3374    1.1815 N   0  0  0  0  0  0  0  0  0  0  0  0
   -3.4055   -0.7339    1.2010 H   0  0  0  0  0  0  0  0  0  0  0  0
   -1.2858   -0.6367    1.1300 C   0  0  1  0  0  0  0  0  0  0  0  0
   -0.6065   -1.0977    1.8561 H   0  0  0  0  0  0  0  0  0  0  0  0
   -0.5941   -0.6707   -0.2589 C   0  0  0  0  0  0  0  0  0  0  0  0
   -0.6237    0.3233   -0.7204 H   0  0  0  0  0  0  0  0  0  0  0  0
    0.4630   -0.9001   -0.0864 H   0  0  0  0  0  0  0  0  0  0  0  0
   -1.1462   -1.7001   -1.2597 C   0  0  0  0  0  0  0  0  0  0  0  0
   -0.3393   -1.9880   -1.9419 H   0  0  0  0  0  0  0  0  0  0  0  0
   -1.4774   -2.6126   -0.7550 H   0  0  0  0  0  0  0  0  0  0  0  0
   -2.2679   -1.0620   -2.0753 C   0  0  0  0  0  0  0  0  0  0  0  0
   -3.0379   -0.6981   -1.3861 H   0  0  0  0  0  0  0  0  0  0  0  0
   -1.8674   -0.2059   -2.6296 H   0  0  0  0  0  0  0  0  0  0  0  0
   -2.8464   -2.0456   -3.0068 N   0  3  0  0  0  0  0  0  0  0  0  0
   -2.3274   -2.9114   -3.1494 H   0  0  0  0  0  0  0  0  0  0  0  0
   -3.9590   -1.8481   -3.6526 C   0  0  0  0  0  0  0  0  0  0  0  0
   -4.6808   -0.6845   -3.5101 N   0  0  0  0  0  0  0  0  0  0  0  0
   -4.2416    0.0882   -3.0123 H   0  0  0  0  0  0  0  0  0  0  0  0
   -5.3954   -0.4641   -4.2005 H   0  0  0  0  0  0  0  0  0  0  0  0
   -4.4326   -2.8191   -4.5024 N   0  0  0  0  0  0  0  0  0  0  0  0
   -4.0018   -3.7417   -4.4824 H   0  0  0  0  0  0  0  0  0  0  0  0
   -5.3898   -2.7449   -4.8421 H   0  0  0  0  0  0  0  0  0  0  0  0
   -1.4949    0.8271    1.5658 C   0  0  0  0  0  0  0  0  0  0  0  0
   -2.4701    1.4331    1.1332 O   0  0  0  0  0  0  0  0  0  0  0  0
   -0.6309    1.4444    2.4501 N   0  0  0  0  0  0  0  0  0  0  0  0
    0.1392    0.8960    2.8253 H   0  0  0  0  0  0  0  0  0  0  0  0
   -0.8178    2.8096    2.9306 C   0  0  0  0  0  0  0  0  0  0  0  0
   -1.7621    2.8984    3.4782 H   0  0  0  0  0  0  0  0  0  0  0  0
   -0.0010    3.0896    3.6035 H   0  0  0  0  0  0  0  0  0  0  0  0
   -0.8300    3.5147    2.0926 H   0  0  0  0  0  0  0  0  0  0  0  0
  1  2  1  0  0  0  0
  2  3  1  0  0  0  0
  2  4  1  0  0  0  0
  2  5  1  0  0  0  0
  5  6  2  0  0  0  0
  5  7  1  0  0  0  0
  7  8  1  0  0  0  0
  7  9  1  0  0  0  0
  9 10  1  0  0  0  0
  9 11  1  0  0  0  0
  9 29  1  0  0  0  0
 11 12  1  0  0  0  0
 11 13  1  0  0  0  0
 11 14  1  0  0  0  0
 14 15  1  0  0  0  0
 14 16  1  0  0  0  0
 14 17  1  0  0  0  0
 17 18  1  0  0  0  0
 17 19  1  0  0  0  0
 17 20  1  0  0  0  0
 20 21  1  0  0  0  0
 20 22  2  0  0  0  0
 22 23  1  0  0  0  0
 22 26  1  0  0  0  0
 23 24  1  0  0  0  0
 23 25  1  0  0  0  0
 26 27  1  0  0  0  0
 26 28  1  0  0  0  0
 29 30  2  0  0  0  0
 29 31  1  0  0  0  0
 31 32  1  0  0  0  0
 31 33  1  0  0  0  0
 33 34  1  0  0  0  0
 33 35  1  0  0  0  0
 33 36  1  0  0  0  0
M  CHG  1  20   1
M  END
$$$$

  -OEChem-03222214013D

 36 35  0     1  0  0  0  0  0999 V2000
   -4.0854   -4.0851    2.5835 H   0  0  0  0  0  0  0  0  0  0  0  0
   -4.1448   -3.0749    2.1680 C   0  0  0  0  0  0  0  0  0  0  0  0
   -4.5807   -2.4124    2.9200 H   0  0  0  0  0  0  0  0  0  0  0  0
   -4.7920   -3.0929    1.2882 H   0  0  0  0  0  0  0  0  0  0  0  0
   -2.7608   -2.5854    1.7875 C   0  0  0  0  0  0  0  0  0  0  0  0
   -1.7922   -3.3130    1.9287 O   0  0  0  0  0  0  0  0  0  0  0  0
   -2.5995   -1.3368    1.2204 N   0  0  0  0  0  0  0  0  0  0  0  0
   -3.4221   -0.7336    1.2242 H   0  0  0  0  0  0  0  0  0  0  0  0
   -1.3007   -0.6425    1.1390 C   0  0  1  0  0  0  0  0  0  0  0  0
   -0.6148   -1.0953    1.8638 H   0  0  0  0  0  0  0  0  0  0  0  0
   -0.6217   -0.7007   -0.2568 C   0  0  0  0  0  0  0  0  0  0  0  0
   -0.6501    0.2907   -0.7237 H   0  0  0  0  0  0  0  0  0  0  0  0
    0.4368   -0.9261   -0.0863 H   0  0  0  0  0  0  0  0  0  0  0  0
   -1.1700   -1.7412   -1.2559 C   0  0  0  0  0  0  0  0  0  0  0  0
   -0.3192   -2.2206   -1.7519 H   0  0  0  0  0  0  0  0  0  0  0  0
   -1.7312   -2.5391   -0.7636 H   0  0  0  0  0  0  0  0  0  0  0  0
   -2.0133   -1.0368   -2.3158 C   0  0  0  0  0  0  0  0  0  0  0  0
   -2.8123   -0.4811   -1.8123 H   0  0  0  0  0  0  0  0  0  0  0  0
   -1.3853   -0.3230   -2.8605 H   0  0  0  0  0  0  0  0  0  0  0  0
   -2.5910   -2.0197   -3.2489 N   0  3  0  0  0  0  0  0  0  0  0  0
   -2.2669   -2.9828   -3.1688 H   0  0  0  0  0  0  0  0  0  0  0  0
   -3.4818   -1.7130   -4.1470 C   0  0  0  0  0  0  0  0  0  0  0  0
   -3.9643   -0.4302   -4.2777 N   0  0  0  0  0  0  0  0  0  0  0  0
   -3.7257    0.2446   -3.5531 H   0  0  0  0  0  0  0  0  0  0  0  0
   -4.8164   -0.2779   -4.8132 H   0  0  0  0  0  0  0  0  0  0  0  0
   -3.9623   -2.6870   -4.9894 N   0  0  0  0  0  0  0  0  0  0  0  0
   -3.4811   -3.5840   -5.0229 H   0  0  0  0  0  0  0  0  0  0  0  0
   -4.4888   -2.3982   -5.8121 H   0  0  0  0  0  0  0  0  0  0  0  0
   -1.4938    0.8288    1.5570 C   0  0  0  0  0  0  0  0  0  0  0  0
   -2.4625    1.4412    1.1195 O   0  0  0  0  0  0  0  0  0  0  0  0
   -0.6117    1.4530    2.4184 N   0  0  0  0  0  0  0  0  0  0  0  0
    0.1502    0.9002    2.8038 H   0  0  0  0  0  0  0  0  0  0  0  0
   -0.7815    2.8285    2.8754 C   0  0  0  0  0  0  0  0  0  0  0  0
   -1.7139    2.9332    3.4406 H   0  0  0  0  0  0  0  0  0  0  0  0
    0.0505    3.1185    3.5246 H   0  0  0  0  0  0  0  0  0  0  0  0
   -0.8074    3.5166    2.0236 H   0  0  0  0  0  0  0  0  0  0  0  0
  1  2  1  0  0  0  0
  2  3  1  0  0  0  0
  2  4  1  0  0  0  0
  2  5  1  0  0  0  0
  5  6  2  0  0  0  0
  5  7  1  0  0  0  0
  7  8  1  0  0  0  0
  7  9  1  0  0  0  0
  9 10  1  0  0  0  0
  9 11  1  0  0  0  0
  9 29  1  0  0  0  0
 11 12  1  0  0  0  0
 11 13  1  0  0  0  0
 11 14  1  0  0  0  0
 14 15  1  0  0  0  0
 14 16  1  0  0  0  0
 14 17  1  0  0  0  0
 17 18  1  0  0  0  0
 17 19  1  0  0  0  0
 17 20  1  0  0  0  0
 20 21  1  0  0  0  0
 20 22  2  0  0  0  0
 22 23  1  0  0  0  0
 22 26  1  0  0  0  0
 23 24  1  0  0  0  0
 23 25  1  0  0  0  0
 26 27  1  0  0  0  0
 26 28  1  0  0  0  0
 29 30  2  0  0  0  0
 29 31  1  0  0  0  0
 31 32  1  0  0  0  0
 31 33  1  0  0  0  0
 33 34  1  0  0  0  0
 33 35  1  0  0  0  0
 33 36  1  0  0  0  0
M  CHG  1  20   1
M  END
$$$$

  -OEChem-03222214013D

 36 35  0     1  0  0  0  0  0999 V2000
   -4.1134   -4.0546    2.6285 H   0  0  0  0  0  0  0  0  0  0  0  0
   -4.1722   -3.0458    2.2097 C   0  0  0  0  0  0  0  0  0  0  0  0
   -4.5870   -2.3757    2.9667 H   0  0  0  0  0  0  0  0  0  0  0  0
   -4.8374   -3.0616    1.3436 H   0  0  0  0  0  0  0  0  0  0  0  0
   -2.7921   -2.5705    1.7986 C   0  0  0  0  0  0  0  0  0  0  0  0
   -1.8276   -3.3083    1.9169 O   0  0  0  0  0  0  0  0  0  0  0  0
   -2.6291   -1.3214    1.2331 N   0  0  0  0  0  0  0  0  0  0  0  0
   -3.4486   -0.7138    1.2394 H   0  0  0  0  0  0  0  0  0  0  0  0
   -1.3266   -0.6386    1.1347 C   0  0  1  0  0  0  0  0  0  0  0  0
   -0.6415   -1.0985    1.8557 H   0  0  0  0  0  0  0  0  0  0  0  0
   -0.6480   -0.7150   -0.2613 C   0  0  0  0  0  0  0  0  0  0  0  0
   -0.7007    0.2757   -0.7270 H   0  0  0  0  0  0  0  0  0  0  0  0
    0.4164   -0.9178   -0.1002 H   0  0  0  0  0  0  0  0  0  0  0  0
   -1.1873   -1.7583   -1.2686 C   0  0  0  0  0  0  0  0  0  0  0  0
   -0.3702   -2.4379   -1.5328 H   0  0  0  0  0  0  0  0  0  0  0  0
   -1.9837   -2.3770   -0.8514 H   0  0  0  0  0  0  0  0  0  0  0  0
   -1.6908   -1.0553   -2.5279 C   0  0  0  0  0  0  0  0  0  0  0  0
   -2.4737   -0.3436   -2.2429 H   0  0  0  0  0  0  0  0  0  0  0  0
   -0.8644   -0.4985   -2.9842 H   0  0  0  0  0  0  0  0  0  0  0  0
   -2.2248   -2.0417   -3.4838 N   0  3  0  0  0  0  0  0  0  0  0  0
   -2.0410   -3.0249   -3.2868 H   0  0  0  0  0  0  0  0  0  0  0  0
   -2.9047   -1.7158   -4.5449 C   0  0  0  0  0  0  0  0  0  0  0  0
   -3.1918   -0.4036   -4.8468 N   0  0  0  0  0  0  0  0  0  0  0  0
   -3.0002    0.3010   -4.1369 H   0  0  0  0  0  0  0  0  0  0  0  0
   -3.9156   -0.2062   -5.5347 H   0  0  0  0  0  0  0  0  0  0  0  0
   -3.3546   -2.7004   -5.3918 N   0  0  0  0  0  0  0  0  0  0  0  0
   -2.9920   -3.6452   -5.2790 H   0  0  0  0  0  0  0  0  0  0  0  0
   -3.6994   -2.4290   -6.3107 H   0  0  0  0  0  0  0  0  0  0  0  0
   -1.4937    0.8343    1.5587 C   0  0  0  0  0  0  0  0  0  0  0  0
   -2.4589    1.4631    1.1385 O   0  0  0  0  0  0  0  0  0  0  0  0
   -0.5890    1.4437    2.4074 N   0  0  0  0  0  0  0  0  0  0  0  0
    0.1645    0.8759    2.7870 H   0  0  0  0  0  0  0  0  0  0  0  0
   -0.7372    2.8171    2.8780 C   0  0  0  0  0  0  0  0  0  0  0  0
   -1.6569    2.9250    3.4628 H   0  0  0  0  0  0  0  0  0  0  0  0
    0.1105    3.0952    3.5123 H   0  0  0  0  0  0  0  0  0  0  0  0
   -0.7762    3.5117    2.0320 H   0  0  0  0  0  0  0  0  0  0  0  0
  1  2  1  0  0  0  0
  2  3  1  0  0  0  0
  2  4  1  0  0  0  0
  2  5  1  0  0  0  0
  5  6  2  0  0  0  0
  5  7  1  0  0  0  0
  7  8  1  0  0  0  0
  7  9  1  0  0  0  0
  9 10  1  0  0  0  0
  9 11  1  0  0  0  0
  9 29  1  0  0  0  0
 11 12  1  0  0  0  0
 11 13  1  0  0  0  0
 11 14  1  0  0  0  0
 14 15  1  0  0  0  0
 14 16  1  0  0  0  0
 14 17  1  0  0  0  0
 17 18  1  0  0  0  0
 17 19  1  0  0  0  0
 17 20  1  0  0  0  0
 20 21  1  0  0  0  0
 20 22  2  0  0  0  0
 22 23  1  0  0  0  0
 22 26  1  0  0  0  0
 23 24  1  0  0  0  0
 23 25  1  0  0  0  0
 26 27  1  0  0  0  0
 26 28  1  0  0  0  0
 29 30  2  0  0  0  0
 29 31  1  0  0  0  0
 31 32  1  0  0  0  0
 31 33  1  0  0  0  0
 33 34  1  0  0  0  0
 33 35  1  0  0  0  0
 33 36  1  0  0  0  0
M  CHG  1  20   1
M  END
$$$$

  -OEChem-03222214013D

 36 35  0     1  0  0  0  0  0999 V2000
   -4.1279   -4.0366    2.6325 H   0  0  0  0  0  0  0  0  0  0  0  0
   -4.1915   -3.0311    2.2067 C   0  0  0  0  0  0  0  0  0  0  0  0
   -4.5951   -2.3549    2.9645 H   0  0  0  0  0  0  0  0  0  0  0  0
   -4.8684   -3.0529    1.3496 H   0  0  0  0  0  0  0  0  0  0  0  0
   -2.8165   -2.5605    1.7740 C   0  0  0  0  0  0  0  0  0  0  0  0
   -1.8552   -3.3072    1.8608 O   0  0  0  0  0  0  0  0  0  0  0  0
   -2.6548   -1.3048    1.2241 N   0  0  0  0  0  0  0  0  0  0  0  0
   -3.4720   -0.6941    1.2475 H   0  0  0  0  0  0  0  0  0  0  0  0
   -1.3515   -0.6252    1.1217 C   0  0  1  0  0  0  0  0  0  0  0  0
   -0.6713   -1.0964    1.8403 H   0  0  0  0  0  0  0  0  0  0  0  0
   -0.6667   -0.7117   -0.2711 C   0  0  0  0  0  0  0  0  0  0  0  0
   -0.7595    0.2745   -0.7398 H   0  0  0  0  0  0  0  0  0  0  0  0
    0.4051   -0.8825   -0.1232 H   0  0  0  0  0  0  0  0  0  0  0  0
   -1.2020   -1.7618   -1.2736 C   0  0  0  0  0  0  0  0  0  0  0  0
   -0.5113   -2.6117   -1.2994 H   0  0  0  0  0  0  0  0  0  0  0  0
   -2.1795   -2.1499   -0.9822 H   0  0  0  0  0  0  0  0  0  0  0  0
   -1.3470   -1.1398   -2.6613 C   0  0  0  0  0  0  0  0  0  0  0  0
   -2.0340   -0.2887   -2.5970 H   0  0  0  0  0  0  0  0  0  0  0  0
   -0.3700   -0.7740   -2.9965 H   0  0  0  0  0  0  0  0  0  0  0  0
   -1.8648   -2.1423   -3.6095 N   0  3  0  0  0  0  0  0  0  0  0  0
   -1.8900   -3.1105   -3.2916 H   0  0  0  0  0  0  0  0  0  0  0  0
   -2.2825   -1.8504   -4.8071 C   0  0  0  0  0  0  0  0  0  0  0  0
   -2.2820   -0.5573   -5.2792 N   0  0  0  0  0  0  0  0  0  0  0  0
   -2.0919    0.1920   -4.6166 H   0  0  0  0  0  0  0  0  0  0  0  0
   -2.8274   -0.3371   -6.1100 H   0  0  0  0  0  0  0  0  0  0  0  0
   -2.7407   -2.8519   -5.6293 N   0  0  0  0  0  0  0  0  0  0  0  0
   -2.5694   -3.8197   -5.3630 H   0  0  0  0  0  0  0  0  0  0  0  0
   -2.8727   -2.6454   -6.6178 H   0  0  0  0  0  0  0  0  0  0  0  0
   -1.4962    0.8446    1.5644 C   0  0  0  0  0  0  0  0  0  0  0  0
   -2.4609    1.4886    1.1686 O   0  0  0  0  0  0  0  0  0  0  0  0
   -0.5730    1.4324    2.4088 N   0  0  0  0  0  0  0  0  0  0  0  0
    0.1801    0.8516    2.7687 H   0  0  0  0  0  0  0  0  0  0  0  0
   -0.6955    2.8027    2.8958 C   0  0  0  0  0  0  0  0  0  0  0  0
   -1.6028    2.9166    3.4986 H   0  0  0  0  0  0  0  0  0  0  0  0
    0.1669    3.0635    3.5171 H   0  0  0  0  0  0  0  0  0  0  0  0
   -0.7398    3.5068    2.0580 H   0  0  0  0  0  0  0  0  0  0  0  0
  1  2  1  0  0  0  0
  2  3  1  0  0  0  0
  2  4  1  0  0  0  0
  2  5  1  0  0  0  0
  5  6  2  0  0  0  0
  5  7  1  0  0  0  0
  7  8  1  0  0  0  0
  7  9  1  0  0  0  0
  9 10  1  0  0  0  0
  9 11  1  0  0  0  0
  9 29  1  0  0  0  0
 11 12  1  0  0  0  0
 11 13  1  0  0  0  0
 11 14  1  0  0  0  0
 14 15  1  0  0  0  0
 14 16  1  0  0  0  0
 14 17  1  0  0  0  0
 17 18  1  0  0  0  0
 17 19  1  0  0  0  0
 17 20  1  0  0  0  0
 20 21  1  0  0  0  0
 20 22  2  0  0  0  0
 22 23  1  0  0  0  0
 22 26  1  0  0  0  0
 23 24  1  0  0  0  0
 23 25  1  0  0  0  0
 26 27  1  0  0  0  0
 26 28  1  0  0  0  0
 29 30  2  0  0  0  0
 29 31  1  0  0  0  0
 31 32  1  0  0  0  0
 31 33  1  0  0  0  0
 33 34  1  0  0  0  0
 33 35  1  0  0  0  0
 33 36  1  0  0  0  0
M  CHG  1  20   1
M  END
$$$$

  -OEChem-03222214013D

 36 35  0     1  0  0  0  0  0999 V2000
   -4.1520   -4.0341    2.5557 H   0  0  0  0  0  0  0  0  0  0  0  0
   -4.2077   -3.0184    2.1539 C   0  0  0  0  0  0  0  0  0  0  0  0
   -4.6089   -2.3575    2.9262 H   0  0  0  0  0  0  0  0  0  0  0  0
   -4.8828   -3.0153    1.2951 H   0  0  0  0  0  0  0  0  0  0  0  0
   -2.8283   -2.5474    1.7358 C   0  0  0  0  0  0  0  0  0  0  0  0
   -1.8706   -3.3000    1.8167 O   0  0  0  0  0  0  0  0  0  0  0  0
   -2.6590   -1.2863    1.2008 N   0  0  0  0  0  0  0  0  0  0  0  0
   -3.4741   -0.6727    1.2251 H   0  0  0  0  0  0  0  0  0  0  0  0
   -1.3525   -0.6116    1.1096 C   0  0  1  0  0  0  0  0  0  0  0  0
   -0.6776   -1.0941    1.8252 H   0  0  0  0  0  0  0  0  0  0  0  0
   -0.6694   -0.7028   -0.2818 C   0  0  0  0  0  0  0  0  0  0  0  0
   -0.7717    0.2792   -0.7578 H   0  0  0  0  0  0  0  0  0  0  0  0
    0.4030   -0.8758   -0.1425 H   0  0  0  0  0  0  0  0  0  0  0  0
   -1.2269   -1.7539   -1.2652 C   0  0  0  0  0  0  0  0  0  0  0  0
   -0.7300   -2.7143   -1.0879 H   0  0  0  0  0  0  0  0  0  0  0  0
   -2.3003   -1.9011   -1.1235 H   0  0  0  0  0  0  0  0  0  0  0  0
   -1.0306   -1.2796   -2.7032 C   0  0  0  0  0  0  0  0  0  0  0  0
   -1.5674   -0.3346   -2.8410 H   0  0  0  0  0  0  0  0  0  0  0  0
    0.0363   -1.1036   -2.8815 H   0  0  0  0  0  0  0  0  0  0  0  0
   -1.5389   -2.2992   -3.6387 N   0  3  0  0  0  0  0  0  0  0  0  0
   -1.7951   -3.2029   -3.2425 H   0  0  0  0  0  0  0  0  0  0  0  0
   -1.6620   -2.1050   -4.9199 C   0  0  0  0  0  0  0  0  0  0  0  0
   -1.3383   -0.9015   -5.5044 N   0  0  0  0  0  0  0  0  0  0  0  0
   -1.1501   -0.1104   -4.8919 H   0  0  0  0  0  0  0  0  0  0  0  0
   -1.6677   -0.7104   -6.4484 H   0  0  0  0  0  0  0  0  0  0  0  0
   -2.1286   -3.1217   -5.7188 N   0  0  0  0  0  0  0  0  0  0  0  0
   -2.1960   -4.0596   -5.3278 H   0  0  0  0  0  0  0  0  0  0  0  0
   -2.0261   -3.0321   -6.7281 H   0  0  0  0  0  0  0  0  0  0  0  0
   -1.4812    0.8554    1.5663 C   0  0  0  0  0  0  0  0  0  0  0  0
   -2.4391    1.5141    1.1796 O   0  0  0  0  0  0  0  0  0  0  0  0
   -0.5522    1.4245    2.4172 N   0  0  0  0  0  0  0  0  0  0  0  0
    0.1921    0.8312    2.7751 H   0  0  0  0  0  0  0  0  0  0  0  0
   -0.6629    2.7901    2.9194 C   0  0  0  0  0  0  0  0  0  0  0  0
   -1.5664    2.9033    3.5279 H   0  0  0  0  0  0  0  0  0  0  0  0
    0.2046    3.0384    3.5388 H   0  0  0  0  0  0  0  0  0  0  0  0
   -0.7073    3.5026    2.0887 H   0  0  0  0  0  0  0  0  0  0  0  0
  1  2  1  0  0  0  0
  2  3  1  0  0  0  0
  2  4  1  0  0  0  0
  2  5  1  0  0  0  0
  5  6  2  0  0  0  0
  5  7  1  0  0  0  0
  7  8  1  0  0  0  0
  7  9  1  0  0  0  0
  9 10  1  0  0  0  0
  9 11  1  0  0  0  0
  9 29  1  0  0  0  0
 11 12  1  0  0  0  0
 11 13  1  0  0  0  0
 11 14  1  0  0  0  0
 14 15  1  0  0  0  0
 14 16  1  0  0  0  0
 14 17  1  0  0  0  0
 17 18  1  0  0  0  0
 17 19  1  0  0  0  0
 17 20  1  0  0  0  0
 20 21  1  0  0  0  0
 20 22  2  0  0  0  0
 22 23  1  0  0  0  0
 22 26  1  0  0  0  0
 23 24  1  0  0  0  0
 23 25  1  0  0  0  0
 26 27  1  0  0  0  0
 26 28  1  0  0  0  0
 29 30  2  0  0  0  0
 29 31  1  0  0  0  0
 31 32  1  0  0  0  0
 31 33  1  0  0  0  0
 33 34  1  0  0  0  0
 33 35  1  0  0  0  0
 33 36  1  0  0  0  0
M  CHG  1  20   1
M  END
$$$$

  -OEChem-03222214013D

 36 35  0     1  0  0  0  0  0999 V2000
   -4.1676   -4.0046    2.5164 H   0  0  0  0  0  0  0  0  0  0  0  0
   -4.2143   -2.9964    2.0953 C   0  0  0  0  0  0  0  0  0  0  0  0
   -4.6290   -2.3219    2.8485 H   0  0  0  0  0  0  0  0  0  0  0  0
   -4.8736   -3.0074    1.2245 H   0  0  0  0  0  0  0  0  0  0  0  0
   -2.8267   -2.5346    1.6937 C   0  0  0  0  0  0  0  0  0  0  0  0
   -1.8742   -3.2921    1.7893 O   0  0  0  0  0  0  0  0  0  0  0  0
   -2.6418   -1.2731    1.1654 N   0  0  0  0  0  0  0  0  0  0  0  0
   -3.4541   -0.6551    1.1777 H   0  0  0  0  0  0  0  0  0  0  0  0
   -1.3308   -0.6037    1.0950 C   0  0  1  0  0  0  0  0  0  0  0  0
   -0.6639   -1.0924    1.8141 H   0  0  0  0  0  0  0  0  0  0  0  0
   -0.6455   -0.6926   -0.2940 C   0  0  0  0  0  0  0  0  0  0  0  0
   -0.7346    0.2871   -0.7770 H   0  0  0  0  0  0  0  0  0  0  0  0
    0.4234   -0.8845   -0.1522 H   0  0  0  0  0  0  0  0  0  0  0  0
   -1.2281   -1.7399   -1.2598 C   0  0  0  0  0  0  0  0  0  0  0  0
   -0.9444   -2.7432   -0.9221 H   0  0  0  0  0  0  0  0  0  0  0  0
   -2.3207   -1.6797   -1.2758 H   0  0  0  0  0  0  0  0  0  0  0  0
   -0.7239   -1.4740   -2.6761 C   0  0  0  0  0  0  0  0  0  0  0  0
   -1.0498   -0.4759   -2.9887 H   0  0  0  0  0  0  0  0  0  0  0  0
    0.3715   -1.4997   -2.6786 H   0  0  0  0  0  0  0  0  0  0  0  0
   -1.2546   -2.4962   -3.5959 N   0  3  0  0  0  0  0  0  0  0  0  0
   -1.7660   -3.2728   -3.1783 H   0  0  0  0  0  0  0  0  0  0  0  0
   -1.0925   -2.4578   -4.8870 C   0  0  0  0  0  0  0  0  0  0  0  0
   -0.4148   -1.4292   -5.5018 N   0  0  0  0  0  0  0  0  0  0  0  0
   -0.1722   -0.6161   -4.9393 H   0  0  0  0  0  0  0  0  0  0  0  0
   -0.5222   -1.3029   -6.5062 H   0  0  0  0  0  0  0  0  0  0  0  0
   -1.6099   -3.4648   -5.6667 N   0  0  0  0  0  0  0  0  0  0  0  0
   -1.9500   -4.3096   -5.2113 H   0  0  0  0  0  0  0  0  0  0  0  0
   -1.2996   -3.5370   -6.6341 H   0  0  0  0  0  0  0  0  0  0  0  0
   -1.4608    0.8622    1.5545 C   0  0  0  0  0  0  0  0  0  0  0  0
   -2.4178    1.5222    1.1682 O   0  0  0  0  0  0  0  0  0  0  0  0
   -0.5410    1.4231    2.4207 N   0  0  0  0  0  0  0  0  0  0  0  0
    0.1986    0.8254    2.7806 H   0  0  0  0  0  0  0  0  0  0  0  0
   -0.6739    2.7738    2.9566 C   0  0  0  0  0  0  0  0  0  0  0  0
   -1.5913    2.8632    3.5482 H   0  0  0  0  0  0  0  0  0  0  0  0
    0.1776    3.0122    3.6015 H   0  0  0  0  0  0  0  0  0  0  0  0
   -0.7067    3.5080    2.1446 H   0  0  0  0  0  0  0  0  0  0  0  0
  1  2  1  0  0  0  0
  2  3  1  0  0  0  0
  2  4  1  0  0  0  0
  2  5  1  0  0  0  0
  5  6  2  0  0  0  0
  5  7  1  0  0  0  0
  7  8  1  0  0  0  0
  7  9  1  0  0  0  0
  9 10  1  0  0  0  0
  9 11  1  0  0  0  0
  9 29  1  0  0  0  0
 11 12  1  0  0  0  0
 11 13  1  0  0  0  0
 11 14  1  0  0  0  0
 14 15  1  0  0  0  0
 14 16  1  0  0  0  0
 14 17  1  0  0  0  0
 17 18  1  0  0  0  0
 17 19  1  0  0  0  0
 17 20  1  0  0  0  0
 20 21  1  0  0  0  0
 20 22  2  0  0  0  0
 22 23  1  0  0  0  0
 22 26  1  0  0  0  0
 23 24  1  0  0  0  0
 23 25  1  0  0  0  0
 26 27  1  0  0  0  0
 26 28  1  0  0  0  0
 29 30  2  0  0  0  0
 29 31  1  0  0  0  0
 31 32  1  0  0  0  0
 31 33  1  0  0  0  0
 33 34  1  0  0  0  0
 33 35  1  0  0  0  0
 33 36  1  0  0  0  0
M  CHG  1  20   1
M  END
$$$$

  -OEChem-03222214013D

 36 35  0     1  0  0  0  0  0999 V2000
   -4.1131   -4.0378    2.4856 H   0  0  0  0  0  0  0  0  0  0  0  0
   -4.1680   -3.0335    2.0559 C   0  0  0  0  0  0  0  0  0  0  0  0
   -4.6047   -2.3593    2.7970 H   0  0  0  0  0  0  0  0  0  0  0  0
   -4.8125   -3.0615    1.1744 H   0  0  0  0  0  0  0  0  0  0  0  0
   -2.7818   -2.5524    1.6728 C   0  0  0  0  0  0  0  0  0  0  0  0
   -1.8197   -3.2954    1.7823 O   0  0  0  0  0  0  0  0  0  0  0  0
   -2.6079   -1.2886    1.1464 N   0  0  0  0  0  0  0  0  0  0  0  0
   -3.4269   -0.6796    1.1534 H   0  0  0  0  0  0  0  0  0  0  0  0
   -1.3027   -0.6047    1.0946 C   0  0  1  0  0  0  0  0  0  0  0  0
   -0.6294   -1.0798    1.8170 H   0  0  0  0  0  0  0  0  0  0  0  0
   -0.6199   -0.6725   -0.2968 C   0  0  0  0  0  0  0  0  0  0  0  0
   -0.4341    0.3445   -0.6605 H   0  0  0  0  0  0  0  0  0  0  0  0
    0.3558   -1.1544   -0.1729 H   0  0  0  0  0  0  0  0  0  0  0  0
   -1.4120   -1.4333   -1.3704 C   0  0  0  0  0  0  0  0  0  0  0  0
   -1.5726   -2.4659   -1.0408 H   0  0  0  0  0  0  0  0  0  0  0  0
   -2.3884   -0.9572   -1.5130 H   0  0  0  0  0  0  0  0  0  0  0  0
   -0.6407   -1.4306   -2.6877 C   0  0  0  0  0  0  0  0  0  0  0  0
   -0.5133   -0.3962   -3.0264 H   0  0  0  0  0  0  0  0  0  0  0  0
    0.3501   -1.8689   -2.5240 H   0  0  0  0  0  0  0  0  0  0  0  0
   -1.3789   -2.2124   -3.6962 N   0  3  0  0  0  0  0  0  0  0  0  0
   -2.1848   -2.7432   -3.3686 H   0  0  0  0  0  0  0  0  0  0  0  0
   -1.0367   -2.2809   -4.9501 C   0  0  0  0  0  0  0  0  0  0  0  0
    0.0635   -1.6134   -5.4387 N   0  0  0  0  0  0  0  0  0  0  0  0
    0.7013   -1.1926   -4.7658 H   0  0  0  0  0  0  0  0  0  0  0  0
    0.4338   -1.8812   -6.3484 H   0  0  0  0  0  0  0  0  0  0  0  0
   -1.7855   -3.0410   -5.8168 N   0  0  0  0  0  0  0  0  0  0  0  0
   -2.6891   -3.3919   -5.5051 H   0  0  0  0  0  0  0  0  0  0  0  0
   -1.6386   -2.9231   -6.8177 H   0  0  0  0  0  0  0  0  0  0  0  0
   -1.4689    0.8576    1.5545 C   0  0  0  0  0  0  0  0  0  0  0  0
   -2.4295    1.5010    1.1491 O   0  0  0  0  0  0  0  0  0  0  0  0
   -0.5748    1.4350    2.4370 N   0  0  0  0  0  0  0  0  0  0  0  0
    0.1666    0.8499    2.8137 H   0  0  0  0  0  0  0  0  0  0  0  0
   -0.7326    2.7881    2.9600 C   0  0  0  0  0  0  0  0  0  0  0  0
   -1.6609    2.8715    3.5352 H   0  0  0  0  0  0  0  0  0  0  0  0
    0.1052    3.0408    3.6173 H   0  0  0  0  0  0  0  0  0  0  0  0
   -0.7597    3.5160    2.1419 H   0  0  0  0  0  0  0  0  0  0  0  0
  1  2  1  0  0  0  0
  2  3  1  0  0  0  0
  2  4  1  0  0  0  0
  2  5  1  0  0  0  0
  5  6  2  0  0  0  0
  5  7  1  0  0  0  0
  7  8  1  0  0  0  0
  7  9  1  0  0  0  0
  9 10  1  0  0  0  0
  9 11  1  0  0  0  0
  9 29  1  0  0  0  0
 11 12  1  0  0  0  0
 11 13  1  0  0  0  0
 11 14  1  0  0  0  0
 14 15  1  0  0  0  0
 14 16  1  0  0  0  0
 14 17  1  0  0  0  0
 17 18  1  0  0  0  0
 17 19  1  0  0  0  0
 17 20  1  0  0  0  0
 20 21  1  0  0  0  0
 20 22  2  0  0  0  0
 22 23  1  0  0  0  0
 22 26  1  0  0  0  0
 23 24  1  0  0  0  0
 23 25  1  0  0  0  0
 26 27  1  0  0  0  0
 26 28  1  0  0  0  0
 29 30  2  0  0  0  0
 29 31  1  0  0  0  0
 31 32  1  0  0  0  0
 31 33  1  0  0  0  0
 33 34  1  0  0  0  0
 33 35  1  0  0  0  0
 33 36  1  0  0  0  0
M  CHG  1  20   1
M  END
$$$$

  -OEChem-03222214013D

 36 35  0     1  0  0  0  0  0999 V2000
   -4.1347   -4.0436    2.4780 H   0  0  0  0  0  0  0  0  0  0  0  0
   -4.1857   -3.0280    2.0748 C   0  0  0  0  0  0  0  0  0  0  0  0
   -4.6092   -2.3693    2.8373 H   0  0  0  0  0  0  0  0  0  0  0  0
   -4.8393   -3.0279    1.1994 H   0  0  0  0  0  0  0  0  0  0  0  0
   -2.7991   -2.5485    1.6907 C   0  0  0  0  0  0  0  0  0  0  0  0
   -1.8385   -3.2943    1.7968 O   0  0  0  0  0  0  0  0  0  0  0  0
   -2.6225   -1.2858    1.1622 N   0  0  0  0  0  0  0  0  0  0  0  0
   -3.4395   -0.6739    1.1685 H   0  0  0  0  0  0  0  0  0  0  0  0
   -1.3149   -0.6078    1.1000 C   0  0  1  0  0  0  0  0  0  0  0  0
   -0.6391   -1.0851    1.8185 H   0  0  0  0  0  0  0  0  0  0  0  0
   -0.6370   -0.6723   -0.2949 C   0  0  0  0  0  0  0  0  0  0  0  0
   -0.4306    0.3415   -0.6564 H   0  0  0  0  0  0  0  0  0  0  0  0
    0.3305   -1.1679   -0.1604 H   0  0  0  0  0  0  0  0  0  0  0  0
   -1.4234   -1.4248   -1.3820 C   0  0  0  0  0  0  0  0  0  0  0  0
   -1.7881   -2.3772   -0.9842 H   0  0  0  0  0  0  0  0  0  0  0  0
   -2.2858   -0.8261   -1.6952 H   0  0  0  0  0  0  0  0  0  0  0  0
   -0.5095   -1.7307   -2.5664 C   0  0  0  0  0  0  0  0  0  0  0  0
   -0.1498   -0.7886   -2.9949 H   0  0  0  0  0  0  0  0  0  0  0  0
    0.3535   -2.3051   -2.2118 H   0  0  0  0  0  0  0  0  0  0  0  0
   -1.2487   -2.5040   -3.5810 N   0  3  0  0  0  0  0  0  0  0  0  0
   -2.1950   -2.7955   -3.3400 H   0  0  0  0  0  0  0  0  0  0  0  0
   -0.7479   -2.8507   -4.7314 C   0  0  0  0  0  0  0  0  0  0  0  0
    0.5366   -2.5143   -5.0938 N   0  0  0  0  0  0  0  0  0  0  0  0
    1.1468   -2.1301   -4.3753 H   0  0  0  0  0  0  0  0  0  0  0  0
    0.9671   -3.0036   -5.8758 H   0  0  0  0  0  0  0  0  0  0  0  0
   -1.5123   -3.5761   -5.6141 N   0  0  0  0  0  0  0  0  0  0  0  0
   -2.5080   -3.6811   -5.4285 H   0  0  0  0  0  0  0  0  0  0  0  0
   -1.1952   -3.6572   -6.5786 H   0  0  0  0  0  0  0  0  0  0  0  0
   -1.4712    0.8555    1.5604 C   0  0  0  0  0  0  0  0  0  0  0  0
   -2.4326    1.5028    1.1635 O   0  0  0  0  0  0  0  0  0  0  0  0
   -0.5676    1.4290    2.4358 N   0  0  0  0  0  0  0  0  0  0  0  0
    0.1749    0.8412    2.8058 H   0  0  0  0  0  0  0  0  0  0  0  0
   -0.7094    2.7870    2.9513 C   0  0  0  0  0  0  0  0  0  0  0  0
   -1.6270    2.8795    3.5420 H   0  0  0  0  0  0  0  0  0  0  0  0
    0.1412    3.0405    3.5916 H   0  0  0  0  0  0  0  0  0  0  0  0
   -0.7469    3.5091    2.1285 H   0  0  0  0  0  0  0  0  0  0  0  0
  1  2  1  0  0  0  0
  2  3  1  0  0  0  0
  2  4  1  0  0  0  0
  2  5  1  0  0  0  0
  5  6  2  0  0  0  0
  5  7  1  0  0  0  0
  7  8  1  0  0  0  0
  7  9  1  0  0  0  0
  9 10  1  0  0  0  0
  9 11  1  0  0  0  0
  9 29  1  0  0  0  0
 11 12  1  0  0  0  0
 11 13  1  0  0  0  0
 11 14  1  0  0  0  0
 14 15  1  0  0  0  0
 14 16  1  0  0  0  0
 14 17  1  0  0  0  0
 17 18  1  0  0  0  0
 17 19  1  0  0  0  0
 17 20  1  0  0  0  0
 20 21  1  0  0  0  0
 20 22  2  0  0  0  0
 22 23  1  0  0  0  0
 22 26  1  0  0  0  0
 23 24  1  0  0  0  0
 23 25  1  0  0  0  0
 26 27  1  0  0  0  0
 26 28  1  0  0  0  0
 29 30  2  0  0  0  0
 29 31  1  0  0  0  0
 31 32  1  0  0  0  0
 31 33  1  0  0  0  0
 33 34  1  0  0  0  0
 33 35  1  0  0  0  0
 33 36  1  0  0  0  0
M  CHG  1  20   1
M  END
$$$$

  -OEChem-03222214013D

 36 35  0     1  0  0  0  0  0999 V2000
   -4.1448   -4.0558    2.4744 H   0  0  0  0  0  0  0  0  0  0  0  0
   -4.1912   -3.0230    2.1175 C   0  0  0  0  0  0  0  0  0  0  0  0
   -4.5843   -2.3926    2.9190 H   0  0  0  0  0  0  0  0  0  0  0  0
   -4.8680   -2.9755    1.2613 H   0  0  0  0  0  0  0  0  0  0  0  0
   -2.8085   -2.5466    1.7159 C   0  0  0  0  0  0  0  0  0  0  0  0
   -1.8492   -3.2974    1.7991 O   0  0  0  0  0  0  0  0  0  0  0  0
   -2.6366   -1.2844    1.1852 N   0  0  0  0  0  0  0  0  0  0  0  0
   -3.4518   -0.6700    1.2040 H   0  0  0  0  0  0  0  0  0  0  0  0
   -1.3292   -0.6098    1.1031 C   0  0  1  0  0  0  0  0  0  0  0  0
   -0.6484   -1.0863    1.8175 H   0  0  0  0  0  0  0  0  0  0  0  0
   -0.6570   -0.6729   -0.2958 C   0  0  0  0  0  0  0  0  0  0  0  0
   -0.4415    0.3401   -0.6538 H   0  0  0  0  0  0  0  0  0  0  0  0
    0.3096   -1.1675   -0.1510 H   0  0  0  0  0  0  0  0  0  0  0  0
   -1.4273   -1.4211   -1.4033 C   0  0  0  0  0  0  0  0  0  0  0  0
   -2.0062   -2.2484   -0.9845 H   0  0  0  0  0  0  0  0  0  0  0  0
   -2.1220   -0.7331   -1.8972 H   0  0  0  0  0  0  0  0  0  0  0  0
   -0.4432   -2.0320   -2.3984 C   0  0  0  0  0  0  0  0  0  0  0  0
    0.1560   -1.2324   -2.8482 H   0  0  0  0  0  0  0  0  0  0  0  0
    0.2279   -2.7124   -1.8624 H   0  0  0  0  0  0  0  0  0  0  0  0
   -1.1780   -2.7661   -3.4444 N   0  3  0  0  0  0  0  0  0  0  0  0
   -2.1950   -2.7736   -3.3772 H   0  0  0  0  0  0  0  0  0  0  0  0
   -0.5964   -3.4154   -4.4108 C   0  0  0  0  0  0  0  0  0  0  0  0
    0.7738   -3.4634   -4.5271 N   0  0  0  0  0  0  0  0  0  0  0  0
    1.3271   -3.1203   -3.7446 H   0  0  0  0  0  0  0  0  0  0  0  0
    1.1876   -4.1701   -5.1315 H   0  0  0  0  0  0  0  0  0  0  0  0
   -1.3611   -4.0768   -5.3416 N   0  0  0  0  0  0  0  0  0  0  0  0
   -2.3627   -3.8961   -5.3696 H   0  0  0  0  0  0  0  0  0  0  0  0
   -0.9117   -4.4055   -6.1943 H   0  0  0  0  0  0  0  0  0  0  0  0
   -1.4798    0.8534    1.5667 C   0  0  0  0  0  0  0  0  0  0  0  0
   -2.4514    1.4980    1.1911 O   0  0  0  0  0  0  0  0  0  0  0  0
   -0.5647    1.4283    2.4292 N   0  0  0  0  0  0  0  0  0  0  0  0
    0.1944    0.8475    2.7753 H   0  0  0  0  0  0  0  0  0  0  0  0
   -0.6997    2.7870    2.9446 C   0  0  0  0  0  0  0  0  0  0  0  0
   -1.6040    2.8778    3.5558 H   0  0  0  0  0  0  0  0  0  0  0  0
    0.1642    3.0457    3.5647 H   0  0  0  0  0  0  0  0  0  0  0  0
   -0.7588    3.5067    2.1210 H   0  0  0  0  0  0  0  0  0  0  0  0
  1  2  1  0  0  0  0
  2  3  1  0  0  0  0
  2  4  1  0  0  0  0
  2  5  1  0  0  0  0
  5  6  2  0  0  0  0
  5  7  1  0  0  0  0
  7  8  1  0  0  0  0
  7  9  1  0  0  0  0
  9 10  1  0  0  0  0
  9 11  1  0  0  0  0
  9 29  1  0  0  0  0
 11 12  1  0  0  0  0
 11 13  1  0  0  0  0
 11 14  1  0  0  0  0
 14 15  1  0  0  0  0
 14 16  1  0  0  0  0
 14 17  1  0  0  0  0
 17 18  1  0  0  0  0
 17 19  1  0  0  0  0
 17 20  1  0  0  0  0
 20 21  1  0  0  0  0
 20 22  2  0  0  0  0
 22 23  1  0  0  0  0
 22 26  1  0  0  0  0
 23 24  1  0  0  0  0
 23 25  1  0  0  0  0
 26 27  1  0  0  0  0
 26 28  1  0  0  0  0
 29 30  2  0  0  0  0
 29 31  1  0  0  0  0
 31 32  1  0  0  0  0
 31 33  1  0  0  0  0
 33 34  1  0  0  0  0
 33 35  1  0  0  0  0
 33 36  1  0  0  0  0
M  CHG  1  20   1
M  END
$$$$

  -OEChem-03222214013D

 36 35  0     1  0  0  0  0  0999 V2000
   -3.5108   -4.5146    1.6643 H   0  0  0  0  0  0  0  0  0  0  0  0
   -3.7135   -3.4539    1.4915 C   0  0  0  0  0  0  0  0  0  0  0  0
   -4.0462   -3.0052    2.4311 H   0  0  0  0  0  0  0  0  0  0  0  0
   -4.5122   -3.3608    0.7516 H   0  0  0  0  0  0  0  0  0  0  0  0
   -2.4628   -2.7530    0.9980 C   0  0  0  0  0  0  0  0  0  0  0  0
   -1.4768   -3.3994    0.6630 O   0  0  0  0  0  0  0  0  0  0  0  0
   -2.4707   -1.3958    0.7601 N   0  0  0  0  0  0  0  0  0  0  0  0
   -3.3236   -0.9005    1.0289 H   0  0  0  0  0  0  0  0  0  0  0  0
   -1.2504   -0.5706    0.7716 C   0  0  1  0  0  0  0  0  0  0  0  0
   -0.5028   -1.1137    1.3608 H   0  0  0  0  0  0  0  0  0  0  0  0
   -0.6034   -0.3163   -0.6165 C   0  0  0  0  0  0  0  0  0  0  0  0
   -0.5403    0.7639   -0.7910 H   0  0  0  0  0  0  0  0  0  0  0  0
    0.4288   -0.6769   -0.5538 H   0  0  0  0  0  0  0  0  0  0  0  0
   -1.2944   -0.9484   -1.8487 C   0  0  0  0  0  0  0  0  0  0  0  0
   -2.0122   -1.7190   -1.5675 H   0  0  0  0  0  0  0  0  0  0  0  0
   -1.8514   -0.1823   -2.3987 H   0  0  0  0  0  0  0  0  0  0  0  0
   -0.2359   -1.5912   -2.7476 C   0  0  0  0  0  0  0  0  0  0  0  0
    0.2345   -0.8173   -3.3648 H   0  0  0  0  0  0  0  0  0  0  0  0
    0.5515   -2.0379   -2.1307 H   0  0  0  0  0  0  0  0  0  0  0  0
   -0.8307   -2.6369   -3.6008 N   0  3  0  0  0  0  0  0  0  0  0  0
   -1.0920   -2.3676   -4.5484 H   0  0  0  0  0  0  0  0  0  0  0  0
   -0.9460   -3.8829   -3.2330 C   0  0  0  0  0  0  0  0  0  0  0  0
   -0.6320   -4.3124   -1.9619 N   0  0  0  0  0  0  0  0  0  0  0  0
   -0.6176   -3.6130   -1.2134 H   0  0  0  0  0  0  0  0  0  0  0  0
   -0.9210   -5.2482   -1.6887 H   0  0  0  0  0  0  0  0  0  0  0  0
   -1.3935   -4.8128   -4.1408 N   0  0  0  0  0  0  0  0  0  0  0  0
   -1.4412   -4.5502   -5.1231 H   0  0  0  0  0  0  0  0  0  0  0  0
   -1.2756   -5.7991   -3.9168 H   0  0  0  0  0  0  0  0  0  0  0  0
   -1.4994    0.7340    1.5564 C   0  0  0  0  0  0  0  0  0  0  0  0
   -2.5800    1.2966    1.4380 O   0  0  0  0  0  0  0  0  0  0  0  0
   -0.5783    1.2036    2.4749 N   0  0  0  0  0  0  0  0  0  0  0  0
    0.2910    0.6897    2.5895 H   0  0  0  0  0  0  0  0  0  0  0  0
   -0.8125    2.3770    3.3112 C   0  0  0  0  0  0  0  0  0  0  0  0
   -1.6682    2.2109    3.9744 H   0  0  0  0  0  0  0  0  0  0  0  0
    0.0671    2.5856    3.9285 H   0  0  0  0  0  0  0  0  0  0  0  0
   -1.0141    3.2572    2.6911 H   0  0  0  0  0  0  0  0  0  0  0  0
  1  2  1  0  0  0  0
  2  3  1  0  0  0  0
  2  4  1  0  0  0  0
  2  5  1  0  0  0  0
  5  6  2  0  0  0  0
  5  7  1  0  0  0  0
  7  8  1  0  0  0  0
  7  9  1  0  0  0  0
  9 10  1  0  0  0  0
  9 11  1  0  0  0  0
  9 29  1  0  0  0  0
 11 12  1  0  0  0  0
 11 13  1  0  0  0  0
 11 14  1  0  0  0  0
 14 15  1  0  0  0  0
 14 16  1  0  0  0  0
 14 17  1  0  0  0  0
 17 18  1  0  0  0  0
 17 19  1  0  0  0  0
 17 20  1  0  0  0  0
 20 21  1  0  0  0  0
 20 22  2  0  0  0  0
 22 23  1  0  0  0  0
 22 26  1  0  0  0  0
 23 24  1  0  0  0  0
 23 25  1  0  0  0  0
 26 27  1  0  0  0  0
 26 28  1  0  0  0  0
 29 30  2  0  0  0  0
 29 31  1  0  0  0  0
 31 32  1  0  0  0  0
 31 33  1  0  0  0  0
 33 34  1  0  0  0  0
 33 35  1  0  0  0  0
 33 36  1  0  0  0  0
M  CHG  1  20   1
M  END
$$$$

  -OEChem-03222214013D

 36 35  0     1  0  0  0  0  0999 V2000
   -3.5582   -4.5058    1.8082 H   0  0  0  0  0  0  0  0  0  0  0  0
   -3.7338   -3.4407    1.6334 C   0  0  0  0  0  0  0  0  0  0  0  0
   -4.0570   -2.9819    2.5715 H   0  0  0  0  0  0  0  0  0  0  0  0
   -4.5284   -3.3288    0.8916 H   0  0  0  0  0  0  0  0  0  0  0  0
   -2.4648   -2.7712    1.1433 C   0  0  0  0  0  0  0  0  0  0  0  0
   -1.4709   -3.4381    0.8816 O   0  0  0  0  0  0  0  0  0  0  0  0
   -2.4646   -1.4311    0.8270 N   0  0  0  0  0  0  0  0  0  0  0  0
   -3.3290   -0.9261    1.0337 H   0  0  0  0  0  0  0  0  0  0  0  0
   -1.2515   -0.5961    0.8464 C   0  0  1  0  0  0  0  0  0  0  0  0
   -0.5296   -1.0982    1.5003 H   0  0  0  0  0  0  0  0  0  0  0  0
   -0.5366   -0.4132   -0.5199 C   0  0  0  0  0  0  0  0  0  0  0  0
   -0.5029    0.6585   -0.7480 H   0  0  0  0  0  0  0  0  0  0  0  0
    0.5054   -0.7284   -0.3969 H   0  0  0  0  0  0  0  0  0  0  0  0
   -1.1562   -1.1176   -1.7510 C   0  0  0  0  0  0  0  0  0  0  0  0
   -2.0790   -1.6501   -1.5178 H   0  0  0  0  0  0  0  0  0  0  0  0
   -1.4133   -0.3669   -2.5059 H   0  0  0  0  0  0  0  0  0  0  0  0
   -0.1336   -2.0933   -2.3335 C   0  0  0  0  0  0  0  0  0  0  0  0
    0.6443   -1.5313   -2.8625 H   0  0  0  0  0  0  0  0  0  0  0  0
    0.3551   -2.6382   -1.5182 H   0  0  0  0  0  0  0  0  0  0  0  0
   -0.7837   -3.0474   -3.2495 N   0  3  0  0  0  0  0  0  0  0  0  0
   -0.9366   -2.7374   -4.2082 H   0  0  0  0  0  0  0  0  0  0  0  0
   -1.1058   -4.2635   -2.9092 C   0  0  0  0  0  0  0  0  0  0  0  0
   -0.9438   -4.7411   -1.6280 N   0  0  0  0  0  0  0  0  0  0  0  0
   -0.8360   -4.0569   -0.8713 H   0  0  0  0  0  0  0  0  0  0  0  0
   -1.3860   -5.6224   -1.3817 H   0  0  0  0  0  0  0  0  0  0  0  0
   -1.6242   -5.1113   -3.8588 N   0  0  0  0  0  0  0  0  0  0  0  0
   -1.5647   -4.8389   -4.8379 H   0  0  0  0  0  0  0  0  0  0  0  0
   -1.6685   -6.1055   -3.6434 H   0  0  0  0  0  0  0  0  0  0  0  0
   -1.5504    0.7481    1.5415 C   0  0  0  0  0  0  0  0  0  0  0  0
   -2.6305    1.2876    1.3390 O   0  0  0  0  0  0  0  0  0  0  0  0
   -0.6809    1.2827    2.4742 N   0  0  0  0  0  0  0  0  0  0  0  0
    0.1932    0.7951    2.6514 H   0  0  0  0  0  0  0  0  0  0  0  0
   -0.9576    2.5149    3.2063 C   0  0  0  0  0  0  0  0  0  0  0  0
   -1.8674    2.4096    3.8072 H   0  0  0  0  0  0  0  0  0  0  0  0
   -0.1269    2.7526    3.8781 H   0  0  0  0  0  0  0  0  0  0  0  0
   -1.0905    3.3523    2.5127 H   0  0  0  0  0  0  0  0  0  0  0  0
  1  2  1  0  0  0  0
  2  3  1  0  0  0  0
  2  4  1  0  0  0  0
  2  5  1  0  0  0  0
  5  6  2  0  0  0  0
  5  7  1  0  0  0  0
  7  8  1  0  0  0  0
  7  9  1  0  0  0  0
  9 10  1  0  0  0  0
  9 11  1  0  0  0  0
  9 29  1  0  0  0  0
 11 12  1  0  0  0  0
 11 13  1  0  0  0  0
 11 14  1  0  0  0  0
 14 15  1  0  0  0  0
 14 16  1  0  0  0  0
 14 17  1  0  0  0  0
 17 18  1  0  0  0  0
 17 19  1  0  0  0  0
 17 20  1  0  0  0  0
 20 21  1  0  0  0  0
 20 22  2  0  0  0  0
 22 23  1  0  0  0  0
 22 26  1  0  0  0  0
 23 24  1  0  0  0  0
 23 25  1  0  0  0  0
 26 27  1  0  0  0  0
 26 28  1  0  0  0  0
 29 30  2  0  0  0  0
 29 31  1  0  0  0  0
 31 32  1  0  0  0  0
 31 33  1  0  0  0  0
 33 34  1  0  0  0  0
 33 35  1  0  0  0  0
 33 36  1  0  0  0  0
M  CHG  1  20   1
M  END
$$$$

  -OEChem-03222214013D

 36 35  0     1  0  0  0  0  0999 V2000
   -3.5668   -4.4588    2.0341 H   0  0  0  0  0  0  0  0  0  0  0  0
   -3.7318   -3.4005    1.8138 C   0  0  0  0  0  0  0  0  0  0  0  0
   -4.0388   -2.8967    2.7342 H   0  0  0  0  0  0  0  0  0  0  0  0
   -4.5338   -3.3114    1.0769 H   0  0  0  0  0  0  0  0  0  0  0  0
   -2.4601   -2.7689    1.2816 C   0  0  0  0  0  0  0  0  0  0  0  0
   -1.4752   -3.4601    1.0513 O   0  0  0  0  0  0  0  0  0  0  0  0
   -2.4482   -1.4414    0.9169 N   0  0  0  0  0  0  0  0  0  0  0  0
   -3.3097   -0.9236    1.1040 H   0  0  0  0  0  0  0  0  0  0  0  0
   -1.2330   -0.6087    0.9053 C   0  0  1  0  0  0  0  0  0  0  0  0
   -0.5076   -1.0890    1.5712 H   0  0  0  0  0  0  0  0  0  0  0  0
   -0.5298   -0.4704   -0.4719 C   0  0  0  0  0  0  0  0  0  0  0  0
   -0.5196    0.5936   -0.7347 H   0  0  0  0  0  0  0  0  0  0  0  0
    0.5197   -0.7664   -0.3644 H   0  0  0  0  0  0  0  0  0  0  0  0
   -1.1716   -1.2143   -1.6636 C   0  0  0  0  0  0  0  0  0  0  0  0
   -2.2166   -1.4783   -1.4864 H   0  0  0  0  0  0  0  0  0  0  0  0
   -1.1628   -0.5564   -2.5391 H   0  0  0  0  0  0  0  0  0  0  0  0
   -0.3289   -2.4502   -1.9767 C   0  0  0  0  0  0  0  0  0  0  0  0
    0.6207   -2.1378   -2.4251 H   0  0  0  0  0  0  0  0  0  0  0  0
   -0.0937   -2.9662   -1.0399 H   0  0  0  0  0  0  0  0  0  0  0  0
   -1.0458   -3.3562   -2.8920 N   0  3  0  0  0  0  0  0  0  0  0  0
   -1.2172   -3.0173   -3.8374 H   0  0  0  0  0  0  0  0  0  0  0  0
   -1.4069   -4.5663   -2.5712 C   0  0  0  0  0  0  0  0  0  0  0  0
   -1.2150   -5.0856   -1.3108 N   0  0  0  0  0  0  0  0  0  0  0  0
   -1.0358   -4.4237   -0.5475 H   0  0  0  0  0  0  0  0  0  0  0  0
   -1.6887   -5.9508   -1.0660 H   0  0  0  0  0  0  0  0  0  0  0  0
   -1.9986   -5.3645   -3.5210 N   0  0  0  0  0  0  0  0  0  0  0  0
   -1.9679   -5.0666   -4.4940 H   0  0  0  0  0  0  0  0  0  0  0  0
   -2.0739   -6.3621   -3.3312 H   0  0  0  0  0  0  0  0  0  0  0  0
   -1.5356    0.7594    1.5515 C   0  0  0  0  0  0  0  0  0  0  0  0
   -2.6195    1.2857    1.3343 O   0  0  0  0  0  0  0  0  0  0  0  0
   -0.6687    1.3285    2.4659 N   0  0  0  0  0  0  0  0  0  0  0  0
    0.2071    0.8505    2.6595 H   0  0  0  0  0  0  0  0  0  0  0  0
   -0.9563    2.5769    3.1659 C   0  0  0  0  0  0  0  0  0  0  0  0
   -1.8609    2.4765    3.7753 H   0  0  0  0  0  0  0  0  0  0  0  0
   -0.1243    2.8432    3.8253 H   0  0  0  0  0  0  0  0  0  0  0  0
   -1.1040    3.3932    2.4506 H   0  0  0  0  0  0  0  0  0  0  0  0
  1  2  1  0  0  0  0
  2  3  1  0  0  0  0
  2  4  1  0  0  0  0
  2  5  1  0  0  0  0
  5  6  2  0  0  0  0
  5  7  1  0  0  0  0
  7  8  1  0  0  0  0
  7  9  1  0  0  0  0
  9 10  1  0  0  0  0
  9 11  1  0  0  0  0
  9 29  1  0  0  0  0
 11 12  1  0  0  0  0
 11 13  1  0  0  0  0
 11 14  1  0  0  0  0
 14 15  1  0  0  0  0
 14 16  1  0  0  0  0
 14 17  1  0  0  0  0
 17 18  1  0  0  0  0
 17 19  1  0  0  0  0
 17 20  1  0  0  0  0
 20 21  1  0  0  0  0
 20 22  2  0  0  0  0
 22 23  1  0  0  0  0
 22 26  1  0  0  0  0
 23 24  1  0  0  0  0
 23 25  1  0  0  0  0
 26 27  1  0  0  0  0
 26 28  1  0  0  0  0
 29 30  2  0  0  0  0
 29 31  1  0  0  0  0
 31 32  1  0  0  0  0
 31 33  1  0  0  0  0
 33 34  1  0  0  0  0
 33 35  1  0  0  0  0
 33 36  1  0  0  0  0
M  CHG  1  20   1
M  END
$$$$

  -OEChem-03222214013D

 36 35  0     1  0  0  0  0  0999 V2000
   -3.8239   -4.3503    2.0843 H   0  0  0  0  0  0  0  0  0  0  0  0
   -3.9109   -3.3013    1.7876 C   0  0  0  0  0  0  0  0  0  0  0  0
   -4.3043   -2.7321    2.6342 H   0  0  0  0  0  0  0  0  0  0  0  0
   -4.6122   -3.2248    0.9531 H   0  0  0  0  0  0  0  0  0  0  0  0
   -2.5561   -2.7526    1.3837 C   0  0  0  0  0  0  0  0  0  0  0  0
   -1.5871   -3.4979    1.3256 O   0  0  0  0  0  0  0  0  0  0  0  0
   -2.4457   -1.4434    0.9709 N   0  0  0  0  0  0  0  0  0  0  0  0
   -3.2964   -0.8824    1.0539 H   0  0  0  0  0  0  0  0  0  0  0  0
   -1.1992   -0.6553    0.9832 C   0  0  1  0  0  0  0  0  0  0  0  0
   -0.5059   -1.1354    1.6822 H   0  0  0  0  0  0  0  0  0  0  0  0
   -0.4667   -0.5428   -0.3840 C   0  0  0  0  0  0  0  0  0  0  0  0
   -0.4060    0.5183   -0.6521 H   0  0  0  0  0  0  0  0  0  0  0  0
    0.5661   -0.8890   -0.2658 H   0  0  0  0  0  0  0  0  0  0  0  0
   -1.1227   -1.2644   -1.5753 C   0  0  0  0  0  0  0  0  0  0  0  0
   -2.2141   -1.2499   -1.4997 H   0  0  0  0  0  0  0  0  0  0  0  0
   -0.8608   -0.7434   -2.5024 H   0  0  0  0  0  0  0  0  0  0  0  0
   -0.5745   -2.6891   -1.6429 C   0  0  0  0  0  0  0  0  0  0  0  0
    0.4453   -2.6639   -2.0429 H   0  0  0  0  0  0  0  0  0  0  0  0
   -0.5166   -3.0919   -0.6288 H   0  0  0  0  0  0  0  0  0  0  0  0
   -1.4251   -3.5472   -2.4863 N   0  3  0  0  0  0  0  0  0  0  0  0
   -1.6808   -3.1860   -3.4040 H   0  0  0  0  0  0  0  0  0  0  0  0
   -1.7794   -4.7550   -2.1500 C   0  0  0  0  0  0  0  0  0  0  0  0
   -1.4639   -5.3006   -0.9260 N   0  0  0  0  0  0  0  0  0  0  0  0
   -1.2001   -4.6514   -0.1767 H   0  0  0  0  0  0  0  0  0  0  0  0
   -1.9258   -6.1616   -0.6465 H   0  0  0  0  0  0  0  0  0  0  0  0
   -2.4886   -5.5215   -3.0439 N   0  0  0  0  0  0  0  0  0  0  0  0
   -2.5572   -5.2042   -4.0089 H   0  0  0  0  0  0  0  0  0  0  0  0
   -2.5638   -6.5212   -2.8661 H   0  0  0  0  0  0  0  0  0  0  0  0
   -1.4993    0.7443    1.5612 C   0  0  0  0  0  0  0  0  0  0  0  0
   -2.5510    1.2930    1.2558 O   0  0  0  0  0  0  0  0  0  0  0  0
   -0.6673    1.3299    2.4974 N   0  0  0  0  0  0  0  0  0  0  0  0
    0.1791    0.8348    2.7651 H   0  0  0  0  0  0  0  0  0  0  0  0
   -0.9474    2.6240    3.1123 C   0  0  0  0  0  0  0  0  0  0  0  0
   -1.8807    2.5837    3.6842 H   0  0  0  0  0  0  0  0  0  0  0  0
   -0.1379    2.9055    3.7929 H   0  0  0  0  0  0  0  0  0  0  0  0
   -1.0387    3.4016    2.3462 H   0  0  0  0  0  0  0  0  0  0  0  0
  1  2  1  0  0  0  0
  2  3  1  0  0  0  0
  2  4  1  0  0  0  0
  2  5  1  0  0  0  0
  5  6  2  0  0  0  0
  5  7  1  0  0  0  0
  7  8  1  0  0  0  0
  7  9  1  0  0  0  0
  9 10  1  0  0  0  0
  9 11  1  0  0  0  0
  9 29  1  0  0  0  0
 11 12  1  0  0  0  0
 11 13  1  0  0  0  0
 11 14  1  0  0  0  0
 14 15  1  0  0  0  0
 14 16  1  0  0  0  0
 14 17  1  0  0  0  0
 17 18  1  0  0  0  0
 17 19  1  0  0  0  0
 17 20  1  0  0  0  0
 20 21  1  0  0  0  0
 20 22  2  0  0  0  0
 22 23  1  0  0  0  0
 22 26  1  0  0  0  0
 23 24  1  0  0  0  0
 23 25  1  0  0  0  0
 26 27  1  0  0  0  0
 26 28  1  0  0  0  0
 29 30  2  0  0  0  0
 29 31  1  0  0  0  0
 31 32  1  0  0  0  0
 31 33  1  0  0  0  0
 33 34  1  0  0  0  0
 33 35  1  0  0  0  0
 33 36  1  0  0  0  0
M  CHG  1  20   1
M  END
$$$$

  -OEChem-03222214013D

 36 35  0     1  0  0  0  0  0999 V2000
   -4.0362   -4.2427    2.2085 H   0  0  0  0  0  0  0  0  0  0  0  0
   -4.0540   -3.2182    1.8264 C   0  0  0  0  0  0  0  0  0  0  0  0
   -4.5115   -2.5737    2.5819 H   0  0  0  0  0  0  0  0  0  0  0  0
   -4.6620   -3.1871    0.9191 H   0  0  0  0  0  0  0  0  0  0  0  0
   -2.6458   -2.7408    1.5288 C   0  0  0  0  0  0  0  0  0  0  0  0
   -1.7074   -3.5167    1.6420 O   0  0  0  0  0  0  0  0  0  0  0  0
   -2.4531   -1.4624    1.0515 N   0  0  0  0  0  0  0  0  0  0  0  0
   -3.2888   -0.8737    1.0257 H   0  0  0  0  0  0  0  0  0  0  0  0
   -1.1855   -0.7054    1.0694 C   0  0  1  0  0  0  0  0  0  0  0  0
   -0.5180   -1.1636    1.8075 H   0  0  0  0  0  0  0  0  0  0  0  0
   -0.4182   -0.6183   -0.2857 C   0  0  0  0  0  0  0  0  0  0  0  0
   -0.3037    0.4368   -0.5600 H   0  0  0  0  0  0  0  0  0  0  0  0
    0.5941   -1.0088   -0.1356 H   0  0  0  0  0  0  0  0  0  0  0  0
   -1.0470   -1.3273   -1.4963 C   0  0  0  0  0  0  0  0  0  0  0  0
   -2.1125   -1.0788   -1.5505 H   0  0  0  0  0  0  0  0  0  0  0  0
   -0.5772   -0.9745   -2.4206 H   0  0  0  0  0  0  0  0  0  0  0  0
   -0.8381   -2.8343   -1.3663 C   0  0  0  0  0  0  0  0  0  0  0  0
    0.1724   -3.0806   -1.7103 H   0  0  0  0  0  0  0  0  0  0  0  0
   -0.8936   -3.1041   -0.3139 H   0  0  0  0  0  0  0  0  0  0  0  0
   -1.8279   -3.6014   -2.1410 N   0  3  0  0  0  0  0  0  0  0  0  0
   -2.1251   -3.2105   -3.0336 H   0  0  0  0  0  0  0  0  0  0  0  0
   -2.2322   -4.7886   -1.7886 C   0  0  0  0  0  0  0  0  0  0  0  0
   -1.8452   -5.3719   -0.6023 N   0  0  0  0  0  0  0  0  0  0  0  0
   -1.4606   -4.7565    0.1224 H   0  0  0  0  0  0  0  0  0  0  0  0
   -2.3352   -6.2052   -0.2879 H   0  0  0  0  0  0  0  0  0  0  0  0
   -3.0671   -5.4925   -2.6231 N   0  0  0  0  0  0  0  0  0  0  0  0
   -3.2016   -5.1531   -3.5735 H   0  0  0  0  0  0  0  0  0  0  0  0
   -3.1857   -6.4897   -2.4543 H   0  0  0  0  0  0  0  0  0  0  0  0
   -1.4957    0.7273    1.5560 C   0  0  0  0  0  0  0  0  0  0  0  0
   -2.5213    1.2731    1.1663 O   0  0  0  0  0  0  0  0  0  0  0  0
   -0.6989    1.3541    2.4960 N   0  0  0  0  0  0  0  0  0  0  0  0
    0.1255    0.8627    2.8311 H   0  0  0  0  0  0  0  0  0  0  0  0
   -0.9853    2.6841    3.0250 C   0  0  0  0  0  0  0  0  0  0  0  0
   -1.9464    2.6896    3.5501 H   0  0  0  0  0  0  0  0  0  0  0  0
   -0.2055    2.9889    3.7300 H   0  0  0  0  0  0  0  0  0  0  0  0
   -1.0233    3.4205    2.2150 H   0  0  0  0  0  0  0  0  0  0  0  0
  1  2  1  0  0  0  0
  2  3  1  0  0  0  0
  2  4  1  0  0  0  0
  2  5  1  0  0  0  0
  5  6  2  0  0  0  0
  5  7  1  0  0  0  0
  7  8  1  0  0  0  0
  7  9  1  0  0  0  0
  9 10  1  0  0  0  0
  9 11  1  0  0  0  0
  9 29  1  0  0  0  0
 11 12  1  0  0  0  0
 11 13  1  0  0  0  0
 11 14  1  0  0  0  0
 14 15  1  0  0  0  0
 14 16  1  0  0  0  0
 14 17  1  0  0  0  0
 17 18  1  0  0  0  0
 17 19  1  0  0  0  0
 17 20  1  0  0  0  0
 20 21  1  0  0  0  0
 20 22  2  0  0  0  0
 22 23  1  0  0  0  0
 22 26  1  0  0  0  0
 23 24  1  0  0  0  0
 23 25  1  0  0  0  0
 26 27  1  0  0  0  0
 26 28  1  0  0  0  0
 29 30  2  0  0  0  0
 29 31  1  0  0  0  0
 31 32  1  0  0  0  0
 31 33  1  0  0  0  0
 33 34  1  0  0  0  0
 33 35  1  0  0  0  0
 33 36  1  0  0  0  0
M  CHG  1  20   1
M  END
$$$$

  -OEChem-03222214013D

 36 35  0     1  0  0  0  0  0999 V2000
   -4.2076   -4.1366    2.3660 H   0  0  0  0  0  0  0  0  0  0  0  0
   -4.1730   -3.1203    1.9637 C   0  0  0  0  0  0  0  0  0  0  0  0
   -4.6093   -2.4398    2.6999 H   0  0  0  0  0  0  0  0  0  0  0  0
   -4.7674   -3.0792    1.0480 H   0  0  0  0  0  0  0  0  0  0  0  0
   -2.7402   -2.7137    1.6779 C   0  0  0  0  0  0  0  0  0  0  0  0
   -1.8355   -3.5117    1.8753 O   0  0  0  0  0  0  0  0  0  0  0  0
   -2.4911   -1.4767    1.1224 N   0  0  0  0  0  0  0  0  0  0  0  0
   -3.3091   -0.8704    1.0268 H   0  0  0  0  0  0  0  0  0  0  0  0
   -1.2090   -0.7436    1.1470 C   0  0  1  0  0  0  0  0  0  0  0  0
   -0.5855   -1.1599    1.9459 H   0  0  0  0  0  0  0  0  0  0  0  0
   -0.3612   -0.7162   -0.1673 C   0  0  0  0  0  0  0  0  0  0  0  0
   -0.1833    0.3251   -0.4604 H   0  0  0  0  0  0  0  0  0  0  0  0
    0.6207   -1.1370    0.0742 H   0  0  0  0  0  0  0  0  0  0  0  0
   -0.8790   -1.4482   -1.4197 C   0  0  0  0  0  0  0  0  0  0  0  0
   -1.8414   -1.0026   -1.6940 H   0  0  0  0  0  0  0  0  0  0  0  0
   -0.1902   -1.2922   -2.2569 H   0  0  0  0  0  0  0  0  0  0  0  0
   -1.0487   -2.9447   -1.1700 C   0  0  0  0  0  0  0  0  0  0  0  0
   -0.1402   -3.4552   -1.5085 H   0  0  0  0  0  0  0  0  0  0  0  0
   -1.1215   -3.1099   -0.0999 H   0  0  0  0  0  0  0  0  0  0  0  0
   -2.2180   -3.5204   -1.8564 N   0  3  0  0  0  0  0  0  0  0  0  0
   -2.5493   -3.0463   -2.6952 H   0  0  0  0  0  0  0  0  0  0  0  0
   -2.7426   -4.6589   -1.5022 C   0  0  0  0  0  0  0  0  0  0  0  0
   -2.3093   -5.3422   -0.3869 N   0  0  0  0  0  0  0  0  0  0  0  0
   -1.7744   -4.8136    0.3102 H   0  0  0  0  0  0  0  0  0  0  0  0
   -2.8622   -6.1261   -0.0500 H   0  0  0  0  0  0  0  0  0  0  0  0
   -3.7533   -5.2052   -2.2568 N   0  0  0  0  0  0  0  0  0  0  0  0
   -3.9399   -4.8099   -3.1763 H   0  0  0  0  0  0  0  0  0  0  0  0
   -3.9917   -6.1834   -2.1045 H   0  0  0  0  0  0  0  0  0  0  0  0
   -1.5347    0.7207    1.5188 C   0  0  0  0  0  0  0  0  0  0  0  0
   -2.5385    1.2420    1.0460 O   0  0  0  0  0  0  0  0  0  0  0  0
   -0.7805    1.4054    2.4534 N   0  0  0  0  0  0  0  0  0  0  0  0
    0.0280    0.9364    2.8535 H   0  0  0  0  0  0  0  0  0  0  0  0
   -1.0863    2.7654    2.8865 C   0  0  0  0  0  0  0  0  0  0  0  0
   -2.0614    2.8008    3.3839 H   0  0  0  0  0  0  0  0  0  0  0  0
   -0.3269    3.1190    3.5909 H   0  0  0  0  0  0  0  0  0  0  0  0
   -1.1041    3.4474    2.0295 H   0  0  0  0  0  0  0  0  0  0  0  0
  1  2  1  0  0  0  0
  2  3  1  0  0  0  0
  2  4  1  0  0  0  0
  2  5  1  0  0  0  0
  5  6  2  0  0  0  0
  5  7  1  0  0  0  0
  7  8  1  0  0  0  0
  7  9  1  0  0  0  0
  9 10  1  0  0  0  0
  9 11  1  0  0  0  0
  9 29  1  0  0  0  0
 11 12  1  0  0  0  0
 11 13  1  0  0  0  0
 11 14  1  0  0  0  0
 14 15  1  0  0  0  0
 14 16  1  0  0  0  0
 14 17  1  0  0  0  0
 17 18  1  0  0  0  0
 17 19  1  0  0  0  0
 17 20  1  0  0  0  0
 20 21  1  0  0  0  0
 20 22  2  0  0  0  0
 22 23  1  0  0  0  0
 22 26  1  0  0  0  0
 23 24  1  0  0  0  0
 23 25  1  0  0  0  0
 26 27  1  0  0  0  0
 26 28  1  0  0  0  0
 29 30  2  0  0  0  0
 29 31  1  0  0  0  0
 31 32  1  0  0  0  0
 31 33  1  0  0  0  0
 33 34  1  0  0  0  0
 33 35  1  0  0  0  0
 33 36  1  0  0  0  0
M  CHG  1  20   1
M  END
$$$$

  -OEChem-03222214013D

 36 35  0     1  0  0  0  0  0999 V2000
   -4.6736   -3.5424    3.0547 H   0  0  0  0  0  0  0  0  0  0  0  0
   -4.5644   -2.5244    2.6706 C   0  0  0  0  0  0  0  0  0  0  0  0
   -4.6861   -1.8237    3.5008 H   0  0  0  0  0  0  0  0  0  0  0  0
   -5.3480   -2.3389    1.9320 H   0  0  0  0  0  0  0  0  0  0  0  0
   -3.1977   -2.3427    2.0394 C   0  0  0  0  0  0  0  0  0  0  0  0
   -2.4362   -3.2987    1.9472 O   0  0  0  0  0  0  0  0  0  0  0  0
   -2.8659   -1.1272    1.4712 N   0  0  0  0  0  0  0  0  0  0  0  0
   -3.5508   -0.3785    1.5988 H   0  0  0  0  0  0  0  0  0  0  0  0
   -1.4907   -0.6559    1.2113 C   0  0  1  0  0  0  0  0  0  0  0  0
   -0.8109   -1.2329    1.8478 H   0  0  0  0  0  0  0  0  0  0  0  0
   -0.9451   -0.7406   -0.2542 C   0  0  0  0  0  0  0  0  0  0  0  0
   -0.6120    0.2543   -0.5713 H   0  0  0  0  0  0  0  0  0  0  0  0
   -0.0457   -1.3641   -0.2102 H   0  0  0  0  0  0  0  0  0  0  0  0
   -1.8191   -1.3043   -1.3972 C   0  0  0  0  0  0  0  0  0  0  0  0
   -2.5693   -0.5591   -1.6833 H   0  0  0  0  0  0  0  0  0  0  0  0
   -1.1780   -1.4817   -2.2671 H   0  0  0  0  0  0  0  0  0  0  0  0
   -2.5283   -2.5853   -0.9910 C   0  0  0  0  0  0  0  0  0  0  0  0
   -1.9551   -3.0000   -0.1604 H   0  0  0  0  0  0  0  0  0  0  0  0
   -3.5354   -2.3432   -0.6351 H   0  0  0  0  0  0  0  0  0  0  0  0
   -2.5943   -3.6113   -2.0408 N   0  3  0  0  0  0  0  0  0  0  0  0
   -2.6201   -3.3039   -3.0120 H   0  0  0  0  0  0  0  0  0  0  0  0
   -2.6147   -4.8801   -1.7439 C   0  0  0  0  0  0  0  0  0  0  0  0
   -2.5875   -5.3205   -0.4352 N   0  0  0  0  0  0  0  0  0  0  0  0
   -2.4262   -4.6328    0.3083 H   0  0  0  0  0  0  0  0  0  0  0  0
   -2.3423   -6.2891   -0.2454 H   0  0  0  0  0  0  0  0  0  0  0  0
   -2.6642   -5.8140   -2.7511 N   0  0  0  0  0  0  0  0  0  0  0  0
   -2.8626   -5.5009   -3.6992 H   0  0  0  0  0  0  0  0  0  0  0  0
   -2.8931   -6.7758   -2.5070 H   0  0  0  0  0  0  0  0  0  0  0  0
   -1.4041    0.8127    1.6822 C   0  0  0  0  0  0  0  0  0  0  0  0
   -2.3471    1.5623    1.4597 O   0  0  0  0  0  0  0  0  0  0  0  0
   -0.3293    1.2651    2.4249 N   0  0  0  0  0  0  0  0  0  0  0  0
    0.4216    0.6117    2.6308 H   0  0  0  0  0  0  0  0  0  0  0  0
   -0.2287    2.6305    2.9313 C   0  0  0  0  0  0  0  0  0  0  0  0
   -1.0528    2.8473    3.6193 H   0  0  0  0  0  0  0  0  0  0  0  0
    0.7147    2.7679    3.4692 H   0  0  0  0  0  0  0  0  0  0  0  0
   -0.2623    3.3499    2.1060 H   0  0  0  0  0  0  0  0  0  0  0  0
  1  2  1  0  0  0  0
  2  3  1  0  0  0  0
  2  4  1  0  0  0  0
  2  5  1  0  0  0  0
  5  6  2  0  0  0  0
  5  7  1  0  0  0  0
  7  8  1  0  0  0  0
  7  9  1  0  0  0  0
  9 10  1  0  0  0  0
  9 11  1  0  0  0  0
  9 29  1  0  0  0  0
 11 12  1  0  0  0  0
 11 13  1  0  0  0  0
 11 14  1  0  0  0  0
 14 15  1  0  0  0  0
 14 16  1  0  0  0  0
 14 17  1  0  0  0  0
 17 18  1  0  0  0  0
 17 19  1  0  0  0  0
 17 20  1  0  0  0  0
 20 21  1  0  0  0  0
 20 22  2  0  0  0  0
 22 23  1  0  0  0  0
 22 26  1  0  0  0  0
 23 24  1  0  0  0  0
 23 25  1  0  0  0  0
 26 27  1  0  0  0  0
 26 28  1  0  0  0  0
 29 30  2  0  0  0  0
 29 31  1  0  0  0  0
 31 32  1  0  0  0  0
 31 33  1  0  0  0  0
 33 34  1  0  0  0  0
 33 35  1  0  0  0  0
 33 36  1  0  0  0  0
M  CHG  1  20   1
M  END
$$$$

  -OEChem-03222214013D

 36 35  0     1  0  0  0  0  0999 V2000
   -4.7773   -3.3530    3.2401 H   0  0  0  0  0  0  0  0  0  0  0  0
   -4.6455   -2.3482    2.8291 C   0  0  0  0  0  0  0  0  0  0  0  0
   -4.7167   -1.6255    3.6461 H   0  0  0  0  0  0  0  0  0  0  0  0
   -5.4449   -2.1519    2.1105 H   0  0  0  0  0  0  0  0  0  0  0  0
   -3.2941   -2.2292    2.1518 C   0  0  0  0  0  0  0  0  0  0  0  0
   -2.5778   -3.2168    2.0343 O   0  0  0  0  0  0  0  0  0  0  0  0
   -2.9294   -1.0376    1.5546 N   0  0  0  0  0  0  0  0  0  0  0  0
   -3.5714   -0.2546    1.6998 H   0  0  0  0  0  0  0  0  0  0  0  0
   -1.5392   -0.6383    1.2598 C   0  0  1  0  0  0  0  0  0  0  0  0
   -0.8772   -1.2322    1.8998 H   0  0  0  0  0  0  0  0  0  0  0  0
   -1.0024   -0.7651   -0.2081 C   0  0  0  0  0  0  0  0  0  0  0  0
   -0.6001    0.2035   -0.5268 H   0  0  0  0  0  0  0  0  0  0  0  0
   -0.1419   -1.4396   -0.1414 H   0  0  0  0  0  0  0  0  0  0  0  0
   -1.8628   -1.2961   -1.3837 C   0  0  0  0  0  0  0  0  0  0  0  0
   -2.3707   -0.4478   -1.8556 H   0  0  0  0  0  0  0  0  0  0  0  0
   -1.1856   -1.7255   -2.1298 H   0  0  0  0  0  0  0  0  0  0  0  0
   -2.9224   -2.3142   -0.9962 C   0  0  0  0  0  0  0  0  0  0  0  0
   -2.5806   -2.7815   -0.0783 H   0  0  0  0  0  0  0  0  0  0  0  0
   -3.8702   -1.8035   -0.7935 H   0  0  0  0  0  0  0  0  0  0  0  0
   -3.1023   -3.3734   -2.0009 N   0  3  0  0  0  0  0  0  0  0  0  0
   -3.2237   -3.0883   -2.9717 H   0  0  0  0  0  0  0  0  0  0  0  0
   -3.1099   -4.6379   -1.6828 C   0  0  0  0  0  0  0  0  0  0  0  0
   -2.9477   -5.0740   -0.3827 N   0  0  0  0  0  0  0  0  0  0  0  0
   -2.6959   -4.3910    0.3394 H   0  0  0  0  0  0  0  0  0  0  0  0
   -2.7106   -6.0484   -0.2140 H   0  0  0  0  0  0  0  0  0  0  0  0
   -3.2843   -5.5789   -2.6692 N   0  0  0  0  0  0  0  0  0  0  0  0
   -3.5962   -5.2700   -3.5876 H   0  0  0  0  0  0  0  0  0  0  0  0
   -3.4934   -6.5358   -2.3907 H   0  0  0  0  0  0  0  0  0  0  0  0
   -1.3847    0.8333    1.7058 C   0  0  0  0  0  0  0  0  0  0  0  0
   -2.3020    1.6165    1.4910 O   0  0  0  0  0  0  0  0  0  0  0  0
   -0.2802    1.2540    2.4232 N   0  0  0  0  0  0  0  0  0  0  0  0
    0.4494    0.5753    2.6234 H   0  0  0  0  0  0  0  0  0  0  0  0
   -0.1229    2.6187    2.9178 C   0  0  0  0  0  0  0  0  0  0  0  0
   -0.9317    2.8727    3.6116 H   0  0  0  0  0  0  0  0  0  0  0  0
    0.8295    2.7238    3.4465 H   0  0  0  0  0  0  0  0  0  0  0  0
   -0.1352    3.3326    2.0871 H   0  0  0  0  0  0  0  0  0  0  0  0
  1  2  1  0  0  0  0
  2  3  1  0  0  0  0
  2  4  1  0  0  0  0
  2  5  1  0  0  0  0
  5  6  2  0  0  0  0
  5  7  1  0  0  0  0
  7  8  1  0  0  0  0
  7  9  1  0  0  0  0
  9 10  1  0  0  0  0
  9 11  1  0  0  0  0
  9 29  1  0  0  0  0
 11 12  1  0  0  0  0
 11 13  1  0  0  0  0
 11 14  1  0  0  0  0
 14 15  1  0  0  0  0
 14 16  1  0  0  0  0
 14 17  1  0  0  0  0
 17 18  1  0  0  0  0
 17 19  1  0  0  0  0
 17 20  1  0  0  0  0
 20 21  1  0  0  0  0
 20 22  2  0  0  0  0
 22 23  1  0  0  0  0
 22 26  1  0  0  0  0
 23 24  1  0  0  0  0
 23 25  1  0  0  0  0
 26 27  1  0  0  0  0
 26 28  1  0  0  0  0
 29 30  2  0  0  0  0
 29 31  1  0  0  0  0
 31 32  1  0  0  0  0
 31 33  1  0  0  0  0
 33 34  1  0  0  0  0
 33 35  1  0  0  0  0
 33 36  1  0  0  0  0
M  CHG  1  20   1
M  END
$$$$

  -OEChem-03222214013D

 36 35  0     1  0  0  0  0  0999 V2000
   -5.1962   -2.6423    3.3232 H   0  0  0  0  0  0  0  0  0  0  0  0
   -4.9207   -1.6956    2.8497 C   0  0  0  0  0  0  0  0  0  0  0  0
   -5.6814   -1.4355    2.1095 H   0  0  0  0  0  0  0  0  0  0  0  0
   -4.8916   -0.9170    3.6166 H   0  0  0  0  0  0  0  0  0  0  0  0
   -3.5633   -1.8159    2.1841 C   0  0  0  0  0  0  0  0  0  0  0  0
   -2.9860   -2.8964    2.1458 O   0  0  0  0  0  0  0  0  0  0  0  0
   -3.0398   -0.7509    1.4781 N   0  0  0  0  0  0  0  0  0  0  0  0
   -3.5731    0.1202    1.5314 H   0  0  0  0  0  0  0  0  0  0  0  0
   -1.5967   -0.5653    1.2400 C   0  0  1  0  0  0  0  0  0  0  0  0
   -1.0622   -1.1443    2.0016 H   0  0  0  0  0  0  0  0  0  0  0  0
   -0.9811   -0.9682   -0.1426 C   0  0  0  0  0  0  0  0  0  0  0  0
   -0.4414   -0.1039   -0.5470 H   0  0  0  0  0  0  0  0  0  0  0  0
   -0.2120   -1.7107    0.0958 H   0  0  0  0  0  0  0  0  0  0  0  0
   -1.7878   -1.5690   -1.3272 C   0  0  0  0  0  0  0  0  0  0  0  0
   -1.8929   -0.7933   -2.0936 H   0  0  0  0  0  0  0  0  0  0  0  0
   -1.1742   -2.3644   -1.7643 H   0  0  0  0  0  0  0  0  0  0  0  0
   -3.1844   -2.1121   -1.0444 C   0  0  0  0  0  0  0  0  0  0  0  0
   -3.2243   -2.4545   -0.0177 H   0  0  0  0  0  0  0  0  0  0  0  0
   -3.9231   -1.3114   -1.1618 H   0  0  0  0  0  0  0  0  0  0  0  0
   -3.5034   -3.2580   -1.9124 N   0  3  0  0  0  0  0  0  0  0  0  0
   -3.6288   -3.0723   -2.9064 H   0  0  0  0  0  0  0  0  0  0  0  0
   -3.6074   -4.4768   -1.4600 C   0  0  0  0  0  0  0  0  0  0  0  0
   -3.4311   -4.7933   -0.1282 N   0  0  0  0  0  0  0  0  0  0  0  0
   -3.1153   -4.0661    0.5228 H   0  0  0  0  0  0  0  0  0  0  0  0
   -3.2953   -5.7643    0.1414 H   0  0  0  0  0  0  0  0  0  0  0  0
   -3.9017   -5.4942   -2.3361 N   0  0  0  0  0  0  0  0  0  0  0  0
   -4.2217   -5.2543   -3.2721 H   0  0  0  0  0  0  0  0  0  0  0  0
   -4.1830   -6.3942   -1.9520 H   0  0  0  0  0  0  0  0  0  0  0  0
   -1.2683    0.9180    1.5211 C   0  0  0  0  0  0  0  0  0  0  0  0
   -2.0612    1.7791    1.1600 O   0  0  0  0  0  0  0  0  0  0  0  0
   -0.1571    1.2782    2.2609 N   0  0  0  0  0  0  0  0  0  0  0  0
    0.4676    0.5422    2.5792 H   0  0  0  0  0  0  0  0  0  0  0  0
    0.1599    2.6622    2.6003 C   0  0  0  0  0  0  0  0  0  0  0  0
   -0.6551    3.1137    3.1766 H   0  0  0  0  0  0  0  0  0  0  0  0
    1.0727    2.7071    3.2026 H   0  0  0  0  0  0  0  0  0  0  0  0
    0.3171    3.2535    1.6918 H   0  0  0  0  0  0  0  0  0  0  0  0
  1  2  1  0  0  0  0
  2  3  1  0  0  0  0
  2  4  1  0  0  0  0
  2  5  1  0  0  0  0
  5  6  2  0  0  0  0
  5  7  1  0  0  0  0
  7  8  1  0  0  0  0
  7  9  1  0  0  0  0
  9 10  1  0  0  0  0
  9 11  1  0  0  0  0
  9 29  1  0  0  0  0
 11 12  1  0  0  0  0
 11 13  1  0  0  0  0
 11 14  1  0  0  0  0
 14 15  1  0  0  0  0
 14 16  1  0  0  0  0
 14 17  1  0  0  0  0
 17 18  1  0  0  0  0
 17 19  1  0  0  0  0
 17 20  1  0  0  0  0
 20 21  1  0  0  0  0
 20 22  2  0  0  0  0
 22 23  1  0  0  0  0
 22 26  1  0  0  0  0
 23 24  1  0  0  0  0
 23 25  1  0  0  0  0
 26 27  1  0  0  0  0
 26 28  1  0  0  0  0
 29 30  2  0  0  0  0
 29 31  1  0  0  0  0
 31 32  1  0  0  0  0
 31 33  1  0  0  0  0
 33 34  1  0  0  0  0
 33 35  1  0  0  0  0
 33 36  1  0  0  0  0
M  CHG  1  20   1
M  END
$$$$

  -OEChem-03222214013D

 36 35  0     1  0  0  0  0  0999 V2000
   -2.2232   -3.4027    4.0342 H   0  0  0  0  0  0  0  0  0  0  0  0
   -2.1002   -3.9352    3.0877 C   0  0  0  0  0  0  0  0  0  0  0  0
   -3.0815   -4.2458    2.7220 H   0  0  0  0  0  0  0  0  0  0  0  0
   -1.4902   -4.8259    3.2644 H   0  0  0  0  0  0  0  0  0  0  0  0
   -1.4249   -3.0357    2.0710 C   0  0  0  0  0  0  0  0  0  0  0  0
   -0.4301   -3.4157    1.4772 O   0  0  0  0  0  0  0  0  0  0  0  0
   -1.9766   -1.8107    1.7530 N   0  0  0  0  0  0  0  0  0  0  0  0
   -2.7461   -1.5067    2.3509 H   0  0  0  0  0  0  0  0  0  0  0  0
   -1.1890   -0.7228    1.1493 C   0  0  1  0  0  0  0  0  0  0  0  0
   -0.1300   -0.9115    1.3605 H   0  0  0  0  0  0  0  0  0  0  0  0
   -1.3075   -0.4756   -0.3905 C   0  0  0  0  0  0  0  0  0  0  0  0
   -1.5850    0.5736   -0.5445 H   0  0  0  0  0  0  0  0  0  0  0  0
   -0.2893   -0.5707   -0.7836 H   0  0  0  0  0  0  0  0  0  0  0  0
   -2.2131   -1.3083   -1.3409 C   0  0  0  0  0  0  0  0  0  0  0  0
   -2.8914   -0.6071   -1.8380 H   0  0  0  0  0  0  0  0  0  0  0  0
   -1.5733   -1.7364   -2.1206 H   0  0  0  0  0  0  0  0  0  0  0  0
   -3.0484   -2.4434   -0.7536 C   0  0  0  0  0  0  0  0  0  0  0  0
   -2.3767   -3.2269   -0.3846 H   0  0  0  0  0  0  0  0  0  0  0  0
   -3.6275   -2.0755    0.0988 H   0  0  0  0  0  0  0  0  0  0  0  0
   -3.9552   -3.0011   -1.7738 N   0  3  0  0  0  0  0  0  0  0  0  0
   -3.5801   -3.7395   -2.3685 H   0  0  0  0  0  0  0  0  0  0  0  0
   -5.1896   -2.6158   -1.9289 C   0  0  0  0  0  0  0  0  0  0  0  0
   -5.7383   -1.6107   -1.1636 N   0  0  0  0  0  0  0  0  0  0  0  0
   -5.1088   -1.0572   -0.5839 H   0  0  0  0  0  0  0  0  0  0  0  0
   -6.6060   -1.1782   -1.4733 H   0  0  0  0  0  0  0  0  0  0  0  0
   -5.9722   -3.2164   -2.8858 N   0  0  0  0  0  0  0  0  0  0  0  0
   -5.6348   -4.0690   -3.3285 H   0  0  0  0  0  0  0  0  0  0  0  0
   -6.9778   -3.0584   -2.8595 H   0  0  0  0  0  0  0  0  0  0  0  0
   -1.5562    0.5743    1.8997 C   0  0  0  0  0  0  0  0  0  0  0  0
   -2.7372    0.7897    2.1535 O   0  0  0  0  0  0  0  0  0  0  0  0
   -0.5852    1.4669    2.3124 N   0  0  0  0  0  0  0  0  0  0  0  0
    0.3871    1.2373    2.1209 H   0  0  0  0  0  0  0  0  0  0  0  0
   -0.8828    2.6790    3.0690 C   0  0  0  0  0  0  0  0  0  0  0  0
   -1.3873    2.4314    4.0091 H   0  0  0  0  0  0  0  0  0  0  0  0
    0.0416    3.2154    3.3056 H   0  0  0  0  0  0  0  0  0  0  0  0
   -1.5292    3.3457    2.4884 H   0  0  0  0  0  0  0  0  0  0  0  0
  1  2  1  0  0  0  0
  2  3  1  0  0  0  0
  2  4  1  0  0  0  0
  2  5  1  0  0  0  0
  5  6  2  0  0  0  0
  5  7  1  0  0  0  0
  7  8  1  0  0  0  0
  7  9  1  0  0  0  0
  9 10  1  0  0  0  0
  9 11  1  0  0  0  0
  9 29  1  0  0  0  0
 11 12  1  0  0  0  0
 11 13  1  0  0  0  0
 11 14  1  0  0  0  0
 14 15  1  0  0  0  0
 14 16  1  0  0  0  0
 14 17  1  0  0  0  0
 17 18  1  0  0  0  0
 17 19  1  0  0  0  0
 17 20  1  0  0  0  0
 20 21  1  0  0  0  0
 20 22  2  0  0  0  0
 22 23  1  0  0  0  0
 22 26  1  0  0  0  0
 23 24  1  0  0  0  0
 23 25  1  0  0  0  0
 26 27  1  0  0  0  0
 26 28  1  0  0  0  0
 29 30  2  0  0  0  0
 29 31  1  0  0  0  0
 31 32  1  0  0  0  0
 31 33  1  0  0  0  0
 33 34  1  0  0  0  0
 33 35  1  0  0  0  0
 33 36  1  0  0  0  0
M  CHG  1  20   1
M  END
$$$$

  -OEChem-03222214013D

 36 35  0     1  0  0  0  0  0999 V2000
   -2.5892   -4.3719    3.8912 H   0  0  0  0  0  0  0  0  0  0  0  0
   -3.0249   -3.4673    3.4571 C   0  0  0  0  0  0  0  0  0  0  0  0
   -3.2927   -2.7851    4.2677 H   0  0  0  0  0  0  0  0  0  0  0  0
   -3.9273   -3.7413    2.9062 H   0  0  0  0  0  0  0  0  0  0  0  0
   -2.0267   -2.8026    2.5285 C   0  0  0  0  0  0  0  0  0  0  0  0
   -0.9504   -3.3299    2.3049 O   0  0  0  0  0  0  0  0  0  0  0  0
   -2.3555   -1.6303    1.8767 N   0  0  0  0  0  0  0  0  0  0  0  0
   -3.2154   -1.1792    2.1901 H   0  0  0  0  0  0  0  0  0  0  0  0
   -1.3360   -0.7246    1.3198 C   0  0  1  0  0  0  0  0  0  0  0  0
   -0.3820   -0.9317    1.8184 H   0  0  0  0  0  0  0  0  0  0  0  0
   -1.0657   -0.7686   -0.2199 C   0  0  0  0  0  0  0  0  0  0  0  0
   -1.2161    0.2444   -0.6104 H   0  0  0  0  0  0  0  0  0  0  0  0
    0.0029   -0.9768   -0.3428 H   0  0  0  0  0  0  0  0  0  0  0  0
   -1.8166   -1.7126   -1.1961 C   0  0  0  0  0  0  0  0  0  0  0  0
   -2.0369   -1.1385   -2.1025 H   0  0  0  0  0  0  0  0  0  0  0  0
   -1.1268   -2.5125   -1.4862 H   0  0  0  0  0  0  0  0  0  0  0  0
   -3.0980   -2.3799   -0.7019 C   0  0  0  0  0  0  0  0  0  0  0  0
   -2.8379   -3.2057   -0.0304 H   0  0  0  0  0  0  0  0  0  0  0  0
   -3.6877   -1.6600   -0.1255 H   0  0  0  0  0  0  0  0  0  0  0  0
   -3.8906   -2.8812   -1.8390 N   0  3  0  0  0  0  0  0  0  0  0  0
   -3.6296   -3.7902   -2.2197 H   0  0  0  0  0  0  0  0  0  0  0  0
   -4.8816   -2.2212   -2.3671 C   0  0  0  0  0  0  0  0  0  0  0  0
   -5.2520   -0.9763   -1.9073 N   0  0  0  0  0  0  0  0  0  0  0  0
   -4.6349   -0.5082   -1.2440 H   0  0  0  0  0  0  0  0  0  0  0  0
   -5.8580   -0.3984   -2.4857 H   0  0  0  0  0  0  0  0  0  0  0  0
   -5.5764   -2.7688   -3.4189 N   0  0  0  0  0  0  0  0  0  0  0  0
   -5.4326   -3.7521   -3.6409 H   0  0  0  0  0  0  0  0  0  0  0  0
   -6.4615   -2.3435   -3.6881 H   0  0  0  0  0  0  0  0  0  0  0  0
   -1.7366    0.7103    1.7192 C   0  0  0  0  0  0  0  0  0  0  0  0
   -2.9097    1.0465    1.5844 O   0  0  0  0  0  0  0  0  0  0  0  0
   -0.8077    1.6077    2.2099 N   0  0  0  0  0  0  0  0  0  0  0  0
    0.1458    1.2802    2.3466 H   0  0  0  0  0  0  0  0  0  0  0  0
   -1.1499    2.9621    2.6313 C   0  0  0  0  0  0  0  0  0  0  0  0
   -1.8611    2.9371    3.4640 H   0  0  0  0  0  0  0  0  0  0  0  0
   -0.2522    3.4950    2.9602 H   0  0  0  0  0  0  0  0  0  0  0  0
   -1.5975    3.5217    1.8030 H   0  0  0  0  0  0  0  0  0  0  0  0
  1  2  1  0  0  0  0
  2  3  1  0  0  0  0
  2  4  1  0  0  0  0
  2  5  1  0  0  0  0
  5  6  2  0  0  0  0
  5  7  1  0  0  0  0
  7  8  1  0  0  0  0
  7  9  1  0  0  0  0
  9 10  1  0  0  0  0
  9 11  1  0  0  0  0
  9 29  1  0  0  0  0
 11 12  1  0  0  0  0
 11 13  1  0  0  0  0
 11 14  1  0  0  0  0
 14 15  1  0  0  0  0
 14 16  1  0  0  0  0
 14 17  1  0  0  0  0
 17 18  1  0  0  0  0
 17 19  1  0  0  0  0
 17 20  1  0  0  0  0
 20 21  1  0  0  0  0
 20 22  2  0  0  0  0
 22 23  1  0  0  0  0
 22 26  1  0  0  0  0
 23 24  1  0  0  0  0
 23 25  1  0  0  0  0
 26 27  1  0  0  0  0
 26 28  1  0  0  0  0
 29 30  2  0  0  0  0
 29 31  1  0  0  0  0
 31 32  1  0  0  0  0
 31 33  1  0  0  0  0
 33 34  1  0  0  0  0
 33 35  1  0  0  0  0
 33 36  1  0  0  0  0
M  CHG  1  20   1
M  END
$$$$

  -OEChem-03222214013D

 36 35  0     1  0  0  0  0  0999 V2000
   -2.6749   -4.3000    3.9912 H   0  0  0  0  0  0  0  0  0  0  0  0
   -3.1183   -3.4568    3.4533 C   0  0  0  0  0  0  0  0  0  0  0  0
   -3.5083   -2.7428    4.1828 H   0  0  0  0  0  0  0  0  0  0  0  0
   -3.9415   -3.8274    2.8385 H   0  0  0  0  0  0  0  0  0  0  0  0
   -2.0727   -2.7888    2.5813 C   0  0  0  0  0  0  0  0  0  0  0  0
   -0.9222   -3.1904    2.5883 O   0  0  0  0  0  0  0  0  0  0  0  0
   -2.4252   -1.7428    1.7496 N   0  0  0  0  0  0  0  0  0  0  0  0
   -3.3533   -1.3549    1.9115 H   0  0  0  0  0  0  0  0  0  0  0  0
   -1.4258   -0.8246    1.1760 C   0  0  1  0  0  0  0  0  0  0  0  0
   -0.5064   -0.8795    1.7708 H   0  0  0  0  0  0  0  0  0  0  0  0
   -1.0293   -1.0378   -0.3204 C   0  0  0  0  0  0  0  0  0  0  0  0
   -1.2130   -0.0984   -0.8535 H   0  0  0  0  0  0  0  0  0  0  0  0
    0.0566   -1.1838   -0.3410 H   0  0  0  0  0  0  0  0  0  0  0  0
   -1.6434   -2.1504   -1.2073 C   0  0  0  0  0  0  0  0  0  0  0  0
   -1.5294   -1.8630   -2.2580 H   0  0  0  0  0  0  0  0  0  0  0  0
   -1.0199   -3.0395   -1.0617 H   0  0  0  0  0  0  0  0  0  0  0  0
   -3.0851   -2.6016   -0.9265 C   0  0  0  0  0  0  0  0  0  0  0  0
   -3.0919   -3.6784   -0.7233 H   0  0  0  0  0  0  0  0  0  0  0  0
   -3.5037   -2.1002   -0.0565 H   0  0  0  0  0  0  0  0  0  0  0  0
   -3.9450   -2.3021   -2.0864 N   0  3  0  0  0  0  0  0  0  0  0  0
   -3.9592   -2.9894   -2.8389 H   0  0  0  0  0  0  0  0  0  0  0  0
   -4.6779   -1.2287   -2.1890 C   0  0  0  0  0  0  0  0  0  0  0  0
   -4.7012   -0.2420   -1.2278 N   0  0  0  0  0  0  0  0  0  0  0  0
   -3.9784   -0.2365   -0.5025 H   0  0  0  0  0  0  0  0  0  0  0  0
   -5.1280    0.6528   -1.4540 H   0  0  0  0  0  0  0  0  0  0  0  0
   -5.4713   -1.0651   -3.2995 N   0  0  0  0  0  0  0  0  0  0  0  0
   -5.6170   -1.8607   -3.9177 H   0  0  0  0  0  0  0  0  0  0  0  0
   -6.1865   -0.3405   -3.2782 H   0  0  0  0  0  0  0  0  0  0  0  0
   -1.9781    0.6049    1.3390 C   0  0  0  0  0  0  0  0  0  0  0  0
   -3.1324    0.8155    0.9692 O   0  0  0  0  0  0  0  0  0  0  0  0
   -1.1883    1.6438    1.7916 N   0  0  0  0  0  0  0  0  0  0  0  0
   -0.2482    1.4207    2.1126 H   0  0  0  0  0  0  0  0  0  0  0  0
   -1.6755    3.0093    1.9589 C   0  0  0  0  0  0  0  0  0  0  0  0
   -2.4816    3.0420    2.6997 H   0  0  0  0  0  0  0  0  0  0  0  0
   -0.8657    3.6610    2.3023 H   0  0  0  0  0  0  0  0  0  0  0  0
   -2.0531    3.4036    1.0095 H   0  0  0  0  0  0  0  0  0  0  0  0
  1  2  1  0  0  0  0
  2  3  1  0  0  0  0
  2  4  1  0  0  0  0
  2  5  1  0  0  0  0
  5  6  2  0  0  0  0
  5  7  1  0  0  0  0
  7  8  1  0  0  0  0
  7  9  1  0  0  0  0
  9 10  1  0  0  0  0
  9 11  1  0  0  0  0
  9 29  1  0  0  0  0
 11 12  1  0  0  0  0
 11 13  1  0  0  0  0
 11 14  1  0  0  0  0
 14 15  1  0  0  0  0
 14 16  1  0  0  0  0
 14 17  1  0  0  0  0
 17 18  1  0  0  0  0
 17 19  1  0  0  0  0
 17 20  1  0  0  0  0
 20 21  1  0  0  0  0
 20 22  2  0  0  0  0
 22 23  1  0  0  0  0
 22 26  1  0  0  0  0
 23 24  1  0  0  0  0
 23 25  1  0  0  0  0
 26 27  1  0  0  0  0
 26 28  1  0  0  0  0
 29 30  2  0  0  0  0
 29 31  1  0  0  0  0
 31 32  1  0  0  0  0
 31 33  1  0  0  0  0
 33 34  1  0  0  0  0
 33 35  1  0  0  0  0
 33 36  1  0  0  0  0
M  CHG  1  20   1
M  END
$$$$

  -OEChem-03222214013D

 36 35  0     1  0  0  0  0  0999 V2000
   -2.6552   -4.2915    3.9145 H   0  0  0  0  0  0  0  0  0  0  0  0
   -3.1262   -3.4962    3.3292 C   0  0  0  0  0  0  0  0  0  0  0  0
   -3.5920   -2.7859    4.0165 H   0  0  0  0  0  0  0  0  0  0  0  0
   -3.8967   -3.9377    2.6931 H   0  0  0  0  0  0  0  0  0  0  0  0
   -2.0872   -2.7923    2.4776 C   0  0  0  0  0  0  0  0  0  0  0  0
   -0.9309   -3.1776    2.4779 O   0  0  0  0  0  0  0  0  0  0  0  0
   -2.4538   -1.7333    1.6691 N   0  0  0  0  0  0  0  0  0  0  0  0
   -3.3880   -1.3611    1.8337 H   0  0  0  0  0  0  0  0  0  0  0  0
   -1.4680   -0.8007    1.0916 C   0  0  1  0  0  0  0  0  0  0  0  0
   -0.5338   -0.8645    1.6618 H   0  0  0  0  0  0  0  0  0  0  0  0
   -1.1177   -1.0192   -0.4132 C   0  0  0  0  0  0  0  0  0  0  0  0
   -1.3110   -0.0887   -0.9584 H   0  0  0  0  0  0  0  0  0  0  0  0
   -0.0368   -1.1881   -0.4724 H   0  0  0  0  0  0  0  0  0  0  0  0
   -1.7983   -2.1541   -1.2089 C   0  0  0  0  0  0  0  0  0  0  0  0
   -1.5496   -2.0532   -2.2708 H   0  0  0  0  0  0  0  0  0  0  0  0
   -1.3549   -3.0966   -0.8678 H   0  0  0  0  0  0  0  0  0  0  0  0
   -3.3181   -2.2749   -1.0137 C   0  0  0  0  0  0  0  0  0  0  0  0
   -3.5611   -3.3099   -0.7495 H   0  0  0  0  0  0  0  0  0  0  0  0
   -3.6577   -1.6382   -0.1945 H   0  0  0  0  0  0  0  0  0  0  0  0
   -4.0361   -1.8999   -2.2464 N   0  3  0  0  0  0  0  0  0  0  0  0
   -4.2119   -2.6465   -2.9173 H   0  0  0  0  0  0  0  0  0  0  0  0
   -4.5016   -0.7073   -2.4923 C   0  0  0  0  0  0  0  0  0  0  0  0
   -4.3307    0.3586   -1.6384 N   0  0  0  0  0  0  0  0  0  0  0  0
   -3.9037    0.2083   -0.7191 H   0  0  0  0  0  0  0  0  0  0  0  0
   -4.9010    1.1915   -1.7601 H   0  0  0  0  0  0  0  0  0  0  0  0
   -5.1949   -0.4898   -3.6591 N   0  0  0  0  0  0  0  0  0  0  0  0
   -5.1769   -1.2063   -4.3820 H   0  0  0  0  0  0  0  0  0  0  0  0
   -5.3740    0.4719   -3.9425 H   0  0  0  0  0  0  0  0  0  0  0  0
   -2.0100    0.6283    1.2812 C   0  0  0  0  0  0  0  0  0  0  0  0
   -3.1700    0.8536    0.9393 O   0  0  0  0  0  0  0  0  0  0  0  0
   -1.2036    1.6546    1.7319 N   0  0  0  0  0  0  0  0  0  0  0  0
   -0.2611    1.4177    2.0362 H   0  0  0  0  0  0  0  0  0  0  0  0
   -1.6786    3.0192    1.9358 C   0  0  0  0  0  0  0  0  0  0  0  0
   -2.4980    3.0370    2.6623 H   0  0  0  0  0  0  0  0  0  0  0  0
   -0.8681    3.6488    2.3167 H   0  0  0  0  0  0  0  0  0  0  0  0
   -2.0333    3.4487    0.9931 H   0  0  0  0  0  0  0  0  0  0  0  0
  1  2  1  0  0  0  0
  2  3  1  0  0  0  0
  2  4  1  0  0  0  0
  2  5  1  0  0  0  0
  5  6  2  0  0  0  0
  5  7  1  0  0  0  0
  7  8  1  0  0  0  0
  7  9  1  0  0  0  0
  9 10  1  0  0  0  0
  9 11  1  0  0  0  0
  9 29  1  0  0  0  0
 11 12  1  0  0  0  0
 11 13  1  0  0  0  0
 11 14  1  0  0  0  0
 14 15  1  0  0  0  0
 14 16  1  0  0  0  0
 14 17  1  0  0  0  0
 17 18  1  0  0  0  0
 17 19  1  0  0  0  0
 17 20  1  0  0  0  0
 20 21  1  0  0  0  0
 20 22  2  0  0  0  0
 22 23  1  0  0  0  0
 22 26  1  0  0  0  0
 23 24  1  0  0  0  0
 23 25  1  0  0  0  0
 26 27  1  0  0  0  0
 26 28  1  0  0  0  0
 29 30  2  0  0  0  0
 29 31  1  0  0  0  0
 31 32  1  0  0  0  0
 31 33  1  0  0  0  0
 33 34  1  0  0  0  0
 33 35  1  0  0  0  0
 33 36  1  0  0  0  0
M  CHG  1  20   1
M  END
$$$$

  -OEChem-03222214013D

 36 35  0     1  0  0  0  0  0999 V2000
   -3.6030   -4.2864    2.9597 H   0  0  0  0  0  0  0  0  0  0  0  0
   -3.7788   -3.2679    2.6014 C   0  0  0  0  0  0  0  0  0  0  0  0
   -4.1046   -2.6517    3.4431 H   0  0  0  0  0  0  0  0  0  0  0  0
   -4.5688   -3.2914    1.8475 H   0  0  0  0  0  0  0  0  0  0  0  0
   -2.5057   -2.6985    2.0059 C   0  0  0  0  0  0  0  0  0  0  0  0
   -1.4822   -3.3607    1.9957 O   0  0  0  0  0  0  0  0  0  0  0  0
   -2.5133   -1.4454    1.4266 N   0  0  0  0  0  0  0  0  0  0  0  0
   -3.3534   -0.8909    1.5893 H   0  0  0  0  0  0  0  0  0  0  0  0
   -1.2811   -0.6723    1.1891 C   0  0  1  0  0  0  0  0  0  0  0  0
   -0.4796   -1.0643    1.8257 H   0  0  0  0  0  0  0  0  0  0  0  0
   -0.7690   -0.6764   -0.2795 C   0  0  0  0  0  0  0  0  0  0  0  0
   -0.6756    0.3560   -0.6353 H   0  0  0  0  0  0  0  0  0  0  0  0
    0.2434   -1.0943   -0.2701 H   0  0  0  0  0  0  0  0  0  0  0  0
   -1.5799   -1.4627   -1.3252 C   0  0  0  0  0  0  0  0  0  0  0  0
   -1.0716   -1.3777   -2.2915 H   0  0  0  0  0  0  0  0  0  0  0  0
   -1.6002   -2.5228   -1.0487 H   0  0  0  0  0  0  0  0  0  0  0  0
   -3.0110   -0.9297   -1.4448 C   0  0  0  0  0  0  0  0  0  0  0  0
   -3.5847   -1.1890   -0.5515 H   0  0  0  0  0  0  0  0  0  0  0  0
   -2.9673    0.1625   -1.5175 H   0  0  0  0  0  0  0  0  0  0  0  0
   -3.6776   -1.4883   -2.6334 N   0  3  0  0  0  0  0  0  0  0  0  0
   -3.2566   -2.3123   -3.0606 H   0  0  0  0  0  0  0  0  0  0  0  0
   -4.7686   -0.9863   -3.1353 C   0  0  0  0  0  0  0  0  0  0  0  0
   -5.3693    0.1262   -2.5897 N   0  0  0  0  0  0  0  0  0  0  0  0
   -4.8591    0.6383   -1.8712 H   0  0  0  0  0  0  0  0  0  0  0  0
   -6.0537    0.6351   -3.1451 H   0  0  0  0  0  0  0  0  0  0  0  0
   -5.3440   -1.5729   -4.2370 N   0  0  0  0  0  0  0  0  0  0  0  0
   -5.0141   -2.4904   -4.5304 H   0  0  0  0  0  0  0  0  0  0  0  0
   -6.2935   -1.3041   -4.4890 H   0  0  0  0  0  0  0  0  0  0  0  0
   -1.5451    0.7784    1.6405 C   0  0  0  0  0  0  0  0  0  0  0  0
   -2.6052    1.3067    1.3143 O   0  0  0  0  0  0  0  0  0  0  0  0
   -0.6255    1.4772    2.3989 N   0  0  0  0  0  0  0  0  0  0  0  0
    0.2225    0.9930    2.6845 H   0  0  0  0  0  0  0  0  0  0  0  0
   -0.8536    2.8344    2.8840 C   0  0  0  0  0  0  0  0  0  0  0  0
   -1.7261    2.8650    3.5452 H   0  0  0  0  0  0  0  0  0  0  0  0
    0.0169    3.1880    3.4457 H   0  0  0  0  0  0  0  0  0  0  0  0
   -1.0231    3.5193    2.0465 H   0  0  0  0  0  0  0  0  0  0  0  0
  1  2  1  0  0  0  0
  2  3  1  0  0  0  0
  2  4  1  0  0  0  0
  2  5  1  0  0  0  0
  5  6  2  0  0  0  0
  5  7  1  0  0  0  0
  7  8  1  0  0  0  0
  7  9  1  0  0  0  0
  9 10  1  0  0  0  0
  9 11  1  0  0  0  0
  9 29  1  0  0  0  0
 11 12  1  0  0  0  0
 11 13  1  0  0  0  0
 11 14  1  0  0  0  0
 14 15  1  0  0  0  0
 14 16  1  0  0  0  0
 14 17  1  0  0  0  0
 17 18  1  0  0  0  0
 17 19  1  0  0  0  0
 17 20  1  0  0  0  0
 20 21  1  0  0  0  0
 20 22  2  0  0  0  0
 22 23  1  0  0  0  0
 22 26  1  0  0  0  0
 23 24  1  0  0  0  0
 23 25  1  0  0  0  0
 26 27  1  0  0  0  0
 26 28  1  0  0  0  0
 29 30  2  0  0  0  0
 29 31  1  0  0  0  0
 31 32  1  0  0  0  0
 31 33  1  0  0  0  0
 33 34  1  0  0  0  0
 33 35  1  0  0  0  0
 33 36  1  0  0  0  0
M  CHG  1  20   1
M  END
$$$$

  -OEChem-03222214013D

 36 35  0     1  0  0  0  0  0999 V2000
   -4.0079   -4.1291    2.5407 H   0  0  0  0  0  0  0  0  0  0  0  0
   -4.0887   -3.1333    2.0950 C   0  0  0  0  0  0  0  0  0  0  0  0
   -4.5441   -2.4596    2.8250 H   0  0  0  0  0  0  0  0  0  0  0  0
   -4.7296   -3.1933    1.2128 H   0  0  0  0  0  0  0  0  0  0  0  0
   -2.7138   -2.6253    1.7066 C   0  0  0  0  0  0  0  0  0  0  0  0
   -1.7353   -3.3381    1.8486 O   0  0  0  0  0  0  0  0  0  0  0  0
   -2.5694   -1.3710    1.1475 N   0  0  0  0  0  0  0  0  0  0  0  0
   -3.3940   -0.7732    1.1866 H   0  0  0  0  0  0  0  0  0  0  0  0
   -1.2734   -0.6657    1.1073 C   0  0  1  0  0  0  0  0  0  0  0  0
   -0.5901   -1.1059    1.8428 H   0  0  0  0  0  0  0  0  0  0  0  0
   -0.5726   -0.6772   -0.2795 C   0  0  0  0  0  0  0  0  0  0  0  0
   -0.3474    0.3453   -0.6041 H   0  0  0  0  0  0  0  0  0  0  0  0
    0.3911   -1.1808   -0.1480 H   0  0  0  0  0  0  0  0  0  0  0  0
   -1.3215   -1.4084   -1.4029 C   0  0  0  0  0  0  0  0  0  0  0  0
   -0.6390   -1.5705   -2.2438 H   0  0  0  0  0  0  0  0  0  0  0  0
   -1.6656   -2.3911   -1.0630 H   0  0  0  0  0  0  0  0  0  0  0  0
   -2.4879   -0.5303   -1.8562 C   0  0  0  0  0  0  0  0  0  0  0  0
   -3.1057   -0.2852   -0.9860 H   0  0  0  0  0  0  0  0  0  0  0  0
   -2.0892    0.4056   -2.2635 H   0  0  0  0  0  0  0  0  0  0  0  0
   -3.3043   -1.2148   -2.8720 N   0  3  0  0  0  0  0  0  0  0  0  0
   -2.8982   -2.0324   -3.3251 H   0  0  0  0  0  0  0  0  0  0  0  0
   -4.4836   -0.7950   -3.2282 C   0  0  0  0  0  0  0  0  0  0  0  0
   -5.0526    0.3236   -2.6607 N   0  0  0  0  0  0  0  0  0  0  0  0
   -4.4629    0.9062   -2.0670 H   0  0  0  0  0  0  0  0  0  0  0  0
   -5.8390    0.7651   -3.1322 H   0  0  0  0  0  0  0  0  0  0  0  0
   -5.1846   -1.4759   -4.1948 N   0  0  0  0  0  0  0  0  0  0  0  0
   -4.8481   -2.3893   -4.4939 H   0  0  0  0  0  0  0  0  0  0  0  0
   -6.1730   -1.2646   -4.3199 H   0  0  0  0  0  0  0  0  0  0  0  0
   -1.5275    0.7942    1.5330 C   0  0  0  0  0  0  0  0  0  0  0  0
   -2.4986    1.3795    1.0582 O   0  0  0  0  0  0  0  0  0  0  0  0
   -0.6976    1.4376    2.4305 N   0  0  0  0  0  0  0  0  0  0  0  0
    0.0707    0.9061    2.8336 H   0  0  0  0  0  0  0  0  0  0  0  0
   -0.9193    2.8049    2.8889 C   0  0  0  0  0  0  0  0  0  0  0  0
   -1.8808    2.8854    3.4071 H   0  0  0  0  0  0  0  0  0  0  0  0
   -0.1277    3.1049    3.5827 H   0  0  0  0  0  0  0  0  0  0  0  0
   -0.9162    3.5000    2.0426 H   0  0  0  0  0  0  0  0  0  0  0  0
  1  2  1  0  0  0  0
  2  3  1  0  0  0  0
  2  4  1  0  0  0  0
  2  5  1  0  0  0  0
  5  6  2  0  0  0  0
  5  7  1  0  0  0  0
  7  8  1  0  0  0  0
  7  9  1  0  0  0  0
  9 10  1  0  0  0  0
  9 11  1  0  0  0  0
  9 29  1  0  0  0  0
 11 12  1  0  0  0  0
 11 13  1  0  0  0  0
 11 14  1  0  0  0  0
 14 15  1  0  0  0  0
 14 16  1  0  0  0  0
 14 17  1  0  0  0  0
 17 18  1  0  0  0  0
 17 19  1  0  0  0  0
 17 20  1  0  0  0  0
 20 21  1  0  0  0  0
 20 22  2  0  0  0  0
 22 23  1  0  0  0  0
 22 26  1  0  0  0  0
 23 24  1  0  0  0  0
 23 25  1  0  0  0  0
 26 27  1  0  0  0  0
 26 28  1  0  0  0  0
 29 30  2  0  0  0  0
 29 31  1  0  0  0  0
 31 32  1  0  0  0  0
 31 33  1  0  0  0  0
 33 34  1  0  0  0  0
 33 35  1  0  0  0  0
 33 36  1  0  0  0  0
M  CHG  1  20   1
M  END
$$$$

  -OEChem-03222214013D

 36 35  0     1  0  0  0  0  0999 V2000
   -4.0155   -4.1242    2.6035 H   0  0  0  0  0  0  0  0  0  0  0  0
   -4.0893   -3.1268    2.1602 C   0  0  0  0  0  0  0  0  0  0  0  0
   -4.5349   -2.4505    2.8939 H   0  0  0  0  0  0  0  0  0  0  0  0
   -4.7354   -3.1793    1.2812 H   0  0  0  0  0  0  0  0  0  0  0  0
   -2.7121   -2.6288    1.7666 C   0  0  0  0  0  0  0  0  0  0  0  0
   -1.7312   -3.3274    1.9564 O   0  0  0  0  0  0  0  0  0  0  0  0
   -2.5655   -1.3940    1.1657 N   0  0  0  0  0  0  0  0  0  0  0  0
   -3.3962   -0.8035    1.1499 H   0  0  0  0  0  0  0  0  0  0  0  0
   -1.2714   -0.6882    1.1046 C   0  0  1  0  0  0  0  0  0  0  0  0
   -0.5833   -1.1021    1.8507 H   0  0  0  0  0  0  0  0  0  0  0  0
   -0.5775   -0.7276   -0.2849 C   0  0  0  0  0  0  0  0  0  0  0  0
   -0.3291    0.2844   -0.6260 H   0  0  0  0  0  0  0  0  0  0  0  0
    0.3785   -1.2422   -0.1378 H   0  0  0  0  0  0  0  0  0  0  0  0
   -1.3250   -1.4840   -1.3967 C   0  0  0  0  0  0  0  0  0  0  0  0
   -0.5943   -1.8650   -2.1180 H   0  0  0  0  0  0  0  0  0  0  0  0
   -1.8754   -2.3488   -1.0146 H   0  0  0  0  0  0  0  0  0  0  0  0
   -2.2372   -0.4824   -2.1011 C   0  0  0  0  0  0  0  0  0  0  0  0
   -2.8816   -0.0151   -1.3477 H   0  0  0  0  0  0  0  0  0  0  0  0
   -1.6232    0.3009   -2.5593 H   0  0  0  0  0  0  0  0  0  0  0  0
   -3.0623   -1.1392   -3.1288 N   0  3  0  0  0  0  0  0  0  0  0  0
   -2.8072   -2.0884   -3.3985 H   0  0  0  0  0  0  0  0  0  0  0  0
   -4.0740   -0.5521   -3.7004 C   0  0  0  0  0  0  0  0  0  0  0  0
   -4.4551    0.7255   -3.3537 N   0  0  0  0  0  0  0  0  0  0  0  0
   -4.0247    1.1457   -2.5305 H   0  0  0  0  0  0  0  0  0  0  0  0
   -5.3709    1.0631   -3.6418 H   0  0  0  0  0  0  0  0  0  0  0  0
   -4.7854   -1.2144   -4.6723 N   0  0  0  0  0  0  0  0  0  0  0  0
   -4.3967   -2.0712   -5.0615 H   0  0  0  0  0  0  0  0  0  0  0  0
   -5.4267   -0.6767   -5.2525 H   0  0  0  0  0  0  0  0  0  0  0  0
   -1.5321    0.7847    1.4804 C   0  0  0  0  0  0  0  0  0  0  0  0
   -2.4876    1.3601    0.9638 O   0  0  0  0  0  0  0  0  0  0  0  0
   -0.7071    1.4611    2.3584 N   0  0  0  0  0  0  0  0  0  0  0  0
    0.0483    0.9401    2.7980 H   0  0  0  0  0  0  0  0  0  0  0  0
   -0.9379    2.8416    2.7714 C   0  0  0  0  0  0  0  0  0  0  0  0
   -1.8995    2.9320    3.2876 H   0  0  0  0  0  0  0  0  0  0  0  0
   -0.1476    3.1705    3.4536 H   0  0  0  0  0  0  0  0  0  0  0  0
   -0.9413    3.5088    1.9028 H   0  0  0  0  0  0  0  0  0  0  0  0
  1  2  1  0  0  0  0
  2  3  1  0  0  0  0
  2  4  1  0  0  0  0
  2  5  1  0  0  0  0
  5  6  2  0  0  0  0
  5  7  1  0  0  0  0
  7  8  1  0  0  0  0
  7  9  1  0  0  0  0
  9 10  1  0  0  0  0
  9 11  1  0  0  0  0
  9 29  1  0  0  0  0
 11 12  1  0  0  0  0
 11 13  1  0  0  0  0
 11 14  1  0  0  0  0
 14 15  1  0  0  0  0
 14 16  1  0  0  0  0
 14 17  1  0  0  0  0
 17 18  1  0  0  0  0
 17 19  1  0  0  0  0
 17 20  1  0  0  0  0
 20 21  1  0  0  0  0
 20 22  2  0  0  0  0
 22 23  1  0  0  0  0
 22 26  1  0  0  0  0
 23 24  1  0  0  0  0
 23 25  1  0  0  0  0
 26 27  1  0  0  0  0
 26 28  1  0  0  0  0
 29 30  2  0  0  0  0
 29 31  1  0  0  0  0
 31 32  1  0  0  0  0
 31 33  1  0  0  0  0
 33 34  1  0  0  0  0
 33 35  1  0  0  0  0
 33 36  1  0  0  0  0
M  CHG  1  20   1
M  END
$$$$

  -OEChem-03222214013D

 36 35  0     1  0  0  0  0  0999 V2000
   -4.5614   -3.9399    1.8792 H   0  0  0  0  0  0  0  0  0  0  0  0
   -4.4767   -2.9842    1.3535 C   0  0  0  0  0  0  0  0  0  0  0  0
   -5.0732   -2.2390    1.8853 H   0  0  0  0  0  0  0  0  0  0  0  0
   -4.8695   -3.1042    0.3417 H   0  0  0  0  0  0  0  0  0  0  0  0
   -3.0254   -2.5471    1.3017 C   0  0  0  0  0  0  0  0  0  0  0  0
   -2.1581   -3.2459    1.7955 O   0  0  0  0  0  0  0  0  0  0  0  0
   -2.6783   -1.3673    0.6715 N   0  0  0  0  0  0  0  0  0  0  0  0
   -3.4535   -0.7583    0.4191 H   0  0  0  0  0  0  0  0  0  0  0  0
   -1.3750   -0.7105    0.8913 C   0  0  1  0  0  0  0  0  0  0  0  0
   -0.9105   -1.0861    1.8106 H   0  0  0  0  0  0  0  0  0  0  0  0
   -0.3577   -0.8499   -0.2755 C   0  0  0  0  0  0  0  0  0  0  0  0
    0.0347    0.1301   -0.5718 H   0  0  0  0  0  0  0  0  0  0  0  0
    0.4979   -1.3950    0.1379 H   0  0  0  0  0  0  0  0  0  0  0  0
   -0.8155   -1.6408   -1.5181 C   0  0  0  0  0  0  0  0  0  0  0  0
    0.0029   -2.2877   -1.8522 H   0  0  0  0  0  0  0  0  0  0  0  0
   -1.6613   -2.3021   -1.3159 H   0  0  0  0  0  0  0  0  0  0  0  0
   -1.1213   -0.6368   -2.6338 C   0  0  0  0  0  0  0  0  0  0  0  0
   -1.2485    0.3627   -2.2049 H   0  0  0  0  0  0  0  0  0  0  0  0
   -0.2645   -0.5866   -3.3153 H   0  0  0  0  0  0  0  0  0  0  0  0
   -2.3367   -1.0070   -3.3790 N   0  3  0  0  0  0  0  0  0  0  0  0
   -2.2153   -1.6320   -4.1748 H   0  0  0  0  0  0  0  0  0  0  0  0
   -3.5084   -0.4846   -3.1504 C   0  0  0  0  0  0  0  0  0  0  0  0
   -3.7514    0.3849   -2.1087 N   0  0  0  0  0  0  0  0  0  0  0  0
   -2.9689    0.6983   -1.5246 H   0  0  0  0  0  0  0  0  0  0  0  0
   -4.5735    0.9826   -2.1479 H   0  0  0  0  0  0  0  0  0  0  0  0
   -4.5545   -0.8076   -3.9814 N   0  0  0  0  0  0  0  0  0  0  0  0
   -4.4391   -1.5643   -4.6528 H   0  0  0  0  0  0  0  0  0  0  0  0
   -5.4987   -0.5424   -3.7083 H   0  0  0  0  0  0  0  0  0  0  0  0
   -1.6580    0.7918    1.0877 C   0  0  0  0  0  0  0  0  0  0  0  0
   -2.4019    1.3480    0.2789 O   0  0  0  0  0  0  0  0  0  0  0  0
   -1.0541    1.5166    2.0961 N   0  0  0  0  0  0  0  0  0  0  0  0
   -0.4549    1.0160    2.7495 H   0  0  0  0  0  0  0  0  0  0  0  0
   -1.2776    2.9430    2.3066 C   0  0  0  0  0  0  0  0  0  0  0  0
   -2.3333    3.1393    2.5217 H   0  0  0  0  0  0  0  0  0  0  0  0
   -0.6821    3.2990    3.1535 H   0  0  0  0  0  0  0  0  0  0  0  0
   -0.9863    3.5136    1.4184 H   0  0  0  0  0  0  0  0  0  0  0  0
  1  2  1  0  0  0  0
  2  3  1  0  0  0  0
  2  4  1  0  0  0  0
  2  5  1  0  0  0  0
  5  6  2  0  0  0  0
  5  7  1  0  0  0  0
  7  8  1  0  0  0  0
  7  9  1  0  0  0  0
  9 10  1  0  0  0  0
  9 11  1  0  0  0  0
  9 29  1  0  0  0  0
 11 12  1  0  0  0  0
 11 13  1  0  0  0  0
 11 14  1  0  0  0  0
 14 15  1  0  0  0  0
 14 16  1  0  0  0  0
 14 17  1  0  0  0  0
 17 18  1  0  0  0  0
 17 19  1  0  0  0  0
 17 20  1  0  0  0  0
 20 21  1  0  0  0  0
 20 22  2  0  0  0  0
 22 23  1  0  0  0  0
 22 26  1  0  0  0  0
 23 24  1  0  0  0  0
 23 25  1  0  0  0  0
 26 27  1  0  0  0  0
 26 28  1  0  0  0  0
 29 30  2  0  0  0  0
 29 31  1  0  0  0  0
 31 32  1  0  0  0  0
 31 33  1  0  0  0  0
 33 34  1  0  0  0  0
 33 35  1  0  0  0  0
 33 36  1  0  0  0  0
M  CHG  1  20   1
M  END
$$$$

  -OEChem-03222214013D

 36 35  0     1  0  0  0  0  0999 V2000
   -4.3808   -4.0890    2.0596 H   0  0  0  0  0  0  0  0  0  0  0  0
   -4.3595   -3.1519    1.4957 C   0  0  0  0  0  0  0  0  0  0  0  0
   -5.0049   -2.4272    1.9977 H   0  0  0  0  0  0  0  0  0  0  0  0
   -4.7432   -3.3393    0.4905 H   0  0  0  0  0  0  0  0  0  0  0  0
   -2.9402   -2.6225    1.4228 C   0  0  0  0  0  0  0  0  0  0  0  0
   -2.0341   -3.2281    1.9679 O   0  0  0  0  0  0  0  0  0  0  0  0
   -2.6618   -1.4688    0.7140 N   0  0  0  0  0  0  0  0  0  0  0  0
   -3.4698   -0.9307    0.4073 H   0  0  0  0  0  0  0  0  0  0  0  0
   -1.3951   -0.7292    0.8694 C   0  0  1  0  0  0  0  0  0  0  0  0
   -0.9118   -1.0196    1.8097 H   0  0  0  0  0  0  0  0  0  0  0  0
   -0.3703   -0.9273   -0.2838 C   0  0  0  0  0  0  0  0  0  0  0  0
   -0.0516    0.0478   -0.6678 H   0  0  0  0  0  0  0  0  0  0  0  0
    0.5241   -1.3660    0.1722 H   0  0  0  0  0  0  0  0  0  0  0  0
   -0.7644   -1.8543   -1.4588 C   0  0  0  0  0  0  0  0  0  0  0  0
   -0.0227   -2.6574   -1.5307 H   0  0  0  0  0  0  0  0  0  0  0  0
   -1.7267   -2.3486   -1.3137 H   0  0  0  0  0  0  0  0  0  0  0  0
   -0.7564   -1.0683   -2.7766 C   0  0  0  0  0  0  0  0  0  0  0  0
   -0.5470   -0.0099   -2.5900 H   0  0  0  0  0  0  0  0  0  0  0  0
    0.0554   -1.4470   -3.4078 H   0  0  0  0  0  0  0  0  0  0  0  0
   -2.0393   -1.2048   -3.4924 N   0  3  0  0  0  0  0  0  0  0  0  0
   -2.1380   -2.0159   -4.1014 H   0  0  0  0  0  0  0  0  0  0  0  0
   -2.9872   -0.3105   -3.4693 C   0  0  0  0  0  0  0  0  0  0  0  0
   -2.9400    0.8078   -2.6687 N   0  0  0  0  0  0  0  0  0  0  0  0
   -2.3328    0.7808   -1.8450 H   0  0  0  0  0  0  0  0  0  0  0  0
   -3.7840    1.3672   -2.5765 H   0  0  0  0  0  0  0  0  0  0  0  0
   -4.0826   -0.4771   -4.2826 N   0  0  0  0  0  0  0  0  0  0  0  0
   -4.0379   -1.1791   -5.0186 H   0  0  0  0  0  0  0  0  0  0  0  0
   -4.6979    0.3214   -4.4263 H   0  0  0  0  0  0  0  0  0  0  0  0
   -1.7237    0.7720    0.9749 C   0  0  0  0  0  0  0  0  0  0  0  0
   -2.4614    1.2630    0.1218 O   0  0  0  0  0  0  0  0  0  0  0  0
   -1.1265    1.5762    1.9255 N   0  0  0  0  0  0  0  0  0  0  0  0
   -0.5326    1.1288    2.6210 H   0  0  0  0  0  0  0  0  0  0  0  0
   -1.3702    3.0107    2.0360 C   0  0  0  0  0  0  0  0  0  0  0  0
   -2.4302    3.2077    2.2290 H   0  0  0  0  0  0  0  0  0  0  0  0
   -0.7863    3.4313    2.8609 H   0  0  0  0  0  0  0  0  0  0  0  0
   -1.0781    3.5232    1.1134 H   0  0  0  0  0  0  0  0  0  0  0  0
  1  2  1  0  0  0  0
  2  3  1  0  0  0  0
  2  4  1  0  0  0  0
  2  5  1  0  0  0  0
  5  6  2  0  0  0  0
  5  7  1  0  0  0  0
  7  8  1  0  0  0  0
  7  9  1  0  0  0  0
  9 10  1  0  0  0  0
  9 11  1  0  0  0  0
  9 29  1  0  0  0  0
 11 12  1  0  0  0  0
 11 13  1  0  0  0  0
 11 14  1  0  0  0  0
 14 15  1  0  0  0  0
 14 16  1  0  0  0  0
 14 17  1  0  0  0  0
 17 18  1  0  0  0  0
 17 19  1  0  0  0  0
 17 20  1  0  0  0  0
 20 21  1  0  0  0  0
 20 22  2  0  0  0  0
 22 23  1  0  0  0  0
 22 26  1  0  0  0  0
 23 24  1  0  0  0  0
 23 25  1  0  0  0  0
 26 27  1  0  0  0  0
 26 28  1  0  0  0  0
 29 30  2  0  0  0  0
 29 31  1  0  0  0  0
 31 32  1  0  0  0  0
 31 33  1  0  0  0  0
 33 34  1  0  0  0  0
 33 35  1  0  0  0  0
 33 36  1  0  0  0  0
M  CHG  1  20   1
M  END
$$$$

  -OEChem-03222214013D

 36 35  0     1  0  0  0  0  0999 V2000
   -4.3003   -4.1033    2.2481 H   0  0  0  0  0  0  0  0  0  0  0  0
   -4.3047   -3.1918    1.6432 C   0  0  0  0  0  0  0  0  0  0  0  0
   -4.9571   -2.4574    2.1218 H   0  0  0  0  0  0  0  0  0  0  0  0
   -4.6984   -3.4307    0.6526 H   0  0  0  0  0  0  0  0  0  0  0  0
   -2.8975   -2.6382    1.5271 C   0  0  0  0  0  0  0  0  0  0  0  0
   -1.9750   -3.1840    2.1075 O   0  0  0  0  0  0  0  0  0  0  0  0
   -2.6495   -1.5271    0.7435 N   0  0  0  0  0  0  0  0  0  0  0  0
   -3.4708   -1.0351    0.3959 H   0  0  0  0  0  0  0  0  0  0  0  0
   -1.3974   -0.7532    0.8290 C   0  0  1  0  0  0  0  0  0  0  0  0
   -0.8994   -0.9736    1.7803 H   0  0  0  0  0  0  0  0  0  0  0  0
   -0.3827   -1.0349   -0.3170 C   0  0  0  0  0  0  0  0  0  0  0  0
   -0.1266   -0.0859   -0.7994 H   0  0  0  0  0  0  0  0  0  0  0  0
    0.5439   -1.3909    0.1462 H   0  0  0  0  0  0  0  0  0  0  0  0
   -0.7793   -2.0675   -1.4017 C   0  0  0  0  0  0  0  0  0  0  0  0
   -0.2263   -2.9962   -1.2213 H   0  0  0  0  0  0  0  0  0  0  0  0
   -1.8388   -2.3284   -1.3690 H   0  0  0  0  0  0  0  0  0  0  0  0
   -0.4463   -1.5351   -2.8028 C   0  0  0  0  0  0  0  0  0  0  0  0
    0.0719   -0.5726   -2.7363 H   0  0  0  0  0  0  0  0  0  0  0  0
    0.2466   -2.2353   -3.2832 H   0  0  0  0  0  0  0  0  0  0  0  0
   -1.6544   -1.4037   -3.6429 N   0  3  0  0  0  0  0  0  0  0  0  0
   -1.8528   -2.1771   -4.2763 H   0  0  0  0  0  0  0  0  0  0  0  0
   -2.4060   -0.3402   -3.6957 C   0  0  0  0  0  0  0  0  0  0  0  0
   -2.2236    0.7403   -2.8662 N   0  0  0  0  0  0  0  0  0  0  0  0
   -1.7424    0.5681   -1.9825 H   0  0  0  0  0  0  0  0  0  0  0  0
   -2.9682    1.4322   -2.8231 H   0  0  0  0  0  0  0  0  0  0  0  0
   -3.4252   -0.2851   -4.6161 N   0  0  0  0  0  0  0  0  0  0  0  0
   -3.4454   -0.9765   -5.3631 H   0  0  0  0  0  0  0  0  0  0  0  0
   -3.8671    0.6157   -4.7902 H   0  0  0  0  0  0  0  0  0  0  0  0
   -1.7396    0.7486    0.8439 C   0  0  0  0  0  0  0  0  0  0  0  0
   -2.4706    1.1844   -0.0426 O   0  0  0  0  0  0  0  0  0  0  0  0
   -1.1352    1.6179    1.7308 N   0  0  0  0  0  0  0  0  0  0  0  0
   -0.5497    1.2187    2.4621 H   0  0  0  0  0  0  0  0  0  0  0  0
   -1.4108    3.0506    1.7639 C   0  0  0  0  0  0  0  0  0  0  0  0
   -2.4755    3.2334    1.9447 H   0  0  0  0  0  0  0  0  0  0  0  0
   -0.8393    3.5281    2.5662 H   0  0  0  0  0  0  0  0  0  0  0  0
   -1.1286    3.5191    0.8152 H   0  0  0  0  0  0  0  0  0  0  0  0
  1  2  1  0  0  0  0
  2  3  1  0  0  0  0
  2  4  1  0  0  0  0
  2  5  1  0  0  0  0
  5  6  2  0  0  0  0
  5  7  1  0  0  0  0
  7  8  1  0  0  0  0
  7  9  1  0  0  0  0
  9 10  1  0  0  0  0
  9 11  1  0  0  0  0
  9 29  1  0  0  0  0
 11 12  1  0  0  0  0
 11 13  1  0  0  0  0
 11 14  1  0  0  0  0
 14 15  1  0  0  0  0
 14 16  1  0  0  0  0
 14 17  1  0  0  0  0
 17 18  1  0  0  0  0
 17 19  1  0  0  0  0
 17 20  1  0  0  0  0
 20 21  1  0  0  0  0
 20 22  2  0  0  0  0
 22 23  1  0  0  0  0
 22 26  1  0  0  0  0
 23 24  1  0  0  0  0
 23 25  1  0  0  0  0
 26 27  1  0  0  0  0
 26 28  1  0  0  0  0
 29 30  2  0  0  0  0
 29 31  1  0  0  0  0
 31 32  1  0  0  0  0
 31 33  1  0  0  0  0
 33 34  1  0  0  0  0
 33 35  1  0  0  0  0
 33 36  1  0  0  0  0
M  CHG  1  20   1
M  END
$$$$

  -OEChem-03222214013D

 36 35  0     1  0  0  0  0  0999 V2000
   -4.0696   -4.0668    2.5955 H   0  0  0  0  0  0  0  0  0  0  0  0
   -4.1445   -3.0658    2.1614 C   0  0  0  0  0  0  0  0  0  0  0  0
   -4.5758   -2.3929    2.9065 H   0  0  0  0  0  0  0  0  0  0  0  0
   -4.8046   -3.1068    1.2921 H   0  0  0  0  0  0  0  0  0  0  0  0
   -2.7709   -2.5714    1.7508 C   0  0  0  0  0  0  0  0  0  0  0  0
   -1.7977   -3.2991    1.8609 O   0  0  0  0  0  0  0  0  0  0  0  0
   -2.6216   -1.3117    1.2067 N   0  0  0  0  0  0  0  0  0  0  0  0
   -3.4453   -0.7097    1.2255 H   0  0  0  0  0  0  0  0  0  0  0  0
   -1.3224   -0.6239    1.1060 C   0  0  1  0  0  0  0  0  0  0  0  0
   -0.6266   -1.0881    1.8139 H   0  0  0  0  0  0  0  0  0  0  0  0
   -0.6679   -0.6973   -0.3016 C   0  0  0  0  0  0  0  0  0  0  0  0
   -0.5084    0.3287   -0.6528 H   0  0  0  0  0  0  0  0  0  0  0  0
    0.3236   -1.1518   -0.2027 H   0  0  0  0  0  0  0  0  0  0  0  0
   -1.4488   -1.4646   -1.3892 C   0  0  0  0  0  0  0  0  0  0  0  0
   -1.1928   -2.5289   -1.3418 H   0  0  0  0  0  0  0  0  0  0  0  0
   -2.5273   -1.3666   -1.2358 H   0  0  0  0  0  0  0  0  0  0  0  0
   -1.1392   -0.8743   -2.7638 C   0  0  0  0  0  0  0  0  0  0  0  0
   -1.4270    0.1828   -2.7689 H   0  0  0  0  0  0  0  0  0  0  0  0
   -0.0612   -0.9428   -2.9488 H   0  0  0  0  0  0  0  0  0  0  0  0
   -1.8775   -1.6068   -3.8088 N   0  3  0  0  0  0  0  0  0  0  0  0
   -2.3950   -2.4350   -3.5166 H   0  0  0  0  0  0  0  0  0  0  0  0
   -1.8950   -1.2491   -5.0606 C   0  0  0  0  0  0  0  0  0  0  0  0
   -1.2232   -0.1326   -5.5045 N   0  0  0  0  0  0  0  0  0  0  0  0
   -0.8410    0.5008   -4.8051 H   0  0  0  0  0  0  0  0  0  0  0  0
   -1.4594    0.2490   -6.4183 H   0  0  0  0  0  0  0  0  0  0  0  0
   -2.6022   -1.9959   -5.9724 N   0  0  0  0  0  0  0  0  0  0  0  0
   -2.9525   -2.9096   -5.6909 H   0  0  0  0  0  0  0  0  0  0  0  0
   -2.4396   -1.8320   -6.9644 H   0  0  0  0  0  0  0  0  0  0  0  0
   -1.4839    0.8417    1.5583 C   0  0  0  0  0  0  0  0  0  0  0  0
   -2.4477    1.4831    1.1562 O   0  0  0  0  0  0  0  0  0  0  0  0
   -0.5665    1.4330    2.4070 N   0  0  0  0  0  0  0  0  0  0  0  0
    0.1808    0.8510    2.7773 H   0  0  0  0  0  0  0  0  0  0  0  0
   -0.7099    2.7936    2.9151 C   0  0  0  0  0  0  0  0  0  0  0  0
   -1.6224    2.8860    3.5139 H   0  0  0  0  0  0  0  0  0  0  0  0
    0.1451    3.0547    3.5467 H   0  0  0  0  0  0  0  0  0  0  0  0
   -0.7580    3.5103    2.0883 H   0  0  0  0  0  0  0  0  0  0  0  0
  1  2  1  0  0  0  0
  2  3  1  0  0  0  0
  2  4  1  0  0  0  0
  2  5  1  0  0  0  0
  5  6  2  0  0  0  0
  5  7  1  0  0  0  0
  7  8  1  0  0  0  0
  7  9  1  0  0  0  0
  9 10  1  0  0  0  0
  9 11  1  0  0  0  0
  9 29  1  0  0  0  0
 11 12  1  0  0  0  0
 11 13  1  0  0  0  0
 11 14  1  0  0  0  0
 14 15  1  0  0  0  0
 14 16  1  0  0  0  0
 14 17  1  0  0  0  0
 17 18  1  0  0  0  0
 17 19  1  0  0  0  0
 17 20  1  0  0  0  0
 20 21  1  0  0  0  0
 20 22  2  0  0  0  0
 22 23  1  0  0  0  0
 22 26  1  0  0  0  0
 23 24  1  0  0  0  0
 23 25  1  0  0  0  0
 26 27  1  0  0  0  0
 26 28  1  0  0  0  0
 29 30  2  0  0  0  0
 29 31  1  0  0  0  0
 31 32  1  0  0  0  0
 31 33  1  0  0  0  0
 33 34  1  0  0  0  0
 33 35  1  0  0  0  0
 33 36  1  0  0  0  0
M  CHG  1  20   1
M  END
$$$$

  -OEChem-03222214013D

 36 35  0     1  0  0  0  0  0999 V2000
   -4.0899   -4.0443    2.5386 H   0  0  0  0  0  0  0  0  0  0  0  0
   -4.1569   -3.0456    2.0971 C   0  0  0  0  0  0  0  0  0  0  0  0
   -4.5928   -2.3664    2.8341 H   0  0  0  0  0  0  0  0  0  0  0  0
   -4.8084   -3.0892    1.2213 H   0  0  0  0  0  0  0  0  0  0  0  0
   -2.7774   -2.5595    1.6964 C   0  0  0  0  0  0  0  0  0  0  0  0
   -1.8122   -3.2994    1.7960 O   0  0  0  0  0  0  0  0  0  0  0  0
   -2.6130   -1.2949    1.1686 N   0  0  0  0  0  0  0  0  0  0  0  0
   -3.4313   -0.6859    1.1928 H   0  0  0  0  0  0  0  0  0  0  0  0
   -1.3078   -0.6132    1.0967 C   0  0  1  0  0  0  0  0  0  0  0  0
   -0.6236   -1.0895    1.8076 H   0  0  0  0  0  0  0  0  0  0  0  0
   -0.6436   -0.6785   -0.3049 C   0  0  0  0  0  0  0  0  0  0  0  0
   -0.4713    0.3445   -0.6586 H   0  0  0  0  0  0  0  0  0  0  0  0
    0.3393   -1.1511   -0.2033 H   0  0  0  0  0  0  0  0  0  0  0  0
   -1.4431   -1.4336   -1.3805 C   0  0  0  0  0  0  0  0  0  0  0  0
   -1.4034   -2.5098   -1.1778 H   0  0  0  0  0  0  0  0  0  0  0  0
   -2.4908   -1.1157   -1.3582 H   0  0  0  0  0  0  0  0  0  0  0  0
   -0.8808   -1.1164   -2.7642 C   0  0  0  0  0  0  0  0  0  0  0  0
   -0.9527   -0.0374   -2.9405 H   0  0  0  0  0  0  0  0  0  0  0  0
    0.1756   -1.4059   -2.7968 H   0  0  0  0  0  0  0  0  0  0  0  0
   -1.6393   -1.8522   -3.7918 N   0  3  0  0  0  0  0  0  0  0  0  0
   -2.3736   -2.4786   -3.4645 H   0  0  0  0  0  0  0  0  0  0  0  0
   -1.4205   -1.7377   -5.0698 C   0  0  0  0  0  0  0  0  0  0  0  0
   -0.4522   -0.8955   -5.5674 N   0  0  0  0  0  0  0  0  0  0  0  0
   -0.0124   -0.2422   -4.9223 H   0  0  0  0  0  0  0  0  0  0  0  0
   -0.4767   -0.6512   -6.5554 H   0  0  0  0  0  0  0  0  0  0  0  0
   -2.1736   -2.4708   -5.9554 N   0  0  0  0  0  0  0  0  0  0  0  0
   -2.7606   -3.2205   -5.5946 H   0  0  0  0  0  0  0  0  0  0  0  0
   -1.8607   -2.5333   -6.9225 H   0  0  0  0  0  0  0  0  0  0  0  0
   -1.4665    0.8484    1.5620 C   0  0  0  0  0  0  0  0  0  0  0  0
   -2.4273    1.4956    1.1627 O   0  0  0  0  0  0  0  0  0  0  0  0
   -0.5598    1.4259    2.4315 N   0  0  0  0  0  0  0  0  0  0  0  0
    0.1855    0.8400    2.7993 H   0  0  0  0  0  0  0  0  0  0  0  0
   -0.7119    2.7785    2.9582 C   0  0  0  0  0  0  0  0  0  0  0  0
   -1.6374    2.8621    3.5381 H   0  0  0  0  0  0  0  0  0  0  0  0
    0.1294    3.0285    3.6121 H   0  0  0  0  0  0  0  0  0  0  0  0
   -0.7411    3.5083    2.1419 H   0  0  0  0  0  0  0  0  0  0  0  0
  1  2  1  0  0  0  0
  2  3  1  0  0  0  0
  2  4  1  0  0  0  0
  2  5  1  0  0  0  0
  5  6  2  0  0  0  0
  5  7  1  0  0  0  0
  7  8  1  0  0  0  0
  7  9  1  0  0  0  0
  9 10  1  0  0  0  0
  9 11  1  0  0  0  0
  9 29  1  0  0  0  0
 11 12  1  0  0  0  0
 11 13  1  0  0  0  0
 11 14  1  0  0  0  0
 14 15  1  0  0  0  0
 14 16  1  0  0  0  0
 14 17  1  0  0  0  0
 17 18  1  0  0  0  0
 17 19  1  0  0  0  0
 17 20  1  0  0  0  0
 20 21  1  0  0  0  0
 20 22  2  0  0  0  0
 22 23  1  0  0  0  0
 22 26  1  0  0  0  0
 23 24  1  0  0  0  0
 23 25  1  0  0  0  0
 26 27  1  0  0  0  0
 26 28  1  0  0  0  0
 29 30  2  0  0  0  0
 29 31  1  0  0  0  0
 31 32  1  0  0  0  0
 31 33  1  0  0  0  0
 33 34  1  0  0  0  0
 33 35  1  0  0  0  0
 33 36  1  0  0  0  0
M  CHG  1  20   1
M  END
$$$$

  -OEChem-03222214013D

 36 35  0     1  0  0  0  0  0999 V2000
   -4.0482   -4.0829    2.4972 H   0  0  0  0  0  0  0  0  0  0  0  0
   -4.1157   -3.0796    2.0668 C   0  0  0  0  0  0  0  0  0  0  0  0
   -4.5652   -2.4114    2.8056 H   0  0  0  0  0  0  0  0  0  0  0  0
   -4.7554   -3.1173    1.1822 H   0  0  0  0  0  0  0  0  0  0  0  0
   -2.7341   -2.5803    1.6902 C   0  0  0  0  0  0  0  0  0  0  0  0
   -1.7599   -3.3009    1.8324 O   0  0  0  0  0  0  0  0  0  0  0  0
   -2.5755   -1.3198    1.1515 N   0  0  0  0  0  0  0  0  0  0  0  0
   -3.4018   -0.7212    1.1504 H   0  0  0  0  0  0  0  0  0  0  0  0
   -1.2766   -0.6252    1.0989 C   0  0  1  0  0  0  0  0  0  0  0  0
   -0.5853   -1.0813    1.8164 H   0  0  0  0  0  0  0  0  0  0  0  0
   -0.6155   -0.6705   -0.3022 C   0  0  0  0  0  0  0  0  0  0  0  0
   -0.1729    0.3051   -0.5334 H   0  0  0  0  0  0  0  0  0  0  0  0
    0.2054   -1.3944   -0.2579 H   0  0  0  0  0  0  0  0  0  0  0  0
   -1.5528   -1.0871   -1.4462 C   0  0  0  0  0  0  0  0  0  0  0  0
   -1.9488   -2.0903   -1.2540 H   0  0  0  0  0  0  0  0  0  0  0  0
   -2.3934   -0.3861   -1.5014 H   0  0  0  0  0  0  0  0  0  0  0  0
   -0.7865   -1.0921   -2.7665 C   0  0  0  0  0  0  0  0  0  0  0  0
   -0.3982   -0.0857   -2.9595 H   0  0  0  0  0  0  0  0  0  0  0  0
    0.0598   -1.7831   -2.6850 H   0  0  0  0  0  0  0  0  0  0  0  0
   -1.6809   -1.5115   -3.8607 N   0  3  0  0  0  0  0  0  0  0  0  0
   -2.6285   -1.7844   -3.6039 H   0  0  0  0  0  0  0  0  0  0  0  0
   -1.3180   -1.5645   -5.1095 C   0  0  0  0  0  0  0  0  0  0  0  0
   -0.0446   -1.2292   -5.5092 N   0  0  0  0  0  0  0  0  0  0  0  0
    0.6593   -1.0923   -4.7868 H   0  0  0  0  0  0  0  0  0  0  0  0
    0.2677   -1.5129   -6.4357 H   0  0  0  0  0  0  0  0  0  0  0  0
   -2.2218   -1.9685   -6.0629 N   0  0  0  0  0  0  0  0  0  0  0  0
   -3.2036   -2.0463   -5.8045 H   0  0  0  0  0  0  0  0  0  0  0  0
   -1.9981   -1.8058   -7.0430 H   0  0  0  0  0  0  0  0  0  0  0  0
   -1.4754    0.8364    1.5474 C   0  0  0  0  0  0  0  0  0  0  0  0
   -2.4338    1.4649    1.1128 O   0  0  0  0  0  0  0  0  0  0  0  0
   -0.6001    1.4372    2.4327 N   0  0  0  0  0  0  0  0  0  0  0  0
    0.1395    0.8642    2.8313 H   0  0  0  0  0  0  0  0  0  0  0  0
   -0.7797    2.7959    2.9339 C   0  0  0  0  0  0  0  0  0  0  0  0
   -1.7151    2.8770    3.4979 H   0  0  0  0  0  0  0  0  0  0  0  0
    0.0480    3.0682    3.5964 H   0  0  0  0  0  0  0  0  0  0  0  0
   -0.8058    3.5115    2.1051 H   0  0  0  0  0  0  0  0  0  0  0  0
  1  2  1  0  0  0  0
  2  3  1  0  0  0  0
  2  4  1  0  0  0  0
  2  5  1  0  0  0  0
  5  6  2  0  0  0  0
  5  7  1  0  0  0  0
  7  8  1  0  0  0  0
  7  9  1  0  0  0  0
  9 10  1  0  0  0  0
  9 11  1  0  0  0  0
  9 29  1  0  0  0  0
 11 12  1  0  0  0  0
 11 13  1  0  0  0  0
 11 14  1  0  0  0  0
 14 15  1  0  0  0  0
 14 16  1  0  0  0  0
 14 17  1  0  0  0  0
 17 18  1  0  0  0  0
 17 19  1  0  0  0  0
 17 20  1  0  0  0  0
 20 21  1  0  0  0  0
 20 22  2  0  0  0  0
 22 23  1  0  0  0  0
 22 26  1  0  0  0  0
 23 24  1  0  0  0  0
 23 25  1  0  0  0  0
 26 27  1  0  0  0  0
 26 28  1  0  0  0  0
 29 30  2  0  0  0  0
 29 31  1  0  0  0  0
 31 32  1  0  0  0  0
 31 33  1  0  0  0  0
 33 34  1  0  0  0  0
 33 35  1  0  0  0  0
 33 36  1  0  0  0  0
M  CHG  1  20   1
M  END
$$$$

  -OEChem-03222214013D

 36 35  0     1  0  0  0  0  0999 V2000
   -4.0489   -4.1048    2.4991 H   0  0  0  0  0  0  0  0  0  0  0  0
   -4.1165   -3.0814    2.1192 C   0  0  0  0  0  0  0  0  0  0  0  0
   -4.5325   -2.4438    2.9029 H   0  0  0  0  0  0  0  0  0  0  0  0
   -4.7850   -3.0683    1.2554 H   0  0  0  0  0  0  0  0  0  0  0  0
   -2.7413   -2.5804    1.7224 C   0  0  0  0  0  0  0  0  0  0  0  0
   -1.7652   -3.3034    1.8399 O   0  0  0  0  0  0  0  0  0  0  0  0
   -2.5920   -1.3203    1.1800 N   0  0  0  0  0  0  0  0  0  0  0  0
   -3.4177   -0.7207    1.1926 H   0  0  0  0  0  0  0  0  0  0  0  0
   -1.2951   -0.6259    1.1041 C   0  0  1  0  0  0  0  0  0  0  0  0
   -0.5958   -1.0802    1.8151 H   0  0  0  0  0  0  0  0  0  0  0  0
   -0.6439   -0.6695   -0.3019 C   0  0  0  0  0  0  0  0  0  0  0  0
   -0.1892    0.2995   -0.5361 H   0  0  0  0  0  0  0  0  0  0  0  0
    0.1706   -1.4000   -0.2460 H   0  0  0  0  0  0  0  0  0  0  0  0
   -1.5703   -1.0871   -1.4579 C   0  0  0  0  0  0  0  0  0  0  0  0
   -2.1493   -1.9743   -1.1829 H   0  0  0  0  0  0  0  0  0  0  0  0
   -2.2689   -0.2722   -1.6780 H   0  0  0  0  0  0  0  0  0  0  0  0
   -0.7321   -1.4391   -2.6845 C   0  0  0  0  0  0  0  0  0  0  0  0
   -0.1280   -0.5695   -2.9666 H   0  0  0  0  0  0  0  0  0  0  0  0
   -0.0580   -2.2646   -2.4301 H   0  0  0  0  0  0  0  0  0  0  0  0
   -1.6122   -1.8270   -3.8017 N   0  3  0  0  0  0  0  0  0  0  0  0
   -2.6169   -1.7939   -3.6327 H   0  0  0  0  0  0  0  0  0  0  0  0
   -1.1722   -2.2010   -4.9683 C   0  0  0  0  0  0  0  0  0  0  0  0
    0.1742   -2.2820   -5.2433 N   0  0  0  0  0  0  0  0  0  0  0  0
    0.8242   -2.2077   -4.4633 H   0  0  0  0  0  0  0  0  0  0  0  0
    0.4752   -2.7921   -6.0712 H   0  0  0  0  0  0  0  0  0  0  0  0
   -2.0675   -2.5277   -5.9587 N   0  0  0  0  0  0  0  0  0  0  0  0
   -3.0503   -2.2971   -5.8256 H   0  0  0  0  0  0  0  0  0  0  0  0
   -1.7239   -2.6187   -6.9130 H   0  0  0  0  0  0  0  0  0  0  0  0
   -1.4866    0.8362    1.5543 C   0  0  0  0  0  0  0  0  0  0  0  0
   -2.4564    1.4614    1.1414 O   0  0  0  0  0  0  0  0  0  0  0  0
   -0.5962    1.4387    2.4234 N   0  0  0  0  0  0  0  0  0  0  0  0
    0.1563    0.8697    2.8027 H   0  0  0  0  0  0  0  0  0  0  0  0
   -0.7649    2.8000    2.9219 C   0  0  0  0  0  0  0  0  0  0  0  0
   -1.6824    2.8808    3.5146 H   0  0  0  0  0  0  0  0  0  0  0  0
    0.0824    3.0793    3.5562 H   0  0  0  0  0  0  0  0  0  0  0  0
   -0.8201    3.5114    2.0907 H   0  0  0  0  0  0  0  0  0  0  0  0
  1  2  1  0  0  0  0
  2  3  1  0  0  0  0
  2  4  1  0  0  0  0
  2  5  1  0  0  0  0
  5  6  2  0  0  0  0
  5  7  1  0  0  0  0
  7  8  1  0  0  0  0
  7  9  1  0  0  0  0
  9 10  1  0  0  0  0
  9 11  1  0  0  0  0
  9 29  1  0  0  0  0
 11 12  1  0  0  0  0
 11 13  1  0  0  0  0
 11 14  1  0  0  0  0
 14 15  1  0  0  0  0
 14 16  1  0  0  0  0
 14 17  1  0  0  0  0
 17 18  1  0  0  0  0
 17 19  1  0  0  0  0
 17 20  1  0  0  0  0
 20 21  1  0  0  0  0
 20 22  2  0  0  0  0
 22 23  1  0  0  0  0
 22 26  1  0  0  0  0
 23 24  1  0  0  0  0
 23 25  1  0  0  0  0
 26 27  1  0  0  0  0
 26 28  1  0  0  0  0
 29 30  2  0  0  0  0
 29 31  1  0  0  0  0
 31 32  1  0  0  0  0
 31 33  1  0  0  0  0
 33 34  1  0  0  0  0
 33 35  1  0  0  0  0
 33 36  1  0  0  0  0
M  CHG  1  20   1
M  END
$$$$

  -OEChem-03222214013D

 36 35  0     1  0  0  0  0  0999 V2000
   -4.0454   -4.1187    2.5046 H   0  0  0  0  0  0  0  0  0  0  0  0
   -4.1138   -3.0842    2.1559 C   0  0  0  0  0  0  0  0  0  0  0  0
   -4.5107   -2.4672    2.9659 H   0  0  0  0  0  0  0  0  0  0  0  0
   -4.8001   -3.0432    1.3069 H   0  0  0  0  0  0  0  0  0  0  0  0
   -2.7435   -2.5801    1.7448 C   0  0  0  0  0  0  0  0  0  0  0  0
   -1.7661   -3.3047    1.8432 O   0  0  0  0  0  0  0  0  0  0  0  0
   -2.6011   -1.3189    1.2034 N   0  0  0  0  0  0  0  0  0  0  0  0
   -3.4269   -0.7196    1.2275 H   0  0  0  0  0  0  0  0  0  0  0  0
   -1.3060   -0.6236    1.1099 C   0  0  1  0  0  0  0  0  0  0  0  0
   -0.5998   -1.0765    1.8151 H   0  0  0  0  0  0  0  0  0  0  0  0
   -0.6597   -0.6597   -0.3006 C   0  0  0  0  0  0  0  0  0  0  0  0
   -0.1972    0.3069   -0.5304 H   0  0  0  0  0  0  0  0  0  0  0  0
    0.1548   -1.3898   -0.2361 H   0  0  0  0  0  0  0  0  0  0  0  0
   -1.5677   -1.0736   -1.4780 C   0  0  0  0  0  0  0  0  0  0  0  0
   -2.3297   -1.7906   -1.1626 H   0  0  0  0  0  0  0  0  0  0  0  0
   -2.0786   -0.1869   -1.8692 H   0  0  0  0  0  0  0  0  0  0  0  0
   -0.7319   -1.7569   -2.5580 C   0  0  0  0  0  0  0  0  0  0  0  0
    0.0626   -1.0754   -2.8817 H   0  0  0  0  0  0  0  0  0  0  0  0
   -0.2693   -2.6546   -2.1329 H   0  0  0  0  0  0  0  0  0  0  0  0
   -1.5868   -2.1165   -3.7038 N   0  3  0  0  0  0  0  0  0  0  0  0
   -2.5480   -1.7781   -3.6884 H   0  0  0  0  0  0  0  0  0  0  0  0
   -1.1735   -2.8222   -4.7164 C   0  0  0  0  0  0  0  0  0  0  0  0
    0.1110   -3.3121   -4.7821 N   0  0  0  0  0  0  0  0  0  0  0  0
    0.6859   -3.2513   -3.9441 H   0  0  0  0  0  0  0  0  0  0  0  0
    0.3205   -4.0469   -5.4547 H   0  0  0  0  0  0  0  0  0  0  0  0
   -2.0346   -3.0921   -5.7532 N   0  0  0  0  0  0  0  0  0  0  0  0
   -2.9185   -2.5887   -5.7996 H   0  0  0  0  0  0  0  0  0  0  0  0
   -1.6487   -3.4598   -6.6209 H   0  0  0  0  0  0  0  0  0  0  0  0
   -1.4947    0.8373    1.5665 C   0  0  0  0  0  0  0  0  0  0  0  0
   -2.4748    1.4595    1.1740 O   0  0  0  0  0  0  0  0  0  0  0  0
   -0.5939    1.4410    2.4244 N   0  0  0  0  0  0  0  0  0  0  0  0
    0.1715    0.8771    2.7849 H   0  0  0  0  0  0  0  0  0  0  0  0
   -0.7614    2.7996    2.9300 C   0  0  0  0  0  0  0  0  0  0  0  0
   -1.6683    2.8732    3.5395 H   0  0  0  0  0  0  0  0  0  0  0  0
    0.0958    3.0825    3.5491 H   0  0  0  0  0  0  0  0  0  0  0  0
   -0.8365    3.5120    2.1014 H   0  0  0  0  0  0  0  0  0  0  0  0
  1  2  1  0  0  0  0
  2  3  1  0  0  0  0
  2  4  1  0  0  0  0
  2  5  1  0  0  0  0
  5  6  2  0  0  0  0
  5  7  1  0  0  0  0
  7  8  1  0  0  0  0
  7  9  1  0  0  0  0
  9 10  1  0  0  0  0
  9 11  1  0  0  0  0
  9 29  1  0  0  0  0
 11 12  1  0  0  0  0
 11 13  1  0  0  0  0
 11 14  1  0  0  0  0
 14 15  1  0  0  0  0
 14 16  1  0  0  0  0
 14 17  1  0  0  0  0
 17 18  1  0  0  0  0
 17 19  1  0  0  0  0
 17 20  1  0  0  0  0
 20 21  1  0  0  0  0
 20 22  2  0  0  0  0
 22 23  1  0  0  0  0
 22 26  1  0  0  0  0
 23 24  1  0  0  0  0
 23 25  1  0  0  0  0
 26 27  1  0  0  0  0
 26 28  1  0  0  0  0
 29 30  2  0  0  0  0
 29 31  1  0  0  0  0
 31 32  1  0  0  0  0
 31 33  1  0  0  0  0
 33 34  1  0  0  0  0
 33 35  1  0  0  0  0
 33 36  1  0  0  0  0
M  CHG  1  20   1
M  END
$$$$

  -OEChem-03222214013D

 36 35  0     1  0  0  0  0  0999 V2000
   -3.7248   -4.4233    1.4434 H   0  0  0  0  0  0  0  0  0  0  0  0
   -3.8701   -3.3461    1.3242 C   0  0  0  0  0  0  0  0  0  0  0  0
   -4.1709   -2.9260    2.2874 H   0  0  0  0  0  0  0  0  0  0  0  0
   -4.6677   -3.1735    0.5975 H   0  0  0  0  0  0  0  0  0  0  0  0
   -2.5848   -2.6925    0.8552 C   0  0  0  0  0  0  0  0  0  0  0  0
   -1.6310   -3.3733    0.5000 O   0  0  0  0  0  0  0  0  0  0  0  0
   -2.5281   -1.3347    0.6360 N   0  0  0  0  0  0  0  0  0  0  0  0
   -3.3698   -0.8128    0.8901 H   0  0  0  0  0  0  0  0  0  0  0  0
   -1.2795   -0.5624    0.7584 C   0  0  1  0  0  0  0  0  0  0  0  0
   -0.6004   -1.1364    1.3990 H   0  0  0  0  0  0  0  0  0  0  0  0
   -0.5205   -0.3203   -0.5713 C   0  0  0  0  0  0  0  0  0  0  0  0
   -0.1383    0.7065   -0.5920 H   0  0  0  0  0  0  0  0  0  0  0  0
    0.3584   -0.9730   -0.5433 H   0  0  0  0  0  0  0  0  0  0  0  0
   -1.2928   -0.5794   -1.8860 C   0  0  0  0  0  0  0  0  0  0  0  0
   -2.2081   -1.1487   -1.7190 H   0  0  0  0  0  0  0  0  0  0  0  0
   -1.5930    0.3732   -2.3355 H   0  0  0  0  0  0  0  0  0  0  0  0
   -0.4001   -1.3668   -2.8493 C   0  0  0  0  0  0  0  0  0  0  0  0
    0.2355   -0.6704   -3.4077 H   0  0  0  0  0  0  0  0  0  0  0  0
    0.2645   -2.0290   -2.2839 H   0  0  0  0  0  0  0  0  0  0  0  0
   -1.2117   -2.1769   -3.7753 N   0  3  0  0  0  0  0  0  0  0  0  0
   -1.4535   -1.7552   -4.6710 H   0  0  0  0  0  0  0  0  0  0  0  0
   -1.5631   -3.4076   -3.5276 C   0  0  0  0  0  0  0  0  0  0  0  0
   -1.2841   -4.0315   -2.3307 N   0  0  0  0  0  0  0  0  0  0  0  0
   -1.0579   -3.4460   -1.5211 H   0  0  0  0  0  0  0  0  0  0  0  0
   -1.7381   -4.9188   -2.1313 H   0  0  0  0  0  0  0  0  0  0  0  0
   -2.2343   -4.1207   -4.4920 N   0  0  0  0  0  0  0  0  0  0  0  0
   -2.2790   -3.7410   -5.4355 H   0  0  0  0  0  0  0  0  0  0  0  0
   -2.3059   -5.1303   -4.3812 H   0  0  0  0  0  0  0  0  0  0  0  0
   -1.5462    0.7407    1.5395 C   0  0  0  0  0  0  0  0  0  0  0  0
   -2.5921    1.3437    1.3370 O   0  0  0  0  0  0  0  0  0  0  0  0
   -0.6913    1.1663    2.5396 N   0  0  0  0  0  0  0  0  0  0  0  0
    0.1532    0.6273    2.7115 H   0  0  0  0  0  0  0  0  0  0  0  0
   -0.9394    2.3557    3.3487 C   0  0  0  0  0  0  0  0  0  0  0  0
   -1.8693    2.2467    3.9170 H   0  0  0  0  0  0  0  0  0  0  0  0
   -0.1194    2.5120    4.0565 H   0  0  0  0  0  0  0  0  0  0  0  0
   -1.0181    3.2439    2.7125 H   0  0  0  0  0  0  0  0  0  0  0  0
  1  2  1  0  0  0  0
  2  3  1  0  0  0  0
  2  4  1  0  0  0  0
  2  5  1  0  0  0  0
  5  6  2  0  0  0  0
  5  7  1  0  0  0  0
  7  8  1  0  0  0  0
  7  9  1  0  0  0  0
  9 10  1  0  0  0  0
  9 11  1  0  0  0  0
  9 29  1  0  0  0  0
 11 12  1  0  0  0  0
 11 13  1  0  0  0  0
 11 14  1  0  0  0  0
 14 15  1  0  0  0  0
 14 16  1  0  0  0  0
 14 17  1  0  0  0  0
 17 18  1  0  0  0  0
 17 19  1  0  0  0  0
 17 20  1  0  0  0  0
 20 21  1  0  0  0  0
 20 22  2  0  0  0  0
 22 23  1  0  0  0  0
 22 26  1  0  0  0  0
 23 24  1  0  0  0  0
 23 25  1  0  0  0  0
 26 27  1  0  0  0  0
 26 28  1  0  0  0  0
 29 30  2  0  0  0  0
 29 31  1  0  0  0  0
 31 32  1  0  0  0  0
 31 33  1  0  0  0  0
 33 34  1  0  0  0  0
 33 35  1  0  0  0  0
 33 36  1  0  0  0  0
M  CHG  1  20   1
M  END
$$$$

  -OEChem-03222214013D

 36 35  0     1  0  0  0  0  0999 V2000
   -3.7528   -4.4131    1.6055 H   0  0  0  0  0  0  0  0  0  0  0  0
   -3.8737   -3.3358    1.4623 C   0  0  0  0  0  0  0  0  0  0  0  0
   -4.1721   -2.8891    2.4145 H   0  0  0  0  0  0  0  0  0  0  0  0
   -4.6625   -3.1612    0.7266 H   0  0  0  0  0  0  0  0  0  0  0  0
   -2.5723   -2.7184    0.9892 C   0  0  0  0  0  0  0  0  0  0  0  0
   -1.6198   -3.4256    0.6874 O   0  0  0  0  0  0  0  0  0  0  0  0
   -2.5039   -1.3743    0.7045 N   0  0  0  0  0  0  0  0  0  0  0  0
   -3.3498   -0.8395    0.9124 H   0  0  0  0  0  0  0  0  0  0  0  0
   -1.2606   -0.5922    0.8186 C   0  0  1  0  0  0  0  0  0  0  0  0
   -0.5928   -1.1309    1.5004 H   0  0  0  0  0  0  0  0  0  0  0  0
   -0.4743   -0.4088   -0.5050 C   0  0  0  0  0  0  0  0  0  0  0  0
   -0.1246    0.6281   -0.5648 H   0  0  0  0  0  0  0  0  0  0  0  0
    0.4276   -1.0266   -0.4375 H   0  0  0  0  0  0  0  0  0  0  0  0
   -1.2237   -0.7333   -1.8186 C   0  0  0  0  0  0  0  0  0  0  0  0
   -2.2640   -1.0175   -1.6494 H   0  0  0  0  0  0  0  0  0  0  0  0
   -1.2480    0.1589   -2.4532 H   0  0  0  0  0  0  0  0  0  0  0  0
   -0.4807   -1.8540   -2.5485 C   0  0  0  0  0  0  0  0  0  0  0  0
    0.3648   -1.4288   -3.1007 H   0  0  0  0  0  0  0  0  0  0  0  0
   -0.0693   -2.5548   -1.8142 H   0  0  0  0  0  0  0  0  0  0  0  0
   -1.3808   -2.5734   -3.4672 N   0  3  0  0  0  0  0  0  0  0  0  0
   -1.5921   -2.1227   -4.3564 H   0  0  0  0  0  0  0  0  0  0  0  0
   -1.8520   -3.7636   -3.2219 C   0  0  0  0  0  0  0  0  0  0  0  0
   -1.6201   -4.4218   -2.0342 N   0  0  0  0  0  0  0  0  0  0  0  0
   -1.3062   -3.8699   -1.2286 H   0  0  0  0  0  0  0  0  0  0  0  0
   -2.1536   -5.2628   -1.8318 H   0  0  0  0  0  0  0  0  0  0  0  0
   -2.6047   -4.3987   -4.1809 N   0  0  0  0  0  0  0  0  0  0  0  0
   -2.6149   -4.0138   -5.1233 H   0  0  0  0  0  0  0  0  0  0  0  0
   -2.7749   -5.3969   -4.0742 H   0  0  0  0  0  0  0  0  0  0  0  0
   -1.5581    0.7460    1.5263 C   0  0  0  0  0  0  0  0  0  0  0  0
   -2.6059    1.3255    1.2706 O   0  0  0  0  0  0  0  0  0  0  0  0
   -0.7345    1.2280    2.5270 N   0  0  0  0  0  0  0  0  0  0  0  0
    0.1087    0.7053    2.7482 H   0  0  0  0  0  0  0  0  0  0  0  0
   -1.0216    2.4459    3.2789 C   0  0  0  0  0  0  0  0  0  0  0  0
   -1.9677    2.3486    3.8223 H   0  0  0  0  0  0  0  0  0  0  0  0
   -0.2258    2.6406    4.0047 H   0  0  0  0  0  0  0  0  0  0  0  0
   -1.0912    3.3065    2.6049 H   0  0  0  0  0  0  0  0  0  0  0  0
  1  2  1  0  0  0  0
  2  3  1  0  0  0  0
  2  4  1  0  0  0  0
  2  5  1  0  0  0  0
  5  6  2  0  0  0  0
  5  7  1  0  0  0  0
  7  8  1  0  0  0  0
  7  9  1  0  0  0  0
  9 10  1  0  0  0  0
  9 11  1  0  0  0  0
  9 29  1  0  0  0  0
 11 12  1  0  0  0  0
 11 13  1  0  0  0  0
 11 14  1  0  0  0  0
 14 15  1  0  0  0  0
 14 16  1  0  0  0  0
 14 17  1  0  0  0  0
 17 18  1  0  0  0  0
 17 19  1  0  0  0  0
 17 20  1  0  0  0  0
 20 21  1  0  0  0  0
 20 22  2  0  0  0  0
 22 23  1  0  0  0  0
 22 26  1  0  0  0  0
 23 24  1  0  0  0  0
 23 25  1  0  0  0  0
 26 27  1  0  0  0  0
 26 28  1  0  0  0  0
 29 30  2  0  0  0  0
 29 31  1  0  0  0  0
 31 32  1  0  0  0  0
 31 33  1  0  0  0  0
 33 34  1  0  0  0  0
 33 35  1  0  0  0  0
 33 36  1  0  0  0  0
M  CHG  1  20   1
M  END
$$$$

  -OEChem-03222214013D

 36 35  0     1  0  0  0  0  0999 V2000
   -3.7828   -4.3816    1.7757 H   0  0  0  0  0  0  0  0  0  0  0  0
   -3.8883   -3.3100    1.5848 C   0  0  0  0  0  0  0  0  0  0  0  0
   -4.1951   -2.8198    2.5126 H   0  0  0  0  0  0  0  0  0  0  0  0
   -4.6637   -3.1577    0.8302 H   0  0  0  0  0  0  0  0  0  0  0  0
   -2.5720   -2.7285    1.1072 C   0  0  0  0  0  0  0  0  0  0  0  0
   -1.6291   -3.4643    0.8468 O   0  0  0  0  0  0  0  0  0  0  0  0
   -2.4840   -1.3962    0.7758 N   0  0  0  0  0  0  0  0  0  0  0  0
   -3.3278   -0.8467    0.9531 H   0  0  0  0  0  0  0  0  0  0  0  0
   -1.2372   -0.6156    0.8747 C   0  0  1  0  0  0  0  0  0  0  0  0
   -0.5723   -1.1331    1.5755 H   0  0  0  0  0  0  0  0  0  0  0  0
   -0.4526   -0.4734   -0.4543 C   0  0  0  0  0  0  0  0  0  0  0  0
   -0.1206    0.5666   -0.5477 H   0  0  0  0  0  0  0  0  0  0  0  0
    0.4586   -1.0783   -0.3873 H   0  0  0  0  0  0  0  0  0  0  0  0
   -1.2264   -0.8359   -1.7385 C   0  0  0  0  0  0  0  0  0  0  0  0
   -2.3093   -0.8245   -1.5870 H   0  0  0  0  0  0  0  0  0  0  0  0
   -1.0138   -0.0898   -2.5115 H   0  0  0  0  0  0  0  0  0  0  0  0
   -0.7324   -2.1986   -2.2245 C   0  0  0  0  0  0  0  0  0  0  0  0
    0.2195   -2.0726   -2.7523 H   0  0  0  0  0  0  0  0  0  0  0  0
   -0.5421   -2.8328   -1.3526 H   0  0  0  0  0  0  0  0  0  0  0  0
   -1.7232   -2.8393   -3.1071 N   0  3  0  0  0  0  0  0  0  0  0  0
   -1.9732   -2.3412   -3.9600 H   0  0  0  0  0  0  0  0  0  0  0  0
   -2.2291   -4.0185   -2.8793 C   0  0  0  0  0  0  0  0  0  0  0  0
   -1.9371   -4.7416   -1.7440 N   0  0  0  0  0  0  0  0  0  0  0  0
   -1.5292   -4.2382   -0.9485 H   0  0  0  0  0  0  0  0  0  0  0  0
   -2.4972   -5.5629   -1.5325 H   0  0  0  0  0  0  0  0  0  0  0  0
   -3.0825   -4.5737   -3.8033 N   0  0  0  0  0  0  0  0  0  0  0  0
   -3.1517   -4.1410   -4.7222 H   0  0  0  0  0  0  0  0  0  0  0  0
   -3.2893   -5.5680   -3.7301 H   0  0  0  0  0  0  0  0  0  0  0  0
   -1.5428    0.7476    1.5302 C   0  0  0  0  0  0  0  0  0  0  0  0
   -2.5900    1.3142    1.2428 O   0  0  0  0  0  0  0  0  0  0  0  0
   -0.7335    1.2675    2.5234 N   0  0  0  0  0  0  0  0  0  0  0  0
    0.1106    0.7584    2.7717 H   0  0  0  0  0  0  0  0  0  0  0  0
   -1.0350    2.5104    3.2274 C   0  0  0  0  0  0  0  0  0  0  0  0
   -1.9904    2.4302    3.7572 H   0  0  0  0  0  0  0  0  0  0  0  0
   -0.2525    2.7319    3.9600 H   0  0  0  0  0  0  0  0  0  0  0  0
   -1.0933    3.3468    2.5224 H   0  0  0  0  0  0  0  0  0  0  0  0
  1  2  1  0  0  0  0
  2  3  1  0  0  0  0
  2  4  1  0  0  0  0
  2  5  1  0  0  0  0
  5  6  2  0  0  0  0
  5  7  1  0  0  0  0
  7  8  1  0  0  0  0
  7  9  1  0  0  0  0
  9 10  1  0  0  0  0
  9 11  1  0  0  0  0
  9 29  1  0  0  0  0
 11 12  1  0  0  0  0
 11 13  1  0  0  0  0
 11 14  1  0  0  0  0
 14 15  1  0  0  0  0
 14 16  1  0  0  0  0
 14 17  1  0  0  0  0
 17 18  1  0  0  0  0
 17 19  1  0  0  0  0
 17 20  1  0  0  0  0
 20 21  1  0  0  0  0
 20 22  2  0  0  0  0
 22 23  1  0  0  0  0
 22 26  1  0  0  0  0
 23 24  1  0  0  0  0
 23 25  1  0  0  0  0
 26 27  1  0  0  0  0
 26 28  1  0  0  0  0
 29 30  2  0  0  0  0
 29 31  1  0  0  0  0
 31 32  1  0  0  0  0
 31 33  1  0  0  0  0
 33 34  1  0  0  0  0
 33 35  1  0  0  0  0
 33 36  1  0  0  0  0
M  CHG  1  20   1
M  END
$$$$

  -OEChem-03222214013D

 36 35  0     1  0  0  0  0  0999 V2000
   -4.0064   -4.2628    1.9134 H   0  0  0  0  0  0  0  0  0  0  0  0
   -4.0398   -3.1997    1.6590 C   0  0  0  0  0  0  0  0  0  0  0  0
   -4.3664   -2.6417    2.5408 H   0  0  0  0  0  0  0  0  0  0  0  0
   -4.7648   -3.0480    0.8557 H   0  0  0  0  0  0  0  0  0  0  0  0
   -2.6689   -2.7174    1.2261 C   0  0  0  0  0  0  0  0  0  0  0  0
   -1.7503   -3.5141    1.0954 O   0  0  0  0  0  0  0  0  0  0  0  0
   -2.4971   -1.4096    0.8337 N   0  0  0  0  0  0  0  0  0  0  0  0
   -3.3244   -0.8166    0.9304 H   0  0  0  0  0  0  0  0  0  0  0  0
   -1.2258   -0.6679    0.9384 C   0  0  1  0  0  0  0  0  0  0  0  0
   -0.5911   -1.1724    1.6754 H   0  0  0  0  0  0  0  0  0  0  0  0
   -0.4097   -0.5636   -0.3781 C   0  0  0  0  0  0  0  0  0  0  0  0
   -0.0403    0.4633   -0.4799 H   0  0  0  0  0  0  0  0  0  0  0  0
    0.4770   -1.2021   -0.2961 H   0  0  0  0  0  0  0  0  0  0  0  0
   -1.1764   -0.9188   -1.6636 C   0  0  0  0  0  0  0  0  0  0  0  0
   -2.2300   -0.6327   -1.5764 H   0  0  0  0  0  0  0  0  0  0  0  0
   -0.7584   -0.3640   -2.5102 H   0  0  0  0  0  0  0  0  0  0  0  0
   -1.0079   -2.4169   -1.9185 C   0  0  0  0  0  0  0  0  0  0  0  0
   -0.0536   -2.5884   -2.4287 H   0  0  0  0  0  0  0  0  0  0  0  0
   -0.9581   -2.9269   -0.9540 H   0  0  0  0  0  0  0  0  0  0  0  0
   -2.1137   -2.9674   -2.7203 N   0  3  0  0  0  0  0  0  0  0  0  0
   -2.4169   -2.4262   -3.5286 H   0  0  0  0  0  0  0  0  0  0  0  0
   -2.6345   -4.1401   -2.4945 C   0  0  0  0  0  0  0  0  0  0  0  0
   -2.2560   -4.9184   -1.4224 N   0  0  0  0  0  0  0  0  0  0  0  0
   -1.7596   -4.4564   -0.6527 H   0  0  0  0  0  0  0  0  0  0  0  0
   -2.8193   -5.7315   -1.1882 H   0  0  0  0  0  0  0  0  0  0  0  0
   -3.5900   -4.6304   -3.3521 N   0  0  0  0  0  0  0  0  0  0  0  0
   -3.7325   -4.1558   -4.2413 H   0  0  0  0  0  0  0  0  0  0  0  0
   -3.8165   -5.6218   -3.3015 H   0  0  0  0  0  0  0  0  0  0  0  0
   -1.5265    0.7331    1.5120 C   0  0  0  0  0  0  0  0  0  0  0  0
   -2.5462    1.3090    1.1516 O   0  0  0  0  0  0  0  0  0  0  0  0
   -0.7451    1.2823    2.5114 N   0  0  0  0  0  0  0  0  0  0  0  0
    0.0746    0.7654    2.8191 H   0  0  0  0  0  0  0  0  0  0  0  0
   -1.0433    2.5639    3.1436 C   0  0  0  0  0  0  0  0  0  0  0  0
   -2.0173    2.5288    3.6436 H   0  0  0  0  0  0  0  0  0  0  0  0
   -0.2813    2.8058    3.8911 H   0  0  0  0  0  0  0  0  0  0  0  0
   -1.0602    3.3658    2.3977 H   0  0  0  0  0  0  0  0  0  0  0  0
  1  2  1  0  0  0  0
  2  3  1  0  0  0  0
  2  4  1  0  0  0  0
  2  5  1  0  0  0  0
  5  6  2  0  0  0  0
  5  7  1  0  0  0  0
  7  8  1  0  0  0  0
  7  9  1  0  0  0  0
  9 10  1  0  0  0  0
  9 11  1  0  0  0  0
  9 29  1  0  0  0  0
 11 12  1  0  0  0  0
 11 13  1  0  0  0  0
 11 14  1  0  0  0  0
 14 15  1  0  0  0  0
 14 16  1  0  0  0  0
 14 17  1  0  0  0  0
 17 18  1  0  0  0  0
 17 19  1  0  0  0  0
 17 20  1  0  0  0  0
 20 21  1  0  0  0  0
 20 22  2  0  0  0  0
 22 23  1  0  0  0  0
 22 26  1  0  0  0  0
 23 24  1  0  0  0  0
 23 25  1  0  0  0  0
 26 27  1  0  0  0  0
 26 28  1  0  0  0  0
 29 30  2  0  0  0  0
 29 31  1  0  0  0  0
 31 32  1  0  0  0  0
 31 33  1  0  0  0  0
 33 34  1  0  0  0  0
 33 35  1  0  0  0  0
 33 36  1  0  0  0  0
M  CHG  1  20   1
M  END
$$$$

  -OEChem-03222214013D

 36 35  0     1  0  0  0  0  0999 V2000
   -4.1893   -4.1738    2.0866 H   0  0  0  0  0  0  0  0  0  0  0  0
   -4.1706   -3.1276    1.7685 C   0  0  0  0  0  0  0  0  0  0  0  0
   -4.5241   -2.5069    2.5962 H   0  0  0  0  0  0  0  0  0  0  0  0
   -4.8448   -3.0010    0.9182 H   0  0  0  0  0  0  0  0  0  0  0  0
   -2.7614   -2.7181    1.3864 C   0  0  0  0  0  0  0  0  0  0  0  0
   -1.8689   -3.5525    1.3670 O   0  0  0  0  0  0  0  0  0  0  0  0
   -2.5279   -1.4435    0.9202 N   0  0  0  0  0  0  0  0  0  0  0  0
   -3.3398   -0.8222    0.9385 H   0  0  0  0  0  0  0  0  0  0  0  0
   -1.2404   -0.7277    1.0195 C   0  0  1  0  0  0  0  0  0  0  0  0
   -0.6352   -1.2009    1.8011 H   0  0  0  0  0  0  0  0  0  0  0  0
   -0.3764   -0.6625   -0.2738 C   0  0  0  0  0  0  0  0  0  0  0  0
    0.0350    0.3480   -0.3788 H   0  0  0  0  0  0  0  0  0  0  0  0
    0.4805   -1.3329   -0.1461 H   0  0  0  0  0  0  0  0  0  0  0  0
   -1.0788   -1.0263   -1.5919 C   0  0  0  0  0  0  0  0  0  0  0  0
   -2.0445   -0.5103   -1.6349 H   0  0  0  0  0  0  0  0  0  0  0  0
   -0.4809   -0.6870   -2.4445 H   0  0  0  0  0  0  0  0  0  0  0  0
   -1.2588   -2.5421   -1.6701 C   0  0  0  0  0  0  0  0  0  0  0  0
   -0.3926   -2.9720   -2.1851 H   0  0  0  0  0  0  0  0  0  0  0  0
   -1.2608   -2.9419   -0.6568 H   0  0  0  0  0  0  0  0  0  0  0  0
   -2.4958   -2.9356   -2.3639 N   0  3  0  0  0  0  0  0  0  0  0  0
   -2.8344   -2.3212   -3.1028 H   0  0  0  0  0  0  0  0  0  0  0  0
   -3.0898   -4.0720   -2.1362 C   0  0  0  0  0  0  0  0  0  0  0  0
   -2.6574   -4.9358   -1.1528 N   0  0  0  0  0  0  0  0  0  0  0  0
   -2.0378   -4.5575   -0.4287 H   0  0  0  0  0  0  0  0  0  0  0  0
   -3.2509   -5.7200   -0.8950 H   0  0  0  0  0  0  0  0  0  0  0  0
   -4.1763   -4.4323   -2.8967 N   0  0  0  0  0  0  0  0  0  0  0  0
   -4.3768   -3.8956   -3.7382 H   0  0  0  0  0  0  0  0  0  0  0  0
   -4.4796   -5.4041   -2.8711 H   0  0  0  0  0  0  0  0  0  0  0  0
   -1.5446    0.7104    1.4935 C   0  0  0  0  0  0  0  0  0  0  0  0
   -2.5376    1.2774    1.0520 O   0  0  0  0  0  0  0  0  0  0  0  0
   -0.7939    1.3137    2.4854 N   0  0  0  0  0  0  0  0  0  0  0  0
    0.0081    0.8090    2.8540 H   0  0  0  0  0  0  0  0  0  0  0  0
   -1.0833    2.6460    3.0075 C   0  0  0  0  0  0  0  0  0  0  0  0
   -2.0695    2.6669    3.4834 H   0  0  0  0  0  0  0  0  0  0  0  0
   -0.3346    2.9328    3.7526 H   0  0  0  0  0  0  0  0  0  0  0  0
   -1.0667    3.3871    2.2012 H   0  0  0  0  0  0  0  0  0  0  0  0
  1  2  1  0  0  0  0
  2  3  1  0  0  0  0
  2  4  1  0  0  0  0
  2  5  1  0  0  0  0
  5  6  2  0  0  0  0
  5  7  1  0  0  0  0
  7  8  1  0  0  0  0
  7  9  1  0  0  0  0
  9 10  1  0  0  0  0
  9 11  1  0  0  0  0
  9 29  1  0  0  0  0
 11 12  1  0  0  0  0
 11 13  1  0  0  0  0
 11 14  1  0  0  0  0
 14 15  1  0  0  0  0
 14 16  1  0  0  0  0
 14 17  1  0  0  0  0
 17 18  1  0  0  0  0
 17 19  1  0  0  0  0
 17 20  1  0  0  0  0
 20 21  1  0  0  0  0
 20 22  2  0  0  0  0
 22 23  1  0  0  0  0
 22 26  1  0  0  0  0
 23 24  1  0  0  0  0
 23 25  1  0  0  0  0
 26 27  1  0  0  0  0
 26 28  1  0  0  0  0
 29 30  2  0  0  0  0
 29 31  1  0  0  0  0
 31 32  1  0  0  0  0
 31 33  1  0  0  0  0
 33 34  1  0  0  0  0
 33 35  1  0  0  0  0
 33 36  1  0  0  0  0
M  CHG  1  20   1
M  END
$$$$

  -OEChem-03222214013D

 36 35  0     1  0  0  0  0  0999 V2000
   -4.7384   -3.7032    2.9922 H   0  0  0  0  0  0  0  0  0  0  0  0
   -4.5938   -2.6443    2.7596 C   0  0  0  0  0  0  0  0  0  0  0  0
   -4.5078   -2.0893    3.6975 H   0  0  0  0  0  0  0  0  0  0  0  0
   -5.4662   -2.2814    2.2104 H   0  0  0  0  0  0  0  0  0  0  0  0
   -3.3386   -2.4546    1.9305 C   0  0  0  0  0  0  0  0  0  0  0  0
   -2.6704   -3.4177    1.5812 O   0  0  0  0  0  0  0  0  0  0  0  0
   -2.9983   -1.2074    1.4525 N   0  0  0  0  0  0  0  0  0  0  0  0
   -3.5658   -0.4274    1.7930 H   0  0  0  0  0  0  0  0  0  0  0  0
   -1.6456   -0.8379    0.9984 C   0  0  1  0  0  0  0  0  0  0  0  0
   -0.9191   -1.5446    1.4144 H   0  0  0  0  0  0  0  0  0  0  0  0
   -1.4189   -0.7629   -0.5417 C   0  0  0  0  0  0  0  0  0  0  0  0
   -0.7983    0.1118   -0.7684 H   0  0  0  0  0  0  0  0  0  0  0  0
   -0.8261   -1.6390   -0.8222 H   0  0  0  0  0  0  0  0  0  0  0  0
   -2.6418   -0.7239   -1.4827 C   0  0  0  0  0  0  0  0  0  0  0  0
   -3.2241    0.1653   -1.2152 H   0  0  0  0  0  0  0  0  0  0  0  0
   -2.3011   -0.5803   -2.5135 H   0  0  0  0  0  0  0  0  0  0  0  0
   -3.5828   -1.9342   -1.4093 C   0  0  0  0  0  0  0  0  0  0  0  0
   -3.5613   -2.3935   -0.4234 H   0  0  0  0  0  0  0  0  0  0  0  0
   -4.6083   -1.5910   -1.5854 H   0  0  0  0  0  0  0  0  0  0  0  0
   -3.2279   -2.9285   -2.4418 N   0  3  0  0  0  0  0  0  0  0  0  0
   -3.5858   -2.7542   -3.3796 H   0  0  0  0  0  0  0  0  0  0  0  0
   -2.4992   -3.9898   -2.2390 C   0  0  0  0  0  0  0  0  0  0  0  0
   -1.9414   -4.2951   -1.0199 N   0  0  0  0  0  0  0  0  0  0  0  0
   -2.2595   -3.7846   -0.1900 H   0  0  0  0  0  0  0  0  0  0  0  0
   -1.5358   -5.2155   -0.8745 H   0  0  0  0  0  0  0  0  0  0  0  0
   -2.2575   -4.8396   -3.2925 N   0  0  0  0  0  0  0  0  0  0  0  0
   -2.7792   -4.7262   -4.1591 H   0  0  0  0  0  0  0  0  0  0  0  0
   -1.7784   -5.7215   -3.1217 H   0  0  0  0  0  0  0  0  0  0  0  0
   -1.3205    0.5447    1.6072 C   0  0  0  0  0  0  0  0  0  0  0  0
   -2.1968    1.4002    1.6342 O   0  0  0  0  0  0  0  0  0  0  0  0
   -0.0930    0.8021    2.1895 N   0  0  0  0  0  0  0  0  0  0  0  0
    0.5992    0.0581    2.2005 H   0  0  0  0  0  0  0  0  0  0  0  0
    0.2305    2.0687    2.8395 C   0  0  0  0  0  0  0  0  0  0  0  0
   -0.4134    2.2289    3.7109 H   0  0  0  0  0  0  0  0  0  0  0  0
    1.2721    2.0684    3.1754 H   0  0  0  0  0  0  0  0  0  0  0  0
    0.0951    2.9042    2.1442 H   0  0  0  0  0  0  0  0  0  0  0  0
  1  2  1  0  0  0  0
  2  3  1  0  0  0  0
  2  4  1  0  0  0  0
  2  5  1  0  0  0  0
  5  6  2  0  0  0  0
  5  7  1  0  0  0  0
  7  8  1  0  0  0  0
  7  9  1  0  0  0  0
  9 10  1  0  0  0  0
  9 11  1  0  0  0  0
  9 29  1  0  0  0  0
 11 12  1  0  0  0  0
 11 13  1  0  0  0  0
 11 14  1  0  0  0  0
 14 15  1  0  0  0  0
 14 16  1  0  0  0  0
 14 17  1  0  0  0  0
 17 18  1  0  0  0  0
 17 19  1  0  0  0  0
 17 20  1  0  0  0  0
 20 21  1  0  0  0  0
 20 22  2  0  0  0  0
 22 23  1  0  0  0  0
 22 26  1  0  0  0  0
 23 24  1  0  0  0  0
 23 25  1  0  0  0  0
 26 27  1  0  0  0  0
 26 28  1  0  0  0  0
 29 30  2  0  0  0  0
 29 31  1  0  0  0  0
 31 32  1  0  0  0  0
 31 33  1  0  0  0  0
 33 34  1  0  0  0  0
 33 35  1  0  0  0  0
 33 36  1  0  0  0  0
M  CHG  1  20   1
M  END
$$$$

  -OEChem-03222214013D

 36 35  0     1  0  0  0  0  0999 V2000
   -4.8097   -3.4931    3.1921 H   0  0  0  0  0  0  0  0  0  0  0  0
   -4.6618   -2.4485    2.9041 C   0  0  0  0  0  0  0  0  0  0  0  0
   -4.5562   -1.8477    3.8112 H   0  0  0  0  0  0  0  0  0  0  0  0
   -5.5404   -2.1059    2.3520 H   0  0  0  0  0  0  0  0  0  0  0  0
   -3.4198   -2.3111    2.0457 C   0  0  0  0  0  0  0  0  0  0  0  0
   -2.7990   -3.3002    1.6813 O   0  0  0  0  0  0  0  0  0  0  0  0
   -3.0496   -1.0833    1.5406 N   0  0  0  0  0  0  0  0  0  0  0  0
   -3.5882   -0.2812    1.8768 H   0  0  0  0  0  0  0  0  0  0  0  0
   -1.6817   -0.7644    1.0993 C   0  0  1  0  0  0  0  0  0  0  0  0
   -0.9879   -1.4740    1.5636 H   0  0  0  0  0  0  0  0  0  0  0  0
   -1.3909   -0.7578   -0.4337 C   0  0  0  0  0  0  0  0  0  0  0  0
   -0.7148    0.0737   -0.6639 H   0  0  0  0  0  0  0  0  0  0  0  0
   -0.8240   -1.6730   -0.6319 H   0  0  0  0  0  0  0  0  0  0  0  0
   -2.5289   -0.7332   -1.4829 C   0  0  0  0  0  0  0  0  0  0  0  0
   -2.9400    0.2826   -1.4659 H   0  0  0  0  0  0  0  0  0  0  0  0
   -2.0958   -0.8771   -2.4788 H   0  0  0  0  0  0  0  0  0  0  0  0
   -3.7183   -1.6828   -1.2812 C   0  0  0  0  0  0  0  0  0  0  0  0
   -3.7174   -2.1194   -0.2870 H   0  0  0  0  0  0  0  0  0  0  0  0
   -4.6475   -1.1120   -1.3864 H   0  0  0  0  0  0  0  0  0  0  0  0
   -3.6944   -2.7659   -2.2836 N   0  3  0  0  0  0  0  0  0  0  0  0
   -4.2101   -2.6003   -3.1467 H   0  0  0  0  0  0  0  0  0  0  0  0
   -3.0891   -3.9086   -2.1193 C   0  0  0  0  0  0  0  0  0  0  0  0
   -2.3877   -4.2267   -0.9799 N   0  0  0  0  0  0  0  0  0  0  0  0
   -2.5332   -3.6441   -0.1492 H   0  0  0  0  0  0  0  0  0  0  0  0
   -2.1568   -5.2026   -0.8131 H   0  0  0  0  0  0  0  0  0  0  0  0
   -3.1392   -4.8420   -3.1268 N   0  0  0  0  0  0  0  0  0  0  0  0
   -3.4930   -4.5609   -4.0389 H   0  0  0  0  0  0  0  0  0  0  0  0
   -2.5032   -5.6361   -3.0829 H   0  0  0  0  0  0  0  0  0  0  0  0
   -1.3292    0.6256    1.6745 C   0  0  0  0  0  0  0  0  0  0  0  0
   -2.1834    1.5036    1.6677 O   0  0  0  0  0  0  0  0  0  0  0  0
   -0.1044    0.8655    2.2699 N   0  0  0  0  0  0  0  0  0  0  0  0
    0.5686    0.1047    2.3082 H   0  0  0  0  0  0  0  0  0  0  0  0
    0.2427    2.1392    2.8932 C   0  0  0  0  0  0  0  0  0  0  0  0
   -0.4416    2.3624    3.7188 H   0  0  0  0  0  0  0  0  0  0  0  0
    1.2616    2.1025    3.2910 H   0  0  0  0  0  0  0  0  0  0  0  0
    0.1881    2.9530    2.1621 H   0  0  0  0  0  0  0  0  0  0  0  0
  1  2  1  0  0  0  0
  2  3  1  0  0  0  0
  2  4  1  0  0  0  0
  2  5  1  0  0  0  0
  5  6  2  0  0  0  0
  5  7  1  0  0  0  0
  7  8  1  0  0  0  0
  7  9  1  0  0  0  0
  9 10  1  0  0  0  0
  9 11  1  0  0  0  0
  9 29  1  0  0  0  0
 11 12  1  0  0  0  0
 11 13  1  0  0  0  0
 11 14  1  0  0  0  0
 14 15  1  0  0  0  0
 14 16  1  0  0  0  0
 14 17  1  0  0  0  0
 17 18  1  0  0  0  0
 17 19  1  0  0  0  0
 17 20  1  0  0  0  0
 20 21  1  0  0  0  0
 20 22  2  0  0  0  0
 22 23  1  0  0  0  0
 22 26  1  0  0  0  0
 23 24  1  0  0  0  0
 23 25  1  0  0  0  0
 26 27  1  0  0  0  0
 26 28  1  0  0  0  0
 29 30  2  0  0  0  0
 29 31  1  0  0  0  0
 31 32  1  0  0  0  0
 31 33  1  0  0  0  0
 33 34  1  0  0  0  0
 33 35  1  0  0  0  0
 33 36  1  0  0  0  0
M  CHG  1  20   1
M  END
$$$$

  -OEChem-03222214013D

 36 35  0     1  0  0  0  0  0999 V2000
   -5.7301   -1.3986    2.1771 H   0  0  0  0  0  0  0  0  0  0  0  0
   -4.9446   -1.7784    2.8349 C   0  0  0  0  0  0  0  0  0  0  0  0
   -5.2317   -2.7712    3.1928 H   0  0  0  0  0  0  0  0  0  0  0  0
   -4.8482   -1.1108    3.6952 H   0  0  0  0  0  0  0  0  0  0  0  0
   -3.6273   -1.8496    2.0877 C   0  0  0  0  0  0  0  0  0  0  0  0
   -3.0747   -2.9254    1.8944 O   0  0  0  0  0  0  0  0  0  0  0  0
   -3.1265   -0.7370    1.4458 N   0  0  0  0  0  0  0  0  0  0  0  0
   -3.6454    0.1308    1.6001 H   0  0  0  0  0  0  0  0  0  0  0  0
   -1.6885   -0.5438    1.1964 C   0  0  1  0  0  0  0  0  0  0  0  0
   -1.1411   -1.1669    1.9129 H   0  0  0  0  0  0  0  0  0  0  0  0
   -1.1196   -0.8890   -0.2147 C   0  0  0  0  0  0  0  0  0  0  0  0
   -0.3537   -0.1505   -0.4774 H   0  0  0  0  0  0  0  0  0  0  0  0
   -0.5901   -1.8379   -0.0776 H   0  0  0  0  0  0  0  0  0  0  0  0
   -2.0058   -1.1035   -1.4686 C   0  0  0  0  0  0  0  0  0  0  0  0
   -2.1239   -0.1306   -1.9585 H   0  0  0  0  0  0  0  0  0  0  0  0
   -1.4463   -1.7392   -2.1633 H   0  0  0  0  0  0  0  0  0  0  0  0
   -3.4154   -1.6661   -1.2658 C   0  0  0  0  0  0  0  0  0  0  0  0
   -3.5117   -2.0752   -0.2649 H   0  0  0  0  0  0  0  0  0  0  0  0
   -4.1508   -0.8603   -1.3689 H   0  0  0  0  0  0  0  0  0  0  0  0
   -3.6899   -2.7514   -2.2240 N   0  3  0  0  0  0  0  0  0  0  0  0
   -3.8630   -2.4850   -3.1922 H   0  0  0  0  0  0  0  0  0  0  0  0
   -3.6818   -4.0126   -1.8920 C   0  0  0  0  0  0  0  0  0  0  0  0
   -3.4388   -4.4428   -0.6042 N   0  0  0  0  0  0  0  0  0  0  0  0
   -3.1723   -3.7625    0.1156 H   0  0  0  0  0  0  0  0  0  0  0  0
   -3.2378   -5.4241   -0.4298 H   0  0  0  0  0  0  0  0  0  0  0  0
   -3.9194   -4.9608   -2.8583 N   0  0  0  0  0  0  0  0  0  0  0  0
   -4.2771   -4.6600   -3.7626 H   0  0  0  0  0  0  0  0  0  0  0  0
   -4.1102   -5.9159   -2.5618 H   0  0  0  0  0  0  0  0  0  0  0  0
   -1.3359    0.9137    1.5656 C   0  0  0  0  0  0  0  0  0  0  0  0
   -2.1270    1.8035    1.2777 O   0  0  0  0  0  0  0  0  0  0  0  0
   -0.2072    1.2144    2.3057 N   0  0  0  0  0  0  0  0  0  0  0  0
    0.4172    0.4538    2.5608 H   0  0  0  0  0  0  0  0  0  0  0  0
    0.1245    2.5684    2.7397 C   0  0  0  0  0  0  0  0  0  0  0  0
   -0.6778    2.9810    3.3610 H   0  0  0  0  0  0  0  0  0  0  0  0
    1.0471    2.5635    3.3287 H   0  0  0  0  0  0  0  0  0  0  0  0
    0.2710    3.2242    1.8747 H   0  0  0  0  0  0  0  0  0  0  0  0
  1  2  1  0  0  0  0
  2  3  1  0  0  0  0
  2  4  1  0  0  0  0
  2  5  1  0  0  0  0
  5  6  2  0  0  0  0
  5  7  1  0  0  0  0
  7  8  1  0  0  0  0
  7  9  1  0  0  0  0
  9 10  1  0  0  0  0
  9 11  1  0  0  0  0
  9 29  1  0  0  0  0
 11 12  1  0  0  0  0
 11 13  1  0  0  0  0
 11 14  1  0  0  0  0
 14 15  1  0  0  0  0
 14 16  1  0  0  0  0
 14 17  1  0  0  0  0
 17 18  1  0  0  0  0
 17 19  1  0  0  0  0
 17 20  1  0  0  0  0
 20 21  1  0  0  0  0
 20 22  2  0  0  0  0
 22 23  1  0  0  0  0
 22 26  1  0  0  0  0
 23 24  1  0  0  0  0
 23 25  1  0  0  0  0
 26 27  1  0  0  0  0
 26 28  1  0  0  0  0
 29 30  2  0  0  0  0
 29 31  1  0  0  0  0
 31 32  1  0  0  0  0
 31 33  1  0  0  0  0
 33 34  1  0  0  0  0
 33 35  1  0  0  0  0
 33 36  1  0  0  0  0
M  CHG  1  20   1
M  END
$$$$

  -OEChem-03222214013D

 36 35  0     1  0  0  0  0  0999 V2000
   -2.5579   -3.5347    3.8566 H   0  0  0  0  0  0  0  0  0  0  0  0
   -2.3632   -4.0123    2.8932 C   0  0  0  0  0  0  0  0  0  0  0  0
   -3.3142   -4.2287    2.4018 H   0  0  0  0  0  0  0  0  0  0  0  0
   -1.8355   -4.9543    3.0692 H   0  0  0  0  0  0  0  0  0  0  0  0
   -1.5210   -3.0995    2.0231 C   0  0  0  0  0  0  0  0  0  0  0  0
   -0.4185   -3.4567    1.6458 O   0  0  0  0  0  0  0  0  0  0  0  0
   -2.0216   -1.8821    1.6052 N   0  0  0  0  0  0  0  0  0  0  0  0
   -2.8801   -1.5794    2.0657 H   0  0  0  0  0  0  0  0  0  0  0  0
   -1.1517   -0.7995    1.1158 C   0  0  1  0  0  0  0  0  0  0  0  0
   -0.1268   -0.9668    1.4673 H   0  0  0  0  0  0  0  0  0  0  0  0
   -1.0942   -0.5384   -0.4216 C   0  0  0  0  0  0  0  0  0  0  0  0
   -1.0030    0.5391   -0.6006 H   0  0  0  0  0  0  0  0  0  0  0  0
   -0.1382   -0.9728   -0.7340 H   0  0  0  0  0  0  0  0  0  0  0  0
   -2.1323   -1.1002   -1.4293 C   0  0  0  0  0  0  0  0  0  0  0  0
   -2.7593   -0.2549   -1.7315 H   0  0  0  0  0  0  0  0  0  0  0  0
   -1.5949   -1.4328   -2.3242 H   0  0  0  0  0  0  0  0  0  0  0  0
   -3.0632   -2.2236   -0.9770 C   0  0  0  0  0  0  0  0  0  0  0  0
   -2.4745   -3.1287   -0.7890 H   0  0  0  0  0  0  0  0  0  0  0  0
   -3.5546   -1.9458   -0.0413 H   0  0  0  0  0  0  0  0  0  0  0  0
   -4.0927   -2.4822   -1.9997 N   0  3  0  0  0  0  0  0  0  0  0  0
   -3.8643   -3.1570   -2.7292 H   0  0  0  0  0  0  0  0  0  0  0  0
   -5.2626   -1.9089   -1.9920 C   0  0  0  0  0  0  0  0  0  0  0  0
   -5.6061   -0.9736   -1.0391 N   0  0  0  0  0  0  0  0  0  0  0  0
   -4.8650   -0.6066   -0.4414 H   0  0  0  0  0  0  0  0  0  0  0  0
   -6.4202   -0.3849   -1.2014 H   0  0  0  0  0  0  0  0  0  0  0  0
   -6.1828   -2.2345   -2.9596 N   0  0  0  0  0  0  0  0  0  0  0  0
   -6.0051   -3.0455   -3.5491 H   0  0  0  0  0  0  0  0  0  0  0  0
   -7.1500   -1.9455   -2.8252 H   0  0  0  0  0  0  0  0  0  0  0  0
   -1.6539    0.4926    1.7926 C   0  0  0  0  0  0  0  0  0  0  0  0
   -2.8640    0.7079    1.8106 O   0  0  0  0  0  0  0  0  0  0  0  0
   -0.7765    1.4021    2.3517 N   0  0  0  0  0  0  0  0  0  0  0  0
    0.2153    1.1744    2.3435 H   0  0  0  0  0  0  0  0  0  0  0  0
   -1.2070    2.6277    3.0168 C   0  0  0  0  0  0  0  0  0  0  0  0
   -1.8576    2.3965    3.8669 H   0  0  0  0  0  0  0  0  0  0  0  0
   -0.3394    3.1819    3.3887 H   0  0  0  0  0  0  0  0  0  0  0  0
   -1.7539    3.2717    2.3199 H   0  0  0  0  0  0  0  0  0  0  0  0
  1  2  1  0  0  0  0
  2  3  1  0  0  0  0
  2  4  1  0  0  0  0
  2  5  1  0  0  0  0
  5  6  2  0  0  0  0
  5  7  1  0  0  0  0
  7  8  1  0  0  0  0
  7  9  1  0  0  0  0
  9 10  1  0  0  0  0
  9 11  1  0  0  0  0
  9 29  1  0  0  0  0
 11 12  1  0  0  0  0
 11 13  1  0  0  0  0
 11 14  1  0  0  0  0
 14 15  1  0  0  0  0
 14 16  1  0  0  0  0
 14 17  1  0  0  0  0
 17 18  1  0  0  0  0
 17 19  1  0  0  0  0
 17 20  1  0  0  0  0
 20 21  1  0  0  0  0
 20 22  2  0  0  0  0
 22 23  1  0  0  0  0
 22 26  1  0  0  0  0
 23 24  1  0  0  0  0
 23 25  1  0  0  0  0
 26 27  1  0  0  0  0
 26 28  1  0  0  0  0
 29 30  2  0  0  0  0
 29 31  1  0  0  0  0
 31 32  1  0  0  0  0
 31 33  1  0  0  0  0
 33 34  1  0  0  0  0
 33 35  1  0  0  0  0
 33 36  1  0  0  0  0
M  CHG  1  20   1
M  END
$$$$

  -OEChem-03222214013D

 36 35  0     1  0  0  0  0  0999 V2000
   -2.4511   -4.5480    3.7985 H   0  0  0  0  0  0  0  0  0  0  0  0
   -2.9156   -3.6871    3.3085 C   0  0  0  0  0  0  0  0  0  0  0  0
   -3.3499   -3.0403    4.0748 H   0  0  0  0  0  0  0  0  0  0  0  0
   -3.7089   -4.0457    2.6488 H   0  0  0  0  0  0  0  0  0  0  0  0
   -1.8771   -2.9221    2.5107 C   0  0  0  0  0  0  0  0  0  0  0  0
   -0.7102   -3.2726    2.5312 O   0  0  0  0  0  0  0  0  0  0  0  0
   -2.2518   -1.8390    1.7384 N   0  0  0  0  0  0  0  0  0  0  0  0
   -3.1953   -1.4909    1.9020 H   0  0  0  0  0  0  0  0  0  0  0  0
   -1.2727   -0.8606    1.2328 C   0  0  1  0  0  0  0  0  0  0  0  0
   -0.3400   -0.9150    1.8064 H   0  0  0  0  0  0  0  0  0  0  0  0
   -0.9294   -0.8637   -0.2911 C   0  0  0  0  0  0  0  0  0  0  0  0
   -0.7703    0.1688   -0.6238 H   0  0  0  0  0  0  0  0  0  0  0  0
    0.0552   -1.3412   -0.3509 H   0  0  0  0  0  0  0  0  0  0  0  0
   -1.7874   -1.5772   -1.3707 C   0  0  0  0  0  0  0  0  0  0  0  0
   -2.0690   -0.8059   -2.0957 H   0  0  0  0  0  0  0  0  0  0  0  0
   -1.1498   -2.2888   -1.9068 H   0  0  0  0  0  0  0  0  0  0  0  0
   -3.0524   -2.3224   -0.9368 C   0  0  0  0  0  0  0  0  0  0  0  0
   -2.8129   -3.3688   -0.7166 H   0  0  0  0  0  0  0  0  0  0  0  0
   -3.4644   -1.8740   -0.0339 H   0  0  0  0  0  0  0  0  0  0  0  0
   -4.0899   -2.2132   -1.9767 N   0  3  0  0  0  0  0  0  0  0  0  0
   -4.1087   -2.9306   -2.7007 H   0  0  0  0  0  0  0  0  0  0  0  0
   -4.9599   -1.2408   -1.9978 C   0  0  0  0  0  0  0  0  0  0  0  0
   -4.9624   -0.2281   -1.0590 N   0  0  0  0  0  0  0  0  0  0  0  0
   -4.1672   -0.1393   -0.4180 H   0  0  0  0  0  0  0  0  0  0  0  0
   -5.5116    0.6090   -1.2377 H   0  0  0  0  0  0  0  0  0  0  0  0
   -5.9113   -1.2102   -2.9891 N   0  0  0  0  0  0  0  0  0  0  0  0
   -6.0357   -2.0337   -3.5745 H   0  0  0  0  0  0  0  0  0  0  0  0
   -6.6994   -0.5737   -2.8844 H   0  0  0  0  0  0  0  0  0  0  0  0
   -1.9247    0.5117    1.5030 C   0  0  0  0  0  0  0  0  0  0  0  0
   -3.0854    0.6819    1.1213 O   0  0  0  0  0  0  0  0  0  0  0  0
   -1.2089    1.5604    2.0463 N   0  0  0  0  0  0  0  0  0  0  0  0
   -0.2573    1.3749    2.3572 H   0  0  0  0  0  0  0  0  0  0  0  0
   -1.7755    2.8840    2.2839 C   0  0  0  0  0  0  0  0  0  0  0  0
   -2.6265    2.8209    2.9703 H   0  0  0  0  0  0  0  0  0  0  0  0
   -1.0232    3.5433    2.7285 H   0  0  0  0  0  0  0  0  0  0  0  0
   -2.1128    3.3331    1.3438 H   0  0  0  0  0  0  0  0  0  0  0  0
  1  2  1  0  0  0  0
  2  3  1  0  0  0  0
  2  4  1  0  0  0  0
  2  5  1  0  0  0  0
  5  6  2  0  0  0  0
  5  7  1  0  0  0  0
  7  8  1  0  0  0  0
  7  9  1  0  0  0  0
  9 10  1  0  0  0  0
  9 11  1  0  0  0  0
  9 29  1  0  0  0  0
 11 12  1  0  0  0  0
 11 13  1  0  0  0  0
 11 14  1  0  0  0  0
 14 15  1  0  0  0  0
 14 16  1  0  0  0  0
 14 17  1  0  0  0  0
 17 18  1  0  0  0  0
 17 19  1  0  0  0  0
 17 20  1  0  0  0  0
 20 21  1  0  0  0  0
 20 22  2  0  0  0  0
 22 23  1  0  0  0  0
 22 26  1  0  0  0  0
 23 24  1  0  0  0  0
 23 25  1  0  0  0  0
 26 27  1  0  0  0  0
 26 28  1  0  0  0  0
 29 30  2  0  0  0  0
 29 31  1  0  0  0  0
 31 32  1  0  0  0  0
 31 33  1  0  0  0  0
 33 34  1  0  0  0  0
 33 35  1  0  0  0  0
 33 36  1  0  0  0  0
M  CHG  1  20   1
M  END
$$$$

  -OEChem-03222214013D

 36 35  0     1  0  0  0  0  0999 V2000
   -2.5191   -4.5007    3.7434 H   0  0  0  0  0  0  0  0  0  0  0  0
   -2.9947   -3.7003    3.1690 C   0  0  0  0  0  0  0  0  0  0  0  0
   -3.5382   -3.0507    3.8592 H   0  0  0  0  0  0  0  0  0  0  0  0
   -3.7002   -4.1458    2.4641 H   0  0  0  0  0  0  0  0  0  0  0  0
   -1.9442   -2.9024    2.4206 C   0  0  0  0  0  0  0  0  0  0  0  0
   -0.7760   -3.2480    2.4527 O   0  0  0  0  0  0  0  0  0  0  0  0
   -2.3104   -1.7948    1.6797 N   0  0  0  0  0  0  0  0  0  0  0  0
   -3.2593   -1.4582    1.8326 H   0  0  0  0  0  0  0  0  0  0  0  0
   -1.3266   -0.8070    1.1986 C   0  0  1  0  0  0  0  0  0  0  0  0
   -0.3940   -0.8874    1.7694 H   0  0  0  0  0  0  0  0  0  0  0  0
   -0.9806   -0.8237   -0.3237 C   0  0  0  0  0  0  0  0  0  0  0  0
   -0.8626    0.2119   -0.6634 H   0  0  0  0  0  0  0  0  0  0  0  0
    0.0166   -1.2714   -0.3980 H   0  0  0  0  0  0  0  0  0  0  0  0
   -1.8516   -1.5560   -1.3787 C   0  0  0  0  0  0  0  0  0  0  0  0
   -1.9034   -0.9117   -2.2632 H   0  0  0  0  0  0  0  0  0  0  0  0
   -1.3254   -2.4669   -1.6847 H   0  0  0  0  0  0  0  0  0  0  0  0
   -3.2650   -1.9708   -0.9571 C   0  0  0  0  0  0  0  0  0  0  0  0
   -3.2684   -3.0281   -0.6691 H   0  0  0  0  0  0  0  0  0  0  0  0
   -3.5786   -1.3885   -0.0890 H   0  0  0  0  0  0  0  0  0  0  0  0
   -4.2274   -1.7163   -2.0428 N   0  3  0  0  0  0  0  0  0  0  0  0
   -4.2798   -2.4057   -2.7915 H   0  0  0  0  0  0  0  0  0  0  0  0
   -4.9807   -0.6525   -2.0889 C   0  0  0  0  0  0  0  0  0  0  0  0
   -4.9391    0.3323   -1.1236 N   0  0  0  0  0  0  0  0  0  0  0  0
   -4.1922    0.3127   -0.4204 H   0  0  0  0  0  0  0  0  0  0  0  0
   -5.3819    1.2284   -1.3104 H   0  0  0  0  0  0  0  0  0  0  0  0
   -5.8542   -0.4953   -3.1385 N   0  0  0  0  0  0  0  0  0  0  0  0
   -6.0318   -1.2895   -3.7501 H   0  0  0  0  0  0  0  0  0  0  0  0
   -6.5749    0.2200   -3.0632 H   0  0  0  0  0  0  0  0  0  0  0  0
   -1.9384    0.5784    1.4933 C   0  0  0  0  0  0  0  0  0  0  0  0
   -3.0902    0.7970    1.1126 O   0  0  0  0  0  0  0  0  0  0  0  0
   -1.1879    1.5941    2.0526 N   0  0  0  0  0  0  0  0  0  0  0  0
   -0.2423    1.3720    2.3581 H   0  0  0  0  0  0  0  0  0  0  0  0
   -1.7068    2.9335    2.3095 C   0  0  0  0  0  0  0  0  0  0  0  0
   -2.6045    2.8860    2.9352 H   0  0  0  0  0  0  0  0  0  0  0  0
   -0.9566    3.5358    2.8319 H   0  0  0  0  0  0  0  0  0  0  0  0
   -1.9578    3.4358    1.3695 H   0  0  0  0  0  0  0  0  0  0  0  0
  1  2  1  0  0  0  0
  2  3  1  0  0  0  0
  2  4  1  0  0  0  0
  2  5  1  0  0  0  0
  5  6  2  0  0  0  0
  5  7  1  0  0  0  0
  7  8  1  0  0  0  0
  7  9  1  0  0  0  0
  9 10  1  0  0  0  0
  9 11  1  0  0  0  0
  9 29  1  0  0  0  0
 11 12  1  0  0  0  0
 11 13  1  0  0  0  0
 11 14  1  0  0  0  0
 14 15  1  0  0  0  0
 14 16  1  0  0  0  0
 14 17  1  0  0  0  0
 17 18  1  0  0  0  0
 17 19  1  0  0  0  0
 17 20  1  0  0  0  0
 20 21  1  0  0  0  0
 20 22  2  0  0  0  0
 22 23  1  0  0  0  0
 22 26  1  0  0  0  0
 23 24  1  0  0  0  0
 23 25  1  0  0  0  0
 26 27  1  0  0  0  0
 26 28  1  0  0  0  0
 29 30  2  0  0  0  0
 29 31  1  0  0  0  0
 31 32  1  0  0  0  0
 31 33  1  0  0  0  0
 33 34  1  0  0  0  0
 33 35  1  0  0  0  0
 33 36  1  0  0  0  0
M  CHG  1  20   1
M  END
$$$$

  -OEChem-03222214013D

 36 35  0     1  0  0  0  0  0999 V2000
   -2.5543   -4.5504    3.5434 H   0  0  0  0  0  0  0  0  0  0  0  0
   -3.0335   -3.6897    3.0674 C   0  0  0  0  0  0  0  0  0  0  0  0
   -3.5073   -3.0811    3.8413 H   0  0  0  0  0  0  0  0  0  0  0  0
   -3.7982   -4.0520    2.3767 H   0  0  0  0  0  0  0  0  0  0  0  0
   -2.0022   -2.8677    2.3186 C   0  0  0  0  0  0  0  0  0  0  0  0
   -0.8328   -3.2109    2.3154 O   0  0  0  0  0  0  0  0  0  0  0  0
   -2.3868   -1.7417    1.6152 N   0  0  0  0  0  0  0  0  0  0  0  0
   -3.3348   -1.4148    1.7916 H   0  0  0  0  0  0  0  0  0  0  0  0
   -1.4175   -0.7389    1.1349 C   0  0  1  0  0  0  0  0  0  0  0  0
   -0.4774   -0.8362    1.6903 H   0  0  0  0  0  0  0  0  0  0  0  0
   -1.0866   -0.8026   -0.3870 C   0  0  0  0  0  0  0  0  0  0  0  0
   -1.0201    0.2232   -0.7671 H   0  0  0  0  0  0  0  0  0  0  0  0
   -0.0786   -1.2225   -0.4750 H   0  0  0  0  0  0  0  0  0  0  0  0
   -1.9821   -1.5973   -1.3694 C   0  0  0  0  0  0  0  0  0  0  0  0
   -1.8558   -1.1738   -2.3714 H   0  0  0  0  0  0  0  0  0  0  0  0
   -1.6033   -2.6247   -1.4098 H   0  0  0  0  0  0  0  0  0  0  0  0
   -3.4703   -1.6836   -1.0037 C   0  0  0  0  0  0  0  0  0  0  0  0
   -3.7073   -2.7098   -0.7020 H   0  0  0  0  0  0  0  0  0  0  0  0
   -3.6850   -1.0349   -0.1515 H   0  0  0  0  0  0  0  0  0  0  0  0
   -4.3211   -1.2790   -2.1375 N   0  3  0  0  0  0  0  0  0  0  0  0
   -4.5691   -2.0025   -2.8109 H   0  0  0  0  0  0  0  0  0  0  0  0
   -4.8003   -0.0756   -2.2850 C   0  0  0  0  0  0  0  0  0  0  0  0
   -4.5219    0.9496   -1.4087 N   0  0  0  0  0  0  0  0  0  0  0  0
   -4.0242    0.7361   -0.5377 H   0  0  0  0  0  0  0  0  0  0  0  0
   -5.1058    1.7817   -1.4210 H   0  0  0  0  0  0  0  0  0  0  0  0
   -5.6145    0.1955   -3.3583 N   0  0  0  0  0  0  0  0  0  0  0  0
   -5.6779   -0.4875   -4.1103 H   0  0  0  0  0  0  0  0  0  0  0  0
   -5.8140    1.1695   -3.5787 H   0  0  0  0  0  0  0  0  0  0  0  0
   -1.9810    0.6596    1.4576 C   0  0  0  0  0  0  0  0  0  0  0  0
   -3.1384    0.9163    1.1263 O   0  0  0  0  0  0  0  0  0  0  0  0
   -1.1840    1.6450    2.0067 N   0  0  0  0  0  0  0  0  0  0  0  0
   -0.2403    1.3870    2.2890 H   0  0  0  0  0  0  0  0  0  0  0  0
   -1.6620    2.9871    2.3229 C   0  0  0  0  0  0  0  0  0  0  0  0
   -2.4980    2.9415    3.0291 H   0  0  0  0  0  0  0  0  0  0  0  0
   -0.8598    3.5766    2.7788 H   0  0  0  0  0  0  0  0  0  0  0  0
   -1.9933    3.5023    1.4149 H   0  0  0  0  0  0  0  0  0  0  0  0
  1  2  1  0  0  0  0
  2  3  1  0  0  0  0
  2  4  1  0  0  0  0
  2  5  1  0  0  0  0
  5  6  2  0  0  0  0
  5  7  1  0  0  0  0
  7  8  1  0  0  0  0
  7  9  1  0  0  0  0
  9 10  1  0  0  0  0
  9 11  1  0  0  0  0
  9 29  1  0  0  0  0
 11 12  1  0  0  0  0
 11 13  1  0  0  0  0
 11 14  1  0  0  0  0
 14 15  1  0  0  0  0
 14 16  1  0  0  0  0
 14 17  1  0  0  0  0
 17 18  1  0  0  0  0
 17 19  1  0  0  0  0
 17 20  1  0  0  0  0
 20 21  1  0  0  0  0
 20 22  2  0  0  0  0
 22 23  1  0  0  0  0
 22 26  1  0  0  0  0
 23 24  1  0  0  0  0
 23 25  1  0  0  0  0
 26 27  1  0  0  0  0
 26 28  1  0  0  0  0
 29 30  2  0  0  0  0
 29 31  1  0  0  0  0
 31 32  1  0  0  0  0
 31 33  1  0  0  0  0
 33 34  1  0  0  0  0
 33 35  1  0  0  0  0
 33 36  1  0  0  0  0
M  CHG  1  20   1
M  END
$$$$

  -OEChem-03222214013D

 36 35  0     1  0  0  0  0  0999 V2000
   -2.8180   -4.4488    3.4294 H   0  0  0  0  0  0  0  0  0  0  0  0
   -3.2464   -3.5748    2.9297 C   0  0  0  0  0  0  0  0  0  0  0  0
   -3.7339   -2.9472    3.6796 H   0  0  0  0  0  0  0  0  0  0  0  0
   -3.9914   -3.9149    2.2067 H   0  0  0  0  0  0  0  0  0  0  0  0
   -2.1547   -2.7917    2.2257 C   0  0  0  0  0  0  0  0  0  0  0  0
   -0.9973   -3.1700    2.2830 O   0  0  0  0  0  0  0  0  0  0  0  0
   -2.4698   -1.6603    1.4969 N   0  0  0  0  0  0  0  0  0  0  0  0
   -3.4161   -1.3064    1.6202 H   0  0  0  0  0  0  0  0  0  0  0  0
   -1.4488   -0.6953    1.0443 C   0  0  1  0  0  0  0  0  0  0  0  0
   -0.5417   -0.8204    1.6470 H   0  0  0  0  0  0  0  0  0  0  0  0
   -1.0415   -0.8585   -0.4474 C   0  0  0  0  0  0  0  0  0  0  0  0
   -0.9356    0.1363   -0.8938 H   0  0  0  0  0  0  0  0  0  0  0  0
   -0.0453   -1.3141   -0.4643 H   0  0  0  0  0  0  0  0  0  0  0  0
   -1.9379   -1.7021   -1.3791 C   0  0  0  0  0  0  0  0  0  0  0  0
   -1.5992   -1.5850   -2.4138 H   0  0  0  0  0  0  0  0  0  0  0  0
   -1.7800   -2.7532   -1.1124 H   0  0  0  0  0  0  0  0  0  0  0  0
   -3.4451   -1.4272   -1.2604 C   0  0  0  0  0  0  0  0  0  0  0  0
   -3.9750   -2.3841   -1.1981 H   0  0  0  0  0  0  0  0  0  0  0  0
   -3.6609   -0.8695   -0.3464 H   0  0  0  0  0  0  0  0  0  0  0  0
   -3.9211   -0.6856   -2.4454 N   0  3  0  0  0  0  0  0  0  0  0  0
   -3.7676   -1.1301   -3.3491 H   0  0  0  0  0  0  0  0  0  0  0  0
   -4.5720    0.4426   -2.4064 C   0  0  0  0  0  0  0  0  0  0  0  0
   -4.8271    1.1221   -1.2394 N   0  0  0  0  0  0  0  0  0  0  0  0
   -4.2510    0.8886   -0.4242 H   0  0  0  0  0  0  0  0  0  0  0  0
   -5.1368    2.0875   -1.3084 H   0  0  0  0  0  0  0  0  0  0  0  0
   -5.0369    0.9843   -3.5809 N   0  0  0  0  0  0  0  0  0  0  0  0
   -5.0251    0.4105   -4.4216 H   0  0  0  0  0  0  0  0  0  0  0  0
   -5.7214    1.7362   -3.5263 H   0  0  0  0  0  0  0  0  0  0  0  0
   -1.9405    0.7395    1.3152 C   0  0  0  0  0  0  0  0  0  0  0  0
   -3.0871    1.0442    0.9929 O   0  0  0  0  0  0  0  0  0  0  0  0
   -1.1050    1.6877    1.8728 N   0  0  0  0  0  0  0  0  0  0  0  0
   -0.1801    1.3837    2.1715 H   0  0  0  0  0  0  0  0  0  0  0  0
   -1.5297    3.0443    2.2022 C   0  0  0  0  0  0  0  0  0  0  0  0
   -2.3302    3.0255    2.9495 H   0  0  0  0  0  0  0  0  0  0  0  0
   -0.6897    3.6146    2.6116 H   0  0  0  0  0  0  0  0  0  0  0  0
   -1.8928    3.5629    1.3089 H   0  0  0  0  0  0  0  0  0  0  0  0
  1  2  1  0  0  0  0
  2  3  1  0  0  0  0
  2  4  1  0  0  0  0
  2  5  1  0  0  0  0
  5  6  2  0  0  0  0
  5  7  1  0  0  0  0
  7  8  1  0  0  0  0
  7  9  1  0  0  0  0
  9 10  1  0  0  0  0
  9 11  1  0  0  0  0
  9 29  1  0  0  0  0
 11 12  1  0  0  0  0
 11 13  1  0  0  0  0
 11 14  1  0  0  0  0
 14 15  1  0  0  0  0
 14 16  1  0  0  0  0
 14 17  1  0  0  0  0
 17 18  1  0  0  0  0
 17 19  1  0  0  0  0
 17 20  1  0  0  0  0
 20 21  1  0  0  0  0
 20 22  2  0  0  0  0
 22 23  1  0  0  0  0
 22 26  1  0  0  0  0
 23 24  1  0  0  0  0
 23 25  1  0  0  0  0
 26 27  1  0  0  0  0
 26 28  1  0  0  0  0
 29 30  2  0  0  0  0
 29 31  1  0  0  0  0
 31 32  1  0  0  0  0
 31 33  1  0  0  0  0
 33 34  1  0  0  0  0
 33 35  1  0  0  0  0
 33 36  1  0  0  0  0
M  CHG  1  20   1
M  END
$$$$

  -OEChem-03222214013D

 36 35  0     1  0  0  0  0  0999 V2000
   -3.7931   -4.2826    2.5836 H   0  0  0  0  0  0  0  0  0  0  0  0
   -3.9223   -3.2502    2.2459 C   0  0  0  0  0  0  0  0  0  0  0  0
   -4.3242   -2.6590    3.0723 H   0  0  0  0  0  0  0  0  0  0  0  0
   -4.6334   -3.2388    1.4170 H   0  0  0  0  0  0  0  0  0  0  0  0
   -2.5904   -2.6785    1.7999 C   0  0  0  0  0  0  0  0  0  0  0  0
   -1.5716   -3.3370    1.9184 O   0  0  0  0  0  0  0  0  0  0  0  0
   -2.5307   -1.4174    1.2401 N   0  0  0  0  0  0  0  0  0  0  0  0
   -3.3800   -0.8610    1.3189 H   0  0  0  0  0  0  0  0  0  0  0  0
   -1.2691   -0.6609    1.1264 C   0  0  1  0  0  0  0  0  0  0  0  0
   -0.5216   -1.0704    1.8156 H   0  0  0  0  0  0  0  0  0  0  0  0
   -0.6604   -0.6525   -0.3025 C   0  0  0  0  0  0  0  0  0  0  0  0
   -0.2569    0.3415   -0.5260 H   0  0  0  0  0  0  0  0  0  0  0  0
    0.1908   -1.3416   -0.2963 H   0  0  0  0  0  0  0  0  0  0  0  0
   -1.5841   -1.0870   -1.4535 C   0  0  0  0  0  0  0  0  0  0  0  0
   -1.0257   -1.0442   -2.3944 H   0  0  0  0  0  0  0  0  0  0  0  0
   -1.9098   -2.1220   -1.3027 H   0  0  0  0  0  0  0  0  0  0  0  0
   -2.7934   -0.1536   -1.5193 C   0  0  0  0  0  0  0  0  0  0  0  0
   -3.3931   -0.2722   -0.6125 H   0  0  0  0  0  0  0  0  0  0  0  0
   -2.4301    0.8799   -1.5498 H   0  0  0  0  0  0  0  0  0  0  0  0
   -3.6315   -0.4163   -2.6994 N   0  3  0  0  0  0  0  0  0  0  0  0
   -3.3044   -1.1140   -3.3661 H   0  0  0  0  0  0  0  0  0  0  0  0
   -4.7267    0.2480   -2.9305 C   0  0  0  0  0  0  0  0  0  0  0  0
   -5.1727    1.2182   -2.0595 N   0  0  0  0  0  0  0  0  0  0  0  0
   -4.5477    1.5032   -1.3044 H   0  0  0  0  0  0  0  0  0  0  0  0
   -5.8673    1.8874   -2.3838 H   0  0  0  0  0  0  0  0  0  0  0  0
   -5.4597   -0.0130   -4.0637 N   0  0  0  0  0  0  0  0  0  0  0  0
   -5.2342   -0.8387   -4.6150 H   0  0  0  0  0  0  0  0  0  0  0  0
   -6.4047    0.3611   -4.1271 H   0  0  0  0  0  0  0  0  0  0  0  0
   -1.5491    0.7898    1.5743 C   0  0  0  0  0  0  0  0  0  0  0  0
   -2.5631    1.3521    1.1620 O   0  0  0  0  0  0  0  0  0  0  0  0
   -0.6855    1.4554    2.4228 N   0  0  0  0  0  0  0  0  0  0  0  0
    0.1217    0.9450    2.7746 H   0  0  0  0  0  0  0  0  0  0  0  0
   -0.9193    2.8120    2.9063 C   0  0  0  0  0  0  0  0  0  0  0  0
   -1.8465    2.8580    3.4872 H   0  0  0  0  0  0  0  0  0  0  0  0
   -0.0933    3.1322    3.5492 H   0  0  0  0  0  0  0  0  0  0  0  0
   -0.9931    3.5124    2.0677 H   0  0  0  0  0  0  0  0  0  0  0  0
  1  2  1  0  0  0  0
  2  3  1  0  0  0  0
  2  4  1  0  0  0  0
  2  5  1  0  0  0  0
  5  6  2  0  0  0  0
  5  7  1  0  0  0  0
  7  8  1  0  0  0  0
  7  9  1  0  0  0  0
  9 10  1  0  0  0  0
  9 11  1  0  0  0  0
  9 29  1  0  0  0  0
 11 12  1  0  0  0  0
 11 13  1  0  0  0  0
 11 14  1  0  0  0  0
 14 15  1  0  0  0  0
 14 16  1  0  0  0  0
 14 17  1  0  0  0  0
 17 18  1  0  0  0  0
 17 19  1  0  0  0  0
 17 20  1  0  0  0  0
 20 21  1  0  0  0  0
 20 22  2  0  0  0  0
 22 23  1  0  0  0  0
 22 26  1  0  0  0  0
 23 24  1  0  0  0  0
 23 25  1  0  0  0  0
 26 27  1  0  0  0  0
 26 28  1  0  0  0  0
 29 30  2  0  0  0  0
 29 31  1  0  0  0  0
 31 32  1  0  0  0  0
 31 33  1  0  0  0  0
 33 34  1  0  0  0  0
 33 35  1  0  0  0  0
 33 36  1  0  0  0  0
M  CHG  1  20   1
M  END
$$$$

  -OEChem-03222214013D

 36 35  0     1  0  0  0  0  0999 V2000
   -4.0107   -4.1188    2.4870 H   0  0  0  0  0  0  0  0  0  0  0  0
   -4.0907   -3.1234    2.0403 C   0  0  0  0  0  0  0  0  0  0  0  0
   -4.5817   -2.4579    2.7545 H   0  0  0  0  0  0  0  0  0  0  0  0
   -4.6989   -3.1924    1.1356 H   0  0  0  0  0  0  0  0  0  0  0  0
   -2.7106   -2.5938    1.7015 C   0  0  0  0  0  0  0  0  0  0  0  0
   -1.7237   -3.2748    1.9207 O   0  0  0  0  0  0  0  0  0  0  0  0
   -2.5683   -1.3469    1.1240 N   0  0  0  0  0  0  0  0  0  0  0  0
   -3.4041   -0.7653    1.1105 H   0  0  0  0  0  0  0  0  0  0  0  0
   -1.2770   -0.6349    1.0815 C   0  0  1  0  0  0  0  0  0  0  0  0
   -0.5912   -1.0544    1.8265 H   0  0  0  0  0  0  0  0  0  0  0  0
   -0.5778   -0.6836   -0.3046 C   0  0  0  0  0  0  0  0  0  0  0  0
   -0.1052    0.2798   -0.5281 H   0  0  0  0  0  0  0  0  0  0  0  0
    0.2321   -1.4168   -0.2242 H   0  0  0  0  0  0  0  0  0  0  0  0
   -1.4567   -1.1213   -1.4893 C   0  0  0  0  0  0  0  0  0  0  0  0
   -0.8157   -1.3515   -2.3467 H   0  0  0  0  0  0  0  0  0  0  0  0
   -2.0240   -2.0271   -1.2525 H   0  0  0  0  0  0  0  0  0  0  0  0
   -2.3760    0.0447   -1.8408 C   0  0  0  0  0  0  0  0  0  0  0  0
   -2.9444    0.3126   -0.9456 H   0  0  0  0  0  0  0  0  0  0  0  0
   -1.7635    0.9072   -2.1273 H   0  0  0  0  0  0  0  0  0  0  0  0
   -3.3137   -0.2839   -2.9251 N   0  3  0  0  0  0  0  0  0  0  0  0
   -3.1079   -1.1004   -3.4989 H   0  0  0  0  0  0  0  0  0  0  0  0
   -4.3606    0.4483   -3.1760 C   0  0  0  0  0  0  0  0  0  0  0  0
   -4.6604    1.5574   -2.4138 N   0  0  0  0  0  0  0  0  0  0  0  0
   -4.1231    1.7134   -1.5597 H   0  0  0  0  0  0  0  0  0  0  0  0
   -5.5884    1.9694   -2.4799 H   0  0  0  0  0  0  0  0  0  0  0  0
   -5.1906    0.1165   -4.2203 N   0  0  0  0  0  0  0  0  0  0  0  0
   -4.8718   -0.5786   -4.8926 H   0  0  0  0  0  0  0  0  0  0  0  0
   -5.8664    0.8092   -4.5374 H   0  0  0  0  0  0  0  0  0  0  0  0
   -1.5308    0.8345    1.4824 C   0  0  0  0  0  0  0  0  0  0  0  0
   -2.4964    1.4262    1.0006 O   0  0  0  0  0  0  0  0  0  0  0  0
   -0.6991    1.4846    2.3738 N   0  0  0  0  0  0  0  0  0  0  0  0
    0.0606    0.9501    2.7897 H   0  0  0  0  0  0  0  0  0  0  0  0
   -0.9266    2.8498    2.8362 C   0  0  0  0  0  0  0  0  0  0  0  0
   -1.8867    2.9240    3.3580 H   0  0  0  0  0  0  0  0  0  0  0  0
   -0.1345    3.1522    3.5285 H   0  0  0  0  0  0  0  0  0  0  0  0
   -0.9293    3.5470    1.9916 H   0  0  0  0  0  0  0  0  0  0  0  0
  1  2  1  0  0  0  0
  2  3  1  0  0  0  0
  2  4  1  0  0  0  0
  2  5  1  0  0  0  0
  5  6  2  0  0  0  0
  5  7  1  0  0  0  0
  7  8  1  0  0  0  0
  7  9  1  0  0  0  0
  9 10  1  0  0  0  0
  9 11  1  0  0  0  0
  9 29  1  0  0  0  0
 11 12  1  0  0  0  0
 11 13  1  0  0  0  0
 11 14  1  0  0  0  0
 14 15  1  0  0  0  0
 14 16  1  0  0  0  0
 14 17  1  0  0  0  0
 17 18  1  0  0  0  0
 17 19  1  0  0  0  0
 17 20  1  0  0  0  0
 20 21  1  0  0  0  0
 20 22  2  0  0  0  0
 22 23  1  0  0  0  0
 22 26  1  0  0  0  0
 23 24  1  0  0  0  0
 23 25  1  0  0  0  0
 26 27  1  0  0  0  0
 26 28  1  0  0  0  0
 29 30  2  0  0  0  0
 29 31  1  0  0  0  0
 31 32  1  0  0  0  0
 31 33  1  0  0  0  0
 33 34  1  0  0  0  0
 33 35  1  0  0  0  0
 33 36  1  0  0  0  0
M  CHG  1  20   1
M  END
$$$$

  -OEChem-03222214013D

 36 35  0     1  0  0  0  0  0999 V2000
   -4.5601   -3.8234    1.8876 H   0  0  0  0  0  0  0  0  0  0  0  0
   -4.4805   -2.8325    1.4306 C   0  0  0  0  0  0  0  0  0  0  0  0
   -5.0593   -2.1239    2.0281 H   0  0  0  0  0  0  0  0  0  0  0  0
   -4.8972   -2.8775    0.4219 H   0  0  0  0  0  0  0  0  0  0  0  0
   -3.0272   -2.4019    1.3769 C   0  0  0  0  0  0  0  0  0  0  0  0
   -2.1602   -3.1176    1.8467 O   0  0  0  0  0  0  0  0  0  0  0  0
   -2.6804   -1.2070    0.7758 N   0  0  0  0  0  0  0  0  0  0  0  0
   -3.4506   -0.5839    0.5458 H   0  0  0  0  0  0  0  0  0  0  0  0
   -1.3530   -0.5860    0.9451 C   0  0  1  0  0  0  0  0  0  0  0  0
   -0.8498   -1.0012    1.8261 H   0  0  0  0  0  0  0  0  0  0  0  0
   -0.4094   -0.7462   -0.2787 C   0  0  0  0  0  0  0  0  0  0  0  0
    0.1873    0.1608   -0.4308 H   0  0  0  0  0  0  0  0  0  0  0  0
    0.3000   -1.5374   -0.0120 H   0  0  0  0  0  0  0  0  0  0  0  0
   -1.0665   -1.1828   -1.6025 C   0  0  0  0  0  0  0  0  0  0  0  0
   -0.3319   -1.7234   -2.2091 H   0  0  0  0  0  0  0  0  0  0  0  0
   -1.9000   -1.8714   -1.4407 H   0  0  0  0  0  0  0  0  0  0  0  0
   -1.4939    0.0732   -2.3651 C   0  0  0  0  0  0  0  0  0  0  0  0
   -1.6797    0.8834   -1.6540 H   0  0  0  0  0  0  0  0  0  0  0  0
   -0.6716    0.3972   -3.0129 H   0  0  0  0  0  0  0  0  0  0  0  0
   -2.7035   -0.1734   -3.1694 N   0  3  0  0  0  0  0  0  0  0  0  0
   -2.5928   -0.7422   -4.0076 H   0  0  0  0  0  0  0  0  0  0  0  0
   -3.8700    0.3356   -2.8892 C   0  0  0  0  0  0  0  0  0  0  0  0
   -4.0974    1.0916   -1.7592 N   0  0  0  0  0  0  0  0  0  0  0  0
   -3.3115    1.3317   -1.1442 H   0  0  0  0  0  0  0  0  0  0  0  0
   -4.9608    1.6201   -1.6648 H   0  0  0  0  0  0  0  0  0  0  0  0
   -4.9230    0.1042   -3.7427 N   0  0  0  0  0  0  0  0  0  0  0  0
   -4.7401   -0.2993   -4.6594 H   0  0  0  0  0  0  0  0  0  0  0  0
   -5.7948    0.6105   -3.6009 H   0  0  0  0  0  0  0  0  0  0  0  0
   -1.5713    0.9171    1.2136 C   0  0  0  0  0  0  0  0  0  0  0  0
   -2.3715    1.5321    0.5071 O   0  0  0  0  0  0  0  0  0  0  0  0
   -0.8805    1.5743    2.2127 N   0  0  0  0  0  0  0  0  0  0  0  0
   -0.2511    1.0246    2.7942 H   0  0  0  0  0  0  0  0  0  0  0  0
   -1.0646    2.9871    2.5280 C   0  0  0  0  0  0  0  0  0  0  0  0
   -2.0983    3.1825    2.8321 H   0  0  0  0  0  0  0  0  0  0  0  0
   -0.4031    3.2804    3.3497 H   0  0  0  0  0  0  0  0  0  0  0  0
   -0.8291    3.6098    1.6586 H   0  0  0  0  0  0  0  0  0  0  0  0
  1  2  1  0  0  0  0
  2  3  1  0  0  0  0
  2  4  1  0  0  0  0
  2  5  1  0  0  0  0
  5  6  2  0  0  0  0
  5  7  1  0  0  0  0
  7  8  1  0  0  0  0
  7  9  1  0  0  0  0
  9 10  1  0  0  0  0
  9 11  1  0  0  0  0
  9 29  1  0  0  0  0
 11 12  1  0  0  0  0
 11 13  1  0  0  0  0
 11 14  1  0  0  0  0
 14 15  1  0  0  0  0
 14 16  1  0  0  0  0
 14 17  1  0  0  0  0
 17 18  1  0  0  0  0
 17 19  1  0  0  0  0
 17 20  1  0  0  0  0
 20 21  1  0  0  0  0
 20 22  2  0  0  0  0
 22 23  1  0  0  0  0
 22 26  1  0  0  0  0
 23 24  1  0  0  0  0
 23 25  1  0  0  0  0
 26 27  1  0  0  0  0
 26 28  1  0  0  0  0
 29 30  2  0  0  0  0
 29 31  1  0  0  0  0
 31 32  1  0  0  0  0
 31 33  1  0  0  0  0
 33 34  1  0  0  0  0
 33 35  1  0  0  0  0
 33 36  1  0  0  0  0
M  CHG  1  20   1
M  END
$$$$

  -OEChem-03222214013D

 36 35  0     1  0  0  0  0  0999 V2000
   -4.5222   -3.8211    2.1612 H   0  0  0  0  0  0  0  0  0  0  0  0
   -4.4465   -2.8947    1.5841 C   0  0  0  0  0  0  0  0  0  0  0  0
   -5.0411   -2.1243    2.0810 H   0  0  0  0  0  0  0  0  0  0  0  0
   -4.8491   -3.0711    0.5842 H   0  0  0  0  0  0  0  0  0  0  0  0
   -2.9970   -2.4565    1.4938 C   0  0  0  0  0  0  0  0  0  0  0  0
   -2.1229   -3.1293    2.0116 O   0  0  0  0  0  0  0  0  0  0  0  0
   -2.6607   -1.2994    0.8171 N   0  0  0  0  0  0  0  0  0  0  0  0
   -3.4358   -0.7016    0.5395 H   0  0  0  0  0  0  0  0  0  0  0  0
   -1.3373   -0.6602    0.9427 C   0  0  1  0  0  0  0  0  0  0  0  0
   -0.8173   -1.0189    1.8387 H   0  0  0  0  0  0  0  0  0  0  0  0
   -0.4035   -0.8379   -0.2855 C   0  0  0  0  0  0  0  0  0  0  0  0
    0.1950    0.0654   -0.4533 H   0  0  0  0  0  0  0  0  0  0  0  0
    0.3104   -1.6187   -0.0011 H   0  0  0  0  0  0  0  0  0  0  0  0
   -1.0539   -1.3164   -1.6012 C   0  0  0  0  0  0  0  0  0  0  0  0
   -0.4145   -2.0733   -2.0682 H   0  0  0  0  0  0  0  0  0  0  0  0
   -2.0280   -1.7855   -1.4495 H   0  0  0  0  0  0  0  0  0  0  0  0
   -1.1544   -0.1130   -2.5421 C   0  0  0  0  0  0  0  0  0  0  0  0
   -1.2183    0.8056   -1.9490 H   0  0  0  0  0  0  0  0  0  0  0  0
   -0.2413   -0.0466   -3.1445 H   0  0  0  0  0  0  0  0  0  0  0  0
   -2.3344   -0.2217   -3.4175 N   0  3  0  0  0  0  0  0  0  0  0  0
   -2.2888   -0.9058   -4.1713 H   0  0  0  0  0  0  0  0  0  0  0  0
   -3.3851    0.5416   -3.3063 C   0  0  0  0  0  0  0  0  0  0  0  0
   -3.5218    1.4804   -2.3076 N   0  0  0  0  0  0  0  0  0  0  0  0
   -2.8901    1.4319   -1.5003 H   0  0  0  0  0  0  0  0  0  0  0  0
   -4.4321    1.9069   -2.1570 H   0  0  0  0  0  0  0  0  0  0  0  0
   -4.4038    0.4152   -4.2202 N   0  0  0  0  0  0  0  0  0  0  0  0
   -4.2316   -0.1236   -5.0665 H   0  0  0  0  0  0  0  0  0  0  0  0
   -5.1026    1.1546   -4.2633 H   0  0  0  0  0  0  0  0  0  0  0  0
   -1.5811    0.8524    1.1158 C   0  0  0  0  0  0  0  0  0  0  0  0
   -2.3414    1.4176    0.3275 O   0  0  0  0  0  0  0  0  0  0  0  0
   -0.9024    1.5851    2.0698 N   0  0  0  0  0  0  0  0  0  0  0  0
   -0.2995    1.0785    2.7152 H   0  0  0  0  0  0  0  0  0  0  0  0
   -1.0840    3.0197    2.2660 C   0  0  0  0  0  0  0  0  0  0  0  0
   -2.1248    3.2447    2.5221 H   0  0  0  0  0  0  0  0  0  0  0  0
   -0.4451    3.3736    3.0815 H   0  0  0  0  0  0  0  0  0  0  0  0
   -0.8168    3.5697    1.3575 H   0  0  0  0  0  0  0  0  0  0  0  0
  1  2  1  0  0  0  0
  2  3  1  0  0  0  0
  2  4  1  0  0  0  0
  2  5  1  0  0  0  0
  5  6  2  0  0  0  0
  5  7  1  0  0  0  0
  7  8  1  0  0  0  0
  7  9  1  0  0  0  0
  9 10  1  0  0  0  0
  9 11  1  0  0  0  0
  9 29  1  0  0  0  0
 11 12  1  0  0  0  0
 11 13  1  0  0  0  0
 11 14  1  0  0  0  0
 14 15  1  0  0  0  0
 14 16  1  0  0  0  0
 14 17  1  0  0  0  0
 17 18  1  0  0  0  0
 17 19  1  0  0  0  0
 17 20  1  0  0  0  0
 20 21  1  0  0  0  0
 20 22  2  0  0  0  0
 22 23  1  0  0  0  0
 22 26  1  0  0  0  0
 23 24  1  0  0  0  0
 23 25  1  0  0  0  0
 26 27  1  0  0  0  0
 26 28  1  0  0  0  0
 29 30  2  0  0  0  0
 29 31  1  0  0  0  0
 31 32  1  0  0  0  0
 31 33  1  0  0  0  0
 33 34  1  0  0  0  0
 33 35  1  0  0  0  0
 33 36  1  0  0  0  0
M  CHG  1  20   1
M  END
$$$$

  -OEChem-03222214013D

 36 35  0     1  0  0  0  0  0999 V2000
   -4.5319   -3.8381    2.1776 H   0  0  0  0  0  0  0  0  0  0  0  0
   -4.4505   -2.9137    1.5982 C   0  0  0  0  0  0  0  0  0  0  0  0
   -5.0573   -2.1440    2.0808 H   0  0  0  0  0  0  0  0  0  0  0  0
   -4.8338   -3.0960    0.5918 H   0  0  0  0  0  0  0  0  0  0  0  0
   -3.0023   -2.4690    1.5311 C   0  0  0  0  0  0  0  0  0  0  0  0
   -2.1384   -3.1154    2.0978 O   0  0  0  0  0  0  0  0  0  0  0  0
   -2.6548   -1.3391    0.8155 N   0  0  0  0  0  0  0  0  0  0  0  0
   -3.4244   -0.7574    0.4914 H   0  0  0  0  0  0  0  0  0  0  0  0
   -1.3309   -0.6994    0.9289 C   0  0  1  0  0  0  0  0  0  0  0  0
   -0.8148   -1.0282    1.8383 H   0  0  0  0  0  0  0  0  0  0  0  0
   -0.3949   -0.9143   -0.2919 C   0  0  0  0  0  0  0  0  0  0  0  0
    0.1967   -0.0101   -0.4776 H   0  0  0  0  0  0  0  0  0  0  0  0
    0.3277   -1.6798    0.0116 H   0  0  0  0  0  0  0  0  0  0  0  0
   -1.0424   -1.4279   -1.5990 C   0  0  0  0  0  0  0  0  0  0  0  0
   -0.5892   -2.3820   -1.8891 H   0  0  0  0  0  0  0  0  0  0  0  0
   -2.1136   -1.6068   -1.4949 H   0  0  0  0  0  0  0  0  0  0  0  0
   -0.8013   -0.3889   -2.6981 C   0  0  0  0  0  0  0  0  0  0  0  0
   -0.6977    0.6051   -2.2495 H   0  0  0  0  0  0  0  0  0  0  0  0
    0.1420   -0.6134   -3.2086 H   0  0  0  0  0  0  0  0  0  0  0  0
   -1.9151   -0.3709   -3.6632 N   0  3  0  0  0  0  0  0  0  0  0  0
   -1.8773   -1.0449   -4.4268 H   0  0  0  0  0  0  0  0  0  0  0  0
   -2.8925    0.4906   -3.6143 C   0  0  0  0  0  0  0  0  0  0  0  0
   -3.0194    1.4172   -2.6022 N   0  0  0  0  0  0  0  0  0  0  0  0
   -2.4781    1.2816   -1.7415 H   0  0  0  0  0  0  0  0  0  0  0  0
   -3.8930    1.9298   -2.5162 H   0  0  0  0  0  0  0  0  0  0  0  0
   -3.8402    0.4849   -4.6095 N   0  0  0  0  0  0  0  0  0  0  0  0
   -3.6493   -0.0435   -5.4584 H   0  0  0  0  0  0  0  0  0  0  0  0
   -4.4671    1.2842   -4.6790 H   0  0  0  0  0  0  0  0  0  0  0  0
   -1.5689    0.8194    1.0432 C   0  0  0  0  0  0  0  0  0  0  0  0
   -2.2800    1.3638    0.1970 O   0  0  0  0  0  0  0  0  0  0  0  0
   -0.8949    1.5832    1.9758 N   0  0  0  0  0  0  0  0  0  0  0  0
   -0.3272    1.0948    2.6658 H   0  0  0  0  0  0  0  0  0  0  0  0
   -1.0492    3.0290    2.0973 C   0  0  0  0  0  0  0  0  0  0  0  0
   -2.0910    3.2881    2.3141 H   0  0  0  0  0  0  0  0  0  0  0  0
   -0.4237    3.4088    2.9114 H   0  0  0  0  0  0  0  0  0  0  0  0
   -0.7469    3.5282    1.1706 H   0  0  0  0  0  0  0  0  0  0  0  0
  1  2  1  0  0  0  0
  2  3  1  0  0  0  0
  2  4  1  0  0  0  0
  2  5  1  0  0  0  0
  5  6  2  0  0  0  0
  5  7  1  0  0  0  0
  7  8  1  0  0  0  0
  7  9  1  0  0  0  0
  9 10  1  0  0  0  0
  9 11  1  0  0  0  0
  9 29  1  0  0  0  0
 11 12  1  0  0  0  0
 11 13  1  0  0  0  0
 11 14  1  0  0  0  0
 14 15  1  0  0  0  0
 14 16  1  0  0  0  0
 14 17  1  0  0  0  0
 17 18  1  0  0  0  0
 17 19  1  0  0  0  0
 17 20  1  0  0  0  0
 20 21  1  0  0  0  0
 20 22  2  0  0  0  0
 22 23  1  0  0  0  0
 22 26  1  0  0  0  0
 23 24  1  0  0  0  0
 23 25  1  0  0  0  0
 26 27  1  0  0  0  0
 26 28  1  0  0  0  0
 29 30  2  0  0  0  0
 29 31  1  0  0  0  0
 31 32  1  0  0  0  0
 31 33  1  0  0  0  0
 33 34  1  0  0  0  0
 33 35  1  0  0  0  0
 33 36  1  0  0  0  0
M  CHG  1  20   1
M  END
$$$$

  -OEChem-03222214013D

 36 35  0     1  0  0  0  0  0999 V2000
   -4.5151   -3.8165    2.3056 H   0  0  0  0  0  0  0  0  0  0  0  0
   -4.4254   -2.9569    1.6349 C   0  0  0  0  0  0  0  0  0  0  0  0
   -5.0629   -2.1529    2.0104 H   0  0  0  0  0  0  0  0  0  0  0  0
   -4.7660   -3.2513    0.6397 H   0  0  0  0  0  0  0  0  0  0  0  0
   -2.9829   -2.4927    1.5747 C   0  0  0  0  0  0  0  0  0  0  0  0
   -2.1207   -3.0962    2.1895 O   0  0  0  0  0  0  0  0  0  0  0  0
   -2.6376   -1.3933    0.8120 N   0  0  0  0  0  0  0  0  0  0  0  0
   -3.4089   -0.8427    0.4398 H   0  0  0  0  0  0  0  0  0  0  0  0
   -1.3226   -0.7323    0.9128 C   0  0  1  0  0  0  0  0  0  0  0  0
   -0.8114   -1.0156    1.8401 H   0  0  0  0  0  0  0  0  0  0  0  0
   -0.3796   -1.0017   -0.2912 C   0  0  0  0  0  0  0  0  0  0  0  0
    0.1773   -0.0880   -0.5278 H   0  0  0  0  0  0  0  0  0  0  0  0
    0.3696   -1.7289    0.0405 H   0  0  0  0  0  0  0  0  0  0  0  0
   -1.0359   -1.5848   -1.5631 C   0  0  0  0  0  0  0  0  0  0  0  0
   -0.8259   -2.6570   -1.6439 H   0  0  0  0  0  0  0  0  0  0  0  0
   -2.1215   -1.4691   -1.5368 H   0  0  0  0  0  0  0  0  0  0  0  0
   -0.5077   -0.8328   -2.7898 C   0  0  0  0  0  0  0  0  0  0  0  0
   -0.1485    0.1594   -2.4965 H   0  0  0  0  0  0  0  0  0  0  0  0
    0.3491   -1.3760   -3.2039 H   0  0  0  0  0  0  0  0  0  0  0  0
   -1.5582   -0.6766   -3.8129 N   0  3  0  0  0  0  0  0  0  0  0  0
   -1.5765   -1.3644   -4.5648 H   0  0  0  0  0  0  0  0  0  0  0  0
   -2.3925    0.3257   -3.8408 C   0  0  0  0  0  0  0  0  0  0  0  0
   -2.4396    1.2837   -2.8514 N   0  0  0  0  0  0  0  0  0  0  0  0
   -2.0149    1.0665   -1.9448 H   0  0  0  0  0  0  0  0  0  0  0  0
   -3.2321    1.9204   -2.8336 H   0  0  0  0  0  0  0  0  0  0  0  0
   -3.2651    0.4422   -4.8964 N   0  0  0  0  0  0  0  0  0  0  0  0
   -3.1103   -0.1342   -5.7211 H   0  0  0  0  0  0  0  0  0  0  0  0
   -3.7549    1.3264   -5.0197 H   0  0  0  0  0  0  0  0  0  0  0  0
   -1.5720    0.7886    0.9530 C   0  0  0  0  0  0  0  0  0  0  0  0
   -2.2477    1.2908    0.0538 O   0  0  0  0  0  0  0  0  0  0  0  0
   -0.9160    1.6002    1.8577 N   0  0  0  0  0  0  0  0  0  0  0  0
   -0.3711    1.1481    2.5895 H   0  0  0  0  0  0  0  0  0  0  0  0
   -1.0754    3.0501    1.9025 C   0  0  0  0  0  0  0  0  0  0  0  0
   -2.1236    3.3168    2.0750 H   0  0  0  0  0  0  0  0  0  0  0  0
   -0.4752    3.4720    2.7150 H   0  0  0  0  0  0  0  0  0  0  0  0
   -0.7460    3.5032    0.9615 H   0  0  0  0  0  0  0  0  0  0  0  0
  1  2  1  0  0  0  0
  2  3  1  0  0  0  0
  2  4  1  0  0  0  0
  2  5  1  0  0  0  0
  5  6  2  0  0  0  0
  5  7  1  0  0  0  0
  7  8  1  0  0  0  0
  7  9  1  0  0  0  0
  9 10  1  0  0  0  0
  9 11  1  0  0  0  0
  9 29  1  0  0  0  0
 11 12  1  0  0  0  0
 11 13  1  0  0  0  0
 11 14  1  0  0  0  0
 14 15  1  0  0  0  0
 14 16  1  0  0  0  0
 14 17  1  0  0  0  0
 17 18  1  0  0  0  0
 17 19  1  0  0  0  0
 17 20  1  0  0  0  0
 20 21  1  0  0  0  0
 20 22  2  0  0  0  0
 22 23  1  0  0  0  0
 22 26  1  0  0  0  0
 23 24  1  0  0  0  0
 23 25  1  0  0  0  0
 26 27  1  0  0  0  0
 26 28  1  0  0  0  0
 29 30  2  0  0  0  0
 29 31  1  0  0  0  0
 31 32  1  0  0  0  0
 31 33  1  0  0  0  0
 33 34  1  0  0  0  0
 33 35  1  0  0  0  0
 33 36  1  0  0  0  0
M  CHG  1  20   1
M  END
$$$$

  -OEChem-03222214013D

 36 35  0     1  0  0  0  0  0999 V2000
   -4.0218   -4.0979    2.5422 H   0  0  0  0  0  0  0  0  0  0  0  0
   -4.0992   -3.1120    2.0745 C   0  0  0  0  0  0  0  0  0  0  0  0
   -4.5850   -2.4292    2.7759 H   0  0  0  0  0  0  0  0  0  0  0  0
   -4.7119   -3.1963    1.1740 H   0  0  0  0  0  0  0  0  0  0  0  0
   -2.7187   -2.5946    1.7184 C   0  0  0  0  0  0  0  0  0  0  0  0
   -1.7377   -3.3003    1.8845 O   0  0  0  0  0  0  0  0  0  0  0  0
   -2.5698   -1.3351    1.1734 N   0  0  0  0  0  0  0  0  0  0  0  0
   -3.4009   -0.7438    1.1658 H   0  0  0  0  0  0  0  0  0  0  0  0
   -1.2737   -0.6364    1.1022 C   0  0  1  0  0  0  0  0  0  0  0  0
   -0.5699   -1.0879    1.8107 H   0  0  0  0  0  0  0  0  0  0  0  0
   -0.6305   -0.6782   -0.3090 C   0  0  0  0  0  0  0  0  0  0  0  0
   -0.2023    0.3069   -0.5270 H   0  0  0  0  0  0  0  0  0  0  0  0
    0.2054   -1.3856   -0.2855 H   0  0  0  0  0  0  0  0  0  0  0  0
   -1.5700   -1.0941   -1.4579 C   0  0  0  0  0  0  0  0  0  0  0  0
   -1.5817   -2.1859   -1.5490 H   0  0  0  0  0  0  0  0  0  0  0  0
   -2.5903   -0.7555   -1.2507 H   0  0  0  0  0  0  0  0  0  0  0  0
   -1.1306   -0.4290   -2.7608 C   0  0  0  0  0  0  0  0  0  0  0  0
   -1.1396    0.6583   -2.6256 H   0  0  0  0  0  0  0  0  0  0  0  0
   -0.1078   -0.7433   -2.9967 H   0  0  0  0  0  0  0  0  0  0  0  0
   -2.0441   -0.8123   -3.8525 N   0  3  0  0  0  0  0  0  0  0  0  0
   -2.8027   -1.4510   -3.6180 H   0  0  0  0  0  0  0  0  0  0  0  0
   -1.9377   -0.3677   -5.0712 C   0  0  0  0  0  0  0  0  0  0  0  0
   -0.9488    0.5166   -5.4373 N   0  0  0  0  0  0  0  0  0  0  0  0
   -0.3985    0.9467   -4.6968 H   0  0  0  0  0  0  0  0  0  0  0  0
   -1.0453    1.0202   -6.3167 H   0  0  0  0  0  0  0  0  0  0  0  0
   -2.8338   -0.7838   -6.0266 N   0  0  0  0  0  0  0  0  0  0  0  0
   -3.4518   -1.5639   -5.8117 H   0  0  0  0  0  0  0  0  0  0  0  0
   -2.6206   -0.5994   -7.0052 H   0  0  0  0  0  0  0  0  0  0  0  0
   -1.4733    0.8261    1.5482 C   0  0  0  0  0  0  0  0  0  0  0  0
   -2.4221    1.4587    1.0975 O   0  0  0  0  0  0  0  0  0  0  0  0
   -0.5901    1.4335    2.4210 N   0  0  0  0  0  0  0  0  0  0  0  0
    0.1427    0.8580    2.8290 H   0  0  0  0  0  0  0  0  0  0  0  0
   -0.7687    2.7939    2.9183 C   0  0  0  0  0  0  0  0  0  0  0  0
   -1.7063    2.8780    3.4782 H   0  0  0  0  0  0  0  0  0  0  0  0
    0.0565    3.0658    3.5839 H   0  0  0  0  0  0  0  0  0  0  0  0
   -0.7899    3.5075    2.0878 H   0  0  0  0  0  0  0  0  0  0  0  0
  1  2  1  0  0  0  0
  2  3  1  0  0  0  0
  2  4  1  0  0  0  0
  2  5  1  0  0  0  0
  5  6  2  0  0  0  0
  5  7  1  0  0  0  0
  7  8  1  0  0  0  0
  7  9  1  0  0  0  0
  9 10  1  0  0  0  0
  9 11  1  0  0  0  0
  9 29  1  0  0  0  0
 11 12  1  0  0  0  0
 11 13  1  0  0  0  0
 11 14  1  0  0  0  0
 14 15  1  0  0  0  0
 14 16  1  0  0  0  0
 14 17  1  0  0  0  0
 17 18  1  0  0  0  0
 17 19  1  0  0  0  0
 17 20  1  0  0  0  0
 20 21  1  0  0  0  0
 20 22  2  0  0  0  0
 22 23  1  0  0  0  0
 22 26  1  0  0  0  0
 23 24  1  0  0  0  0
 23 25  1  0  0  0  0
 26 27  1  0  0  0  0
 26 28  1  0  0  0  0
 29 30  2  0  0  0  0
 29 31  1  0  0  0  0
 31 32  1  0  0  0  0
 31 33  1  0  0  0  0
 33 34  1  0  0  0  0
 33 35  1  0  0  0  0
 33 36  1  0  0  0  0
M  CHG  1  20   1
M  END
$$$$

  -OEChem-03222214013D

 36 35  0     1  0  0  0  0  0999 V2000
   -4.0536   -4.0710    2.4791 H   0  0  0  0  0  0  0  0  0  0  0  0
   -4.1138   -3.0907    1.9980 C   0  0  0  0  0  0  0  0  0  0  0  0
   -4.6228   -2.3994    2.6741 H   0  0  0  0  0  0  0  0  0  0  0  0
   -4.6944   -3.1839    1.0775 H   0  0  0  0  0  0  0  0  0  0  0  0
   -2.7218   -2.5785    1.6834 C   0  0  0  0  0  0  0  0  0  0  0  0
   -1.7489   -3.2927    1.8611 O   0  0  0  0  0  0  0  0  0  0  0  0
   -2.5545   -1.3169    1.1499 N   0  0  0  0  0  0  0  0  0  0  0  0
   -3.3813   -0.7198    1.1286 H   0  0  0  0  0  0  0  0  0  0  0  0
   -1.2540   -0.6249    1.1032 C   0  0  1  0  0  0  0  0  0  0  0  0
   -0.5614   -1.0849    1.8172 H   0  0  0  0  0  0  0  0  0  0  0  0
   -0.6015   -0.6660   -0.3022 C   0  0  0  0  0  0  0  0  0  0  0  0
   -0.1663    0.3149   -0.5246 H   0  0  0  0  0  0  0  0  0  0  0  0
    0.2242   -1.3850   -0.2765 H   0  0  0  0  0  0  0  0  0  0  0  0
   -1.5526   -1.0727   -1.4395 C   0  0  0  0  0  0  0  0  0  0  0  0
   -1.7686   -2.1449   -1.3733 H   0  0  0  0  0  0  0  0  0  0  0  0
   -2.4945   -0.5220   -1.3400 H   0  0  0  0  0  0  0  0  0  0  0  0
   -0.9316   -0.7304   -2.7910 C   0  0  0  0  0  0  0  0  0  0  0  0
   -0.7240    0.3449   -2.8259 H   0  0  0  0  0  0  0  0  0  0  0  0
    0.0141   -1.2733   -2.8988 H   0  0  0  0  0  0  0  0  0  0  0  0
   -1.8595   -1.1043   -3.8736 N   0  3  0  0  0  0  0  0  0  0  0  0
   -2.7592   -1.4940   -3.5960 H   0  0  0  0  0  0  0  0  0  0  0  0
   -1.5926   -0.9516   -5.1384 C   0  0  0  0  0  0  0  0  0  0  0  0
   -0.4030   -0.4082   -5.5668 N   0  0  0  0  0  0  0  0  0  0  0  0
    0.1958    0.0306   -4.8702 H   0  0  0  0  0  0  0  0  0  0  0  0
   -0.3300   -0.0900   -6.5309 H   0  0  0  0  0  0  0  0  0  0  0  0
   -2.5179   -1.3382   -6.0785 N   0  0  0  0  0  0  0  0  0  0  0  0
   -3.3164   -1.8950   -5.7801 H   0  0  0  0  0  0  0  0  0  0  0  0
   -2.2221   -1.4104   -7.0503 H   0  0  0  0  0  0  0  0  0  0  0  0
   -1.4543    0.8352    1.5558 C   0  0  0  0  0  0  0  0  0  0  0  0
   -2.4053    1.4682    1.1107 O   0  0  0  0  0  0  0  0  0  0  0  0
   -0.5826    1.4336    2.4462 N   0  0  0  0  0  0  0  0  0  0  0  0
    0.1526    0.8582    2.8497 H   0  0  0  0  0  0  0  0  0  0  0  0
   -0.7722    2.7866    2.9587 C   0  0  0  0  0  0  0  0  0  0  0  0
   -1.7229    2.8637    3.4973 H   0  0  0  0  0  0  0  0  0  0  0  0
    0.0366    3.0483    3.6480 H   0  0  0  0  0  0  0  0  0  0  0  0
   -0.7733    3.5118    2.1382 H   0  0  0  0  0  0  0  0  0  0  0  0
  1  2  1  0  0  0  0
  2  3  1  0  0  0  0
  2  4  1  0  0  0  0
  2  5  1  0  0  0  0
  5  6  2  0  0  0  0
  5  7  1  0  0  0  0
  7  8  1  0  0  0  0
  7  9  1  0  0  0  0
  9 10  1  0  0  0  0
  9 11  1  0  0  0  0
  9 29  1  0  0  0  0
 11 12  1  0  0  0  0
 11 13  1  0  0  0  0
 11 14  1  0  0  0  0
 14 15  1  0  0  0  0
 14 16  1  0  0  0  0
 14 17  1  0  0  0  0
 17 18  1  0  0  0  0
 17 19  1  0  0  0  0
 17 20  1  0  0  0  0
 20 21  1  0  0  0  0
 20 22  2  0  0  0  0
 22 23  1  0  0  0  0
 22 26  1  0  0  0  0
 23 24  1  0  0  0  0
 23 25  1  0  0  0  0
 26 27  1  0  0  0  0
 26 28  1  0  0  0  0
 29 30  2  0  0  0  0
 29 31  1  0  0  0  0
 31 32  1  0  0  0  0
 31 33  1  0  0  0  0
 33 34  1  0  0  0  0
 33 35  1  0  0  0  0
 33 36  1  0  0  0  0
M  CHG  1  20   1
M  END
$$$$

  -OEChem-03222214013D

 36 35  0     1  0  0  0  0  0999 V2000
   -4.0004   -4.1396    2.4237 H   0  0  0  0  0  0  0  0  0  0  0  0
   -4.0717   -3.1258    2.0192 C   0  0  0  0  0  0  0  0  0  0  0  0
   -4.5418   -2.4824    2.7671 H   0  0  0  0  0  0  0  0  0  0  0  0
   -4.6954   -3.1474    1.1228 H   0  0  0  0  0  0  0  0  0  0  0  0
   -2.6902   -2.6001    1.6803 C   0  0  0  0  0  0  0  0  0  0  0  0
   -1.7050   -3.2946    1.8689 O   0  0  0  0  0  0  0  0  0  0  0  0
   -2.5439   -1.3398    1.1365 N   0  0  0  0  0  0  0  0  0  0  0  0
   -3.3811   -0.7580    1.1108 H   0  0  0  0  0  0  0  0  0  0  0  0
   -1.2560   -0.6259    1.0969 C   0  0  1  0  0  0  0  0  0  0  0  0
   -0.5577   -1.0680    1.8166 H   0  0  0  0  0  0  0  0  0  0  0  0
   -0.6003   -0.6603   -0.3028 C   0  0  0  0  0  0  0  0  0  0  0  0
    0.0547    0.2100   -0.4221 H   0  0  0  0  0  0  0  0  0  0  0  0
    0.0333   -1.5530   -0.3491 H   0  0  0  0  0  0  0  0  0  0  0  0
   -1.5963   -0.7258   -1.4712 C   0  0  0  0  0  0  0  0  0  0  0  0
   -2.2121   -1.6278   -1.3921 H   0  0  0  0  0  0  0  0  0  0  0  0
   -2.2566    0.1480   -1.4340 H   0  0  0  0  0  0  0  0  0  0  0  0
   -0.8354   -0.7536   -2.7938 C   0  0  0  0  0  0  0  0  0  0  0  0
   -0.1948    0.1333   -2.8571 H   0  0  0  0  0  0  0  0  0  0  0  0
   -0.2006   -1.6461   -2.8217 H   0  0  0  0  0  0  0  0  0  0  0  0
   -1.7887   -0.7684   -3.9179 N   0  3  0  0  0  0  0  0  0  0  0  0
   -2.7801   -0.7426   -3.6827 H   0  0  0  0  0  0  0  0  0  0  0  0
   -1.4282   -0.8016   -5.1683 C   0  0  0  0  0  0  0  0  0  0  0  0
   -0.1035   -0.8443   -5.5400 N   0  0  0  0  0  0  0  0  0  0  0  0
    0.5896   -1.0086   -4.8128 H   0  0  0  0  0  0  0  0  0  0  0  0
    0.1289   -1.1136   -6.4937 H   0  0  0  0  0  0  0  0  0  0  0  0
   -2.3877   -0.7979   -6.1526 N   0  0  0  0  0  0  0  0  0  0  0  0
   -3.3506   -0.5880   -5.8966 H   0  0  0  0  0  0  0  0  0  0  0  0
   -2.0984   -0.6151   -7.1118 H   0  0  0  0  0  0  0  0  0  0  0  0
   -1.4800    0.8356    1.5341 C   0  0  0  0  0  0  0  0  0  0  0  0
   -2.4341    1.4539    1.0746 O   0  0  0  0  0  0  0  0  0  0  0  0
   -0.6233    1.4522    2.4265 N   0  0  0  0  0  0  0  0  0  0  0  0
    0.1115    0.8869    2.8445 H   0  0  0  0  0  0  0  0  0  0  0  0
   -0.8264    2.8106    2.9192 C   0  0  0  0  0  0  0  0  0  0  0  0
   -1.7656    2.8802    3.4783 H   0  0  0  0  0  0  0  0  0  0  0  0
   -0.0064    3.0989    3.5841 H   0  0  0  0  0  0  0  0  0  0  0  0
   -0.8588    3.5213    2.0866 H   0  0  0  0  0  0  0  0  0  0  0  0
  1  2  1  0  0  0  0
  2  3  1  0  0  0  0
  2  4  1  0  0  0  0
  2  5  1  0  0  0  0
  5  6  2  0  0  0  0
  5  7  1  0  0  0  0
  7  8  1  0  0  0  0
  7  9  1  0  0  0  0
  9 10  1  0  0  0  0
  9 11  1  0  0  0  0
  9 29  1  0  0  0  0
 11 12  1  0  0  0  0
 11 13  1  0  0  0  0
 11 14  1  0  0  0  0
 14 15  1  0  0  0  0
 14 16  1  0  0  0  0
 14 17  1  0  0  0  0
 17 18  1  0  0  0  0
 17 19  1  0  0  0  0
 17 20  1  0  0  0  0
 20 21  1  0  0  0  0
 20 22  2  0  0  0  0
 22 23  1  0  0  0  0
 22 26  1  0  0  0  0
 23 24  1  0  0  0  0
 23 25  1  0  0  0  0
 26 27  1  0  0  0  0
 26 28  1  0  0  0  0
 29 30  2  0  0  0  0
 29 31  1  0  0  0  0
 31 32  1  0  0  0  0
 31 33  1  0  0  0  0
 33 34  1  0  0  0  0
 33 35  1  0  0  0  0
 33 36  1  0  0  0  0
M  CHG  1  20   1
M  END
$$$$

  -OEChem-03222214013D

 36 35  0     1  0  0  0  0  0999 V2000
   -3.9884   -4.1566    2.4372 H   0  0  0  0  0  0  0  0  0  0  0  0
   -4.0654   -3.1309    2.0652 C   0  0  0  0  0  0  0  0  0  0  0  0
   -4.5171   -2.5085    2.8416 H   0  0  0  0  0  0  0  0  0  0  0  0
   -4.7077   -3.1236    1.1816 H   0  0  0  0  0  0  0  0  0  0  0  0
   -2.6894   -2.6004    1.7129 C   0  0  0  0  0  0  0  0  0  0  0  0
   -1.7010   -3.2964    1.8786 O   0  0  0  0  0  0  0  0  0  0  0  0
   -2.5535   -1.3399    1.1679 N   0  0  0  0  0  0  0  0  0  0  0  0
   -3.3917   -0.7586    1.1553 H   0  0  0  0  0  0  0  0  0  0  0  0
   -1.2679   -0.6249    1.1047 C   0  0  1  0  0  0  0  0  0  0  0  0
   -0.5593   -1.0658    1.8149 H   0  0  0  0  0  0  0  0  0  0  0  0
   -0.6253   -0.6550   -0.3022 C   0  0  0  0  0  0  0  0  0  0  0  0
    0.0409    0.2058   -0.4280 H   0  0  0  0  0  0  0  0  0  0  0  0
   -0.0002   -1.5538   -0.3402 H   0  0  0  0  0  0  0  0  0  0  0  0
   -1.6137   -0.7219   -1.4809 C   0  0  0  0  0  0  0  0  0  0  0  0
   -2.3863   -1.4751   -1.3003 H   0  0  0  0  0  0  0  0  0  0  0  0
   -2.1045    0.2508   -1.5962 H   0  0  0  0  0  0  0  0  0  0  0  0
   -0.8660   -1.1133   -2.7528 C   0  0  0  0  0  0  0  0  0  0  0  0
   -0.0536   -0.3984   -2.9253 H   0  0  0  0  0  0  0  0  0  0  0  0
   -0.4304   -2.1094   -2.6170 H   0  0  0  0  0  0  0  0  0  0  0  0
   -1.7914   -1.1111   -3.9005 N   0  3  0  0  0  0  0  0  0  0  0  0
   -2.7445   -0.7942   -3.7261 H   0  0  0  0  0  0  0  0  0  0  0  0
   -1.4462   -1.4665   -5.1042 C   0  0  0  0  0  0  0  0  0  0  0  0
   -0.1758   -1.9111   -5.3916 N   0  0  0  0  0  0  0  0  0  0  0  0
    0.4423   -2.1188   -4.6099 H   0  0  0  0  0  0  0  0  0  0  0  0
   -0.0144   -2.3958   -6.2720 H   0  0  0  0  0  0  0  0  0  0  0  0
   -2.3666   -1.4002   -6.1228 N   0  0  0  0  0  0  0  0  0  0  0  0
   -3.2399   -0.9025   -5.9599 H   0  0  0  0  0  0  0  0  0  0  0  0
   -2.0331   -1.4742   -7.0822 H   0  0  0  0  0  0  0  0  0  0  0  0
   -1.4880    0.8353    1.5473 C   0  0  0  0  0  0  0  0  0  0  0  0
   -2.4532    1.4496    1.1064 O   0  0  0  0  0  0  0  0  0  0  0  0
   -0.6176    1.4548    2.4247 N   0  0  0  0  0  0  0  0  0  0  0  0
    0.1298    0.8941    2.8264 H   0  0  0  0  0  0  0  0  0  0  0  0
   -0.8161    2.8129    2.9206 C   0  0  0  0  0  0  0  0  0  0  0  0
   -1.7454    2.8790    3.4964 H   0  0  0  0  0  0  0  0  0  0  0  0
    0.0148    3.1046    3.5708 H   0  0  0  0  0  0  0  0  0  0  0  0
   -0.8666    3.5236    2.0887 H   0  0  0  0  0  0  0  0  0  0  0  0
  1  2  1  0  0  0  0
  2  3  1  0  0  0  0
  2  4  1  0  0  0  0
  2  5  1  0  0  0  0
  5  6  2  0  0  0  0
  5  7  1  0  0  0  0
  7  8  1  0  0  0  0
  7  9  1  0  0  0  0
  9 10  1  0  0  0  0
  9 11  1  0  0  0  0
  9 29  1  0  0  0  0
 11 12  1  0  0  0  0
 11 13  1  0  0  0  0
 11 14  1  0  0  0  0
 14 15  1  0  0  0  0
 14 16  1  0  0  0  0
 14 17  1  0  0  0  0
 17 18  1  0  0  0  0
 17 19  1  0  0  0  0
 17 20  1  0  0  0  0
 20 21  1  0  0  0  0
 20 22  2  0  0  0  0
 22 23  1  0  0  0  0
 22 26  1  0  0  0  0
 23 24  1  0  0  0  0
 23 25  1  0  0  0  0
 26 27  1  0  0  0  0
 26 28  1  0  0  0  0
 29 30  2  0  0  0  0
 29 31  1  0  0  0  0
 31 32  1  0  0  0  0
 31 33  1  0  0  0  0
 33 34  1  0  0  0  0
 33 35  1  0  0  0  0
 33 36  1  0  0  0  0
M  CHG  1  20   1
M  END
$$$$

  -OEChem-03222214013D

 36 35  0     1  0  0  0  0  0999 V2000
   -3.9817   -4.1600    2.4704 H   0  0  0  0  0  0  0  0  0  0  0  0
   -4.0636   -3.1301    2.1115 C   0  0  0  0  0  0  0  0  0  0  0  0
   -4.4928   -2.5148    2.9062 H   0  0  0  0  0  0  0  0  0  0  0  0
   -4.7288   -3.1108    1.2452 H   0  0  0  0  0  0  0  0  0  0  0  0
   -2.6944   -2.6011    1.7299 C   0  0  0  0  0  0  0  0  0  0  0  0
   -1.7049   -3.3026    1.8645 O   0  0  0  0  0  0  0  0  0  0  0  0
   -2.5651   -1.3391    1.1866 N   0  0  0  0  0  0  0  0  0  0  0  0
   -3.4010   -0.7541    1.1958 H   0  0  0  0  0  0  0  0  0  0  0  0
   -1.2796   -0.6251    1.1106 C   0  0  1  0  0  0  0  0  0  0  0  0
   -0.5672   -1.0676    1.8158 H   0  0  0  0  0  0  0  0  0  0  0  0
   -0.6392   -0.6475   -0.2982 C   0  0  0  0  0  0  0  0  0  0  0  0
    0.0356    0.2074   -0.4193 H   0  0  0  0  0  0  0  0  0  0  0  0
   -0.0172   -1.5488   -0.3268 H   0  0  0  0  0  0  0  0  0  0  0  0
   -1.6109   -0.7096   -1.4956 C   0  0  0  0  0  0  0  0  0  0  0  0
   -2.5260   -1.2520   -1.2456 H   0  0  0  0  0  0  0  0  0  0  0  0
   -1.8951    0.3102   -1.7777 H   0  0  0  0  0  0  0  0  0  0  0  0
   -0.9479   -1.4395   -2.6611 C   0  0  0  0  0  0  0  0  0  0  0  0
   -0.0048   -0.9396   -2.9079 H   0  0  0  0  0  0  0  0  0  0  0  0
   -0.7274   -2.4684   -2.3558 H   0  0  0  0  0  0  0  0  0  0  0  0
   -1.8428   -1.4334   -3.8324 N   0  3  0  0  0  0  0  0  0  0  0  0
   -2.6876   -0.8670   -3.7659 H   0  0  0  0  0  0  0  0  0  0  0  0
   -1.5972   -2.0899   -4.9292 C   0  0  0  0  0  0  0  0  0  0  0  0
   -0.4771   -2.8779   -5.0670 N   0  0  0  0  0  0  0  0  0  0  0  0
    0.0712   -3.0734   -4.2317 H   0  0  0  0  0  0  0  0  0  0  0  0
   -0.4457   -3.5527   -5.8284 H   0  0  0  0  0  0  0  0  0  0  0  0
   -2.4739   -2.0018   -5.9840 N   0  0  0  0  0  0  0  0  0  0  0  0
   -3.1981   -1.2863   -5.9591 H   0  0  0  0  0  0  0  0  0  0  0  0
   -2.1711   -2.3418   -6.8950 H   0  0  0  0  0  0  0  0  0  0  0  0
   -1.4953    0.8337    1.5599 C   0  0  0  0  0  0  0  0  0  0  0  0
   -2.4716    1.4452    1.1404 O   0  0  0  0  0  0  0  0  0  0  0  0
   -0.6155    1.4513    2.4293 N   0  0  0  0  0  0  0  0  0  0  0  0
    0.1457    0.8948    2.8101 H   0  0  0  0  0  0  0  0  0  0  0  0
   -0.8104    2.8073    2.9322 C   0  0  0  0  0  0  0  0  0  0  0  0
   -1.7347    2.8710    3.5161 H   0  0  0  0  0  0  0  0  0  0  0  0
    0.0259    3.0972    3.5761 H   0  0  0  0  0  0  0  0  0  0  0  0
   -0.8693    3.5207    2.1033 H   0  0  0  0  0  0  0  0  0  0  0  0
  1  2  1  0  0  0  0
  2  3  1  0  0  0  0
  2  4  1  0  0  0  0
  2  5  1  0  0  0  0
  5  6  2  0  0  0  0
  5  7  1  0  0  0  0
  7  8  1  0  0  0  0
  7  9  1  0  0  0  0
  9 10  1  0  0  0  0
  9 11  1  0  0  0  0
  9 29  1  0  0  0  0
 11 12  1  0  0  0  0
 11 13  1  0  0  0  0
 11 14  1  0  0  0  0
 14 15  1  0  0  0  0
 14 16  1  0  0  0  0
 14 17  1  0  0  0  0
 17 18  1  0  0  0  0
 17 19  1  0  0  0  0
 17 20  1  0  0  0  0
 20 21  1  0  0  0  0
 20 22  2  0  0  0  0
 22 23  1  0  0  0  0
 22 26  1  0  0  0  0
 23 24  1  0  0  0  0
 23 25  1  0  0  0  0
 26 27  1  0  0  0  0
 26 28  1  0  0  0  0
 29 30  2  0  0  0  0
 29 31  1  0  0  0  0
 31 32  1  0  0  0  0
 31 33  1  0  0  0  0
 33 34  1  0  0  0  0
 33 35  1  0  0  0  0
 33 36  1  0  0  0  0
M  CHG  1  20   1
M  END
$$$$

  -OEChem-03222214013D

 36 35  0     1  0  0  0  0  0999 V2000
   -3.9826   -4.1412    2.4837 H   0  0  0  0  0  0  0  0  0  0  0  0
   -4.0655   -3.1147    2.1153 C   0  0  0  0  0  0  0  0  0  0  0  0
   -4.4804   -2.4897    2.9100 H   0  0  0  0  0  0  0  0  0  0  0  0
   -4.7435   -3.1007    1.2590 H   0  0  0  0  0  0  0  0  0  0  0  0
   -2.7002   -2.5952    1.7079 C   0  0  0  0  0  0  0  0  0  0  0  0
   -1.7166   -3.3119    1.8007 O   0  0  0  0  0  0  0  0  0  0  0  0
   -2.5693   -1.3284    1.1776 N   0  0  0  0  0  0  0  0  0  0  0  0
   -3.4014   -0.7385    1.2093 H   0  0  0  0  0  0  0  0  0  0  0  0
   -1.2818   -0.6157    1.1118 C   0  0  1  0  0  0  0  0  0  0  0  0
   -0.5761   -1.0656    1.8194 H   0  0  0  0  0  0  0  0  0  0  0  0
   -0.6310   -0.6371   -0.2923 C   0  0  0  0  0  0  0  0  0  0  0  0
    0.0401    0.2217   -0.4049 H   0  0  0  0  0  0  0  0  0  0  0  0
    0.0016   -1.5311   -0.3128 H   0  0  0  0  0  0  0  0  0  0  0  0
   -1.5882   -0.6961   -1.5053 C   0  0  0  0  0  0  0  0  0  0  0  0
   -2.6064   -0.9643   -1.2151 H   0  0  0  0  0  0  0  0  0  0  0  0
   -1.6375    0.2982   -1.9624 H   0  0  0  0  0  0  0  0  0  0  0  0
   -1.0877   -1.7248   -2.5173 C   0  0  0  0  0  0  0  0  0  0  0  0
   -0.0686   -1.4628   -2.8231 H   0  0  0  0  0  0  0  0  0  0  0  0
   -1.0642   -2.7092   -2.0364 H   0  0  0  0  0  0  0  0  0  0  0  0
   -1.9758   -1.7536   -3.6934 N   0  3  0  0  0  0  0  0  0  0  0  0
   -2.6875   -1.0265   -3.7550 H   0  0  0  0  0  0  0  0  0  0  0  0
   -1.8844   -2.6427   -4.6398 C   0  0  0  0  0  0  0  0  0  0  0  0
   -0.9522   -3.6545   -4.5944 N   0  0  0  0  0  0  0  0  0  0  0  0
   -0.4455   -3.7939   -3.7222 H   0  0  0  0  0  0  0  0  0  0  0  0
   -1.0685   -4.4544   -5.2131 H   0  0  0  0  0  0  0  0  0  0  0  0
   -2.7372   -2.5826   -5.7162 N   0  0  0  0  0  0  0  0  0  0  0  0
   -3.2983   -1.7434   -5.8494 H   0  0  0  0  0  0  0  0  0  0  0  0
   -2.5231   -3.1480   -6.5358 H   0  0  0  0  0  0  0  0  0  0  0  0
   -1.4931    0.8395    1.5744 C   0  0  0  0  0  0  0  0  0  0  0  0
   -2.4759    1.4514    1.1720 O   0  0  0  0  0  0  0  0  0  0  0  0
   -0.6133    1.4468    2.4511 N   0  0  0  0  0  0  0  0  0  0  0  0
    0.1592    0.8923    2.8115 H   0  0  0  0  0  0  0  0  0  0  0  0
   -0.8079    2.7976    2.9680 C   0  0  0  0  0  0  0  0  0  0  0  0
   -1.7400    2.8582    3.5399 H   0  0  0  0  0  0  0  0  0  0  0  0
    0.0205    3.0754    3.6272 H   0  0  0  0  0  0  0  0  0  0  0  0
   -0.8515    3.5212    2.1470 H   0  0  0  0  0  0  0  0  0  0  0  0
  1  2  1  0  0  0  0
  2  3  1  0  0  0  0
  2  4  1  0  0  0  0
  2  5  1  0  0  0  0
  5  6  2  0  0  0  0
  5  7  1  0  0  0  0
  7  8  1  0  0  0  0
  7  9  1  0  0  0  0
  9 10  1  0  0  0  0
  9 11  1  0  0  0  0
  9 29  1  0  0  0  0
 11 12  1  0  0  0  0
 11 13  1  0  0  0  0
 11 14  1  0  0  0  0
 14 15  1  0  0  0  0
 14 16  1  0  0  0  0
 14 17  1  0  0  0  0
 17 18  1  0  0  0  0
 17 19  1  0  0  0  0
 17 20  1  0  0  0  0
 20 21  1  0  0  0  0
 20 22  2  0  0  0  0
 22 23  1  0  0  0  0
 22 26  1  0  0  0  0
 23 24  1  0  0  0  0
 23 25  1  0  0  0  0
 26 27  1  0  0  0  0
 26 28  1  0  0  0  0
 29 30  2  0  0  0  0
 29 31  1  0  0  0  0
 31 32  1  0  0  0  0
 31 33  1  0  0  0  0
 33 34  1  0  0  0  0
 33 35  1  0  0  0  0
 33 36  1  0  0  0  0
M  CHG  1  20   1
M  END
$$$$

  -OEChem-03222214013D

 36 35  0     1  0  0  0  0  0999 V2000
   -3.9669   -4.1523    2.4211 H   0  0  0  0  0  0  0  0  0  0  0  0
   -4.0460   -3.1116    2.0939 C   0  0  0  0  0  0  0  0  0  0  0  0
   -4.4188   -2.5101    2.9269 H   0  0  0  0  0  0  0  0  0  0  0  0
   -4.7567   -3.0552    1.2663 H   0  0  0  0  0  0  0  0  0  0  0  0
   -2.6889   -2.5986    1.6522 C   0  0  0  0  0  0  0  0  0  0  0  0
   -1.7121   -3.3299    1.6866 O   0  0  0  0  0  0  0  0  0  0  0  0
   -2.5616   -1.3242    1.1409 N   0  0  0  0  0  0  0  0  0  0  0  0
   -3.3915   -0.7333    1.2048 H   0  0  0  0  0  0  0  0  0  0  0  0
   -1.2764   -0.6044    1.1014 C   0  0  1  0  0  0  0  0  0  0  0  0
   -0.5807   -1.0612    1.8142 H   0  0  0  0  0  0  0  0  0  0  0  0
   -0.6061   -0.6247   -0.2919 C   0  0  0  0  0  0  0  0  0  0  0  0
    0.0392    0.2552   -0.3936 H   0  0  0  0  0  0  0  0  0  0  0  0
    0.0566   -1.4967   -0.3143 H   0  0  0  0  0  0  0  0  0  0  0  0
   -1.5588   -0.6889   -1.5073 C   0  0  0  0  0  0  0  0  0  0  0  0
   -2.6108   -0.6559   -1.2111 H   0  0  0  0  0  0  0  0  0  0  0  0
   -1.3818    0.1936   -2.1316 H   0  0  0  0  0  0  0  0  0  0  0  0
   -1.2780   -1.9508   -2.3209 C   0  0  0  0  0  0  0  0  0  0  0  0
   -0.2289   -1.9494   -2.6371 H   0  0  0  0  0  0  0  0  0  0  0  0
   -1.4448   -2.8229   -1.6786 H   0  0  0  0  0  0  0  0  0  0  0  0
   -2.1599   -2.0098   -3.5002 N   0  3  0  0  0  0  0  0  0  0  0  0
   -2.6783   -1.1643   -3.7350 H   0  0  0  0  0  0  0  0  0  0  0  0
   -2.2844   -3.0681   -4.2479 C   0  0  0  0  0  0  0  0  0  0  0  0
   -1.6133   -4.2365   -3.9653 N   0  0  0  0  0  0  0  0  0  0  0  0
   -1.1438   -4.3080   -3.0641 H   0  0  0  0  0  0  0  0  0  0  0  0
   -1.9167   -5.0970   -4.4166 H   0  0  0  0  0  0  0  0  0  0  0  0
   -3.1044   -3.0291   -5.3505 N   0  0  0  0  0  0  0  0  0  0  0  0
   -3.4578   -2.1272   -5.6644 H   0  0  0  0  0  0  0  0  0  0  0  0
   -3.0242   -3.7747   -6.0396 H   0  0  0  0  0  0  0  0  0  0  0  0
   -1.4962    0.8444    1.5808 C   0  0  0  0  0  0  0  0  0  0  0  0
   -2.4851    1.4525    1.1881 O   0  0  0  0  0  0  0  0  0  0  0  0
   -0.6289    1.4429    2.4756 N   0  0  0  0  0  0  0  0  0  0  0  0
    0.1527    0.8933    2.8233 H   0  0  0  0  0  0  0  0  0  0  0  0
   -0.8261    2.7908    2.9995 C   0  0  0  0  0  0  0  0  0  0  0  0
   -1.7626    2.8506    3.5643 H   0  0  0  0  0  0  0  0  0  0  0  0
   -0.0027    3.0628    3.6674 H   0  0  0  0  0  0  0  0  0  0  0  0
   -0.8611    3.5196    2.1825 H   0  0  0  0  0  0  0  0  0  0  0  0
  1  2  1  0  0  0  0
  2  3  1  0  0  0  0
  2  4  1  0  0  0  0
  2  5  1  0  0  0  0
  5  6  2  0  0  0  0
  5  7  1  0  0  0  0
  7  8  1  0  0  0  0
  7  9  1  0  0  0  0
  9 10  1  0  0  0  0
  9 11  1  0  0  0  0
  9 29  1  0  0  0  0
 11 12  1  0  0  0  0
 11 13  1  0  0  0  0
 11 14  1  0  0  0  0
 14 15  1  0  0  0  0
 14 16  1  0  0  0  0
 14 17  1  0  0  0  0
 17 18  1  0  0  0  0
 17 19  1  0  0  0  0
 17 20  1  0  0  0  0
 20 21  1  0  0  0  0
 20 22  2  0  0  0  0
 22 23  1  0  0  0  0
 22 26  1  0  0  0  0
 23 24  1  0  0  0  0
 23 25  1  0  0  0  0
 26 27  1  0  0  0  0
 26 28  1  0  0  0  0
 29 30  2  0  0  0  0
 29 31  1  0  0  0  0
 31 32  1  0  0  0  0
 31 33  1  0  0  0  0
 33 34  1  0  0  0  0
 33 35  1  0  0  0  0
 33 36  1  0  0  0  0
M  CHG  1  20   1
M  END
$$$$

  -OEChem-03222214013D

 36 35  0     1  0  0  0  0  0999 V2000
   -3.9900   -4.1385    2.3256 H   0  0  0  0  0  0  0  0  0  0  0  0
   -4.0611   -3.0927    2.0136 C   0  0  0  0  0  0  0  0  0  0  0  0
   -4.4037   -2.4972    2.8636 H   0  0  0  0  0  0  0  0  0  0  0  0
   -4.7920   -3.0142    1.2056 H   0  0  0  0  0  0  0  0  0  0  0  0
   -2.7074   -2.5936    1.5458 C   0  0  0  0  0  0  0  0  0  0  0  0
   -1.7534   -3.3534    1.4920 O   0  0  0  0  0  0  0  0  0  0  0  0
   -2.5669   -1.3081    1.0691 N   0  0  0  0  0  0  0  0  0  0  0  0
   -3.3884   -0.7100    1.1675 H   0  0  0  0  0  0  0  0  0  0  0  0
   -1.2780   -0.5915    1.0732 C   0  0  1  0  0  0  0  0  0  0  0  0
   -0.6050   -1.0688    1.7947 H   0  0  0  0  0  0  0  0  0  0  0  0
   -0.5732   -0.6104   -0.3007 C   0  0  0  0  0  0  0  0  0  0  0  0
    0.0519    0.2857   -0.3858 H   0  0  0  0  0  0  0  0  0  0  0  0
    0.1090   -1.4675   -0.3255 H   0  0  0  0  0  0  0  0  0  0  0  0
   -1.5188   -0.6686   -1.5155 C   0  0  0  0  0  0  0  0  0  0  0  0
   -2.5352   -0.3574   -1.2533 H   0  0  0  0  0  0  0  0  0  0  0  0
   -1.1571    0.0312   -2.2763 H   0  0  0  0  0  0  0  0  0  0  0  0
   -1.4944   -2.0815   -2.0930 C   0  0  0  0  0  0  0  0  0  0  0  0
   -0.4749   -2.3196   -2.4162 H   0  0  0  0  0  0  0  0  0  0  0  0
   -1.7779   -2.7834   -1.3003 H   0  0  0  0  0  0  0  0  0  0  0  0
   -2.4247   -2.1991   -3.2283 N   0  3  0  0  0  0  0  0  0  0  0  0
   -2.8081   -1.3346   -3.6083 H   0  0  0  0  0  0  0  0  0  0  0  0
   -2.7550   -3.3410   -3.7584 C   0  0  0  0  0  0  0  0  0  0  0  0
   -2.2710   -4.5328   -3.2669 N   0  0  0  0  0  0  0  0  0  0  0  0
   -1.7763   -4.5136   -2.3761 H   0  0  0  0  0  0  0  0  0  0  0  0
   -2.7287   -5.3993   -3.5421 H   0  0  0  0  0  0  0  0  0  0  0  0
   -3.6071   -3.3681   -4.8361 N   0  0  0  0  0  0  0  0  0  0  0  0
   -3.8157   -2.4930   -5.3129 H   0  0  0  0  0  0  0  0  0  0  0  0
   -3.6785   -4.2309   -5.3724 H   0  0  0  0  0  0  0  0  0  0  0  0
   -1.4934    0.8480    1.5815 C   0  0  0  0  0  0  0  0  0  0  0  0
   -2.4800    1.4655    1.1980 O   0  0  0  0  0  0  0  0  0  0  0  0
   -0.6380    1.4190    2.5053 N   0  0  0  0  0  0  0  0  0  0  0  0
    0.1501    0.8664    2.8336 H   0  0  0  0  0  0  0  0  0  0  0  0
   -0.8266    2.7621    3.0441 C   0  0  0  0  0  0  0  0  0  0  0  0
   -1.7738    2.8271    3.5903 H   0  0  0  0  0  0  0  0  0  0  0  0
   -0.0134    3.0125    3.7325 H   0  0  0  0  0  0  0  0  0  0  0  0
   -0.8347    3.5024    2.2368 H   0  0  0  0  0  0  0  0  0  0  0  0
  1  2  1  0  0  0  0
  2  3  1  0  0  0  0
  2  4  1  0  0  0  0
  2  5  1  0  0  0  0
  5  6  2  0  0  0  0
  5  7  1  0  0  0  0
  7  8  1  0  0  0  0
  7  9  1  0  0  0  0
  9 10  1  0  0  0  0
  9 11  1  0  0  0  0
  9 29  1  0  0  0  0
 11 12  1  0  0  0  0
 11 13  1  0  0  0  0
 11 14  1  0  0  0  0
 14 15  1  0  0  0  0
 14 16  1  0  0  0  0
 14 17  1  0  0  0  0
 17 18  1  0  0  0  0
 17 19  1  0  0  0  0
 17 20  1  0  0  0  0
 20 21  1  0  0  0  0
 20 22  2  0  0  0  0
 22 23  1  0  0  0  0
 22 26  1  0  0  0  0
 23 24  1  0  0  0  0
 23 25  1  0  0  0  0
 26 27  1  0  0  0  0
 26 28  1  0  0  0  0
 29 30  2  0  0  0  0
 29 31  1  0  0  0  0
 31 32  1  0  0  0  0
 31 33  1  0  0  0  0
 33 34  1  0  0  0  0
 33 35  1  0  0  0  0
 33 36  1  0  0  0  0
M  CHG  1  20   1
M  END
$$$$

  -OEChem-03222214013D

 36 35  0     1  0  0  0  0  0999 V2000
   -4.1219   -4.1937    1.8349 H   0  0  0  0  0  0  0  0  0  0  0  0
   -4.1296   -3.1240    1.6069 C   0  0  0  0  0  0  0  0  0  0  0  0
   -4.4049   -2.5773    2.5126 H   0  0  0  0  0  0  0  0  0  0  0  0
   -4.8772   -2.9301    0.8344 H   0  0  0  0  0  0  0  0  0  0  0  0
   -2.7596   -2.6782    1.1345 C   0  0  0  0  0  0  0  0  0  0  0  0
   -1.8843   -3.5026    0.9196 O   0  0  0  0  0  0  0  0  0  0  0  0
   -2.5555   -1.3770    0.7365 N   0  0  0  0  0  0  0  0  0  0  0  0
   -3.3697   -0.7682    0.8421 H   0  0  0  0  0  0  0  0  0  0  0  0
   -1.2760   -0.6637    0.9164 C   0  0  1  0  0  0  0  0  0  0  0  0
   -0.7032   -1.1750    1.6985 H   0  0  0  0  0  0  0  0  0  0  0  0
   -0.3770   -0.6122   -0.3420 C   0  0  0  0  0  0  0  0  0  0  0  0
    0.2349    0.2958   -0.2984 H   0  0  0  0  0  0  0  0  0  0  0  0
    0.3192   -1.4582   -0.3167 H   0  0  0  0  0  0  0  0  0  0  0  0
   -1.1444   -0.6226   -1.6730 C   0  0  0  0  0  0  0  0  0  0  0  0
   -2.1080   -0.1130   -1.5594 H   0  0  0  0  0  0  0  0  0  0  0  0
   -0.5758   -0.0893   -2.4418 H   0  0  0  0  0  0  0  0  0  0  0  0
   -1.3194   -2.0818   -2.0936 C   0  0  0  0  0  0  0  0  0  0  0  0
   -0.4104   -2.4175   -2.6051 H   0  0  0  0  0  0  0  0  0  0  0  0
   -1.4270   -2.6874   -1.1908 H   0  0  0  0  0  0  0  0  0  0  0  0
   -2.4887   -2.2740   -2.9663 N   0  3  0  0  0  0  0  0  0  0  0  0
   -2.5815   -1.6475   -3.7646 H   0  0  0  0  0  0  0  0  0  0  0  0
   -3.3130   -3.2729   -2.8290 C   0  0  0  0  0  0  0  0  0  0  0  0
   -3.2114   -4.1732   -1.7893 N   0  0  0  0  0  0  0  0  0  0  0  0
   -2.4302   -4.0766   -1.1342 H   0  0  0  0  0  0  0  0  0  0  0  0
   -3.6470   -5.0877   -1.8824 H   0  0  0  0  0  0  0  0  0  0  0  0
   -4.3165   -3.4483   -3.7515 N   0  0  0  0  0  0  0  0  0  0  0  0
   -4.5046   -2.7036   -4.4197 H   0  0  0  0  0  0  0  0  0  0  0  0
   -5.0670   -4.1018   -3.5366 H   0  0  0  0  0  0  0  0  0  0  0  0
   -1.5673    0.7512    1.4578 C   0  0  0  0  0  0  0  0  0  0  0  0
   -2.5488    1.3497    1.0334 O   0  0  0  0  0  0  0  0  0  0  0  0
   -0.8319    1.2877    2.4981 N   0  0  0  0  0  0  0  0  0  0  0  0
   -0.0382    0.7572    2.8485 H   0  0  0  0  0  0  0  0  0  0  0  0
   -1.1229    2.5884    3.0932 C   0  0  0  0  0  0  0  0  0  0  0  0
   -2.1253    2.5939    3.5347 H   0  0  0  0  0  0  0  0  0  0  0  0
   -0.3984    2.8158    3.8813 H   0  0  0  0  0  0  0  0  0  0  0  0
   -1.0681    3.3785    2.3366 H   0  0  0  0  0  0  0  0  0  0  0  0
  1  2  1  0  0  0  0
  2  3  1  0  0  0  0
  2  4  1  0  0  0  0
  2  5  1  0  0  0  0
  5  6  2  0  0  0  0
  5  7  1  0  0  0  0
  7  8  1  0  0  0  0
  7  9  1  0  0  0  0
  9 10  1  0  0  0  0
  9 11  1  0  0  0  0
  9 29  1  0  0  0  0
 11 12  1  0  0  0  0
 11 13  1  0  0  0  0
 11 14  1  0  0  0  0
 14 15  1  0  0  0  0
 14 16  1  0  0  0  0
 14 17  1  0  0  0  0
 17 18  1  0  0  0  0
 17 19  1  0  0  0  0
 17 20  1  0  0  0  0
 20 21  1  0  0  0  0
 20 22  2  0  0  0  0
 22 23  1  0  0  0  0
 22 26  1  0  0  0  0
 23 24  1  0  0  0  0
 23 25  1  0  0  0  0
 26 27  1  0  0  0  0
 26 28  1  0  0  0  0
 29 30  2  0  0  0  0
 29 31  1  0  0  0  0
 31 32  1  0  0  0  0
 31 33  1  0  0  0  0
 33 34  1  0  0  0  0
 33 35  1  0  0  0  0
 33 36  1  0  0  0  0
M  CHG  1  20   1
M  END
$$$$

  -OEChem-03222214013D

 36 35  0     1  0  0  0  0  0999 V2000
   -4.0180   -4.0053    2.8067 H   0  0  0  0  0  0  0  0  0  0  0  0
   -4.0761   -2.9597    2.4910 C   0  0  0  0  0  0  0  0  0  0  0  0
   -4.2640   -2.3393    3.3712 H   0  0  0  0  0  0  0  0  0  0  0  0
   -4.9074   -2.8463    1.7915 H   0  0  0  0  0  0  0  0  0  0  0  0
   -2.7765   -2.5388    1.8330 C   0  0  0  0  0  0  0  0  0  0  0  0
   -1.8762   -3.3462    1.6675 O   0  0  0  0  0  0  0  0  0  0  0  0
   -2.6464   -1.2753    1.2981 N   0  0  0  0  0  0  0  0  0  0  0  0
   -3.4308   -0.6438    1.4699 H   0  0  0  0  0  0  0  0  0  0  0  0
   -1.3443   -0.6022    1.1558 C   0  0  1  0  0  0  0  0  0  0  0  0
   -0.6282   -1.0747    1.8378 H   0  0  0  0  0  0  0  0  0  0  0  0
   -0.7287   -0.6620   -0.2643 C   0  0  0  0  0  0  0  0  0  0  0  0
   -0.0801    0.2106   -0.4005 H   0  0  0  0  0  0  0  0  0  0  0  0
   -0.0816   -1.5443   -0.3154 H   0  0  0  0  0  0  0  0  0  0  0  0
   -1.7129   -0.7248   -1.4455 C   0  0  0  0  0  0  0  0  0  0  0  0
   -2.4935    0.0342   -1.3206 H   0  0  0  0  0  0  0  0  0  0  0  0
   -1.1624   -0.4939   -2.3636 H   0  0  0  0  0  0  0  0  0  0  0  0
   -2.3342   -2.1181   -1.5690 C   0  0  0  0  0  0  0  0  0  0  0  0
   -1.5317   -2.8623   -1.5176 H   0  0  0  0  0  0  0  0  0  0  0  0
   -3.0159   -2.2917   -0.7328 H   0  0  0  0  0  0  0  0  0  0  0  0
   -3.0693   -2.2654   -2.8361 N   0  3  0  0  0  0  0  0  0  0  0  0
   -3.1417   -1.4439   -3.4348 H   0  0  0  0  0  0  0  0  0  0  0  0
   -3.6064   -3.3910   -3.2089 C   0  0  0  0  0  0  0  0  0  0  0  0
   -3.5181   -4.5232   -2.4292 N   0  0  0  0  0  0  0  0  0  0  0  0
   -2.8913   -4.4973   -1.6254 H   0  0  0  0  0  0  0  0  0  0  0  0
   -3.7123   -5.4273   -2.8547 H   0  0  0  0  0  0  0  0  0  0  0  0
   -4.2770   -3.4636   -4.4066 N   0  0  0  0  0  0  0  0  0  0  0  0
   -4.4953   -2.5995   -4.8988 H   0  0  0  0  0  0  0  0  0  0  0  0
   -4.8628   -4.2770   -4.5862 H   0  0  0  0  0  0  0  0  0  0  0  0
   -1.4870    0.8571    1.6341 C   0  0  0  0  0  0  0  0  0  0  0  0
   -2.5002    1.4784    1.3349 O   0  0  0  0  0  0  0  0  0  0  0  0
   -0.5411    1.4384    2.4578 N   0  0  0  0  0  0  0  0  0  0  0  0
    0.2683    0.8833    2.7240 H   0  0  0  0  0  0  0  0  0  0  0  0
   -0.6685    2.7922    2.9887 C   0  0  0  0  0  0  0  0  0  0  0  0
   -1.5653    2.8783    3.6115 H   0  0  0  0  0  0  0  0  0  0  0  0
    0.2024    3.0430    3.6024 H   0  0  0  0  0  0  0  0  0  0  0  0
   -0.7362    3.5204    2.1733 H   0  0  0  0  0  0  0  0  0  0  0  0
  1  2  1  0  0  0  0
  2  3  1  0  0  0  0
  2  4  1  0  0  0  0
  2  5  1  0  0  0  0
  5  6  2  0  0  0  0
  5  7  1  0  0  0  0
  7  8  1  0  0  0  0
  7  9  1  0  0  0  0
  9 10  1  0  0  0  0
  9 11  1  0  0  0  0
  9 29  1  0  0  0  0
 11 12  1  0  0  0  0
 11 13  1  0  0  0  0
 11 14  1  0  0  0  0
 14 15  1  0  0  0  0
 14 16  1  0  0  0  0
 14 17  1  0  0  0  0
 17 18  1  0  0  0  0
 17 19  1  0  0  0  0
 17 20  1  0  0  0  0
 20 21  1  0  0  0  0
 20 22  2  0  0  0  0
 22 23  1  0  0  0  0
 22 26  1  0  0  0  0
 23 24  1  0  0  0  0
 23 25  1  0  0  0  0
 26 27  1  0  0  0  0
 26 28  1  0  0  0  0
 29 30  2  0  0  0  0
 29 31  1  0  0  0  0
 31 32  1  0  0  0  0
 31 33  1  0  0  0  0
 33 34  1  0  0  0  0
 33 35  1  0  0  0  0
 33 36  1  0  0  0  0
M  CHG  1  20   1
M  END
$$$$

  -OEChem-03222214013D

 36 35  0     1  0  0  0  0  0999 V2000
   -4.3903   -3.9282    2.8606 H   0  0  0  0  0  0  0  0  0  0  0  0
   -4.3110   -2.8438    2.7428 C   0  0  0  0  0  0  0  0  0  0  0  0
   -4.1156   -2.3998    3.7224 H   0  0  0  0  0  0  0  0  0  0  0  0
   -5.2602   -2.4595    2.3614 H   0  0  0  0  0  0  0  0  0  0  0  0
   -3.1854   -2.5002    1.7870 C   0  0  0  0  0  0  0  0  0  0  0  0
   -2.5602   -3.3801    1.2136 O   0  0  0  0  0  0  0  0  0  0  0  0
   -2.9495   -1.1931    1.4236 N   0  0  0  0  0  0  0  0  0  0  0  0
   -3.4969   -0.4901    1.9257 H   0  0  0  0  0  0  0  0  0  0  0  0
   -1.6523   -0.7116    0.9212 C   0  0  1  0  0  0  0  0  0  0  0  0
   -0.8721   -1.4177    1.2267 H   0  0  0  0  0  0  0  0  0  0  0  0
   -1.5249   -0.5167   -0.6156 C   0  0  0  0  0  0  0  0  0  0  0  0
   -0.7577    0.2417   -0.8087 H   0  0  0  0  0  0  0  0  0  0  0  0
   -1.1420   -1.4540   -1.0297 H   0  0  0  0  0  0  0  0  0  0  0  0
   -2.7831   -0.1398   -1.4272 C   0  0  0  0  0  0  0  0  0  0  0  0
   -3.1531    0.8095   -1.0234 H   0  0  0  0  0  0  0  0  0  0  0  0
   -2.4985    0.0500   -2.4674 H   0  0  0  0  0  0  0  0  0  0  0  0
   -3.9454   -1.1443   -1.3783 C   0  0  0  0  0  0  0  0  0  0  0  0
   -3.9122   -1.7567   -0.4786 H   0  0  0  0  0  0  0  0  0  0  0  0
   -4.8879   -0.5859   -1.3550 H   0  0  0  0  0  0  0  0  0  0  0  0
   -3.9320   -2.0102   -2.5743 N   0  3  0  0  0  0  0  0  0  0  0  0
   -4.4149   -1.6526   -3.3971 H   0  0  0  0  0  0  0  0  0  0  0  0
   -3.3473   -3.1728   -2.6488 C   0  0  0  0  0  0  0  0  0  0  0  0
   -2.6400   -3.7274   -1.6080 N   0  0  0  0  0  0  0  0  0  0  0  0
   -2.6877   -3.2984   -0.6788 H   0  0  0  0  0  0  0  0  0  0  0  0
   -2.3286   -4.6933   -1.6655 H   0  0  0  0  0  0  0  0  0  0  0  0
   -3.4206   -3.8788   -3.8261 N   0  0  0  0  0  0  0  0  0  0  0  0
   -4.0595   -3.5720   -4.5565 H   0  0  0  0  0  0  0  0  0  0  0  0
   -3.0656   -4.8324   -3.8564 H   0  0  0  0  0  0  0  0  0  0  0  0
   -1.3310    0.6189    1.6353 C   0  0  0  0  0  0  0  0  0  0  0  0
   -2.2344    1.4281    1.8072 O   0  0  0  0  0  0  0  0  0  0  0  0
   -0.0729    0.8739    2.1491 N   0  0  0  0  0  0  0  0  0  0  0  0
    0.6472    0.1659    2.0323 H   0  0  0  0  0  0  0  0  0  0  0  0
    0.2564    2.0933    2.8807 C   0  0  0  0  0  0  0  0  0  0  0  0
   -0.3491    2.1714    3.7900 H   0  0  0  0  0  0  0  0  0  0  0  0
    1.3121    2.0895    3.1687 H   0  0  0  0  0  0  0  0  0  0  0  0
    0.0724    2.9764    2.2593 H   0  0  0  0  0  0  0  0  0  0  0  0
  1  2  1  0  0  0  0
  2  3  1  0  0  0  0
  2  4  1  0  0  0  0
  2  5  1  0  0  0  0
  5  6  2  0  0  0  0
  5  7  1  0  0  0  0
  7  8  1  0  0  0  0
  7  9  1  0  0  0  0
  9 10  1  0  0  0  0
  9 11  1  0  0  0  0
  9 29  1  0  0  0  0
 11 12  1  0  0  0  0
 11 13  1  0  0  0  0
 11 14  1  0  0  0  0
 14 15  1  0  0  0  0
 14 16  1  0  0  0  0
 14 17  1  0  0  0  0
 17 18  1  0  0  0  0
 17 19  1  0  0  0  0
 17 20  1  0  0  0  0
 20 21  1  0  0  0  0
 20 22  2  0  0  0  0
 22 23  1  0  0  0  0
 22 26  1  0  0  0  0
 23 24  1  0  0  0  0
 23 25  1  0  0  0  0
 26 27  1  0  0  0  0
 26 28  1  0  0  0  0
 29 30  2  0  0  0  0
 29 31  1  0  0  0  0
 31 32  1  0  0  0  0
 31 33  1  0  0  0  0
 33 34  1  0  0  0  0
 33 35  1  0  0  0  0
 33 36  1  0  0  0  0
M  CHG  1  20   1
M  END
$$$$

  -OEChem-03222214013D

 36 35  0     1  0  0  0  0  0999 V2000
   -4.2860   -3.8931    2.9706 H   0  0  0  0  0  0  0  0  0  0  0  0
   -4.2184   -2.8057    2.8735 C   0  0  0  0  0  0  0  0  0  0  0  0
   -3.9688   -2.3827    3.8501 H   0  0  0  0  0  0  0  0  0  0  0  0
   -5.1896   -2.4179    2.5564 H   0  0  0  0  0  0  0  0  0  0  0  0
   -3.1506   -2.4349    1.8631 C   0  0  0  0  0  0  0  0  0  0  0  0
   -2.5566   -3.2972    1.2319 O   0  0  0  0  0  0  0  0  0  0  0  0
   -2.9375   -1.1205    1.5128 N   0  0  0  0  0  0  0  0  0  0  0  0
   -3.4668   -0.4299    2.0506 H   0  0  0  0  0  0  0  0  0  0  0  0
   -1.6428   -0.6353    1.0112 C   0  0  1  0  0  0  0  0  0  0  0  0
   -0.8653   -1.3401    1.3275 H   0  0  0  0  0  0  0  0  0  0  0  0
   -1.4835   -0.4498   -0.5241 C   0  0  0  0  0  0  0  0  0  0  0  0
   -0.6895    0.2828   -0.7079 H   0  0  0  0  0  0  0  0  0  0  0  0
   -1.1107   -1.4080   -0.9003 H   0  0  0  0  0  0  0  0  0  0  0  0
   -2.6857   -0.0844   -1.4269 C   0  0  0  0  0  0  0  0  0  0  0  0
   -2.9068    0.9719   -1.2362 H   0  0  0  0  0  0  0  0  0  0  0  0
   -2.3684   -0.1519   -2.4730 H   0  0  0  0  0  0  0  0  0  0  0  0
   -4.0047   -0.8455   -1.2230 C   0  0  0  0  0  0  0  0  0  0  0  0
   -3.9751   -1.4812   -0.3415 H   0  0  0  0  0  0  0  0  0  0  0  0
   -4.8137   -0.1212   -1.0768 H   0  0  0  0  0  0  0  0  0  0  0  0
   -4.2944   -1.6797   -2.4051 N   0  3  0  0  0  0  0  0  0  0  0  0
   -4.7536   -1.2184   -3.1892 H   0  0  0  0  0  0  0  0  0  0  0  0
   -3.9716   -2.9381   -2.5110 C   0  0  0  0  0  0  0  0  0  0  0  0
   -3.3307   -3.6338   -1.5114 N   0  0  0  0  0  0  0  0  0  0  0  0
   -3.0231   -3.1494   -0.6625 H   0  0  0  0  0  0  0  0  0  0  0  0
   -2.9567   -4.5615   -1.6940 H   0  0  0  0  0  0  0  0  0  0  0  0
   -4.2762   -3.6106   -3.6704 N   0  0  0  0  0  0  0  0  0  0  0  0
   -4.9129   -3.1768   -4.3356 H   0  0  0  0  0  0  0  0  0  0  0  0
   -4.1990   -4.6260   -3.6743 H   0  0  0  0  0  0  0  0  0  0  0  0
   -1.3202    0.6913    1.7306 C   0  0  0  0  0  0  0  0  0  0  0  0
   -2.2249    1.4962    1.9148 O   0  0  0  0  0  0  0  0  0  0  0  0
   -0.0605    0.9431    2.2423 N   0  0  0  0  0  0  0  0  0  0  0  0
    0.6584    0.2348    2.1200 H   0  0  0  0  0  0  0  0  0  0  0  0
    0.2696    2.1529    2.9896 C   0  0  0  0  0  0  0  0  0  0  0  0
   -0.3020    2.1961    3.9228 H   0  0  0  0  0  0  0  0  0  0  0  0
    1.3358    2.1676    3.2366 H   0  0  0  0  0  0  0  0  0  0  0  0
    0.0426    3.0458    2.3972 H   0  0  0  0  0  0  0  0  0  0  0  0
  1  2  1  0  0  0  0
  2  3  1  0  0  0  0
  2  4  1  0  0  0  0
  2  5  1  0  0  0  0
  5  6  2  0  0  0  0
  5  7  1  0  0  0  0
  7  8  1  0  0  0  0
  7  9  1  0  0  0  0
  9 10  1  0  0  0  0
  9 11  1  0  0  0  0
  9 29  1  0  0  0  0
 11 12  1  0  0  0  0
 11 13  1  0  0  0  0
 11 14  1  0  0  0  0
 14 15  1  0  0  0  0
 14 16  1  0  0  0  0
 14 17  1  0  0  0  0
 17 18  1  0  0  0  0
 17 19  1  0  0  0  0
 17 20  1  0  0  0  0
 20 21  1  0  0  0  0
 20 22  2  0  0  0  0
 22 23  1  0  0  0  0
 22 26  1  0  0  0  0
 23 24  1  0  0  0  0
 23 25  1  0  0  0  0
 26 27  1  0  0  0  0
 26 28  1  0  0  0  0
 29 30  2  0  0  0  0
 29 31  1  0  0  0  0
 31 32  1  0  0  0  0
 31 33  1  0  0  0  0
 33 34  1  0  0  0  0
 33 35  1  0  0  0  0
 33 36  1  0  0  0  0
M  CHG  1  20   1
M  END
$$$$

  -OEChem-03222214013D

 36 35  0     1  0  0  0  0  0999 V2000
   -3.5900   -3.1841    3.6228 H   0  0  0  0  0  0  0  0  0  0  0  0
   -2.9964   -3.8247    2.9662 C   0  0  0  0  0  0  0  0  0  0  0  0
   -3.6496   -4.2731    2.2143 H   0  0  0  0  0  0  0  0  0  0  0  0
   -2.5514   -4.6234    3.5670 H   0  0  0  0  0  0  0  0  0  0  0  0
   -1.9063   -3.0143    2.2920 C   0  0  0  0  0  0  0  0  0  0  0  0
   -0.7418   -3.3615    2.3832 O   0  0  0  0  0  0  0  0  0  0  0  0
   -2.2308   -1.8920    1.5539 N   0  0  0  0  0  0  0  0  0  0  0  0
   -3.1839   -1.5529    1.6720 H   0  0  0  0  0  0  0  0  0  0  0  0
   -1.2242   -0.8856    1.1772 C   0  0  1  0  0  0  0  0  0  0  0  0
   -0.3305   -0.9717    1.8063 H   0  0  0  0  0  0  0  0  0  0  0  0
   -0.7872   -0.8126   -0.3138 C   0  0  0  0  0  0  0  0  0  0  0  0
   -0.3567    0.1747   -0.5165 H   0  0  0  0  0  0  0  0  0  0  0  0
    0.0406   -1.5259   -0.3932 H   0  0  0  0  0  0  0  0  0  0  0  0
   -1.7464   -1.1752   -1.4746 C   0  0  0  0  0  0  0  0  0  0  0  0
   -2.2308   -0.2353   -1.7572 H   0  0  0  0  0  0  0  0  0  0  0  0
   -1.1437   -1.4882   -2.3341 H   0  0  0  0  0  0  0  0  0  0  0  0
   -2.8444   -2.2191   -1.2523 C   0  0  0  0  0  0  0  0  0  0  0  0
   -2.4134   -3.2255   -1.2958 H   0  0  0  0  0  0  0  0  0  0  0  0
   -3.3109   -2.0988   -0.2769 H   0  0  0  0  0  0  0  0  0  0  0  0
   -3.9044   -2.0476   -2.2609 N   0  3  0  0  0  0  0  0  0  0  0  0
   -3.8640   -2.6420   -3.0880 H   0  0  0  0  0  0  0  0  0  0  0  0
   -4.8848   -1.1984   -2.1162 C   0  0  0  0  0  0  0  0  0  0  0  0
   -4.9771   -0.3500   -1.0302 N   0  0  0  0  0  0  0  0  0  0  0  0
   -5.6308    0.4278   -1.0761 H   0  0  0  0  0  0  0  0  0  0  0  0
   -4.1519   -0.2242   -0.4348 H   0  0  0  0  0  0  0  0  0  0  0  0
   -5.8657   -1.1337   -3.0768 N   0  0  0  0  0  0  0  0  0  0  0  0
   -5.9098   -1.8662   -3.7825 H   0  0  0  0  0  0  0  0  0  0  0  0
   -6.7207   -0.6236   -2.8625 H   0  0  0  0  0  0  0  0  0  0  0  0
   -1.8982    0.4706    1.4704 C   0  0  0  0  0  0  0  0  0  0  0  0
   -3.0451    0.6494    1.0509 O   0  0  0  0  0  0  0  0  0  0  0  0
   -1.2261    1.4868    2.1202 N   0  0  0  0  0  0  0  0  0  0  0  0
   -0.2910    1.2886    2.4709 H   0  0  0  0  0  0  0  0  0  0  0  0
   -1.8255    2.7817    2.4241 C   0  0  0  0  0  0  0  0  0  0  0  0
   -2.6759    2.6617    3.1036 H   0  0  0  0  0  0  0  0  0  0  0  0
   -1.0904    3.4354    2.9043 H   0  0  0  0  0  0  0  0  0  0  0  0
   -2.1723    3.2709    1.5078 H   0  0  0  0  0  0  0  0  0  0  0  0
  1  2  1  0  0  0  0
  2  3  1  0  0  0  0
  2  4  1  0  0  0  0
  2  5  1  0  0  0  0
  5  6  2  0  0  0  0
  5  7  1  0  0  0  0
  7  8  1  0  0  0  0
  7  9  1  0  0  0  0
  9 10  1  0  0  0  0
  9 11  1  0  0  0  0
  9 29  1  0  0  0  0
 11 12  1  0  0  0  0
 11 13  1  0  0  0  0
 11 14  1  0  0  0  0
 14 15  1  0  0  0  0
 14 16  1  0  0  0  0
 14 17  1  0  0  0  0
 17 18  1  0  0  0  0
 17 19  1  0  0  0  0
 17 20  1  0  0  0  0
 20 21  1  0  0  0  0
 20 22  2  0  0  0  0
 22 23  1  0  0  0  0
 22 26  1  0  0  0  0
 23 24  1  0  0  0  0
 23 25  1  0  0  0  0
 26 27  1  0  0  0  0
 26 28  1  0  0  0  0
 29 30  2  0  0  0  0
 29 31  1  0  0  0  0
 31 32  1  0  0  0  0
 31 33  1  0  0  0  0
 33 34  1  0  0  0  0
 33 35  1  0  0  0  0
 33 36  1  0  0  0  0
M  CHG  1  20   1
M  END
$$$$

  -OEChem-03222214013D

 36 35  0     1  0  0  0  0  0999 V2000
   -3.7333   -4.1579    2.2451 H   0  0  0  0  0  0  0  0  0  0  0  0
   -3.0495   -3.7722    3.0047 C   0  0  0  0  0  0  0  0  0  0  0  0
   -2.6073   -4.6174    3.5404 H   0  0  0  0  0  0  0  0  0  0  0  0
   -3.6098   -3.1611    3.7165 H   0  0  0  0  0  0  0  0  0  0  0  0
   -1.9599   -2.9437    2.3516 C   0  0  0  0  0  0  0  0  0  0  0  0
   -0.7925   -3.2778    2.4549 O   0  0  0  0  0  0  0  0  0  0  0  0
   -2.2897   -1.8198    1.6184 N   0  0  0  0  0  0  0  0  0  0  0  0
   -3.2480   -1.4932    1.7254 H   0  0  0  0  0  0  0  0  0  0  0  0
   -1.2895   -0.8086    1.2331 C   0  0  1  0  0  0  0  0  0  0  0  0
   -0.3915   -0.8969    1.8555 H   0  0  0  0  0  0  0  0  0  0  0  0
   -0.8610   -0.7591   -0.2621 C   0  0  0  0  0  0  0  0  0  0  0  0
   -0.4348    0.2265   -0.4819 H   0  0  0  0  0  0  0  0  0  0  0  0
   -0.0283   -1.4678   -0.3310 H   0  0  0  0  0  0  0  0  0  0  0  0
   -1.8186   -1.1464   -1.4204 C   0  0  0  0  0  0  0  0  0  0  0  0
   -2.1089   -0.2021   -1.8931 H   0  0  0  0  0  0  0  0  0  0  0  0
   -1.2543   -1.7128   -2.1693 H   0  0  0  0  0  0  0  0  0  0  0  0
   -3.1018   -1.9135   -1.0948 C   0  0  0  0  0  0  0  0  0  0  0  0
   -2.8775   -2.9792   -0.9732 H   0  0  0  0  0  0  0  0  0  0  0  0
   -3.5293   -1.5517   -0.1592 H   0  0  0  0  0  0  0  0  0  0  0  0
   -4.1055   -1.6977   -2.1510 N   0  3  0  0  0  0  0  0  0  0  0  0
   -4.1025   -2.3429   -2.9401 H   0  0  0  0  0  0  0  0  0  0  0  0
   -4.9766   -0.7277   -2.1063 C   0  0  0  0  0  0  0  0  0  0  0  0
   -5.0063    0.1937   -1.0789 N   0  0  0  0  0  0  0  0  0  0  0  0
   -4.2225    0.2242   -0.4172 H   0  0  0  0  0  0  0  0  0  0  0  0
   -5.5427    1.0488   -1.2013 H   0  0  0  0  0  0  0  0  0  0  0  0
   -5.9017   -0.6083   -3.1156 N   0  0  0  0  0  0  0  0  0  0  0  0
   -6.0126   -1.3810   -3.7689 H   0  0  0  0  0  0  0  0  0  0  0  0
   -6.6965    0.0116   -2.9707 H   0  0  0  0  0  0  0  0  0  0  0  0
   -1.9426    0.5583    1.5255 C   0  0  0  0  0  0  0  0  0  0  0  0
   -3.0817    0.7627    1.0980 O   0  0  0  0  0  0  0  0  0  0  0  0
   -1.2479    1.5674    2.1637 N   0  0  0  0  0  0  0  0  0  0  0  0
   -0.3138    1.3550    2.5087 H   0  0  0  0  0  0  0  0  0  0  0  0
   -1.8114    2.8840    2.4432 C   0  0  0  0  0  0  0  0  0  0  0  0
   -2.7225    2.7938    3.0442 H   0  0  0  0  0  0  0  0  0  0  0  0
   -1.0922    3.4929    3.0005 H   0  0  0  0  0  0  0  0  0  0  0  0
   -2.0536    3.4046    1.5108 H   0  0  0  0  0  0  0  0  0  0  0  0
  1  2  1  0  0  0  0
  2  3  1  0  0  0  0
  2  4  1  0  0  0  0
  2  5  1  0  0  0  0
  5  6  2  0  0  0  0
  5  7  1  0  0  0  0
  7  8  1  0  0  0  0
  7  9  1  0  0  0  0
  9 10  1  0  0  0  0
  9 11  1  0  0  0  0
  9 29  1  0  0  0  0
 11 12  1  0  0  0  0
 11 13  1  0  0  0  0
 11 14  1  0  0  0  0
 14 15  1  0  0  0  0
 14 16  1  0  0  0  0
 14 17  1  0  0  0  0
 17 18  1  0  0  0  0
 17 19  1  0  0  0  0
 17 20  1  0  0  0  0
 20 21  1  0  0  0  0
 20 22  2  0  0  0  0
 22 23  1  0  0  0  0
 22 26  1  0  0  0  0
 23 24  1  0  0  0  0
 23 25  1  0  0  0  0
 26 27  1  0  0  0  0
 26 28  1  0  0  0  0
 29 30  2  0  0  0  0
 29 31  1  0  0  0  0
 31 32  1  0  0  0  0
 31 33  1  0  0  0  0
 33 34  1  0  0  0  0
 33 35  1  0  0  0  0
 33 36  1  0  0  0  0
M  CHG  1  20   1
M  END
$$$$

  -OEChem-03222214013D

 36 35  0     1  0  0  0  0  0999 V2000
   -2.5727   -4.6828    3.3220 H   0  0  0  0  0  0  0  0  0  0  0  0
   -3.0241   -3.7880    2.8837 C   0  0  0  0  0  0  0  0  0  0  0  0
   -3.5209   -3.2228    3.6757 H   0  0  0  0  0  0  0  0  0  0  0  0
   -3.7653   -4.0967    2.1431 H   0  0  0  0  0  0  0  0  0  0  0  0
   -1.9551   -2.9353    2.2280 C   0  0  0  0  0  0  0  0  0  0  0  0
   -0.7865   -3.2781    2.2738 O   0  0  0  0  0  0  0  0  0  0  0  0
   -2.3052   -1.7755    1.5630 N   0  0  0  0  0  0  0  0  0  0  0  0
   -3.2589   -1.4535    1.7142 H   0  0  0  0  0  0  0  0  0  0  0  0
   -1.3130   -0.7554    1.1769 C   0  0  1  0  0  0  0  0  0  0  0  0
   -0.3915   -0.8828    1.7570 H   0  0  0  0  0  0  0  0  0  0  0  0
   -0.9375   -0.6993   -0.3320 C   0  0  0  0  0  0  0  0  0  0  0  0
   -0.5404    0.2973   -0.5559 H   0  0  0  0  0  0  0  0  0  0  0  0
   -0.0941   -1.3896   -0.4444 H   0  0  0  0  0  0  0  0  0  0  0  0
   -1.9418   -1.0810   -1.4539 C   0  0  0  0  0  0  0  0  0  0  0  0
   -2.0333   -0.2015   -2.1006 H   0  0  0  0  0  0  0  0  0  0  0  0
   -1.5016   -1.8769   -2.0646 H   0  0  0  0  0  0  0  0  0  0  0  0
   -3.3476   -1.5218   -1.0378 C   0  0  0  0  0  0  0  0  0  0  0  0
   -3.3504   -2.5988   -0.8372 H   0  0  0  0  0  0  0  0  0  0  0  0
   -3.6358   -1.0135   -0.1156 H   0  0  0  0  0  0  0  0  0  0  0  0
   -4.3292   -1.1802   -2.0819 N   0  3  0  0  0  0  0  0  0  0  0  0
   -4.3948   -1.8054   -2.8842 H   0  0  0  0  0  0  0  0  0  0  0  0
   -5.0820   -0.1167   -2.0270 C   0  0  0  0  0  0  0  0  0  0  0  0
   -5.0195    0.7829   -0.9837 N   0  0  0  0  0  0  0  0  0  0  0  0
   -4.2594    0.6976   -0.2994 H   0  0  0  0  0  0  0  0  0  0  0  0
   -5.4532    1.6961   -1.0908 H   0  0  0  0  0  0  0  0  0  0  0  0
   -5.9728    0.1283   -3.0445 N   0  0  0  0  0  0  0  0  0  0  0  0
   -6.1648   -0.6126   -3.7155 H   0  0  0  0  0  0  0  0  0  0  0  0
   -6.6872    0.8393   -2.9005 H   0  0  0  0  0  0  0  0  0  0  0  0
   -1.9044    0.6207    1.5479 C   0  0  0  0  0  0  0  0  0  0  0  0
   -3.0525    0.8871    1.1872 O   0  0  0  0  0  0  0  0  0  0  0  0
   -1.1413    1.5790    2.1860 N   0  0  0  0  0  0  0  0  0  0  0  0
   -0.2057    1.3140    2.4883 H   0  0  0  0  0  0  0  0  0  0  0  0
   -1.6493    2.8924    2.5678 C   0  0  0  0  0  0  0  0  0  0  0  0
   -2.5168    2.7926    3.2292 H   0  0  0  0  0  0  0  0  0  0  0  0
   -0.8761    3.4574    3.0985 H   0  0  0  0  0  0  0  0  0  0  0  0
   -1.9447    3.4637    1.6817 H   0  0  0  0  0  0  0  0  0  0  0  0
  1  2  1  0  0  0  0
  2  3  1  0  0  0  0
  2  4  1  0  0  0  0
  2  5  1  0  0  0  0
  5  6  2  0  0  0  0
  5  7  1  0  0  0  0
  7  8  1  0  0  0  0
  7  9  1  0  0  0  0
  9 10  1  0  0  0  0
  9 11  1  0  0  0  0
  9 29  1  0  0  0  0
 11 12  1  0  0  0  0
 11 13  1  0  0  0  0
 11 14  1  0  0  0  0
 14 15  1  0  0  0  0
 14 16  1  0  0  0  0
 14 17  1  0  0  0  0
 17 18  1  0  0  0  0
 17 19  1  0  0  0  0
 17 20  1  0  0  0  0
 20 21  1  0  0  0  0
 20 22  2  0  0  0  0
 22 23  1  0  0  0  0
 22 26  1  0  0  0  0
 23 24  1  0  0  0  0
 23 25  1  0  0  0  0
 26 27  1  0  0  0  0
 26 28  1  0  0  0  0
 29 30  2  0  0  0  0
 29 31  1  0  0  0  0
 31 32  1  0  0  0  0
 31 33  1  0  0  0  0
 33 34  1  0  0  0  0
 33 35  1  0  0  0  0
 33 36  1  0  0  0  0
M  CHG  1  20   1
M  END
$$$$

  -OEChem-03222214013D

 36 35  0     1  0  0  0  0  0999 V2000
   -2.6873   -4.6969    3.1231 H   0  0  0  0  0  0  0  0  0  0  0  0
   -3.1267   -3.7701    2.7425 C   0  0  0  0  0  0  0  0  0  0  0  0
   -3.6029   -3.2423    3.5723 H   0  0  0  0  0  0  0  0  0  0  0  0
   -3.8830   -4.0223    1.9959 H   0  0  0  0  0  0  0  0  0  0  0  0
   -2.0499   -2.9008    2.1218 C   0  0  0  0  0  0  0  0  0  0  0  0
   -0.8848   -3.2576    2.1502 O   0  0  0  0  0  0  0  0  0  0  0  0
   -2.3881   -1.7094    1.5081 N   0  0  0  0  0  0  0  0  0  0  0  0
   -3.3415   -1.3894    1.6637 H   0  0  0  0  0  0  0  0  0  0  0  0
   -1.3875   -0.6842    1.1574 C   0  0  1  0  0  0  0  0  0  0  0  0
   -0.4746   -0.8522    1.7406 H   0  0  0  0  0  0  0  0  0  0  0  0
   -0.9855   -0.6630   -0.3434 C   0  0  0  0  0  0  0  0  0  0  0  0
   -0.6229    0.3435   -0.5803 H   0  0  0  0  0  0  0  0  0  0  0  0
   -0.1195   -1.3270   -0.4414 H   0  0  0  0  0  0  0  0  0  0  0  0
   -1.9827   -1.0798   -1.4574 C   0  0  0  0  0  0  0  0  0  0  0  0
   -1.8586   -0.3749   -2.2867 H   0  0  0  0  0  0  0  0  0  0  0  0
   -1.6841   -2.0648   -1.8326 H   0  0  0  0  0  0  0  0  0  0  0  0
   -3.4646   -1.1671   -1.0740 C   0  0  0  0  0  0  0  0  0  0  0  0
   -3.7194   -2.2110   -0.8608 H   0  0  0  0  0  0  0  0  0  0  0  0
   -3.6468   -0.5972   -0.1626 H   0  0  0  0  0  0  0  0  0  0  0  0
   -4.3212   -0.6423   -2.1529 N   0  3  0  0  0  0  0  0  0  0  0  0
   -4.3931   -1.2022   -3.0014 H   0  0  0  0  0  0  0  0  0  0  0  0
   -4.9668    0.4876   -2.0719 C   0  0  0  0  0  0  0  0  0  0  0  0
   -4.8979    1.3060   -0.9664 N   0  0  0  0  0  0  0  0  0  0  0  0
   -4.1984    1.1004   -0.2443 H   0  0  0  0  0  0  0  0  0  0  0  0
   -5.2220    2.2663   -1.0429 H   0  0  0  0  0  0  0  0  0  0  0  0
   -5.7525    0.8891   -3.1255 N   0  0  0  0  0  0  0  0  0  0  0  0
   -5.9645    0.2167   -3.8596 H   0  0  0  0  0  0  0  0  0  0  0  0
   -6.4134    1.6479   -2.9697 H   0  0  0  0  0  0  0  0  0  0  0  0
   -1.9050    0.7111    1.5665 C   0  0  0  0  0  0  0  0  0  0  0  0
   -3.0416    1.0513    1.2399 O   0  0  0  0  0  0  0  0  0  0  0  0
   -1.0821    1.6103    2.2170 N   0  0  0  0  0  0  0  0  0  0  0  0
   -0.1584    1.2870    2.4984 H   0  0  0  0  0  0  0  0  0  0  0  0
   -1.5093    2.9416    2.6346 C   0  0  0  0  0  0  0  0  0  0  0  0
   -2.3610    2.8754    3.3201 H   0  0  0  0  0  0  0  0  0  0  0  0
   -0.6927    3.4568    3.1508 H   0  0  0  0  0  0  0  0  0  0  0  0
   -1.7998    3.5429    1.7668 H   0  0  0  0  0  0  0  0  0  0  0  0
  1  2  1  0  0  0  0
  2  3  1  0  0  0  0
  2  4  1  0  0  0  0
  2  5  1  0  0  0  0
  5  6  2  0  0  0  0
  5  7  1  0  0  0  0
  7  8  1  0  0  0  0
  7  9  1  0  0  0  0
  9 10  1  0  0  0  0
  9 11  1  0  0  0  0
  9 29  1  0  0  0  0
 11 12  1  0  0  0  0
 11 13  1  0  0  0  0
 11 14  1  0  0  0  0
 14 15  1  0  0  0  0
 14 16  1  0  0  0  0
 14 17  1  0  0  0  0
 17 18  1  0  0  0  0
 17 19  1  0  0  0  0
 17 20  1  0  0  0  0
 20 21  1  0  0  0  0
 20 22  2  0  0  0  0
 22 23  1  0  0  0  0
 22 26  1  0  0  0  0
 23 24  1  0  0  0  0
 23 25  1  0  0  0  0
 26 27  1  0  0  0  0
 26 28  1  0  0  0  0
 29 30  2  0  0  0  0
 29 31  1  0  0  0  0
 31 32  1  0  0  0  0
 31 33  1  0  0  0  0
 33 34  1  0  0  0  0
 33 35  1  0  0  0  0
 33 36  1  0  0  0  0
M  CHG  1  20   1
M  END
$$$$

  -OEChem-03222214013D

 36 35  0     1  0  0  0  0  0999 V2000
   -2.7825   -4.5847    3.1142 H   0  0  0  0  0  0  0  0  0  0  0  0
   -3.2200   -3.6772    2.6879 C   0  0  0  0  0  0  0  0  0  0  0  0
   -3.7158   -3.1201    3.4866 H   0  0  0  0  0  0  0  0  0  0  0  0
   -3.9588   -3.9637    1.9360 H   0  0  0  0  0  0  0  0  0  0  0  0
   -2.1359   -2.8267    2.0547 C   0  0  0  0  0  0  0  0  0  0  0  0
   -0.9769   -3.2044    2.0692 O   0  0  0  0  0  0  0  0  0  0  0  0
   -2.4595   -1.6267    1.4497 N   0  0  0  0  0  0  0  0  0  0  0  0
   -3.4066   -1.2919    1.6133 H   0  0  0  0  0  0  0  0  0  0  0  0
   -1.4443   -0.6189    1.0904 C   0  0  1  0  0  0  0  0  0  0  0  0
   -0.5381   -0.8062    1.6782 H   0  0  0  0  0  0  0  0  0  0  0  0
   -1.0288   -0.6863   -0.4025 C   0  0  0  0  0  0  0  0  0  0  0  0
   -0.6763    0.3083   -0.6970 H   0  0  0  0  0  0  0  0  0  0  0  0
   -0.1625   -1.3538   -0.4694 H   0  0  0  0  0  0  0  0  0  0  0  0
   -2.0442   -1.1636   -1.4701 C   0  0  0  0  0  0  0  0  0  0  0  0
   -1.7456   -0.7499   -2.4393 H   0  0  0  0  0  0  0  0  0  0  0  0
   -1.9437   -2.2520   -1.5487 H   0  0  0  0  0  0  0  0  0  0  0  0
   -3.5279   -0.8786   -1.1952 C   0  0  0  0  0  0  0  0  0  0  0  0
   -4.0583   -1.8321   -1.0961 H   0  0  0  0  0  0  0  0  0  0  0  0
   -3.6425   -0.3469   -0.2512 H   0  0  0  0  0  0  0  0  0  0  0  0
   -4.1202   -0.0979   -2.2994 N   0  3  0  0  0  0  0  0  0  0  0  0
   -4.0863   -0.5194   -3.2263 H   0  0  0  0  0  0  0  0  0  0  0  0
   -4.6994    1.0609   -2.1553 C   0  0  0  0  0  0  0  0  0  0  0  0
   -4.7918    1.7049   -0.9437 N   0  0  0  0  0  0  0  0  0  0  0  0
   -4.1972    1.3726   -0.1769 H   0  0  0  0  0  0  0  0  0  0  0  0
   -5.0418    2.6898   -0.9360 H   0  0  0  0  0  0  0  0  0  0  0  0
   -5.2503    1.6742   -3.2556 N   0  0  0  0  0  0  0  0  0  0  0  0
   -5.3630    1.1348   -4.1113 H   0  0  0  0  0  0  0  0  0  0  0  0
   -5.8731    2.4656   -3.1053 H   0  0  0  0  0  0  0  0  0  0  0  0
   -1.8940    0.8002    1.4956 C   0  0  0  0  0  0  0  0  0  0  0  0
   -3.0348    1.1755    1.2359 O   0  0  0  0  0  0  0  0  0  0  0  0
   -1.0202    1.6655    2.1255 N   0  0  0  0  0  0  0  0  0  0  0  0
   -0.1024    1.3049    2.3799 H   0  0  0  0  0  0  0  0  0  0  0  0
   -1.3983    2.9938    2.5971 C   0  0  0  0  0  0  0  0  0  0  0  0
   -2.2062    2.9254    3.3335 H   0  0  0  0  0  0  0  0  0  0  0  0
   -0.5424    3.4852    3.0708 H   0  0  0  0  0  0  0  0  0  0  0  0
   -1.7334    3.6181    1.7624 H   0  0  0  0  0  0  0  0  0  0  0  0
  1  2  1  0  0  0  0
  2  3  1  0  0  0  0
  2  4  1  0  0  0  0
  2  5  1  0  0  0  0
  5  6  2  0  0  0  0
  5  7  1  0  0  0  0
  7  8  1  0  0  0  0
  7  9  1  0  0  0  0
  9 10  1  0  0  0  0
  9 11  1  0  0  0  0
  9 29  1  0  0  0  0
 11 12  1  0  0  0  0
 11 13  1  0  0  0  0
 11 14  1  0  0  0  0
 14 15  1  0  0  0  0
 14 16  1  0  0  0  0
 14 17  1  0  0  0  0
 17 18  1  0  0  0  0
 17 19  1  0  0  0  0
 17 20  1  0  0  0  0
 20 21  1  0  0  0  0
 20 22  2  0  0  0  0
 22 23  1  0  0  0  0
 22 26  1  0  0  0  0
 23 24  1  0  0  0  0
 23 25  1  0  0  0  0
 26 27  1  0  0  0  0
 26 28  1  0  0  0  0
 29 30  2  0  0  0  0
 29 31  1  0  0  0  0
 31 32  1  0  0  0  0
 31 33  1  0  0  0  0
 33 34  1  0  0  0  0
 33 35  1  0  0  0  0
 33 36  1  0  0  0  0
M  CHG  1  20   1
M  END
$$$$

  -OEChem-03222214013D

 36 35  0     1  0  0  0  0  0999 V2000
   -3.5984   -4.3952    2.5216 H   0  0  0  0  0  0  0  0  0  0  0  0
   -3.7847   -3.3516    2.2513 C   0  0  0  0  0  0  0  0  0  0  0  0
   -4.1712   -2.8264    3.1281 H   0  0  0  0  0  0  0  0  0  0  0  0
   -4.5336   -3.3242    1.4567 H   0  0  0  0  0  0  0  0  0  0  0  0
   -2.4990   -2.6988    1.7808 C   0  0  0  0  0  0  0  0  0  0  0  0
   -1.4470   -3.3123    1.8362 O   0  0  0  0  0  0  0  0  0  0  0  0
   -2.5179   -1.4128    1.2752 N   0  0  0  0  0  0  0  0  0  0  0  0
   -3.3868   -0.9000    1.4122 H   0  0  0  0  0  0  0  0  0  0  0  0
   -1.2951   -0.6004    1.1350 C   0  0  1  0  0  0  0  0  0  0  0  0
   -0.5108   -1.0076    1.7834 H   0  0  0  0  0  0  0  0  0  0  0  0
   -0.7366   -0.5899   -0.3137 C   0  0  0  0  0  0  0  0  0  0  0  0
   -0.1651    0.3336   -0.4580 H   0  0  0  0  0  0  0  0  0  0  0  0
   -0.0239   -1.4177   -0.3984 H   0  0  0  0  0  0  0  0  0  0  0  0
   -1.7376   -0.7326   -1.4803 C   0  0  0  0  0  0  0  0  0  0  0  0
   -1.2272   -0.4765   -2.4148 H   0  0  0  0  0  0  0  0  0  0  0  0
   -2.0642   -1.7760   -1.5500 H   0  0  0  0  0  0  0  0  0  0  0  0
   -2.9583    0.1615   -1.2827 C   0  0  0  0  0  0  0  0  0  0  0  0
   -3.5610   -0.2227   -0.4551 H   0  0  0  0  0  0  0  0  0  0  0  0
   -2.6014    1.1602   -1.0086 H   0  0  0  0  0  0  0  0  0  0  0  0
   -3.7937    0.2682   -2.4877 N   0  3  0  0  0  0  0  0  0  0  0  0
   -3.5705   -0.3335   -3.2791 H   0  0  0  0  0  0  0  0  0  0  0  0
   -4.7666    1.1292   -2.5669 C   0  0  0  0  0  0  0  0  0  0  0  0
   -5.0720    1.9613   -1.5107 N   0  0  0  0  0  0  0  0  0  0  0  0
   -4.4307    1.9785   -0.7153 H   0  0  0  0  0  0  0  0  0  0  0  0
   -5.6474    2.7832   -1.6798 H   0  0  0  0  0  0  0  0  0  0  0  0
   -5.5078    1.2200   -3.7206 N   0  0  0  0  0  0  0  0  0  0  0  0
   -5.4033    0.4959   -4.4286 H   0  0  0  0  0  0  0  0  0  0  0  0
   -6.3805    1.7443   -3.6968 H   0  0  0  0  0  0  0  0  0  0  0  0
   -1.5660    0.8318    1.6505 C   0  0  0  0  0  0  0  0  0  0  0  0
   -2.6208    1.3941    1.3567 O   0  0  0  0  0  0  0  0  0  0  0  0
   -0.6564    1.4704    2.4714 N   0  0  0  0  0  0  0  0  0  0  0  0
    0.1733    0.9513    2.7513 H   0  0  0  0  0  0  0  0  0  0  0  0
   -0.8801    2.7907    3.0513 C   0  0  0  0  0  0  0  0  0  0  0  0
   -1.7397    2.7722    3.7296 H   0  0  0  0  0  0  0  0  0  0  0  0
    0.0003    3.1088    3.6185 H   0  0  0  0  0  0  0  0  0  0  0  0
   -1.0666    3.5307    2.2659 H   0  0  0  0  0  0  0  0  0  0  0  0
  1  2  1  0  0  0  0
  2  3  1  0  0  0  0
  2  4  1  0  0  0  0
  2  5  1  0  0  0  0
  5  6  2  0  0  0  0
  5  7  1  0  0  0  0
  7  8  1  0  0  0  0
  7  9  1  0  0  0  0
  9 10  1  0  0  0  0
  9 11  1  0  0  0  0
  9 29  1  0  0  0  0
 11 12  1  0  0  0  0
 11 13  1  0  0  0  0
 11 14  1  0  0  0  0
 14 15  1  0  0  0  0
 14 16  1  0  0  0  0
 14 17  1  0  0  0  0
 17 18  1  0  0  0  0
 17 19  1  0  0  0  0
 17 20  1  0  0  0  0
 20 21  1  0  0  0  0
 20 22  2  0  0  0  0
 22 23  1  0  0  0  0
 22 26  1  0  0  0  0
 23 24  1  0  0  0  0
 23 25  1  0  0  0  0
 26 27  1  0  0  0  0
 26 28  1  0  0  0  0
 29 30  2  0  0  0  0
 29 31  1  0  0  0  0
 31 32  1  0  0  0  0
 31 33  1  0  0  0  0
 33 34  1  0  0  0  0
 33 35  1  0  0  0  0
 33 36  1  0  0  0  0
M  CHG  1  20   1
M  END
$$$$

  -OEChem-03222214013D

 36 35  0     1  0  0  0  0  0999 V2000
   -3.9056   -4.1666    2.4161 H   0  0  0  0  0  0  0  0  0  0  0  0
   -4.0199   -3.1523    2.0226 C   0  0  0  0  0  0  0  0  0  0  0  0
   -4.5073   -2.5354    2.7814 H   0  0  0  0  0  0  0  0  0  0  0  0
   -4.6502   -3.1913    1.1313 H   0  0  0  0  0  0  0  0  0  0  0  0
   -2.6621   -2.5726    1.6753 C   0  0  0  0  0  0  0  0  0  0  0  0
   -1.6540   -3.2402    1.8305 O   0  0  0  0  0  0  0  0  0  0  0  0
   -2.5664   -1.2927    1.1634 N   0  0  0  0  0  0  0  0  0  0  0  0
   -3.4149   -0.7328    1.2127 H   0  0  0  0  0  0  0  0  0  0  0  0
   -1.2926   -0.5529    1.0997 C   0  0  1  0  0  0  0  0  0  0  0  0
   -0.5798   -0.9990    1.8027 H   0  0  0  0  0  0  0  0  0  0  0  0
   -0.6429   -0.6071   -0.3084 C   0  0  0  0  0  0  0  0  0  0  0  0
    0.0019    0.2683   -0.4432 H   0  0  0  0  0  0  0  0  0  0  0  0
    0.0079   -1.4880   -0.3346 H   0  0  0  0  0  0  0  0  0  0  0  0
   -1.6053   -0.7213   -1.5068 C   0  0  0  0  0  0  0  0  0  0  0  0
   -1.0204   -0.7576   -2.4321 H   0  0  0  0  0  0  0  0  0  0  0  0
   -2.1821   -1.6500   -1.4412 H   0  0  0  0  0  0  0  0  0  0  0  0
   -2.5384    0.4826   -1.5278 C   0  0  0  0  0  0  0  0  0  0  0  0
   -3.1457    0.4550   -0.6195 H   0  0  0  0  0  0  0  0  0  0  0  0
   -1.9348    1.3971   -1.5107 H   0  0  0  0  0  0  0  0  0  0  0  0
   -3.4367    0.5057   -2.6904 N   0  3  0  0  0  0  0  0  0  0  0  0
   -3.2649   -0.1603   -3.4422 H   0  0  0  0  0  0  0  0  0  0  0  0
   -4.4251    1.3498   -2.7655 C   0  0  0  0  0  0  0  0  0  0  0  0
   -4.6737    2.2513   -1.7515 N   0  0  0  0  0  0  0  0  0  0  0  0
   -4.1347    2.1667   -0.8870 H   0  0  0  0  0  0  0  0  0  0  0  0
   -5.5729    2.7257   -1.7150 H   0  0  0  0  0  0  0  0  0  0  0  0
   -5.2436    1.3491   -3.8696 N   0  0  0  0  0  0  0  0  0  0  0  0
   -4.9501    0.8258   -4.6922 H   0  0  0  0  0  0  0  0  0  0  0  0
   -5.8660    2.1432   -4.0080 H   0  0  0  0  0  0  0  0  0  0  0  0
   -1.5007    0.9006    1.5861 C   0  0  0  0  0  0  0  0  0  0  0  0
   -2.5006    1.5265    1.2348 O   0  0  0  0  0  0  0  0  0  0  0  0
   -0.6036    1.4870    2.4582 N   0  0  0  0  0  0  0  0  0  0  0  0
    0.1777    0.9218    2.7844 H   0  0  0  0  0  0  0  0  0  0  0  0
   -0.7841    2.8196    3.0251 C   0  0  0  0  0  0  0  0  0  0  0  0
   -1.7015    2.8626    3.6219 H   0  0  0  0  0  0  0  0  0  0  0  0
    0.0607    3.0726    3.6737 H   0  0  0  0  0  0  0  0  0  0  0  0
   -0.8442    3.5714    2.2311 H   0  0  0  0  0  0  0  0  0  0  0  0
  1  2  1  0  0  0  0
  2  3  1  0  0  0  0
  2  4  1  0  0  0  0
  2  5  1  0  0  0  0
  5  6  2  0  0  0  0
  5  7  1  0  0  0  0
  7  8  1  0  0  0  0
  7  9  1  0  0  0  0
  9 10  1  0  0  0  0
  9 11  1  0  0  0  0
  9 29  1  0  0  0  0
 11 12  1  0  0  0  0
 11 13  1  0  0  0  0
 11 14  1  0  0  0  0
 14 15  1  0  0  0  0
 14 16  1  0  0  0  0
 14 17  1  0  0  0  0
 17 18  1  0  0  0  0
 17 19  1  0  0  0  0
 17 20  1  0  0  0  0
 20 21  1  0  0  0  0
 20 22  2  0  0  0  0
 22 23  1  0  0  0  0
 22 26  1  0  0  0  0
 23 24  1  0  0  0  0
 23 25  1  0  0  0  0
 26 27  1  0  0  0  0
 26 28  1  0  0  0  0
 29 30  2  0  0  0  0
 29 31  1  0  0  0  0
 31 32  1  0  0  0  0
 31 33  1  0  0  0  0
 33 34  1  0  0  0  0
 33 35  1  0  0  0  0
 33 36  1  0  0  0  0
M  CHG  1  20   1
M  END
$$$$

  -OEChem-03222214013D

 36 35  0     1  0  0  0  0  0999 V2000
   -4.5497   -3.7246    1.7576 H   0  0  0  0  0  0  0  0  0  0  0  0
   -4.4802   -2.6750    1.4567 C   0  0  0  0  0  0  0  0  0  0  0  0
   -4.9872   -2.0617    2.2055 H   0  0  0  0  0  0  0  0  0  0  0  0
   -4.9800   -2.5542    0.4933 H   0  0  0  0  0  0  0  0  0  0  0  0
   -3.0250   -2.2620    1.3465 C   0  0  0  0  0  0  0  0  0  0  0  0
   -2.1454   -3.0297    1.6958 O   0  0  0  0  0  0  0  0  0  0  0  0
   -2.6905   -1.0240    0.8312 N   0  0  0  0  0  0  0  0  0  0  0  0
   -3.4613   -0.3710    0.7138 H   0  0  0  0  0  0  0  0  0  0  0  0
   -1.3448   -0.4397    0.9826 C   0  0  1  0  0  0  0  0  0  0  0  0
   -0.8303   -0.9292    1.8180 H   0  0  0  0  0  0  0  0  0  0  0  0
   -0.4566   -0.6353   -0.2749 C   0  0  0  0  0  0  0  0  0  0  0  0
    0.3197    0.1370   -0.3039 H   0  0  0  0  0  0  0  0  0  0  0  0
    0.0572   -1.5948   -0.1491 H   0  0  0  0  0  0  0  0  0  0  0  0
   -1.1793   -0.6972   -1.6352 C   0  0  0  0  0  0  0  0  0  0  0  0
   -0.4947   -1.0961   -2.3914 H   0  0  0  0  0  0  0  0  0  0  0  0
   -2.0266   -1.3876   -1.5787 H   0  0  0  0  0  0  0  0  0  0  0  0
   -1.6348    0.6966   -2.0705 C   0  0  0  0  0  0  0  0  0  0  0  0
   -1.8313    1.3116   -1.1939 H   0  0  0  0  0  0  0  0  0  0  0  0
   -0.8197    1.1803   -2.6203 H   0  0  0  0  0  0  0  0  0  0  0  0
   -2.8392    0.6288   -2.9163 N   0  3  0  0  0  0  0  0  0  0  0  0
   -2.7355    0.2002   -3.8351 H   0  0  0  0  0  0  0  0  0  0  0  0
   -3.9908    1.1300   -2.5693 C   0  0  0  0  0  0  0  0  0  0  0  0
   -4.2089    1.7041   -1.3355 N   0  0  0  0  0  0  0  0  0  0  0  0
   -3.4184    1.8282   -0.6926 H   0  0  0  0  0  0  0  0  0  0  0  0
   -5.0496    2.2522   -1.1734 H   0  0  0  0  0  0  0  0  0  0  0  0
   -5.0363    1.0765   -3.4601 N   0  0  0  0  0  0  0  0  0  0  0  0
   -4.8536    0.8155   -4.4270 H   0  0  0  0  0  0  0  0  0  0  0  0
   -5.8958    1.5781   -3.2460 H   0  0  0  0  0  0  0  0  0  0  0  0
   -1.4721    1.0433    1.3911 C   0  0  0  0  0  0  0  0  0  0  0  0
   -2.3493    1.7367    0.8756 O   0  0  0  0  0  0  0  0  0  0  0  0
   -0.6881    1.5706    2.3987 N   0  0  0  0  0  0  0  0  0  0  0  0
   -0.0300    0.9466    2.8616 H   0  0  0  0  0  0  0  0  0  0  0  0
   -0.8384    2.9279    2.9133 C   0  0  0  0  0  0  0  0  0  0  0  0
   -1.8282    3.0608    3.3629 H   0  0  0  0  0  0  0  0  0  0  0  0
   -0.0824    3.1281    3.6795 H   0  0  0  0  0  0  0  0  0  0  0  0
   -0.7138    3.6617    2.1098 H   0  0  0  0  0  0  0  0  0  0  0  0
  1  2  1  0  0  0  0
  2  3  1  0  0  0  0
  2  4  1  0  0  0  0
  2  5  1  0  0  0  0
  5  6  2  0  0  0  0
  5  7  1  0  0  0  0
  7  8  1  0  0  0  0
  7  9  1  0  0  0  0
  9 10  1  0  0  0  0
  9 11  1  0  0  0  0
  9 29  1  0  0  0  0
 11 12  1  0  0  0  0
 11 13  1  0  0  0  0
 11 14  1  0  0  0  0
 14 15  1  0  0  0  0
 14 16  1  0  0  0  0
 14 17  1  0  0  0  0
 17 18  1  0  0  0  0
 17 19  1  0  0  0  0
 17 20  1  0  0  0  0
 20 21  1  0  0  0  0
 20 22  2  0  0  0  0
 22 23  1  0  0  0  0
 22 26  1  0  0  0  0
 23 24  1  0  0  0  0
 23 25  1  0  0  0  0
 26 27  1  0  0  0  0
 26 28  1  0  0  0  0
 29 30  2  0  0  0  0
 29 31  1  0  0  0  0
 31 32  1  0  0  0  0
 31 33  1  0  0  0  0
 33 34  1  0  0  0  0
 33 35  1  0  0  0  0
 33 36  1  0  0  0  0
M  CHG  1  20   1
M  END
$$$$

  -OEChem-03222214013D

 36 35  0     1  0  0  0  0  0999 V2000
   -4.4845   -3.7710    2.0179 H   0  0  0  0  0  0  0  0  0  0  0  0
   -4.4220   -2.7791    1.5607 C   0  0  0  0  0  0  0  0  0  0  0  0
   -4.9969   -2.0763    2.1683 H   0  0  0  0  0  0  0  0  0  0  0  0
   -4.8548   -2.8275    0.5589 H   0  0  0  0  0  0  0  0  0  0  0  0
   -2.9742   -2.3344    1.4817 C   0  0  0  0  0  0  0  0  0  0  0  0
   -2.0925   -3.0426    1.9363 O   0  0  0  0  0  0  0  0  0  0  0  0
   -2.6488   -1.1340    0.8789 N   0  0  0  0  0  0  0  0  0  0  0  0
   -3.4258   -0.5146    0.6613 H   0  0  0  0  0  0  0  0  0  0  0  0
   -1.3109   -0.5227    0.9815 C   0  0  1  0  0  0  0  0  0  0  0  0
   -0.7679   -0.9521    1.8312 H   0  0  0  0  0  0  0  0  0  0  0  0
   -0.4433   -0.7210   -0.2893 C   0  0  0  0  0  0  0  0  0  0  0  0
    0.3334    0.0503   -0.3432 H   0  0  0  0  0  0  0  0  0  0  0  0
    0.0763   -1.6762   -0.1551 H   0  0  0  0  0  0  0  0  0  0  0  0
   -1.1949   -0.8197   -1.6332 C   0  0  0  0  0  0  0  0  0  0  0  0
   -0.6111   -1.4335   -2.3275 H   0  0  0  0  0  0  0  0  0  0  0  0
   -2.1645   -1.3111   -1.5189 H   0  0  0  0  0  0  0  0  0  0  0  0
   -1.3480    0.5802   -2.2323 C   0  0  0  0  0  0  0  0  0  0  0  0
   -1.4585    1.3114   -1.4284 H   0  0  0  0  0  0  0  0  0  0  0  0
   -0.4326    0.8393   -2.7759 H   0  0  0  0  0  0  0  0  0  0  0  0
   -2.5085    0.6463   -3.1386 N   0  3  0  0  0  0  0  0  0  0  0  0
   -2.4685    0.0767   -3.9824 H   0  0  0  0  0  0  0  0  0  0  0  0
   -3.5298    1.4325   -2.9446 C   0  0  0  0  0  0  0  0  0  0  0  0
   -3.6526    2.2273   -1.8269 N   0  0  0  0  0  0  0  0  0  0  0  0
   -3.0349    2.0393   -1.0290 H   0  0  0  0  0  0  0  0  0  0  0  0
   -4.5518    2.6566   -1.6263 H   0  0  0  0  0  0  0  0  0  0  0  0
   -4.5277    1.4821   -3.8884 N   0  0  0  0  0  0  0  0  0  0  0  0
   -4.3570    1.0584   -4.7980 H   0  0  0  0  0  0  0  0  0  0  0  0
   -5.1944    2.2503   -3.8404 H   0  0  0  0  0  0  0  0  0  0  0  0
   -1.4761    0.9814    1.2806 C   0  0  0  0  0  0  0  0  0  0  0  0
   -2.3112    1.6304    0.6497 O   0  0  0  0  0  0  0  0  0  0  0  0
   -0.7089    1.6045    2.2456 N   0  0  0  0  0  0  0  0  0  0  0  0
   -0.0685    1.0262    2.7864 H   0  0  0  0  0  0  0  0  0  0  0  0
   -0.8539    3.0099    2.6110 C   0  0  0  0  0  0  0  0  0  0  0  0
   -1.8600    3.2052    2.9971 H   0  0  0  0  0  0  0  0  0  0  0  0
   -0.1297    3.2757    3.3879 H   0  0  0  0  0  0  0  0  0  0  0  0
   -0.6772    3.6542    1.7433 H   0  0  0  0  0  0  0  0  0  0  0  0
  1  2  1  0  0  0  0
  2  3  1  0  0  0  0
  2  4  1  0  0  0  0
  2  5  1  0  0  0  0
  5  6  2  0  0  0  0
  5  7  1  0  0  0  0
  7  8  1  0  0  0  0
  7  9  1  0  0  0  0
  9 10  1  0  0  0  0
  9 11  1  0  0  0  0
  9 29  1  0  0  0  0
 11 12  1  0  0  0  0
 11 13  1  0  0  0  0
 11 14  1  0  0  0  0
 14 15  1  0  0  0  0
 14 16  1  0  0  0  0
 14 17  1  0  0  0  0
 17 18  1  0  0  0  0
 17 19  1  0  0  0  0
 17 20  1  0  0  0  0
 20 21  1  0  0  0  0
 20 22  2  0  0  0  0
 22 23  1  0  0  0  0
 22 26  1  0  0  0  0
 23 24  1  0  0  0  0
 23 25  1  0  0  0  0
 26 27  1  0  0  0  0
 26 28  1  0  0  0  0
 29 30  2  0  0  0  0
 29 31  1  0  0  0  0
 31 32  1  0  0  0  0
 31 33  1  0  0  0  0
 33 34  1  0  0  0  0
 33 35  1  0  0  0  0
 33 36  1  0  0  0  0
M  CHG  1  20   1
M  END
$$$$

  -OEChem-03222214013D

 36 35  0     1  0  0  0  0  0999 V2000
   -4.5046   -3.7321    2.1530 H   0  0  0  0  0  0  0  0  0  0  0  0
   -4.4255   -2.7712    1.6359 C   0  0  0  0  0  0  0  0  0  0  0  0
   -5.0095   -2.0290    2.1853 H   0  0  0  0  0  0  0  0  0  0  0  0
   -4.8368   -2.8799    0.6297 H   0  0  0  0  0  0  0  0  0  0  0  0
   -2.9736   -2.3391    1.5616 C   0  0  0  0  0  0  0  0  0  0  0  0
   -2.1065   -3.0194    2.0822 O   0  0  0  0  0  0  0  0  0  0  0  0
   -2.6288   -1.1788    0.8949 N   0  0  0  0  0  0  0  0  0  0  0  0
   -3.3964   -0.5749    0.6107 H   0  0  0  0  0  0  0  0  0  0  0  0
   -1.2857   -0.5757    0.9697 C   0  0  1  0  0  0  0  0  0  0  0  0
   -0.7335   -0.9707    1.8301 H   0  0  0  0  0  0  0  0  0  0  0  0
   -0.4340   -0.7917   -0.3071 C   0  0  0  0  0  0  0  0  0  0  0  0
    0.3541   -0.0324   -0.3719 H   0  0  0  0  0  0  0  0  0  0  0  0
    0.0774   -1.7506   -0.1680 H   0  0  0  0  0  0  0  0  0  0  0  0
   -1.2059   -0.8991   -1.6414 C   0  0  0  0  0  0  0  0  0  0  0  0
   -0.7923   -1.7204   -2.2365 H   0  0  0  0  0  0  0  0  0  0  0  0
   -2.2660   -1.1162   -1.4956 H   0  0  0  0  0  0  0  0  0  0  0  0
   -1.0286    0.4107   -2.4118 C   0  0  0  0  0  0  0  0  0  0  0  0
   -1.0457    1.2504   -1.7093 H   0  0  0  0  0  0  0  0  0  0  0  0
   -0.0466    0.4151   -2.8976 H   0  0  0  0  0  0  0  0  0  0  0  0
   -2.0938    0.5771   -3.4167 N   0  3  0  0  0  0  0  0  0  0  0  0
   -2.0184    0.0201   -4.2667 H   0  0  0  0  0  0  0  0  0  0  0  0
   -3.0759    1.4247   -3.2900 C   0  0  0  0  0  0  0  0  0  0  0  0
   -3.2459    2.2017   -2.1660 N   0  0  0  0  0  0  0  0  0  0  0  0
   -2.7174    1.9554   -1.3214 H   0  0  0  0  0  0  0  0  0  0  0  0
   -4.1299    2.6856   -2.0340 H   0  0  0  0  0  0  0  0  0  0  0  0
   -3.9830    1.5581   -4.3137 N   0  0  0  0  0  0  0  0  0  0  0  0
   -3.7615    1.1425   -5.2161 H   0  0  0  0  0  0  0  0  0  0  0  0
   -4.6031    2.3656   -4.3024 H   0  0  0  0  0  0  0  0  0  0  0  0
   -1.4470    0.9432    1.1818 C   0  0  0  0  0  0  0  0  0  0  0  0
   -2.2118    1.5690    0.4461 O   0  0  0  0  0  0  0  0  0  0  0  0
   -0.6845    1.6185    2.1149 N   0  0  0  0  0  0  0  0  0  0  0  0
   -0.0891    1.0642    2.7276 H   0  0  0  0  0  0  0  0  0  0  0  0
   -0.7875    3.0538    2.3574 C   0  0  0  0  0  0  0  0  0  0  0  0
   -1.7986    3.3175    2.6854 H   0  0  0  0  0  0  0  0  0  0  0  0
   -0.0827    3.3564    3.1383 H   0  0  0  0  0  0  0  0  0  0  0  0
   -0.5531    3.6162    1.4475 H   0  0  0  0  0  0  0  0  0  0  0  0
  1  2  1  0  0  0  0
  2  3  1  0  0  0  0
  2  4  1  0  0  0  0
  2  5  1  0  0  0  0
  5  6  2  0  0  0  0
  5  7  1  0  0  0  0
  7  8  1  0  0  0  0
  7  9  1  0  0  0  0
  9 10  1  0  0  0  0
  9 11  1  0  0  0  0
  9 29  1  0  0  0  0
 11 12  1  0  0  0  0
 11 13  1  0  0  0  0
 11 14  1  0  0  0  0
 14 15  1  0  0  0  0
 14 16  1  0  0  0  0
 14 17  1  0  0  0  0
 17 18  1  0  0  0  0
 17 19  1  0  0  0  0
 17 20  1  0  0  0  0
 20 21  1  0  0  0  0
 20 22  2  0  0  0  0
 22 23  1  0  0  0  0
 22 26  1  0  0  0  0
 23 24  1  0  0  0  0
 23 25  1  0  0  0  0
 26 27  1  0  0  0  0
 26 28  1  0  0  0  0
 29 30  2  0  0  0  0
 29 31  1  0  0  0  0
 31 32  1  0  0  0  0
 31 33  1  0  0  0  0
 33 34  1  0  0  0  0
 33 35  1  0  0  0  0
 33 36  1  0  0  0  0
M  CHG  1  20   1
M  END
$$$$

  -OEChem-03222214013D

 36 35  0     1  0  0  0  0  0999 V2000
   -4.5370   -3.7148    2.1814 H   0  0  0  0  0  0  0  0  0  0  0  0
   -4.4441   -2.7632    1.6498 C   0  0  0  0  0  0  0  0  0  0  0  0
   -5.0267   -2.0063    2.1804 H   0  0  0  0  0  0  0  0  0  0  0  0
   -4.8458   -2.8849    0.6412 H   0  0  0  0  0  0  0  0  0  0  0  0
   -2.9880   -2.3453    1.5840 C   0  0  0  0  0  0  0  0  0  0  0  0
   -2.1357   -3.0058    2.1525 O   0  0  0  0  0  0  0  0  0  0  0  0
   -2.6233   -1.2176    0.8738 N   0  0  0  0  0  0  0  0  0  0  0  0
   -3.3824   -0.6248    0.5457 H   0  0  0  0  0  0  0  0  0  0  0  0
   -1.2785   -0.6183    0.9495 C   0  0  1  0  0  0  0  0  0  0  0  0
   -0.7384   -0.9823    1.8311 H   0  0  0  0  0  0  0  0  0  0  0  0
   -0.4172   -0.8740   -0.3116 C   0  0  0  0  0  0  0  0  0  0  0  0
    0.3641   -0.1087   -0.3873 H   0  0  0  0  0  0  0  0  0  0  0  0
    0.1037   -1.8240   -0.1490 H   0  0  0  0  0  0  0  0  0  0  0  0
   -1.1920   -1.0109   -1.6428 C   0  0  0  0  0  0  0  0  0  0  0  0
   -1.0104   -1.9979   -2.0825 H   0  0  0  0  0  0  0  0  0  0  0  0
   -2.2702   -0.9121   -1.5006 H   0  0  0  0  0  0  0  0  0  0  0  0
   -0.7166    0.0825   -2.6009 C   0  0  0  0  0  0  0  0  0  0  0  0
   -0.5383    1.0072   -2.0410 H   0  0  0  0  0  0  0  0  0  0  0  0
    0.2384   -0.2163   -3.0476 H   0  0  0  0  0  0  0  0  0  0  0  0
   -1.7183    0.3318   -3.6531 N   0  3  0  0  0  0  0  0  0  0  0  0
   -1.6635   -0.2462   -4.4907 H   0  0  0  0  0  0  0  0  0  0  0  0
   -2.6112    1.2794   -3.5842 C   0  0  0  0  0  0  0  0  0  0  0  0
   -2.7539    2.0858   -2.4768 N   0  0  0  0  0  0  0  0  0  0  0  0
   -2.3147    1.7869   -1.5989 H   0  0  0  0  0  0  0  0  0  0  0  0
   -3.5898    2.6588   -2.3972 H   0  0  0  0  0  0  0  0  0  0  0  0
   -3.4473    1.4929   -4.6538 N   0  0  0  0  0  0  0  0  0  0  0  0
   -3.2259    1.0439   -5.5401 H   0  0  0  0  0  0  0  0  0  0  0  0
   -3.9766    2.3623   -4.6817 H   0  0  0  0  0  0  0  0  0  0  0  0
   -1.4348    0.9091    1.0906 C   0  0  0  0  0  0  0  0  0  0  0  0
   -2.1416    1.5095    0.2794 O   0  0  0  0  0  0  0  0  0  0  0  0
   -0.6881    1.6213    2.0086 N   0  0  0  0  0  0  0  0  0  0  0  0
   -0.1333    1.0908    2.6779 H   0  0  0  0  0  0  0  0  0  0  0  0
   -0.7731    3.0691    2.1682 C   0  0  0  0  0  0  0  0  0  0  0  0
   -1.7924    3.3674    2.4357 H   0  0  0  0  0  0  0  0  0  0  0  0
   -0.0974    3.4020    2.9625 H   0  0  0  0  0  0  0  0  0  0  0  0
   -0.4884    3.5767    1.2406 H   0  0  0  0  0  0  0  0  0  0  0  0
  1  2  1  0  0  0  0
  2  3  1  0  0  0  0
  2  4  1  0  0  0  0
  2  5  1  0  0  0  0
  5  6  2  0  0  0  0
  5  7  1  0  0  0  0
  7  8  1  0  0  0  0
  7  9  1  0  0  0  0
  9 10  1  0  0  0  0
  9 11  1  0  0  0  0
  9 29  1  0  0  0  0
 11 12  1  0  0  0  0
 11 13  1  0  0  0  0
 11 14  1  0  0  0  0
 14 15  1  0  0  0  0
 14 16  1  0  0  0  0
 14 17  1  0  0  0  0
 17 18  1  0  0  0  0
 17 19  1  0  0  0  0
 17 20  1  0  0  0  0
 20 21  1  0  0  0  0
 20 22  2  0  0  0  0
 22 23  1  0  0  0  0
 22 26  1  0  0  0  0
 23 24  1  0  0  0  0
 23 25  1  0  0  0  0
 26 27  1  0  0  0  0
 26 28  1  0  0  0  0
 29 30  2  0  0  0  0
 29 31  1  0  0  0  0
 31 32  1  0  0  0  0
 31 33  1  0  0  0  0
 33 34  1  0  0  0  0
 33 35  1  0  0  0  0
 33 36  1  0  0  0  0
M  CHG  1  20   1
M  END
$$$$

  -OEChem-03222214013D

 36 35  0     1  0  0  0  0  0999 V2000
   -4.5038   -3.7356    2.2284 H   0  0  0  0  0  0  0  0  0  0  0  0
   -4.4157   -2.8070    1.6568 C   0  0  0  0  0  0  0  0  0  0  0  0
   -5.0234   -2.0386    2.1406 H   0  0  0  0  0  0  0  0  0  0  0  0
   -4.7936   -2.9811    0.6467 H   0  0  0  0  0  0  0  0  0  0  0  0
   -2.9658   -2.3652    1.6025 C   0  0  0  0  0  0  0  0  0  0  0  0
   -2.1132   -2.9900    2.2096 O   0  0  0  0  0  0  0  0  0  0  0  0
   -2.6038   -1.2632    0.8516 N   0  0  0  0  0  0  0  0  0  0  0  0
   -3.3652   -0.6988    0.4808 H   0  0  0  0  0  0  0  0  0  0  0  0
   -1.2690   -0.6400    0.9267 C   0  0  1  0  0  0  0  0  0  0  0  0
   -0.7366   -0.9622    1.8291 H   0  0  0  0  0  0  0  0  0  0  0  0
   -0.3967   -0.9506   -0.3129 C   0  0  0  0  0  0  0  0  0  0  0  0
    0.3546   -0.1612   -0.4289 H   0  0  0  0  0  0  0  0  0  0  0  0
    0.1557   -1.8750   -0.1123 H   0  0  0  0  0  0  0  0  0  0  0  0
   -1.1849   -1.1568   -1.6243 C   0  0  0  0  0  0  0  0  0  0  0  0
   -1.2530   -2.2234   -1.8646 H   0  0  0  0  0  0  0  0  0  0  0  0
   -2.2051   -0.7774   -1.5258 H   0  0  0  0  0  0  0  0  0  0  0  0
   -0.4965   -0.3887   -2.7539 C   0  0  0  0  0  0  0  0  0  0  0  0
   -0.0625    0.5378   -2.3618 H   0  0  0  0  0  0  0  0  0  0  0  0
    0.3280   -0.9906   -3.1527 H   0  0  0  0  0  0  0  0  0  0  0  0
   -1.4557   -0.0564   -3.8235 N   0  3  0  0  0  0  0  0  0  0  0  0
   -1.4773   -0.6754   -4.6330 H   0  0  0  0  0  0  0  0  0  0  0  0
   -2.2034    1.0125   -3.8128 C   0  0  0  0  0  0  0  0  0  0  0  0
   -2.2441    1.8826   -2.7445 N   0  0  0  0  0  0  0  0  0  0  0  0
   -1.8984    1.5509   -1.8381 H   0  0  0  0  0  0  0  0  0  0  0  0
   -2.9905    2.5721   -2.7148 H   0  0  0  0  0  0  0  0  0  0  0  0
   -2.9878    1.2929   -4.9060 N   0  0  0  0  0  0  0  0  0  0  0  0
   -2.8199    0.7801   -5.7693 H   0  0  0  0  0  0  0  0  0  0  0  0
   -3.3958    2.2230   -4.9778 H   0  0  0  0  0  0  0  0  0  0  0  0
   -1.4337    0.8920    0.9995 C   0  0  0  0  0  0  0  0  0  0  0  0
   -2.0953    1.4571    0.1274 O   0  0  0  0  0  0  0  0  0  0  0  0
   -0.7059    1.6446    1.9008 N   0  0  0  0  0  0  0  0  0  0  0  0
   -0.1833    1.1445    2.6177 H   0  0  0  0  0  0  0  0  0  0  0  0
   -0.7863    3.0992    1.9873 C   0  0  0  0  0  0  0  0  0  0  0  0
   -1.8110    3.4146    2.2114 H   0  0  0  0  0  0  0  0  0  0  0  0
   -0.1308    3.4684    2.7828 H   0  0  0  0  0  0  0  0  0  0  0  0
   -0.4734    3.5596    1.0442 H   0  0  0  0  0  0  0  0  0  0  0  0
  1  2  1  0  0  0  0
  2  3  1  0  0  0  0
  2  4  1  0  0  0  0
  2  5  1  0  0  0  0
  5  6  2  0  0  0  0
  5  7  1  0  0  0  0
  7  8  1  0  0  0  0
  7  9  1  0  0  0  0
  9 10  1  0  0  0  0
  9 11  1  0  0  0  0
  9 29  1  0  0  0  0
 11 12  1  0  0  0  0
 11 13  1  0  0  0  0
 11 14  1  0  0  0  0
 14 15  1  0  0  0  0
 14 16  1  0  0  0  0
 14 17  1  0  0  0  0
 17 18  1  0  0  0  0
 17 19  1  0  0  0  0
 17 20  1  0  0  0  0
 20 21  1  0  0  0  0
 20 22  2  0  0  0  0
 22 23  1  0  0  0  0
 22 26  1  0  0  0  0
 23 24  1  0  0  0  0
 23 25  1  0  0  0  0
 26 27  1  0  0  0  0
 26 28  1  0  0  0  0
 29 30  2  0  0  0  0
 29 31  1  0  0  0  0
 31 32  1  0  0  0  0
 31 33  1  0  0  0  0
 33 34  1  0  0  0  0
 33 35  1  0  0  0  0
 33 36  1  0  0  0  0
M  CHG  1  20   1
M  END
$$$$

  -OEChem-03222214013D

 36 35  0     1  0  0  0  0  0999 V2000
   -4.0144   -4.1206    2.3917 H   0  0  0  0  0  0  0  0  0  0  0  0
   -4.0818   -3.1368    1.9181 C   0  0  0  0  0  0  0  0  0  0  0  0
   -4.6322   -2.4656    2.5819 H   0  0  0  0  0  0  0  0  0  0  0  0
   -4.6264   -3.2358    0.9764 H   0  0  0  0  0  0  0  0  0  0  0  0
   -2.6917   -2.5887    1.6589 C   0  0  0  0  0  0  0  0  0  0  0  0
   -1.7104   -3.2745    1.8918 O   0  0  0  0  0  0  0  0  0  0  0  0
   -2.5330   -1.3251    1.1258 N   0  0  0  0  0  0  0  0  0  0  0  0
   -3.3703   -0.7457    1.0749 H   0  0  0  0  0  0  0  0  0  0  0  0
   -1.2407   -0.6165    1.0993 C   0  0  1  0  0  0  0  0  0  0  0  0
   -0.5447   -1.0693    1.8145 H   0  0  0  0  0  0  0  0  0  0  0  0
   -0.5917   -0.6512   -0.3036 C   0  0  0  0  0  0  0  0  0  0  0  0
    0.0602    0.2235   -0.4091 H   0  0  0  0  0  0  0  0  0  0  0  0
    0.0491   -1.5373   -0.3684 H   0  0  0  0  0  0  0  0  0  0  0  0
   -1.5987   -0.7044   -1.4677 C   0  0  0  0  0  0  0  0  0  0  0  0
   -1.8635   -1.7458   -1.6808 H   0  0  0  0  0  0  0  0  0  0  0  0
   -2.5133   -0.1683   -1.1909 H   0  0  0  0  0  0  0  0  0  0  0  0
   -1.0137   -0.0216   -2.7010 C   0  0  0  0  0  0  0  0  0  0  0  0
   -0.7520    1.0113   -2.4451 H   0  0  0  0  0  0  0  0  0  0  0  0
   -0.1020   -0.5488   -3.0039 H   0  0  0  0  0  0  0  0  0  0  0  0
   -2.0013   -0.0387   -3.7954 N   0  3  0  0  0  0  0  0  0  0  0  0
   -2.9134   -0.4436   -3.5887 H   0  0  0  0  0  0  0  0  0  0  0  0
   -1.7760    0.4567   -4.9775 C   0  0  0  0  0  0  0  0  0  0  0  0
   -0.5746    1.0470   -5.2974 N   0  0  0  0  0  0  0  0  0  0  0  0
    0.0768    1.2370   -4.5384 H   0  0  0  0  0  0  0  0  0  0  0  0
   -0.5245    1.6326   -6.1285 H   0  0  0  0  0  0  0  0  0  0  0  0
   -2.7584    0.3959   -5.9372 N   0  0  0  0  0  0  0  0  0  0  0  0
   -3.5750   -0.1873   -5.7653 H   0  0  0  0  0  0  0  0  0  0  0  0
   -2.5056    0.5900   -6.9045 H   0  0  0  0  0  0  0  0  0  0  0  0
   -1.4529    0.8442    1.5449 C   0  0  0  0  0  0  0  0  0  0  0  0
   -2.3832    1.4830    1.0644 O   0  0  0  0  0  0  0  0  0  0  0  0
   -0.5951    1.4472    2.4456 N   0  0  0  0  0  0  0  0  0  0  0  0
    0.1188    0.8660    2.8787 H   0  0  0  0  0  0  0  0  0  0  0  0
   -0.7918    2.8027    2.9491 C   0  0  0  0  0  0  0  0  0  0  0  0
   -1.7478    2.8804    3.4783 H   0  0  0  0  0  0  0  0  0  0  0  0
    0.0103    3.0691    3.6445 H   0  0  0  0  0  0  0  0  0  0  0  0
   -0.7859    3.5241    2.1251 H   0  0  0  0  0  0  0  0  0  0  0  0
  1  2  1  0  0  0  0
  2  3  1  0  0  0  0
  2  4  1  0  0  0  0
  2  5  1  0  0  0  0
  5  6  2  0  0  0  0
  5  7  1  0  0  0  0
  7  8  1  0  0  0  0
  7  9  1  0  0  0  0
  9 10  1  0  0  0  0
  9 11  1  0  0  0  0
  9 29  1  0  0  0  0
 11 12  1  0  0  0  0
 11 13  1  0  0  0  0
 11 14  1  0  0  0  0
 14 15  1  0  0  0  0
 14 16  1  0  0  0  0
 14 17  1  0  0  0  0
 17 18  1  0  0  0  0
 17 19  1  0  0  0  0
 17 20  1  0  0  0  0
 20 21  1  0  0  0  0
 20 22  2  0  0  0  0
 22 23  1  0  0  0  0
 22 26  1  0  0  0  0
 23 24  1  0  0  0  0
 23 25  1  0  0  0  0
 26 27  1  0  0  0  0
 26 28  1  0  0  0  0
 29 30  2  0  0  0  0
 29 31  1  0  0  0  0
 31 32  1  0  0  0  0
 31 33  1  0  0  0  0
 33 34  1  0  0  0  0
 33 35  1  0  0  0  0
 33 36  1  0  0  0  0
M  CHG  1  20   1
M  END
$$$$

  -OEChem-03222214013D

 36 35  0     1  0  0  0  0  0999 V2000
   -4.0221   -4.1161    2.3801 H   0  0  0  0  0  0  0  0  0  0  0  0
   -4.0876   -3.1250    1.9218 C   0  0  0  0  0  0  0  0  0  0  0  0
   -4.6189   -2.4577    2.6047 H   0  0  0  0  0  0  0  0  0  0  0  0
   -4.6498   -3.2045    0.9887 H   0  0  0  0  0  0  0  0  0  0  0  0
   -2.6974   -2.5859    1.6462 C   0  0  0  0  0  0  0  0  0  0  0  0
   -1.7173   -3.2797    1.8605 O   0  0  0  0  0  0  0  0  0  0  0  0
   -2.5371   -1.3200    1.1195 N   0  0  0  0  0  0  0  0  0  0  0  0
   -3.3718   -0.7356    1.0823 H   0  0  0  0  0  0  0  0  0  0  0  0
   -1.2437   -0.6140    1.0985 C   0  0  1  0  0  0  0  0  0  0  0  0
   -0.5515   -1.0713    1.8146 H   0  0  0  0  0  0  0  0  0  0  0  0
   -0.5895   -0.6464   -0.3020 C   0  0  0  0  0  0  0  0  0  0  0  0
    0.0624    0.2276   -0.4110 H   0  0  0  0  0  0  0  0  0  0  0  0
    0.0474   -1.5354   -0.3649 H   0  0  0  0  0  0  0  0  0  0  0  0
   -1.5965   -0.6959   -1.4628 C   0  0  0  0  0  0  0  0  0  0  0  0
   -2.0488   -1.6923   -1.5189 H   0  0  0  0  0  0  0  0  0  0  0  0
   -2.3933    0.0348   -1.2837 H   0  0  0  0  0  0  0  0  0  0  0  0
   -0.8952   -0.3553   -2.7749 C   0  0  0  0  0  0  0  0  0  0  0  0
   -0.4348    0.6348   -2.6858 H   0  0  0  0  0  0  0  0  0  0  0  0
   -0.1056   -1.0918   -2.9615 H   0  0  0  0  0  0  0  0  0  0  0  0
   -1.8713   -0.3608   -3.8796 N   0  3  0  0  0  0  0  0  0  0  0  0
   -2.8500   -0.5010   -3.6316 H   0  0  0  0  0  0  0  0  0  0  0  0
   -1.5504   -0.1666   -5.1261 C   0  0  0  0  0  0  0  0  0  0  0  0
   -0.2497    0.0629   -5.5133 N   0  0  0  0  0  0  0  0  0  0  0  0
    0.4379    0.2443   -4.7849 H   0  0  0  0  0  0  0  0  0  0  0  0
   -0.0755    0.4420   -6.4419 H   0  0  0  0  0  0  0  0  0  0  0  0
   -2.5292   -0.1872   -6.0908 N   0  0  0  0  0  0  0  0  0  0  0  0
   -3.4549   -0.5299   -5.8410 H   0  0  0  0  0  0  0  0  0  0  0  0
   -2.2459   -0.2473   -7.0672 H   0  0  0  0  0  0  0  0  0  0  0  0
   -1.4536    0.8450    1.5512 C   0  0  0  0  0  0  0  0  0  0  0  0
   -2.3917    1.4828    1.0853 O   0  0  0  0  0  0  0  0  0  0  0  0
   -0.5955    1.4414    2.4563 N   0  0  0  0  0  0  0  0  0  0  0  0
    0.1258    0.8610    2.8777 H   0  0  0  0  0  0  0  0  0  0  0  0
   -0.7905    2.7943    2.9672 C   0  0  0  0  0  0  0  0  0  0  0  0
   -1.7452    2.8697    3.4988 H   0  0  0  0  0  0  0  0  0  0  0  0
    0.0135    3.0574    3.6618 H   0  0  0  0  0  0  0  0  0  0  0  0
   -0.7870    3.5197    2.1467 H   0  0  0  0  0  0  0  0  0  0  0  0
  1  2  1  0  0  0  0
  2  3  1  0  0  0  0
  2  4  1  0  0  0  0
  2  5  1  0  0  0  0
  5  6  2  0  0  0  0
  5  7  1  0  0  0  0
  7  8  1  0  0  0  0
  7  9  1  0  0  0  0
  9 10  1  0  0  0  0
  9 11  1  0  0  0  0
  9 29  1  0  0  0  0
 11 12  1  0  0  0  0
 11 13  1  0  0  0  0
 11 14  1  0  0  0  0
 14 15  1  0  0  0  0
 14 16  1  0  0  0  0
 14 17  1  0  0  0  0
 17 18  1  0  0  0  0
 17 19  1  0  0  0  0
 17 20  1  0  0  0  0
 20 21  1  0  0  0  0
 20 22  2  0  0  0  0
 22 23  1  0  0  0  0
 22 26  1  0  0  0  0
 23 24  1  0  0  0  0
 23 25  1  0  0  0  0
 26 27  1  0  0  0  0
 26 28  1  0  0  0  0
 29 30  2  0  0  0  0
 29 31  1  0  0  0  0
 31 32  1  0  0  0  0
 31 33  1  0  0  0  0
 33 34  1  0  0  0  0
 33 35  1  0  0  0  0
 33 36  1  0  0  0  0
M  CHG  1  20   1
M  END
$$$$

  -OEChem-03222214013D

 36 35  0     1  0  0  0  0  0999 V2000
   -3.9964   -4.1241    2.3195 H   0  0  0  0  0  0  0  0  0  0  0  0
   -4.0720   -3.1270    1.8762 C   0  0  0  0  0  0  0  0  0  0  0  0
   -4.6050   -2.4744    2.5721 H   0  0  0  0  0  0  0  0  0  0  0  0
   -4.6388   -3.1983    0.9450 H   0  0  0  0  0  0  0  0  0  0  0  0
   -2.6871   -2.5729    1.6020 C   0  0  0  0  0  0  0  0  0  0  0  0
   -1.7007   -3.2615    1.8054 O   0  0  0  0  0  0  0  0  0  0  0  0
   -2.5384   -1.2967    1.0964 N   0  0  0  0  0  0  0  0  0  0  0  0
   -3.3791   -0.7207    1.0679 H   0  0  0  0  0  0  0  0  0  0  0  0
   -1.2537   -0.5775    1.0893 C   0  0  1  0  0  0  0  0  0  0  0  0
   -0.5648   -1.0425    1.8032 H   0  0  0  0  0  0  0  0  0  0  0  0
   -0.5937   -0.6188   -0.3047 C   0  0  0  0  0  0  0  0  0  0  0  0
    0.2402    0.0914   -0.3287 H   0  0  0  0  0  0  0  0  0  0  0  0
   -0.1760   -1.6212   -0.4482 H   0  0  0  0  0  0  0  0  0  0  0  0
   -1.5568   -0.3257   -1.4670 C   0  0  0  0  0  0  0  0  0  0  0  0
   -2.3699   -1.0590   -1.4777 H   0  0  0  0  0  0  0  0  0  0  0  0
   -1.9951    0.6699   -1.3390 H   0  0  0  0  0  0  0  0  0  0  0  0
   -0.7995   -0.3925   -2.7902 C   0  0  0  0  0  0  0  0  0  0  0  0
    0.0454    0.3042   -2.7550 H   0  0  0  0  0  0  0  0  0  0  0  0
   -0.4095   -1.4072   -2.9282 H   0  0  0  0  0  0  0  0  0  0  0  0
   -1.7035   -0.0362   -3.8986 N   0  3  0  0  0  0  0  0  0  0  0  0
   -2.6297    0.3070   -3.6467 H   0  0  0  0  0  0  0  0  0  0  0  0
   -1.3664   -0.1006   -5.1540 C   0  0  0  0  0  0  0  0  0  0  0  0
   -0.1161   -0.5196   -5.5485 N   0  0  0  0  0  0  0  0  0  0  0  0
    0.5971   -0.6310   -4.8307 H   0  0  0  0  0  0  0  0  0  0  0  0
    0.1873   -0.3252   -6.5005 H   0  0  0  0  0  0  0  0  0  0  0  0
   -2.2749    0.2619   -6.1196 N   0  0  0  0  0  0  0  0  0  0  0  0
   -3.2459    0.4053   -5.8489 H   0  0  0  0  0  0  0  0  0  0  0  0
   -2.0814    0.0122   -7.0878 H   0  0  0  0  0  0  0  0  0  0  0  0
   -1.4588    0.8756    1.5630 C   0  0  0  0  0  0  0  0  0  0  0  0
   -2.4112    1.5169    1.1328 O   0  0  0  0  0  0  0  0  0  0  0  0
   -0.5957    1.4550    2.4743 N   0  0  0  0  0  0  0  0  0  0  0  0
    0.1309    0.8677    2.8761 H   0  0  0  0  0  0  0  0  0  0  0  0
   -0.7969    2.7912    3.0256 C   0  0  0  0  0  0  0  0  0  0  0  0
   -1.7473    2.8437    3.5675 H   0  0  0  0  0  0  0  0  0  0  0  0
    0.0111    3.0403    3.7208 H   0  0  0  0  0  0  0  0  0  0  0  0
   -0.8061    3.5403    2.2267 H   0  0  0  0  0  0  0  0  0  0  0  0
  1  2  1  0  0  0  0
  2  3  1  0  0  0  0
  2  4  1  0  0  0  0
  2  5  1  0  0  0  0
  5  6  2  0  0  0  0
  5  7  1  0  0  0  0
  7  8  1  0  0  0  0
  7  9  1  0  0  0  0
  9 10  1  0  0  0  0
  9 11  1  0  0  0  0
  9 29  1  0  0  0  0
 11 12  1  0  0  0  0
 11 13  1  0  0  0  0
 11 14  1  0  0  0  0
 14 15  1  0  0  0  0
 14 16  1  0  0  0  0
 14 17  1  0  0  0  0
 17 18  1  0  0  0  0
 17 19  1  0  0  0  0
 17 20  1  0  0  0  0
 20 21  1  0  0  0  0
 20 22  2  0  0  0  0
 22 23  1  0  0  0  0
 22 26  1  0  0  0  0
 23 24  1  0  0  0  0
 23 25  1  0  0  0  0
 26 27  1  0  0  0  0
 26 28  1  0  0  0  0
 29 30  2  0  0  0  0
 29 31  1  0  0  0  0
 31 32  1  0  0  0  0
 31 33  1  0  0  0  0
 33 34  1  0  0  0  0
 33 35  1  0  0  0  0
 33 36  1  0  0  0  0
M  CHG  1  20   1
M  END
$$$$

  -OEChem-03222214013D

 36 35  0     1  0  0  0  0  0999 V2000
   -3.9652   -4.1563    2.3671 H   0  0  0  0  0  0  0  0  0  0  0  0
   -4.0488   -3.1391    1.9740 C   0  0  0  0  0  0  0  0  0  0  0  0
   -4.5294   -2.5109    2.7280 H   0  0  0  0  0  0  0  0  0  0  0  0
   -4.6697   -3.1593    1.0756 H   0  0  0  0  0  0  0  0  0  0  0  0
   -2.6727   -2.5925    1.6453 C   0  0  0  0  0  0  0  0  0  0  0  0
   -1.6808   -3.2799    1.8248 O   0  0  0  0  0  0  0  0  0  0  0  0
   -2.5381   -1.3225    1.1210 N   0  0  0  0  0  0  0  0  0  0  0  0
   -3.3807   -0.7481    1.1069 H   0  0  0  0  0  0  0  0  0  0  0  0
   -1.2576   -0.5962    1.0926 C   0  0  1  0  0  0  0  0  0  0  0  0
   -0.5595   -1.0474    1.8066 H   0  0  0  0  0  0  0  0  0  0  0  0
   -0.6030   -0.6309   -0.3045 C   0  0  0  0  0  0  0  0  0  0  0  0
    0.2348    0.0740   -0.3373 H   0  0  0  0  0  0  0  0  0  0  0  0
   -0.1884   -1.6361   -0.4378 H   0  0  0  0  0  0  0  0  0  0  0  0
   -1.5643   -0.3452   -1.4725 C   0  0  0  0  0  0  0  0  0  0  0  0
   -2.4960   -0.9059   -1.3544 H   0  0  0  0  0  0  0  0  0  0  0  0
   -1.8121    0.7221   -1.4859 H   0  0  0  0  0  0  0  0  0  0  0  0
   -0.9136   -0.7628   -2.7883 C   0  0  0  0  0  0  0  0  0  0  0  0
    0.0407   -0.2360   -2.8997 H   0  0  0  0  0  0  0  0  0  0  0  0
   -0.7163   -1.8402   -2.7621 H   0  0  0  0  0  0  0  0  0  0  0  0
   -1.8070   -0.4338   -3.9137 N   0  3  0  0  0  0  0  0  0  0  0  0
   -2.6736    0.0535   -3.6883 H   0  0  0  0  0  0  0  0  0  0  0  0
   -1.5359   -0.7160   -5.1553 C   0  0  0  0  0  0  0  0  0  0  0  0
   -0.3844   -1.3802   -5.5119 N   0  0  0  0  0  0  0  0  0  0  0  0
    0.1733   -1.7953   -4.7683 H   0  0  0  0  0  0  0  0  0  0  0  0
   -0.3239   -1.7902   -6.4417 H   0  0  0  0  0  0  0  0  0  0  0  0
   -2.4161   -0.3474   -6.1446 N   0  0  0  0  0  0  0  0  0  0  0  0
   -3.1734    0.2924   -5.9123 H   0  0  0  0  0  0  0  0  0  0  0  0
   -2.1011   -0.3825   -7.1124 H   0  0  0  0  0  0  0  0  0  0  0  0
   -1.4784    0.8594    1.5498 C   0  0  0  0  0  0  0  0  0  0  0  0
   -2.4411    1.4811    1.1133 O   0  0  0  0  0  0  0  0  0  0  0  0
   -0.6181    1.4627    2.4479 N   0  0  0  0  0  0  0  0  0  0  0  0
    0.1230    0.8931    2.8488 H   0  0  0  0  0  0  0  0  0  0  0  0
   -0.8284    2.8070    2.9753 C   0  0  0  0  0  0  0  0  0  0  0  0
   -1.7714    2.8589    3.5301 H   0  0  0  0  0  0  0  0  0  0  0  0
   -0.0137    3.0800    3.6534 H   0  0  0  0  0  0  0  0  0  0  0  0
   -0.8584    3.5395    2.1617 H   0  0  0  0  0  0  0  0  0  0  0  0
  1  2  1  0  0  0  0
  2  3  1  0  0  0  0
  2  4  1  0  0  0  0
  2  5  1  0  0  0  0
  5  6  2  0  0  0  0
  5  7  1  0  0  0  0
  7  8  1  0  0  0  0
  7  9  1  0  0  0  0
  9 10  1  0  0  0  0
  9 11  1  0  0  0  0
  9 29  1  0  0  0  0
 11 12  1  0  0  0  0
 11 13  1  0  0  0  0
 11 14  1  0  0  0  0
 14 15  1  0  0  0  0
 14 16  1  0  0  0  0
 14 17  1  0  0  0  0
 17 18  1  0  0  0  0
 17 19  1  0  0  0  0
 17 20  1  0  0  0  0
 20 21  1  0  0  0  0
 20 22  2  0  0  0  0
 22 23  1  0  0  0  0
 22 26  1  0  0  0  0
 23 24  1  0  0  0  0
 23 25  1  0  0  0  0
 26 27  1  0  0  0  0
 26 28  1  0  0  0  0
 29 30  2  0  0  0  0
 29 31  1  0  0  0  0
 31 32  1  0  0  0  0
 31 33  1  0  0  0  0
 33 34  1  0  0  0  0
 33 35  1  0  0  0  0
 33 36  1  0  0  0  0
M  CHG  1  20   1
M  END
$$$$

  -OEChem-03222214013D

 36 35  0     1  0  0  0  0  0999 V2000
   -3.9740   -4.1656    2.3804 H   0  0  0  0  0  0  0  0  0  0  0  0
   -4.0565   -3.1461    1.9927 C   0  0  0  0  0  0  0  0  0  0  0  0
   -4.5345   -2.5208    2.7506 H   0  0  0  0  0  0  0  0  0  0  0  0
   -4.6792   -3.1597    1.0954 H   0  0  0  0  0  0  0  0  0  0  0  0
   -2.6803   -2.6004    1.6639 C   0  0  0  0  0  0  0  0  0  0  0  0
   -1.6893   -3.2909    1.8368 O   0  0  0  0  0  0  0  0  0  0  0  0
   -2.5454   -1.3318    1.1367 N   0  0  0  0  0  0  0  0  0  0  0  0
   -3.3876   -0.7566    1.1247 H   0  0  0  0  0  0  0  0  0  0  0  0
   -1.2641   -0.6057    1.1069 C   0  0  1  0  0  0  0  0  0  0  0  0
   -0.5666   -1.0559    1.8219 H   0  0  0  0  0  0  0  0  0  0  0  0
   -0.6051   -0.6338   -0.2890 C   0  0  0  0  0  0  0  0  0  0  0  0
    0.2385    0.0643   -0.3182 H   0  0  0  0  0  0  0  0  0  0  0  0
   -0.1931   -1.6413   -0.4145 H   0  0  0  0  0  0  0  0  0  0  0  0
   -1.5540   -0.3445   -1.4701 C   0  0  0  0  0  0  0  0  0  0  0  0
   -2.5715   -0.6790   -1.2507 H   0  0  0  0  0  0  0  0  0  0  0  0
   -1.5938    0.7372   -1.6418 H   0  0  0  0  0  0  0  0  0  0  0  0
   -1.0733   -1.0780   -2.7202 C   0  0  0  0  0  0  0  0  0  0  0  0
   -0.0454   -0.7710   -2.9443 H   0  0  0  0  0  0  0  0  0  0  0  0
   -1.0803   -2.1562   -2.5250 H   0  0  0  0  0  0  0  0  0  0  0  0
   -1.9571   -0.7570   -3.8556 N   0  3  0  0  0  0  0  0  0  0  0  0
   -2.6904   -0.0688   -3.6893 H   0  0  0  0  0  0  0  0  0  0  0  0
   -1.8399   -1.2937   -5.0356 C   0  0  0  0  0  0  0  0  0  0  0  0
   -0.8739   -2.2345   -5.3107 N   0  0  0  0  0  0  0  0  0  0  0  0
   -0.3519   -2.6227   -4.5277 H   0  0  0  0  0  0  0  0  0  0  0  0
   -0.9658   -2.7988   -6.1529 H   0  0  0  0  0  0  0  0  0  0  0  0
   -2.6997   -0.9191   -6.0404 N   0  0  0  0  0  0  0  0  0  0  0  0
   -3.2960   -0.1064   -5.8961 H   0  0  0  0  0  0  0  0  0  0  0  0
   -2.4683   -1.1765   -6.9982 H   0  0  0  0  0  0  0  0  0  0  0  0
   -1.4843    0.8510    1.5604 C   0  0  0  0  0  0  0  0  0  0  0  0
   -2.4435    1.4728    1.1164 O   0  0  0  0  0  0  0  0  0  0  0  0
   -0.6239    1.4565    2.4571 N   0  0  0  0  0  0  0  0  0  0  0  0
    0.1212    0.8907    2.8559 H   0  0  0  0  0  0  0  0  0  0  0  0
   -0.8174    2.8131    2.9589 C   0  0  0  0  0  0  0  0  0  0  0  0
   -1.7581    2.8863    3.5150 H   0  0  0  0  0  0  0  0  0  0  0  0
    0.0024    3.0904    3.6290 H   0  0  0  0  0  0  0  0  0  0  0  0
   -0.8414    3.5296    2.1310 H   0  0  0  0  0  0  0  0  0  0  0  0
  1  2  1  0  0  0  0
  2  3  1  0  0  0  0
  2  4  1  0  0  0  0
  2  5  1  0  0  0  0
  5  6  2  0  0  0  0
  5  7  1  0  0  0  0
  7  8  1  0  0  0  0
  7  9  1  0  0  0  0
  9 10  1  0  0  0  0
  9 11  1  0  0  0  0
  9 29  1  0  0  0  0
 11 12  1  0  0  0  0
 11 13  1  0  0  0  0
 11 14  1  0  0  0  0
 14 15  1  0  0  0  0
 14 16  1  0  0  0  0
 14 17  1  0  0  0  0
 17 18  1  0  0  0  0
 17 19  1  0  0  0  0
 17 20  1  0  0  0  0
 20 21  1  0  0  0  0
 20 22  2  0  0  0  0
 22 23  1  0  0  0  0
 22 26  1  0  0  0  0
 23 24  1  0  0  0  0
 23 25  1  0  0  0  0
 26 27  1  0  0  0  0
 26 28  1  0  0  0  0
 29 30  2  0  0  0  0
 29 31  1  0  0  0  0
 31 32  1  0  0  0  0
 31 33  1  0  0  0  0
 33 34  1  0  0  0  0
 33 35  1  0  0  0  0
 33 36  1  0  0  0  0
M  CHG  1  20   1
M  END
$$$$

  -OEChem-03222214013D

 36 35  0     1  0  0  0  0  0999 V2000
   -3.9865   -4.1428    2.3869 H   0  0  0  0  0  0  0  0  0  0  0  0
   -4.0631   -3.1266    1.9893 C   0  0  0  0  0  0  0  0  0  0  0  0
   -4.5357   -2.4905    2.7420 H   0  0  0  0  0  0  0  0  0  0  0  0
   -4.6874   -3.1446    1.0930 H   0  0  0  0  0  0  0  0  0  0  0  0
   -2.6838   -2.5934    1.6528 C   0  0  0  0  0  0  0  0  0  0  0  0
   -1.6991   -3.2980    1.8029 O   0  0  0  0  0  0  0  0  0  0  0  0
   -2.5416   -1.3244    1.1301 N   0  0  0  0  0  0  0  0  0  0  0  0
   -3.3783   -0.7409    1.1366 H   0  0  0  0  0  0  0  0  0  0  0  0
   -1.2571   -0.6034    1.1114 C   0  0  1  0  0  0  0  0  0  0  0  0
   -0.5664   -1.0583    1.8303 H   0  0  0  0  0  0  0  0  0  0  0  0
   -0.5923   -0.6383   -0.2807 C   0  0  0  0  0  0  0  0  0  0  0  0
    0.2504    0.0614   -0.3064 H   0  0  0  0  0  0  0  0  0  0  0  0
   -0.1731   -1.6435   -0.3997 H   0  0  0  0  0  0  0  0  0  0  0  0
   -1.5357   -0.3462   -1.4681 C   0  0  0  0  0  0  0  0  0  0  0  0
   -2.5856   -0.3985   -1.1665 H   0  0  0  0  0  0  0  0  0  0  0  0
   -1.3553    0.6753   -1.8207 H   0  0  0  0  0  0  0  0  0  0  0  0
   -1.2946   -1.3484   -2.5949 C   0  0  0  0  0  0  0  0  0  0  0  0
   -0.2488   -1.2837   -2.9155 H   0  0  0  0  0  0  0  0  0  0  0  0
   -1.4808   -2.3595   -2.2156 H   0  0  0  0  0  0  0  0  0  0  0  0
   -2.1907   -1.0555   -3.7278 N   0  3  0  0  0  0  0  0  0  0  0  0
   -2.7859   -0.2319   -3.6460 H   0  0  0  0  0  0  0  0  0  0  0  0
   -2.2523   -1.7859   -4.8033 C   0  0  0  0  0  0  0  0  0  0  0  0
   -1.4800   -2.9148   -4.9579 N   0  0  0  0  0  0  0  0  0  0  0  0
   -0.9775   -3.2633   -4.1437 H   0  0  0  0  0  0  0  0  0  0  0  0
   -1.7217   -3.5769   -5.6922 H   0  0  0  0  0  0  0  0  0  0  0  0
   -3.1096   -1.4306   -5.8170 N   0  0  0  0  0  0  0  0  0  0  0  0
   -3.5456   -0.5109   -5.7884 H   0  0  0  0  0  0  0  0  0  0  0  0
   -2.9985   -1.8775   -6.7253 H   0  0  0  0  0  0  0  0  0  0  0  0
   -1.4758    0.8525    1.5673 C   0  0  0  0  0  0  0  0  0  0  0  0
   -2.4376    1.4728    1.1271 O   0  0  0  0  0  0  0  0  0  0  0  0
   -0.6213    1.4542    2.4719 N   0  0  0  0  0  0  0  0  0  0  0  0
    0.1248    0.8887    2.8694 H   0  0  0  0  0  0  0  0  0  0  0  0
   -0.8188    2.8087    2.9777 C   0  0  0  0  0  0  0  0  0  0  0  0
   -1.7689    2.8823    3.5175 H   0  0  0  0  0  0  0  0  0  0  0  0
   -0.0101    3.0793    3.6639 H   0  0  0  0  0  0  0  0  0  0  0  0
   -0.8257    3.5295    2.1531 H   0  0  0  0  0  0  0  0  0  0  0  0
  1  2  1  0  0  0  0
  2  3  1  0  0  0  0
  2  4  1  0  0  0  0
  2  5  1  0  0  0  0
  5  6  2  0  0  0  0
  5  7  1  0  0  0  0
  7  8  1  0  0  0  0
  7  9  1  0  0  0  0
  9 10  1  0  0  0  0
  9 11  1  0  0  0  0
  9 29  1  0  0  0  0
 11 12  1  0  0  0  0
 11 13  1  0  0  0  0
 11 14  1  0  0  0  0
 14 15  1  0  0  0  0
 14 16  1  0  0  0  0
 14 17  1  0  0  0  0
 17 18  1  0  0  0  0
 17 19  1  0  0  0  0
 17 20  1  0  0  0  0
 20 21  1  0  0  0  0
 20 22  2  0  0  0  0
 22 23  1  0  0  0  0
 22 26  1  0  0  0  0
 23 24  1  0  0  0  0
 23 25  1  0  0  0  0
 26 27  1  0  0  0  0
 26 28  1  0  0  0  0
 29 30  2  0  0  0  0
 29 31  1  0  0  0  0
 31 32  1  0  0  0  0
 31 33  1  0  0  0  0
 33 34  1  0  0  0  0
 33 35  1  0  0  0  0
 33 36  1  0  0  0  0
M  CHG  1  20   1
M  END
$$$$

  -OEChem-03222214013D

 36 35  0     1  0  0  0  0  0999 V2000
   -3.9876   -4.1253    2.3766 H   0  0  0  0  0  0  0  0  0  0  0  0
   -4.0608   -3.0991    2.0053 C   0  0  0  0  0  0  0  0  0  0  0  0
   -4.4889   -2.4724    2.7918 H   0  0  0  0  0  0  0  0  0  0  0  0
   -4.7226   -3.0846    1.1365 H   0  0  0  0  0  0  0  0  0  0  0  0
   -2.6868   -2.5830    1.6237 C   0  0  0  0  0  0  0  0  0  0  0  0
   -1.7083   -3.3045    1.7260 O   0  0  0  0  0  0  0  0  0  0  0  0
   -2.5432   -1.3112    1.1089 N   0  0  0  0  0  0  0  0  0  0  0  0
   -3.3758   -0.7226    1.1378 H   0  0  0  0  0  0  0  0  0  0  0  0
   -1.2574   -0.5917    1.1032 C   0  0  1  0  0  0  0  0  0  0  0  0
   -0.5751   -1.0505    1.8277 H   0  0  0  0  0  0  0  0  0  0  0  0
   -0.5834   -0.6420   -0.2823 C   0  0  0  0  0  0  0  0  0  0  0  0
    0.2442    0.0757   -0.3032 H   0  0  0  0  0  0  0  0  0  0  0  0
   -0.1395   -1.6372   -0.3974 H   0  0  0  0  0  0  0  0  0  0  0  0
   -1.5278   -0.3581   -1.4695 C   0  0  0  0  0  0  0  0  0  0  0  0
   -2.5391   -0.1183   -1.1266 H   0  0  0  0  0  0  0  0  0  0  0  0
   -1.1585    0.5204   -2.0091 H   0  0  0  0  0  0  0  0  0  0  0  0
   -1.5658   -1.5583   -2.4124 C   0  0  0  0  0  0  0  0  0  0  0  0
   -0.5524   -1.7601   -2.7772 H   0  0  0  0  0  0  0  0  0  0  0  0
   -1.9160   -2.4343   -1.8546 H   0  0  0  0  0  0  0  0  0  0  0  0
   -2.4679   -1.2816   -3.5443 N   0  3  0  0  0  0  0  0  0  0  0  0
   -2.9094   -0.3631   -3.5718 H   0  0  0  0  0  0  0  0  0  0  0  0
   -2.7256   -2.1446   -4.4836 C   0  0  0  0  0  0  0  0  0  0  0  0
   -2.1705   -3.4043   -4.4811 N   0  0  0  0  0  0  0  0  0  0  0  0
   -1.6723   -3.7033   -3.6448 H   0  0  0  0  0  0  0  0  0  0  0  0
   -2.5768   -4.1206   -5.0794 H   0  0  0  0  0  0  0  0  0  0  0  0
   -3.5759   -1.8003   -5.5073 N   0  0  0  0  0  0  0  0  0  0  0  0
   -3.8448   -0.8237   -5.6125 H   0  0  0  0  0  0  0  0  0  0  0  0
   -3.6076   -2.3957   -6.3330 H   0  0  0  0  0  0  0  0  0  0  0  0
   -1.4722    0.8631    1.5658 C   0  0  0  0  0  0  0  0  0  0  0  0
   -2.4446    1.4812    1.1464 O   0  0  0  0  0  0  0  0  0  0  0  0
   -0.6194    1.4551    2.4784 N   0  0  0  0  0  0  0  0  0  0  0  0
    0.1402    0.8929    2.8544 H   0  0  0  0  0  0  0  0  0  0  0  0
   -0.8247    2.7990    3.0085 C   0  0  0  0  0  0  0  0  0  0  0  0
   -1.7802    2.8609    3.5403 H   0  0  0  0  0  0  0  0  0  0  0  0
   -0.0236    3.0572    3.7081 H   0  0  0  0  0  0  0  0  0  0  0  0
   -0.8247    3.5359    2.1982 H   0  0  0  0  0  0  0  0  0  0  0  0
  1  2  1  0  0  0  0
  2  3  1  0  0  0  0
  2  4  1  0  0  0  0
  2  5  1  0  0  0  0
  5  6  2  0  0  0  0
  5  7  1  0  0  0  0
  7  8  1  0  0  0  0
  7  9  1  0  0  0  0
  9 10  1  0  0  0  0
  9 11  1  0  0  0  0
  9 29  1  0  0  0  0
 11 12  1  0  0  0  0
 11 13  1  0  0  0  0
 11 14  1  0  0  0  0
 14 15  1  0  0  0  0
 14 16  1  0  0  0  0
 14 17  1  0  0  0  0
 17 18  1  0  0  0  0
 17 19  1  0  0  0  0
 17 20  1  0  0  0  0
 20 21  1  0  0  0  0
 20 22  2  0  0  0  0
 22 23  1  0  0  0  0
 22 26  1  0  0  0  0
 23 24  1  0  0  0  0
 23 25  1  0  0  0  0
 26 27  1  0  0  0  0
 26 28  1  0  0  0  0
 29 30  2  0  0  0  0
 29 31  1  0  0  0  0
 31 32  1  0  0  0  0
 31 33  1  0  0  0  0
 33 34  1  0  0  0  0
 33 35  1  0  0  0  0
 33 36  1  0  0  0  0
M  CHG  1  20   1
M  END
$$$$

  -OEChem-03222214013D

 36 35  0     1  0  0  0  0  0999 V2000
   -4.0321   -4.0859    2.3415 H   0  0  0  0  0  0  0  0  0  0  0  0
   -4.0976   -3.0669    1.9499 C   0  0  0  0  0  0  0  0  0  0  0  0
   -4.5289   -2.4236    2.7211 H   0  0  0  0  0  0  0  0  0  0  0  0
   -4.7525   -3.0654    1.0758 H   0  0  0  0  0  0  0  0  0  0  0  0
   -2.7178   -2.5657    1.5699 C   0  0  0  0  0  0  0  0  0  0  0  0
   -1.7518   -3.3068    1.6433 O   0  0  0  0  0  0  0  0  0  0  0  0
   -2.5579   -1.2902    1.0700 N   0  0  0  0  0  0  0  0  0  0  0  0
   -3.3832   -0.6918    1.1141 H   0  0  0  0  0  0  0  0  0  0  0  0
   -1.2669   -0.5799    1.0937 C   0  0  1  0  0  0  0  0  0  0  0  0
   -0.6069   -1.0500    1.8313 H   0  0  0  0  0  0  0  0  0  0  0  0
   -0.5612   -0.6444   -0.2746 C   0  0  0  0  0  0  0  0  0  0  0  0
    0.2555    0.0857   -0.2773 H   0  0  0  0  0  0  0  0  0  0  0  0
   -0.1001   -1.6322   -0.3851 H   0  0  0  0  0  0  0  0  0  0  0  0
   -1.4853   -0.3613   -1.4741 C   0  0  0  0  0  0  0  0  0  0  0  0
   -2.4029    0.1442   -1.1546 H   0  0  0  0  0  0  0  0  0  0  0  0
   -0.9675    0.3108   -2.1667 H   0  0  0  0  0  0  0  0  0  0  0  0
   -1.8093   -1.6672   -2.1962 C   0  0  0  0  0  0  0  0  0  0  0  0
   -0.8770   -2.1231   -2.5474 H   0  0  0  0  0  0  0  0  0  0  0  0
   -2.2855   -2.3540   -1.4871 H   0  0  0  0  0  0  0  0  0  0  0  0
   -2.7081   -1.4085   -3.3344 N   0  3  0  0  0  0  0  0  0  0  0  0
   -2.9031   -0.4336   -3.5598 H   0  0  0  0  0  0  0  0  0  0  0  0
   -3.2377   -2.3529   -4.0562 C   0  0  0  0  0  0  0  0  0  0  0  0
   -2.9879   -3.6829   -3.8038 N   0  0  0  0  0  0  0  0  0  0  0  0
   -2.2496   -3.9096   -3.1396 H   0  0  0  0  0  0  0  0  0  0  0  0
   -3.2136   -4.3683   -4.5218 H   0  0  0  0  0  0  0  0  0  0  0  0
   -4.0671   -2.0240   -5.1013 N   0  0  0  0  0  0  0  0  0  0  0  0
   -4.3921   -1.0627   -5.1846 H   0  0  0  0  0  0  0  0  0  0  0  0
   -4.6332   -2.7585   -5.5220 H   0  0  0  0  0  0  0  0  0  0  0  0
   -1.4727    0.8736    1.5661 C   0  0  0  0  0  0  0  0  0  0  0  0
   -2.4433    1.4991    1.1540 O   0  0  0  0  0  0  0  0  0  0  0  0
   -0.6283    1.4480    2.4973 N   0  0  0  0  0  0  0  0  0  0  0  0
    0.1344    0.8828    2.8623 H   0  0  0  0  0  0  0  0  0  0  0  0
   -0.8274    2.7889    3.0376 C   0  0  0  0  0  0  0  0  0  0  0  0
   -1.7865    2.8536    3.5623 H   0  0  0  0  0  0  0  0  0  0  0  0
   -0.0299    3.0350    3.7457 H   0  0  0  0  0  0  0  0  0  0  0  0
   -0.8157    3.5329    2.2340 H   0  0  0  0  0  0  0  0  0  0  0  0
  1  2  1  0  0  0  0
  2  3  1  0  0  0  0
  2  4  1  0  0  0  0
  2  5  1  0  0  0  0
  5  6  2  0  0  0  0
  5  7  1  0  0  0  0
  7  8  1  0  0  0  0
  7  9  1  0  0  0  0
  9 10  1  0  0  0  0
  9 11  1  0  0  0  0
  9 29  1  0  0  0  0
 11 12  1  0  0  0  0
 11 13  1  0  0  0  0
 11 14  1  0  0  0  0
 14 15  1  0  0  0  0
 14 16  1  0  0  0  0
 14 17  1  0  0  0  0
 17 18  1  0  0  0  0
 17 19  1  0  0  0  0
 17 20  1  0  0  0  0
 20 21  1  0  0  0  0
 20 22  2  0  0  0  0
 22 23  1  0  0  0  0
 22 26  1  0  0  0  0
 23 24  1  0  0  0  0
 23 25  1  0  0  0  0
 26 27  1  0  0  0  0
 26 28  1  0  0  0  0
 29 30  2  0  0  0  0
 29 31  1  0  0  0  0
 31 32  1  0  0  0  0
 31 33  1  0  0  0  0
 33 34  1  0  0  0  0
 33 35  1  0  0  0  0
 33 36  1  0  0  0  0
M  CHG  1  20   1
M  END
$$$$

  -OEChem-03222214013D

 36 35  0     1  0  0  0  0  0999 V2000
   -4.0304   -4.0669    2.4450 H   0  0  0  0  0  0  0  0  0  0  0  0
   -4.0976   -3.0491    2.0499 C   0  0  0  0  0  0  0  0  0  0  0  0
   -4.5016   -2.3979    2.8291 H   0  0  0  0  0  0  0  0  0  0  0  0
   -4.7762   -3.0458    1.1944 H   0  0  0  0  0  0  0  0  0  0  0  0
   -2.7249   -2.5616    1.6291 C   0  0  0  0  0  0  0  0  0  0  0  0
   -1.7651   -3.3124    1.6726 O   0  0  0  0  0  0  0  0  0  0  0  0
   -2.5693   -1.2933    1.1111 N   0  0  0  0  0  0  0  0  0  0  0  0
   -3.3891   -0.6885    1.1716 H   0  0  0  0  0  0  0  0  0  0  0  0
   -1.2763   -0.5877    1.1043 C   0  0  1  0  0  0  0  0  0  0  0  0
   -0.6107   -1.0486    1.8431 H   0  0  0  0  0  0  0  0  0  0  0  0
   -0.5695   -0.6648   -0.2658 C   0  0  0  0  0  0  0  0  0  0  0  0
    0.2443    0.0685   -0.2728 H   0  0  0  0  0  0  0  0  0  0  0  0
   -0.1068   -1.6524   -0.3715 H   0  0  0  0  0  0  0  0  0  0  0  0
   -1.4827   -0.3974   -1.4754 C   0  0  0  0  0  0  0  0  0  0  0  0
   -2.2601    0.3289   -1.2149 H   0  0  0  0  0  0  0  0  0  0  0  0
   -0.8818    0.0370   -2.2815 H   0  0  0  0  0  0  0  0  0  0  0  0
   -2.1044   -1.7031   -1.9712 C   0  0  0  0  0  0  0  0  0  0  0  0
   -1.3040   -2.3812   -2.2873 H   0  0  0  0  0  0  0  0  0  0  0  0
   -2.6508   -2.1764   -1.1490 H   0  0  0  0  0  0  0  0  0  0  0  0
   -3.0193   -1.4357   -3.0944 N   0  3  0  0  0  0  0  0  0  0  0  0
   -3.0808   -0.4733   -3.4246 H   0  0  0  0  0  0  0  0  0  0  0  0
   -3.7344   -2.3586   -3.6689 C   0  0  0  0  0  0  0  0  0  0  0  0
   -3.6712   -3.6746   -3.2695 N   0  0  0  0  0  0  0  0  0  0  0  0
   -2.9322   -3.9368   -2.6190 H   0  0  0  0  0  0  0  0  0  0  0  0
   -4.0366   -4.3920   -3.8923 H   0  0  0  0  0  0  0  0  0  0  0  0
   -4.5745   -2.0199   -4.7028 N   0  0  0  0  0  0  0  0  0  0  0  0
   -4.7638   -1.0343   -4.8757 H   0  0  0  0  0  0  0  0  0  0  0  0
   -5.2683   -2.6999   -5.0083 H   0  0  0  0  0  0  0  0  0  0  0  0
   -1.4811    0.8707    1.5638 C   0  0  0  0  0  0  0  0  0  0  0  0
   -2.4684    1.4825    1.1703 O   0  0  0  0  0  0  0  0  0  0  0  0
   -0.6258    1.4595    2.4761 N   0  0  0  0  0  0  0  0  0  0  0  0
    0.1469    0.9031    2.8335 H   0  0  0  0  0  0  0  0  0  0  0  0
   -0.8348    2.7979    3.0194 C   0  0  0  0  0  0  0  0  0  0  0  0
   -1.7886    2.8511    3.5554 H   0  0  0  0  0  0  0  0  0  0  0  0
   -0.0323    3.0531    3.7186 H   0  0  0  0  0  0  0  0  0  0  0  0
   -0.8411    3.5424    2.2161 H   0  0  0  0  0  0  0  0  0  0  0  0
  1  2  1  0  0  0  0
  2  3  1  0  0  0  0
  2  4  1  0  0  0  0
  2  5  1  0  0  0  0
  5  6  2  0  0  0  0
  5  7  1  0  0  0  0
  7  8  1  0  0  0  0
  7  9  1  0  0  0  0
  9 10  1  0  0  0  0
  9 11  1  0  0  0  0
  9 29  1  0  0  0  0
 11 12  1  0  0  0  0
 11 13  1  0  0  0  0
 11 14  1  0  0  0  0
 14 15  1  0  0  0  0
 14 16  1  0  0  0  0
 14 17  1  0  0  0  0
 17 18  1  0  0  0  0
 17 19  1  0  0  0  0
 17 20  1  0  0  0  0
 20 21  1  0  0  0  0
 20 22  2  0  0  0  0
 22 23  1  0  0  0  0
 22 26  1  0  0  0  0
 23 24  1  0  0  0  0
 23 25  1  0  0  0  0
 26 27  1  0  0  0  0
 26 28  1  0  0  0  0
 29 30  2  0  0  0  0
 29 31  1  0  0  0  0
 31 32  1  0  0  0  0
 31 33  1  0  0  0  0
 33 34  1  0  0  0  0
 33 35  1  0  0  0  0
 33 36  1  0  0  0  0
M  CHG  1  20   1
M  END
$$$$

  -OEChem-03222214013D

 36 35  0     1  0  0  0  0  0999 V2000
   -3.9886   -4.0570    2.7584 H   0  0  0  0  0  0  0  0  0  0  0  0
   -4.0439   -2.9961    2.4981 C   0  0  0  0  0  0  0  0  0  0  0  0
   -4.2454   -2.4227    3.4065 H   0  0  0  0  0  0  0  0  0  0  0  0
   -4.8652   -2.8481    1.7937 H   0  0  0  0  0  0  0  0  0  0  0  0
   -2.7356   -2.5413    1.8806 C   0  0  0  0  0  0  0  0  0  0  0  0
   -1.7970   -3.3142    1.7866 O   0  0  0  0  0  0  0  0  0  0  0  0
   -2.6253   -1.2745    1.3466 N   0  0  0  0  0  0  0  0  0  0  0  0
   -3.4155   -0.6526    1.5215 H   0  0  0  0  0  0  0  0  0  0  0  0
   -1.3316   -0.5964    1.1653 C   0  0  1  0  0  0  0  0  0  0  0  0
   -0.5862   -1.0725    1.8128 H   0  0  0  0  0  0  0  0  0  0  0  0
   -0.7898   -0.6594   -0.2813 C   0  0  0  0  0  0  0  0  0  0  0  0
    0.0403    0.0508   -0.3670 H   0  0  0  0  0  0  0  0  0  0  0  0
   -0.3715   -1.6583   -0.4463 H   0  0  0  0  0  0  0  0  0  0  0  0
   -1.7984   -0.3641   -1.4073 C   0  0  0  0  0  0  0  0  0  0  0  0
   -2.3620    0.5457   -1.1742 H   0  0  0  0  0  0  0  0  0  0  0  0
   -1.2344   -0.1787   -2.3277 H   0  0  0  0  0  0  0  0  0  0  0  0
   -2.7578   -1.5318   -1.6422 C   0  0  0  0  0  0  0  0  0  0  0  0
   -2.1720   -2.4523   -1.7358 H   0  0  0  0  0  0  0  0  0  0  0  0
   -3.4298   -1.6377   -0.7857 H   0  0  0  0  0  0  0  0  0  0  0  0
   -3.5477   -1.2976   -2.8640 N   0  3  0  0  0  0  0  0  0  0  0  0
   -3.6638   -0.3293   -3.1606 H   0  0  0  0  0  0  0  0  0  0  0  0
   -4.1071   -2.2505   -3.5518 C   0  0  0  0  0  0  0  0  0  0  0  0
   -3.9905   -3.5730   -3.1873 N   0  0  0  0  0  0  0  0  0  0  0  0
   -3.3265   -3.8082   -2.4515 H   0  0  0  0  0  0  0  0  0  0  0  0
   -4.2264   -4.2916   -3.8683 H   0  0  0  0  0  0  0  0  0  0  0  0
   -4.8342   -1.9383   -4.6759 N   0  0  0  0  0  0  0  0  0  0  0  0
   -5.0676   -0.9634   -4.8541 H   0  0  0  0  0  0  0  0  0  0  0  0
   -5.4281   -2.6558   -5.0877 H   0  0  0  0  0  0  0  0  0  0  0  0
   -1.4503    0.8627    1.6507 C   0  0  0  0  0  0  0  0  0  0  0  0
   -2.4659    1.4945    1.3806 O   0  0  0  0  0  0  0  0  0  0  0  0
   -0.4725    1.4360    2.4420 N   0  0  0  0  0  0  0  0  0  0  0  0
    0.3291    0.8647    2.6979 H   0  0  0  0  0  0  0  0  0  0  0  0
   -0.5836    2.7780    3.0054 C   0  0  0  0  0  0  0  0  0  0  0  0
   -1.4460    2.8424    3.6776 H   0  0  0  0  0  0  0  0  0  0  0  0
    0.3173    3.0258    3.5755 H   0  0  0  0  0  0  0  0  0  0  0  0
   -0.7021    3.5213    2.2099 H   0  0  0  0  0  0  0  0  0  0  0  0
  1  2  1  0  0  0  0
  2  3  1  0  0  0  0
  2  4  1  0  0  0  0
  2  5  1  0  0  0  0
  5  6  2  0  0  0  0
  5  7  1  0  0  0  0
  7  8  1  0  0  0  0
  7  9  1  0  0  0  0
  9 10  1  0  0  0  0
  9 11  1  0  0  0  0
  9 29  1  0  0  0  0
 11 12  1  0  0  0  0
 11 13  1  0  0  0  0
 11 14  1  0  0  0  0
 14 15  1  0  0  0  0
 14 16  1  0  0  0  0
 14 17  1  0  0  0  0
 17 18  1  0  0  0  0
 17 19  1  0  0  0  0
 17 20  1  0  0  0  0
 20 21  1  0  0  0  0
 20 22  2  0  0  0  0
 22 23  1  0  0  0  0
 22 26  1  0  0  0  0
 23 24  1  0  0  0  0
 23 25  1  0  0  0  0
 26 27  1  0  0  0  0
 26 28  1  0  0  0  0
 29 30  2  0  0  0  0
 29 31  1  0  0  0  0
 31 32  1  0  0  0  0
 31 33  1  0  0  0  0
 33 34  1  0  0  0  0
 33 35  1  0  0  0  0
 33 36  1  0  0  0  0
M  CHG  1  20   1
M  END
$$$$

  -OEChem-03222214013D

 36 35  0     1  0  0  0  0  0999 V2000
   -3.9245   -4.0050    3.0605 H   0  0  0  0  0  0  0  0  0  0  0  0
   -4.0140   -2.9590    2.7525 C   0  0  0  0  0  0  0  0  0  0  0  0
   -4.1483   -2.3426    3.6450 H   0  0  0  0  0  0  0  0  0  0  0  0
   -4.8916   -2.8544    2.1106 H   0  0  0  0  0  0  0  0  0  0  0  0
   -2.7655   -2.5262    2.0080 C   0  0  0  0  0  0  0  0  0  0  0  0
   -1.8683   -3.3245    1.7951 O   0  0  0  0  0  0  0  0  0  0  0  0
   -2.6692   -1.2507    1.4914 N   0  0  0  0  0  0  0  0  0  0  0  0
   -3.4118   -0.6072    1.7684 H   0  0  0  0  0  0  0  0  0  0  0  0
   -1.3764   -0.6126    1.1924 C   0  0  1  0  0  0  0  0  0  0  0  0
   -0.5880   -1.1286    1.7520 H   0  0  0  0  0  0  0  0  0  0  0  0
   -0.9664   -0.6326   -0.2999 C   0  0  0  0  0  0  0  0  0  0  0  0
   -0.1059    0.0323   -0.4320 H   0  0  0  0  0  0  0  0  0  0  0  0
   -0.6202   -1.6468   -0.5261 H   0  0  0  0  0  0  0  0  0  0  0  0
   -2.0306   -0.2630   -1.3531 C   0  0  0  0  0  0  0  0  0  0  0  0
   -2.3542    0.7712   -1.1905 H   0  0  0  0  0  0  0  0  0  0  0  0
   -1.5542   -0.3092   -2.3384 H   0  0  0  0  0  0  0  0  0  0  0  0
   -3.2536   -1.1789   -1.3438 C   0  0  0  0  0  0  0  0  0  0  0  0
   -2.9174   -2.2147   -1.2366 H   0  0  0  0  0  0  0  0  0  0  0  0
   -3.8829   -0.9371   -0.4815 H   0  0  0  0  0  0  0  0  0  0  0  0
   -4.0299   -1.0004   -2.5845 N   0  3  0  0  0  0  0  0  0  0  0  0
   -4.2402   -0.0411   -2.8585 H   0  0  0  0  0  0  0  0  0  0  0  0
   -4.4741   -1.9846   -3.3123 C   0  0  0  0  0  0  0  0  0  0  0  0
   -4.2284   -3.3009   -2.9915 N   0  0  0  0  0  0  0  0  0  0  0  0
   -3.5493   -3.4935   -2.2574 H   0  0  0  0  0  0  0  0  0  0  0  0
   -4.3813   -4.0148   -3.7007 H   0  0  0  0  0  0  0  0  0  0  0  0
   -5.2109   -1.7113   -4.4399 N   0  0  0  0  0  0  0  0  0  0  0  0
   -5.5429   -0.7604   -4.5899 H   0  0  0  0  0  0  0  0  0  0  0  0
   -5.7236   -2.4721   -4.8821 H   0  0  0  0  0  0  0  0  0  0  0  0
   -1.4027    0.8357    1.7205 C   0  0  0  0  0  0  0  0  0  0  0  0
   -2.4174    1.5043    1.5554 O   0  0  0  0  0  0  0  0  0  0  0  0
   -0.3355    1.3630    2.4228 N   0  0  0  0  0  0  0  0  0  0  0  0
    0.4739    0.7674    2.5793 H   0  0  0  0  0  0  0  0  0  0  0  0
   -0.3410    2.7037    2.9997 C   0  0  0  0  0  0  0  0  0  0  0  0
   -1.1462    2.8020    3.7356 H   0  0  0  0  0  0  0  0  0  0  0  0
    0.6105    2.9048    3.5022 H   0  0  0  0  0  0  0  0  0  0  0  0
   -0.4837    3.4581    2.2187 H   0  0  0  0  0  0  0  0  0  0  0  0
  1  2  1  0  0  0  0
  2  3  1  0  0  0  0
  2  4  1  0  0  0  0
  2  5  1  0  0  0  0
  5  6  2  0  0  0  0
  5  7  1  0  0  0  0
  7  8  1  0  0  0  0
  7  9  1  0  0  0  0
  9 10  1  0  0  0  0
  9 11  1  0  0  0  0
  9 29  1  0  0  0  0
 11 12  1  0  0  0  0
 11 13  1  0  0  0  0
 11 14  1  0  0  0  0
 14 15  1  0  0  0  0
 14 16  1  0  0  0  0
 14 17  1  0  0  0  0
 17 18  1  0  0  0  0
 17 19  1  0  0  0  0
 17 20  1  0  0  0  0
 20 21  1  0  0  0  0
 20 22  2  0  0  0  0
 22 23  1  0  0  0  0
 22 26  1  0  0  0  0
 23 24  1  0  0  0  0
 23 25  1  0  0  0  0
 26 27  1  0  0  0  0
 26 28  1  0  0  0  0
 29 30  2  0  0  0  0
 29 31  1  0  0  0  0
 31 32  1  0  0  0  0
 31 33  1  0  0  0  0
 33 34  1  0  0  0  0
 33 35  1  0  0  0  0
 33 36  1  0  0  0  0
M  CHG  1  20   1
M  END
$$$$

  -OEChem-03222214013D

 36 35  0     1  0  0  0  0  0999 V2000
   -3.9227   -3.9768    3.2176 H   0  0  0  0  0  0  0  0  0  0  0  0
   -4.0024   -2.9222    2.9384 C   0  0  0  0  0  0  0  0  0  0  0  0
   -4.0464   -2.3219    3.8506 H   0  0  0  0  0  0  0  0  0  0  0  0
   -4.9235   -2.7763    2.3697 H   0  0  0  0  0  0  0  0  0  0  0  0
   -2.8030   -2.5122    2.1059 C   0  0  0  0  0  0  0  0  0  0  0  0
   -1.9487   -3.3313    1.8116 O   0  0  0  0  0  0  0  0  0  0  0  0
   -2.7056   -1.2289    1.6086 N   0  0  0  0  0  0  0  0  0  0  0  0
   -3.3959   -0.5664    1.9640 H   0  0  0  0  0  0  0  0  0  0  0  0
   -1.4204   -0.6337    1.2041 C   0  0  1  0  0  0  0  0  0  0  0  0
   -0.6058   -1.1927    1.6786 H   0  0  0  0  0  0  0  0  0  0  0  0
   -1.1406   -0.6196   -0.3199 C   0  0  0  0  0  0  0  0  0  0  0  0
   -0.2536   -0.0043   -0.5075 H   0  0  0  0  0  0  0  0  0  0  0  0
   -0.8741   -1.6471   -0.5897 H   0  0  0  0  0  0  0  0  0  0  0  0
   -2.2526   -0.1777   -1.2983 C   0  0  0  0  0  0  0  0  0  0  0  0
   -2.3359    0.9140   -1.2552 H   0  0  0  0  0  0  0  0  0  0  0  0
   -1.9305   -0.4409   -2.3111 H   0  0  0  0  0  0  0  0  0  0  0  0
   -3.6369   -0.7660   -1.0316 C   0  0  0  0  0  0  0  0  0  0  0  0
   -3.5426   -1.8265   -0.7770 H   0  0  0  0  0  0  0  0  0  0  0  0
   -4.0779   -0.2592   -0.1661 H   0  0  0  0  0  0  0  0  0  0  0  0
   -4.5097   -0.5902   -2.2068 N   0  3  0  0  0  0  0  0  0  0  0  0
   -4.9212    0.3334   -2.3384 H   0  0  0  0  0  0  0  0  0  0  0  0
   -4.7774   -1.5382   -3.0587 C   0  0  0  0  0  0  0  0  0  0  0  0
   -4.2311   -2.7970   -2.9435 N   0  0  0  0  0  0  0  0  0  0  0  0
   -3.4830   -2.9307   -2.2650 H   0  0  0  0  0  0  0  0  0  0  0  0
   -4.2663   -3.4217   -3.7464 H   0  0  0  0  0  0  0  0  0  0  0  0
   -5.6218   -1.2836   -4.1127 N   0  0  0  0  0  0  0  0  0  0  0  0
   -6.1650   -0.4223   -4.1062 H   0  0  0  0  0  0  0  0  0  0  0  0
   -5.9856   -2.0727   -4.6439 H   0  0  0  0  0  0  0  0  0  0  0  0
   -1.3416    0.8006    1.7619 C   0  0  0  0  0  0  0  0  0  0  0  0
   -2.3339    1.5170    1.6835 O   0  0  0  0  0  0  0  0  0  0  0  0
   -0.1943    1.2691    2.3739 N   0  0  0  0  0  0  0  0  0  0  0  0
    0.5914    0.6301    2.4670 H   0  0  0  0  0  0  0  0  0  0  0  0
   -0.0885    2.5989    2.9653 C   0  0  0  0  0  0  0  0  0  0  0  0
   -0.7912    2.7055    3.7986 H   0  0  0  0  0  0  0  0  0  0  0  0
    0.9245    2.7657    3.3450 H   0  0  0  0  0  0  0  0  0  0  0  0
   -0.3072    3.3708    2.2195 H   0  0  0  0  0  0  0  0  0  0  0  0
  1  2  1  0  0  0  0
  2  3  1  0  0  0  0
  2  4  1  0  0  0  0
  2  5  1  0  0  0  0
  5  6  2  0  0  0  0
  5  7  1  0  0  0  0
  7  8  1  0  0  0  0
  7  9  1  0  0  0  0
  9 10  1  0  0  0  0
  9 11  1  0  0  0  0
  9 29  1  0  0  0  0
 11 12  1  0  0  0  0
 11 13  1  0  0  0  0
 11 14  1  0  0  0  0
 14 15  1  0  0  0  0
 14 16  1  0  0  0  0
 14 17  1  0  0  0  0
 17 18  1  0  0  0  0
 17 19  1  0  0  0  0
 17 20  1  0  0  0  0
 20 21  1  0  0  0  0
 20 22  2  0  0  0  0
 22 23  1  0  0  0  0
 22 26  1  0  0  0  0
 23 24  1  0  0  0  0
 23 25  1  0  0  0  0
 26 27  1  0  0  0  0
 26 28  1  0  0  0  0
 29 30  2  0  0  0  0
 29 31  1  0  0  0  0
 31 32  1  0  0  0  0
 31 33  1  0  0  0  0
 33 34  1  0  0  0  0
 33 35  1  0  0  0  0
 33 36  1  0  0  0  0
M  CHG  1  20   1
M  END
$$$$

  -OEChem-03222214013D

 36 35  0     1  0  0  0  0  0999 V2000
   -3.8076   -4.1308    1.9104 H   0  0  0  0  0  0  0  0  0  0  0  0
   -3.1396   -3.7984    2.7080 C   0  0  0  0  0  0  0  0  0  0  0  0
   -2.7187   -4.6784    3.2032 H   0  0  0  0  0  0  0  0  0  0  0  0
   -3.7114   -3.2249    3.4414 H   0  0  0  0  0  0  0  0  0  0  0  0
   -2.0259   -2.9443    2.1336 C   0  0  0  0  0  0  0  0  0  0  0  0
   -0.8640   -3.2865    2.2680 O   0  0  0  0  0  0  0  0  0  0  0  0
   -2.3249   -1.7802    1.4508 N   0  0  0  0  0  0  0  0  0  0  0  0
   -3.2868   -1.4587    1.5352 H   0  0  0  0  0  0  0  0  0  0  0  0
   -1.3077   -0.7515    1.1682 C   0  0  1  0  0  0  0  0  0  0  0  0
   -0.4402   -0.8861    1.8247 H   0  0  0  0  0  0  0  0  0  0  0  0
   -0.8038   -0.6864   -0.2975 C   0  0  0  0  0  0  0  0  0  0  0  0
   -0.1696    0.1993   -0.4155 H   0  0  0  0  0  0  0  0  0  0  0  0
   -0.1480   -1.5559   -0.4177 H   0  0  0  0  0  0  0  0  0  0  0  0
   -1.8028   -0.7333   -1.4806 C   0  0  0  0  0  0  0  0  0  0  0  0
   -2.0616    0.3072   -1.7029 H   0  0  0  0  0  0  0  0  0  0  0  0
   -1.2821   -1.1276   -2.3601 H   0  0  0  0  0  0  0  0  0  0  0  0
   -3.1096   -1.5051   -1.2932 C   0  0  0  0  0  0  0  0  0  0  0  0
   -2.9065   -2.5817   -1.3009 H   0  0  0  0  0  0  0  0  0  0  0  0
   -3.5596   -1.2562   -0.3304 H   0  0  0  0  0  0  0  0  0  0  0  0
   -4.0634   -1.1425   -2.3562 N   0  3  0  0  0  0  0  0  0  0  0  0
   -4.0299   -1.6857   -3.2179 H   0  0  0  0  0  0  0  0  0  0  0  0
   -4.9219   -0.1677   -2.2400 C   0  0  0  0  0  0  0  0  0  0  0  0
   -4.9956    0.6237   -1.1133 N   0  0  0  0  0  0  0  0  0  0  0  0
   -4.2364    0.5686   -0.4249 H   0  0  0  0  0  0  0  0  0  0  0  0
   -5.5126    1.4978   -1.1626 H   0  0  0  0  0  0  0  0  0  0  0  0
   -5.7887    0.0916   -3.2746 N   0  0  0  0  0  0  0  0  0  0  0  0
   -5.8708   -0.5898   -4.0265 H   0  0  0  0  0  0  0  0  0  0  0  0
   -6.5798    0.7085   -3.0995 H   0  0  0  0  0  0  0  0  0  0  0  0
   -1.9353    0.6185    1.4965 C   0  0  0  0  0  0  0  0  0  0  0  0
   -3.0625    0.8702    1.0643 O   0  0  0  0  0  0  0  0  0  0  0  0
   -1.2373    1.5728    2.2104 N   0  0  0  0  0  0  0  0  0  0  0  0
   -0.3256    1.3122    2.5816 H   0  0  0  0  0  0  0  0  0  0  0  0
   -1.7868    2.8764    2.5677 C   0  0  0  0  0  0  0  0  0  0  0  0
   -2.6371    2.7616    3.2480 H   0  0  0  0  0  0  0  0  0  0  0  0
   -1.0248    3.4836    3.0668 H   0  0  0  0  0  0  0  0  0  0  0  0
   -2.1202    3.4140    1.6739 H   0  0  0  0  0  0  0  0  0  0  0  0
  1  2  1  0  0  0  0
  2  3  1  0  0  0  0
  2  4  1  0  0  0  0
  2  5  1  0  0  0  0
  5  6  2  0  0  0  0
  5  7  1  0  0  0  0
  7  8  1  0  0  0  0
  7  9  1  0  0  0  0
  9 10  1  0  0  0  0
  9 11  1  0  0  0  0
  9 29  1  0  0  0  0
 11 12  1  0  0  0  0
 11 13  1  0  0  0  0
 11 14  1  0  0  0  0
 14 15  1  0  0  0  0
 14 16  1  0  0  0  0
 14 17  1  0  0  0  0
 17 18  1  0  0  0  0
 17 19  1  0  0  0  0
 17 20  1  0  0  0  0
 20 21  1  0  0  0  0
 20 22  2  0  0  0  0
 22 23  1  0  0  0  0
 22 26  1  0  0  0  0
 23 24  1  0  0  0  0
 23 25  1  0  0  0  0
 26 27  1  0  0  0  0
 26 28  1  0  0  0  0
 29 30  2  0  0  0  0
 29 31  1  0  0  0  0
 31 32  1  0  0  0  0
 31 33  1  0  0  0  0
 33 34  1  0  0  0  0
 33 35  1  0  0  0  0
 33 36  1  0  0  0  0
M  CHG  1  20   1
M  END
$$$$

  -OEChem-03222214013D

 36 35  0     1  0  0  0  0  0999 V2000
   -2.7102   -4.7803    2.9279 H   0  0  0  0  0  0  0  0  0  0  0  0
   -3.1327   -3.8366    2.5700 C   0  0  0  0  0  0  0  0  0  0  0  0
   -3.6384   -3.3414    3.4022 H   0  0  0  0  0  0  0  0  0  0  0  0
   -3.8606   -4.0550    1.7853 H   0  0  0  0  0  0  0  0  0  0  0  0
   -2.0313   -2.9456    2.0280 C   0  0  0  0  0  0  0  0  0  0  0  0
   -0.8673   -3.2985    2.1054 O   0  0  0  0  0  0  0  0  0  0  0  0
   -2.3460   -1.7397    1.4298 N   0  0  0  0  0  0  0  0  0  0  0  0
   -3.3053   -1.4248    1.5562 H   0  0  0  0  0  0  0  0  0  0  0  0
   -1.3354   -0.7007    1.1575 C   0  0  1  0  0  0  0  0  0  0  0  0
   -0.4467   -0.8837    1.7726 H   0  0  0  0  0  0  0  0  0  0  0  0
   -0.8757   -0.6139   -0.3211 C   0  0  0  0  0  0  0  0  0  0  0  0
   -0.2438    0.2732   -0.4412 H   0  0  0  0  0  0  0  0  0  0  0  0
   -0.2213   -1.4797   -0.4721 H   0  0  0  0  0  0  0  0  0  0  0  0
   -1.9031   -0.6443   -1.4843 C   0  0  0  0  0  0  0  0  0  0  0  0
   -1.9676    0.3817   -1.8625 H   0  0  0  0  0  0  0  0  0  0  0  0
   -1.4994   -1.2586   -2.2964 H   0  0  0  0  0  0  0  0  0  0  0  0
   -3.3272   -1.1092   -1.1701 C   0  0  0  0  0  0  0  0  0  0  0  0
   -3.3478   -2.2031   -1.1107 H   0  0  0  0  0  0  0  0  0  0  0  0
   -3.6415   -0.7216   -0.1993 H   0  0  0  0  0  0  0  0  0  0  0  0
   -4.2645   -0.6286   -2.2009 N   0  3  0  0  0  0  0  0  0  0  0  0
   -4.3017   -1.1499   -3.0758 H   0  0  0  0  0  0  0  0  0  0  0  0
   -5.0217    0.4213   -2.0445 C   0  0  0  0  0  0  0  0  0  0  0  0
   -5.0001    1.1861   -0.8985 N   0  0  0  0  0  0  0  0  0  0  0  0
   -4.2520    1.0240   -0.2147 H   0  0  0  0  0  0  0  0  0  0  0  0
   -5.4219    2.1107   -0.9169 H   0  0  0  0  0  0  0  0  0  0  0  0
   -5.8763    0.7904   -3.0557 N   0  0  0  0  0  0  0  0  0  0  0  0
   -6.0419    0.1369   -3.8183 H   0  0  0  0  0  0  0  0  0  0  0  0
   -6.6014    1.4744   -2.8479 H   0  0  0  0  0  0  0  0  0  0  0  0
   -1.8914    0.6753    1.5799 C   0  0  0  0  0  0  0  0  0  0  0  0
   -3.0236    0.9998    1.2199 O   0  0  0  0  0  0  0  0  0  0  0  0
   -1.1182    1.5669    2.2980 N   0  0  0  0  0  0  0  0  0  0  0  0
   -0.1988    1.2546    2.6050 H   0  0  0  0  0  0  0  0  0  0  0  0
   -1.5919    2.8745    2.7401 C   0  0  0  0  0  0  0  0  0  0  0  0
   -2.4722    2.7679    3.3827 H   0  0  0  0  0  0  0  0  0  0  0  0
   -0.8105    3.3869    3.3104 H   0  0  0  0  0  0  0  0  0  0  0  0
   -1.8552    3.5001    1.8808 H   0  0  0  0  0  0  0  0  0  0  0  0
  1  2  1  0  0  0  0
  2  3  1  0  0  0  0
  2  4  1  0  0  0  0
  2  5  1  0  0  0  0
  5  6  2  0  0  0  0
  5  7  1  0  0  0  0
  7  8  1  0  0  0  0
  7  9  1  0  0  0  0
  9 10  1  0  0  0  0
  9 11  1  0  0  0  0
  9 29  1  0  0  0  0
 11 12  1  0  0  0  0
 11 13  1  0  0  0  0
 11 14  1  0  0  0  0
 14 15  1  0  0  0  0
 14 16  1  0  0  0  0
 14 17  1  0  0  0  0
 17 18  1  0  0  0  0
 17 19  1  0  0  0  0
 17 20  1  0  0  0  0
 20 21  1  0  0  0  0
 20 22  2  0  0  0  0
 22 23  1  0  0  0  0
 22 26  1  0  0  0  0
 23 24  1  0  0  0  0
 23 25  1  0  0  0  0
 26 27  1  0  0  0  0
 26 28  1  0  0  0  0
 29 30  2  0  0  0  0
 29 31  1  0  0  0  0
 31 32  1  0  0  0  0
 31 33  1  0  0  0  0
 33 34  1  0  0  0  0
 33 35  1  0  0  0  0
 33 36  1  0  0  0  0
M  CHG  1  20   1
M  END
$$$$

  -OEChem-03222214013D

 36 35  0     1  0  0  0  0  0999 V2000
   -2.7486   -4.7583    2.8084 H   0  0  0  0  0  0  0  0  0  0  0  0
   -3.1756   -3.8011    2.4947 C   0  0  0  0  0  0  0  0  0  0  0  0
   -3.6579   -3.3337    3.3566 H   0  0  0  0  0  0  0  0  0  0  0  0
   -3.9244   -3.9888    1.7216 H   0  0  0  0  0  0  0  0  0  0  0  0
   -2.0831   -2.8969    1.9568 C   0  0  0  0  0  0  0  0  0  0  0  0
   -0.9202   -3.2608    1.9875 O   0  0  0  0  0  0  0  0  0  0  0  0
   -2.4038   -1.6637    1.4209 N   0  0  0  0  0  0  0  0  0  0  0  0
   -3.3600   -1.3526    1.5751 H   0  0  0  0  0  0  0  0  0  0  0  0
   -1.3948   -0.6219    1.1545 C   0  0  1  0  0  0  0  0  0  0  0  0
   -0.5008   -0.8431    1.7489 H   0  0  0  0  0  0  0  0  0  0  0  0
   -0.9417   -0.5664   -0.3263 C   0  0  0  0  0  0  0  0  0  0  0  0
   -0.3304    0.3328   -0.4617 H   0  0  0  0  0  0  0  0  0  0  0  0
   -0.2676   -1.4186   -0.4684 H   0  0  0  0  0  0  0  0  0  0  0  0
   -1.9748   -0.6274   -1.4842 C   0  0  0  0  0  0  0  0  0  0  0  0
   -1.8413    0.2895   -2.0686 H   0  0  0  0  0  0  0  0  0  0  0  0
   -1.7178   -1.4641   -2.1430 H   0  0  0  0  0  0  0  0  0  0  0  0
   -3.4565   -0.7462   -1.1104 C   0  0  0  0  0  0  0  0  0  0  0  0
   -3.7116   -1.8061   -1.0007 H   0  0  0  0  0  0  0  0  0  0  0  0
   -3.6442   -0.2724   -0.1484 H   0  0  0  0  0  0  0  0  0  0  0  0
   -4.3081   -0.1212   -2.1386 N   0  3  0  0  0  0  0  0  0  0  0  0
   -4.3780   -0.5995   -3.0358 H   0  0  0  0  0  0  0  0  0  0  0  0
   -4.9547    0.9959   -1.9547 C   0  0  0  0  0  0  0  0  0  0  0  0
   -4.8901    1.7064   -0.7765 N   0  0  0  0  0  0  0  0  0  0  0  0
   -4.1872    1.4365   -0.0791 H   0  0  0  0  0  0  0  0  0  0  0  0
   -5.2162    2.6691   -0.7631 H   0  0  0  0  0  0  0  0  0  0  0  0
   -5.7356    1.4933   -2.9703 N   0  0  0  0  0  0  0  0  0  0  0  0
   -5.9447    0.8919   -3.7643 H   0  0  0  0  0  0  0  0  0  0  0  0
   -6.3927    2.2395   -2.7511 H   0  0  0  0  0  0  0  0  0  0  0  0
   -1.8626    0.7702    1.6321 C   0  0  0  0  0  0  0  0  0  0  0  0
   -2.9871    1.1747    1.3413 O   0  0  0  0  0  0  0  0  0  0  0  0
   -1.0055    1.5960    2.3341 N   0  0  0  0  0  0  0  0  0  0  0  0
   -0.0952    1.2203    2.5935 H   0  0  0  0  0  0  0  0  0  0  0  0
   -1.3768    2.9185    2.8264 C   0  0  0  0  0  0  0  0  0  0  0  0
   -2.2212    2.8484    3.5205 H   0  0  0  0  0  0  0  0  0  0  0  0
   -0.5339    3.3753    3.3551 H   0  0  0  0  0  0  0  0  0  0  0  0
   -1.6559    3.5740    1.9948 H   0  0  0  0  0  0  0  0  0  0  0  0
  1  2  1  0  0  0  0
  2  3  1  0  0  0  0
  2  4  1  0  0  0  0
  2  5  1  0  0  0  0
  5  6  2  0  0  0  0
  5  7  1  0  0  0  0
  7  8  1  0  0  0  0
  7  9  1  0  0  0  0
  9 10  1  0  0  0  0
  9 11  1  0  0  0  0
  9 29  1  0  0  0  0
 11 12  1  0  0  0  0
 11 13  1  0  0  0  0
 11 14  1  0  0  0  0
 14 15  1  0  0  0  0
 14 16  1  0  0  0  0
 14 17  1  0  0  0  0
 17 18  1  0  0  0  0
 17 19  1  0  0  0  0
 17 20  1  0  0  0  0
 20 21  1  0  0  0  0
 20 22  2  0  0  0  0
 22 23  1  0  0  0  0
 22 26  1  0  0  0  0
 23 24  1  0  0  0  0
 23 25  1  0  0  0  0
 26 27  1  0  0  0  0
 26 28  1  0  0  0  0
 29 30  2  0  0  0  0
 29 31  1  0  0  0  0
 31 32  1  0  0  0  0
 31 33  1  0  0  0  0
 33 34  1  0  0  0  0
 33 35  1  0  0  0  0
 33 36  1  0  0  0  0
M  CHG  1  20   1
M  END
$$$$

  -OEChem-03222214013D

 36 35  0     1  0  0  0  0  0999 V2000
   -2.8444   -4.6806    2.7792 H   0  0  0  0  0  0  0  0  0  0  0  0
   -3.2678   -3.7288    2.4452 C   0  0  0  0  0  0  0  0  0  0  0  0
   -3.7634   -3.2496    3.2929 H   0  0  0  0  0  0  0  0  0  0  0  0
   -4.0043   -3.9279    1.6632 H   0  0  0  0  0  0  0  0  0  0  0  0
   -2.1690   -2.8308    1.9101 C   0  0  0  0  0  0  0  0  0  0  0  0
   -1.0119   -3.2146    1.9138 O   0  0  0  0  0  0  0  0  0  0  0  0
   -2.4779   -1.5807    1.4066 N   0  0  0  0  0  0  0  0  0  0  0  0
   -3.4291   -1.2603    1.5733 H   0  0  0  0  0  0  0  0  0  0  0  0
   -1.4584   -0.5516    1.1339 C   0  0  1  0  0  0  0  0  0  0  0  0
   -0.5699   -0.8003    1.7254 H   0  0  0  0  0  0  0  0  0  0  0  0
   -0.9955   -0.5644   -0.3433 C   0  0  0  0  0  0  0  0  0  0  0  0
   -0.4035    0.3424   -0.5087 H   0  0  0  0  0  0  0  0  0  0  0  0
   -0.3050   -1.4080   -0.4570 H   0  0  0  0  0  0  0  0  0  0  0  0
   -2.0311   -0.6708   -1.4940 C   0  0  0  0  0  0  0  0  0  0  0  0
   -1.7099    0.0157   -2.2850 H   0  0  0  0  0  0  0  0  0  0  0  0
   -1.9703   -1.6821   -1.9108 H   0  0  0  0  0  0  0  0  0  0  0  0
   -3.5037   -0.4095   -1.1540 C   0  0  0  0  0  0  0  0  0  0  0  0
   -4.0229   -1.3710   -1.0765 H   0  0  0  0  0  0  0  0  0  0  0  0
   -3.5893    0.0722   -0.1849 H   0  0  0  0  0  0  0  0  0  0  0  0
   -4.1445    0.4230   -2.1895 N   0  3  0  0  0  0  0  0  0  0  0  0
   -4.1687    0.0442   -3.1351 H   0  0  0  0  0  0  0  0  0  0  0  0
   -4.6779    1.5896   -1.9575 C   0  0  0  0  0  0  0  0  0  0  0  0
   -4.6828    2.1718   -0.7102 N   0  0  0  0  0  0  0  0  0  0  0  0
   -4.0927    1.7597    0.0208 H   0  0  0  0  0  0  0  0  0  0  0  0
   -4.8942    3.1629   -0.6322 H   0  0  0  0  0  0  0  0  0  0  0  0
   -5.2658    2.2750   -2.9939 N   0  0  0  0  0  0  0  0  0  0  0  0
   -5.4376    1.7855   -3.8697 H   0  0  0  0  0  0  0  0  0  0  0  0
   -5.8564    3.0736   -2.7697 H   0  0  0  0  0  0  0  0  0  0  0  0
   -1.8485    0.8577    1.6346 C   0  0  0  0  0  0  0  0  0  0  0  0
   -2.9744    1.3060    1.4334 O   0  0  0  0  0  0  0  0  0  0  0  0
   -0.9282    1.6343    2.3128 N   0  0  0  0  0  0  0  0  0  0  0  0
   -0.0259    1.2131    2.5264 H   0  0  0  0  0  0  0  0  0  0  0  0
   -1.2382    2.9369    2.8938 C   0  0  0  0  0  0  0  0  0  0  0  0
   -2.0372    2.8465    3.6374 H   0  0  0  0  0  0  0  0  0  0  0  0
   -0.3531    3.3500    3.3882 H   0  0  0  0  0  0  0  0  0  0  0  0
   -1.5567    3.6401    2.1174 H   0  0  0  0  0  0  0  0  0  0  0  0
  1  2  1  0  0  0  0
  2  3  1  0  0  0  0
  2  4  1  0  0  0  0
  2  5  1  0  0  0  0
  5  6  2  0  0  0  0
  5  7  1  0  0  0  0
  7  8  1  0  0  0  0
  7  9  1  0  0  0  0
  9 10  1  0  0  0  0
  9 11  1  0  0  0  0
  9 29  1  0  0  0  0
 11 12  1  0  0  0  0
 11 13  1  0  0  0  0
 11 14  1  0  0  0  0
 14 15  1  0  0  0  0
 14 16  1  0  0  0  0
 14 17  1  0  0  0  0
 17 18  1  0  0  0  0
 17 19  1  0  0  0  0
 17 20  1  0  0  0  0
 20 21  1  0  0  0  0
 20 22  2  0  0  0  0
 22 23  1  0  0  0  0
 22 26  1  0  0  0  0
 23 24  1  0  0  0  0
 23 25  1  0  0  0  0
 26 27  1  0  0  0  0
 26 28  1  0  0  0  0
 29 30  2  0  0  0  0
 29 31  1  0  0  0  0
 31 32  1  0  0  0  0
 31 33  1  0  0  0  0
 33 34  1  0  0  0  0
 33 35  1  0  0  0  0
 33 36  1  0  0  0  0
M  CHG  1  20   1
M  END
$$$$

  -OEChem-03222214013D

 36 35  0     1  0  0  0  0  0999 V2000
   -3.5938   -4.3962    2.3605 H   0  0  0  0  0  0  0  0  0  0  0  0
   -3.7917   -3.3517    2.1023 C   0  0  0  0  0  0  0  0  0  0  0  0
   -4.2230   -2.8514    2.9727 H   0  0  0  0  0  0  0  0  0  0  0  0
   -4.5097   -3.3243    1.2795 H   0  0  0  0  0  0  0  0  0  0  0  0
   -2.5030   -2.6643    1.6931 C   0  0  0  0  0  0  0  0  0  0  0  0
   -1.4479   -3.2738    1.7299 O   0  0  0  0  0  0  0  0  0  0  0  0
   -2.5243   -1.3512    1.2622 N   0  0  0  0  0  0  0  0  0  0  0  0
   -3.3964   -0.8514    1.4221 H   0  0  0  0  0  0  0  0  0  0  0  0
   -1.3057   -0.5290    1.1496 C   0  0  1  0  0  0  0  0  0  0  0  0
   -0.5280   -0.9725    1.7822 H   0  0  0  0  0  0  0  0  0  0  0  0
   -0.7416   -0.5287   -0.2974 C   0  0  0  0  0  0  0  0  0  0  0  0
    0.0187    0.2578   -0.3520 H   0  0  0  0  0  0  0  0  0  0  0  0
   -0.2208   -1.4798   -0.4533 H   0  0  0  0  0  0  0  0  0  0  0  0
   -1.7149   -0.3340   -1.4859 C   0  0  0  0  0  0  0  0  0  0  0  0
   -1.1675    0.1086   -2.3247 H   0  0  0  0  0  0  0  0  0  0  0  0
   -2.0738   -1.3186   -1.8049 H   0  0  0  0  0  0  0  0  0  0  0  0
   -2.9221    0.5245   -1.1345 C   0  0  0  0  0  0  0  0  0  0  0  0
   -3.5245    0.0101   -0.3802 H   0  0  0  0  0  0  0  0  0  0  0  0
   -2.5462    1.4568   -0.7013 H   0  0  0  0  0  0  0  0  0  0  0  0
   -3.7702    0.8621   -2.2857 N   0  3  0  0  0  0  0  0  0  0  0  0
   -3.5999    0.3816   -3.1679 H   0  0  0  0  0  0  0  0  0  0  0  0
   -4.6908    1.7783   -2.1948 C   0  0  0  0  0  0  0  0  0  0  0  0
   -4.9182    2.4456   -1.0089 N   0  0  0  0  0  0  0  0  0  0  0  0
   -4.2613    2.2928   -0.2398 H   0  0  0  0  0  0  0  0  0  0  0  0
   -5.4383    3.3197   -1.0267 H   0  0  0  0  0  0  0  0  0  0  0  0
   -5.4527    2.0969   -3.2934 N   0  0  0  0  0  0  0  0  0  0  0  0
   -5.4175    1.4861   -4.1070 H   0  0  0  0  0  0  0  0  0  0  0  0
   -6.2882    2.6625   -3.1558 H   0  0  0  0  0  0  0  0  0  0  0  0
   -1.5330    0.8836    1.7408 C   0  0  0  0  0  0  0  0  0  0  0  0
   -2.6018    1.4667    1.5571 O   0  0  0  0  0  0  0  0  0  0  0  0
   -0.5867    1.4570    2.5686 N   0  0  0  0  0  0  0  0  0  0  0  0
    0.2469    0.9123    2.7800 H   0  0  0  0  0  0  0  0  0  0  0  0
   -0.7855    2.7223    3.2683 C   0  0  0  0  0  0  0  0  0  0  0  0
   -1.6142    2.6420    3.9800 H   0  0  0  0  0  0  0  0  0  0  0  0
    0.1187    2.9951    3.8216 H   0  0  0  0  0  0  0  0  0  0  0  0
   -1.0069    3.5254    2.5576 H   0  0  0  0  0  0  0  0  0  0  0  0
  1  2  1  0  0  0  0
  2  3  1  0  0  0  0
  2  4  1  0  0  0  0
  2  5  1  0  0  0  0
  5  6  2  0  0  0  0
  5  7  1  0  0  0  0
  7  8  1  0  0  0  0
  7  9  1  0  0  0  0
  9 10  1  0  0  0  0
  9 11  1  0  0  0  0
  9 29  1  0  0  0  0
 11 12  1  0  0  0  0
 11 13  1  0  0  0  0
 11 14  1  0  0  0  0
 14 15  1  0  0  0  0
 14 16  1  0  0  0  0
 14 17  1  0  0  0  0
 17 18  1  0  0  0  0
 17 19  1  0  0  0  0
 17 20  1  0  0  0  0
 20 21  1  0  0  0  0
 20 22  2  0  0  0  0
 22 23  1  0  0  0  0
 22 26  1  0  0  0  0
 23 24  1  0  0  0  0
 23 25  1  0  0  0  0
 26 27  1  0  0  0  0
 26 28  1  0  0  0  0
 29 30  2  0  0  0  0
 29 31  1  0  0  0  0
 31 32  1  0  0  0  0
 31 33  1  0  0  0  0
 33 34  1  0  0  0  0
 33 35  1  0  0  0  0
 33 36  1  0  0  0  0
M  CHG  1  20   1
M  END
$$$$

  -OEChem-03222214013D

 36 35  0     1  0  0  0  0  0999 V2000
   -3.7845   -4.2394    2.3051 H   0  0  0  0  0  0  0  0  0  0  0  0
   -3.9358   -3.2036    1.9870 C   0  0  0  0  0  0  0  0  0  0  0  0
   -4.4106   -2.6523    2.8022 H   0  0  0  0  0  0  0  0  0  0  0  0
   -4.5957   -3.1969    1.1166 H   0  0  0  0  0  0  0  0  0  0  0  0
   -2.6045   -2.5677    1.6366 C   0  0  0  0  0  0  0  0  0  0  0  0
   -1.5751   -3.2142    1.7302 O   0  0  0  0  0  0  0  0  0  0  0  0
   -2.5573   -1.2574    1.1999 N   0  0  0  0  0  0  0  0  0  0  0  0
   -3.4197   -0.7268    1.3010 H   0  0  0  0  0  0  0  0  0  0  0  0
   -1.3062   -0.4826    1.1267 C   0  0  1  0  0  0  0  0  0  0  0  0
   -0.5720   -0.9521    1.7913 H   0  0  0  0  0  0  0  0  0  0  0  0
   -0.6926   -0.5383   -0.2977 C   0  0  0  0  0  0  0  0  0  0  0  0
    0.1020    0.2135   -0.3540 H   0  0  0  0  0  0  0  0  0  0  0  0
   -0.2142   -1.5165   -0.4197 H   0  0  0  0  0  0  0  0  0  0  0  0
   -1.6457   -0.3340   -1.4959 C   0  0  0  0  0  0  0  0  0  0  0  0
   -1.0510   -0.1680   -2.4002 H   0  0  0  0  0  0  0  0  0  0  0  0
   -2.2354   -1.2452   -1.6445 H   0  0  0  0  0  0  0  0  0  0  0  0
   -2.5870    0.8364   -1.2641 C   0  0  0  0  0  0  0  0  0  0  0  0
   -3.2386    0.5848   -0.4220 H   0  0  0  0  0  0  0  0  0  0  0  0
   -1.9884    1.7116   -0.9874 H   0  0  0  0  0  0  0  0  0  0  0  0
   -3.4282    1.1738   -2.4196 N   0  3  0  0  0  0  0  0  0  0  0  0
   -3.3160    0.6303   -3.2741 H   0  0  0  0  0  0  0  0  0  0  0  0
   -4.3141    2.1250   -2.3452 C   0  0  0  0  0  0  0  0  0  0  0  0
   -4.4837    2.8514   -1.1845 N   0  0  0  0  0  0  0  0  0  0  0  0
   -3.9769    2.5509   -0.3478 H   0  0  0  0  0  0  0  0  0  0  0  0
   -5.3264    3.4083   -1.0640 H   0  0  0  0  0  0  0  0  0  0  0  0
   -5.1002    2.4169   -3.4338 N   0  0  0  0  0  0  0  0  0  0  0  0
   -4.8487    2.0187   -4.3363 H   0  0  0  0  0  0  0  0  0  0  0  0
   -5.6279    3.2879   -3.4275 H   0  0  0  0  0  0  0  0  0  0  0  0
   -1.4814    0.9456    1.6999 C   0  0  0  0  0  0  0  0  0  0  0  0
   -2.5116    1.5833    1.4809 O   0  0  0  0  0  0  0  0  0  0  0  0
   -0.5310    1.4757    2.5520 N   0  0  0  0  0  0  0  0  0  0  0  0
    0.2667    0.8903    2.7916 H   0  0  0  0  0  0  0  0  0  0  0  0
   -0.6862    2.7526    3.2413 C   0  0  0  0  0  0  0  0  0  0  0  0
   -1.5509    2.7236    3.9130 H   0  0  0  0  0  0  0  0  0  0  0  0
    0.2060    2.9729    3.8366 H   0  0  0  0  0  0  0  0  0  0  0  0
   -0.8265    3.5647    2.5204 H   0  0  0  0  0  0  0  0  0  0  0  0
  1  2  1  0  0  0  0
  2  3  1  0  0  0  0
  2  4  1  0  0  0  0
  2  5  1  0  0  0  0
  5  6  2  0  0  0  0
  5  7  1  0  0  0  0
  7  8  1  0  0  0  0
  7  9  1  0  0  0  0
  9 10  1  0  0  0  0
  9 11  1  0  0  0  0
  9 29  1  0  0  0  0
 11 12  1  0  0  0  0
 11 13  1  0  0  0  0
 11 14  1  0  0  0  0
 14 15  1  0  0  0  0
 14 16  1  0  0  0  0
 14 17  1  0  0  0  0
 17 18  1  0  0  0  0
 17 19  1  0  0  0  0
 17 20  1  0  0  0  0
 20 21  1  0  0  0  0
 20 22  2  0  0  0  0
 22 23  1  0  0  0  0
 22 26  1  0  0  0  0
 23 24  1  0  0  0  0
 23 25  1  0  0  0  0
 26 27  1  0  0  0  0
 26 28  1  0  0  0  0
 29 30  2  0  0  0  0
 29 31  1  0  0  0  0
 31 32  1  0  0  0  0
 31 33  1  0  0  0  0
 33 34  1  0  0  0  0
 33 35  1  0  0  0  0
 33 36  1  0  0  0  0
M  CHG  1  20   1
M  END
$$$$

  -OEChem-03222214013D

 36 35  0     1  0  0  0  0  0999 V2000
   -3.9409   -4.0984    2.3038 H   0  0  0  0  0  0  0  0  0  0  0  0
   -4.0518   -3.0814    1.9163 C   0  0  0  0  0  0  0  0  0  0  0  0
   -4.5595   -2.4736    2.6689 H   0  0  0  0  0  0  0  0  0  0  0  0
   -4.6611   -3.1149    1.0103 H   0  0  0  0  0  0  0  0  0  0  0  0
   -2.6890   -2.4934    1.6051 C   0  0  0  0  0  0  0  0  0  0  0  0
   -1.6869   -3.1771    1.7278 O   0  0  0  0  0  0  0  0  0  0  0  0
   -2.5807   -1.1870    1.1666 N   0  0  0  0  0  0  0  0  0  0  0  0
   -3.4260   -0.6237    1.2305 H   0  0  0  0  0  0  0  0  0  0  0  0
   -1.2999   -0.4613    1.1149 C   0  0  1  0  0  0  0  0  0  0  0  0
   -0.5986   -0.9583    1.7950 H   0  0  0  0  0  0  0  0  0  0  0  0
   -0.6611   -0.5449   -0.2951 C   0  0  0  0  0  0  0  0  0  0  0  0
    0.1740    0.1620   -0.3456 H   0  0  0  0  0  0  0  0  0  0  0  0
   -0.2363   -1.5491   -0.4043 H   0  0  0  0  0  0  0  0  0  0  0  0
   -1.5937   -0.3076   -1.5006 C   0  0  0  0  0  0  0  0  0  0  0  0
   -1.0068   -0.4090   -2.4193 H   0  0  0  0  0  0  0  0  0  0  0  0
   -2.3771   -1.0724   -1.5218 H   0  0  0  0  0  0  0  0  0  0  0  0
   -2.2204    1.0773   -1.4441 C   0  0  0  0  0  0  0  0  0  0  0  0
   -2.8873    1.1010   -0.5811 H   0  0  0  0  0  0  0  0  0  0  0  0
   -1.4314    1.8239   -1.3008 H   0  0  0  0  0  0  0  0  0  0  0  0
   -3.0106    1.4112   -2.6376 N   0  3  0  0  0  0  0  0  0  0  0  0
   -2.8497    0.8708   -3.4864 H   0  0  0  0  0  0  0  0  0  0  0  0
   -3.8851    2.3761   -2.6232 C   0  0  0  0  0  0  0  0  0  0  0  0
   -4.1192    3.1138   -1.4817 N   0  0  0  0  0  0  0  0  0  0  0  0
   -3.6828    2.8038   -0.6106 H   0  0  0  0  0  0  0  0  0  0  0  0
   -4.9633    3.6785   -1.4209 H   0  0  0  0  0  0  0  0  0  0  0  0
   -4.5970    2.6729   -3.7607 N   0  0  0  0  0  0  0  0  0  0  0  0
   -4.2962    2.2655   -4.6439 H   0  0  0  0  0  0  0  0  0  0  0  0
   -5.1124    3.5508   -3.7914 H   0  0  0  0  0  0  0  0  0  0  0  0
   -1.4209    0.9749    1.6793 C   0  0  0  0  0  0  0  0  0  0  0  0
   -2.4110    1.6624    1.4340 O   0  0  0  0  0  0  0  0  0  0  0  0
   -0.4609    1.4645    2.5450 N   0  0  0  0  0  0  0  0  0  0  0  0
    0.2972    0.8385    2.8090 H   0  0  0  0  0  0  0  0  0  0  0  0
   -0.5726    2.7463    3.2338 C   0  0  0  0  0  0  0  0  0  0  0  0
   -1.4566    2.7599    3.8803 H   0  0  0  0  0  0  0  0  0  0  0  0
    0.3114    2.9197    3.8559 H   0  0  0  0  0  0  0  0  0  0  0  0
   -0.6506    3.5664    2.5125 H   0  0  0  0  0  0  0  0  0  0  0  0
  1  2  1  0  0  0  0
  2  3  1  0  0  0  0
  2  4  1  0  0  0  0
  2  5  1  0  0  0  0
  5  6  2  0  0  0  0
  5  7  1  0  0  0  0
  7  8  1  0  0  0  0
  7  9  1  0  0  0  0
  9 10  1  0  0  0  0
  9 11  1  0  0  0  0
  9 29  1  0  0  0  0
 11 12  1  0  0  0  0
 11 13  1  0  0  0  0
 11 14  1  0  0  0  0
 14 15  1  0  0  0  0
 14 16  1  0  0  0  0
 14 17  1  0  0  0  0
 17 18  1  0  0  0  0
 17 19  1  0  0  0  0
 17 20  1  0  0  0  0
 20 21  1  0  0  0  0
 20 22  2  0  0  0  0
 22 23  1  0  0  0  0
 22 26  1  0  0  0  0
 23 24  1  0  0  0  0
 23 25  1  0  0  0  0
 26 27  1  0  0  0  0
 26 28  1  0  0  0  0
 29 30  2  0  0  0  0
 29 31  1  0  0  0  0
 31 32  1  0  0  0  0
 31 33  1  0  0  0  0
 33 34  1  0  0  0  0
 33 35  1  0  0  0  0
 33 36  1  0  0  0  0
M  CHG  1  20   1
M  END
$$$$

  -OEChem-03222214013D

 36 35  0     1  0  0  0  0  0999 V2000
   -4.4814   -3.6946    1.8624 H   0  0  0  0  0  0  0  0  0  0  0  0
   -4.4171   -2.6661    1.4951 C   0  0  0  0  0  0  0  0  0  0  0  0
   -4.9597   -2.0137    2.1832 H   0  0  0  0  0  0  0  0  0  0  0  0
   -4.8838   -2.6169    0.5086 H   0  0  0  0  0  0  0  0  0  0  0  0
   -2.9654   -2.2360    1.4065 C   0  0  0  0  0  0  0  0  0  0  0  0
   -2.0805   -3.0010    1.7498 O   0  0  0  0  0  0  0  0  0  0  0  0
   -2.6411   -0.9836    0.9194 N   0  0  0  0  0  0  0  0  0  0  0  0
   -3.4156   -0.3349    0.8006 H   0  0  0  0  0  0  0  0  0  0  0  0
   -1.2918   -0.4018    1.0335 C   0  0  1  0  0  0  0  0  0  0  0  0
   -0.7506   -0.9175    1.8350 H   0  0  0  0  0  0  0  0  0  0  0  0
   -0.4719   -0.6194   -0.2639 C   0  0  0  0  0  0  0  0  0  0  0  0
    0.4492   -0.0292   -0.2121 H   0  0  0  0  0  0  0  0  0  0  0  0
   -0.1731   -1.6734   -0.2755 H   0  0  0  0  0  0  0  0  0  0  0  0
   -1.1849   -0.3378   -1.6031 C   0  0  0  0  0  0  0  0  0  0  0  0
   -0.6066   -0.7877   -2.4171 H   0  0  0  0  0  0  0  0  0  0  0  0
   -2.1661   -0.8229   -1.6012 H   0  0  0  0  0  0  0  0  0  0  0  0
   -1.3313    1.1613   -1.8776 C   0  0  0  0  0  0  0  0  0  0  0  0
   -1.4713    1.7031   -0.9453 H   0  0  0  0  0  0  0  0  0  0  0  0
   -0.4000    1.5315   -2.3204 H   0  0  0  0  0  0  0  0  0  0  0  0
   -2.4580    1.4245   -2.7913 N   0  3  0  0  0  0  0  0  0  0  0  0
   -2.4178    0.9880   -3.7111 H   0  0  0  0  0  0  0  0  0  0  0  0
   -3.4452    2.2275   -2.5086 C   0  0  0  0  0  0  0  0  0  0  0  0
   -3.5653    2.8564   -1.2899 N   0  0  0  0  0  0  0  0  0  0  0  0
   -2.9849    2.5181   -0.5140 H   0  0  0  0  0  0  0  0  0  0  0  0
   -4.4508    3.2943   -1.0501 H   0  0  0  0  0  0  0  0  0  0  0  0
   -4.4087    2.4672   -3.4590 N   0  0  0  0  0  0  0  0  0  0  0  0
   -4.2320    2.1697   -4.4164 H   0  0  0  0  0  0  0  0  0  0  0  0
   -5.0372    3.2554   -3.3153 H   0  0  0  0  0  0  0  0  0  0  0  0
   -1.3772    1.0697    1.4909 C   0  0  0  0  0  0  0  0  0  0  0  0
   -2.2718    1.7920    1.0515 O   0  0  0  0  0  0  0  0  0  0  0  0
   -0.5387    1.5529    2.4769 N   0  0  0  0  0  0  0  0  0  0  0  0
    0.1279    0.9029    2.8893 H   0  0  0  0  0  0  0  0  0  0  0  0
   -0.6476    2.8912    3.0491 C   0  0  0  0  0  0  0  0  0  0  0  0
   -1.6193    3.0232    3.5367 H   0  0  0  0  0  0  0  0  0  0  0  0
    0.1367    3.0475    3.7968 H   0  0  0  0  0  0  0  0  0  0  0  0
   -0.5359    3.6537    2.2710 H   0  0  0  0  0  0  0  0  0  0  0  0
  1  2  1  0  0  0  0
  2  3  1  0  0  0  0
  2  4  1  0  0  0  0
  2  5  1  0  0  0  0
  5  6  2  0  0  0  0
  5  7  1  0  0  0  0
  7  8  1  0  0  0  0
  7  9  1  0  0  0  0
  9 10  1  0  0  0  0
  9 11  1  0  0  0  0
  9 29  1  0  0  0  0
 11 12  1  0  0  0  0
 11 13  1  0  0  0  0
 11 14  1  0  0  0  0
 14 15  1  0  0  0  0
 14 16  1  0  0  0  0
 14 17  1  0  0  0  0
 17 18  1  0  0  0  0
 17 19  1  0  0  0  0
 17 20  1  0  0  0  0
 20 21  1  0  0  0  0
 20 22  2  0  0  0  0
 22 23  1  0  0  0  0
 22 26  1  0  0  0  0
 23 24  1  0  0  0  0
 23 25  1  0  0  0  0
 26 27  1  0  0  0  0
 26 28  1  0  0  0  0
 29 30  2  0  0  0  0
 29 31  1  0  0  0  0
 31 32  1  0  0  0  0
 31 33  1  0  0  0  0
 33 34  1  0  0  0  0
 33 35  1  0  0  0  0
 33 36  1  0  0  0  0
M  CHG  1  20   1
M  END
$$$$

  -OEChem-03222214013D

 36 35  0     1  0  0  0  0  0999 V2000
   -4.4643   -3.6848    2.0045 H   0  0  0  0  0  0  0  0  0  0  0  0
   -4.3932   -2.6754    1.5888 C   0  0  0  0  0  0  0  0  0  0  0  0
   -4.9438   -1.9897    2.2372 H   0  0  0  0  0  0  0  0  0  0  0  0
   -4.8473   -2.6735    0.5952 H   0  0  0  0  0  0  0  0  0  0  0  0
   -2.9396   -2.2518    1.4979 C   0  0  0  0  0  0  0  0  0  0  0  0
   -2.0621   -2.9887    1.9139 O   0  0  0  0  0  0  0  0  0  0  0  0
   -2.6045   -1.0365    0.9314 N   0  0  0  0  0  0  0  0  0  0  0  0
   -3.3745   -0.4010    0.7356 H   0  0  0  0  0  0  0  0  0  0  0  0
   -1.2521   -0.4556    1.0080 C   0  0  1  0  0  0  0  0  0  0  0  0
   -0.6935   -0.9317    1.8218 H   0  0  0  0  0  0  0  0  0  0  0  0
   -0.4534   -0.6820   -0.2990 C   0  0  0  0  0  0  0  0  0  0  0  0
    0.4778   -0.1055   -0.2706 H   0  0  0  0  0  0  0  0  0  0  0  0
   -0.1686   -1.7399   -0.3089 H   0  0  0  0  0  0  0  0  0  0  0  0
   -1.2087   -0.4040   -1.6154 C   0  0  0  0  0  0  0  0  0  0  0  0
   -0.8027   -1.0480   -2.4028 H   0  0  0  0  0  0  0  0  0  0  0  0
   -2.2700   -0.6486   -1.5171 H   0  0  0  0  0  0  0  0  0  0  0  0
   -1.0286    1.0562   -2.0384 C   0  0  0  0  0  0  0  0  0  0  0  0
   -1.1043    1.7109   -1.1678 H   0  0  0  0  0  0  0  0  0  0  0  0
   -0.0216    1.1879   -2.4497 H   0  0  0  0  0  0  0  0  0  0  0  0
   -2.0365    1.4320   -3.0466 N   0  3  0  0  0  0  0  0  0  0  0  0
   -1.9523    0.9999   -3.9654 H   0  0  0  0  0  0  0  0  0  0  0  0
   -2.9815    2.3047   -2.8362 C   0  0  0  0  0  0  0  0  0  0  0  0
   -3.1642    2.9218   -1.6198 N   0  0  0  0  0  0  0  0  0  0  0  0
   -2.6868    2.5231   -0.8036 H   0  0  0  0  0  0  0  0  0  0  0  0
   -4.0361    3.4155   -1.4496 H   0  0  0  0  0  0  0  0  0  0  0  0
   -3.8341    2.6309   -3.8637 N   0  0  0  0  0  0  0  0  0  0  0  0
   -3.5927    2.3360   -4.8075 H   0  0  0  0  0  0  0  0  0  0  0  0
   -4.4169    3.4593   -3.7591 H   0  0  0  0  0  0  0  0  0  0  0  0
   -1.3448    1.0406    1.3685 C   0  0  0  0  0  0  0  0  0  0  0  0
   -2.1824    1.7483    0.8088 O   0  0  0  0  0  0  0  0  0  0  0  0
   -0.5134    1.5924    2.3236 N   0  0  0  0  0  0  0  0  0  0  0  0
    0.1129    0.9627    2.8221 H   0  0  0  0  0  0  0  0  0  0  0  0
   -0.6112    2.9758    2.7772 C   0  0  0  0  0  0  0  0  0  0  0  0
   -1.5831    3.1577    3.2483 H   0  0  0  0  0  0  0  0  0  0  0  0
    0.1728    3.1897    3.5107 H   0  0  0  0  0  0  0  0  0  0  0  0
   -0.4909    3.6674    1.9367 H   0  0  0  0  0  0  0  0  0  0  0  0
  1  2  1  0  0  0  0
  2  3  1  0  0  0  0
  2  4  1  0  0  0  0
  2  5  1  0  0  0  0
  5  6  2  0  0  0  0
  5  7  1  0  0  0  0
  7  8  1  0  0  0  0
  7  9  1  0  0  0  0
  9 10  1  0  0  0  0
  9 11  1  0  0  0  0
  9 29  1  0  0  0  0
 11 12  1  0  0  0  0
 11 13  1  0  0  0  0
 11 14  1  0  0  0  0
 14 15  1  0  0  0  0
 14 16  1  0  0  0  0
 14 17  1  0  0  0  0
 17 18  1  0  0  0  0
 17 19  1  0  0  0  0
 17 20  1  0  0  0  0
 20 21  1  0  0  0  0
 20 22  2  0  0  0  0
 22 23  1  0  0  0  0
 22 26  1  0  0  0  0
 23 24  1  0  0  0  0
 23 25  1  0  0  0  0
 26 27  1  0  0  0  0
 26 28  1  0  0  0  0
 29 30  2  0  0  0  0
 29 31  1  0  0  0  0
 31 32  1  0  0  0  0
 31 33  1  0  0  0  0
 33 34  1  0  0  0  0
 33 35  1  0  0  0  0
 33 36  1  0  0  0  0
M  CHG  1  20   1
M  END
$$$$

  -OEChem-03222214013D

 36 35  0     1  0  0  0  0  0999 V2000
   -4.4828   -3.6475    2.1079 H   0  0  0  0  0  0  0  0  0  0  0  0
   -4.3957   -2.6607    1.6437 C   0  0  0  0  0  0  0  0  0  0  0  0
   -4.9510   -1.9388    2.2473 H   0  0  0  0  0  0  0  0  0  0  0  0
   -4.8321   -2.7043    0.6430 H   0  0  0  0  0  0  0  0  0  0  0  0
   -2.9375   -2.2537    1.5579 C   0  0  0  0  0  0  0  0  0  0  0  0
   -2.0745   -2.9663    2.0411 O   0  0  0  0  0  0  0  0  0  0  0  0
   -2.5837   -1.0753    0.9288 N   0  0  0  0  0  0  0  0  0  0  0  0
   -3.3458   -0.4534    0.6694 H   0  0  0  0  0  0  0  0  0  0  0  0
   -1.2257   -0.5045    0.9822 C   0  0  1  0  0  0  0  0  0  0  0  0
   -0.6618   -0.9530    1.8078 H   0  0  0  0  0  0  0  0  0  0  0  0
   -0.4439   -0.7518   -0.3282 C   0  0  0  0  0  0  0  0  0  0  0  0
    0.4939   -0.1848   -0.3165 H   0  0  0  0  0  0  0  0  0  0  0  0
   -0.1675   -1.8120   -0.3341 H   0  0  0  0  0  0  0  0  0  0  0  0
   -1.2323   -0.4761   -1.6273 C   0  0  0  0  0  0  0  0  0  0  0  0
   -1.0519   -1.2888   -2.3393 H   0  0  0  0  0  0  0  0  0  0  0  0
   -2.3097   -0.4381   -1.4478 H   0  0  0  0  0  0  0  0  0  0  0  0
   -0.7552    0.8407   -2.2422 C   0  0  0  0  0  0  0  0  0  0  0  0
   -0.6922    1.6084   -1.4638 H   0  0  0  0  0  0  0  0  0  0  0  0
    0.2538    0.7066   -2.6478 H   0  0  0  0  0  0  0  0  0  0  0  0
   -1.6741    1.2780   -3.3088 N   0  3  0  0  0  0  0  0  0  0  0  0
   -1.5652    0.8371   -4.2210 H   0  0  0  0  0  0  0  0  0  0  0  0
   -2.5678    2.2139   -3.1539 C   0  0  0  0  0  0  0  0  0  0  0  0
   -2.7799    2.8418   -1.9477 N   0  0  0  0  0  0  0  0  0  0  0  0
   -2.3773    2.4138   -1.1063 H   0  0  0  0  0  0  0  0  0  0  0  0
   -3.6274    3.3892   -1.8253 H   0  0  0  0  0  0  0  0  0  0  0  0
   -3.3336    2.5963   -4.2294 N   0  0  0  0  0  0  0  0  0  0  0  0
   -3.0548    2.2877   -5.1586 H   0  0  0  0  0  0  0  0  0  0  0  0
   -3.8644    3.4621   -4.1556 H   0  0  0  0  0  0  0  0  0  0  0  0
   -1.2992    1.0106    1.2592 C   0  0  0  0  0  0  0  0  0  0  0  0
   -2.0561    1.7117    0.5875 O   0  0  0  0  0  0  0  0  0  0  0  0
   -0.4655    1.6018    2.1886 N   0  0  0  0  0  0  0  0  0  0  0  0
    0.1133    0.9870    2.7582 H   0  0  0  0  0  0  0  0  0  0  0  0
   -0.5038    3.0221    2.5216 C   0  0  0  0  0  0  0  0  0  0  0  0
   -1.4868    3.2980    2.9181 H   0  0  0  0  0  0  0  0  0  0  0  0
    0.2503    3.2524    3.2812 H   0  0  0  0  0  0  0  0  0  0  0  0
   -0.2958    3.6324    1.6366 H   0  0  0  0  0  0  0  0  0  0  0  0
  1  2  1  0  0  0  0
  2  3  1  0  0  0  0
  2  4  1  0  0  0  0
  2  5  1  0  0  0  0
  5  6  2  0  0  0  0
  5  7  1  0  0  0  0
  7  8  1  0  0  0  0
  7  9  1  0  0  0  0
  9 10  1  0  0  0  0
  9 11  1  0  0  0  0
  9 29  1  0  0  0  0
 11 12  1  0  0  0  0
 11 13  1  0  0  0  0
 11 14  1  0  0  0  0
 14 15  1  0  0  0  0
 14 16  1  0  0  0  0
 14 17  1  0  0  0  0
 17 18  1  0  0  0  0
 17 19  1  0  0  0  0
 17 20  1  0  0  0  0
 20 21  1  0  0  0  0
 20 22  2  0  0  0  0
 22 23  1  0  0  0  0
 22 26  1  0  0  0  0
 23 24  1  0  0  0  0
 23 25  1  0  0  0  0
 26 27  1  0  0  0  0
 26 28  1  0  0  0  0
 29 30  2  0  0  0  0
 29 31  1  0  0  0  0
 31 32  1  0  0  0  0
 31 33  1  0  0  0  0
 33 34  1  0  0  0  0
 33 35  1  0  0  0  0
 33 36  1  0  0  0  0
M  CHG  1  20   1
M  END
$$$$

  -OEChem-03222214013D

 36 35  0     1  0  0  0  0  0999 V2000
   -4.4850   -3.6578    2.1323 H   0  0  0  0  0  0  0  0  0  0  0  0
   -4.3954   -2.6966    1.6173 C   0  0  0  0  0  0  0  0  0  0  0  0
   -4.9858   -1.9530    2.1577 H   0  0  0  0  0  0  0  0  0  0  0  0
   -4.7913   -2.8033    0.6049 H   0  0  0  0  0  0  0  0  0  0  0  0
   -2.9410   -2.2688    1.5647 C   0  0  0  0  0  0  0  0  0  0  0  0
   -2.0859   -2.9450    2.1105 O   0  0  0  0  0  0  0  0  0  0  0  0
   -2.5801   -1.1161    0.8929 N   0  0  0  0  0  0  0  0  0  0  0  0
   -3.3401   -0.5206    0.5725 H   0  0  0  0  0  0  0  0  0  0  0  0
   -1.2308   -0.5265    0.9630 C   0  0  1  0  0  0  0  0  0  0  0  0
   -0.6826   -0.9371    1.8185 H   0  0  0  0  0  0  0  0  0  0  0  0
   -0.4204   -0.8148   -0.3191 C   0  0  0  0  0  0  0  0  0  0  0  0
    0.5011   -0.2216   -0.3066 H   0  0  0  0  0  0  0  0  0  0  0  0
   -0.1147   -1.8664   -0.2863 H   0  0  0  0  0  0  0  0  0  0  0  0
   -1.2015   -0.5907   -1.6335 C   0  0  0  0  0  0  0  0  0  0  0  0
   -1.2513   -1.5286   -2.1970 H   0  0  0  0  0  0  0  0  0  0  0  0
   -2.2300   -0.2753   -1.4382 H   0  0  0  0  0  0  0  0  0  0  0  0
   -0.4955    0.4779   -2.4686 C   0  0  0  0  0  0  0  0  0  0  0  0
   -0.2147    1.3194   -1.8254 H   0  0  0  0  0  0  0  0  0  0  0  0
    0.4291    0.0617   -2.8839 H   0  0  0  0  0  0  0  0  0  0  0  0
   -1.3705    0.9555   -3.5548 N   0  3  0  0  0  0  0  0  0  0  0  0
   -1.3072    0.4674   -4.4472 H   0  0  0  0  0  0  0  0  0  0  0  0
   -2.1542    1.9917   -3.4464 C   0  0  0  0  0  0  0  0  0  0  0  0
   -2.2998    2.6910   -2.2691 N   0  0  0  0  0  0  0  0  0  0  0  0
   -1.9844    2.2422   -1.4019 H   0  0  0  0  0  0  0  0  0  0  0  0
   -3.0755    3.3426   -2.1868 H   0  0  0  0  0  0  0  0  0  0  0  0
   -2.8669    2.4121   -4.5439 N   0  0  0  0  0  0  0  0  0  0  0  0
   -2.6266    2.0304   -5.4566 H   0  0  0  0  0  0  0  0  0  0  0  0
   -3.2980    3.3340   -4.5120 H   0  0  0  0  0  0  0  0  0  0  0  0
   -1.3120    1.0003    1.1671 C   0  0  0  0  0  0  0  0  0  0  0  0
   -2.0020    1.6770    0.4045 O   0  0  0  0  0  0  0  0  0  0  0  0
   -0.5056    1.6314    2.0941 N   0  0  0  0  0  0  0  0  0  0  0  0
    0.0259    1.0418    2.7323 H   0  0  0  0  0  0  0  0  0  0  0  0
   -0.5235    3.0708    2.3315 C   0  0  0  0  0  0  0  0  0  0  0  0
   -1.5245    3.3979    2.6323 H   0  0  0  0  0  0  0  0  0  0  0  0
    0.1781    3.3312    3.1304 H   0  0  0  0  0  0  0  0  0  0  0  0
   -0.2310    3.6142    1.4270 H   0  0  0  0  0  0  0  0  0  0  0  0
  1  2  1  0  0  0  0
  2  3  1  0  0  0  0
  2  4  1  0  0  0  0
  2  5  1  0  0  0  0
  5  6  2  0  0  0  0
  5  7  1  0  0  0  0
  7  8  1  0  0  0  0
  7  9  1  0  0  0  0
  9 10  1  0  0  0  0
  9 11  1  0  0  0  0
  9 29  1  0  0  0  0
 11 12  1  0  0  0  0
 11 13  1  0  0  0  0
 11 14  1  0  0  0  0
 14 15  1  0  0  0  0
 14 16  1  0  0  0  0
 14 17  1  0  0  0  0
 17 18  1  0  0  0  0
 17 19  1  0  0  0  0
 17 20  1  0  0  0  0
 20 21  1  0  0  0  0
 20 22  2  0  0  0  0
 22 23  1  0  0  0  0
 22 26  1  0  0  0  0
 23 24  1  0  0  0  0
 23 25  1  0  0  0  0
 26 27  1  0  0  0  0
 26 28  1  0  0  0  0
 29 30  2  0  0  0  0
 29 31  1  0  0  0  0
 31 32  1  0  0  0  0
 31 33  1  0  0  0  0
 33 34  1  0  0  0  0
 33 35  1  0  0  0  0
 33 36  1  0  0  0  0
M  CHG  1  20   1
M  END
$$$$

  -OEChem-03222214013D

 36 35  0     1  0  0  0  0  0999 V2000
   -3.9955   -4.1374    2.2881 H   0  0  0  0  0  0  0  0  0  0  0  0
   -4.0661   -3.1473    1.8285 C   0  0  0  0  0  0  0  0  0  0  0  0
   -4.6412   -2.4944    2.4895 H   0  0  0  0  0  0  0  0  0  0  0  0
   -4.5874   -3.2389    0.8730 H   0  0  0  0  0  0  0  0  0  0  0  0
   -2.6788   -2.5747    1.6101 C   0  0  0  0  0  0  0  0  0  0  0  0
   -1.6927   -3.2416    1.8760 O   0  0  0  0  0  0  0  0  0  0  0  0
   -2.5284   -1.3022    1.0947 N   0  0  0  0  0  0  0  0  0  0  0  0
   -3.3752   -0.7405    1.0181 H   0  0  0  0  0  0  0  0  0  0  0  0
   -1.2475   -0.5747    1.0954 C   0  0  1  0  0  0  0  0  0  0  0  0
   -0.5598   -1.0332    1.8149 H   0  0  0  0  0  0  0  0  0  0  0  0
   -0.5867   -0.6243   -0.2981 C   0  0  0  0  0  0  0  0  0  0  0  0
    0.2441    0.0899   -0.3103 H   0  0  0  0  0  0  0  0  0  0  0  0
   -0.1529   -1.6200   -0.4420 H   0  0  0  0  0  0  0  0  0  0  0  0
   -1.5531   -0.3432   -1.4684 C   0  0  0  0  0  0  0  0  0  0  0  0
   -1.8132   -1.2875   -1.9588 H   0  0  0  0  0  0  0  0  0  0  0  0
   -2.4810    0.1066   -1.1012 H   0  0  0  0  0  0  0  0  0  0  0  0
   -0.9141    0.6217   -2.4645 C   0  0  0  0  0  0  0  0  0  0  0  0
   -0.6238    1.5360   -1.9344 H   0  0  0  0  0  0  0  0  0  0  0  0
   -0.0136    0.1609   -2.8854 H   0  0  0  0  0  0  0  0  0  0  0  0
   -1.8731    0.9452   -3.5365 N   0  3  0  0  0  0  0  0  0  0  0  0
   -2.8012    0.5298   -3.4680 H   0  0  0  0  0  0  0  0  0  0  0  0
   -1.6085    1.7600   -4.5163 C   0  0  0  0  0  0  0  0  0  0  0  0
   -0.3856    2.3812   -4.6308 N   0  0  0  0  0  0  0  0  0  0  0  0
    0.2488    2.3259   -3.8366 H   0  0  0  0  0  0  0  0  0  0  0  0
   -0.3014    3.1803   -5.2556 H   0  0  0  0  0  0  0  0  0  0  0  0
   -2.5687    2.0153   -5.4663 N   0  0  0  0  0  0  0  0  0  0  0  0
   -3.4074    1.4384   -5.4836 H   0  0  0  0  0  0  0  0  0  0  0  0
   -2.2885    2.4771   -6.3295 H   0  0  0  0  0  0  0  0  0  0  0  0
   -1.4504    0.8849    1.5512 C   0  0  0  0  0  0  0  0  0  0  0  0
   -2.3661    1.5449    1.0712 O   0  0  0  0  0  0  0  0  0  0  0  0
   -0.5912    1.4681    2.4637 N   0  0  0  0  0  0  0  0  0  0  0  0
    0.1027    0.8688    2.9050 H   0  0  0  0  0  0  0  0  0  0  0  0
   -0.7839    2.8148    2.9920 C   0  0  0  0  0  0  0  0  0  0  0  0
   -1.7413    2.8869    3.5193 H   0  0  0  0  0  0  0  0  0  0  0  0
    0.0170    3.0650    3.6950 H   0  0  0  0  0  0  0  0  0  0  0  0
   -0.7725    3.5517    2.1820 H   0  0  0  0  0  0  0  0  0  0  0  0
  1  2  1  0  0  0  0
  2  3  1  0  0  0  0
  2  4  1  0  0  0  0
  2  5  1  0  0  0  0
  5  6  2  0  0  0  0
  5  7  1  0  0  0  0
  7  8  1  0  0  0  0
  7  9  1  0  0  0  0
  9 10  1  0  0  0  0
  9 11  1  0  0  0  0
  9 29  1  0  0  0  0
 11 12  1  0  0  0  0
 11 13  1  0  0  0  0
 11 14  1  0  0  0  0
 14 15  1  0  0  0  0
 14 16  1  0  0  0  0
 14 17  1  0  0  0  0
 17 18  1  0  0  0  0
 17 19  1  0  0  0  0
 17 20  1  0  0  0  0
 20 21  1  0  0  0  0
 20 22  2  0  0  0  0
 22 23  1  0  0  0  0
 22 26  1  0  0  0  0
 23 24  1  0  0  0  0
 23 25  1  0  0  0  0
 26 27  1  0  0  0  0
 26 28  1  0  0  0  0
 29 30  2  0  0  0  0
 29 31  1  0  0  0  0
 31 32  1  0  0  0  0
 31 33  1  0  0  0  0
 33 34  1  0  0  0  0
 33 35  1  0  0  0  0
 33 36  1  0  0  0  0
M  CHG  1  20   1
M  END
$$$$

  -OEChem-03222214013D

 36 35  0     1  0  0  0  0  0999 V2000
   -3.9952   -4.1258    2.2739 H   0  0  0  0  0  0  0  0  0  0  0  0
   -4.0675   -3.1343    1.8177 C   0  0  0  0  0  0  0  0  0  0  0  0
   -4.6318   -2.4810    2.4875 H   0  0  0  0  0  0  0  0  0  0  0  0
   -4.6010   -3.2213    0.8685 H   0  0  0  0  0  0  0  0  0  0  0  0
   -2.6807   -2.5667    1.5839 C   0  0  0  0  0  0  0  0  0  0  0  0
   -1.6942   -3.2439    1.8209 O   0  0  0  0  0  0  0  0  0  0  0  0
   -2.5309   -1.2880    1.0845 N   0  0  0  0  0  0  0  0  0  0  0  0
   -3.3764   -0.7217    1.0286 H   0  0  0  0  0  0  0  0  0  0  0  0
   -1.2504   -0.5609    1.0935 C   0  0  1  0  0  0  0  0  0  0  0  0
   -0.5669   -1.0265    1.8122 H   0  0  0  0  0  0  0  0  0  0  0  0
   -0.5843   -0.6147   -0.2970 C   0  0  0  0  0  0  0  0  0  0  0  0
    0.2356    0.1117   -0.3096 H   0  0  0  0  0  0  0  0  0  0  0  0
   -0.1405   -1.6059   -0.4405 H   0  0  0  0  0  0  0  0  0  0  0  0
   -1.5511   -0.3363   -1.4636 C   0  0  0  0  0  0  0  0  0  0  0  0
   -2.0241   -1.2735   -1.7771 H   0  0  0  0  0  0  0  0  0  0  0  0
   -2.3436    0.3462   -1.1410 H   0  0  0  0  0  0  0  0  0  0  0  0
   -0.8045    0.3092   -2.6286 C   0  0  0  0  0  0  0  0  0  0  0  0
   -0.3085    1.2194   -2.2735 H   0  0  0  0  0  0  0  0  0  0  0  0
   -0.0401   -0.3853   -2.9950 H   0  0  0  0  0  0  0  0  0  0  0  0
   -1.7547    0.6411   -3.7059 N   0  3  0  0  0  0  0  0  0  0  0  0
   -2.7415    0.4633   -3.5227 H   0  0  0  0  0  0  0  0  0  0  0  0
   -1.4032    1.1822   -4.8361 C   0  0  0  0  0  0  0  0  0  0  0  0
   -0.0901    1.4827   -5.1175 N   0  0  0  0  0  0  0  0  0  0  0  0
    0.5822    1.4276   -4.3554 H   0  0  0  0  0  0  0  0  0  0  0  0
    0.1121    2.1140   -5.8899 H   0  0  0  0  0  0  0  0  0  0  0  0
   -2.3618    1.4678   -5.7789 N   0  0  0  0  0  0  0  0  0  0  0  0
   -3.3015    1.0969   -5.6508 H   0  0  0  0  0  0  0  0  0  0  0  0
   -2.0618    1.6943   -6.7254 H   0  0  0  0  0  0  0  0  0  0  0  0
   -1.4513    0.8936    1.5676 C   0  0  0  0  0  0  0  0  0  0  0  0
   -2.3872    1.5495    1.1232 O   0  0  0  0  0  0  0  0  0  0  0  0
   -0.5902    1.4645    2.4862 N   0  0  0  0  0  0  0  0  0  0  0  0
    0.1194    0.8656    2.9019 H   0  0  0  0  0  0  0  0  0  0  0  0
   -0.7826    2.8021    3.0372 C   0  0  0  0  0  0  0  0  0  0  0  0
   -1.7357    2.8634    3.5735 H   0  0  0  0  0  0  0  0  0  0  0  0
    0.0234    3.0430    3.7375 H   0  0  0  0  0  0  0  0  0  0  0  0
   -0.7796    3.5519    2.2390 H   0  0  0  0  0  0  0  0  0  0  0  0
  1  2  1  0  0  0  0
  2  3  1  0  0  0  0
  2  4  1  0  0  0  0
  2  5  1  0  0  0  0
  5  6  2  0  0  0  0
  5  7  1  0  0  0  0
  7  8  1  0  0  0  0
  7  9  1  0  0  0  0
  9 10  1  0  0  0  0
  9 11  1  0  0  0  0
  9 29  1  0  0  0  0
 11 12  1  0  0  0  0
 11 13  1  0  0  0  0
 11 14  1  0  0  0  0
 14 15  1  0  0  0  0
 14 16  1  0  0  0  0
 14 17  1  0  0  0  0
 17 18  1  0  0  0  0
 17 19  1  0  0  0  0
 17 20  1  0  0  0  0
 20 21  1  0  0  0  0
 20 22  2  0  0  0  0
 22 23  1  0  0  0  0
 22 26  1  0  0  0  0
 23 24  1  0  0  0  0
 23 25  1  0  0  0  0
 26 27  1  0  0  0  0
 26 28  1  0  0  0  0
 29 30  2  0  0  0  0
 29 31  1  0  0  0  0
 31 32  1  0  0  0  0
 31 33  1  0  0  0  0
 33 34  1  0  0  0  0
 33 35  1  0  0  0  0
 33 36  1  0  0  0  0
M  CHG  1  20   1
M  END
$$$$

  -OEChem-03222214013D

 36 35  0     1  0  0  0  0  0999 V2000
   -3.9997   -4.1226    2.2717 H   0  0  0  0  0  0  0  0  0  0  0  0
   -4.0724   -3.1299    1.8175 C   0  0  0  0  0  0  0  0  0  0  0  0
   -4.6350   -2.4772    2.4894 H   0  0  0  0  0  0  0  0  0  0  0  0
   -4.6079   -3.2141    0.8692 H   0  0  0  0  0  0  0  0  0  0  0  0
   -2.6855   -2.5632    1.5823 C   0  0  0  0  0  0  0  0  0  0  0  0
   -1.6999   -3.2446    1.8111 O   0  0  0  0  0  0  0  0  0  0  0  0
   -2.5342   -1.2840    1.0850 N   0  0  0  0  0  0  0  0  0  0  0  0
   -3.3776   -0.7135    1.0366 H   0  0  0  0  0  0  0  0  0  0  0  0
   -1.2515   -0.5610    1.0928 C   0  0  1  0  0  0  0  0  0  0  0  0
   -0.5686   -1.0294    1.8105 H   0  0  0  0  0  0  0  0  0  0  0  0
   -0.5852   -0.6123   -0.2978 C   0  0  0  0  0  0  0  0  0  0  0  0
    0.2374    0.1111   -0.3158 H   0  0  0  0  0  0  0  0  0  0  0  0
   -0.1491   -1.6070   -0.4412 H   0  0  0  0  0  0  0  0  0  0  0  0
   -1.5520   -0.3279   -1.4600 C   0  0  0  0  0  0  0  0  0  0  0  0
   -2.2110   -1.1898   -1.6112 H   0  0  0  0  0  0  0  0  0  0  0  0
   -2.1765    0.5389   -1.2209 H   0  0  0  0  0  0  0  0  0  0  0  0
   -0.7649   -0.0342   -2.7339 C   0  0  0  0  0  0  0  0  0  0  0  0
   -0.0848    0.8045   -2.5483 H   0  0  0  0  0  0  0  0  0  0  0  0
   -0.1695   -0.9148   -3.0000 H   0  0  0  0  0  0  0  0  0  0  0  0
   -1.6981    0.3034   -3.8239 N   0  3  0  0  0  0  0  0  0  0  0  0
   -2.6851    0.3768   -3.5800 H   0  0  0  0  0  0  0  0  0  0  0  0
   -1.3242    0.5454   -5.0468 C   0  0  0  0  0  0  0  0  0  0  0  0
   -0.0010    0.4991   -5.4227 N   0  0  0  0  0  0  0  0  0  0  0  0
    0.6991    0.4259   -4.6873 H   0  0  0  0  0  0  0  0  0  0  0  0
    0.2721    0.9294   -6.3039 H   0  0  0  0  0  0  0  0  0  0  0  0
   -2.2684    0.8598   -5.9949 N   0  0  0  0  0  0  0  0  0  0  0  0
   -3.2521    0.7263   -5.7684 H   0  0  0  0  0  0  0  0  0  0  0  0
   -1.9972    0.8356   -6.9763 H   0  0  0  0  0  0  0  0  0  0  0  0
   -1.4511    0.8920    1.5709 C   0  0  0  0  0  0  0  0  0  0  0  0
   -2.3946    1.5443    1.1377 O   0  0  0  0  0  0  0  0  0  0  0  0
   -0.5885    1.4605    2.4897 N   0  0  0  0  0  0  0  0  0  0  0  0
    0.1252    0.8624    2.8993 H   0  0  0  0  0  0  0  0  0  0  0  0
   -0.7799    2.7970    3.0439 C   0  0  0  0  0  0  0  0  0  0  0  0
   -1.7297    2.8556    3.5862 H   0  0  0  0  0  0  0  0  0  0  0  0
    0.0303    3.0386    3.7393 H   0  0  0  0  0  0  0  0  0  0  0  0
   -0.7835    3.5479    2.2466 H   0  0  0  0  0  0  0  0  0  0  0  0
  1  2  1  0  0  0  0
  2  3  1  0  0  0  0
  2  4  1  0  0  0  0
  2  5  1  0  0  0  0
  5  6  2  0  0  0  0
  5  7  1  0  0  0  0
  7  8  1  0  0  0  0
  7  9  1  0  0  0  0
  9 10  1  0  0  0  0
  9 11  1  0  0  0  0
  9 29  1  0  0  0  0
 11 12  1  0  0  0  0
 11 13  1  0  0  0  0
 11 14  1  0  0  0  0
 14 15  1  0  0  0  0
 14 16  1  0  0  0  0
 14 17  1  0  0  0  0
 17 18  1  0  0  0  0
 17 19  1  0  0  0  0
 17 20  1  0  0  0  0
 20 21  1  0  0  0  0
 20 22  2  0  0  0  0
 22 23  1  0  0  0  0
 22 26  1  0  0  0  0
 23 24  1  0  0  0  0
 23 25  1  0  0  0  0
 26 27  1  0  0  0  0
 26 28  1  0  0  0  0
 29 30  2  0  0  0  0
 29 31  1  0  0  0  0
 31 32  1  0  0  0  0
 31 33  1  0  0  0  0
 33 34  1  0  0  0  0
 33 35  1  0  0  0  0
 33 36  1  0  0  0  0
M  CHG  1  20   1
M  END
$$$$

  -OEChem-03222214013D

 36 35  0     1  0  0  0  0  0999 V2000
   -3.9871   -4.1280    2.1751 H   0  0  0  0  0  0  0  0  0  0  0  0
   -4.0618   -3.1104    1.7804 C   0  0  0  0  0  0  0  0  0  0  0  0
   -4.5958   -2.4915    2.5057 H   0  0  0  0  0  0  0  0  0  0  0  0
   -4.6267   -3.1354    0.8458 H   0  0  0  0  0  0  0  0  0  0  0  0
   -2.6767   -2.5436    1.5359 C   0  0  0  0  0  0  0  0  0  0  0  0
   -1.6886   -3.2279    1.7461 O   0  0  0  0  0  0  0  0  0  0  0  0
   -2.5300   -1.2542    1.0640 N   0  0  0  0  0  0  0  0  0  0  0  0
   -3.3757   -0.6861    1.0278 H   0  0  0  0  0  0  0  0  0  0  0  0
   -1.2521   -0.5250    1.0850 C   0  0  1  0  0  0  0  0  0  0  0  0
   -0.5748   -1.0066    1.7989 H   0  0  0  0  0  0  0  0  0  0  0  0
   -0.5829   -0.5848   -0.3030 C   0  0  0  0  0  0  0  0  0  0  0  0
    0.3798   -0.0653   -0.2505 H   0  0  0  0  0  0  0  0  0  0  0  0
   -0.3779   -1.6342   -0.5424 H   0  0  0  0  0  0  0  0  0  0  0  0
   -1.4281    0.0314   -1.4298 C   0  0  0  0  0  0  0  0  0  0  0  0
   -2.3892   -0.4890   -1.5011 H   0  0  0  0  0  0  0  0  0  0  0  0
   -1.6277    1.0858   -1.2130 H   0  0  0  0  0  0  0  0  0  0  0  0
   -0.6802   -0.0782   -2.7556 C   0  0  0  0  0  0  0  0  0  0  0  0
    0.2968    0.4077   -2.6571 H   0  0  0  0  0  0  0  0  0  0  0  0
   -0.5222   -1.1365   -2.9921 H   0  0  0  0  0  0  0  0  0  0  0  0
   -1.4635    0.5739   -3.8205 N   0  3  0  0  0  0  0  0  0  0  0  0
   -2.3002    1.0815   -3.5339 H   0  0  0  0  0  0  0  0  0  0  0  0
   -1.1254    0.5570   -5.0772 C   0  0  0  0  0  0  0  0  0  0  0  0
    0.0125   -0.0836   -5.5131 N   0  0  0  0  0  0  0  0  0  0  0  0
    0.6741   -0.4090   -4.8110 H   0  0  0  0  0  0  0  0  0  0  0  0
    0.3663    0.1266   -6.4442 H   0  0  0  0  0  0  0  0  0  0  0  0
   -1.9166    1.1958   -6.0020 N   0  0  0  0  0  0  0  0  0  0  0  0
   -2.8394    1.5195   -5.7182 H   0  0  0  0  0  0  0  0  0  0  0  0
   -1.7606    1.0043   -6.9900 H   0  0  0  0  0  0  0  0  0  0  0  0
   -1.4495    0.9190    1.5901 C   0  0  0  0  0  0  0  0  0  0  0  0
   -2.4101    1.5698    1.1935 O   0  0  0  0  0  0  0  0  0  0  0  0
   -0.5838    1.4696    2.5166 N   0  0  0  0  0  0  0  0  0  0  0  0
    0.1373    0.8657    2.9040 H   0  0  0  0  0  0  0  0  0  0  0  0
   -0.7943    2.7799    3.1237 C   0  0  0  0  0  0  0  0  0  0  0  0
   -1.7343    2.7955    3.6857 H   0  0  0  0  0  0  0  0  0  0  0  0
    0.0237    3.0144    3.8120 H   0  0  0  0  0  0  0  0  0  0  0  0
   -0.8310    3.5592    2.3552 H   0  0  0  0  0  0  0  0  0  0  0  0
  1  2  1  0  0  0  0
  2  3  1  0  0  0  0
  2  4  1  0  0  0  0
  2  5  1  0  0  0  0
  5  6  2  0  0  0  0
  5  7  1  0  0  0  0
  7  8  1  0  0  0  0
  7  9  1  0  0  0  0
  9 10  1  0  0  0  0
  9 11  1  0  0  0  0
  9 29  1  0  0  0  0
 11 12  1  0  0  0  0
 11 13  1  0  0  0  0
 11 14  1  0  0  0  0
 14 15  1  0  0  0  0
 14 16  1  0  0  0  0
 14 17  1  0  0  0  0
 17 18  1  0  0  0  0
 17 19  1  0  0  0  0
 17 20  1  0  0  0  0
 20 21  1  0  0  0  0
 20 22  2  0  0  0  0
 22 23  1  0  0  0  0
 22 26  1  0  0  0  0
 23 24  1  0  0  0  0
 23 25  1  0  0  0  0
 26 27  1  0  0  0  0
 26 28  1  0  0  0  0
 29 30  2  0  0  0  0
 29 31  1  0  0  0  0
 31 32  1  0  0  0  0
 31 33  1  0  0  0  0
 33 34  1  0  0  0  0
 33 35  1  0  0  0  0
 33 36  1  0  0  0  0
M  CHG  1  20   1
M  END
$$$$

  -OEChem-03222214013D

 36 35  0     1  0  0  0  0  0999 V2000
   -3.9680   -4.1598    2.2162 H   0  0  0  0  0  0  0  0  0  0  0  0
   -4.0468   -3.1357    1.8399 C   0  0  0  0  0  0  0  0  0  0  0  0
   -4.5698   -2.5285    2.5828 H   0  0  0  0  0  0  0  0  0  0  0  0
   -4.6252   -3.1443    0.9133 H   0  0  0  0  0  0  0  0  0  0  0  0
   -2.6649   -2.5658    1.5846 C   0  0  0  0  0  0  0  0  0  0  0  0
   -1.6732   -3.2439    1.7977 O   0  0  0  0  0  0  0  0  0  0  0  0
   -2.5257   -1.2860    1.0852 N   0  0  0  0  0  0  0  0  0  0  0  0
   -3.3739   -0.7218    1.0464 H   0  0  0  0  0  0  0  0  0  0  0  0
   -1.2509   -0.5501    1.0926 C   0  0  1  0  0  0  0  0  0  0  0  0
   -0.5684   -1.0141    1.8133 H   0  0  0  0  0  0  0  0  0  0  0  0
   -0.5832   -0.6133   -0.2949 C   0  0  0  0  0  0  0  0  0  0  0  0
    0.3840   -0.1009   -0.2560 H   0  0  0  0  0  0  0  0  0  0  0  0
   -0.3871   -1.6675   -0.5210 H   0  0  0  0  0  0  0  0  0  0  0  0
   -1.4353   -0.0067   -1.4228 C   0  0  0  0  0  0  0  0  0  0  0  0
   -2.4728   -0.3456   -1.3376 H   0  0  0  0  0  0  0  0  0  0  0  0
   -1.4302    1.0857   -1.3384 H   0  0  0  0  0  0  0  0  0  0  0  0
   -0.8844   -0.4338   -2.7801 C   0  0  0  0  0  0  0  0  0  0  0  0
    0.1652   -0.1275   -2.8550 H   0  0  0  0  0  0  0  0  0  0  0  0
   -0.9365   -1.5255   -2.8596 H   0  0  0  0  0  0  0  0  0  0  0  0
   -1.6751    0.1968   -3.8525 N   0  3  0  0  0  0  0  0  0  0  0  0
   -2.4391    0.8073   -3.5643 H   0  0  0  0  0  0  0  0  0  0  0  0
   -1.4450    0.0167   -5.1206 C   0  0  0  0  0  0  0  0  0  0  0  0
   -0.4337   -0.8054   -5.5628 N   0  0  0  0  0  0  0  0  0  0  0  0
    0.0307   -1.3983   -4.8777 H   0  0  0  0  0  0  0  0  0  0  0  0
   -0.4399   -1.1088   -6.5343 H   0  0  0  0  0  0  0  0  0  0  0  0
   -2.2289    0.6581   -6.0499 N   0  0  0  0  0  0  0  0  0  0  0  0
   -2.8566    1.3957   -5.7354 H   0  0  0  0  0  0  0  0  0  0  0  0
   -1.9144    0.6807   -7.0182 H   0  0  0  0  0  0  0  0  0  0  0  0
   -1.4615    0.9021    1.5668 C   0  0  0  0  0  0  0  0  0  0  0  0
   -2.4175    1.5395    1.1377 O   0  0  0  0  0  0  0  0  0  0  0  0
   -0.6050    1.4821    2.4837 N   0  0  0  0  0  0  0  0  0  0  0  0
    0.1253    0.8983    2.8844 H   0  0  0  0  0  0  0  0  0  0  0  0
   -0.8126    2.8171    3.0352 C   0  0  0  0  0  0  0  0  0  0  0  0
   -1.7546    2.8600    3.5926 H   0  0  0  0  0  0  0  0  0  0  0  0
    0.0037    3.0774    3.7162 H   0  0  0  0  0  0  0  0  0  0  0  0
   -0.8434    3.5636    2.2344 H   0  0  0  0  0  0  0  0  0  0  0  0
  1  2  1  0  0  0  0
  2  3  1  0  0  0  0
  2  4  1  0  0  0  0
  2  5  1  0  0  0  0
  5  6  2  0  0  0  0
  5  7  1  0  0  0  0
  7  8  1  0  0  0  0
  7  9  1  0  0  0  0
  9 10  1  0  0  0  0
  9 11  1  0  0  0  0
  9 29  1  0  0  0  0
 11 12  1  0  0  0  0
 11 13  1  0  0  0  0
 11 14  1  0  0  0  0
 14 15  1  0  0  0  0
 14 16  1  0  0  0  0
 14 17  1  0  0  0  0
 17 18  1  0  0  0  0
 17 19  1  0  0  0  0
 17 20  1  0  0  0  0
 20 21  1  0  0  0  0
 20 22  2  0  0  0  0
 22 23  1  0  0  0  0
 22 26  1  0  0  0  0
 23 24  1  0  0  0  0
 23 25  1  0  0  0  0
 26 27  1  0  0  0  0
 26 28  1  0  0  0  0
 29 30  2  0  0  0  0
 29 31  1  0  0  0  0
 31 32  1  0  0  0  0
 31 33  1  0  0  0  0
 33 34  1  0  0  0  0
 33 35  1  0  0  0  0
 33 36  1  0  0  0  0
M  CHG  1  20   1
M  END
$$$$

  -OEChem-03222214013D

 36 35  0     1  0  0  0  0  0999 V2000
   -3.9802   -4.1473    2.2627 H   0  0  0  0  0  0  0  0  0  0  0  0
   -4.0568   -3.1275    1.8747 C   0  0  0  0  0  0  0  0  0  0  0  0
   -4.5640   -2.5074    2.6179 H   0  0  0  0  0  0  0  0  0  0  0  0
   -4.6490   -3.1434    0.9570 H   0  0  0  0  0  0  0  0  0  0  0  0
   -2.6741   -2.5717    1.5929 C   0  0  0  0  0  0  0  0  0  0  0  0
   -1.6856   -3.2593    1.7889 O   0  0  0  0  0  0  0  0  0  0  0  0
   -2.5309   -1.2945    1.0881 N   0  0  0  0  0  0  0  0  0  0  0  0
   -3.3759   -0.7245    1.0622 H   0  0  0  0  0  0  0  0  0  0  0  0
   -1.2529   -0.5628    1.0962 C   0  0  1  0  0  0  0  0  0  0  0  0
   -0.5727   -1.0277    1.8188 H   0  0  0  0  0  0  0  0  0  0  0  0
   -0.5810   -0.6239   -0.2891 C   0  0  0  0  0  0  0  0  0  0  0  0
    0.3905   -0.1199   -0.2506 H   0  0  0  0  0  0  0  0  0  0  0  0
   -0.3903   -1.6801   -0.5091 H   0  0  0  0  0  0  0  0  0  0  0  0
   -1.4265   -0.0120   -1.4214 C   0  0  0  0  0  0  0  0  0  0  0  0
   -2.4934   -0.1263   -1.2053 H   0  0  0  0  0  0  0  0  0  0  0  0
   -1.2169    1.0613   -1.4908 H   0  0  0  0  0  0  0  0  0  0  0  0
   -1.1237   -0.7093   -2.7448 C   0  0  0  0  0  0  0  0  0  0  0  0
   -0.0547   -0.6127   -2.9651 H   0  0  0  0  0  0  0  0  0  0  0  0
   -1.3662   -1.7738   -2.6521 H   0  0  0  0  0  0  0  0  0  0  0  0
   -1.9232   -0.0948   -3.8200 N   0  3  0  0  0  0  0  0  0  0  0  0
   -2.5420    0.6710   -3.5548 H   0  0  0  0  0  0  0  0  0  0  0  0
   -1.8788   -0.4801   -5.0625 C   0  0  0  0  0  0  0  0  0  0  0  0
   -1.0747   -1.5204   -5.4697 N   0  0  0  0  0  0  0  0  0  0  0  0
   -0.6349   -2.0913   -4.7506 H   0  0  0  0  0  0  0  0  0  0  0  0
   -1.2445   -1.9429   -6.3801 H   0  0  0  0  0  0  0  0  0  0  0  0
   -2.6538    0.1601   -6.0001 N   0  0  0  0  0  0  0  0  0  0  0  0
   -3.1134    1.0318   -5.7433 H   0  0  0  0  0  0  0  0  0  0  0  0
   -2.4561   -0.0022   -6.9859 H   0  0  0  0  0  0  0  0  0  0  0  0
   -1.4623    0.8917    1.5641 C   0  0  0  0  0  0  0  0  0  0  0  0
   -2.4147    1.5290    1.1264 O   0  0  0  0  0  0  0  0  0  0  0  0
   -0.6080    1.4736    2.4818 N   0  0  0  0  0  0  0  0  0  0  0  0
    0.1235    0.8914    2.8827 H   0  0  0  0  0  0  0  0  0  0  0  0
   -0.8089    2.8140    3.0227 C   0  0  0  0  0  0  0  0  0  0  0  0
   -1.7597    2.8715    3.5634 H   0  0  0  0  0  0  0  0  0  0  0  0
   -0.0014    3.0678    3.7166 H   0  0  0  0  0  0  0  0  0  0  0  0
   -0.8166    3.5567    2.2179 H   0  0  0  0  0  0  0  0  0  0  0  0
  1  2  1  0  0  0  0
  2  3  1  0  0  0  0
  2  4  1  0  0  0  0
  2  5  1  0  0  0  0
  5  6  2  0  0  0  0
  5  7  1  0  0  0  0
  7  8  1  0  0  0  0
  7  9  1  0  0  0  0
  9 10  1  0  0  0  0
  9 11  1  0  0  0  0
  9 29  1  0  0  0  0
 11 12  1  0  0  0  0
 11 13  1  0  0  0  0
 11 14  1  0  0  0  0
 14 15  1  0  0  0  0
 14 16  1  0  0  0  0
 14 17  1  0  0  0  0
 17 18  1  0  0  0  0
 17 19  1  0  0  0  0
 17 20  1  0  0  0  0
 20 21  1  0  0  0  0
 20 22  2  0  0  0  0
 22 23  1  0  0  0  0
 22 26  1  0  0  0  0
 23 24  1  0  0  0  0
 23 25  1  0  0  0  0
 26 27  1  0  0  0  0
 26 28  1  0  0  0  0
 29 30  2  0  0  0  0
 29 31  1  0  0  0  0
 31 32  1  0  0  0  0
 31 33  1  0  0  0  0
 33 34  1  0  0  0  0
 33 35  1  0  0  0  0
 33 36  1  0  0  0  0
M  CHG  1  20   1
M  END
$$$$

  -OEChem-03222214013D

 36 35  0     1  0  0  0  0  0999 V2000
   -3.9867   -4.1364    2.2650 H   0  0  0  0  0  0  0  0  0  0  0  0
   -4.0637   -3.1141    1.8836 C   0  0  0  0  0  0  0  0  0  0  0  0
   -4.5562   -2.4952    2.6377 H   0  0  0  0  0  0  0  0  0  0  0  0
   -4.6694   -3.1219    0.9746 H   0  0  0  0  0  0  0  0  0  0  0  0
   -2.6823   -2.5644    1.5851 C   0  0  0  0  0  0  0  0  0  0  0  0
   -1.6953   -3.2612    1.7541 O   0  0  0  0  0  0  0  0  0  0  0  0
   -2.5396   -1.2848    1.0873 N   0  0  0  0  0  0  0  0  0  0  0  0
   -3.3820   -0.7105    1.0817 H   0  0  0  0  0  0  0  0  0  0  0  0
   -1.2608   -0.5547    1.0982 C   0  0  1  0  0  0  0  0  0  0  0  0
   -0.5838   -1.0242    1.8207 H   0  0  0  0  0  0  0  0  0  0  0  0
   -0.5880   -0.6234   -0.2855 C   0  0  0  0  0  0  0  0  0  0  0  0
    0.3807   -0.1141   -0.2442 H   0  0  0  0  0  0  0  0  0  0  0  0
   -0.3853   -1.6791   -0.4978 H   0  0  0  0  0  0  0  0  0  0  0  0
   -1.4297   -0.0156   -1.4256 C   0  0  0  0  0  0  0  0  0  0  0  0
   -2.4677    0.1231   -1.1063 H   0  0  0  0  0  0  0  0  0  0  0  0
   -1.0312    0.9722   -1.6816 H   0  0  0  0  0  0  0  0  0  0  0  0
   -1.4163   -0.9333   -2.6450 C   0  0  0  0  0  0  0  0  0  0  0  0
   -0.3825   -1.0666   -2.9833 H   0  0  0  0  0  0  0  0  0  0  0  0
   -1.8186   -1.9115   -2.3588 H   0  0  0  0  0  0  0  0  0  0  0  0
   -2.2329   -0.3406   -3.7192 N   0  3  0  0  0  0  0  0  0  0  0  0
   -2.7024    0.5400   -3.5100 H   0  0  0  0  0  0  0  0  0  0  0  0
   -2.3881   -0.8858   -4.8907 C   0  0  0  0  0  0  0  0  0  0  0  0
   -1.7970   -2.0858   -5.2149 N   0  0  0  0  0  0  0  0  0  0  0  0
   -1.3644   -2.6198   -4.4638 H   0  0  0  0  0  0  0  0  0  0  0  0
   -2.1356   -2.5931   -6.0298 H   0  0  0  0  0  0  0  0  0  0  0  0
   -3.1637   -0.2570   -5.8352 N   0  0  0  0  0  0  0  0  0  0  0  0
   -3.4525    0.7052   -5.6684 H   0  0  0  0  0  0  0  0  0  0  0  0
   -3.1054   -0.5764   -6.8005 H   0  0  0  0  0  0  0  0  0  0  0  0
   -1.4592    0.8991    1.5735 C   0  0  0  0  0  0  0  0  0  0  0  0
   -2.4187    1.5390    1.1565 O   0  0  0  0  0  0  0  0  0  0  0  0
   -0.5983    1.4706    2.4914 N   0  0  0  0  0  0  0  0  0  0  0  0
    0.1409    0.8872    2.8760 H   0  0  0  0  0  0  0  0  0  0  0  0
   -0.7907    2.8082    3.0422 C   0  0  0  0  0  0  0  0  0  0  0  0
   -1.7387    2.8660    3.5879 H   0  0  0  0  0  0  0  0  0  0  0  0
    0.0213    3.0537    3.7339 H   0  0  0  0  0  0  0  0  0  0  0  0
   -0.7989    3.5563    2.2423 H   0  0  0  0  0  0  0  0  0  0  0  0
  1  2  1  0  0  0  0
  2  3  1  0  0  0  0
  2  4  1  0  0  0  0
  2  5  1  0  0  0  0
  5  6  2  0  0  0  0
  5  7  1  0  0  0  0
  7  8  1  0  0  0  0
  7  9  1  0  0  0  0
  9 10  1  0  0  0  0
  9 11  1  0  0  0  0
  9 29  1  0  0  0  0
 11 12  1  0  0  0  0
 11 13  1  0  0  0  0
 11 14  1  0  0  0  0
 14 15  1  0  0  0  0
 14 16  1  0  0  0  0
 14 17  1  0  0  0  0
 17 18  1  0  0  0  0
 17 19  1  0  0  0  0
 17 20  1  0  0  0  0
 20 21  1  0  0  0  0
 20 22  2  0  0  0  0
 22 23  1  0  0  0  0
 22 26  1  0  0  0  0
 23 24  1  0  0  0  0
 23 25  1  0  0  0  0
 26 27  1  0  0  0  0
 26 28  1  0  0  0  0
 29 30  2  0  0  0  0
 29 31  1  0  0  0  0
 31 32  1  0  0  0  0
 31 33  1  0  0  0  0
 33 34  1  0  0  0  0
 33 35  1  0  0  0  0
 33 36  1  0  0  0  0
M  CHG  1  20   1
M  END
$$$$

  -OEChem-03222214013D

 36 35  0     1  0  0  0  0  0999 V2000
   -4.0206   -4.1056    2.2337 H   0  0  0  0  0  0  0  0  0  0  0  0
   -4.0935   -3.0795    1.8618 C   0  0  0  0  0  0  0  0  0  0  0  0
   -4.5685   -2.4626    2.6287 H   0  0  0  0  0  0  0  0  0  0  0  0
   -4.7140   -3.0737    0.9630 H   0  0  0  0  0  0  0  0  0  0  0  0
   -2.7115   -2.5406    1.5455 C   0  0  0  0  0  0  0  0  0  0  0  0
   -1.7305   -3.2533    1.6787 O   0  0  0  0  0  0  0  0  0  0  0  0
   -2.5619   -1.2549    1.0662 N   0  0  0  0  0  0  0  0  0  0  0  0
   -3.3984   -0.6723    1.0857 H   0  0  0  0  0  0  0  0  0  0  0  0
   -1.2781   -0.5339    1.0925 C   0  0  1  0  0  0  0  0  0  0  0  0
   -0.6151   -1.0160    1.8196 H   0  0  0  0  0  0  0  0  0  0  0  0
   -0.5876   -0.6165   -0.2817 C   0  0  0  0  0  0  0  0  0  0  0  0
    0.3737   -0.0950   -0.2205 H   0  0  0  0  0  0  0  0  0  0  0  0
   -0.3635   -1.6691   -0.4882 H   0  0  0  0  0  0  0  0  0  0  0  0
   -1.4065   -0.0115   -1.4405 C   0  0  0  0  0  0  0  0  0  0  0  0
   -2.3539    0.3996   -1.0780 H   0  0  0  0  0  0  0  0  0  0  0  0
   -0.8404    0.8134   -1.8868 H   0  0  0  0  0  0  0  0  0  0  0  0
   -1.6943   -1.0760   -2.4968 C   0  0  0  0  0  0  0  0  0  0  0  0
   -0.7454   -1.4709   -2.8763 H   0  0  0  0  0  0  0  0  0  0  0  0
   -2.2517   -1.8966   -2.0311 H   0  0  0  0  0  0  0  0  0  0  0  0
   -2.4790   -0.4882   -3.5972 N   0  3  0  0  0  0  0  0  0  0  0  0
   -2.6670    0.5126   -3.5480 H   0  0  0  0  0  0  0  0  0  0  0  0
   -2.9334   -1.1757   -4.6043 C   0  0  0  0  0  0  0  0  0  0  0  0
   -2.6976   -2.5266   -4.7253 N   0  0  0  0  0  0  0  0  0  0  0  0
   -2.0214   -2.9500   -4.0926 H   0  0  0  0  0  0  0  0  0  0  0  0
   -2.8552   -2.9723   -5.6269 H   0  0  0  0  0  0  0  0  0  0  0  0
   -3.6685   -0.5437   -5.5785 N   0  0  0  0  0  0  0  0  0  0  0  0
   -3.9881    0.4084   -5.4098 H   0  0  0  0  0  0  0  0  0  0  0  0
   -4.1954   -1.1146   -6.2369 H   0  0  0  0  0  0  0  0  0  0  0  0
   -1.4604    0.9162    1.5876 C   0  0  0  0  0  0  0  0  0  0  0  0
   -2.4291    1.5633    1.2053 O   0  0  0  0  0  0  0  0  0  0  0  0
   -0.5936    1.4637    2.5150 N   0  0  0  0  0  0  0  0  0  0  0  0
    0.1528    0.8731    2.8739 H   0  0  0  0  0  0  0  0  0  0  0  0
   -0.7753    2.7909    3.0941 C   0  0  0  0  0  0  0  0  0  0  0  0
   -1.7163    2.8409    3.6524 H   0  0  0  0  0  0  0  0  0  0  0  0
    0.0460    3.0210    3.7801 H   0  0  0  0  0  0  0  0  0  0  0  0
   -0.7913    3.5542    2.3087 H   0  0  0  0  0  0  0  0  0  0  0  0
  1  2  1  0  0  0  0
  2  3  1  0  0  0  0
  2  4  1  0  0  0  0
  2  5  1  0  0  0  0
  5  6  2  0  0  0  0
  5  7  1  0  0  0  0
  7  8  1  0  0  0  0
  7  9  1  0  0  0  0
  9 10  1  0  0  0  0
  9 11  1  0  0  0  0
  9 29  1  0  0  0  0
 11 12  1  0  0  0  0
 11 13  1  0  0  0  0
 11 14  1  0  0  0  0
 14 15  1  0  0  0  0
 14 16  1  0  0  0  0
 14 17  1  0  0  0  0
 17 18  1  0  0  0  0
 17 19  1  0  0  0  0
 17 20  1  0  0  0  0
 20 21  1  0  0  0  0
 20 22  2  0  0  0  0
 22 23  1  0  0  0  0
 22 26  1  0  0  0  0
 23 24  1  0  0  0  0
 23 25  1  0  0  0  0
 26 27  1  0  0  0  0
 26 28  1  0  0  0  0
 29 30  2  0  0  0  0
 29 31  1  0  0  0  0
 31 32  1  0  0  0  0
 31 33  1  0  0  0  0
 33 34  1  0  0  0  0
 33 35  1  0  0  0  0
 33 36  1  0  0  0  0
M  CHG  1  20   1
M  END
$$$$

  -OEChem-03222214013D

 36 35  0     1  0  0  0  0  0999 V2000
   -4.0344   -4.0673    2.2654 H   0  0  0  0  0  0  0  0  0  0  0  0
   -4.1062   -3.0500    1.8698 C   0  0  0  0  0  0  0  0  0  0  0  0
   -4.5786   -2.4148    2.6232 H   0  0  0  0  0  0  0  0  0  0  0  0
   -4.7273   -3.0633    0.9716 H   0  0  0  0  0  0  0  0  0  0  0  0
   -2.7239   -2.5213    1.5392 C   0  0  0  0  0  0  0  0  0  0  0  0
   -1.7494   -3.2472    1.6434 O   0  0  0  0  0  0  0  0  0  0  0  0
   -2.5700   -1.2342    1.0653 N   0  0  0  0  0  0  0  0  0  0  0  0
   -3.4004   -0.6433    1.1064 H   0  0  0  0  0  0  0  0  0  0  0  0
   -1.2827   -0.5197    1.0865 C   0  0  1  0  0  0  0  0  0  0  0  0
   -0.6237   -1.0063    1.8146 H   0  0  0  0  0  0  0  0  0  0  0  0
   -0.5890   -0.6195   -0.2855 C   0  0  0  0  0  0  0  0  0  0  0  0
    0.3636   -0.0828   -0.2190 H   0  0  0  0  0  0  0  0  0  0  0  0
   -0.3460   -1.6688   -0.4877 H   0  0  0  0  0  0  0  0  0  0  0  0
   -1.3989   -0.0248   -1.4536 C   0  0  0  0  0  0  0  0  0  0  0  0
   -2.1908    0.6370   -1.0920 H   0  0  0  0  0  0  0  0  0  0  0  0
   -0.7293    0.5740   -2.0803 H   0  0  0  0  0  0  0  0  0  0  0  0
   -2.0004   -1.1479   -2.2949 C   0  0  0  0  0  0  0  0  0  0  0  0
   -1.1905   -1.7604   -2.7065 H   0  0  0  0  0  0  0  0  0  0  0  0
   -2.6209   -1.7806   -1.6502 H   0  0  0  0  0  0  0  0  0  0  0  0
   -2.8154   -0.5762   -3.3818 N   0  3  0  0  0  0  0  0  0  0  0  0
   -2.8532    0.4405   -3.4453 H   0  0  0  0  0  0  0  0  0  0  0  0
   -3.4835   -1.2958   -4.2360 C   0  0  0  0  0  0  0  0  0  0  0  0
   -3.4594   -2.6715   -4.1986 N   0  0  0  0  0  0  0  0  0  0  0  0
   -2.7726   -3.1172   -3.5932 H   0  0  0  0  0  0  0  0  0  0  0  0
   -3.7880   -3.1884   -5.0116 H   0  0  0  0  0  0  0  0  0  0  0  0
   -4.2343   -0.6754   -5.2062 N   0  0  0  0  0  0  0  0  0  0  0  0
   -4.3979    0.3271   -5.1330 H   0  0  0  0  0  0  0  0  0  0  0  0
   -4.9069   -1.2319   -5.7308 H   0  0  0  0  0  0  0  0  0  0  0  0
   -1.4559    0.9291    1.5898 C   0  0  0  0  0  0  0  0  0  0  0  0
   -2.4411    1.5703    1.2408 O   0  0  0  0  0  0  0  0  0  0  0  0
   -0.5812    1.4692    2.5141 N   0  0  0  0  0  0  0  0  0  0  0  0
    0.1764    0.8807    2.8522 H   0  0  0  0  0  0  0  0  0  0  0  0
   -0.7701    2.7829    3.1216 C   0  0  0  0  0  0  0  0  0  0  0  0
   -1.7113    2.8158    3.6809 H   0  0  0  0  0  0  0  0  0  0  0  0
    0.0498    3.0027    3.8127 H   0  0  0  0  0  0  0  0  0  0  0  0
   -0.7905    3.5629    2.3530 H   0  0  0  0  0  0  0  0  0  0  0  0
  1  2  1  0  0  0  0
  2  3  1  0  0  0  0
  2  4  1  0  0  0  0
  2  5  1  0  0  0  0
  5  6  2  0  0  0  0
  5  7  1  0  0  0  0
  7  8  1  0  0  0  0
  7  9  1  0  0  0  0
  9 10  1  0  0  0  0
  9 11  1  0  0  0  0
  9 29  1  0  0  0  0
 11 12  1  0  0  0  0
 11 13  1  0  0  0  0
 11 14  1  0  0  0  0
 14 15  1  0  0  0  0
 14 16  1  0  0  0  0
 14 17  1  0  0  0  0
 17 18  1  0  0  0  0
 17 19  1  0  0  0  0
 17 20  1  0  0  0  0
 20 21  1  0  0  0  0
 20 22  2  0  0  0  0
 22 23  1  0  0  0  0
 22 26  1  0  0  0  0
 23 24  1  0  0  0  0
 23 25  1  0  0  0  0
 26 27  1  0  0  0  0
 26 28  1  0  0  0  0
 29 30  2  0  0  0  0
 29 31  1  0  0  0  0
 31 32  1  0  0  0  0
 31 33  1  0  0  0  0
 33 34  1  0  0  0  0
 33 35  1  0  0  0  0
 33 36  1  0  0  0  0
M  CHG  1  20   1
M  END
$$$$

  -OEChem-03222214013D

 36 35  0     1  0  0  0  0  0999 V2000
   -4.0362   -4.0959    2.3233 H   0  0  0  0  0  0  0  0  0  0  0  0
   -4.0989   -3.0379    2.0534 C   0  0  0  0  0  0  0  0  0  0  0  0
   -4.4625   -2.4763    2.9177 H   0  0  0  0  0  0  0  0  0  0  0  0
   -4.8077   -2.9268    1.2301 H   0  0  0  0  0  0  0  0  0  0  0  0
   -2.7328   -2.5240    1.6415 C   0  0  0  0  0  0  0  0  0  0  0  0
   -1.7608   -3.2584    1.6917 O   0  0  0  0  0  0  0  0  0  0  0  0
   -2.5942   -1.2418    1.1503 N   0  0  0  0  0  0  0  0  0  0  0  0
   -3.4160   -0.6437    1.2385 H   0  0  0  0  0  0  0  0  0  0  0  0
   -1.3029   -0.5349    1.1109 C   0  0  1  0  0  0  0  0  0  0  0  0
   -0.6197   -1.0169    1.8196 H   0  0  0  0  0  0  0  0  0  0  0  0
   -0.6480   -0.6392   -0.2819 C   0  0  0  0  0  0  0  0  0  0  0  0
    0.3059   -0.1027   -0.2397 H   0  0  0  0  0  0  0  0  0  0  0  0
   -0.4127   -1.6884   -0.4919 H   0  0  0  0  0  0  0  0  0  0  0  0
   -1.4784   -0.0498   -1.4362 C   0  0  0  0  0  0  0  0  0  0  0  0
   -2.0608    0.8129   -1.1007 H   0  0  0  0  0  0  0  0  0  0  0  0
   -0.7928    0.3009   -2.2150 H   0  0  0  0  0  0  0  0  0  0  0  0
   -2.3945   -1.1165   -2.0344 C   0  0  0  0  0  0  0  0  0  0  0  0
   -1.7806   -1.9388   -2.4178 H   0  0  0  0  0  0  0  0  0  0  0  0
   -3.0492   -1.5112   -1.2500 H   0  0  0  0  0  0  0  0  0  0  0  0
   -3.2050   -0.5290   -3.1160 N   0  3  0  0  0  0  0  0  0  0  0  0
   -3.1821    0.4856   -3.2107 H   0  0  0  0  0  0  0  0  0  0  0  0
   -3.9569   -1.2288   -3.9150 C   0  0  0  0  0  0  0  0  0  0  0  0
   -4.0297   -2.6006   -3.8253 N   0  0  0  0  0  0  0  0  0  0  0  0
   -3.3606   -3.0729   -3.2201 H   0  0  0  0  0  0  0  0  0  0  0  0
   -4.4167   -3.1214   -4.6098 H   0  0  0  0  0  0  0  0  0  0  0  0
   -4.7010   -0.5897   -4.8781 N   0  0  0  0  0  0  0  0  0  0  0  0
   -4.7879    0.4241   -4.8369 H   0  0  0  0  0  0  0  0  0  0  0  0
   -5.4359   -1.1125   -5.3512 H   0  0  0  0  0  0  0  0  0  0  0  0
   -1.4589    0.9169    1.6105 C   0  0  0  0  0  0  0  0  0  0  0  0
   -2.4615    1.5499    1.2967 O   0  0  0  0  0  0  0  0  0  0  0  0
   -0.5510    1.4684    2.4952 N   0  0  0  0  0  0  0  0  0  0  0  0
    0.2296    0.8912    2.7984 H   0  0  0  0  0  0  0  0  0  0  0  0
   -0.7116    2.7932    3.0863 C   0  0  0  0  0  0  0  0  0  0  0  0
   -1.6144    2.8307    3.7049 H   0  0  0  0  0  0  0  0  0  0  0  0
    0.1494    3.0343    3.7177 H   0  0  0  0  0  0  0  0  0  0  0  0
   -0.7890    3.5569    2.3051 H   0  0  0  0  0  0  0  0  0  0  0  0
  1  2  1  0  0  0  0
  2  3  1  0  0  0  0
  2  4  1  0  0  0  0
  2  5  1  0  0  0  0
  5  6  2  0  0  0  0
  5  7  1  0  0  0  0
  7  8  1  0  0  0  0
  7  9  1  0  0  0  0
  9 10  1  0  0  0  0
  9 11  1  0  0  0  0
  9 29  1  0  0  0  0
 11 12  1  0  0  0  0
 11 13  1  0  0  0  0
 11 14  1  0  0  0  0
 14 15  1  0  0  0  0
 14 16  1  0  0  0  0
 14 17  1  0  0  0  0
 17 18  1  0  0  0  0
 17 19  1  0  0  0  0
 17 20  1  0  0  0  0
 20 21  1  0  0  0  0
 20 22  2  0  0  0  0
 22 23  1  0  0  0  0
 22 26  1  0  0  0  0
 23 24  1  0  0  0  0
 23 25  1  0  0  0  0
 26 27  1  0  0  0  0
 26 28  1  0  0  0  0
 29 30  2  0  0  0  0
 29 31  1  0  0  0  0
 31 32  1  0  0  0  0
 31 33  1  0  0  0  0
 33 34  1  0  0  0  0
 33 35  1  0  0  0  0
 33 36  1  0  0  0  0
M  CHG  1  20   1
M  END
$$$$

  -OEChem-03222214013D

 36 35  0     1  0  0  0  0  0999 V2000
   -3.9470   -4.0876    2.6749 H   0  0  0  0  0  0  0  0  0  0  0  0
   -4.0307   -3.0343    2.3919 C   0  0  0  0  0  0  0  0  0  0  0  0
   -4.2956   -2.4529    3.2786 H   0  0  0  0  0  0  0  0  0  0  0  0
   -4.8233   -2.9320    1.6474 H   0  0  0  0  0  0  0  0  0  0  0  0
   -2.7135   -2.5403    1.8254 C   0  0  0  0  0  0  0  0  0  0  0  0
   -1.7500   -3.2857    1.7714 O   0  0  0  0  0  0  0  0  0  0  0  0
   -2.6147   -1.2589    1.3226 N   0  0  0  0  0  0  0  0  0  0  0  0
   -3.4132   -0.6514    1.5067 H   0  0  0  0  0  0  0  0  0  0  0  0
   -1.3262   -0.5683    1.1508 C   0  0  1  0  0  0  0  0  0  0  0  0
   -0.5779   -1.0600    1.7829 H   0  0  0  0  0  0  0  0  0  0  0  0
   -0.8065   -0.6405   -0.3021 C   0  0  0  0  0  0  0  0  0  0  0  0
    0.1604   -0.1273   -0.3359 H   0  0  0  0  0  0  0  0  0  0  0  0
   -0.6193   -1.6903   -0.5530 H   0  0  0  0  0  0  0  0  0  0  0  0
   -1.7127   -0.0209   -1.3833 C   0  0  0  0  0  0  0  0  0  0  0  0
   -2.0410    0.9776   -1.0780 H   0  0  0  0  0  0  0  0  0  0  0  0
   -1.1200    0.0956   -2.2970 H   0  0  0  0  0  0  0  0  0  0  0  0
   -2.9223   -0.9013   -1.6944 C   0  0  0  0  0  0  0  0  0  0  0  0
   -2.5713   -1.9041   -1.9576 H   0  0  0  0  0  0  0  0  0  0  0  0
   -3.5555   -0.9830   -0.8060 H   0  0  0  0  0  0  0  0  0  0  0  0
   -3.6984   -0.3074   -2.7987 N   0  3  0  0  0  0  0  0  0  0  0  0
   -3.7508    0.7105   -2.8257 H   0  0  0  0  0  0  0  0  0  0  0  0
   -4.3479   -1.0023   -3.6876 C   0  0  0  0  0  0  0  0  0  0  0  0
   -4.3303   -2.3786   -3.6926 N   0  0  0  0  0  0  0  0  0  0  0  0
   -3.6685   -2.8484   -3.0781 H   0  0  0  0  0  0  0  0  0  0  0  0
   -4.6355   -2.8681   -4.5312 H   0  0  0  0  0  0  0  0  0  0  0  0
   -5.0764   -0.3529   -4.6558 N   0  0  0  0  0  0  0  0  0  0  0  0
   -5.2363    0.6483   -4.5595 H   0  0  0  0  0  0  0  0  0  0  0  0
   -5.7434   -0.8922   -5.2049 H   0  0  0  0  0  0  0  0  0  0  0  0
   -1.4287    0.8811    1.6686 C   0  0  0  0  0  0  0  0  0  0  0  0
   -2.4468    1.5240    1.4338 O   0  0  0  0  0  0  0  0  0  0  0  0
   -0.4371    1.4286    2.4610 N   0  0  0  0  0  0  0  0  0  0  0  0
    0.3601    0.8431    2.6985 H   0  0  0  0  0  0  0  0  0  0  0  0
   -0.5332    2.7556    3.0615 C   0  0  0  0  0  0  0  0  0  0  0  0
   -1.3934    2.8096    3.7372 H   0  0  0  0  0  0  0  0  0  0  0  0
    0.3712    2.9792    3.6365 H   0  0  0  0  0  0  0  0  0  0  0  0
   -0.6464    3.5214    2.2868 H   0  0  0  0  0  0  0  0  0  0  0  0
  1  2  1  0  0  0  0
  2  3  1  0  0  0  0
  2  4  1  0  0  0  0
  2  5  1  0  0  0  0
  5  6  2  0  0  0  0
  5  7  1  0  0  0  0
  7  8  1  0  0  0  0
  7  9  1  0  0  0  0
  9 10  1  0  0  0  0
  9 11  1  0  0  0  0
  9 29  1  0  0  0  0
 11 12  1  0  0  0  0
 11 13  1  0  0  0  0
 11 14  1  0  0  0  0
 14 15  1  0  0  0  0
 14 16  1  0  0  0  0
 14 17  1  0  0  0  0
 17 18  1  0  0  0  0
 17 19  1  0  0  0  0
 17 20  1  0  0  0  0
 20 21  1  0  0  0  0
 20 22  2  0  0  0  0
 22 23  1  0  0  0  0
 22 26  1  0  0  0  0
 23 24  1  0  0  0  0
 23 25  1  0  0  0  0
 26 27  1  0  0  0  0
 26 28  1  0  0  0  0
 29 30  2  0  0  0  0
 29 31  1  0  0  0  0
 31 32  1  0  0  0  0
 31 33  1  0  0  0  0
 33 34  1  0  0  0  0
 33 35  1  0  0  0  0
 33 36  1  0  0  0  0
M  CHG  1  20   1
M  END
$$$$

  -OEChem-03222214013D

 36 35  0     1  0  0  0  0  0999 V2000
   -3.8695   -4.0444    3.0453 H   0  0  0  0  0  0  0  0  0  0  0  0
   -3.9960   -3.0140    2.7006 C   0  0  0  0  0  0  0  0  0  0  0  0
   -4.1850   -2.3765    3.5679 H   0  0  0  0  0  0  0  0  0  0  0  0
   -4.8564   -2.9702    2.0292 H   0  0  0  0  0  0  0  0  0  0  0  0
   -2.7462   -2.5498    1.9780 C   0  0  0  0  0  0  0  0  0  0  0  0
   -1.8227   -3.3239    1.7904 O   0  0  0  0  0  0  0  0  0  0  0  0
   -2.6654   -1.2620    1.4867 N   0  0  0  0  0  0  0  0  0  0  0  0
   -3.4083   -0.6299    1.7851 H   0  0  0  0  0  0  0  0  0  0  0  0
   -1.3824   -0.6183    1.1569 C   0  0  1  0  0  0  0  0  0  0  0  0
   -0.5749   -1.1532    1.6698 H   0  0  0  0  0  0  0  0  0  0  0  0
   -1.0610   -0.6432   -0.3550 C   0  0  0  0  0  0  0  0  0  0  0  0
   -0.0757   -0.1873   -0.5007 H   0  0  0  0  0  0  0  0  0  0  0  0
   -0.9768   -1.6917   -0.6601 H   0  0  0  0  0  0  0  0  0  0  0  0
   -2.0573    0.0580   -1.3010 C   0  0  0  0  0  0  0  0  0  0  0  0
   -2.0977    1.1268   -1.0633 H   0  0  0  0  0  0  0  0  0  0  0  0
   -1.6719   -0.0335   -2.3216 H   0  0  0  0  0  0  0  0  0  0  0  0
   -3.4696   -0.5214   -1.2444 C   0  0  0  0  0  0  0  0  0  0  0  0
   -3.4257   -1.6138   -1.2979 H   0  0  0  0  0  0  0  0  0  0  0  0
   -3.9264   -0.2574   -0.2851 H   0  0  0  0  0  0  0  0  0  0  0  0
   -4.2878    0.0309   -2.3399 N   0  3  0  0  0  0  0  0  0  0  0  0
   -4.6184    0.9888   -2.2237 H   0  0  0  0  0  0  0  0  0  0  0  0
   -4.6077   -0.6290   -3.4158 C   0  0  0  0  0  0  0  0  0  0  0  0
   -4.1688   -1.9147   -3.6393 N   0  0  0  0  0  0  0  0  0  0  0  0
   -3.4479   -2.2843   -3.0221 H   0  0  0  0  0  0  0  0  0  0  0  0
   -4.2355   -2.2976   -4.5801 H   0  0  0  0  0  0  0  0  0  0  0  0
   -5.4002   -0.0304   -4.3659 N   0  0  0  0  0  0  0  0  0  0  0  0
   -5.8725    0.8399   -4.1285 H   0  0  0  0  0  0  0  0  0  0  0  0
   -5.8161   -0.6159   -5.0878 H   0  0  0  0  0  0  0  0  0  0  0  0
   -1.3678    0.8203    1.7109 C   0  0  0  0  0  0  0  0  0  0  0  0
   -2.3771    1.5083    1.5944 O   0  0  0  0  0  0  0  0  0  0  0  0
   -0.2656    1.3192    2.3788 N   0  0  0  0  0  0  0  0  0  0  0  0
    0.5286    0.6986    2.5163 H   0  0  0  0  0  0  0  0  0  0  0  0
   -0.2298    2.6465    2.9847 C   0  0  0  0  0  0  0  0  0  0  0  0
   -0.9900    2.7316    3.7688 H   0  0  0  0  0  0  0  0  0  0  0  0
    0.7510    2.8320    3.4341 H   0  0  0  0  0  0  0  0  0  0  0  0
   -0.4139    3.4190    2.2302 H   0  0  0  0  0  0  0  0  0  0  0  0
  1  2  1  0  0  0  0
  2  3  1  0  0  0  0
  2  4  1  0  0  0  0
  2  5  1  0  0  0  0
  5  6  2  0  0  0  0
  5  7  1  0  0  0  0
  7  8  1  0  0  0  0
  7  9  1  0  0  0  0
  9 10  1  0  0  0  0
  9 11  1  0  0  0  0
  9 29  1  0  0  0  0
 11 12  1  0  0  0  0
 11 13  1  0  0  0  0
 11 14  1  0  0  0  0
 14 15  1  0  0  0  0
 14 16  1  0  0  0  0
 14 17  1  0  0  0  0
 17 18  1  0  0  0  0
 17 19  1  0  0  0  0
 17 20  1  0  0  0  0
 20 21  1  0  0  0  0
 20 22  2  0  0  0  0
 22 23  1  0  0  0  0
 22 26  1  0  0  0  0
 23 24  1  0  0  0  0
 23 25  1  0  0  0  0
 26 27  1  0  0  0  0
 26 28  1  0  0  0  0
 29 30  2  0  0  0  0
 29 31  1  0  0  0  0
 31 32  1  0  0  0  0
 31 33  1  0  0  0  0
 33 34  1  0  0  0  0
 33 35  1  0  0  0  0
 33 36  1  0  0  0  0
M  CHG  1  20   1
M  END
$$$$

  -OEChem-03222214013D

 36 35  0     1  0  0  0  0  0999 V2000
   -3.5413   -4.2743    2.8326 H   0  0  0  0  0  0  0  0  0  0  0  0
   -3.7623   -3.3141    2.3572 C   0  0  0  0  0  0  0  0  0  0  0  0
   -4.2056   -2.6501    3.1032 H   0  0  0  0  0  0  0  0  0  0  0  0
   -4.4786   -3.4785    1.5495 H   0  0  0  0  0  0  0  0  0  0  0  0
   -2.4874   -2.7032    1.8079 C   0  0  0  0  0  0  0  0  0  0  0  0
   -1.4581   -3.3554    1.7912 O   0  0  0  0  0  0  0  0  0  0  0  0
   -2.4927   -1.4141    1.3104 N   0  0  0  0  0  0  0  0  0  0  0  0
   -3.3270   -0.8683    1.5206 H   0  0  0  0  0  0  0  0  0  0  0  0
   -1.2535   -0.6313    1.1537 C   0  0  1  0  0  0  0  0  0  0  0  0
   -0.4683   -1.0724    1.7787 H   0  0  0  0  0  0  0  0  0  0  0  0
   -0.7167   -0.5869   -0.2961 C   0  0  0  0  0  0  0  0  0  0  0  0
    0.2355   -0.0454   -0.2960 H   0  0  0  0  0  0  0  0  0  0  0  0
   -0.4951   -1.6206   -0.5841 H   0  0  0  0  0  0  0  0  0  0  0  0
   -1.6140    0.0203   -1.3972 C   0  0  0  0  0  0  0  0  0  0  0  0
   -1.5867    1.1105   -1.2915 H   0  0  0  0  0  0  0  0  0  0  0  0
   -1.1726   -0.2280   -2.3683 H   0  0  0  0  0  0  0  0  0  0  0  0
   -3.0755   -0.4208   -1.3804 C   0  0  0  0  0  0  0  0  0  0  0  0
   -3.1234   -1.5133   -1.4492 H   0  0  0  0  0  0  0  0  0  0  0  0
   -3.5329   -0.1044   -0.4371 H   0  0  0  0  0  0  0  0  0  0  0  0
   -3.7856    0.2021   -2.5128 N   0  3  0  0  0  0  0  0  0  0  0  0
   -3.2593    0.8678   -3.0764 H   0  0  0  0  0  0  0  0  0  0  0  0
   -5.0414   -0.0037   -2.7818 C   0  0  0  0  0  0  0  0  0  0  0  0
   -5.8140   -0.8506   -2.0221 N   0  0  0  0  0  0  0  0  0  0  0  0
   -5.4231   -1.1758   -1.1410 H   0  0  0  0  0  0  0  0  0  0  0  0
   -6.8266   -0.7874   -2.1031 H   0  0  0  0  0  0  0  0  0  0  0  0
   -5.6213    0.6398   -3.8489 N   0  0  0  0  0  0  0  0  0  0  0  0
   -5.0207    1.1246   -4.5129 H   0  0  0  0  0  0  0  0  0  0  0  0
   -6.5309    0.3182   -4.1746 H   0  0  0  0  0  0  0  0  0  0  0  0
   -1.4907    0.7964    1.6852 C   0  0  0  0  0  0  0  0  0  0  0  0
   -2.5531    1.3538    1.4226 O   0  0  0  0  0  0  0  0  0  0  0  0
   -0.5644    1.4216    2.4982 N   0  0  0  0  0  0  0  0  0  0  0  0
    0.2779    0.9060    2.7437 H   0  0  0  0  0  0  0  0  0  0  0  0
   -0.7756    2.7384    3.0911 C   0  0  0  0  0  0  0  0  0  0  0  0
   -1.6663    2.7355    3.7284 H   0  0  0  0  0  0  0  0  0  0  0  0
    0.0856    3.0200    3.7053 H   0  0  0  0  0  0  0  0  0  0  0  0
   -0.9035    3.4958    2.3106 H   0  0  0  0  0  0  0  0  0  0  0  0
  1  2  1  0  0  0  0
  2  3  1  0  0  0  0
  2  4  1  0  0  0  0
  2  5  1  0  0  0  0
  5  6  2  0  0  0  0
  5  7  1  0  0  0  0
  7  8  1  0  0  0  0
  7  9  1  0  0  0  0
  9 10  1  0  0  0  0
  9 11  1  0  0  0  0
  9 29  1  0  0  0  0
 11 12  1  0  0  0  0
 11 13  1  0  0  0  0
 11 14  1  0  0  0  0
 14 15  1  0  0  0  0
 14 16  1  0  0  0  0
 14 17  1  0  0  0  0
 17 18  1  0  0  0  0
 17 19  1  0  0  0  0
 17 20  1  0  0  0  0
 20 21  1  0  0  0  0
 20 22  2  0  0  0  0
 22 23  1  0  0  0  0
 22 26  1  0  0  0  0
 23 24  1  0  0  0  0
 23 25  1  0  0  0  0
 26 27  1  0  0  0  0
 26 28  1  0  0  0  0
 29 30  2  0  0  0  0
 29 31  1  0  0  0  0
 31 32  1  0  0  0  0
 31 33  1  0  0  0  0
 33 34  1  0  0  0  0
 33 35  1  0  0  0  0
 33 36  1  0  0  0  0
M  CHG  1  20   1
M  END
$$$$

  -OEChem-03222214013D

 36 35  0     1  0  0  0  0  0999 V2000
   -2.8721   -4.7332    2.7048 H   0  0  0  0  0  0  0  0  0  0  0  0
   -3.2683   -3.7967    2.3006 C   0  0  0  0  0  0  0  0  0  0  0  0
   -3.8569   -3.3027    3.0774 H   0  0  0  0  0  0  0  0  0  0  0  0
   -3.9153   -4.0272    1.4510 H   0  0  0  0  0  0  0  0  0  0  0  0
   -2.1288   -2.8980    1.8598 C   0  0  0  0  0  0  0  0  0  0  0  0
   -0.9751   -3.2677    1.9933 O   0  0  0  0  0  0  0  0  0  0  0  0
   -2.3956   -1.6622    1.3001 N   0  0  0  0  0  0  0  0  0  0  0  0
   -3.3589   -1.3444    1.3762 H   0  0  0  0  0  0  0  0  0  0  0  0
   -1.3602   -0.6270    1.1219 C   0  0  1  0  0  0  0  0  0  0  0  0
   -0.5150   -0.8587    1.7801 H   0  0  0  0  0  0  0  0  0  0  0  0
   -0.8047   -0.5646   -0.3217 C   0  0  0  0  0  0  0  0  0  0  0  0
    0.0138    0.1631   -0.3507 H   0  0  0  0  0  0  0  0  0  0  0  0
   -0.3588   -1.5453   -0.5216 H   0  0  0  0  0  0  0  0  0  0  0  0
   -1.7684   -0.2559   -1.4942 C   0  0  0  0  0  0  0  0  0  0  0  0
   -1.7754    0.8322   -1.6196 H   0  0  0  0  0  0  0  0  0  0  0  0
   -1.3547   -0.6848   -2.4133 H   0  0  0  0  0  0  0  0  0  0  0  0
   -3.2202   -0.7127   -1.3302 C   0  0  0  0  0  0  0  0  0  0  0  0
   -3.2645   -1.8048   -1.4043 H   0  0  0  0  0  0  0  0  0  0  0  0
   -3.5945   -0.4373   -0.3422 H   0  0  0  0  0  0  0  0  0  0  0  0
   -4.0691   -0.0957   -2.3656 N   0  3  0  0  0  0  0  0  0  0  0  0
   -4.0484   -0.5177   -3.2929 H   0  0  0  0  0  0  0  0  0  0  0  0
   -4.8260    0.9440   -2.1513 C   0  0  0  0  0  0  0  0  0  0  0  0
   -4.8809    1.5809   -0.9319 N   0  0  0  0  0  0  0  0  0  0  0  0
   -4.1742    1.3422   -0.2268 H   0  0  0  0  0  0  0  0  0  0  0  0
   -5.2911    2.5097   -0.8828 H   0  0  0  0  0  0  0  0  0  0  0  0
   -5.6031    1.4335   -3.1739 N   0  0  0  0  0  0  0  0  0  0  0  0
   -5.7199    0.8676   -4.0119 H   0  0  0  0  0  0  0  0  0  0  0  0
   -6.3364    2.1015   -2.9437 H   0  0  0  0  0  0  0  0  0  0  0  0
   -1.8732    0.7593    1.5643 C   0  0  0  0  0  0  0  0  0  0  0  0
   -2.9834    1.1423    1.1965 O   0  0  0  0  0  0  0  0  0  0  0  0
   -1.0870    1.5869    2.3425 N   0  0  0  0  0  0  0  0  0  0  0  0
   -0.1961    1.2181    2.6701 H   0  0  0  0  0  0  0  0  0  0  0  0
   -1.5260    2.8851    2.8436 C   0  0  0  0  0  0  0  0  0  0  0  0
   -2.4186    2.7748    3.4689 H   0  0  0  0  0  0  0  0  0  0  0  0
   -0.7370    3.3430    3.4492 H   0  0  0  0  0  0  0  0  0  0  0  0
   -1.7571    3.5608    2.0136 H   0  0  0  0  0  0  0  0  0  0  0  0
  1  2  1  0  0  0  0
  2  3  1  0  0  0  0
  2  4  1  0  0  0  0
  2  5  1  0  0  0  0
  5  6  2  0  0  0  0
  5  7  1  0  0  0  0
  7  8  1  0  0  0  0
  7  9  1  0  0  0  0
  9 10  1  0  0  0  0
  9 11  1  0  0  0  0
  9 29  1  0  0  0  0
 11 12  1  0  0  0  0
 11 13  1  0  0  0  0
 11 14  1  0  0  0  0
 14 15  1  0  0  0  0
 14 16  1  0  0  0  0
 14 17  1  0  0  0  0
 17 18  1  0  0  0  0
 17 19  1  0  0  0  0
 17 20  1  0  0  0  0
 20 21  1  0  0  0  0
 20 22  2  0  0  0  0
 22 23  1  0  0  0  0
 22 26  1  0  0  0  0
 23 24  1  0  0  0  0
 23 25  1  0  0  0  0
 26 27  1  0  0  0  0
 26 28  1  0  0  0  0
 29 30  2  0  0  0  0
 29 31  1  0  0  0  0
 31 32  1  0  0  0  0
 31 33  1  0  0  0  0
 33 34  1  0  0  0  0
 33 35  1  0  0  0  0
 33 36  1  0  0  0  0
M  CHG  1  20   1
M  END
$$$$

  -OEChem-03222214013D

 36 35  0     1  0  0  0  0  0999 V2000
   -2.8985   -4.7655    2.5209 H   0  0  0  0  0  0  0  0  0  0  0  0
   -3.2962   -3.7851    2.2430 C   0  0  0  0  0  0  0  0  0  0  0  0
   -3.8095   -3.3571    3.1074 H   0  0  0  0  0  0  0  0  0  0  0  0
   -4.0118   -3.9163    1.4282 H   0  0  0  0  0  0  0  0  0  0  0  0
   -2.1674   -2.8721    1.8050 C   0  0  0  0  0  0  0  0  0  0  0  0
   -1.0119   -3.2548    1.8733 O   0  0  0  0  0  0  0  0  0  0  0  0
   -2.4484   -1.6072    1.3222 N   0  0  0  0  0  0  0  0  0  0  0  0
   -3.4094   -1.2943    1.4377 H   0  0  0  0  0  0  0  0  0  0  0  0
   -1.4181   -0.5677    1.1436 C   0  0  1  0  0  0  0  0  0  0  0  0
   -0.5630   -0.8402    1.7724 H   0  0  0  0  0  0  0  0  0  0  0  0
   -0.8781   -0.5162   -0.3052 C   0  0  0  0  0  0  0  0  0  0  0  0
   -0.0609    0.2124   -0.3433 H   0  0  0  0  0  0  0  0  0  0  0  0
   -0.4288   -1.4970   -0.4978 H   0  0  0  0  0  0  0  0  0  0  0  0
   -1.8415   -0.2251   -1.4852 C   0  0  0  0  0  0  0  0  0  0  0  0
   -1.6496    0.8083   -1.7934 H   0  0  0  0  0  0  0  0  0  0  0  0
   -1.5735   -0.8661   -2.3319 H   0  0  0  0  0  0  0  0  0  0  0  0
   -3.3446   -0.3533   -1.2130 C   0  0  0  0  0  0  0  0  0  0  0  0
   -3.6197   -1.4131   -1.2479 H   0  0  0  0  0  0  0  0  0  0  0  0
   -3.5900    0.0038   -0.2150 H   0  0  0  0  0  0  0  0  0  0  0  0
   -4.1184    0.4018   -2.2159 N   0  3  0  0  0  0  0  0  0  0  0  0
   -4.1549    0.0156   -3.1582 H   0  0  0  0  0  0  0  0  0  0  0  0
   -4.7454    1.5150   -1.9573 C   0  0  0  0  0  0  0  0  0  0  0  0
   -4.7281    2.1054   -0.7140 N   0  0  0  0  0  0  0  0  0  0  0  0
   -4.0766    1.7415   -0.0096 H   0  0  0  0  0  0  0  0  0  0  0  0
   -5.0198    3.0750   -0.6250 H   0  0  0  0  0  0  0  0  0  0  0  0
   -5.4554    2.1349   -2.9575 N   0  0  0  0  0  0  0  0  0  0  0  0
   -5.6387    1.6210   -3.8167 H   0  0  0  0  0  0  0  0  0  0  0  0
   -6.1044    2.8750   -2.6974 H   0  0  0  0  0  0  0  0  0  0  0  0
   -1.8447    0.8237    1.6630 C   0  0  0  0  0  0  0  0  0  0  0  0
   -2.9563    1.2755    1.3979 O   0  0  0  0  0  0  0  0  0  0  0  0
   -0.9746    1.5845    2.4203 N   0  0  0  0  0  0  0  0  0  0  0  0
   -0.0865    1.1608    2.6828 H   0  0  0  0  0  0  0  0  0  0  0  0
   -1.3331    2.8670    3.0176 C   0  0  0  0  0  0  0  0  0  0  0  0
   -2.1663    2.7453    3.7182 H   0  0  0  0  0  0  0  0  0  0  0  0
   -0.4803    3.2806    3.5653 H   0  0  0  0  0  0  0  0  0  0  0  0
   -1.6242    3.5848    2.2437 H   0  0  0  0  0  0  0  0  0  0  0  0
  1  2  1  0  0  0  0
  2  3  1  0  0  0  0
  2  4  1  0  0  0  0
  2  5  1  0  0  0  0
  5  6  2  0  0  0  0
  5  7  1  0  0  0  0
  7  8  1  0  0  0  0
  7  9  1  0  0  0  0
  9 10  1  0  0  0  0
  9 11  1  0  0  0  0
  9 29  1  0  0  0  0
 11 12  1  0  0  0  0
 11 13  1  0  0  0  0
 11 14  1  0  0  0  0
 14 15  1  0  0  0  0
 14 16  1  0  0  0  0
 14 17  1  0  0  0  0
 17 18  1  0  0  0  0
 17 19  1  0  0  0  0
 17 20  1  0  0  0  0
 20 21  1  0  0  0  0
 20 22  2  0  0  0  0
 22 23  1  0  0  0  0
 22 26  1  0  0  0  0
 23 24  1  0  0  0  0
 23 25  1  0  0  0  0
 26 27  1  0  0  0  0
 26 28  1  0  0  0  0
 29 30  2  0  0  0  0
 29 31  1  0  0  0  0
 31 32  1  0  0  0  0
 31 33  1  0  0  0  0
 33 34  1  0  0  0  0
 33 35  1  0  0  0  0
 33 36  1  0  0  0  0
M  CHG  1  20   1
M  END
$$$$

  -OEChem-03222214013D

 36 35  0     1  0  0  0  0  0999 V2000
   -2.9719   -4.7009    2.5166 H   0  0  0  0  0  0  0  0  0  0  0  0
   -3.3646   -3.7144    2.2529 C   0  0  0  0  0  0  0  0  0  0  0  0
   -3.8620   -3.2902    3.1284 H   0  0  0  0  0  0  0  0  0  0  0  0
   -4.0927   -3.8315    1.4471 H   0  0  0  0  0  0  0  0  0  0  0  0
   -2.2349   -2.8066    1.8056 C   0  0  0  0  0  0  0  0  0  0  0  0
   -1.0843   -3.2098    1.8248 O   0  0  0  0  0  0  0  0  0  0  0  0
   -2.5093   -1.5255    1.3623 N   0  0  0  0  0  0  0  0  0  0  0  0
   -3.4625   -1.2008    1.5075 H   0  0  0  0  0  0  0  0  0  0  0  0
   -1.4719   -0.5002    1.1517 C   0  0  1  0  0  0  0  0  0  0  0  0
   -0.6139   -0.8005    1.7644 H   0  0  0  0  0  0  0  0  0  0  0  0
   -0.9393   -0.5058   -0.3008 C   0  0  0  0  0  0  0  0  0  0  0  0
   -0.1317    0.2319   -0.3585 H   0  0  0  0  0  0  0  0  0  0  0  0
   -0.4739   -1.4845   -0.4634 H   0  0  0  0  0  0  0  0  0  0  0  0
   -1.8966   -0.2539   -1.4958 C   0  0  0  0  0  0  0  0  0  0  0  0
   -1.5077    0.6196   -2.0303 H   0  0  0  0  0  0  0  0  0  0  0  0
   -1.8288   -1.1024   -2.1854 H   0  0  0  0  0  0  0  0  0  0  0  0
   -3.3766   -0.0087   -1.1816 C   0  0  0  0  0  0  0  0  0  0  0  0
   -3.9049   -0.9682   -1.2111 H   0  0  0  0  0  0  0  0  0  0  0  0
   -3.4957    0.3802   -0.1776 H   0  0  0  0  0  0  0  0  0  0  0  0
   -3.9753    0.9246   -2.1543 N   0  3  0  0  0  0  0  0  0  0  0  0
   -3.9696    0.6389   -3.1323 H   0  0  0  0  0  0  0  0  0  0  0  0
   -4.5091    2.0680   -1.8267 C   0  0  0  0  0  0  0  0  0  0  0  0
   -4.5497    2.5268   -0.5295 N   0  0  0  0  0  0  0  0  0  0  0  0
   -3.9940    2.0348    0.1790 H   0  0  0  0  0  0  0  0  0  0  0  0
   -4.7563    3.5076   -0.3614 H   0  0  0  0  0  0  0  0  0  0  0  0
   -5.0590    2.8563   -2.8090 N   0  0  0  0  0  0  0  0  0  0  0  0
   -5.2174    2.4501   -3.7287 H   0  0  0  0  0  0  0  0  0  0  0  0
   -5.6469    3.6376   -2.5253 H   0  0  0  0  0  0  0  0  0  0  0  0
   -1.8096    0.9045    1.7054 C   0  0  0  0  0  0  0  0  0  0  0  0
   -2.9272    1.3935    1.5626 O   0  0  0  0  0  0  0  0  0  0  0  0
   -0.8604    1.6155    2.4155 N   0  0  0  0  0  0  0  0  0  0  0  0
    0.0304    1.1561    2.5964 H   0  0  0  0  0  0  0  0  0  0  0  0
   -1.1332    2.8817    3.0886 C   0  0  0  0  0  0  0  0  0  0  0  0
   -1.9191    2.7555    3.8411 H   0  0  0  0  0  0  0  0  0  0  0  0
   -0.2310    3.2443    3.5917 H   0  0  0  0  0  0  0  0  0  0  0  0
   -1.4527    3.6412    2.3675 H   0  0  0  0  0  0  0  0  0  0  0  0
  1  2  1  0  0  0  0
  2  3  1  0  0  0  0
  2  4  1  0  0  0  0
  2  5  1  0  0  0  0
  5  6  2  0  0  0  0
  5  7  1  0  0  0  0
  7  8  1  0  0  0  0
  7  9  1  0  0  0  0
  9 10  1  0  0  0  0
  9 11  1  0  0  0  0
  9 29  1  0  0  0  0
 11 12  1  0  0  0  0
 11 13  1  0  0  0  0
 11 14  1  0  0  0  0
 14 15  1  0  0  0  0
 14 16  1  0  0  0  0
 14 17  1  0  0  0  0
 17 18  1  0  0  0  0
 17 19  1  0  0  0  0
 17 20  1  0  0  0  0
 20 21  1  0  0  0  0
 20 22  2  0  0  0  0
 22 23  1  0  0  0  0
 22 26  1  0  0  0  0
 23 24  1  0  0  0  0
 23 25  1  0  0  0  0
 26 27  1  0  0  0  0
 26 28  1  0  0  0  0
 29 30  2  0  0  0  0
 29 31  1  0  0  0  0
 31 32  1  0  0  0  0
 31 33  1  0  0  0  0
 33 34  1  0  0  0  0
 33 35  1  0  0  0  0
 33 36  1  0  0  0  0
M  CHG  1  20   1
M  END
$$$$

  -OEChem-03222214013D

 36 35  0     1  0  0  0  0  0999 V2000
   -3.6391   -4.3492    2.2803 H   0  0  0  0  0  0  0  0  0  0  0  0
   -3.8375   -3.3120    1.9938 C   0  0  0  0  0  0  0  0  0  0  0  0
   -4.2970   -2.7971    2.8409 H   0  0  0  0  0  0  0  0  0  0  0  0
   -4.5318   -3.3075    1.1503 H   0  0  0  0  0  0  0  0  0  0  0  0
   -2.5427   -2.6231    1.6065 C   0  0  0  0  0  0  0  0  0  0  0  0
   -1.4963   -3.2489    1.6043 O   0  0  0  0  0  0  0  0  0  0  0  0
   -2.5466   -1.2871    1.2508 N   0  0  0  0  0  0  0  0  0  0  0  0
   -3.4128   -0.7861    1.4362 H   0  0  0  0  0  0  0  0  0  0  0  0
   -1.3188   -0.4755    1.1706 C   0  0  1  0  0  0  0  0  0  0  0  0
   -0.5599   -0.9675    1.7895 H   0  0  0  0  0  0  0  0  0  0  0  0
   -0.7359   -0.4765   -0.2702 C   0  0  0  0  0  0  0  0  0  0  0  0
    0.1894    0.1088   -0.2382 H   0  0  0  0  0  0  0  0  0  0  0  0
   -0.4446   -1.5047   -0.5126 H   0  0  0  0  0  0  0  0  0  0  0  0
   -1.5835    0.0638   -1.4509 C   0  0  0  0  0  0  0  0  0  0  0  0
   -0.9418    0.6628   -2.1062 H   0  0  0  0  0  0  0  0  0  0  0  0
   -1.9412   -0.7931   -2.0318 H   0  0  0  0  0  0  0  0  0  0  0  0
   -2.7898    0.8831   -1.0243 C   0  0  0  0  0  0  0  0  0  0  0  0
   -3.4252    0.2731   -0.3747 H   0  0  0  0  0  0  0  0  0  0  0  0
   -2.4172    1.7369   -0.4518 H   0  0  0  0  0  0  0  0  0  0  0  0
   -3.5909    1.4015   -2.1409 N   0  3  0  0  0  0  0  0  0  0  0  0
   -3.3910    1.0578   -3.0790 H   0  0  0  0  0  0  0  0  0  0  0  0
   -4.5129    2.2994   -1.9424 C   0  0  0  0  0  0  0  0  0  0  0  0
   -4.7775    2.7826   -0.6772 N   0  0  0  0  0  0  0  0  0  0  0  0
   -4.1397    2.5200    0.0788 H   0  0  0  0  0  0  0  0  0  0  0  0
   -5.3022    3.6486   -0.5794 H   0  0  0  0  0  0  0  0  0  0  0  0
   -5.2390    2.7828   -3.0046 N   0  0  0  0  0  0  0  0  0  0  0  0
   -5.1683    2.3080   -3.9023 H   0  0  0  0  0  0  0  0  0  0  0  0
   -6.0838    3.3175   -2.8109 H   0  0  0  0  0  0  0  0  0  0  0  0
   -1.4923    0.9118    1.8368 C   0  0  0  0  0  0  0  0  0  0  0  0
   -2.5613    1.5163    1.7451 O   0  0  0  0  0  0  0  0  0  0  0  0
   -0.5106    1.4090    2.6730 N   0  0  0  0  0  0  0  0  0  0  0  0
    0.3157    0.8336    2.8229 H   0  0  0  0  0  0  0  0  0  0  0  0
   -0.6625    2.6230    3.4686 C   0  0  0  0  0  0  0  0  0  0  0  0
   -1.4808    2.5118    4.1881 H   0  0  0  0  0  0  0  0  0  0  0  0
    0.2585    2.8286    4.0235 H   0  0  0  0  0  0  0  0  0  0  0  0
   -0.8735    3.4824    2.8236 H   0  0  0  0  0  0  0  0  0  0  0  0
  1  2  1  0  0  0  0
  2  3  1  0  0  0  0
  2  4  1  0  0  0  0
  2  5  1  0  0  0  0
  5  6  2  0  0  0  0
  5  7  1  0  0  0  0
  7  8  1  0  0  0  0
  7  9  1  0  0  0  0
  9 10  1  0  0  0  0
  9 11  1  0  0  0  0
  9 29  1  0  0  0  0
 11 12  1  0  0  0  0
 11 13  1  0  0  0  0
 11 14  1  0  0  0  0
 14 15  1  0  0  0  0
 14 16  1  0  0  0  0
 14 17  1  0  0  0  0
 17 18  1  0  0  0  0
 17 19  1  0  0  0  0
 17 20  1  0  0  0  0
 20 21  1  0  0  0  0
 20 22  2  0  0  0  0
 22 23  1  0  0  0  0
 22 26  1  0  0  0  0
 23 24  1  0  0  0  0
 23 25  1  0  0  0  0
 26 27  1  0  0  0  0
 26 28  1  0  0  0  0
 29 30  2  0  0  0  0
 29 31  1  0  0  0  0
 31 32  1  0  0  0  0
 31 33  1  0  0  0  0
 33 34  1  0  0  0  0
 33 35  1  0  0  0  0
 33 36  1  0  0  0  0
M  CHG  1  20   1
M  END
$$$$

  -OEChem-03222214013D

 36 35  0     1  0  0  0  0  0999 V2000
   -3.7535   -4.2602    2.1928 H   0  0  0  0  0  0  0  0  0  0  0  0
   -3.9181   -3.2168    1.9082 C   0  0  0  0  0  0  0  0  0  0  0  0
   -4.4040   -2.6998    2.7392 H   0  0  0  0  0  0  0  0  0  0  0  0
   -4.5748   -3.1911    1.0356 H   0  0  0  0  0  0  0  0  0  0  0  0
   -2.5939   -2.5516    1.5844 C   0  0  0  0  0  0  0  0  0  0  0  0
   -1.5596   -3.1957    1.6324 O   0  0  0  0  0  0  0  0  0  0  0  0
   -2.5593   -1.2168    1.2255 N   0  0  0  0  0  0  0  0  0  0  0  0
   -3.4260   -0.7000    1.3571 H   0  0  0  0  0  0  0  0  0  0  0  0
   -1.3157   -0.4299    1.1630 C   0  0  1  0  0  0  0  0  0  0  0  0
   -0.5806   -0.9338    1.8011 H   0  0  0  0  0  0  0  0  0  0  0  0
   -0.7102   -0.4832   -0.2678 C   0  0  0  0  0  0  0  0  0  0  0  0
    0.2213    0.0917   -0.2394 H   0  0  0  0  0  0  0  0  0  0  0  0
   -0.4327   -1.5211   -0.4842 H   0  0  0  0  0  0  0  0  0  0  0  0
   -1.5450    0.0446   -1.4601 C   0  0  0  0  0  0  0  0  0  0  0  0
   -0.8682    0.3816   -2.2524 H   0  0  0  0  0  0  0  0  0  0  0  0
   -2.1383   -0.7851   -1.8596 H   0  0  0  0  0  0  0  0  0  0  0  0
   -2.4917    1.1626   -1.0673 C   0  0  0  0  0  0  0  0  0  0  0  0
   -3.1904    0.7672   -0.3232 H   0  0  0  0  0  0  0  0  0  0  0  0
   -1.9010    1.9587   -0.6008 H   0  0  0  0  0  0  0  0  0  0  0  0
   -3.2669    1.7364   -2.1741 N   0  3  0  0  0  0  0  0  0  0  0  0
   -3.1742    1.3201   -3.0995 H   0  0  0  0  0  0  0  0  0  0  0  0
   -4.0928    2.7207   -1.9621 C   0  0  0  0  0  0  0  0  0  0  0  0
   -4.2421    3.2653   -0.7022 N   0  0  0  0  0  0  0  0  0  0  0  0
   -3.7768    2.8020    0.0840 H   0  0  0  0  0  0  0  0  0  0  0  0
   -5.0476    3.8541   -0.5052 H   0  0  0  0  0  0  0  0  0  0  0  0
   -4.8356    3.2286   -3.0009 N   0  0  0  0  0  0  0  0  0  0  0  0
   -4.5875    2.9651   -3.9524 H   0  0  0  0  0  0  0  0  0  0  0  0
   -5.3209    4.1127   -2.8612 H   0  0  0  0  0  0  0  0  0  0  0  0
   -1.4540    0.9687    1.8185 C   0  0  0  0  0  0  0  0  0  0  0  0
   -2.4941    1.6183    1.7024 O   0  0  0  0  0  0  0  0  0  0  0  0
   -0.4657    1.4393    2.6624 N   0  0  0  0  0  0  0  0  0  0  0  0
    0.3323    0.8312    2.8354 H   0  0  0  0  0  0  0  0  0  0  0  0
   -0.5922    2.6569    3.4573 C   0  0  0  0  0  0  0  0  0  0  0  0
   -1.4242    2.5694    4.1642 H   0  0  0  0  0  0  0  0  0  0  0  0
    0.3259    2.8341    4.0263 H   0  0  0  0  0  0  0  0  0  0  0  0
   -0.7670    3.5236    2.8112 H   0  0  0  0  0  0  0  0  0  0  0  0
  1  2  1  0  0  0  0
  2  3  1  0  0  0  0
  2  4  1  0  0  0  0
  2  5  1  0  0  0  0
  5  6  2  0  0  0  0
  5  7  1  0  0  0  0
  7  8  1  0  0  0  0
  7  9  1  0  0  0  0
  9 10  1  0  0  0  0
  9 11  1  0  0  0  0
  9 29  1  0  0  0  0
 11 12  1  0  0  0  0
 11 13  1  0  0  0  0
 11 14  1  0  0  0  0
 14 15  1  0  0  0  0
 14 16  1  0  0  0  0
 14 17  1  0  0  0  0
 17 18  1  0  0  0  0
 17 19  1  0  0  0  0
 17 20  1  0  0  0  0
 20 21  1  0  0  0  0
 20 22  2  0  0  0  0
 22 23  1  0  0  0  0
 22 26  1  0  0  0  0
 23 24  1  0  0  0  0
 23 25  1  0  0  0  0
 26 27  1  0  0  0  0
 26 28  1  0  0  0  0
 29 30  2  0  0  0  0
 29 31  1  0  0  0  0
 31 32  1  0  0  0  0
 31 33  1  0  0  0  0
 33 34  1  0  0  0  0
 33 35  1  0  0  0  0
 33 36  1  0  0  0  0
M  CHG  1  20   1
M  END
$$$$

  -OEChem-03222214013D

 36 35  0     1  0  0  0  0  0999 V2000
   -3.9074   -4.1492    2.1154 H   0  0  0  0  0  0  0  0  0  0  0  0
   -4.0252   -3.0969    1.8408 C   0  0  0  0  0  0  0  0  0  0  0  0
   -4.5106   -2.5717    2.6670 H   0  0  0  0  0  0  0  0  0  0  0  0
   -4.6590   -3.0347    0.9532 H   0  0  0  0  0  0  0  0  0  0  0  0
   -2.6698   -2.4789    1.5567 C   0  0  0  0  0  0  0  0  0  0  0  0
   -1.6610   -3.1598    1.6321 O   0  0  0  0  0  0  0  0  0  0  0  0
   -2.5768   -1.1454    1.2037 N   0  0  0  0  0  0  0  0  0  0  0  0
   -3.4301   -0.5980    1.2939 H   0  0  0  0  0  0  0  0  0  0  0  0
   -1.3055   -0.4042    1.1591 C   0  0  1  0  0  0  0  0  0  0  0  0
   -0.6009   -0.9390    1.8061 H   0  0  0  0  0  0  0  0  0  0  0  0
   -0.6819   -0.4842   -0.2610 C   0  0  0  0  0  0  0  0  0  0  0  0
    0.2743    0.0484   -0.2290 H   0  0  0  0  0  0  0  0  0  0  0  0
   -0.4522   -1.5343   -0.4735 H   0  0  0  0  0  0  0  0  0  0  0  0
   -1.4950    0.0722   -1.4518 C   0  0  0  0  0  0  0  0  0  0  0  0
   -0.8348    0.1498   -2.3222 H   0  0  0  0  0  0  0  0  0  0  0  0
   -2.2919   -0.6374   -1.6996 H   0  0  0  0  0  0  0  0  0  0  0  0
   -2.1180    1.4224   -1.1499 C   0  0  0  0  0  0  0  0  0  0  0  0
   -2.8774    1.2578   -0.3822 H   0  0  0  0  0  0  0  0  0  0  0  0
   -1.3468    2.0894   -0.7487 H   0  0  0  0  0  0  0  0  0  0  0  0
   -2.7719    2.0646   -2.2978 N   0  3  0  0  0  0  0  0  0  0  0  0
   -2.4760    1.7948   -3.2348 H   0  0  0  0  0  0  0  0  0  0  0  0
   -3.6330    3.0263   -2.1231 C   0  0  0  0  0  0  0  0  0  0  0  0
   -3.9985    3.4383   -0.8574 N   0  0  0  0  0  0  0  0  0  0  0  0
   -3.4913    3.0499   -0.0573 H   0  0  0  0  0  0  0  0  0  0  0  0
   -4.4578    4.3386   -0.7425 H   0  0  0  0  0  0  0  0  0  0  0  0
   -4.1911    3.6527   -3.2117 N   0  0  0  0  0  0  0  0  0  0  0  0
   -4.0664    3.2356   -4.1319 H   0  0  0  0  0  0  0  0  0  0  0  0
   -5.0049    4.2463   -3.0627 H   0  0  0  0  0  0  0  0  0  0  0  0
   -1.3869    0.9983    1.8149 C   0  0  0  0  0  0  0  0  0  0  0  0
   -2.3843    1.7062    1.6766 O   0  0  0  0  0  0  0  0  0  0  0  0
   -0.3847    1.4223    2.6676 N   0  0  0  0  0  0  0  0  0  0  0  0
    0.3725    0.7699    2.8614 H   0  0  0  0  0  0  0  0  0  0  0  0
   -0.4649    2.6431    3.4638 C   0  0  0  0  0  0  0  0  0  0  0  0
   -1.2957    2.5840    4.1752 H   0  0  0  0  0  0  0  0  0  0  0  0
    0.4620    2.7888    4.0277 H   0  0  0  0  0  0  0  0  0  0  0  0
   -0.6139    3.5153    2.8188 H   0  0  0  0  0  0  0  0  0  0  0  0
  1  2  1  0  0  0  0
  2  3  1  0  0  0  0
  2  4  1  0  0  0  0
  2  5  1  0  0  0  0
  5  6  2  0  0  0  0
  5  7  1  0  0  0  0
  7  8  1  0  0  0  0
  7  9  1  0  0  0  0
  9 10  1  0  0  0  0
  9 11  1  0  0  0  0
  9 29  1  0  0  0  0
 11 12  1  0  0  0  0
 11 13  1  0  0  0  0
 11 14  1  0  0  0  0
 14 15  1  0  0  0  0
 14 16  1  0  0  0  0
 14 17  1  0  0  0  0
 17 18  1  0  0  0  0
 17 19  1  0  0  0  0
 17 20  1  0  0  0  0
 20 21  1  0  0  0  0
 20 22  2  0  0  0  0
 22 23  1  0  0  0  0
 22 26  1  0  0  0  0
 23 24  1  0  0  0  0
 23 25  1  0  0  0  0
 26 27  1  0  0  0  0
 26 28  1  0  0  0  0
 29 30  2  0  0  0  0
 29 31  1  0  0  0  0
 31 32  1  0  0  0  0
 31 33  1  0  0  0  0
 33 34  1  0  0  0  0
 33 35  1  0  0  0  0
 33 36  1  0  0  0  0
M  CHG  1  20   1
M  END
$$$$

  -OEChem-03222214013D

 36 35  0     1  0  0  0  0  0999 V2000
   -4.4470   -3.5596    1.9535 H   0  0  0  0  0  0  0  0  0  0  0  0
   -4.3789   -2.5218    1.6141 C   0  0  0  0  0  0  0  0  0  0  0  0
   -4.8690   -1.8798    2.3498 H   0  0  0  0  0  0  0  0  0  0  0  0
   -4.8961   -2.4318    0.6561 H   0  0  0  0  0  0  0  0  0  0  0  0
   -2.9247   -2.1200    1.4601 C   0  0  0  0  0  0  0  0  0  0  0  0
   -2.0410   -2.9292    1.6855 O   0  0  0  0  0  0  0  0  0  0  0  0
   -2.5990   -0.8411    1.0486 N   0  0  0  0  0  0  0  0  0  0  0  0
   -3.3624   -0.1688    1.0303 H   0  0  0  0  0  0  0  0  0  0  0  0
   -1.2307   -0.2985    1.1015 C   0  0  1  0  0  0  0  0  0  0  0  0
   -0.6659   -0.8818    1.8379 H   0  0  0  0  0  0  0  0  0  0  0  0
   -0.5203   -0.5456   -0.2543 C   0  0  0  0  0  0  0  0  0  0  0  0
    0.5088   -0.1825   -0.1641 H   0  0  0  0  0  0  0  0  0  0  0  0
   -0.4609   -1.6299   -0.4011 H   0  0  0  0  0  0  0  0  0  0  0  0
   -1.1293    0.0634   -1.5365 C   0  0  0  0  0  0  0  0  0  0  0  0
   -0.5349   -0.2564   -2.3990 H   0  0  0  0  0  0  0  0  0  0  0  0
   -2.1291   -0.3682   -1.6548 H   0  0  0  0  0  0  0  0  0  0  0  0
   -1.2417    1.5908   -1.5543 C   0  0  0  0  0  0  0  0  0  0  0  0
   -0.2908    2.0084   -1.9035 H   0  0  0  0  0  0  0  0  0  0  0  0
   -1.4022    1.9782   -0.5556 H   0  0  0  0  0  0  0  0  0  0  0  0
   -2.3347    2.0286   -2.4423 N   0  3  0  0  0  0  0  0  0  0  0  0
   -2.2890    1.7263   -3.4144 H   0  0  0  0  0  0  0  0  0  0  0  0
   -3.3055    2.8112   -2.0619 C   0  0  0  0  0  0  0  0  0  0  0  0
   -3.4328    3.2631   -0.7676 N   0  0  0  0  0  0  0  0  0  0  0  0
   -2.8628    2.8166   -0.0406 H   0  0  0  0  0  0  0  0  0  0  0  0
   -4.3139    3.6784   -0.4774 H   0  0  0  0  0  0  0  0  0  0  0  0
   -4.2447    3.2113   -2.9823 N   0  0  0  0  0  0  0  0  0  0  0  0
   -4.0582    3.0488   -3.9696 H   0  0  0  0  0  0  0  0  0  0  0  0
   -4.8568    3.9869   -2.7364 H   0  0  0  0  0  0  0  0  0  0  0  0
   -1.2139    1.1350    1.6735 C   0  0  0  0  0  0  0  0  0  0  0  0
   -2.1426    1.9024    1.4196 O   0  0  0  0  0  0  0  0  0  0  0  0
   -0.2750    1.5042    2.6179 N   0  0  0  0  0  0  0  0  0  0  0  0
    0.4026    0.8009    2.9066 H   0  0  0  0  0  0  0  0  0  0  0  0
   -0.3234    2.7619    3.3572 C   0  0  0  0  0  0  0  0  0  0  0  0
   -1.2398    2.8218    3.9541 H   0  0  0  0  0  0  0  0  0  0  0  0
    0.5337    2.8365    4.0343 H   0  0  0  0  0  0  0  0  0  0  0  0
   -0.2926    3.6143    2.6704 H   0  0  0  0  0  0  0  0  0  0  0  0
  1  2  1  0  0  0  0
  2  3  1  0  0  0  0
  2  4  1  0  0  0  0
  2  5  1  0  0  0  0
  5  6  2  0  0  0  0
  5  7  1  0  0  0  0
  7  8  1  0  0  0  0
  7  9  1  0  0  0  0
  9 10  1  0  0  0  0
  9 11  1  0  0  0  0
  9 29  1  0  0  0  0
 11 12  1  0  0  0  0
 11 13  1  0  0  0  0
 11 14  1  0  0  0  0
 14 15  1  0  0  0  0
 14 16  1  0  0  0  0
 14 17  1  0  0  0  0
 17 18  1  0  0  0  0
 17 19  1  0  0  0  0
 17 20  1  0  0  0  0
 20 21  1  0  0  0  0
 20 22  2  0  0  0  0
 22 23  1  0  0  0  0
 22 26  1  0  0  0  0
 23 24  1  0  0  0  0
 23 25  1  0  0  0  0
 26 27  1  0  0  0  0
 26 28  1  0  0  0  0
 29 30  2  0  0  0  0
 29 31  1  0  0  0  0
 31 32  1  0  0  0  0
 31 33  1  0  0  0  0
 33 34  1  0  0  0  0
 33 35  1  0  0  0  0
 33 36  1  0  0  0  0
M  CHG  1  20   1
M  END
$$$$

  -OEChem-03222214013D

 36 35  0     1  0  0  0  0  0999 V2000
   -4.4805   -3.6115    1.8386 H   0  0  0  0  0  0  0  0  0  0  0  0
   -4.3945   -2.5716    1.5102 C   0  0  0  0  0  0  0  0  0  0  0  0
   -4.9190   -1.9338    2.2253 H   0  0  0  0  0  0  0  0  0  0  0  0
   -4.8644   -2.4743    0.5289 H   0  0  0  0  0  0  0  0  0  0  0  0
   -2.9340   -2.1708    1.4296 C   0  0  0  0  0  0  0  0  0  0  0  0
   -2.0643   -2.9647    1.7456 O   0  0  0  0  0  0  0  0  0  0  0  0
   -2.5853   -0.9086    0.9870 N   0  0  0  0  0  0  0  0  0  0  0  0
   -3.3468   -0.2428    0.8772 H   0  0  0  0  0  0  0  0  0  0  0  0
   -1.2203   -0.3628    1.0798 C   0  0  1  0  0  0  0  0  0  0  0  0
   -0.6701   -0.9275    1.8411 H   0  0  0  0  0  0  0  0  0  0  0  0
   -0.4733   -0.5895   -0.2579 C   0  0  0  0  0  0  0  0  0  0  0  0
    0.5587   -0.2394   -0.1494 H   0  0  0  0  0  0  0  0  0  0  0  0
   -0.4255   -1.6719   -0.4235 H   0  0  0  0  0  0  0  0  0  0  0  0
   -1.0834    0.0518   -1.5214 C   0  0  0  0  0  0  0  0  0  0  0  0
   -0.6377   -0.4177   -2.4047 H   0  0  0  0  0  0  0  0  0  0  0  0
   -2.1558   -0.1673   -1.5439 H   0  0  0  0  0  0  0  0  0  0  0  0
   -0.8615    1.5660   -1.6087 C   0  0  0  0  0  0  0  0  0  0  0  0
   -1.0137    2.0407   -0.6415 H   0  0  0  0  0  0  0  0  0  0  0  0
    0.1806    1.7538   -1.8898 H   0  0  0  0  0  0  0  0  0  0  0  0
   -1.7646    2.1590   -2.6128 N   0  3  0  0  0  0  0  0  0  0  0  0
   -1.6047    1.9002   -3.5852 H   0  0  0  0  0  0  0  0  0  0  0  0
   -2.7145    3.0050   -2.3280 C   0  0  0  0  0  0  0  0  0  0  0  0
   -2.9988    3.3986   -1.0405 N   0  0  0  0  0  0  0  0  0  0  0  0
   -2.5846    2.8618   -0.2706 H   0  0  0  0  0  0  0  0  0  0  0  0
   -3.8818    3.8670   -0.8560 H   0  0  0  0  0  0  0  0  0  0  0  0
   -3.4698    3.5332   -3.3473 N   0  0  0  0  0  0  0  0  0  0  0  0
   -3.1489    3.4086   -4.3052 H   0  0  0  0  0  0  0  0  0  0  0  0
   -4.0513    4.3436   -3.1425 H   0  0  0  0  0  0  0  0  0  0  0  0
   -1.2421    1.0886    1.5989 C   0  0  0  0  0  0  0  0  0  0  0  0
   -2.1190    1.8608    1.2124 O   0  0  0  0  0  0  0  0  0  0  0  0
   -0.3542    1.5033    2.5725 N   0  0  0  0  0  0  0  0  0  0  0  0
    0.2825    0.8057    2.9538 H   0  0  0  0  0  0  0  0  0  0  0  0
   -0.4201    2.8079    3.2231 C   0  0  0  0  0  0  0  0  0  0  0  0
   -1.3686    2.9230    3.7588 H   0  0  0  0  0  0  0  0  0  0  0  0
    0.3972    2.9118    3.9438 H   0  0  0  0  0  0  0  0  0  0  0  0
   -0.3304    3.6123    2.4856 H   0  0  0  0  0  0  0  0  0  0  0  0
  1  2  1  0  0  0  0
  2  3  1  0  0  0  0
  2  4  1  0  0  0  0
  2  5  1  0  0  0  0
  5  6  2  0  0  0  0
  5  7  1  0  0  0  0
  7  8  1  0  0  0  0
  7  9  1  0  0  0  0
  9 10  1  0  0  0  0
  9 11  1  0  0  0  0
  9 29  1  0  0  0  0
 11 12  1  0  0  0  0
 11 13  1  0  0  0  0
 11 14  1  0  0  0  0
 14 15  1  0  0  0  0
 14 16  1  0  0  0  0
 14 17  1  0  0  0  0
 17 18  1  0  0  0  0
 17 19  1  0  0  0  0
 17 20  1  0  0  0  0
 20 21  1  0  0  0  0
 20 22  2  0  0  0  0
 22 23  1  0  0  0  0
 22 26  1  0  0  0  0
 23 24  1  0  0  0  0
 23 25  1  0  0  0  0
 26 27  1  0  0  0  0
 26 28  1  0  0  0  0
 29 30  2  0  0  0  0
 29 31  1  0  0  0  0
 31 32  1  0  0  0  0
 31 33  1  0  0  0  0
 33 34  1  0  0  0  0
 33 35  1  0  0  0  0
 33 36  1  0  0  0  0
M  CHG  1  20   1
M  END
$$$$

  -OEChem-03222214013D

 36 35  0     1  0  0  0  0  0999 V2000
   -4.4549   -3.6341    1.9218 H   0  0  0  0  0  0  0  0  0  0  0  0
   -4.3689   -2.6016    1.5706 C   0  0  0  0  0  0  0  0  0  0  0  0
   -4.9001   -1.9486    2.2672 H   0  0  0  0  0  0  0  0  0  0  0  0
   -4.8320   -2.5277    0.5840 H   0  0  0  0  0  0  0  0  0  0  0  0
   -2.9092   -2.1986    1.4919 C   0  0  0  0  0  0  0  0  0  0  0  0
   -2.0425   -2.9630    1.8806 O   0  0  0  0  0  0  0  0  0  0  0  0
   -2.5577   -0.9663    0.9741 N   0  0  0  0  0  0  0  0  0  0  0  0
   -3.3198   -0.3182    0.7883 H   0  0  0  0  0  0  0  0  0  0  0  0
   -1.1944   -0.4124    1.0457 C   0  0  1  0  0  0  0  0  0  0  0  0
   -0.6339   -0.9401    1.8257 H   0  0  0  0  0  0  0  0  0  0  0  0
   -0.4547   -0.6518   -0.2902 C   0  0  0  0  0  0  0  0  0  0  0  0
    0.5813   -0.3070   -0.2011 H   0  0  0  0  0  0  0  0  0  0  0  0
   -0.4157   -1.7354   -0.4484 H   0  0  0  0  0  0  0  0  0  0  0  0
   -1.1094   -0.0141   -1.5324 C   0  0  0  0  0  0  0  0  0  0  0  0
   -0.8744   -0.6281   -2.4084 H   0  0  0  0  0  0  0  0  0  0  0  0
   -2.1983   -0.0048   -1.4244 H   0  0  0  0  0  0  0  0  0  0  0  0
   -0.5859    1.4048   -1.7753 C   0  0  0  0  0  0  0  0  0  0  0  0
   -0.6296    1.9903   -0.8536 H   0  0  0  0  0  0  0  0  0  0  0  0
    0.4676    1.3502   -2.0709 H   0  0  0  0  0  0  0  0  0  0  0  0
   -1.3681    2.0658   -2.8370 N   0  3  0  0  0  0  0  0  0  0  0  0
   -1.1776    1.7781   -3.7957 H   0  0  0  0  0  0  0  0  0  0  0  0
   -2.2452    3.0047   -2.6181 C   0  0  0  0  0  0  0  0  0  0  0  0
   -2.5702    3.4357   -1.3531 N   0  0  0  0  0  0  0  0  0  0  0  0
   -2.2699    2.8583   -0.5600 H   0  0  0  0  0  0  0  0  0  0  0  0
   -3.4161    3.9854   -1.2294 H   0  0  0  0  0  0  0  0  0  0  0  0
   -2.8783    3.5959   -3.6853 N   0  0  0  0  0  0  0  0  0  0  0  0
   -2.5114    3.4316   -4.6204 H   0  0  0  0  0  0  0  0  0  0  0  0
   -3.3877    4.4620   -3.5202 H   0  0  0  0  0  0  0  0  0  0  0  0
   -1.2173    1.0688    1.4714 C   0  0  0  0  0  0  0  0  0  0  0  0
   -2.0256    1.8397    0.9555 O   0  0  0  0  0  0  0  0  0  0  0  0
   -0.3381    1.5438    2.4254 N   0  0  0  0  0  0  0  0  0  0  0  0
    0.2542    0.8617    2.8960 H   0  0  0  0  0  0  0  0  0  0  0  0
   -0.3689    2.9075    2.9443 C   0  0  0  0  0  0  0  0  0  0  0  0
   -1.3160    3.1011    3.4593 H   0  0  0  0  0  0  0  0  0  0  0  0
    0.4482    3.0594    3.6570 H   0  0  0  0  0  0  0  0  0  0  0  0
   -0.2531    3.6327    2.1320 H   0  0  0  0  0  0  0  0  0  0  0  0
  1  2  1  0  0  0  0
  2  3  1  0  0  0  0
  2  4  1  0  0  0  0
  2  5  1  0  0  0  0
  5  6  2  0  0  0  0
  5  7  1  0  0  0  0
  7  8  1  0  0  0  0
  7  9  1  0  0  0  0
  9 10  1  0  0  0  0
  9 11  1  0  0  0  0
  9 29  1  0  0  0  0
 11 12  1  0  0  0  0
 11 13  1  0  0  0  0
 11 14  1  0  0  0  0
 14 15  1  0  0  0  0
 14 16  1  0  0  0  0
 14 17  1  0  0  0  0
 17 18  1  0  0  0  0
 17 19  1  0  0  0  0
 17 20  1  0  0  0  0
 20 21  1  0  0  0  0
 20 22  2  0  0  0  0
 22 23  1  0  0  0  0
 22 26  1  0  0  0  0
 23 24  1  0  0  0  0
 23 25  1  0  0  0  0
 26 27  1  0  0  0  0
 26 28  1  0  0  0  0
 29 30  2  0  0  0  0
 29 31  1  0  0  0  0
 31 32  1  0  0  0  0
 31 33  1  0  0  0  0
 33 34  1  0  0  0  0
 33 35  1  0  0  0  0
 33 36  1  0  0  0  0
M  CHG  1  20   1
M  END
$$$$

  -OEChem-03222214013D

 36 35  0     1  0  0  0  0  0999 V2000
   -4.4667   -3.6011    2.0249 H   0  0  0  0  0  0  0  0  0  0  0  0
   -4.3710   -2.6050    1.5832 C   0  0  0  0  0  0  0  0  0  0  0  0
   -4.9333   -1.8947    2.1939 H   0  0  0  0  0  0  0  0  0  0  0  0
   -4.7936   -2.6262    0.5761 H   0  0  0  0  0  0  0  0  0  0  0  0
   -2.9108   -2.1994    1.5263 C   0  0  0  0  0  0  0  0  0  0  0  0
   -2.0535   -2.9356    1.9841 O   0  0  0  0  0  0  0  0  0  0  0  0
   -2.5491   -0.9961    0.9507 N   0  0  0  0  0  0  0  0  0  0  0  0
   -3.3073   -0.3683    0.6937 H   0  0  0  0  0  0  0  0  0  0  0  0
   -1.1880   -0.4366    1.0162 C   0  0  1  0  0  0  0  0  0  0  0  0
   -0.6330   -0.9333    1.8202 H   0  0  0  0  0  0  0  0  0  0  0  0
   -0.4385   -0.7113   -0.3038 C   0  0  0  0  0  0  0  0  0  0  0  0
    0.5957   -0.3601   -0.2181 H   0  0  0  0  0  0  0  0  0  0  0  0
   -0.3925   -1.7980   -0.4369 H   0  0  0  0  0  0  0  0  0  0  0  0
   -1.1122   -0.0993   -1.5495 C   0  0  0  0  0  0  0  0  0  0  0  0
   -1.1079   -0.8413   -2.3551 H   0  0  0  0  0  0  0  0  0  0  0  0
   -2.1580    0.1524   -1.3491 H   0  0  0  0  0  0  0  0  0  0  0  0
   -0.3428    1.1379   -2.0146 C   0  0  0  0  0  0  0  0  0  0  0  0
   -0.2048    1.8250   -1.1728 H   0  0  0  0  0  0  0  0  0  0  0  0
    0.6538    0.8372   -2.3568 H   0  0  0  0  0  0  0  0  0  0  0  0
   -1.0664    1.8145   -3.1068 N   0  3  0  0  0  0  0  0  0  0  0  0
   -0.9047    1.4666   -4.0508 H   0  0  0  0  0  0  0  0  0  0  0  0
   -1.8515    2.8401   -2.9315 C   0  0  0  0  0  0  0  0  0  0  0  0
   -2.1334    3.3527   -1.6859 N   0  0  0  0  0  0  0  0  0  0  0  0
   -1.9068    2.7739   -0.8695 H   0  0  0  0  0  0  0  0  0  0  0  0
   -2.9219    3.9869   -1.5918 H   0  0  0  0  0  0  0  0  0  0  0  0
   -2.4269    3.4414   -4.0256 N   0  0  0  0  0  0  0  0  0  0  0  0
   -2.0783    3.2030   -4.9518 H   0  0  0  0  0  0  0  0  0  0  0  0
   -2.8554    4.3565   -3.9000 H   0  0  0  0  0  0  0  0  0  0  0  0
   -1.1907    1.0672    1.3612 C   0  0  0  0  0  0  0  0  0  0  0  0
   -1.9144    1.8410    0.7360 O   0  0  0  0  0  0  0  0  0  0  0  0
   -0.3131    1.5722    2.3012 N   0  0  0  0  0  0  0  0  0  0  0  0
    0.2296    0.9005    2.8414 H   0  0  0  0  0  0  0  0  0  0  0  0
   -0.2895    2.9714    2.7149 C   0  0  0  0  0  0  0  0  0  0  0  0
   -1.2561    3.2632    3.1397 H   0  0  0  0  0  0  0  0  0  0  0  0
    0.4818    3.1272    3.4762 H   0  0  0  0  0  0  0  0  0  0  0  0
   -0.0663    3.6222    1.8632 H   0  0  0  0  0  0  0  0  0  0  0  0
  1  2  1  0  0  0  0
  2  3  1  0  0  0  0
  2  4  1  0  0  0  0
  2  5  1  0  0  0  0
  5  6  2  0  0  0  0
  5  7  1  0  0  0  0
  7  8  1  0  0  0  0
  7  9  1  0  0  0  0
  9 10  1  0  0  0  0
  9 11  1  0  0  0  0
  9 29  1  0  0  0  0
 11 12  1  0  0  0  0
 11 13  1  0  0  0  0
 11 14  1  0  0  0  0
 14 15  1  0  0  0  0
 14 16  1  0  0  0  0
 14 17  1  0  0  0  0
 17 18  1  0  0  0  0
 17 19  1  0  0  0  0
 17 20  1  0  0  0  0
 20 21  1  0  0  0  0
 20 22  2  0  0  0  0
 22 23  1  0  0  0  0
 22 26  1  0  0  0  0
 23 24  1  0  0  0  0
 23 25  1  0  0  0  0
 26 27  1  0  0  0  0
 26 28  1  0  0  0  0
 29 30  2  0  0  0  0
 29 31  1  0  0  0  0
 31 32  1  0  0  0  0
 31 33  1  0  0  0  0
 33 34  1  0  0  0  0
 33 35  1  0  0  0  0
 33 36  1  0  0  0  0
M  CHG  1  20   1
M  END
$$$$

  -OEChem-03222214013D

 36 35  0     1  0  0  0  0  0999 V2000
   -4.0100   -4.1290    2.1449 H   0  0  0  0  0  0  0  0  0  0  0  0
   -4.0737   -3.1344    1.6943 C   0  0  0  0  0  0  0  0  0  0  0  0
   -4.6951   -2.5002    2.3310 H   0  0  0  0  0  0  0  0  0  0  0  0
   -4.5409   -3.2231    0.7109 H   0  0  0  0  0  0  0  0  0  0  0  0
   -2.6872   -2.5354    1.5588 C   0  0  0  0  0  0  0  0  0  0  0  0
   -1.7061   -3.1885    1.8732 O   0  0  0  0  0  0  0  0  0  0  0  0
   -2.5320   -1.2526    1.0700 N   0  0  0  0  0  0  0  0  0  0  0  0
   -3.3827   -0.7069    0.9463 H   0  0  0  0  0  0  0  0  0  0  0  0
   -1.2598   -0.5132    1.1078 C   0  0  1  0  0  0  0  0  0  0  0  0
   -0.5956   -0.9855    1.8397 H   0  0  0  0  0  0  0  0  0  0  0  0
   -0.5653   -0.5964   -0.2663 C   0  0  0  0  0  0  0  0  0  0  0  0
    0.4057   -0.0937   -0.2012 H   0  0  0  0  0  0  0  0  0  0  0  0
   -0.3614   -1.6511   -0.4835 H   0  0  0  0  0  0  0  0  0  0  0  0
   -1.3976   -0.0068   -1.4249 C   0  0  0  0  0  0  0  0  0  0  0  0
   -1.5833   -0.7949   -2.1624 H   0  0  0  0  0  0  0  0  0  0  0  0
   -2.3740    0.3382   -1.0721 H   0  0  0  0  0  0  0  0  0  0  0  0
   -0.6520    1.1459   -2.0932 C   0  0  0  0  0  0  0  0  0  0  0  0
   -0.3820    1.8814   -1.3268 H   0  0  0  0  0  0  0  0  0  0  0  0
    0.2662    0.7661   -2.5547 H   0  0  0  0  0  0  0  0  0  0  0  0
   -1.5185    1.7741   -3.1065 N   0  3  0  0  0  0  0  0  0  0  0  0
   -2.4584    1.3942   -3.2087 H   0  0  0  0  0  0  0  0  0  0  0  0
   -1.1736    2.8158   -3.8058 C   0  0  0  0  0  0  0  0  0  0  0  0
    0.0622    3.4050   -3.6668 N   0  0  0  0  0  0  0  0  0  0  0  0
    0.6370    3.1146   -2.8784 H   0  0  0  0  0  0  0  0  0  0  0  0
    0.1980    4.3433   -4.0373 H   0  0  0  0  0  0  0  0  0  0  0  0
   -2.0613    3.3508   -4.7087 N   0  0  0  0  0  0  0  0  0  0  0  0
   -2.9062    2.8296   -4.9347 H   0  0  0  0  0  0  0  0  0  0  0  0
   -1.7173    4.0244   -5.3904 H   0  0  0  0  0  0  0  0  0  0  0  0
   -1.4380    0.9458    1.5801 C   0  0  0  0  0  0  0  0  0  0  0  0
   -2.3254    1.6430    1.0997 O   0  0  0  0  0  0  0  0  0  0  0  0
   -0.5717    1.4918    2.5092 N   0  0  0  0  0  0  0  0  0  0  0  0
    0.0844    0.8588    2.9614 H   0  0  0  0  0  0  0  0  0  0  0  0
   -0.7423    2.8283    3.0701 C   0  0  0  0  0  0  0  0  0  0  0  0
   -1.6936    2.9009    3.6080 H   0  0  0  0  0  0  0  0  0  0  0  0
    0.0684    3.0507    3.7710 H   0  0  0  0  0  0  0  0  0  0  0  0
   -0.7278    3.5840    2.2779 H   0  0  0  0  0  0  0  0  0  0  0  0
  1  2  1  0  0  0  0
  2  3  1  0  0  0  0
  2  4  1  0  0  0  0
  2  5  1  0  0  0  0
  5  6  2  0  0  0  0
  5  7  1  0  0  0  0
  7  8  1  0  0  0  0
  7  9  1  0  0  0  0
  9 10  1  0  0  0  0
  9 11  1  0  0  0  0
  9 29  1  0  0  0  0
 11 12  1  0  0  0  0
 11 13  1  0  0  0  0
 11 14  1  0  0  0  0
 14 15  1  0  0  0  0
 14 16  1  0  0  0  0
 14 17  1  0  0  0  0
 17 18  1  0  0  0  0
 17 19  1  0  0  0  0
 17 20  1  0  0  0  0
 20 21  1  0  0  0  0
 20 22  2  0  0  0  0
 22 23  1  0  0  0  0
 22 26  1  0  0  0  0
 23 24  1  0  0  0  0
 23 25  1  0  0  0  0
 26 27  1  0  0  0  0
 26 28  1  0  0  0  0
 29 30  2  0  0  0  0
 29 31  1  0  0  0  0
 31 32  1  0  0  0  0
 31 33  1  0  0  0  0
 33 34  1  0  0  0  0
 33 35  1  0  0  0  0
 33 36  1  0  0  0  0
M  CHG  1  20   1
M  END
$$$$

  -OEChem-03222214013D

 36 35  0     1  0  0  0  0  0999 V2000
   -3.9850   -4.1308    2.1591 H   0  0  0  0  0  0  0  0  0  0  0  0
   -4.0609   -3.1326    1.7183 C   0  0  0  0  0  0  0  0  0  0  0  0
   -4.6590   -2.5022    2.3807 H   0  0  0  0  0  0  0  0  0  0  0  0
   -4.5613   -3.2124    0.7505 H   0  0  0  0  0  0  0  0  0  0  0  0
   -2.6783   -2.5352    1.5404 C   0  0  0  0  0  0  0  0  0  0  0  0
   -1.6878   -3.1969    1.8035 O   0  0  0  0  0  0  0  0  0  0  0  0
   -2.5371   -1.2440    1.0702 N   0  0  0  0  0  0  0  0  0  0  0  0
   -3.3912   -0.6948    0.9875 H   0  0  0  0  0  0  0  0  0  0  0  0
   -1.2677   -0.4999    1.1017 C   0  0  1  0  0  0  0  0  0  0  0  0
   -0.5979   -0.9774    1.8259 H   0  0  0  0  0  0  0  0  0  0  0  0
   -0.5799   -0.5830   -0.2760 C   0  0  0  0  0  0  0  0  0  0  0  0
    0.3761   -0.0534   -0.2035 H   0  0  0  0  0  0  0  0  0  0  0  0
   -0.3479   -1.6309   -0.4963 H   0  0  0  0  0  0  0  0  0  0  0  0
   -1.4136   -0.0010   -1.4366 C   0  0  0  0  0  0  0  0  0  0  0  0
   -1.8431   -0.8259   -2.0148 H   0  0  0  0  0  0  0  0  0  0  0  0
   -2.2487    0.5935   -1.0576 H   0  0  0  0  0  0  0  0  0  0  0  0
   -0.5496    0.8778   -2.3382 C   0  0  0  0  0  0  0  0  0  0  0  0
   -0.0608    1.6438   -1.7259 H   0  0  0  0  0  0  0  0  0  0  0  0
    0.2230    0.2615   -2.8117 H   0  0  0  0  0  0  0  0  0  0  0  0
   -1.3967    1.5184   -3.3604 N   0  3  0  0  0  0  0  0  0  0  0  0
   -2.3982    1.3357   -3.3095 H   0  0  0  0  0  0  0  0  0  0  0  0
   -0.9443    2.3396   -4.2627 C   0  0  0  0  0  0  0  0  0  0  0  0
    0.3911    2.6632   -4.3443 N   0  0  0  0  0  0  0  0  0  0  0  0
    0.9973    2.3728   -3.5800 H   0  0  0  0  0  0  0  0  0  0  0  0
    0.6633    3.4799   -4.8875 H   0  0  0  0  0  0  0  0  0  0  0  0
   -1.8163    2.9071   -5.1609 N   0  0  0  0  0  0  0  0  0  0  0  0
   -2.7666    2.5457   -5.2165 H   0  0  0  0  0  0  0  0  0  0  0  0
   -1.4345    3.3765   -5.9799 H   0  0  0  0  0  0  0  0  0  0  0  0
   -1.4477    0.9502    1.6009 C   0  0  0  0  0  0  0  0  0  0  0  0
   -2.3798    1.6306    1.1867 O   0  0  0  0  0  0  0  0  0  0  0  0
   -0.5723    1.4879    2.5261 N   0  0  0  0  0  0  0  0  0  0  0  0
    0.1169    0.8620    2.9365 H   0  0  0  0  0  0  0  0  0  0  0  0
   -0.7581    2.8048    3.1272 C   0  0  0  0  0  0  0  0  0  0  0  0
   -1.7022    2.8441    3.6811 H   0  0  0  0  0  0  0  0  0  0  0  0
    0.0592    3.0234    3.8216 H   0  0  0  0  0  0  0  0  0  0  0  0
   -0.7705    3.5821    2.3559 H   0  0  0  0  0  0  0  0  0  0  0  0
  1  2  1  0  0  0  0
  2  3  1  0  0  0  0
  2  4  1  0  0  0  0
  2  5  1  0  0  0  0
  5  6  2  0  0  0  0
  5  7  1  0  0  0  0
  7  8  1  0  0  0  0
  7  9  1  0  0  0  0
  9 10  1  0  0  0  0
  9 11  1  0  0  0  0
  9 29  1  0  0  0  0
 11 12  1  0  0  0  0
 11 13  1  0  0  0  0
 11 14  1  0  0  0  0
 14 15  1  0  0  0  0
 14 16  1  0  0  0  0
 14 17  1  0  0  0  0
 17 18  1  0  0  0  0
 17 19  1  0  0  0  0
 17 20  1  0  0  0  0
 20 21  1  0  0  0  0
 20 22  2  0  0  0  0
 22 23  1  0  0  0  0
 22 26  1  0  0  0  0
 23 24  1  0  0  0  0
 23 25  1  0  0  0  0
 26 27  1  0  0  0  0
 26 28  1  0  0  0  0
 29 30  2  0  0  0  0
 29 31  1  0  0  0  0
 31 32  1  0  0  0  0
 31 33  1  0  0  0  0
 33 34  1  0  0  0  0
 33 35  1  0  0  0  0
 33 36  1  0  0  0  0
M  CHG  1  20   1
M  END
$$$$

  -OEChem-03222214013D

 36 35  0     1  0  0  0  0  0999 V2000
   -3.9643   -4.1283    2.1779 H   0  0  0  0  0  0  0  0  0  0  0  0
   -4.0511   -3.1277    1.7446 C   0  0  0  0  0  0  0  0  0  0  0  0
   -4.6271   -2.4994    2.4284 H   0  0  0  0  0  0  0  0  0  0  0  0
   -4.5810   -3.2013    0.7923 H   0  0  0  0  0  0  0  0  0  0  0  0
   -2.6724   -2.5339    1.5277 C   0  0  0  0  0  0  0  0  0  0  0  0
   -1.6766   -3.2040    1.7470 O   0  0  0  0  0  0  0  0  0  0  0  0
   -2.5398   -1.2377    1.0693 N   0  0  0  0  0  0  0  0  0  0  0  0
   -3.3939   -0.6837    1.0228 H   0  0  0  0  0  0  0  0  0  0  0  0
   -1.2702   -0.4943    1.0926 C   0  0  1  0  0  0  0  0  0  0  0  0
   -0.5945   -0.9763    1.8079 H   0  0  0  0  0  0  0  0  0  0  0  0
   -0.5937   -0.5733   -0.2912 C   0  0  0  0  0  0  0  0  0  0  0  0
    0.3561   -0.0320   -0.2231 H   0  0  0  0  0  0  0  0  0  0  0  0
   -0.3551   -1.6185   -0.5177 H   0  0  0  0  0  0  0  0  0  0  0  0
   -1.4337    0.0115   -1.4428 C   0  0  0  0  0  0  0  0  0  0  0  0
   -2.0878   -0.7692   -1.8457 H   0  0  0  0  0  0  0  0  0  0  0  0
   -2.0722    0.8212   -1.0817 H   0  0  0  0  0  0  0  0  0  0  0  0
   -0.5261    0.5704   -2.5358 C   0  0  0  0  0  0  0  0  0  0  0  0
    0.1584    1.3026   -2.0934 H   0  0  0  0  0  0  0  0  0  0  0  0
    0.0653   -0.2458   -2.9659 H   0  0  0  0  0  0  0  0  0  0  0  0
   -1.3480    1.2152   -3.5761 N   0  3  0  0  0  0  0  0  0  0  0  0
   -2.3537    1.2518   -3.4129 H   0  0  0  0  0  0  0  0  0  0  0  0
   -0.8552    1.7741   -4.6430 C   0  0  0  0  0  0  0  0  0  0  0  0
    0.4983    1.7915   -4.8924 N   0  0  0  0  0  0  0  0  0  0  0  0
    1.1237    1.4957   -4.1458 H   0  0  0  0  0  0  0  0  0  0  0  0
    0.8592    2.4334   -5.5952 H   0  0  0  0  0  0  0  0  0  0  0  0
   -1.7008    2.3687   -5.5488 N   0  0  0  0  0  0  0  0  0  0  0  0
   -2.7028    2.2106   -5.4605 H   0  0  0  0  0  0  0  0  0  0  0  0
   -1.3349    2.6152   -6.4666 H   0  0  0  0  0  0  0  0  0  0  0  0
   -1.4541    0.9484    1.6109 C   0  0  0  0  0  0  0  0  0  0  0  0
   -2.4145    1.6127    1.2378 O   0  0  0  0  0  0  0  0  0  0  0  0
   -0.5734    1.4833    2.5329 N   0  0  0  0  0  0  0  0  0  0  0  0
    0.1414    0.8665    2.9119 H   0  0  0  0  0  0  0  0  0  0  0  0
   -0.7691    2.7876    3.1579 C   0  0  0  0  0  0  0  0  0  0  0  0
   -1.7050    2.8048    3.7266 H   0  0  0  0  0  0  0  0  0  0  0  0
    0.0554    3.0072    3.8434 H   0  0  0  0  0  0  0  0  0  0  0  0
   -0.8045    3.5767    2.3995 H   0  0  0  0  0  0  0  0  0  0  0  0
  1  2  1  0  0  0  0
  2  3  1  0  0  0  0
  2  4  1  0  0  0  0
  2  5  1  0  0  0  0
  5  6  2  0  0  0  0
  5  7  1  0  0  0  0
  7  8  1  0  0  0  0
  7  9  1  0  0  0  0
  9 10  1  0  0  0  0
  9 11  1  0  0  0  0
  9 29  1  0  0  0  0
 11 12  1  0  0  0  0
 11 13  1  0  0  0  0
 11 14  1  0  0  0  0
 14 15  1  0  0  0  0
 14 16  1  0  0  0  0
 14 17  1  0  0  0  0
 17 18  1  0  0  0  0
 17 19  1  0  0  0  0
 17 20  1  0  0  0  0
 20 21  1  0  0  0  0
 20 22  2  0  0  0  0
 22 23  1  0  0  0  0
 22 26  1  0  0  0  0
 23 24  1  0  0  0  0
 23 25  1  0  0  0  0
 26 27  1  0  0  0  0
 26 28  1  0  0  0  0
 29 30  2  0  0  0  0
 29 31  1  0  0  0  0
 31 32  1  0  0  0  0
 31 33  1  0  0  0  0
 33 34  1  0  0  0  0
 33 35  1  0  0  0  0
 33 36  1  0  0  0  0
M  CHG  1  20   1
M  END
$$$$

  -OEChem-03222214013D

 36 35  0     1  0  0  0  0  0999 V2000
   -3.9774   -4.1154    2.2001 H   0  0  0  0  0  0  0  0  0  0  0  0
   -4.0570   -3.1204    1.7527 C   0  0  0  0  0  0  0  0  0  0  0  0
   -4.6285   -2.4781    2.4271 H   0  0  0  0  0  0  0  0  0  0  0  0
   -4.5871   -3.2028    0.8011 H   0  0  0  0  0  0  0  0  0  0  0  0
   -2.6747   -2.5382    1.5287 C   0  0  0  0  0  0  0  0  0  0  0  0
   -1.6826   -3.2163    1.7404 O   0  0  0  0  0  0  0  0  0  0  0  0
   -2.5361   -1.2437    1.0674 N   0  0  0  0  0  0  0  0  0  0  0  0
   -3.3863   -0.6827    1.0300 H   0  0  0  0  0  0  0  0  0  0  0  0
   -1.2634   -0.5059    1.0899 C   0  0  1  0  0  0  0  0  0  0  0  0
   -0.5871   -0.9881    1.8042 H   0  0  0  0  0  0  0  0  0  0  0  0
   -0.5919   -0.5803   -0.2965 C   0  0  0  0  0  0  0  0  0  0  0  0
    0.3627   -0.0466   -0.2375 H   0  0  0  0  0  0  0  0  0  0  0  0
   -0.3671   -1.6275   -0.5277 H   0  0  0  0  0  0  0  0  0  0  0  0
   -1.4367    0.0157   -1.4359 C   0  0  0  0  0  0  0  0  0  0  0  0
   -2.2687   -0.6586   -1.6659 H   0  0  0  0  0  0  0  0  0  0  0  0
   -1.8568    0.9789   -1.1331 H   0  0  0  0  0  0  0  0  0  0  0  0
   -0.5707    0.2358   -2.6731 C   0  0  0  0  0  0  0  0  0  0  0  0
    0.2800    0.8724   -2.4064 H   0  0  0  0  0  0  0  0  0  0  0  0
   -0.1895   -0.7303   -3.0227 H   0  0  0  0  0  0  0  0  0  0  0  0
   -1.3752    0.8826   -3.7252 N   0  3  0  0  0  0  0  0  0  0  0  0
   -2.3299    1.1429   -3.4801 H   0  0  0  0  0  0  0  0  0  0  0  0
   -0.9213    1.1665   -4.9115 C   0  0  0  0  0  0  0  0  0  0  0  0
    0.3700    0.8695   -5.2833 N   0  0  0  0  0  0  0  0  0  0  0  0
    1.0163    0.5681   -4.5568 H   0  0  0  0  0  0  0  0  0  0  0  0
    0.7549    1.3144   -6.1141 H   0  0  0  0  0  0  0  0  0  0  0  0
   -1.7442    1.7851   -5.8224 N   0  0  0  0  0  0  0  0  0  0  0  0
   -2.7397    1.8507   -5.6184 H   0  0  0  0  0  0  0  0  0  0  0  0
   -1.4525    1.8205   -6.7976 H   0  0  0  0  0  0  0  0  0  0  0  0
   -1.4535    0.9365    1.6060 C   0  0  0  0  0  0  0  0  0  0  0  0
   -2.4195    1.5920    1.2313 O   0  0  0  0  0  0  0  0  0  0  0  0
   -0.5788    1.4773    2.5302 N   0  0  0  0  0  0  0  0  0  0  0  0
    0.1478    0.8704    2.9022 H   0  0  0  0  0  0  0  0  0  0  0  0
   -0.7707    2.7891    3.1407 C   0  0  0  0  0  0  0  0  0  0  0  0
   -1.7102    2.8180    3.7030 H   0  0  0  0  0  0  0  0  0  0  0  0
    0.0508    3.0099    3.8296 H   0  0  0  0  0  0  0  0  0  0  0  0
   -0.7959    3.5706    2.3738 H   0  0  0  0  0  0  0  0  0  0  0  0
  1  2  1  0  0  0  0
  2  3  1  0  0  0  0
  2  4  1  0  0  0  0
  2  5  1  0  0  0  0
  5  6  2  0  0  0  0
  5  7  1  0  0  0  0
  7  8  1  0  0  0  0
  7  9  1  0  0  0  0
  9 10  1  0  0  0  0
  9 11  1  0  0  0  0
  9 29  1  0  0  0  0
 11 12  1  0  0  0  0
 11 13  1  0  0  0  0
 11 14  1  0  0  0  0
 14 15  1  0  0  0  0
 14 16  1  0  0  0  0
 14 17  1  0  0  0  0
 17 18  1  0  0  0  0
 17 19  1  0  0  0  0
 17 20  1  0  0  0  0
 20 21  1  0  0  0  0
 20 22  2  0  0  0  0
 22 23  1  0  0  0  0
 22 26  1  0  0  0  0
 23 24  1  0  0  0  0
 23 25  1  0  0  0  0
 26 27  1  0  0  0  0
 26 28  1  0  0  0  0
 29 30  2  0  0  0  0
 29 31  1  0  0  0  0
 31 32  1  0  0  0  0
 31 33  1  0  0  0  0
 33 34  1  0  0  0  0
 33 35  1  0  0  0  0
 33 36  1  0  0  0  0
M  CHG  1  20   1
M  END
$$$$

  -OEChem-03222214013D

 36 35  0     1  0  0  0  0  0999 V2000
   -3.9907   -4.1079    2.1333 H   0  0  0  0  0  0  0  0  0  0  0  0
   -4.0639   -3.1020    1.7100 C   0  0  0  0  0  0  0  0  0  0  0  0
   -4.6323   -2.4731    2.3995 H   0  0  0  0  0  0  0  0  0  0  0  0
   -4.5936   -3.1588    0.7563 H   0  0  0  0  0  0  0  0  0  0  0  0
   -2.6780   -2.5228    1.5015 C   0  0  0  0  0  0  0  0  0  0  0  0
   -1.6900   -3.2048    1.7200 O   0  0  0  0  0  0  0  0  0  0  0  0
   -2.5301   -1.2248    1.0532 N   0  0  0  0  0  0  0  0  0  0  0  0
   -3.3791   -0.6629    1.0021 H   0  0  0  0  0  0  0  0  0  0  0  0
   -1.2550   -0.4914    1.0922 C   0  0  1  0  0  0  0  0  0  0  0  0
   -0.5890   -0.9863    1.8077 H   0  0  0  0  0  0  0  0  0  0  0  0
   -0.5785   -0.5743   -0.2925 C   0  0  0  0  0  0  0  0  0  0  0  0
    0.4710   -0.2828   -0.1799 H   0  0  0  0  0  0  0  0  0  0  0  0
   -0.5928   -1.6157   -0.6326 H   0  0  0  0  0  0  0  0  0  0  0  0
   -1.2256    0.3251   -1.3571 C   0  0  0  0  0  0  0  0  0  0  0  0
   -2.2803    0.0528   -1.4744 H   0  0  0  0  0  0  0  0  0  0  0  0
   -1.1771    1.3730   -1.0438 H   0  0  0  0  0  0  0  0  0  0  0  0
   -0.4930    0.1751   -2.6871 C   0  0  0  0  0  0  0  0  0  0  0  0
    0.5648    0.4229   -2.5451 H   0  0  0  0  0  0  0  0  0  0  0  0
   -0.5656   -0.8653   -3.0235 H   0  0  0  0  0  0  0  0  0  0  0  0
   -1.0995    1.0799   -3.6807 N   0  3  0  0  0  0  0  0  0  0  0  0
   -1.8397    1.6982   -3.3495 H   0  0  0  0  0  0  0  0  0  0  0  0
   -0.7244    1.1448   -4.9250 C   0  0  0  0  0  0  0  0  0  0  0  0
    0.2882    0.3545   -5.4188 N   0  0  0  0  0  0  0  0  0  0  0  0
    0.8475   -0.1747   -4.7529 H   0  0  0  0  0  0  0  0  0  0  0  0
    0.7084    0.5984   -6.3133 H   0  0  0  0  0  0  0  0  0  0  0  0
   -1.3470    2.0270   -5.7753 N   0  0  0  0  0  0  0  0  0  0  0  0
   -2.2044    2.4820   -5.4676 H   0  0  0  0  0  0  0  0  0  0  0  0
   -1.1895    1.9317   -6.7768 H   0  0  0  0  0  0  0  0  0  0  0  0
   -1.4456    0.9462    1.6199 C   0  0  0  0  0  0  0  0  0  0  0  0
   -2.3981    1.6119    1.2276 O   0  0  0  0  0  0  0  0  0  0  0  0
   -0.5780    1.4773    2.5560 N   0  0  0  0  0  0  0  0  0  0  0  0
    0.1330    0.8601    2.9414 H   0  0  0  0  0  0  0  0  0  0  0  0
   -0.7744    2.7847    3.1743 C   0  0  0  0  0  0  0  0  0  0  0  0
   -1.7165    2.8083    3.7325 H   0  0  0  0  0  0  0  0  0  0  0  0
    0.0437    3.0030    3.8680 H   0  0  0  0  0  0  0  0  0  0  0  0
   -0.7978    3.5713    2.4127 H   0  0  0  0  0  0  0  0  0  0  0  0
  1  2  1  0  0  0  0
  2  3  1  0  0  0  0
  2  4  1  0  0  0  0
  2  5  1  0  0  0  0
  5  6  2  0  0  0  0
  5  7  1  0  0  0  0
  7  8  1  0  0  0  0
  7  9  1  0  0  0  0
  9 10  1  0  0  0  0
  9 11  1  0  0  0  0
  9 29  1  0  0  0  0
 11 12  1  0  0  0  0
 11 13  1  0  0  0  0
 11 14  1  0  0  0  0
 14 15  1  0  0  0  0
 14 16  1  0  0  0  0
 14 17  1  0  0  0  0
 17 18  1  0  0  0  0
 17 19  1  0  0  0  0
 17 20  1  0  0  0  0
 20 21  1  0  0  0  0
 20 22  2  0  0  0  0
 22 23  1  0  0  0  0
 22 26  1  0  0  0  0
 23 24  1  0  0  0  0
 23 25  1  0  0  0  0
 26 27  1  0  0  0  0
 26 28  1  0  0  0  0
 29 30  2  0  0  0  0
 29 31  1  0  0  0  0
 31 32  1  0  0  0  0
 31 33  1  0  0  0  0
 33 34  1  0  0  0  0
 33 35  1  0  0  0  0
 33 36  1  0  0  0  0
M  CHG  1  20   1
M  END
$$$$

  -OEChem-03222214013D

 36 35  0     1  0  0  0  0  0999 V2000
   -3.9991   -4.1099    2.1440 H   0  0  0  0  0  0  0  0  0  0  0  0
   -4.0656   -3.1049    1.7176 C   0  0  0  0  0  0  0  0  0  0  0  0
   -4.6455   -2.4745    2.3961 H   0  0  0  0  0  0  0  0  0  0  0  0
   -4.5799   -3.1638    0.7557 H   0  0  0  0  0  0  0  0  0  0  0  0
   -2.6763   -2.5264    1.5298 C   0  0  0  0  0  0  0  0  0  0  0  0
   -1.6921   -3.2074    1.7668 O   0  0  0  0  0  0  0  0  0  0  0  0
   -2.5214   -1.2365    1.0617 N   0  0  0  0  0  0  0  0  0  0  0  0
   -3.3687   -0.6738    0.9963 H   0  0  0  0  0  0  0  0  0  0  0  0
   -1.2458   -0.5030    1.0972 C   0  0  1  0  0  0  0  0  0  0  0  0
   -0.5808   -0.9881    1.8205 H   0  0  0  0  0  0  0  0  0  0  0  0
   -0.5675   -0.5968   -0.2849 C   0  0  0  0  0  0  0  0  0  0  0  0
    0.4863   -0.3150   -0.1861 H   0  0  0  0  0  0  0  0  0  0  0  0
   -0.5957   -1.6419   -0.6128 H   0  0  0  0  0  0  0  0  0  0  0  0
   -1.2230    0.2995   -1.3472 C   0  0  0  0  0  0  0  0  0  0  0  0
   -2.3121    0.1984   -1.2877 H   0  0  0  0  0  0  0  0  0  0  0  0
   -0.9702    1.3487   -1.1574 H   0  0  0  0  0  0  0  0  0  0  0  0
   -0.7596   -0.1062   -2.7427 C   0  0  0  0  0  0  0  0  0  0  0  0
    0.3284    0.0060   -2.8082 H   0  0  0  0  0  0  0  0  0  0  0  0
   -1.0128   -1.1587   -2.9129 H   0  0  0  0  0  0  0  0  0  0  0  0
   -1.4247    0.7478   -3.7439 N   0  3  0  0  0  0  0  0  0  0  0  0
   -2.1130    1.4154   -3.3966 H   0  0  0  0  0  0  0  0  0  0  0  0
   -1.1890    0.6810   -5.0220 C   0  0  0  0  0  0  0  0  0  0  0  0
   -0.2870   -0.2169   -5.5459 N   0  0  0  0  0  0  0  0  0  0  0  0
    0.0748   -0.9426   -4.9304 H   0  0  0  0  0  0  0  0  0  0  0  0
   -0.3028   -0.4001   -6.5470 H   0  0  0  0  0  0  0  0  0  0  0  0
   -1.8560    1.5236   -5.8792 N   0  0  0  0  0  0  0  0  0  0  0  0
   -2.3798    2.3045   -5.4880 H   0  0  0  0  0  0  0  0  0  0  0  0
   -1.5197    1.6074   -6.8367 H   0  0  0  0  0  0  0  0  0  0  0  0
   -1.4370    0.9437    1.5988 C   0  0  0  0  0  0  0  0  0  0  0  0
   -2.3807    1.6066    1.1807 O   0  0  0  0  0  0  0  0  0  0  0  0
   -0.5752    1.4900    2.5314 N   0  0  0  0  0  0  0  0  0  0  0  0
    0.1358    0.8809    2.9291 H   0  0  0  0  0  0  0  0  0  0  0  0
   -0.7709    2.8102    3.1220 C   0  0  0  0  0  0  0  0  0  0  0  0
   -1.7223    2.8517    3.6632 H   0  0  0  0  0  0  0  0  0  0  0  0
    0.0366    3.0343    3.8262 H   0  0  0  0  0  0  0  0  0  0  0  0
   -0.7740    3.5827    2.3459 H   0  0  0  0  0  0  0  0  0  0  0  0
  1  2  1  0  0  0  0
  2  3  1  0  0  0  0
  2  4  1  0  0  0  0
  2  5  1  0  0  0  0
  5  6  2  0  0  0  0
  5  7  1  0  0  0  0
  7  8  1  0  0  0  0
  7  9  1  0  0  0  0
  9 10  1  0  0  0  0
  9 11  1  0  0  0  0
  9 29  1  0  0  0  0
 11 12  1  0  0  0  0
 11 13  1  0  0  0  0
 11 14  1  0  0  0  0
 14 15  1  0  0  0  0
 14 16  1  0  0  0  0
 14 17  1  0  0  0  0
 17 18  1  0  0  0  0
 17 19  1  0  0  0  0
 17 20  1  0  0  0  0
 20 21  1  0  0  0  0
 20 22  2  0  0  0  0
 22 23  1  0  0  0  0
 22 26  1  0  0  0  0
 23 24  1  0  0  0  0
 23 25  1  0  0  0  0
 26 27  1  0  0  0  0
 26 28  1  0  0  0  0
 29 30  2  0  0  0  0
 29 31  1  0  0  0  0
 31 32  1  0  0  0  0
 31 33  1  0  0  0  0
 33 34  1  0  0  0  0
 33 35  1  0  0  0  0
 33 36  1  0  0  0  0
M  CHG  1  20   1
M  END
$$$$

  -OEChem-03222214013D

 36 35  0     1  0  0  0  0  0999 V2000
   -4.0015   -4.1032    2.1767 H   0  0  0  0  0  0  0  0  0  0  0  0
   -4.0712   -3.0951    1.7580 C   0  0  0  0  0  0  0  0  0  0  0  0
   -4.6236   -2.4627    2.4574 H   0  0  0  0  0  0  0  0  0  0  0  0
   -4.6154   -3.1433    0.8122 H   0  0  0  0  0  0  0  0  0  0  0  0
   -2.6829   -2.5288    1.5307 C   0  0  0  0  0  0  0  0  0  0  0  0
   -1.6982   -3.2185    1.7380 O   0  0  0  0  0  0  0  0  0  0  0  0
   -2.5313   -1.2390    1.0619 N   0  0  0  0  0  0  0  0  0  0  0  0
   -3.3774   -0.6719    1.0230 H   0  0  0  0  0  0  0  0  0  0  0  0
   -1.2549   -0.5067    1.0921 C   0  0  1  0  0  0  0  0  0  0  0  0
   -0.5902   -0.9930    1.8148 H   0  0  0  0  0  0  0  0  0  0  0  0
   -0.5743   -0.5996   -0.2883 C   0  0  0  0  0  0  0  0  0  0  0  0
    0.4807   -0.3221   -0.1914 H   0  0  0  0  0  0  0  0  0  0  0  0
   -0.6038   -1.6470   -0.6091 H   0  0  0  0  0  0  0  0  0  0  0  0
   -1.2263    0.2957   -1.3563 C   0  0  0  0  0  0  0  0  0  0  0  0
   -2.2981    0.3910   -1.1514 H   0  0  0  0  0  0  0  0  0  0  0  0
   -0.7861    1.2985   -1.3200 H   0  0  0  0  0  0  0  0  0  0  0  0
   -1.0633   -0.3214   -2.7423 C   0  0  0  0  0  0  0  0  0  0  0  0
    0.0043   -0.4088   -2.9739 H   0  0  0  0  0  0  0  0  0  0  0  0
   -1.5047   -1.3245   -2.7417 H   0  0  0  0  0  0  0  0  0  0  0  0
   -1.7364    0.5306   -3.7394 N   0  3  0  0  0  0  0  0  0  0  0  0
   -2.2513    1.3364   -3.3848 H   0  0  0  0  0  0  0  0  0  0  0  0
   -1.7219    0.2941   -5.0191 C   0  0  0  0  0  0  0  0  0  0  0  0
   -1.0661   -0.7948   -5.5475 N   0  0  0  0  0  0  0  0  0  0  0  0
   -0.7269   -1.5050   -4.9017 H   0  0  0  0  0  0  0  0  0  0  0  0
   -1.2770   -1.0769   -6.5025 H   0  0  0  0  0  0  0  0  0  0  0  0
   -2.3797    1.1466   -5.8733 N   0  0  0  0  0  0  0  0  0  0  0  0
   -2.7119    2.0397   -5.5141 H   0  0  0  0  0  0  0  0  0  0  0  0
   -2.1945    1.0730   -6.8719 H   0  0  0  0  0  0  0  0  0  0  0  0
   -1.4383    0.9409    1.5947 C   0  0  0  0  0  0  0  0  0  0  0  0
   -2.3902    1.6018    1.1935 O   0  0  0  0  0  0  0  0  0  0  0  0
   -0.5702    1.4850    2.5226 N   0  0  0  0  0  0  0  0  0  0  0  0
    0.1525    0.8796    2.9044 H   0  0  0  0  0  0  0  0  0  0  0  0
   -0.7676    2.8001    3.1238 C   0  0  0  0  0  0  0  0  0  0  0  0
   -1.7199    2.8362    3.6641 H   0  0  0  0  0  0  0  0  0  0  0  0
    0.0387    3.0188    3.8309 H   0  0  0  0  0  0  0  0  0  0  0  0
   -0.7702    3.5786    2.3536 H   0  0  0  0  0  0  0  0  0  0  0  0
  1  2  1  0  0  0  0
  2  3  1  0  0  0  0
  2  4  1  0  0  0  0
  2  5  1  0  0  0  0
  5  6  2  0  0  0  0
  5  7  1  0  0  0  0
  7  8  1  0  0  0  0
  7  9  1  0  0  0  0
  9 10  1  0  0  0  0
  9 11  1  0  0  0  0
  9 29  1  0  0  0  0
 11 12  1  0  0  0  0
 11 13  1  0  0  0  0
 11 14  1  0  0  0  0
 14 15  1  0  0  0  0
 14 16  1  0  0  0  0
 14 17  1  0  0  0  0
 17 18  1  0  0  0  0
 17 19  1  0  0  0  0
 17 20  1  0  0  0  0
 20 21  1  0  0  0  0
 20 22  2  0  0  0  0
 22 23  1  0  0  0  0
 22 26  1  0  0  0  0
 23 24  1  0  0  0  0
 23 25  1  0  0  0  0
 26 27  1  0  0  0  0
 26 28  1  0  0  0  0
 29 30  2  0  0  0  0
 29 31  1  0  0  0  0
 31 32  1  0  0  0  0
 31 33  1  0  0  0  0
 33 34  1  0  0  0  0
 33 35  1  0  0  0  0
 33 36  1  0  0  0  0
M  CHG  1  20   1
M  END
$$$$

  -OEChem-03222214013D

 36 35  0     1  0  0  0  0  0999 V2000
   -3.9970   -4.0884    2.2024 H   0  0  0  0  0  0  0  0  0  0  0  0
   -4.0768   -3.0845    1.7754 C   0  0  0  0  0  0  0  0  0  0  0  0
   -4.6120   -2.4457    2.4821 H   0  0  0  0  0  0  0  0  0  0  0  0
   -4.6435   -3.1415    0.8434 H   0  0  0  0  0  0  0  0  0  0  0  0
   -2.6948   -2.5193    1.5101 C   0  0  0  0  0  0  0  0  0  0  0  0
   -1.7068   -3.2170    1.6687 O   0  0  0  0  0  0  0  0  0  0  0  0
   -2.5535   -1.2213    1.0606 N   0  0  0  0  0  0  0  0  0  0  0  0
   -3.3988   -0.6515    1.0643 H   0  0  0  0  0  0  0  0  0  0  0  0
   -1.2776   -0.4882    1.0871 C   0  0  1  0  0  0  0  0  0  0  0  0
   -0.6128   -0.9842    1.8032 H   0  0  0  0  0  0  0  0  0  0  0  0
   -0.5943   -0.5796   -0.2922 C   0  0  0  0  0  0  0  0  0  0  0  0
    0.4581   -0.2955   -0.1873 H   0  0  0  0  0  0  0  0  0  0  0  0
   -0.6087   -1.6292   -0.6071 H   0  0  0  0  0  0  0  0  0  0  0  0
   -1.2357    0.3094   -1.3751 C   0  0  0  0  0  0  0  0  0  0  0  0
   -2.2335    0.6283   -1.0583 H   0  0  0  0  0  0  0  0  0  0  0  0
   -0.6275    1.2081   -1.5262 H   0  0  0  0  0  0  0  0  0  0  0  0
   -1.3914   -0.4689   -2.6788 C   0  0  0  0  0  0  0  0  0  0  0  0
   -0.4005   -0.7585   -3.0461 H   0  0  0  0  0  0  0  0  0  0  0  0
   -1.9714   -1.3779   -2.4841 H   0  0  0  0  0  0  0  0  0  0  0  0
   -2.0831    0.3694   -3.6743 N   0  3  0  0  0  0  0  0  0  0  0  0
   -2.4181    1.2793   -3.3583 H   0  0  0  0  0  0  0  0  0  0  0  0
   -2.3106   -0.0061   -4.8993 C   0  0  0  0  0  0  0  0  0  0  0  0
   -1.9087   -1.2376   -5.3652 N   0  0  0  0  0  0  0  0  0  0  0  0
   -1.5698   -1.9160   -4.6858 H   0  0  0  0  0  0  0  0  0  0  0  0
   -2.3069   -1.5869   -6.2344 H   0  0  0  0  0  0  0  0  0  0  0  0
   -2.9724    0.8411   -5.7557 N   0  0  0  0  0  0  0  0  0  0  0  0
   -3.1101    1.8103   -5.4755 H   0  0  0  0  0  0  0  0  0  0  0  0
   -2.9638    0.6292   -6.7516 H   0  0  0  0  0  0  0  0  0  0  0  0
   -1.4456    0.9529    1.6152 C   0  0  0  0  0  0  0  0  0  0  0  0
   -2.4145    1.6165    1.2623 O   0  0  0  0  0  0  0  0  0  0  0  0
   -0.5593    1.4757    2.5384 N   0  0  0  0  0  0  0  0  0  0  0  0
    0.1789    0.8668    2.8833 H   0  0  0  0  0  0  0  0  0  0  0  0
   -0.7381    2.7801    3.1678 C   0  0  0  0  0  0  0  0  0  0  0  0
   -1.6804    2.8121    3.7253 H   0  0  0  0  0  0  0  0  0  0  0  0
    0.0816    2.9803    3.8650 H   0  0  0  0  0  0  0  0  0  0  0  0
   -0.7490    3.5731    2.4126 H   0  0  0  0  0  0  0  0  0  0  0  0
  1  2  1  0  0  0  0
  2  3  1  0  0  0  0
  2  4  1  0  0  0  0
  2  5  1  0  0  0  0
  5  6  2  0  0  0  0
  5  7  1  0  0  0  0
  7  8  1  0  0  0  0
  7  9  1  0  0  0  0
  9 10  1  0  0  0  0
  9 11  1  0  0  0  0
  9 29  1  0  0  0  0
 11 12  1  0  0  0  0
 11 13  1  0  0  0  0
 11 14  1  0  0  0  0
 14 15  1  0  0  0  0
 14 16  1  0  0  0  0
 14 17  1  0  0  0  0
 17 18  1  0  0  0  0
 17 19  1  0  0  0  0
 17 20  1  0  0  0  0
 20 21  1  0  0  0  0
 20 22  2  0  0  0  0
 22 23  1  0  0  0  0
 22 26  1  0  0  0  0
 23 24  1  0  0  0  0
 23 25  1  0  0  0  0
 26 27  1  0  0  0  0
 26 28  1  0  0  0  0
 29 30  2  0  0  0  0
 29 31  1  0  0  0  0
 31 32  1  0  0  0  0
 31 33  1  0  0  0  0
 33 34  1  0  0  0  0
 33 35  1  0  0  0  0
 33 36  1  0  0  0  0
M  CHG  1  20   1
M  END
$$$$

  -OEChem-03222214013D

 36 35  0     1  0  0  0  0  0999 V2000
   -3.9858   -4.1236    2.1460 H   0  0  0  0  0  0  0  0  0  0  0  0
   -4.0745   -3.0792    1.8332 C   0  0  0  0  0  0  0  0  0  0  0  0
   -4.5374   -2.5093    2.6426 H   0  0  0  0  0  0  0  0  0  0  0  0
   -4.7137   -3.0293    0.9490 H   0  0  0  0  0  0  0  0  0  0  0  0
   -2.7039   -2.5110    1.5187 C   0  0  0  0  0  0  0  0  0  0  0  0
   -1.7127   -3.2156    1.6141 O   0  0  0  0  0  0  0  0  0  0  0  0
   -2.5783   -1.2056    1.0859 N   0  0  0  0  0  0  0  0  0  0  0  0
   -3.4216   -0.6349    1.1395 H   0  0  0  0  0  0  0  0  0  0  0  0
   -1.3029   -0.4705    1.0883 C   0  0  1  0  0  0  0  0  0  0  0  0
   -0.6276   -0.9747    1.7888 H   0  0  0  0  0  0  0  0  0  0  0  0
   -0.6383   -0.5636   -0.2997 C   0  0  0  0  0  0  0  0  0  0  0  0
    0.4073   -0.2555   -0.1942 H   0  0  0  0  0  0  0  0  0  0  0  0
   -0.6242   -1.6141   -0.6109 H   0  0  0  0  0  0  0  0  0  0  0  0
   -1.2847    0.3150   -1.3895 C   0  0  0  0  0  0  0  0  0  0  0  0
   -2.1318    0.8789   -0.9910 H   0  0  0  0  0  0  0  0  0  0  0  0
   -0.5486    1.0372   -1.7590 H   0  0  0  0  0  0  0  0  0  0  0  0
   -1.7836   -0.5589   -2.5373 C   0  0  0  0  0  0  0  0  0  0  0  0
   -0.9314   -1.0796   -2.9883 H   0  0  0  0  0  0  0  0  0  0  0  0
   -2.4779   -1.3070   -2.1383 H   0  0  0  0  0  0  0  0  0  0  0  0
   -2.4635    0.2788   -3.5415 N   0  3  0  0  0  0  0  0  0  0  0  0
   -2.6298    1.2537   -3.2932 H   0  0  0  0  0  0  0  0  0  0  0  0
   -2.8869   -0.1708   -4.6870 C   0  0  0  0  0  0  0  0  0  0  0  0
   -2.7285   -1.4889   -5.0504 N   0  0  0  0  0  0  0  0  0  0  0  0
   -2.4181   -2.1446   -4.3360 H   0  0  0  0  0  0  0  0  0  0  0  0
   -3.2784   -1.8513   -5.8265 H   0  0  0  0  0  0  0  0  0  0  0  0
   -3.5147    0.6844   -5.5610 N   0  0  0  0  0  0  0  0  0  0  0  0
   -3.4744    1.6856   -5.3793 H   0  0  0  0  0  0  0  0  0  0  0  0
   -3.6535    0.3798   -6.5227 H   0  0  0  0  0  0  0  0  0  0  0  0
   -1.4527    0.9629    1.6427 C   0  0  0  0  0  0  0  0  0  0  0  0
   -2.4468    1.6203    1.3545 O   0  0  0  0  0  0  0  0  0  0  0  0
   -0.5388    1.4715    2.5469 N   0  0  0  0  0  0  0  0  0  0  0  0
    0.2214    0.8647    2.8447 H   0  0  0  0  0  0  0  0  0  0  0  0
   -0.6953    2.7670    3.2008 C   0  0  0  0  0  0  0  0  0  0  0  0
   -1.5899    2.7725    3.8327 H   0  0  0  0  0  0  0  0  0  0  0  0
    0.1739    2.9815    3.8304 H   0  0  0  0  0  0  0  0  0  0  0  0
   -0.7851    3.5659    2.4570 H   0  0  0  0  0  0  0  0  0  0  0  0
  1  2  1  0  0  0  0
  2  3  1  0  0  0  0
  2  4  1  0  0  0  0
  2  5  1  0  0  0  0
  5  6  2  0  0  0  0
  5  7  1  0  0  0  0
  7  8  1  0  0  0  0
  7  9  1  0  0  0  0
  9 10  1  0  0  0  0
  9 11  1  0  0  0  0
  9 29  1  0  0  0  0
 11 12  1  0  0  0  0
 11 13  1  0  0  0  0
 11 14  1  0  0  0  0
 14 15  1  0  0  0  0
 14 16  1  0  0  0  0
 14 17  1  0  0  0  0
 17 18  1  0  0  0  0
 17 19  1  0  0  0  0
 17 20  1  0  0  0  0
 20 21  1  0  0  0  0
 20 22  2  0  0  0  0
 22 23  1  0  0  0  0
 22 26  1  0  0  0  0
 23 24  1  0  0  0  0
 23 25  1  0  0  0  0
 26 27  1  0  0  0  0
 26 28  1  0  0  0  0
 29 30  2  0  0  0  0
 29 31  1  0  0  0  0
 31 32  1  0  0  0  0
 31 33  1  0  0  0  0
 33 34  1  0  0  0  0
 33 35  1  0  0  0  0
 33 36  1  0  0  0  0
M  CHG  1  20   1
M  END
$$$$

  -OEChem-03222214013D

 36 35  0     1  0  0  0  0  0999 V2000
   -3.9808   -4.1026    2.2654 H   0  0  0  0  0  0  0  0  0  0  0  0
   -4.0718   -3.0502    1.9815 C   0  0  0  0  0  0  0  0  0  0  0  0
   -4.4675   -2.4910    2.8330 H   0  0  0  0  0  0  0  0  0  0  0  0
   -4.7700   -2.9702    1.1454 H   0  0  0  0  0  0  0  0  0  0  0  0
   -2.7156   -2.4990    1.5847 C   0  0  0  0  0  0  0  0  0  0  0  0
   -1.7293   -3.2157    1.6206 O   0  0  0  0  0  0  0  0  0  0  0  0
   -2.5988   -1.1945    1.1467 N   0  0  0  0  0  0  0  0  0  0  0  0
   -3.4299   -0.6137    1.2556 H   0  0  0  0  0  0  0  0  0  0  0  0
   -1.3170   -0.4724    1.0971 C   0  0  1  0  0  0  0  0  0  0  0  0
   -0.6195   -0.9809    1.7727 H   0  0  0  0  0  0  0  0  0  0  0  0
   -0.7058   -0.5774   -0.3161 C   0  0  0  0  0  0  0  0  0  0  0  0
    0.3399   -0.2617   -0.2364 H   0  0  0  0  0  0  0  0  0  0  0  0
   -0.6909   -1.6274   -0.6290 H   0  0  0  0  0  0  0  0  0  0  0  0
   -1.3736    0.2984   -1.3948 C   0  0  0  0  0  0  0  0  0  0  0  0
   -1.9816    1.0924   -0.9560 H   0  0  0  0  0  0  0  0  0  0  0  0
   -0.5925    0.7794   -1.9934 H   0  0  0  0  0  0  0  0  0  0  0  0
   -2.2330   -0.5716   -2.3086 C   0  0  0  0  0  0  0  0  0  0  0  0
   -1.5927   -1.3089   -2.8048 H   0  0  0  0  0  0  0  0  0  0  0  0
   -2.9705   -1.1071   -1.7001 H   0  0  0  0  0  0  0  0  0  0  0  0
   -2.9182    0.2742   -3.3031 N   0  3  0  0  0  0  0  0  0  0  0  0
   -3.0352    1.2594   -3.0676 H   0  0  0  0  0  0  0  0  0  0  0  0
   -3.4195   -0.1788   -4.4156 C   0  0  0  0  0  0  0  0  0  0  0  0
   -3.3374   -1.5090   -4.7606 N   0  0  0  0  0  0  0  0  0  0  0  0
   -3.0227   -2.1661   -4.0492 H   0  0  0  0  0  0  0  0  0  0  0  0
   -3.9361   -1.8593   -5.5057 H   0  0  0  0  0  0  0  0  0  0  0  0
   -4.0545    0.6866   -5.2744 N   0  0  0  0  0  0  0  0  0  0  0  0
   -3.9653    1.6882   -5.1139 H   0  0  0  0  0  0  0  0  0  0  0  0
   -4.2550    0.3712   -6.2217 H   0  0  0  0  0  0  0  0  0  0  0  0
   -1.4407    0.9601    1.6598 C   0  0  0  0  0  0  0  0  0  0  0  0
   -2.4520    1.6128    1.4240 O   0  0  0  0  0  0  0  0  0  0  0  0
   -0.4909    1.4635    2.5292 N   0  0  0  0  0  0  0  0  0  0  0  0
    0.2846    0.8574    2.7858 H   0  0  0  0  0  0  0  0  0  0  0  0
   -0.6264    2.7486    3.2081 C   0  0  0  0  0  0  0  0  0  0  0  0
   -1.5039    2.7462    3.8634 H   0  0  0  0  0  0  0  0  0  0  0  0
    0.2595    2.9506    3.8185 H   0  0  0  0  0  0  0  0  0  0  0  0
   -0.7338    3.5594    2.4799 H   0  0  0  0  0  0  0  0  0  0  0  0
  1  2  1  0  0  0  0
  2  3  1  0  0  0  0
  2  4  1  0  0  0  0
  2  5  1  0  0  0  0
  5  6  2  0  0  0  0
  5  7  1  0  0  0  0
  7  8  1  0  0  0  0
  7  9  1  0  0  0  0
  9 10  1  0  0  0  0
  9 11  1  0  0  0  0
  9 29  1  0  0  0  0
 11 12  1  0  0  0  0
 11 13  1  0  0  0  0
 11 14  1  0  0  0  0
 14 15  1  0  0  0  0
 14 16  1  0  0  0  0
 14 17  1  0  0  0  0
 17 18  1  0  0  0  0
 17 19  1  0  0  0  0
 17 20  1  0  0  0  0
 20 21  1  0  0  0  0
 20 22  2  0  0  0  0
 22 23  1  0  0  0  0
 22 26  1  0  0  0  0
 23 24  1  0  0  0  0
 23 25  1  0  0  0  0
 26 27  1  0  0  0  0
 26 28  1  0  0  0  0
 29 30  2  0  0  0  0
 29 31  1  0  0  0  0
 31 32  1  0  0  0  0
 31 33  1  0  0  0  0
 33 34  1  0  0  0  0
 33 35  1  0  0  0  0
 33 36  1  0  0  0  0
M  CHG  1  20   1
M  END
$$$$

  -OEChem-03222214013D

 36 35  0     1  0  0  0  0  0999 V2000
   -4.0311   -4.0629    2.3386 H   0  0  0  0  0  0  0  0  0  0  0  0
   -4.1045   -3.0125    2.0419 C   0  0  0  0  0  0  0  0  0  0  0  0
   -4.4928   -2.4369    2.8856 H   0  0  0  0  0  0  0  0  0  0  0  0
   -4.7991   -2.9317    1.2030 H   0  0  0  0  0  0  0  0  0  0  0  0
   -2.7387   -2.4884    1.6414 C   0  0  0  0  0  0  0  0  0  0  0  0
   -1.7625   -3.2170    1.7016 O   0  0  0  0  0  0  0  0  0  0  0  0
   -2.6016   -1.1966    1.1725 N   0  0  0  0  0  0  0  0  0  0  0  0
   -3.4217   -0.5989    1.2722 H   0  0  0  0  0  0  0  0  0  0  0  0
   -1.3068   -0.4981    1.1113 C   0  0  1  0  0  0  0  0  0  0  0  0
   -0.6150   -1.0010    1.7967 H   0  0  0  0  0  0  0  0  0  0  0  0
   -0.6977   -0.6264   -0.3026 C   0  0  0  0  0  0  0  0  0  0  0  0
    0.3529   -0.3263   -0.2254 H   0  0  0  0  0  0  0  0  0  0  0  0
   -0.7024   -1.6780   -0.6109 H   0  0  0  0  0  0  0  0  0  0  0  0
   -1.3479    0.2509   -1.3887 C   0  0  0  0  0  0  0  0  0  0  0  0
   -1.6924    1.2060   -0.9856 H   0  0  0  0  0  0  0  0  0  0  0  0
   -0.5932    0.4785   -2.1494 H   0  0  0  0  0  0  0  0  0  0  0  0
   -2.4941   -0.5025   -2.0578 C   0  0  0  0  0  0  0  0  0  0  0  0
   -2.0928   -1.3859   -2.5650 H   0  0  0  0  0  0  0  0  0  0  0  0
   -3.2001   -0.8366   -1.2897 H   0  0  0  0  0  0  0  0  0  0  0  0
   -3.1816    0.3870   -3.0115 N   0  3  0  0  0  0  0  0  0  0  0  0
   -3.1116    1.3890   -2.8363 H   0  0  0  0  0  0  0  0  0  0  0  0
   -3.9178   -0.0365   -3.9976 C   0  0  0  0  0  0  0  0  0  0  0  0
   -4.0707   -1.3779   -4.2661 N   0  0  0  0  0  0  0  0  0  0  0  0
   -3.4652   -2.0335   -3.7762 H   0  0  0  0  0  0  0  0  0  0  0  0
   -4.4477   -1.6561   -5.1698 H   0  0  0  0  0  0  0  0  0  0  0  0
   -4.5655    0.8737   -4.7985 N   0  0  0  0  0  0  0  0  0  0  0  0
   -4.6078    1.8455   -4.4970 H   0  0  0  0  0  0  0  0  0  0  0  0
   -5.2962    0.5367   -5.4227 H   0  0  0  0  0  0  0  0  0  0  0  0
   -1.4279    0.9457    1.6430 C   0  0  0  0  0  0  0  0  0  0  0  0
   -2.4300    1.6001    1.3718 O   0  0  0  0  0  0  0  0  0  0  0  0
   -0.4854    1.4653    2.5101 N   0  0  0  0  0  0  0  0  0  0  0  0
    0.2848    0.8626    2.7901 H   0  0  0  0  0  0  0  0  0  0  0  0
   -0.6245    2.7659    3.1570 C   0  0  0  0  0  0  0  0  0  0  0  0
   -1.5235    2.7898    3.7825 H   0  0  0  0  0  0  0  0  0  0  0  0
    0.2434    2.9675    3.7927 H   0  0  0  0  0  0  0  0  0  0  0  0
   -0.6953    3.5622    2.4086 H   0  0  0  0  0  0  0  0  0  0  0  0
  1  2  1  0  0  0  0
  2  3  1  0  0  0  0
  2  4  1  0  0  0  0
  2  5  1  0  0  0  0
  5  6  2  0  0  0  0
  5  7  1  0  0  0  0
  7  8  1  0  0  0  0
  7  9  1  0  0  0  0
  9 10  1  0  0  0  0
  9 11  1  0  0  0  0
  9 29  1  0  0  0  0
 11 12  1  0  0  0  0
 11 13  1  0  0  0  0
 11 14  1  0  0  0  0
 14 15  1  0  0  0  0
 14 16  1  0  0  0  0
 14 17  1  0  0  0  0
 17 18  1  0  0  0  0
 17 19  1  0  0  0  0
 17 20  1  0  0  0  0
 20 21  1  0  0  0  0
 20 22  2  0  0  0  0
 22 23  1  0  0  0  0
 22 26  1  0  0  0  0
 23 24  1  0  0  0  0
 23 25  1  0  0  0  0
 26 27  1  0  0  0  0
 26 28  1  0  0  0  0
 29 30  2  0  0  0  0
 29 31  1  0  0  0  0
 31 32  1  0  0  0  0
 31 33  1  0  0  0  0
 33 34  1  0  0  0  0
 33 35  1  0  0  0  0
 33 36  1  0  0  0  0
M  CHG  1  20   1
M  END
$$$$

  -OEChem-03222214013D

 36 35  0     1  0  0  0  0  0999 V2000
   -3.8926   -4.0781    2.7628 H   0  0  0  0  0  0  0  0  0  0  0  0
   -4.0159   -3.0585    2.3859 C   0  0  0  0  0  0  0  0  0  0  0  0
   -4.3607   -2.4223    3.2048 H   0  0  0  0  0  0  0  0  0  0  0  0
   -4.7687   -3.0650    1.5946 H   0  0  0  0  0  0  0  0  0  0  0  0
   -2.6968   -2.5401    1.8462 C   0  0  0  0  0  0  0  0  0  0  0  0
   -1.7160   -3.2644    1.8317 O   0  0  0  0  0  0  0  0  0  0  0  0
   -2.6096   -1.2563    1.3432 N   0  0  0  0  0  0  0  0  0  0  0  0
   -3.4141   -0.6559    1.5206 H   0  0  0  0  0  0  0  0  0  0  0  0
   -1.3266   -0.5643    1.1331 C   0  0  1  0  0  0  0  0  0  0  0  0
   -0.5592   -1.0599    1.7383 H   0  0  0  0  0  0  0  0  0  0  0  0
   -0.8786   -0.6749   -0.3429 C   0  0  0  0  0  0  0  0  0  0  0  0
    0.1791   -0.3940   -0.3852 H   0  0  0  0  0  0  0  0  0  0  0  0
   -0.9429   -1.7210   -0.6615 H   0  0  0  0  0  0  0  0  0  0  0  0
   -1.6357    0.2187   -1.3429 C   0  0  0  0  0  0  0  0  0  0  0  0
   -1.6891    1.2493   -0.9802 H   0  0  0  0  0  0  0  0  0  0  0  0
   -1.0703    0.2419   -2.2806 H   0  0  0  0  0  0  0  0  0  0  0  0
   -3.0335   -0.3220   -1.6334 C   0  0  0  0  0  0  0  0  0  0  0  0
   -2.9588   -1.3174   -2.0811 H   0  0  0  0  0  0  0  0  0  0  0  0
   -3.5845   -0.4210   -0.6928 H   0  0  0  0  0  0  0  0  0  0  0  0
   -3.7471    0.6215   -2.5132 N   0  3  0  0  0  0  0  0  0  0  0  0
   -3.8719    1.5677   -2.1523 H   0  0  0  0  0  0  0  0  0  0  0  0
   -4.2440    0.3144   -3.6764 C   0  0  0  0  0  0  0  0  0  0  0  0
   -4.1117   -0.9429   -4.2206 N   0  0  0  0  0  0  0  0  0  0  0  0
   -3.4651   -1.5894   -3.7735 H   0  0  0  0  0  0  0  0  0  0  0  0
   -4.3071   -1.0699   -5.2114 H   0  0  0  0  0  0  0  0  0  0  0  0
   -4.9206    1.2725   -4.3930 N   0  0  0  0  0  0  0  0  0  0  0  0
   -5.1691    2.1450   -3.9299 H   0  0  0  0  0  0  0  0  0  0  0  0
   -5.4813    0.9784   -5.1906 H   0  0  0  0  0  0  0  0  0  0  0  0
   -1.4076    0.8853    1.6559 C   0  0  0  0  0  0  0  0  0  0  0  0
   -2.4259    1.5384    1.4449 O   0  0  0  0  0  0  0  0  0  0  0  0
   -0.3891    1.4275    2.4164 N   0  0  0  0  0  0  0  0  0  0  0  0
    0.4022    0.8302    2.6448 H   0  0  0  0  0  0  0  0  0  0  0  0
   -0.4607    2.7534    3.0215 C   0  0  0  0  0  0  0  0  0  0  0  0
   -1.3076    2.8151    3.7132 H   0  0  0  0  0  0  0  0  0  0  0  0
    0.4565    2.9650    3.5801 H   0  0  0  0  0  0  0  0  0  0  0  0
   -0.5792    3.5223    2.2506 H   0  0  0  0  0  0  0  0  0  0  0  0
  1  2  1  0  0  0  0
  2  3  1  0  0  0  0
  2  4  1  0  0  0  0
  2  5  1  0  0  0  0
  5  6  2  0  0  0  0
  5  7  1  0  0  0  0
  7  8  1  0  0  0  0
  7  9  1  0  0  0  0
  9 10  1  0  0  0  0
  9 11  1  0  0  0  0
  9 29  1  0  0  0  0
 11 12  1  0  0  0  0
 11 13  1  0  0  0  0
 11 14  1  0  0  0  0
 14 15  1  0  0  0  0
 14 16  1  0  0  0  0
 14 17  1  0  0  0  0
 17 18  1  0  0  0  0
 17 19  1  0  0  0  0
 17 20  1  0  0  0  0
 20 21  1  0  0  0  0
 20 22  2  0  0  0  0
 22 23  1  0  0  0  0
 22 26  1  0  0  0  0
 23 24  1  0  0  0  0
 23 25  1  0  0  0  0
 26 27  1  0  0  0  0
 26 28  1  0  0  0  0
 29 30  2  0  0  0  0
 29 31  1  0  0  0  0
 31 32  1  0  0  0  0
 31 33  1  0  0  0  0
 33 34  1  0  0  0  0
 33 35  1  0  0  0  0
 33 36  1  0  0  0  0
M  CHG  1  20   1
M  END
$$$$

  -OEChem-03222214013D

 36 35  0     1  0  0  0  0  0999 V2000
   -3.7387   -4.2096    2.5680 H   0  0  0  0  0  0  0  0  0  0  0  0
   -3.9031   -3.2380    2.0928 C   0  0  0  0  0  0  0  0  0  0  0  0
   -4.4058   -2.5817    2.8072 H   0  0  0  0  0  0  0  0  0  0  0  0
   -4.5437   -3.3781    1.2195 H   0  0  0  0  0  0  0  0  0  0  0  0
   -2.5762   -2.6344    1.6739 C   0  0  0  0  0  0  0  0  0  0  0  0
   -1.5557   -3.2966    1.7493 O   0  0  0  0  0  0  0  0  0  0  0  0
   -2.5244   -1.3410    1.1892 N   0  0  0  0  0  0  0  0  0  0  0  0
   -3.3696   -0.7887    1.3232 H   0  0  0  0  0  0  0  0  0  0  0  0
   -1.2680   -0.5742    1.1185 C   0  0  1  0  0  0  0  0  0  0  0  0
   -0.5370   -1.0336    1.7935 H   0  0  0  0  0  0  0  0  0  0  0  0
   -0.6587   -0.6054   -0.3022 C   0  0  0  0  0  0  0  0  0  0  0  0
    0.3855   -0.2845   -0.2261 H   0  0  0  0  0  0  0  0  0  0  0  0
   -0.6482   -1.6433   -0.6523 H   0  0  0  0  0  0  0  0  0  0  0  0
   -1.3434    0.2754   -1.3660 C   0  0  0  0  0  0  0  0  0  0  0  0
   -1.2689    1.3272   -1.0696 H   0  0  0  0  0  0  0  0  0  0  0  0
   -0.7961    0.1624   -2.3081 H   0  0  0  0  0  0  0  0  0  0  0  0
   -2.8083   -0.0875   -1.5964 C   0  0  0  0  0  0  0  0  0  0  0  0
   -2.8747   -1.1264   -1.9373 H   0  0  0  0  0  0  0  0  0  0  0  0
   -3.3526    0.0097   -0.6516 H   0  0  0  0  0  0  0  0  0  0  0  0
   -3.3860    0.8283   -2.5969 N   0  3  0  0  0  0  0  0  0  0  0  0
   -2.8056    1.6115   -2.8933 H   0  0  0  0  0  0  0  0  0  0  0  0
   -4.6070    0.7411   -3.0364 C   0  0  0  0  0  0  0  0  0  0  0  0
   -5.4562   -0.2571   -2.6182 N   0  0  0  0  0  0  0  0  0  0  0  0
   -5.1569   -0.8283   -1.8312 H   0  0  0  0  0  0  0  0  0  0  0  0
   -6.4555   -0.1404   -2.7720 H   0  0  0  0  0  0  0  0  0  0  0  0
   -5.0721    1.6682   -3.9384 N   0  0  0  0  0  0  0  0  0  0  0  0
   -4.4071    2.3030   -4.3760 H   0  0  0  0  0  0  0  0  0  0  0  0
   -5.9435    1.4760   -4.4290 H   0  0  0  0  0  0  0  0  0  0  0  0
   -1.4924    0.8593    1.6411 C   0  0  0  0  0  0  0  0  0  0  0  0
   -2.5215    1.4510    1.3251 O   0  0  0  0  0  0  0  0  0  0  0  0
   -0.5951    1.4521    2.5088 N   0  0  0  0  0  0  0  0  0  0  0  0
    0.2110    0.9062    2.8050 H   0  0  0  0  0  0  0  0  0  0  0  0
   -0.8090    2.7646    3.1092 C   0  0  0  0  0  0  0  0  0  0  0  0
   -1.7355    2.7735    3.6934 H   0  0  0  0  0  0  0  0  0  0  0  0
    0.0211    3.0162    3.7769 H   0  0  0  0  0  0  0  0  0  0  0  0
   -0.8733    3.5356    2.3342 H   0  0  0  0  0  0  0  0  0  0  0  0
  1  2  1  0  0  0  0
  2  3  1  0  0  0  0
  2  4  1  0  0  0  0
  2  5  1  0  0  0  0
  5  6  2  0  0  0  0
  5  7  1  0  0  0  0
  7  8  1  0  0  0  0
  7  9  1  0  0  0  0
  9 10  1  0  0  0  0
  9 11  1  0  0  0  0
  9 29  1  0  0  0  0
 11 12  1  0  0  0  0
 11 13  1  0  0  0  0
 11 14  1  0  0  0  0
 14 15  1  0  0  0  0
 14 16  1  0  0  0  0
 14 17  1  0  0  0  0
 17 18  1  0  0  0  0
 17 19  1  0  0  0  0
 17 20  1  0  0  0  0
 20 21  1  0  0  0  0
 20 22  2  0  0  0  0
 22 23  1  0  0  0  0
 22 26  1  0  0  0  0
 23 24  1  0  0  0  0
 23 25  1  0  0  0  0
 26 27  1  0  0  0  0
 26 28  1  0  0  0  0
 29 30  2  0  0  0  0
 29 31  1  0  0  0  0
 31 32  1  0  0  0  0
 31 33  1  0  0  0  0
 33 34  1  0  0  0  0
 33 35  1  0  0  0  0
 33 36  1  0  0  0  0
M  CHG  1  20   1
M  END
$$$$

  -OEChem-03222214013D

 36 35  0     1  0  0  0  0  0999 V2000
   -3.1739   -4.6910    2.3549 H   0  0  0  0  0  0  0  0  0  0  0  0
   -3.5030   -3.7052    2.0133 C   0  0  0  0  0  0  0  0  0  0  0  0
   -4.1043   -3.2445    2.8007 H   0  0  0  0  0  0  0  0  0  0  0  0
   -4.1171   -3.8315    1.1188 H   0  0  0  0  0  0  0  0  0  0  0  0
   -2.3002   -2.8356    1.7024 C   0  0  0  0  0  0  0  0  0  0  0  0
   -1.1748   -3.2537    1.9134 O   0  0  0  0  0  0  0  0  0  0  0  0
   -2.4771   -1.5714    1.1707 N   0  0  0  0  0  0  0  0  0  0  0  0
   -3.4329   -1.2231    1.1705 H   0  0  0  0  0  0  0  0  0  0  0  0
   -1.3969   -0.5698    1.1006 C   0  0  1  0  0  0  0  0  0  0  0  0
   -0.6217   -0.8597    1.8193 H   0  0  0  0  0  0  0  0  0  0  0  0
   -0.7212   -0.5604   -0.2908 C   0  0  0  0  0  0  0  0  0  0  0  0
    0.2434   -0.0493   -0.2005 H   0  0  0  0  0  0  0  0  0  0  0  0
   -0.5042   -1.5997   -0.5619 H   0  0  0  0  0  0  0  0  0  0  0  0
   -1.4957    0.0925   -1.4560 C   0  0  0  0  0  0  0  0  0  0  0  0
   -1.4295    1.1798   -1.3417 H   0  0  0  0  0  0  0  0  0  0  0  0
   -1.0006   -0.1675   -2.3977 H   0  0  0  0  0  0  0  0  0  0  0  0
   -2.9732   -0.3016   -1.5320 C   0  0  0  0  0  0  0  0  0  0  0  0
   -3.0467   -1.3707   -1.7599 H   0  0  0  0  0  0  0  0  0  0  0  0
   -3.4606   -0.1422   -0.5675 H   0  0  0  0  0  0  0  0  0  0  0  0
   -3.6556    0.4840   -2.5770 N   0  3  0  0  0  0  0  0  0  0  0  0
   -3.5299    0.1757   -3.5400 H   0  0  0  0  0  0  0  0  0  0  0  0
   -4.4046    1.5226   -2.3331 C   0  0  0  0  0  0  0  0  0  0  0  0
   -4.6057    2.0090   -1.0619 N   0  0  0  0  0  0  0  0  0  0  0  0
   -3.9977    1.6612   -0.3122 H   0  0  0  0  0  0  0  0  0  0  0  0
   -4.9861    2.9452   -0.9522 H   0  0  0  0  0  0  0  0  0  0  0  0
   -5.0238    2.1659   -3.3780 N   0  0  0  0  0  0  0  0  0  0  0  0
   -5.0383    1.7136   -4.2898 H   0  0  0  0  0  0  0  0  0  0  0  0
   -5.7677    2.8270   -3.1623 H   0  0  0  0  0  0  0  0  0  0  0  0
   -1.8606    0.8321    1.5493 C   0  0  0  0  0  0  0  0  0  0  0  0
   -2.9326    1.2800    1.1455 O   0  0  0  0  0  0  0  0  0  0  0  0
   -1.0831    1.5939    2.3999 N   0  0  0  0  0  0  0  0  0  0  0  0
   -0.2337    1.1697    2.7682 H   0  0  0  0  0  0  0  0  0  0  0  0
   -1.4889    2.8965    2.9177 C   0  0  0  0  0  0  0  0  0  0  0  0
   -2.4198    2.8112    3.4884 H   0  0  0  0  0  0  0  0  0  0  0  0
   -0.7155    3.2977    3.5804 H   0  0  0  0  0  0  0  0  0  0  0  0
   -1.6400    3.6063    2.0979 H   0  0  0  0  0  0  0  0  0  0  0  0
  1  2  1  0  0  0  0
  2  3  1  0  0  0  0
  2  4  1  0  0  0  0
  2  5  1  0  0  0  0
  5  6  2  0  0  0  0
  5  7  1  0  0  0  0
  7  8  1  0  0  0  0
  7  9  1  0  0  0  0
  9 10  1  0  0  0  0
  9 11  1  0  0  0  0
  9 29  1  0  0  0  0
 11 12  1  0  0  0  0
 11 13  1  0  0  0  0
 11 14  1  0  0  0  0
 14 15  1  0  0  0  0
 14 16  1  0  0  0  0
 14 17  1  0  0  0  0
 17 18  1  0  0  0  0
 17 19  1  0  0  0  0
 17 20  1  0  0  0  0
 20 21  1  0  0  0  0
 20 22  2  0  0  0  0
 22 23  1  0  0  0  0
 22 26  1  0  0  0  0
 23 24  1  0  0  0  0
 23 25  1  0  0  0  0
 26 27  1  0  0  0  0
 26 28  1  0  0  0  0
 29 30  2  0  0  0  0
 29 31  1  0  0  0  0
 31 32  1  0  0  0  0
 31 33  1  0  0  0  0
 33 34  1  0  0  0  0
 33 35  1  0  0  0  0
 33 36  1  0  0  0  0
M  CHG  1  20   1
M  END
$$$$

  -OEChem-03222214013D

 36 35  0     1  0  0  0  0  0999 V2000
   -3.1529   -4.6966    2.3317 H   0  0  0  0  0  0  0  0  0  0  0  0
   -3.5032   -3.7109    2.0115 C   0  0  0  0  0  0  0  0  0  0  0  0
   -4.0972   -3.2718    2.8165 H   0  0  0  0  0  0  0  0  0  0  0  0
   -4.1315   -3.8332    1.1265 H   0  0  0  0  0  0  0  0  0  0  0  0
   -2.3197   -2.8177    1.6919 C   0  0  0  0  0  0  0  0  0  0  0  0
   -1.1840   -3.2378    1.8333 O   0  0  0  0  0  0  0  0  0  0  0  0
   -2.5263   -1.5294    1.2321 N   0  0  0  0  0  0  0  0  0  0  0  0
   -3.4851   -1.1925    1.2740 H   0  0  0  0  0  0  0  0  0  0  0  0
   -1.4562   -0.5187    1.1400 C   0  0  1  0  0  0  0  0  0  0  0  0
   -0.6648   -0.8433    1.8252 H   0  0  0  0  0  0  0  0  0  0  0  0
   -0.7965   -0.5047   -0.2588 C   0  0  0  0  0  0  0  0  0  0  0  0
    0.1701    0.0040   -0.1787 H   0  0  0  0  0  0  0  0  0  0  0  0
   -0.5796   -1.5458   -0.5220 H   0  0  0  0  0  0  0  0  0  0  0  0
   -1.5675    0.1258   -1.4410 C   0  0  0  0  0  0  0  0  0  0  0  0
   -1.3002    1.1880   -1.4671 H   0  0  0  0  0  0  0  0  0  0  0  0
   -1.2176   -0.3214   -2.3775 H   0  0  0  0  0  0  0  0  0  0  0  0
   -3.0955    0.0315   -1.3646 C   0  0  0  0  0  0  0  0  0  0  0  0
   -3.3934   -1.0021   -1.5726 H   0  0  0  0  0  0  0  0  0  0  0  0
   -3.4546    0.2660   -0.3643 H   0  0  0  0  0  0  0  0  0  0  0  0
   -3.7122    0.9373   -2.3516 N   0  3  0  0  0  0  0  0  0  0  0  0
   -3.6145    0.6823   -3.3332 H   0  0  0  0  0  0  0  0  0  0  0  0
   -4.3754    2.0145   -2.0374 C   0  0  0  0  0  0  0  0  0  0  0  0
   -4.5372    2.4353   -0.7375 N   0  0  0  0  0  0  0  0  0  0  0  0
   -3.9652    1.9891   -0.0119 H   0  0  0  0  0  0  0  0  0  0  0  0
   -4.8392    3.3909   -0.5675 H   0  0  0  0  0  0  0  0  0  0  0  0
   -4.9413    2.7687   -3.0373 N   0  0  0  0  0  0  0  0  0  0  0  0
   -4.9981    2.3729   -3.9734 H   0  0  0  0  0  0  0  0  0  0  0  0
   -5.6275    3.4743   -2.7766 H   0  0  0  0  0  0  0  0  0  0  0  0
   -1.8352    0.8842    1.6671 C   0  0  0  0  0  0  0  0  0  0  0  0
   -2.9183    1.3907    1.3852 O   0  0  0  0  0  0  0  0  0  0  0  0
   -0.9620    1.5808    2.4812 N   0  0  0  0  0  0  0  0  0  0  0  0
   -0.1057    1.1077    2.7638 H   0  0  0  0  0  0  0  0  0  0  0  0
   -1.2758    2.8674    3.0950 C   0  0  0  0  0  0  0  0  0  0  0  0
   -2.1350    2.7736    3.7678 H   0  0  0  0  0  0  0  0  0  0  0  0
   -0.4210    3.2267    3.6769 H   0  0  0  0  0  0  0  0  0  0  0  0
   -1.5068    3.6149    2.3289 H   0  0  0  0  0  0  0  0  0  0  0  0
  1  2  1  0  0  0  0
  2  3  1  0  0  0  0
  2  4  1  0  0  0  0
  2  5  1  0  0  0  0
  5  6  2  0  0  0  0
  5  7  1  0  0  0  0
  7  8  1  0  0  0  0
  7  9  1  0  0  0  0
  9 10  1  0  0  0  0
  9 11  1  0  0  0  0
  9 29  1  0  0  0  0
 11 12  1  0  0  0  0
 11 13  1  0  0  0  0
 11 14  1  0  0  0  0
 14 15  1  0  0  0  0
 14 16  1  0  0  0  0
 14 17  1  0  0  0  0
 17 18  1  0  0  0  0
 17 19  1  0  0  0  0
 17 20  1  0  0  0  0
 20 21  1  0  0  0  0
 20 22  2  0  0  0  0
 22 23  1  0  0  0  0
 22 26  1  0  0  0  0
 23 24  1  0  0  0  0
 23 25  1  0  0  0  0
 26 27  1  0  0  0  0
 26 28  1  0  0  0  0
 29 30  2  0  0  0  0
 29 31  1  0  0  0  0
 31 32  1  0  0  0  0
 31 33  1  0  0  0  0
 33 34  1  0  0  0  0
 33 35  1  0  0  0  0
 33 36  1  0  0  0  0
M  CHG  1  20   1
M  END
$$$$

  -OEChem-03222214013D

 36 35  0     1  0  0  0  0  0999 V2000
   -3.1880   -4.6979    2.2505 H   0  0  0  0  0  0  0  0  0  0  0  0
   -3.5443   -3.7112    1.9405 C   0  0  0  0  0  0  0  0  0  0  0  0
   -4.1357   -3.2820    2.7528 H   0  0  0  0  0  0  0  0  0  0  0  0
   -4.1773   -3.8282    1.0580 H   0  0  0  0  0  0  0  0  0  0  0  0
   -2.3669   -2.8097    1.6213 C   0  0  0  0  0  0  0  0  0  0  0  0
   -1.2291   -3.2402    1.7045 O   0  0  0  0  0  0  0  0  0  0  0  0
   -2.5823   -1.4980    1.2386 N   0  0  0  0  0  0  0  0  0  0  0  0
   -3.5392   -1.1627    1.3225 H   0  0  0  0  0  0  0  0  0  0  0  0
   -1.5147   -0.4850    1.1592 C   0  0  1  0  0  0  0  0  0  0  0  0
   -0.7258   -0.8455    1.8293 H   0  0  0  0  0  0  0  0  0  0  0  0
   -0.8379   -0.4597   -0.2330 C   0  0  0  0  0  0  0  0  0  0  0  0
    0.1259    0.0503   -0.1286 H   0  0  0  0  0  0  0  0  0  0  0  0
   -0.6079   -1.4991   -0.4928 H   0  0  0  0  0  0  0  0  0  0  0  0
   -1.5686    0.1650   -1.4479 C   0  0  0  0  0  0  0  0  0  0  0  0
   -1.0920    1.1344   -1.6308 H   0  0  0  0  0  0  0  0  0  0  0  0
   -1.3856   -0.4533   -2.3336 H   0  0  0  0  0  0  0  0  0  0  0  0
   -3.0756    0.4081   -1.3059 C   0  0  0  0  0  0  0  0  0  0  0  0
   -3.3402    0.6297   -0.2791 H   0  0  0  0  0  0  0  0  0  0  0  0
   -3.6030   -0.5148   -1.5708 H   0  0  0  0  0  0  0  0  0  0  0  0
   -3.5144    1.5044   -2.1903 N   0  3  0  0  0  0  0  0  0  0  0  0
   -3.3540    1.3830   -3.1891 H   0  0  0  0  0  0  0  0  0  0  0  0
   -4.1130    2.5835   -1.7699 C   0  0  0  0  0  0  0  0  0  0  0  0
   -4.3637    2.8266   -0.4389 N   0  0  0  0  0  0  0  0  0  0  0  0
   -3.8952    2.2352    0.2562 H   0  0  0  0  0  0  0  0  0  0  0  0
   -4.6113    3.7699   -0.1527 H   0  0  0  0  0  0  0  0  0  0  0  0
   -4.5178    3.5254   -2.6852 N   0  0  0  0  0  0  0  0  0  0  0  0
   -4.5153    3.2789   -3.6727 H   0  0  0  0  0  0  0  0  0  0  0  0
   -5.1657    4.2477   -2.3763 H   0  0  0  0  0  0  0  0  0  0  0  0
   -1.8457    0.8988    1.7674 C   0  0  0  0  0  0  0  0  0  0  0  0
   -2.9508    1.4131    1.6187 O   0  0  0  0  0  0  0  0  0  0  0  0
   -0.9232    1.5396    2.5734 N   0  0  0  0  0  0  0  0  0  0  0  0
   -0.0549    1.0464    2.7733 H   0  0  0  0  0  0  0  0  0  0  0  0
   -1.2100    2.7607    3.3208 C   0  0  0  0  0  0  0  0  0  0  0  0
   -2.0264    2.5949    4.0322 H   0  0  0  0  0  0  0  0  0  0  0  0
   -0.3250    3.0776    3.8817 H   0  0  0  0  0  0  0  0  0  0  0  0
   -1.4930    3.5712    2.6413 H   0  0  0  0  0  0  0  0  0  0  0  0
  1  2  1  0  0  0  0
  2  3  1  0  0  0  0
  2  4  1  0  0  0  0
  2  5  1  0  0  0  0
  5  6  2  0  0  0  0
  5  7  1  0  0  0  0
  7  8  1  0  0  0  0
  7  9  1  0  0  0  0
  9 10  1  0  0  0  0
  9 11  1  0  0  0  0
  9 29  1  0  0  0  0
 11 12  1  0  0  0  0
 11 13  1  0  0  0  0
 11 14  1  0  0  0  0
 14 15  1  0  0  0  0
 14 16  1  0  0  0  0
 14 17  1  0  0  0  0
 17 18  1  0  0  0  0
 17 19  1  0  0  0  0
 17 20  1  0  0  0  0
 20 21  1  0  0  0  0
 20 22  2  0  0  0  0
 22 23  1  0  0  0  0
 22 26  1  0  0  0  0
 23 24  1  0  0  0  0
 23 25  1  0  0  0  0
 26 27  1  0  0  0  0
 26 28  1  0  0  0  0
 29 30  2  0  0  0  0
 29 31  1  0  0  0  0
 31 32  1  0  0  0  0
 31 33  1  0  0  0  0
 33 34  1  0  0  0  0
 33 35  1  0  0  0  0
 33 36  1  0  0  0  0
M  CHG  1  20   1
M  END
$$$$

  -OEChem-03222214013D

 36 35  0     1  0  0  0  0  0999 V2000
   -3.1961   -4.6270    2.3027 H   0  0  0  0  0  0  0  0  0  0  0  0
   -3.5517   -3.6468    1.9717 C   0  0  0  0  0  0  0  0  0  0  0  0
   -4.1655   -3.2115    2.7638 H   0  0  0  0  0  0  0  0  0  0  0  0
   -4.1621   -3.7793    1.0754 H   0  0  0  0  0  0  0  0  0  0  0  0
   -2.3737   -2.7406    1.6696 C   0  0  0  0  0  0  0  0  0  0  0  0
   -1.2352   -3.1647    1.7751 O   0  0  0  0  0  0  0  0  0  0  0  0
   -2.5888   -1.4343    1.2688 N   0  0  0  0  0  0  0  0  0  0  0  0
   -3.5488   -1.1020    1.3227 H   0  0  0  0  0  0  0  0  0  0  0  0
   -1.5238   -0.4224    1.1614 C   0  0  1  0  0  0  0  0  0  0  0  0
   -0.7352   -0.7671    1.8401 H   0  0  0  0  0  0  0  0  0  0  0  0
   -0.8462   -0.4571   -0.2303 C   0  0  0  0  0  0  0  0  0  0  0  0
    0.1040    0.0786   -0.1300 H   0  0  0  0  0  0  0  0  0  0  0  0
   -0.5852   -1.5006   -0.4399 H   0  0  0  0  0  0  0  0  0  0  0  0
   -1.5486    0.1077   -1.4932 C   0  0  0  0  0  0  0  0  0  0  0  0
   -0.8795    0.8603   -1.9242 H   0  0  0  0  0  0  0  0  0  0  0  0
   -1.6162   -0.7024   -2.2280 H   0  0  0  0  0  0  0  0  0  0  0  0
   -2.9525    0.7084   -1.3473 C   0  0  0  0  0  0  0  0  0  0  0  0
   -3.2519    0.7343   -0.3053 H   0  0  0  0  0  0  0  0  0  0  0  0
   -3.6623    0.0479   -1.8574 H   0  0  0  0  0  0  0  0  0  0  0  0
   -3.0221    2.0518   -1.9575 N   0  3  0  0  0  0  0  0  0  0  0  0
   -2.5693    2.1656   -2.8627 H   0  0  0  0  0  0  0  0  0  0  0  0
   -3.7133    3.0446   -1.4728 C   0  0  0  0  0  0  0  0  0  0  0  0
   -4.3705    2.9744   -0.2681 N   0  0  0  0  0  0  0  0  0  0  0  0
   -4.0390    2.2627    0.3915 H   0  0  0  0  0  0  0  0  0  0  0  0
   -4.7041    3.8430    0.1406 H   0  0  0  0  0  0  0  0  0  0  0  0
   -3.8047    4.2127   -2.1915 N   0  0  0  0  0  0  0  0  0  0  0  0
   -3.4873    4.2170   -3.1585 H   0  0  0  0  0  0  0  0  0  0  0  0
   -4.5146    4.8906   -1.9199 H   0  0  0  0  0  0  0  0  0  0  0  0
   -1.8535    0.9679    1.7517 C   0  0  0  0  0  0  0  0  0  0  0  0
   -2.9822    1.4428    1.6608 O   0  0  0  0  0  0  0  0  0  0  0  0
   -0.9232    1.6225    2.5376 N   0  0  0  0  0  0  0  0  0  0  0  0
   -0.0443    1.1402    2.7170 H   0  0  0  0  0  0  0  0  0  0  0  0
   -1.2206    2.8207    3.3166 C   0  0  0  0  0  0  0  0  0  0  0  0
   -2.0120    2.6189    4.0466 H   0  0  0  0  0  0  0  0  0  0  0  0
   -0.3283    3.1496    3.8590 H   0  0  0  0  0  0  0  0  0  0  0  0
   -1.5434    3.6364    2.6617 H   0  0  0  0  0  0  0  0  0  0  0  0
  1  2  1  0  0  0  0
  2  3  1  0  0  0  0
  2  4  1  0  0  0  0
  2  5  1  0  0  0  0
  5  6  2  0  0  0  0
  5  7  1  0  0  0  0
  7  8  1  0  0  0  0
  7  9  1  0  0  0  0
  9 10  1  0  0  0  0
  9 11  1  0  0  0  0
  9 29  1  0  0  0  0
 11 12  1  0  0  0  0
 11 13  1  0  0  0  0
 11 14  1  0  0  0  0
 14 15  1  0  0  0  0
 14 16  1  0  0  0  0
 14 17  1  0  0  0  0
 17 18  1  0  0  0  0
 17 19  1  0  0  0  0
 17 20  1  0  0  0  0
 20 21  1  0  0  0  0
 20 22  2  0  0  0  0
 22 23  1  0  0  0  0
 22 26  1  0  0  0  0
 23 24  1  0  0  0  0
 23 25  1  0  0  0  0
 26 27  1  0  0  0  0
 26 28  1  0  0  0  0
 29 30  2  0  0  0  0
 29 31  1  0  0  0  0
 31 32  1  0  0  0  0
 31 33  1  0  0  0  0
 33 34  1  0  0  0  0
 33 35  1  0  0  0  0
 33 36  1  0  0  0  0
M  CHG  1  20   1
M  END
$$$$

  -OEChem-03222214013D

 36 35  0     1  0  0  0  0  0999 V2000
   -3.8045   -4.2381    2.0915 H   0  0  0  0  0  0  0  0  0  0  0  0
   -3.9604   -3.1961    1.7974 C   0  0  0  0  0  0  0  0  0  0  0  0
   -4.4771   -2.6783    2.6089 H   0  0  0  0  0  0  0  0  0  0  0  0
   -4.5846   -3.1737    0.9011 H   0  0  0  0  0  0  0  0  0  0  0  0
   -2.6270   -2.5291    1.5192 C   0  0  0  0  0  0  0  0  0  0  0  0
   -1.6003   -3.1868    1.5444 O   0  0  0  0  0  0  0  0  0  0  0  0
   -2.5738   -1.1765    1.2358 N   0  0  0  0  0  0  0  0  0  0  0  0
   -3.4388   -0.6574    1.3703 H   0  0  0  0  0  0  0  0  0  0  0  0
   -1.3219   -0.4013    1.2019 C   0  0  1  0  0  0  0  0  0  0  0  0
   -0.6036   -0.9514    1.8205 H   0  0  0  0  0  0  0  0  0  0  0  0
   -0.7044   -0.4377   -0.2288 C   0  0  0  0  0  0  0  0  0  0  0  0
    0.3326   -0.1031   -0.1196 H   0  0  0  0  0  0  0  0  0  0  0  0
   -0.6570   -1.4820   -0.5572 H   0  0  0  0  0  0  0  0  0  0  0  0
   -1.3192    0.4008   -1.3798 C   0  0  0  0  0  0  0  0  0  0  0  0
   -0.5132    0.8537   -1.9672 H   0  0  0  0  0  0  0  0  0  0  0  0
   -1.8661   -0.2802   -2.0408 H   0  0  0  0  0  0  0  0  0  0  0  0
   -2.2786    1.4744   -0.9079 C   0  0  0  0  0  0  0  0  0  0  0  0
   -3.0510    0.9933   -0.2985 H   0  0  0  0  0  0  0  0  0  0  0  0
   -1.7182    2.1710   -0.2754 H   0  0  0  0  0  0  0  0  0  0  0  0
   -2.9339    2.2430   -1.9729 N   0  3  0  0  0  0  0  0  0  0  0  0
   -2.6669    2.0612   -2.9393 H   0  0  0  0  0  0  0  0  0  0  0  0
   -3.7902    3.1788   -1.6774 C   0  0  0  0  0  0  0  0  0  0  0  0
   -4.1280    3.4473   -0.3658 N   0  0  0  0  0  0  0  0  0  0  0  0
   -3.6029    2.9728    0.3753 H   0  0  0  0  0  0  0  0  0  0  0  0
   -4.5832    4.3287   -0.1411 H   0  0  0  0  0  0  0  0  0  0  0  0
   -4.3701    3.9195   -2.6790 N   0  0  0  0  0  0  0  0  0  0  0  0
   -4.2636    3.6065   -3.6416 H   0  0  0  0  0  0  0  0  0  0  0  0
   -5.1808    4.4909   -2.4490 H   0  0  0  0  0  0  0  0  0  0  0  0
   -1.4227    0.9622    1.9340 C   0  0  0  0  0  0  0  0  0  0  0  0
   -2.4547    1.6331    1.8776 O   0  0  0  0  0  0  0  0  0  0  0  0
   -0.4120    1.3678    2.7854 N   0  0  0  0  0  0  0  0  0  0  0  0
    0.3739    0.7334    2.9146 H   0  0  0  0  0  0  0  0  0  0  0  0
   -0.5159    2.5257    3.6679 C   0  0  0  0  0  0  0  0  0  0  0  0
   -1.3496    2.4019    4.3674 H   0  0  0  0  0  0  0  0  0  0  0  0
    0.4053    2.6439    4.2476 H   0  0  0  0  0  0  0  0  0  0  0  0
   -0.6752    3.4400    3.0872 H   0  0  0  0  0  0  0  0  0  0  0  0
  1  2  1  0  0  0  0
  2  3  1  0  0  0  0
  2  4  1  0  0  0  0
  2  5  1  0  0  0  0
  5  6  2  0  0  0  0
  5  7  1  0  0  0  0
  7  8  1  0  0  0  0
  7  9  1  0  0  0  0
  9 10  1  0  0  0  0
  9 11  1  0  0  0  0
  9 29  1  0  0  0  0
 11 12  1  0  0  0  0
 11 13  1  0  0  0  0
 11 14  1  0  0  0  0
 14 15  1  0  0  0  0
 14 16  1  0  0  0  0
 14 17  1  0  0  0  0
 17 18  1  0  0  0  0
 17 19  1  0  0  0  0
 17 20  1  0  0  0  0
 20 21  1  0  0  0  0
 20 22  2  0  0  0  0
 22 23  1  0  0  0  0
 22 26  1  0  0  0  0
 23 24  1  0  0  0  0
 23 25  1  0  0  0  0
 26 27  1  0  0  0  0
 26 28  1  0  0  0  0
 29 30  2  0  0  0  0
 29 31  1  0  0  0  0
 31 32  1  0  0  0  0
 31 33  1  0  0  0  0
 33 34  1  0  0  0  0
 33 35  1  0  0  0  0
 33 36  1  0  0  0  0
M  CHG  1  20   1
M  END
$$$$

  -OEChem-03222214013D

 36 35  0     1  0  0  0  0  0999 V2000
   -3.8880   -4.1896    1.9936 H   0  0  0  0  0  0  0  0  0  0  0  0
   -4.0111   -3.1249    1.7748 C   0  0  0  0  0  0  0  0  0  0  0  0
   -4.5037   -2.6472    2.6249 H   0  0  0  0  0  0  0  0  0  0  0  0
   -4.6408   -3.0197    0.8884 H   0  0  0  0  0  0  0  0  0  0  0  0
   -2.6586   -2.4836    1.5306 C   0  0  0  0  0  0  0  0  0  0  0  0
   -1.6451   -3.1603    1.5773 O   0  0  0  0  0  0  0  0  0  0  0  0
   -2.5738   -1.1319    1.2519 N   0  0  0  0  0  0  0  0  0  0  0  0
   -3.4333   -0.5963    1.3531 H   0  0  0  0  0  0  0  0  0  0  0  0
   -1.3090   -0.3796    1.2116 C   0  0  1  0  0  0  0  0  0  0  0  0
   -0.6008   -0.9450    1.8281 H   0  0  0  0  0  0  0  0  0  0  0  0
   -0.6959   -0.4399   -0.2197 C   0  0  0  0  0  0  0  0  0  0  0  0
    0.3453   -0.1167   -0.1169 H   0  0  0  0  0  0  0  0  0  0  0  0
   -0.6655   -1.4869   -0.5418 H   0  0  0  0  0  0  0  0  0  0  0  0
   -1.3057    0.4007   -1.3692 C   0  0  0  0  0  0  0  0  0  0  0  0
   -0.5256    0.6119   -2.1083 H   0  0  0  0  0  0  0  0  0  0  0  0
   -2.0749   -0.2031   -1.8628 H   0  0  0  0  0  0  0  0  0  0  0  0
   -1.9449    1.6931   -0.9049 C   0  0  0  0  0  0  0  0  0  0  0  0
   -2.7751    1.4188   -0.2484 H   0  0  0  0  0  0  0  0  0  0  0  0
   -1.2084    2.2631   -0.3276 H   0  0  0  0  0  0  0  0  0  0  0  0
   -2.4805    2.5440   -1.9744 N   0  3  0  0  0  0  0  0  0  0  0  0
   -2.1383    2.4035   -2.9238 H   0  0  0  0  0  0  0  0  0  0  0  0
   -3.2924    3.5235   -1.6954 C   0  0  0  0  0  0  0  0  0  0  0  0
   -3.7142    3.7549   -0.4013 N   0  0  0  0  0  0  0  0  0  0  0  0
   -3.2869    3.2080    0.3524 H   0  0  0  0  0  0  0  0  0  0  0  0
   -4.1285    4.6536   -0.1667 H   0  0  0  0  0  0  0  0  0  0  0  0
   -3.7382    4.3515   -2.6977 N   0  0  0  0  0  0  0  0  0  0  0  0
   -3.5855    4.0729   -3.6648 H   0  0  0  0  0  0  0  0  0  0  0  0
   -4.5173    4.9760   -2.4974 H   0  0  0  0  0  0  0  0  0  0  0  0
   -1.3684    0.9855    1.9457 C   0  0  0  0  0  0  0  0  0  0  0  0
   -2.3706    1.6984    1.8837 O   0  0  0  0  0  0  0  0  0  0  0  0
   -0.3381    1.3633    2.7865 N   0  0  0  0  0  0  0  0  0  0  0  0
    0.4174    0.6952    2.9277 H   0  0  0  0  0  0  0  0  0  0  0  0
   -0.3960    2.5321    3.6592 C   0  0  0  0  0  0  0  0  0  0  0  0
   -1.1944    2.4183    4.4003 H   0  0  0  0  0  0  0  0  0  0  0  0
    0.5533    2.6548    4.1901 H   0  0  0  0  0  0  0  0  0  0  0  0
   -0.5815    3.4409    3.0774 H   0  0  0  0  0  0  0  0  0  0  0  0
  1  2  1  0  0  0  0
  2  3  1  0  0  0  0
  2  4  1  0  0  0  0
  2  5  1  0  0  0  0
  5  6  2  0  0  0  0
  5  7  1  0  0  0  0
  7  8  1  0  0  0  0
  7  9  1  0  0  0  0
  9 10  1  0  0  0  0
  9 11  1  0  0  0  0
  9 29  1  0  0  0  0
 11 12  1  0  0  0  0
 11 13  1  0  0  0  0
 11 14  1  0  0  0  0
 14 15  1  0  0  0  0
 14 16  1  0  0  0  0
 14 17  1  0  0  0  0
 17 18  1  0  0  0  0
 17 19  1  0  0  0  0
 17 20  1  0  0  0  0
 20 21  1  0  0  0  0
 20 22  2  0  0  0  0
 22 23  1  0  0  0  0
 22 26  1  0  0  0  0
 23 24  1  0  0  0  0
 23 25  1  0  0  0  0
 26 27  1  0  0  0  0
 26 28  1  0  0  0  0
 29 30  2  0  0  0  0
 29 31  1  0  0  0  0
 31 32  1  0  0  0  0
 31 33  1  0  0  0  0
 33 34  1  0  0  0  0
 33 35  1  0  0  0  0
 33 36  1  0  0  0  0
M  CHG  1  20   1
M  END
$$$$

  -OEChem-03222214013D

 36 35  0     1  0  0  0  0  0999 V2000
   -4.4951   -3.5053    1.9553 H   0  0  0  0  0  0  0  0  0  0  0  0
   -4.4085   -2.4407    1.7185 C   0  0  0  0  0  0  0  0  0  0  0  0
   -4.8325   -1.8631    2.5434 H   0  0  0  0  0  0  0  0  0  0  0  0
   -4.9761   -2.2370    0.8076 H   0  0  0  0  0  0  0  0  0  0  0  0
   -2.9518   -2.0691    1.5181 C   0  0  0  0  0  0  0  0  0  0  0  0
   -2.0833   -2.9152    1.6463 O   0  0  0  0  0  0  0  0  0  0  0  0
   -2.6060   -0.7721    1.1864 N   0  0  0  0  0  0  0  0  0  0  0  0
   -3.3519   -0.0822    1.2425 H   0  0  0  0  0  0  0  0  0  0  0  0
   -1.2230   -0.2659    1.2166 C   0  0  1  0  0  0  0  0  0  0  0  0
   -0.6574   -0.9115    1.8986 H   0  0  0  0  0  0  0  0  0  0  0  0
   -0.5675   -0.4830   -0.1762 C   0  0  0  0  0  0  0  0  0  0  0  0
    0.5112   -0.3716   -0.0235 H   0  0  0  0  0  0  0  0  0  0  0  0
   -0.7323   -1.5266   -0.4668 H   0  0  0  0  0  0  0  0  0  0  0  0
   -0.9254    0.4065   -1.3927 C   0  0  0  0  0  0  0  0  0  0  0  0
   -0.2237    0.1928   -2.2061 H   0  0  0  0  0  0  0  0  0  0  0  0
   -1.9141    0.0727   -1.7263 H   0  0  0  0  0  0  0  0  0  0  0  0
   -0.9903    1.9227   -1.1819 C   0  0  0  0  0  0  0  0  0  0  0  0
    0.0093    2.3426   -1.3402 H   0  0  0  0  0  0  0  0  0  0  0  0
   -1.2704    2.1640   -0.1682 H   0  0  0  0  0  0  0  0  0  0  0  0
   -1.9496    2.5472   -2.1109 N   0  3  0  0  0  0  0  0  0  0  0  0
   -1.7805    2.4190   -3.1075 H   0  0  0  0  0  0  0  0  0  0  0  0
   -2.9635    3.2684   -1.7210 C   0  0  0  0  0  0  0  0  0  0  0  0
   -3.2531    3.4890   -0.3921 N   0  0  0  0  0  0  0  0  0  0  0  0
   -2.7508    2.9451    0.3183 H   0  0  0  0  0  0  0  0  0  0  0  0
   -4.1619    3.8675   -0.1389 H   0  0  0  0  0  0  0  0  0  0  0  0
   -3.7824    3.8390   -2.6662 N   0  0  0  0  0  0  0  0  0  0  0  0
   -3.4729    3.8509   -3.6359 H   0  0  0  0  0  0  0  0  0  0  0  0
   -4.4335    4.5620   -2.3654 H   0  0  0  0  0  0  0  0  0  0  0  0
   -1.1460    1.1205    1.8895 C   0  0  0  0  0  0  0  0  0  0  0  0
   -2.0737    1.9175    1.7430 O   0  0  0  0  0  0  0  0  0  0  0  0
   -0.1590    1.4005    2.8150 N   0  0  0  0  0  0  0  0  0  0  0  0
    0.5098    0.6621    3.0259 H   0  0  0  0  0  0  0  0  0  0  0  0
   -0.1474    2.6002    3.6461 C   0  0  0  0  0  0  0  0  0  0  0  0
   -1.0206    2.6187    4.3070 H   0  0  0  0  0  0  0  0  0  0  0  0
    0.7551    2.6223    4.2657 H   0  0  0  0  0  0  0  0  0  0  0  0
   -0.1572    3.5013    3.0238 H   0  0  0  0  0  0  0  0  0  0  0  0
  1  2  1  0  0  0  0
  2  3  1  0  0  0  0
  2  4  1  0  0  0  0
  2  5  1  0  0  0  0
  5  6  2  0  0  0  0
  5  7  1  0  0  0  0
  7  8  1  0  0  0  0
  7  9  1  0  0  0  0
  9 10  1  0  0  0  0
  9 11  1  0  0  0  0
  9 29  1  0  0  0  0
 11 12  1  0  0  0  0
 11 13  1  0  0  0  0
 11 14  1  0  0  0  0
 14 15  1  0  0  0  0
 14 16  1  0  0  0  0
 14 17  1  0  0  0  0
 17 18  1  0  0  0  0
 17 19  1  0  0  0  0
 17 20  1  0  0  0  0
 20 21  1  0  0  0  0
 20 22  2  0  0  0  0
 22 23  1  0  0  0  0
 22 26  1  0  0  0  0
 23 24  1  0  0  0  0
 23 25  1  0  0  0  0
 26 27  1  0  0  0  0
 26 28  1  0  0  0  0
 29 30  2  0  0  0  0
 29 31  1  0  0  0  0
 31 32  1  0  0  0  0
 31 33  1  0  0  0  0
 33 34  1  0  0  0  0
 33 35  1  0  0  0  0
 33 36  1  0  0  0  0
M  CHG  1  20   1
M  END
$$$$

  -OEChem-03222214013D

 36 35  0     1  0  0  0  0  0999 V2000
   -4.4224   -3.5942    1.8783 H   0  0  0  0  0  0  0  0  0  0  0  0
   -4.3442   -2.5463    1.5740 C   0  0  0  0  0  0  0  0  0  0  0  0
   -4.8461   -1.9265    2.3208 H   0  0  0  0  0  0  0  0  0  0  0  0
   -4.8431   -2.4228    0.6099 H   0  0  0  0  0  0  0  0  0  0  0  0
   -2.8858   -2.1460    1.4588 C   0  0  0  0  0  0  0  0  0  0  0  0
   -2.0095   -2.9684    1.6663 O   0  0  0  0  0  0  0  0  0  0  0  0
   -2.5459   -0.8524    1.1084 N   0  0  0  0  0  0  0  0  0  0  0  0
   -3.3052   -0.1753    1.0793 H   0  0  0  0  0  0  0  0  0  0  0  0
   -1.1713   -0.3269    1.1625 C   0  0  1  0  0  0  0  0  0  0  0  0
   -0.5952   -0.9568    1.8500 H   0  0  0  0  0  0  0  0  0  0  0  0
   -0.5167   -0.5131   -0.2328 C   0  0  0  0  0  0  0  0  0  0  0  0
    0.5649   -0.4091   -0.0971 H   0  0  0  0  0  0  0  0  0  0  0  0
   -0.6924   -1.5470   -0.5505 H   0  0  0  0  0  0  0  0  0  0  0  0
   -0.9180    0.4169   -1.4008 C   0  0  0  0  0  0  0  0  0  0  0  0
   -0.3959    0.0877   -2.3057 H   0  0  0  0  0  0  0  0  0  0  0  0
   -1.9898    0.2692   -1.5719 H   0  0  0  0  0  0  0  0  0  0  0  0
   -0.6567    1.9157   -1.2023 C   0  0  0  0  0  0  0  0  0  0  0  0
    0.4111    2.1076   -1.3561 H   0  0  0  0  0  0  0  0  0  0  0  0
   -0.8852    2.2342   -0.1914 H   0  0  0  0  0  0  0  0  0  0  0  0
   -1.4474    2.7080   -2.1625 N   0  3  0  0  0  0  0  0  0  0  0  0
   -1.2160    2.6009   -3.1490 H   0  0  0  0  0  0  0  0  0  0  0  0
   -2.3821    3.5478   -1.8151 C   0  0  0  0  0  0  0  0  0  0  0  0
   -2.7561    3.7440   -0.5051 N   0  0  0  0  0  0  0  0  0  0  0  0
   -2.4221    3.0761    0.1984 H   0  0  0  0  0  0  0  0  0  0  0  0
   -3.6307    4.2246   -0.3117 H   0  0  0  0  0  0  0  0  0  0  0  0
   -3.0268    4.2742   -2.7879 N   0  0  0  0  0  0  0  0  0  0  0  0
   -2.6337    4.2882   -3.7268 H   0  0  0  0  0  0  0  0  0  0  0  0
   -3.5934    5.0690   -2.4978 H   0  0  0  0  0  0  0  0  0  0  0  0
   -1.1427    1.0724    1.8078 C   0  0  0  0  0  0  0  0  0  0  0  0
   -2.0442    1.8747    1.5642 O   0  0  0  0  0  0  0  0  0  0  0  0
   -0.1904    1.3923    2.7562 N   0  0  0  0  0  0  0  0  0  0  0  0
    0.4568    0.6563    3.0331 H   0  0  0  0  0  0  0  0  0  0  0  0
   -0.2245    2.6148    3.5531 C   0  0  0  0  0  0  0  0  0  0  0  0
   -1.1389    2.6561    4.1545 H   0  0  0  0  0  0  0  0  0  0  0  0
    0.6348    2.6479    4.2308 H   0  0  0  0  0  0  0  0  0  0  0  0
   -0.1862    3.4988    2.9080 H   0  0  0  0  0  0  0  0  0  0  0  0
  1  2  1  0  0  0  0
  2  3  1  0  0  0  0
  2  4  1  0  0  0  0
  2  5  1  0  0  0  0
  5  6  2  0  0  0  0
  5  7  1  0  0  0  0
  7  8  1  0  0  0  0
  7  9  1  0  0  0  0
  9 10  1  0  0  0  0
  9 11  1  0  0  0  0
  9 29  1  0  0  0  0
 11 12  1  0  0  0  0
 11 13  1  0  0  0  0
 11 14  1  0  0  0  0
 14 15  1  0  0  0  0
 14 16  1  0  0  0  0
 14 17  1  0  0  0  0
 17 18  1  0  0  0  0
 17 19  1  0  0  0  0
 17 20  1  0  0  0  0
 20 21  1  0  0  0  0
 20 22  2  0  0  0  0
 22 23  1  0  0  0  0
 22 26  1  0  0  0  0
 23 24  1  0  0  0  0
 23 25  1  0  0  0  0
 26 27  1  0  0  0  0
 26 28  1  0  0  0  0
 29 30  2  0  0  0  0
 29 31  1  0  0  0  0
 31 32  1  0  0  0  0
 31 33  1  0  0  0  0
 33 34  1  0  0  0  0
 33 35  1  0  0  0  0
 33 36  1  0  0  0  0
M  CHG  1  20   1
M  END
$$$$

  -OEChem-03222214013D

 36 35  0     1  0  0  0  0  0999 V2000
   -4.4722   -3.5926    1.8161 H   0  0  0  0  0  0  0  0  0  0  0  0
   -4.3717   -2.5431    1.5250 C   0  0  0  0  0  0  0  0  0  0  0  0
   -4.8847   -1.9232    2.2641 H   0  0  0  0  0  0  0  0  0  0  0  0
   -4.8432   -2.4036    0.5496 H   0  0  0  0  0  0  0  0  0  0  0  0
   -2.9060   -2.1606    1.4534 C   0  0  0  0  0  0  0  0  0  0  0  0
   -2.0466   -2.9751    1.7448 O   0  0  0  0  0  0  0  0  0  0  0  0
   -2.5404   -0.8898    1.0511 N   0  0  0  0  0  0  0  0  0  0  0  0
   -3.2934   -0.2159    0.9309 H   0  0  0  0  0  0  0  0  0  0  0  0
   -1.1656   -0.3684    1.1303 C   0  0  1  0  0  0  0  0  0  0  0  0
   -0.6060   -0.9753    1.8512 H   0  0  0  0  0  0  0  0  0  0  0  0
   -0.4809   -0.5735   -0.2442 C   0  0  0  0  0  0  0  0  0  0  0  0
    0.6017   -0.4860   -0.1047 H   0  0  0  0  0  0  0  0  0  0  0  0
   -0.6734   -1.6036   -0.5647 H   0  0  0  0  0  0  0  0  0  0  0  0
   -0.8950    0.3734   -1.3889 C   0  0  0  0  0  0  0  0  0  0  0  0
   -0.5644   -0.0637   -2.3370 H   0  0  0  0  0  0  0  0  0  0  0  0
   -1.9883    0.4272   -1.4169 H   0  0  0  0  0  0  0  0  0  0  0  0
   -0.3105    1.7873   -1.2754 C   0  0  0  0  0  0  0  0  0  0  0  0
   -0.4708    2.2077   -0.2828 H   0  0  0  0  0  0  0  0  0  0  0  0
    0.7735    1.7343   -1.4255 H   0  0  0  0  0  0  0  0  0  0  0  0
   -0.9106    2.6650   -2.2976 N   0  3  0  0  0  0  0  0  0  0  0  0
   -0.5919    2.5380   -3.2570 H   0  0  0  0  0  0  0  0  0  0  0  0
   -1.7911    3.5907   -2.0393 C   0  0  0  0  0  0  0  0  0  0  0  0
   -2.2839    3.8152   -0.7746 N   0  0  0  0  0  0  0  0  0  0  0  0
   -2.0941    3.1109   -0.0532 H   0  0  0  0  0  0  0  0  0  0  0  0
   -3.1310    4.3675   -0.6715 H   0  0  0  0  0  0  0  0  0  0  0  0
   -2.2529    4.3811   -3.0647 N   0  0  0  0  0  0  0  0  0  0  0  0
   -1.7578    4.3621   -3.9538 H   0  0  0  0  0  0  0  0  0  0  0  0
   -2.7655    5.2276   -2.8248 H   0  0  0  0  0  0  0  0  0  0  0  0
   -1.1455    1.0622    1.7022 C   0  0  0  0  0  0  0  0  0  0  0  0
   -1.9749    1.8857    1.3175 O   0  0  0  0  0  0  0  0  0  0  0  0
   -0.2259    1.4247    2.6675 N   0  0  0  0  0  0  0  0  0  0  0  0
    0.3650    0.6865    3.0463 H   0  0  0  0  0  0  0  0  0  0  0  0
   -0.2435    2.7124    3.3546 C   0  0  0  0  0  0  0  0  0  0  0  0
   -1.1634    2.8232    3.9386 H   0  0  0  0  0  0  0  0  0  0  0  0
    0.6094    2.7885    4.0369 H   0  0  0  0  0  0  0  0  0  0  0  0
   -0.1804    3.5361    2.6359 H   0  0  0  0  0  0  0  0  0  0  0  0
  1  2  1  0  0  0  0
  2  3  1  0  0  0  0
  2  4  1  0  0  0  0
  2  5  1  0  0  0  0
  5  6  2  0  0  0  0
  5  7  1  0  0  0  0
  7  8  1  0  0  0  0
  7  9  1  0  0  0  0
  9 10  1  0  0  0  0
  9 11  1  0  0  0  0
  9 29  1  0  0  0  0
 11 12  1  0  0  0  0
 11 13  1  0  0  0  0
 11 14  1  0  0  0  0
 14 15  1  0  0  0  0
 14 16  1  0  0  0  0
 14 17  1  0  0  0  0
 17 18  1  0  0  0  0
 17 19  1  0  0  0  0
 17 20  1  0  0  0  0
 20 21  1  0  0  0  0
 20 22  2  0  0  0  0
 22 23  1  0  0  0  0
 22 26  1  0  0  0  0
 23 24  1  0  0  0  0
 23 25  1  0  0  0  0
 26 27  1  0  0  0  0
 26 28  1  0  0  0  0
 29 30  2  0  0  0  0
 29 31  1  0  0  0  0
 31 32  1  0  0  0  0
 31 33  1  0  0  0  0
 33 34  1  0  0  0  0
 33 35  1  0  0  0  0
 33 36  1  0  0  0  0
M  CHG  1  20   1
M  END
$$$$

  -OEChem-03222214013D

 36 35  0     1  0  0  0  0  0999 V2000
   -4.4407   -3.6216    1.8627 H   0  0  0  0  0  0  0  0  0  0  0  0
   -4.3481   -2.5785    1.5469 C   0  0  0  0  0  0  0  0  0  0  0  0
   -4.8841   -1.9471    2.2594 H   0  0  0  0  0  0  0  0  0  0  0  0
   -4.8012   -2.4706    0.5588 H   0  0  0  0  0  0  0  0  0  0  0  0
   -2.8859   -2.1793    1.4965 C   0  0  0  0  0  0  0  0  0  0  0  0
   -2.0264   -2.9597    1.8699 O   0  0  0  0  0  0  0  0  0  0  0  0
   -2.5231   -0.9322    1.0230 N   0  0  0  0  0  0  0  0  0  0  0  0
   -3.2794   -0.2804    0.8260 H   0  0  0  0  0  0  0  0  0  0  0  0
   -1.1531   -0.3956    1.0853 C   0  0  1  0  0  0  0  0  0  0  0  0
   -0.5919   -0.9655    1.8343 H   0  0  0  0  0  0  0  0  0  0  0  0
   -0.4545   -0.6339   -0.2728 C   0  0  0  0  0  0  0  0  0  0  0  0
    0.6284   -0.5385   -0.1406 H   0  0  0  0  0  0  0  0  0  0  0  0
   -0.6445   -1.6707   -0.5727 H   0  0  0  0  0  0  0  0  0  0  0  0
   -0.9107    0.2992   -1.4110 C   0  0  0  0  0  0  0  0  0  0  0  0
   -0.8009   -0.2341   -2.3613 H   0  0  0  0  0  0  0  0  0  0  0  0
   -1.9724    0.5408   -1.2952 H   0  0  0  0  0  0  0  0  0  0  0  0
   -0.0677    1.5771   -1.4742 C   0  0  0  0  0  0  0  0  0  0  0  0
   -0.0752    2.0868   -0.5060 H   0  0  0  0  0  0  0  0  0  0  0  0
    0.9726    1.3109   -1.6914 H   0  0  0  0  0  0  0  0  0  0  0  0
   -0.5816    2.4751   -2.5257 N   0  3  0  0  0  0  0  0  0  0  0  0
   -0.2833    2.2824   -3.4810 H   0  0  0  0  0  0  0  0  0  0  0  0
   -1.3541    3.4998   -2.2969 C   0  0  0  0  0  0  0  0  0  0  0  0
   -1.8163    3.8138   -1.0401 N   0  0  0  0  0  0  0  0  0  0  0  0
   -1.7340    3.0974   -0.3106 H   0  0  0  0  0  0  0  0  0  0  0  0
   -2.5945    4.4625   -0.9590 H   0  0  0  0  0  0  0  0  0  0  0  0
   -1.7289    4.3070   -3.3444 N   0  0  0  0  0  0  0  0  0  0  0  0
   -1.2450    4.2064   -4.2343 H   0  0  0  0  0  0  0  0  0  0  0  0
   -2.1430    5.2117   -3.1281 H   0  0  0  0  0  0  0  0  0  0  0  0
   -1.1167    1.0685    1.5681 C   0  0  0  0  0  0  0  0  0  0  0  0
   -1.8776    1.8999    1.0766 O   0  0  0  0  0  0  0  0  0  0  0  0
   -0.1948    1.4753    2.5133 N   0  0  0  0  0  0  0  0  0  0  0  0
    0.3601    0.7496    2.9641 H   0  0  0  0  0  0  0  0  0  0  0  0
   -0.1575    2.8218    3.0753 C   0  0  0  0  0  0  0  0  0  0  0  0
   -1.0997    3.0520    3.5839 H   0  0  0  0  0  0  0  0  0  0  0  0
    0.6559    2.9057    3.8030 H   0  0  0  0  0  0  0  0  0  0  0  0
    0.0096    3.5644    2.2882 H   0  0  0  0  0  0  0  0  0  0  0  0
  1  2  1  0  0  0  0
  2  3  1  0  0  0  0
  2  4  1  0  0  0  0
  2  5  1  0  0  0  0
  5  6  2  0  0  0  0
  5  7  1  0  0  0  0
  7  8  1  0  0  0  0
  7  9  1  0  0  0  0
  9 10  1  0  0  0  0
  9 11  1  0  0  0  0
  9 29  1  0  0  0  0
 11 12  1  0  0  0  0
 11 13  1  0  0  0  0
 11 14  1  0  0  0  0
 14 15  1  0  0  0  0
 14 16  1  0  0  0  0
 14 17  1  0  0  0  0
 17 18  1  0  0  0  0
 17 19  1  0  0  0  0
 17 20  1  0  0  0  0
 20 21  1  0  0  0  0
 20 22  2  0  0  0  0
 22 23  1  0  0  0  0
 22 26  1  0  0  0  0
 23 24  1  0  0  0  0
 23 25  1  0  0  0  0
 26 27  1  0  0  0  0
 26 28  1  0  0  0  0
 29 30  2  0  0  0  0
 29 31  1  0  0  0  0
 31 32  1  0  0  0  0
 31 33  1  0  0  0  0
 33 34  1  0  0  0  0
 33 35  1  0  0  0  0
 33 36  1  0  0  0  0
M  CHG  1  20   1
M  END
$$$$

  -OEChem-03222214013D

 36 35  0     1  0  0  0  0  0999 V2000
   -4.0403   -4.1040    2.0439 H   0  0  0  0  0  0  0  0  0  0  0  0
   -4.0900   -3.1049    1.6014 C   0  0  0  0  0  0  0  0  0  0  0  0
   -4.7433   -2.4815    2.2165 H   0  0  0  0  0  0  0  0  0  0  0  0
   -4.5126   -3.1858    0.5972 H   0  0  0  0  0  0  0  0  0  0  0  0
   -2.7026   -2.4960    1.5326 C   0  0  0  0  0  0  0  0  0  0  0  0
   -1.7315   -3.1463    1.8825 O   0  0  0  0  0  0  0  0  0  0  0  0
   -2.5345   -1.2063    1.0651 N   0  0  0  0  0  0  0  0  0  0  0  0
   -3.3816   -0.6695    0.8883 H   0  0  0  0  0  0  0  0  0  0  0  0
   -1.2625   -0.4677    1.1239 C   0  0  1  0  0  0  0  0  0  0  0  0
   -0.6222   -0.9542    1.8679 H   0  0  0  0  0  0  0  0  0  0  0  0
   -0.5368   -0.5892   -0.2333 C   0  0  0  0  0  0  0  0  0  0  0  0
    0.5184   -0.3274   -0.1013 H   0  0  0  0  0  0  0  0  0  0  0  0
   -0.5638   -1.6398   -0.5438 H   0  0  0  0  0  0  0  0  0  0  0  0
   -1.1552    0.2767   -1.3479 C   0  0  0  0  0  0  0  0  0  0  0  0
   -1.2079   -0.3227   -2.2633 H   0  0  0  0  0  0  0  0  0  0  0  0
   -2.1817    0.5603   -1.0961 H   0  0  0  0  0  0  0  0  0  0  0  0
   -0.2964    1.5084   -1.6292 C   0  0  0  0  0  0  0  0  0  0  0  0
   -0.1079    2.0309   -0.6845 H   0  0  0  0  0  0  0  0  0  0  0  0
    0.6633    1.1955   -2.0554 H   0  0  0  0  0  0  0  0  0  0  0  0
   -1.0113    2.4033   -2.5564 N   0  3  0  0  0  0  0  0  0  0  0  0
   -1.9461    2.1165   -2.8435 H   0  0  0  0  0  0  0  0  0  0  0  0
   -0.5588    3.5634   -2.9333 C   0  0  0  0  0  0  0  0  0  0  0  0
    0.6645    4.0347   -2.5151 N   0  0  0  0  0  0  0  0  0  0  0  0
    1.1266    3.5357   -1.7579 H   0  0  0  0  0  0  0  0  0  0  0  0
    0.8671    5.0257   -2.6276 H   0  0  0  0  0  0  0  0  0  0  0  0
   -1.3167    4.3479   -3.7693 N   0  0  0  0  0  0  0  0  0  0  0  0
   -2.1413    3.9430   -4.2083 H   0  0  0  0  0  0  0  0  0  0  0  0
   -0.8756    5.1462   -4.2220 H   0  0  0  0  0  0  0  0  0  0  0  0
   -1.4170    0.9897    1.6127 C   0  0  0  0  0  0  0  0  0  0  0  0
   -2.2848    1.7158    1.1397 O   0  0  0  0  0  0  0  0  0  0  0  0
   -0.5422    1.5070    2.5508 N   0  0  0  0  0  0  0  0  0  0  0  0
    0.0837    0.8479    3.0094 H   0  0  0  0  0  0  0  0  0  0  0  0
   -0.7129    2.8261    3.1526 C   0  0  0  0  0  0  0  0  0  0  0  0
   -1.6591    2.8772    3.7020 H   0  0  0  0  0  0  0  0  0  0  0  0
    0.1041    3.0329    3.8513 H   0  0  0  0  0  0  0  0  0  0  0  0
   -0.7115    3.6050    2.3832 H   0  0  0  0  0  0  0  0  0  0  0  0
  1  2  1  0  0  0  0
  2  3  1  0  0  0  0
  2  4  1  0  0  0  0
  2  5  1  0  0  0  0
  5  6  2  0  0  0  0
  5  7  1  0  0  0  0
  7  8  1  0  0  0  0
  7  9  1  0  0  0  0
  9 10  1  0  0  0  0
  9 11  1  0  0  0  0
  9 29  1  0  0  0  0
 11 12  1  0  0  0  0
 11 13  1  0  0  0  0
 11 14  1  0  0  0  0
 14 15  1  0  0  0  0
 14 16  1  0  0  0  0
 14 17  1  0  0  0  0
 17 18  1  0  0  0  0
 17 19  1  0  0  0  0
 17 20  1  0  0  0  0
 20 21  1  0  0  0  0
 20 22  2  0  0  0  0
 22 23  1  0  0  0  0
 22 26  1  0  0  0  0
 23 24  1  0  0  0  0
 23 25  1  0  0  0  0
 26 27  1  0  0  0  0
 26 28  1  0  0  0  0
 29 30  2  0  0  0  0
 29 31  1  0  0  0  0
 31 32  1  0  0  0  0
 31 33  1  0  0  0  0
 33 34  1  0  0  0  0
 33 35  1  0  0  0  0
 33 36  1  0  0  0  0
M  CHG  1  20   1
M  END
$$$$

  -OEChem-03222214013D

 36 35  0     1  0  0  0  0  0999 V2000
   -3.9982   -4.1245    2.0617 H   0  0  0  0  0  0  0  0  0  0  0  0
   -4.0686   -3.1180    1.6395 C   0  0  0  0  0  0  0  0  0  0  0  0
   -4.6923   -2.5058    2.2954 H   0  0  0  0  0  0  0  0  0  0  0  0
   -4.5383   -3.1815    0.6553 H   0  0  0  0  0  0  0  0  0  0  0  0
   -2.6861   -2.5064    1.5169 C   0  0  0  0  0  0  0  0  0  0  0  0
   -1.6992   -3.1598    1.8136 O   0  0  0  0  0  0  0  0  0  0  0  0
   -2.5417   -1.2081    1.0669 N   0  0  0  0  0  0  0  0  0  0  0  0
   -3.3978   -0.6699    0.9435 H   0  0  0  0  0  0  0  0  0  0  0  0
   -1.2782   -0.4564    1.1158 C   0  0  1  0  0  0  0  0  0  0  0  0
   -0.6288   -0.9437    1.8518 H   0  0  0  0  0  0  0  0  0  0  0  0
   -0.5568   -0.5690   -0.2447 C   0  0  0  0  0  0  0  0  0  0  0  0
    0.4896   -0.2803   -0.0994 H   0  0  0  0  0  0  0  0  0  0  0  0
   -0.5516   -1.6203   -0.5540 H   0  0  0  0  0  0  0  0  0  0  0  0
   -1.1773    0.2843   -1.3712 C   0  0  0  0  0  0  0  0  0  0  0  0
   -1.4803   -0.3839   -2.1849 H   0  0  0  0  0  0  0  0  0  0  0  0
   -2.0843    0.7909   -1.0329 H   0  0  0  0  0  0  0  0  0  0  0  0
   -0.1729    1.2984   -1.9146 C   0  0  0  0  0  0  0  0  0  0  0  0
    0.2405    1.8715   -1.0771 H   0  0  0  0  0  0  0  0  0  0  0  0
    0.6450    0.7686   -2.4156 H   0  0  0  0  0  0  0  0  0  0  0  0
   -0.8564    2.2067   -2.8530 N   0  3  0  0  0  0  0  0  0  0  0  0
   -1.8609    2.0769   -2.9688 H   0  0  0  0  0  0  0  0  0  0  0  0
   -0.2702    3.1970   -3.4602 C   0  0  0  0  0  0  0  0  0  0  0  0
    1.0714    3.4563   -3.2962 N   0  0  0  0  0  0  0  0  0  0  0  0
    1.5649    2.9544   -2.5612 H   0  0  0  0  0  0  0  0  0  0  0  0
    1.4315    4.3645   -3.5818 H   0  0  0  0  0  0  0  0  0  0  0  0
   -1.0042    4.0144   -4.2864 N   0  0  0  0  0  0  0  0  0  0  0  0
   -1.9485    3.7327   -4.5431 H   0  0  0  0  0  0  0  0  0  0  0  0
   -0.5097    4.6533   -4.9062 H   0  0  0  0  0  0  0  0  0  0  0  0
   -1.4428    0.9909    1.6303 C   0  0  0  0  0  0  0  0  0  0  0  0
   -2.3650    1.6916    1.2285 O   0  0  0  0  0  0  0  0  0  0  0  0
   -0.5588    1.5047    2.5615 N   0  0  0  0  0  0  0  0  0  0  0  0
    0.1054    0.8550    2.9767 H   0  0  0  0  0  0  0  0  0  0  0  0
   -0.7475    2.8017    3.2039 C   0  0  0  0  0  0  0  0  0  0  0  0
   -1.6838    2.8154    3.7725 H   0  0  0  0  0  0  0  0  0  0  0  0
    0.0781    3.0075    3.8926 H   0  0  0  0  0  0  0  0  0  0  0  0
   -0.7783    3.6019    2.4569 H   0  0  0  0  0  0  0  0  0  0  0  0
  1  2  1  0  0  0  0
  2  3  1  0  0  0  0
  2  4  1  0  0  0  0
  2  5  1  0  0  0  0
  5  6  2  0  0  0  0
  5  7  1  0  0  0  0
  7  8  1  0  0  0  0
  7  9  1  0  0  0  0
  9 10  1  0  0  0  0
  9 11  1  0  0  0  0
  9 29  1  0  0  0  0
 11 12  1  0  0  0  0
 11 13  1  0  0  0  0
 11 14  1  0  0  0  0
 14 15  1  0  0  0  0
 14 16  1  0  0  0  0
 14 17  1  0  0  0  0
 17 18  1  0  0  0  0
 17 19  1  0  0  0  0
 17 20  1  0  0  0  0
 20 21  1  0  0  0  0
 20 22  2  0  0  0  0
 22 23  1  0  0  0  0
 22 26  1  0  0  0  0
 23 24  1  0  0  0  0
 23 25  1  0  0  0  0
 26 27  1  0  0  0  0
 26 28  1  0  0  0  0
 29 30  2  0  0  0  0
 29 31  1  0  0  0  0
 31 32  1  0  0  0  0
 31 33  1  0  0  0  0
 33 34  1  0  0  0  0
 33 35  1  0  0  0  0
 33 36  1  0  0  0  0
M  CHG  1  20   1
M  END
$$$$

  -OEChem-03222214013D

 36 35  0     1  0  0  0  0  0999 V2000
   -3.8894   -4.2204    1.7604 H   0  0  0  0  0  0  0  0  0  0  0  0
   -3.9950   -3.1624    1.5034 C   0  0  0  0  0  0  0  0  0  0  0  0
   -4.5860   -2.6702    2.2795 H   0  0  0  0  0  0  0  0  0  0  0  0
   -4.5204   -3.0836    0.5488 H   0  0  0  0  0  0  0  0  0  0  0  0
   -2.6288   -2.5117    1.4011 C   0  0  0  0  0  0  0  0  0  0  0  0
   -1.6215   -3.1653    1.6184 O   0  0  0  0  0  0  0  0  0  0  0  0
   -2.5210   -1.1806    1.0480 N   0  0  0  0  0  0  0  0  0  0  0  0
   -3.3911   -0.6537    0.9883 H   0  0  0  0  0  0  0  0  0  0  0  0
   -1.2775   -0.4019    1.1508 C   0  0  1  0  0  0  0  0  0  0  0  0
   -0.6180   -0.9206    1.8558 H   0  0  0  0  0  0  0  0  0  0  0  0
   -0.5525   -0.4159   -0.2129 C   0  0  0  0  0  0  0  0  0  0  0  0
    0.4772   -0.0900   -0.0301 H   0  0  0  0  0  0  0  0  0  0  0  0
   -0.4961   -1.4459   -0.5830 H   0  0  0  0  0  0  0  0  0  0  0  0
   -1.1773    0.4827   -1.3015 C   0  0  0  0  0  0  0  0  0  0  0  0
   -1.7239   -0.1509   -2.0084 H   0  0  0  0  0  0  0  0  0  0  0  0
   -1.9022    1.1788   -0.8759 H   0  0  0  0  0  0  0  0  0  0  0  0
   -0.1046    1.2819   -2.0386 C   0  0  0  0  0  0  0  0  0  0  0  0
    0.4566    1.8854   -1.3165 H   0  0  0  0  0  0  0  0  0  0  0  0
    0.5885    0.5873   -2.5253 H   0  0  0  0  0  0  0  0  0  0  0  0
   -0.7488    2.1598   -3.0327 N   0  3  0  0  0  0  0  0  0  0  0  0
   -1.7111    2.4385   -2.8425 H   0  0  0  0  0  0  0  0  0  0  0  0
   -0.1500    2.6252   -4.0906 C   0  0  0  0  0  0  0  0  0  0  0  0
    1.1653    2.3315   -4.3700 N   0  0  0  0  0  0  0  0  0  0  0  0
    1.7171    1.8866   -3.6395 H   0  0  0  0  0  0  0  0  0  0  0  0
    1.6544    2.8944   -5.0632 H   0  0  0  0  0  0  0  0  0  0  0  0
   -0.8418    3.4366   -4.9581 N   0  0  0  0  0  0  0  0  0  0  0  0
   -1.8520    3.5145   -4.8543 H   0  0  0  0  0  0  0  0  0  0  0  0
   -0.4414    3.6185   -5.8767 H   0  0  0  0  0  0  0  0  0  0  0  0
   -1.4886    0.9965    1.7717 C   0  0  0  0  0  0  0  0  0  0  0  0
   -2.4606    1.6712    1.4513 O   0  0  0  0  0  0  0  0  0  0  0  0
   -0.6224    1.4709    2.7398 N   0  0  0  0  0  0  0  0  0  0  0  0
    0.0914    0.8317    3.0818 H   0  0  0  0  0  0  0  0  0  0  0  0
   -0.8515    2.7108    3.4751 C   0  0  0  0  0  0  0  0  0  0  0  0
   -1.7977    2.6624    4.0248 H   0  0  0  0  0  0  0  0  0  0  0  0
   -0.0435    2.8805    4.1937 H   0  0  0  0  0  0  0  0  0  0  0  0
   -0.8863    3.5641    2.7897 H   0  0  0  0  0  0  0  0  0  0  0  0
  1  2  1  0  0  0  0
  2  3  1  0  0  0  0
  2  4  1  0  0  0  0
  2  5  1  0  0  0  0
  5  6  2  0  0  0  0
  5  7  1  0  0  0  0
  7  8  1  0  0  0  0
  7  9  1  0  0  0  0
  9 10  1  0  0  0  0
  9 11  1  0  0  0  0
  9 29  1  0  0  0  0
 11 12  1  0  0  0  0
 11 13  1  0  0  0  0
 11 14  1  0  0  0  0
 14 15  1  0  0  0  0
 14 16  1  0  0  0  0
 14 17  1  0  0  0  0
 17 18  1  0  0  0  0
 17 19  1  0  0  0  0
 17 20  1  0  0  0  0
 20 21  1  0  0  0  0
 20 22  2  0  0  0  0
 22 23  1  0  0  0  0
 22 26  1  0  0  0  0
 23 24  1  0  0  0  0
 23 25  1  0  0  0  0
 26 27  1  0  0  0  0
 26 28  1  0  0  0  0
 29 30  2  0  0  0  0
 29 31  1  0  0  0  0
 31 32  1  0  0  0  0
 31 33  1  0  0  0  0
 33 34  1  0  0  0  0
 33 35  1  0  0  0  0
 33 36  1  0  0  0  0
M  CHG  1  20   1
M  END
$$$$

  -OEChem-03222214013D

 36 35  0     1  0  0  0  0  0999 V2000
   -3.9348   -4.1842    1.8970 H   0  0  0  0  0  0  0  0  0  0  0  0
   -4.0300   -3.1271    1.6325 C   0  0  0  0  0  0  0  0  0  0  0  0
   -4.5771   -2.6142    2.4273 H   0  0  0  0  0  0  0  0  0  0  0  0
   -4.5938   -3.0475    0.7001 H   0  0  0  0  0  0  0  0  0  0  0  0
   -2.6566   -2.5064    1.4647 C   0  0  0  0  0  0  0  0  0  0  0  0
   -1.6548   -3.1715    1.6728 O   0  0  0  0  0  0  0  0  0  0  0  0
   -2.5359   -1.1894    1.0655 N   0  0  0  0  0  0  0  0  0  0  0  0
   -3.3970   -0.6462    1.0203 H   0  0  0  0  0  0  0  0  0  0  0  0
   -1.2764   -0.4316    1.1140 C   0  0  1  0  0  0  0  0  0  0  0  0
   -0.6046   -0.9376    1.8163 H   0  0  0  0  0  0  0  0  0  0  0  0
   -0.5924   -0.4955   -0.2698 C   0  0  0  0  0  0  0  0  0  0  0  0
    0.4436   -0.1721   -0.1230 H   0  0  0  0  0  0  0  0  0  0  0  0
   -0.5562   -1.5351   -0.6144 H   0  0  0  0  0  0  0  0  0  0  0  0
   -1.2294    0.3849   -1.3632 C   0  0  0  0  0  0  0  0  0  0  0  0
   -2.0254   -0.1795   -1.8608 H   0  0  0  0  0  0  0  0  0  0  0  0
   -1.6822    1.2802   -0.9329 H   0  0  0  0  0  0  0  0  0  0  0  0
   -0.1727    0.8358   -2.3696 C   0  0  0  0  0  0  0  0  0  0  0  0
    0.6217    1.3744   -1.8410 H   0  0  0  0  0  0  0  0  0  0  0  0
    0.2638   -0.0465   -2.8508 H   0  0  0  0  0  0  0  0  0  0  0  0
   -0.7967    1.7140   -3.3760 N   0  3  0  0  0  0  0  0  0  0  0  0
   -1.7600    2.0006   -3.2041 H   0  0  0  0  0  0  0  0  0  0  0  0
   -0.1789    2.1605   -4.4309 C   0  0  0  0  0  0  0  0  0  0  0  0
    1.1336    1.8403   -4.6939 N   0  0  0  0  0  0  0  0  0  0  0  0
    1.6646    1.3699   -3.9640 H   0  0  0  0  0  0  0  0  0  0  0  0
    1.6448    2.3935   -5.3788 H   0  0  0  0  0  0  0  0  0  0  0  0
   -0.8470    2.9786   -5.3104 N   0  0  0  0  0  0  0  0  0  0  0  0
   -1.8563    3.0773   -5.2169 H   0  0  0  0  0  0  0  0  0  0  0  0
   -0.4333    3.1497   -6.2252 H   0  0  0  0  0  0  0  0  0  0  0  0
   -1.4658    0.9859    1.6963 C   0  0  0  0  0  0  0  0  0  0  0  0
   -2.4456    1.6504    1.3779 O   0  0  0  0  0  0  0  0  0  0  0  0
   -0.5795    1.4852    2.6330 N   0  0  0  0  0  0  0  0  0  0  0  0
    0.1380    0.8531    2.9800 H   0  0  0  0  0  0  0  0  0  0  0  0
   -0.7916    2.7454    3.3384 C   0  0  0  0  0  0  0  0  0  0  0  0
   -1.6757    2.6805    3.9817 H   0  0  0  0  0  0  0  0  0  0  0  0
    0.0757    2.9802    3.9636 H   0  0  0  0  0  0  0  0  0  0  0  0
   -0.9337    3.5669    2.6282 H   0  0  0  0  0  0  0  0  0  0  0  0
  1  2  1  0  0  0  0
  2  3  1  0  0  0  0
  2  4  1  0  0  0  0
  2  5  1  0  0  0  0
  5  6  2  0  0  0  0
  5  7  1  0  0  0  0
  7  8  1  0  0  0  0
  7  9  1  0  0  0  0
  9 10  1  0  0  0  0
  9 11  1  0  0  0  0
  9 29  1  0  0  0  0
 11 12  1  0  0  0  0
 11 13  1  0  0  0  0
 11 14  1  0  0  0  0
 14 15  1  0  0  0  0
 14 16  1  0  0  0  0
 14 17  1  0  0  0  0
 17 18  1  0  0  0  0
 17 19  1  0  0  0  0
 17 20  1  0  0  0  0
 20 21  1  0  0  0  0
 20 22  2  0  0  0  0
 22 23  1  0  0  0  0
 22 26  1  0  0  0  0
 23 24  1  0  0  0  0
 23 25  1  0  0  0  0
 26 27  1  0  0  0  0
 26 28  1  0  0  0  0
 29 30  2  0  0  0  0
 29 31  1  0  0  0  0
 31 32  1  0  0  0  0
 31 33  1  0  0  0  0
 33 34  1  0  0  0  0
 33 35  1  0  0  0  0
 33 36  1  0  0  0  0
M  CHG  1  20   1
M  END
$$$$

  -OEChem-03222214013D

 36 35  0     1  0  0  0  0  0999 V2000
   -3.9556   -4.1651    1.9191 H   0  0  0  0  0  0  0  0  0  0  0  0
   -4.0396   -3.1098    1.6436 C   0  0  0  0  0  0  0  0  0  0  0  0
   -4.5802   -2.5825    2.4335 H   0  0  0  0  0  0  0  0  0  0  0  0
   -4.6038   -3.0341    0.7111 H   0  0  0  0  0  0  0  0  0  0  0  0
   -2.6598   -2.5056    1.4688 C   0  0  0  0  0  0  0  0  0  0  0  0
   -1.6648   -3.1794    1.6812 O   0  0  0  0  0  0  0  0  0  0  0  0
   -2.5254   -1.1952    1.0541 N   0  0  0  0  0  0  0  0  0  0  0  0
   -3.3804   -0.6421    1.0096 H   0  0  0  0  0  0  0  0  0  0  0  0
   -1.2585   -0.4496    1.1029 C   0  0  1  0  0  0  0  0  0  0  0  0
   -0.5888   -0.9534    1.8088 H   0  0  0  0  0  0  0  0  0  0  0  0
   -0.5812   -0.5189   -0.2829 C   0  0  0  0  0  0  0  0  0  0  0  0
    0.4613   -0.2094   -0.1519 H   0  0  0  0  0  0  0  0  0  0  0  0
   -0.5691   -1.5581   -0.6302 H   0  0  0  0  0  0  0  0  0  0  0  0
   -1.2228    0.3742   -1.3587 C   0  0  0  0  0  0  0  0  0  0  0  0
   -2.1815   -0.0572   -1.6663 H   0  0  0  0  0  0  0  0  0  0  0  0
   -1.4142    1.3755   -0.9640 H   0  0  0  0  0  0  0  0  0  0  0  0
   -0.2828    0.5146   -2.5528 C   0  0  0  0  0  0  0  0  0  0  0  0
    0.6725    0.9300   -2.2130 H   0  0  0  0  0  0  0  0  0  0  0  0
   -0.0999   -0.4760   -2.9840 H   0  0  0  0  0  0  0  0  0  0  0  0
   -0.8953    1.4051   -3.5551 N   0  3  0  0  0  0  0  0  0  0  0  0
   -1.7518    1.8861   -3.2818 H   0  0  0  0  0  0  0  0  0  0  0  0
   -0.3893    1.6241   -4.7339 C   0  0  0  0  0  0  0  0  0  0  0  0
    0.7830    1.0291   -5.1417 N   0  0  0  0  0  0  0  0  0  0  0  0
    1.3351    0.5371   -4.4420 H   0  0  0  0  0  0  0  0  0  0  0  0
    1.2656    1.4059   -5.9551 H   0  0  0  0  0  0  0  0  0  0  0  0
   -1.0333    2.4745   -5.6004 N   0  0  0  0  0  0  0  0  0  0  0  0
   -1.9817    2.7717   -5.3791 H   0  0  0  0  0  0  0  0  0  0  0  0
   -0.7489    2.4778   -6.5781 H   0  0  0  0  0  0  0  0  0  0  0  0
   -1.4523    0.9735    1.6678 C   0  0  0  0  0  0  0  0  0  0  0  0
   -2.4250    1.6349    1.3212 O   0  0  0  0  0  0  0  0  0  0  0  0
   -0.5783    1.4856    2.6090 N   0  0  0  0  0  0  0  0  0  0  0  0
    0.1394    0.8616    2.9702 H   0  0  0  0  0  0  0  0  0  0  0  0
   -0.7961    2.7598    3.2871 C   0  0  0  0  0  0  0  0  0  0  0  0
   -1.6965    2.7139    3.9093 H   0  0  0  0  0  0  0  0  0  0  0  0
    0.0574    2.9984    3.9295 H   0  0  0  0  0  0  0  0  0  0  0  0
   -0.9134    3.5699    2.5592 H   0  0  0  0  0  0  0  0  0  0  0  0
  1  2  1  0  0  0  0
  2  3  1  0  0  0  0
  2  4  1  0  0  0  0
  2  5  1  0  0  0  0
  5  6  2  0  0  0  0
  5  7  1  0  0  0  0
  7  8  1  0  0  0  0
  7  9  1  0  0  0  0
  9 10  1  0  0  0  0
  9 11  1  0  0  0  0
  9 29  1  0  0  0  0
 11 12  1  0  0  0  0
 11 13  1  0  0  0  0
 11 14  1  0  0  0  0
 14 15  1  0  0  0  0
 14 16  1  0  0  0  0
 14 17  1  0  0  0  0
 17 18  1  0  0  0  0
 17 19  1  0  0  0  0
 17 20  1  0  0  0  0
 20 21  1  0  0  0  0
 20 22  2  0  0  0  0
 22 23  1  0  0  0  0
 22 26  1  0  0  0  0
 23 24  1  0  0  0  0
 23 25  1  0  0  0  0
 26 27  1  0  0  0  0
 26 28  1  0  0  0  0
 29 30  2  0  0  0  0
 29 31  1  0  0  0  0
 31 32  1  0  0  0  0
 31 33  1  0  0  0  0
 33 34  1  0  0  0  0
 33 35  1  0  0  0  0
 33 36  1  0  0  0  0
M  CHG  1  20   1
M  END
$$$$

  -OEChem-03222214013D

 36 35  0     1  0  0  0  0  0999 V2000
   -3.9844   -4.1060    2.1012 H   0  0  0  0  0  0  0  0  0  0  0  0
   -4.0527   -3.1066    1.6620 C   0  0  0  0  0  0  0  0  0  0  0  0
   -4.6576   -2.4764    2.3183 H   0  0  0  0  0  0  0  0  0  0  0  0
   -4.5410   -3.1822    0.6878 H   0  0  0  0  0  0  0  0  0  0  0  0
   -2.6673   -2.5108    1.5026 C   0  0  0  0  0  0  0  0  0  0  0  0
   -1.6788   -3.1844    1.7438 O   0  0  0  0  0  0  0  0  0  0  0  0
   -2.5207   -1.2085    1.0667 N   0  0  0  0  0  0  0  0  0  0  0  0
   -3.3733   -0.6565    0.9828 H   0  0  0  0  0  0  0  0  0  0  0  0
   -1.2504   -0.4674    1.1066 C   0  0  1  0  0  0  0  0  0  0  0  0
   -0.5849   -0.9653    1.8201 H   0  0  0  0  0  0  0  0  0  0  0  0
   -0.5780   -0.5628   -0.2835 C   0  0  0  0  0  0  0  0  0  0  0  0
    0.5064   -0.5187   -0.1365 H   0  0  0  0  0  0  0  0  0  0  0  0
   -0.8017   -1.5381   -0.7305 H   0  0  0  0  0  0  0  0  0  0  0  0
   -0.9735    0.5597   -1.2555 C   0  0  0  0  0  0  0  0  0  0  0  0
   -2.0597    0.5443   -1.3996 H   0  0  0  0  0  0  0  0  0  0  0  0
   -0.6978    1.5354   -0.8411 H   0  0  0  0  0  0  0  0  0  0  0  0
   -0.2626    0.3766   -2.5928 C   0  0  0  0  0  0  0  0  0  0  0  0
    0.8209    0.4196   -2.4356 H   0  0  0  0  0  0  0  0  0  0  0  0
   -0.5170   -0.6066   -3.0043 H   0  0  0  0  0  0  0  0  0  0  0  0
   -0.6900    1.4419   -3.5175 N   0  3  0  0  0  0  0  0  0  0  0  0
   -1.4284    2.0658   -3.1923 H   0  0  0  0  0  0  0  0  0  0  0  0
   -0.1950    1.6066   -4.7095 C   0  0  0  0  0  0  0  0  0  0  0  0
    0.7812    0.7756   -5.2101 N   0  0  0  0  0  0  0  0  0  0  0  0
    0.9951   -0.0732   -4.6904 H   0  0  0  0  0  0  0  0  0  0  0  0
    0.9626    0.7830   -6.2117 H   0  0  0  0  0  0  0  0  0  0  0  0
   -0.6558    2.6332   -5.4985 N   0  0  0  0  0  0  0  0  0  0  0  0
   -1.2397    3.3513   -5.0737 H   0  0  0  0  0  0  0  0  0  0  0  0
   -0.1246    2.8812   -6.3312 H   0  0  0  0  0  0  0  0  0  0  0  0
   -1.4433    0.9655    1.6466 C   0  0  0  0  0  0  0  0  0  0  0  0
   -2.3823    1.6435    1.2430 O   0  0  0  0  0  0  0  0  0  0  0  0
   -0.5719    1.4904    2.5826 N   0  0  0  0  0  0  0  0  0  0  0  0
    0.1285    0.8649    2.9738 H   0  0  0  0  0  0  0  0  0  0  0  0
   -0.7616    2.7975    3.2033 C   0  0  0  0  0  0  0  0  0  0  0  0
   -1.7101    2.8295    3.7502 H   0  0  0  0  0  0  0  0  0  0  0  0
    0.0503    3.0038    3.9080 H   0  0  0  0  0  0  0  0  0  0  0  0
   -0.7667    3.5870    2.4444 H   0  0  0  0  0  0  0  0  0  0  0  0
  1  2  1  0  0  0  0
  2  3  1  0  0  0  0
  2  4  1  0  0  0  0
  2  5  1  0  0  0  0
  5  6  2  0  0  0  0
  5  7  1  0  0  0  0
  7  8  1  0  0  0  0
  7  9  1  0  0  0  0
  9 10  1  0  0  0  0
  9 11  1  0  0  0  0
  9 29  1  0  0  0  0
 11 12  1  0  0  0  0
 11 13  1  0  0  0  0
 11 14  1  0  0  0  0
 14 15  1  0  0  0  0
 14 16  1  0  0  0  0
 14 17  1  0  0  0  0
 17 18  1  0  0  0  0
 17 19  1  0  0  0  0
 17 20  1  0  0  0  0
 20 21  1  0  0  0  0
 20 22  2  0  0  0  0
 22 23  1  0  0  0  0
 22 26  1  0  0  0  0
 23 24  1  0  0  0  0
 23 25  1  0  0  0  0
 26 27  1  0  0  0  0
 26 28  1  0  0  0  0
 29 30  2  0  0  0  0
 29 31  1  0  0  0  0
 31 32  1  0  0  0  0
 31 33  1  0  0  0  0
 33 34  1  0  0  0  0
 33 35  1  0  0  0  0
 33 36  1  0  0  0  0
M  CHG  1  20   1
M  END
$$$$

  -OEChem-03222214013D

 36 35  0     1  0  0  0  0  0999 V2000
   -3.9922   -4.1080    2.1063 H   0  0  0  0  0  0  0  0  0  0  0  0
   -4.0628   -3.1007    1.6861 C   0  0  0  0  0  0  0  0  0  0  0  0
   -4.6501   -2.4783    2.3655 H   0  0  0  0  0  0  0  0  0  0  0  0
   -4.5722   -3.1568    0.7213 H   0  0  0  0  0  0  0  0  0  0  0  0
   -2.6765   -2.5114    1.5090 C   0  0  0  0  0  0  0  0  0  0  0  0
   -1.6887   -3.1893    1.7408 O   0  0  0  0  0  0  0  0  0  0  0  0
   -2.5284   -1.2115    1.0659 N   0  0  0  0  0  0  0  0  0  0  0  0
   -3.3794   -0.6551    0.9950 H   0  0  0  0  0  0  0  0  0  0  0  0
   -1.2560   -0.4731    1.0996 C   0  0  1  0  0  0  0  0  0  0  0  0
   -0.5920   -0.9698    1.8160 H   0  0  0  0  0  0  0  0  0  0  0  0
   -0.5783   -0.5731   -0.2867 C   0  0  0  0  0  0  0  0  0  0  0  0
    0.5075   -0.5397   -0.1480 H   0  0  0  0  0  0  0  0  0  0  0  0
   -0.8153   -1.5486   -0.7262 H   0  0  0  0  0  0  0  0  0  0  0  0
   -0.9753    0.5501   -1.2572 C   0  0  0  0  0  0  0  0  0  0  0  0
   -2.0620    0.6870   -1.2228 H   0  0  0  0  0  0  0  0  0  0  0  0
   -0.5019    1.4914   -0.9564 H   0  0  0  0  0  0  0  0  0  0  0  0
   -0.5721    0.1886   -2.6833 C   0  0  0  0  0  0  0  0  0  0  0  0
    0.5160    0.0683   -2.7312 H   0  0  0  0  0  0  0  0  0  0  0  0
   -1.0415   -0.7623   -2.9592 H   0  0  0  0  0  0  0  0  0  0  0  0
   -1.0115    1.2574   -3.5987 N   0  3  0  0  0  0  0  0  0  0  0  0
   -1.5725    2.0079   -3.1961 H   0  0  0  0  0  0  0  0  0  0  0  0
   -0.7435    1.2745   -4.8721 C   0  0  0  0  0  0  0  0  0  0  0  0
   -0.0162    0.2723   -5.4728 N   0  0  0  0  0  0  0  0  0  0  0  0
    0.1714   -0.5688   -4.9308 H   0  0  0  0  0  0  0  0  0  0  0  0
   -0.0386    0.1933   -6.4874 H   0  0  0  0  0  0  0  0  0  0  0  0
   -1.1974    2.3150   -5.6472 N   0  0  0  0  0  0  0  0  0  0  0  0
   -1.5765    3.1400   -5.1858 H   0  0  0  0  0  0  0  0  0  0  0  0
   -0.8144    2.4260   -6.5842 H   0  0  0  0  0  0  0  0  0  0  0  0
   -1.4375    0.9651    1.6319 C   0  0  0  0  0  0  0  0  0  0  0  0
   -2.3809    1.6424    1.2378 O   0  0  0  0  0  0  0  0  0  0  0  0
   -0.5600    1.4911    2.5619 N   0  0  0  0  0  0  0  0  0  0  0  0
    0.1446    0.8672    2.9482 H   0  0  0  0  0  0  0  0  0  0  0  0
   -0.7518    2.7952    3.1884 C   0  0  0  0  0  0  0  0  0  0  0  0
   -1.6975    2.8206    3.7405 H   0  0  0  0  0  0  0  0  0  0  0  0
    0.0627    3.0029    3.8894 H   0  0  0  0  0  0  0  0  0  0  0  0
   -0.7648    3.5871    2.4322 H   0  0  0  0  0  0  0  0  0  0  0  0
  1  2  1  0  0  0  0
  2  3  1  0  0  0  0
  2  4  1  0  0  0  0
  2  5  1  0  0  0  0
  5  6  2  0  0  0  0
  5  7  1  0  0  0  0
  7  8  1  0  0  0  0
  7  9  1  0  0  0  0
  9 10  1  0  0  0  0
  9 11  1  0  0  0  0
  9 29  1  0  0  0  0
 11 12  1  0  0  0  0
 11 13  1  0  0  0  0
 11 14  1  0  0  0  0
 14 15  1  0  0  0  0
 14 16  1  0  0  0  0
 14 17  1  0  0  0  0
 17 18  1  0  0  0  0
 17 19  1  0  0  0  0
 17 20  1  0  0  0  0
 20 21  1  0  0  0  0
 20 22  2  0  0  0  0
 22 23  1  0  0  0  0
 22 26  1  0  0  0  0
 23 24  1  0  0  0  0
 23 25  1  0  0  0  0
 26 27  1  0  0  0  0
 26 28  1  0  0  0  0
 29 30  2  0  0  0  0
 29 31  1  0  0  0  0
 31 32  1  0  0  0  0
 31 33  1  0  0  0  0
 33 34  1  0  0  0  0
 33 35  1  0  0  0  0
 33 36  1  0  0  0  0
M  CHG  1  20   1
M  END
$$$$

  -OEChem-03222214013D

 36 35  0     1  0  0  0  0  0999 V2000
   -3.9879   -4.1014    2.1285 H   0  0  0  0  0  0  0  0  0  0  0  0
   -4.0686   -3.0974    1.7020 C   0  0  0  0  0  0  0  0  0  0  0  0
   -4.6443   -2.4711    2.3876 H   0  0  0  0  0  0  0  0  0  0  0  0
   -4.5953   -3.1615    0.7472 H   0  0  0  0  0  0  0  0  0  0  0  0
   -2.6872   -2.5068    1.4944 C   0  0  0  0  0  0  0  0  0  0  0  0
   -1.6946   -3.1900    1.6858 O   0  0  0  0  0  0  0  0  0  0  0  0
   -2.5503   -1.2009    1.0651 N   0  0  0  0  0  0  0  0  0  0  0  0
   -3.4027   -0.6428    1.0336 H   0  0  0  0  0  0  0  0  0  0  0  0
   -1.2795   -0.4596    1.0943 C   0  0  1  0  0  0  0  0  0  0  0  0
   -0.6172   -0.9631    1.8072 H   0  0  0  0  0  0  0  0  0  0  0  0
   -0.5926   -0.5557   -0.2871 C   0  0  0  0  0  0  0  0  0  0  0  0
    0.4927   -0.5228   -0.1447 H   0  0  0  0  0  0  0  0  0  0  0  0
   -0.8256   -1.5348   -0.7204 H   0  0  0  0  0  0  0  0  0  0  0  0
   -0.9836    0.5624   -1.2690 C   0  0  0  0  0  0  0  0  0  0  0  0
   -2.0191    0.8664   -1.0829 H   0  0  0  0  0  0  0  0  0  0  0  0
   -0.3386    1.4355   -1.1215 H   0  0  0  0  0  0  0  0  0  0  0  0
   -0.9086    0.0589   -2.7076 C   0  0  0  0  0  0  0  0  0  0  0  0
    0.1248   -0.2238   -2.9373 H   0  0  0  0  0  0  0  0  0  0  0  0
   -1.5447   -0.8272   -2.8107 H   0  0  0  0  0  0  0  0  0  0  0  0
   -1.3661    1.1213   -3.6213 N   0  3  0  0  0  0  0  0  0  0  0  0
   -1.7324    1.9713   -3.1932 H   0  0  0  0  0  0  0  0  0  0  0  0
   -1.3585    1.0121   -4.9182 C   0  0  0  0  0  0  0  0  0  0  0  0
   -0.9074   -0.1262   -5.5473 N   0  0  0  0  0  0  0  0  0  0  0  0
   -0.7238   -0.9465   -4.9729 H   0  0  0  0  0  0  0  0  0  0  0  0
   -1.1410   -0.2694   -6.5277 H   0  0  0  0  0  0  0  0  0  0  0  0
   -1.8157    2.0546   -5.6887 N   0  0  0  0  0  0  0  0  0  0  0  0
   -1.9806    2.9561   -5.2445 H   0  0  0  0  0  0  0  0  0  0  0  0
   -1.6207    2.0432   -6.6882 H   0  0  0  0  0  0  0  0  0  0  0  0
   -1.4457    0.9737    1.6444 C   0  0  0  0  0  0  0  0  0  0  0  0
   -2.4044    1.6523    1.2927 O   0  0  0  0  0  0  0  0  0  0  0  0
   -0.5512    1.4825    2.5677 N   0  0  0  0  0  0  0  0  0  0  0  0
    0.1674    0.8552    2.9214 H   0  0  0  0  0  0  0  0  0  0  0  0
   -0.7243    2.7780    3.2170 C   0  0  0  0  0  0  0  0  0  0  0  0
   -1.6608    2.8019    3.7847 H   0  0  0  0  0  0  0  0  0  0  0  0
    0.1031    2.9686    3.9078 H   0  0  0  0  0  0  0  0  0  0  0  0
   -0.7430    3.5817    2.4735 H   0  0  0  0  0  0  0  0  0  0  0  0
  1  2  1  0  0  0  0
  2  3  1  0  0  0  0
  2  4  1  0  0  0  0
  2  5  1  0  0  0  0
  5  6  2  0  0  0  0
  5  7  1  0  0  0  0
  7  8  1  0  0  0  0
  7  9  1  0  0  0  0
  9 10  1  0  0  0  0
  9 11  1  0  0  0  0
  9 29  1  0  0  0  0
 11 12  1  0  0  0  0
 11 13  1  0  0  0  0
 11 14  1  0  0  0  0
 14 15  1  0  0  0  0
 14 16  1  0  0  0  0
 14 17  1  0  0  0  0
 17 18  1  0  0  0  0
 17 19  1  0  0  0  0
 17 20  1  0  0  0  0
 20 21  1  0  0  0  0
 20 22  2  0  0  0  0
 22 23  1  0  0  0  0
 22 26  1  0  0  0  0
 23 24  1  0  0  0  0
 23 25  1  0  0  0  0
 26 27  1  0  0  0  0
 26 28  1  0  0  0  0
 29 30  2  0  0  0  0
 29 31  1  0  0  0  0
 31 32  1  0  0  0  0
 31 33  1  0  0  0  0
 33 34  1  0  0  0  0
 33 35  1  0  0  0  0
 33 36  1  0  0  0  0
M  CHG  1  20   1
M  END
$$$$

  -OEChem-03222214013D

 36 35  0     1  0  0  0  0  0999 V2000
   -3.9770   -4.1258    2.0456 H   0  0  0  0  0  0  0  0  0  0  0  0
   -4.0652   -3.0801    1.7369 C   0  0  0  0  0  0  0  0  0  0  0  0
   -4.5760   -2.5233    2.5263 H   0  0  0  0  0  0  0  0  0  0  0  0
   -4.6597   -3.0320    0.8217 H   0  0  0  0  0  0  0  0  0  0  0  0
   -2.6894   -2.4905    1.4942 C   0  0  0  0  0  0  0  0  0  0  0  0
   -1.6933   -3.1814    1.6318 O   0  0  0  0  0  0  0  0  0  0  0  0
   -2.5636   -1.1777    1.0844 N   0  0  0  0  0  0  0  0  0  0  0  0
   -3.4147   -0.6166    1.1007 H   0  0  0  0  0  0  0  0  0  0  0  0
   -1.2928   -0.4363    1.0931 C   0  0  1  0  0  0  0  0  0  0  0  0
   -0.6198   -0.9492    1.7896 H   0  0  0  0  0  0  0  0  0  0  0  0
   -0.6251   -0.5313   -0.2982 C   0  0  0  0  0  0  0  0  0  0  0  0
    0.4610   -0.4919   -0.1629 H   0  0  0  0  0  0  0  0  0  0  0  0
   -0.8494   -1.5173   -0.7207 H   0  0  0  0  0  0  0  0  0  0  0  0
   -1.0165    0.5783   -1.2943 C   0  0  0  0  0  0  0  0  0  0  0  0
   -1.9271    1.0852   -0.9644 H   0  0  0  0  0  0  0  0  0  0  0  0
   -0.2161    1.3239   -1.3554 H   0  0  0  0  0  0  0  0  0  0  0  0
   -1.3109   -0.0236   -2.6663 C   0  0  0  0  0  0  0  0  0  0  0  0
   -0.4028   -0.5003   -3.0519 H   0  0  0  0  0  0  0  0  0  0  0  0
   -2.0892   -0.7880   -2.5615 H   0  0  0  0  0  0  0  0  0  0  0  0
   -1.7646    1.0361   -3.5846 N   0  3  0  0  0  0  0  0  0  0  0  0
   -1.9367    1.9558   -3.1792 H   0  0  0  0  0  0  0  0  0  0  0  0
   -1.9885    0.8445   -4.8521 C   0  0  0  0  0  0  0  0  0  0  0  0
   -1.8128   -0.3872   -5.4413 N   0  0  0  0  0  0  0  0  0  0  0  0
   -1.6627   -1.1890   -4.8321 H   0  0  0  0  0  0  0  0  0  0  0  0
   -2.2191   -0.5528   -6.3597 H   0  0  0  0  0  0  0  0  0  0  0  0
   -2.4158    1.8937   -5.6303 N   0  0  0  0  0  0  0  0  0  0  0  0
   -2.3794    2.8357   -5.2450 H   0  0  0  0  0  0  0  0  0  0  0  0
   -2.3862    1.7907   -6.6431 H   0  0  0  0  0  0  0  0  0  0  0  0
   -1.4439    0.9876    1.6718 C   0  0  0  0  0  0  0  0  0  0  0  0
   -2.4341    1.6541    1.3905 O   0  0  0  0  0  0  0  0  0  0  0  0
   -0.5255    1.4819    2.5793 N   0  0  0  0  0  0  0  0  0  0  0  0
    0.2183    0.8579    2.8833 H   0  0  0  0  0  0  0  0  0  0  0  0
   -0.7026    2.7480    3.2834 C   0  0  0  0  0  0  0  0  0  0  0  0
   -1.5960    2.7135    3.9162 H   0  0  0  0  0  0  0  0  0  0  0  0
    0.1640    2.9520    3.9202 H   0  0  0  0  0  0  0  0  0  0  0  0
   -0.8080    3.5737    2.5715 H   0  0  0  0  0  0  0  0  0  0  0  0
  1  2  1  0  0  0  0
  2  3  1  0  0  0  0
  2  4  1  0  0  0  0
  2  5  1  0  0  0  0
  5  6  2  0  0  0  0
  5  7  1  0  0  0  0
  7  8  1  0  0  0  0
  7  9  1  0  0  0  0
  9 10  1  0  0  0  0
  9 11  1  0  0  0  0
  9 29  1  0  0  0  0
 11 12  1  0  0  0  0
 11 13  1  0  0  0  0
 11 14  1  0  0  0  0
 14 15  1  0  0  0  0
 14 16  1  0  0  0  0
 14 17  1  0  0  0  0
 17 18  1  0  0  0  0
 17 19  1  0  0  0  0
 17 20  1  0  0  0  0
 20 21  1  0  0  0  0
 20 22  2  0  0  0  0
 22 23  1  0  0  0  0
 22 26  1  0  0  0  0
 23 24  1  0  0  0  0
 23 25  1  0  0  0  0
 26 27  1  0  0  0  0
 26 28  1  0  0  0  0
 29 30  2  0  0  0  0
 29 31  1  0  0  0  0
 31 32  1  0  0  0  0
 31 33  1  0  0  0  0
 33 34  1  0  0  0  0
 33 35  1  0  0  0  0
 33 36  1  0  0  0  0
M  CHG  1  20   1
M  END
$$$$

  -OEChem-03222214013D

 36 35  0     1  0  0  0  0  0999 V2000
   -3.9718   -4.1351    2.0229 H   0  0  0  0  0  0  0  0  0  0  0  0
   -4.0617   -3.0686    1.7973 C   0  0  0  0  0  0  0  0  0  0  0  0
   -4.5042   -2.5633    2.6593 H   0  0  0  0  0  0  0  0  0  0  0  0
   -4.7191   -2.9462    0.9336 H   0  0  0  0  0  0  0  0  0  0  0  0
   -2.6953   -2.4823    1.4999 C   0  0  0  0  0  0  0  0  0  0  0  0
   -1.6988   -3.1813    1.5804 O   0  0  0  0  0  0  0  0  0  0  0  0
   -2.5788   -1.1632    1.1073 N   0  0  0  0  0  0  0  0  0  0  0  0
   -3.4247   -0.5980    1.1752 H   0  0  0  0  0  0  0  0  0  0  0  0
   -1.3052   -0.4260    1.0978 C   0  0  1  0  0  0  0  0  0  0  0  0
   -0.6215   -0.9491    1.7765 H   0  0  0  0  0  0  0  0  0  0  0  0
   -0.6636   -0.5154   -0.3071 C   0  0  0  0  0  0  0  0  0  0  0  0
    0.4216   -0.4599   -0.1704 H   0  0  0  0  0  0  0  0  0  0  0  0
   -0.8673   -1.5062   -0.7285 H   0  0  0  0  0  0  0  0  0  0  0  0
   -1.0522    0.5913   -1.3115 C   0  0  0  0  0  0  0  0  0  0  0  0
   -1.7433    1.3130   -0.8722 H   0  0  0  0  0  0  0  0  0  0  0  0
   -0.1520    1.1378   -1.6134 H   0  0  0  0  0  0  0  0  0  0  0  0
   -1.7166   -0.0293   -2.5388 C   0  0  0  0  0  0  0  0  0  0  0  0
   -1.0023   -0.6969   -3.0331 H   0  0  0  0  0  0  0  0  0  0  0  0
   -2.5796   -0.6215   -2.2143 H   0  0  0  0  0  0  0  0  0  0  0  0
   -2.1533    1.0320   -3.4646 N   0  3  0  0  0  0  0  0  0  0  0  0
   -2.1421    1.9881   -3.1105 H   0  0  0  0  0  0  0  0  0  0  0  0
   -2.5971    0.8028   -4.6667 C   0  0  0  0  0  0  0  0  0  0  0  0
   -2.6839   -0.4733   -5.1757 N   0  0  0  0  0  0  0  0  0  0  0  0
   -2.5405   -1.2514   -4.5349 H   0  0  0  0  0  0  0  0  0  0  0  0
   -3.2567   -0.6322   -6.0021 H   0  0  0  0  0  0  0  0  0  0  0  0
   -2.9984    1.8554   -5.4548 N   0  0  0  0  0  0  0  0  0  0  0  0
   -2.7793    2.8036   -5.1550 H   0  0  0  0  0  0  0  0  0  0  0  0
   -3.1457    1.6907   -6.4490 H   0  0  0  0  0  0  0  0  0  0  0  0
   -1.4448    0.9875    1.7036 C   0  0  0  0  0  0  0  0  0  0  0  0
   -2.4508    1.6476    1.4667 O   0  0  0  0  0  0  0  0  0  0  0  0
   -0.5081    1.4693    2.5991 N   0  0  0  0  0  0  0  0  0  0  0  0
    0.2491    0.8460    2.8694 H   0  0  0  0  0  0  0  0  0  0  0  0
   -0.6715    2.7223    3.3298 C   0  0  0  0  0  0  0  0  0  0  0  0
   -1.5289    2.6615    4.0086 H   0  0  0  0  0  0  0  0  0  0  0  0
    0.2241    2.9350    3.9219 H   0  0  0  0  0  0  0  0  0  0  0  0
   -0.8302    3.5557    2.6370 H   0  0  0  0  0  0  0  0  0  0  0  0
  1  2  1  0  0  0  0
  2  3  1  0  0  0  0
  2  4  1  0  0  0  0
  2  5  1  0  0  0  0
  5  6  2  0  0  0  0
  5  7  1  0  0  0  0
  7  8  1  0  0  0  0
  7  9  1  0  0  0  0
  9 10  1  0  0  0  0
  9 11  1  0  0  0  0
  9 29  1  0  0  0  0
 11 12  1  0  0  0  0
 11 13  1  0  0  0  0
 11 14  1  0  0  0  0
 14 15  1  0  0  0  0
 14 16  1  0  0  0  0
 14 17  1  0  0  0  0
 17 18  1  0  0  0  0
 17 19  1  0  0  0  0
 17 20  1  0  0  0  0
 20 21  1  0  0  0  0
 20 22  2  0  0  0  0
 22 23  1  0  0  0  0
 22 26  1  0  0  0  0
 23 24  1  0  0  0  0
 23 25  1  0  0  0  0
 26 27  1  0  0  0  0
 26 28  1  0  0  0  0
 29 30  2  0  0  0  0
 29 31  1  0  0  0  0
 31 32  1  0  0  0  0
 31 33  1  0  0  0  0
 33 34  1  0  0  0  0
 33 35  1  0  0  0  0
 33 36  1  0  0  0  0
M  CHG  1  20   1
M  END
$$$$

  -OEChem-03222214013D

 36 35  0     1  0  0  0  0  0999 V2000
   -3.9569   -4.1029    2.2332 H   0  0  0  0  0  0  0  0  0  0  0  0
   -4.0575   -3.0614    1.9144 C   0  0  0  0  0  0  0  0  0  0  0  0
   -4.5099   -2.4886    2.7276 H   0  0  0  0  0  0  0  0  0  0  0  0
   -4.7119   -3.0218    1.0408 H   0  0  0  0  0  0  0  0  0  0  0  0
   -2.6961   -2.4887    1.5706 C   0  0  0  0  0  0  0  0  0  0  0  0
   -1.7033   -3.1949    1.6297 O   0  0  0  0  0  0  0  0  0  0  0  0
   -2.5812   -1.1736    1.1642 N   0  0  0  0  0  0  0  0  0  0  0  0
   -3.4184   -0.5996    1.2578 H   0  0  0  0  0  0  0  0  0  0  0  0
   -1.3011   -0.4498    1.1103 C   0  0  1  0  0  0  0  0  0  0  0  0
   -0.5937   -0.9735    1.7630 H   0  0  0  0  0  0  0  0  0  0  0  0
   -0.7243   -0.5461   -0.3231 C   0  0  0  0  0  0  0  0  0  0  0  0
    0.3647   -0.4864   -0.2217 H   0  0  0  0  0  0  0  0  0  0  0  0
   -0.9374   -1.5365   -0.7416 H   0  0  0  0  0  0  0  0  0  0  0  0
   -1.1378    0.5634   -1.3131 C   0  0  0  0  0  0  0  0  0  0  0  0
   -1.5264    1.4507   -0.8112 H   0  0  0  0  0  0  0  0  0  0  0  0
   -0.2521    0.8786   -1.8753 H   0  0  0  0  0  0  0  0  0  0  0  0
   -2.1700    0.0179   -2.2963 C   0  0  0  0  0  0  0  0  0  0  0  0
   -1.7155   -0.7886   -2.8817 H   0  0  0  0  0  0  0  0  0  0  0  0
   -3.0141   -0.3960   -1.7328 H   0  0  0  0  0  0  0  0  0  0  0  0
   -2.6400    1.1040   -3.1754 N   0  3  0  0  0  0  0  0  0  0  0  0
   -2.6110    2.0487   -2.7925 H   0  0  0  0  0  0  0  0  0  0  0  0
   -3.1434    0.9130   -4.3603 C   0  0  0  0  0  0  0  0  0  0  0  0
   -3.2709   -0.3460   -4.9017 N   0  0  0  0  0  0  0  0  0  0  0  0
   -3.1260   -1.1433   -4.2856 H   0  0  0  0  0  0  0  0  0  0  0  0
   -3.8777   -0.4701   -5.7096 H   0  0  0  0  0  0  0  0  0  0  0  0
   -3.5670    1.9927   -5.0977 N   0  0  0  0  0  0  0  0  0  0  0  0
   -3.3189    2.9283   -4.7813 H   0  0  0  0  0  0  0  0  0  0  0  0
   -3.7571    1.8591   -6.0892 H   0  0  0  0  0  0  0  0  0  0  0  0
   -1.4251    0.9660    1.7131 C   0  0  0  0  0  0  0  0  0  0  0  0
   -2.4324    1.6292    1.4869 O   0  0  0  0  0  0  0  0  0  0  0  0
   -0.4667    1.4536    2.5816 N   0  0  0  0  0  0  0  0  0  0  0  0
    0.3011    0.8353    2.8335 H   0  0  0  0  0  0  0  0  0  0  0  0
   -0.5996    2.7240    3.2877 C   0  0  0  0  0  0  0  0  0  0  0  0
   -1.5036    2.7282    3.9063 H   0  0  0  0  0  0  0  0  0  0  0  0
    0.2640    2.8879    3.9399 H   0  0  0  0  0  0  0  0  0  0  0  0
   -0.6561    3.5545    2.5761 H   0  0  0  0  0  0  0  0  0  0  0  0
  1  2  1  0  0  0  0
  2  3  1  0  0  0  0
  2  4  1  0  0  0  0
  2  5  1  0  0  0  0
  5  6  2  0  0  0  0
  5  7  1  0  0  0  0
  7  8  1  0  0  0  0
  7  9  1  0  0  0  0
  9 10  1  0  0  0  0
  9 11  1  0  0  0  0
  9 29  1  0  0  0  0
 11 12  1  0  0  0  0
 11 13  1  0  0  0  0
 11 14  1  0  0  0  0
 14 15  1  0  0  0  0
 14 16  1  0  0  0  0
 14 17  1  0  0  0  0
 17 18  1  0  0  0  0
 17 19  1  0  0  0  0
 17 20  1  0  0  0  0
 20 21  1  0  0  0  0
 20 22  2  0  0  0  0
 22 23  1  0  0  0  0
 22 26  1  0  0  0  0
 23 24  1  0  0  0  0
 23 25  1  0  0  0  0
 26 27  1  0  0  0  0
 26 28  1  0  0  0  0
 29 30  2  0  0  0  0
 29 31  1  0  0  0  0
 31 32  1  0  0  0  0
 31 33  1  0  0  0  0
 33 34  1  0  0  0  0
 33 35  1  0  0  0  0
 33 36  1  0  0  0  0
M  CHG  1  20   1
M  END
$$$$

  -OEChem-03222214013D

 36 35  0     1  0  0  0  0  0999 V2000
   -3.9301   -4.0905    2.4685 H   0  0  0  0  0  0  0  0  0  0  0  0
   -4.0412   -3.0645    2.1056 C   0  0  0  0  0  0  0  0  0  0  0  0
   -4.4680   -2.4546    2.9057 H   0  0  0  0  0  0  0  0  0  0  0  0
   -4.7231   -3.0649    1.2524 H   0  0  0  0  0  0  0  0  0  0  0  0
   -2.6915   -2.5098    1.6923 C   0  0  0  0  0  0  0  0  0  0  0  0
   -1.6992   -3.2172    1.7418 O   0  0  0  0  0  0  0  0  0  0  0  0
   -2.5868   -1.2096    1.2370 N   0  0  0  0  0  0  0  0  0  0  0  0
   -3.4156   -0.6275    1.3518 H   0  0  0  0  0  0  0  0  0  0  0  0
   -1.3041   -0.4974    1.1135 C   0  0  1  0  0  0  0  0  0  0  0  0
   -0.5691   -1.0048    1.7489 H   0  0  0  0  0  0  0  0  0  0  0  0
   -0.7938   -0.6179   -0.3439 C   0  0  0  0  0  0  0  0  0  0  0  0
    0.2990   -0.5652   -0.2950 H   0  0  0  0  0  0  0  0  0  0  0  0
   -1.0388   -1.6073   -0.7470 H   0  0  0  0  0  0  0  0  0  0  0  0
   -1.2478    0.4868   -1.3175 C   0  0  0  0  0  0  0  0  0  0  0  0
   -1.3301    1.4614   -0.8314 H   0  0  0  0  0  0  0  0  0  0  0  0
   -0.4888    0.5944   -2.0995 H   0  0  0  0  0  0  0  0  0  0  0  0
   -2.5618    0.0850   -1.9815 C   0  0  0  0  0  0  0  0  0  0  0  0
   -2.3878   -0.7735   -2.6376 H   0  0  0  0  0  0  0  0  0  0  0  0
   -3.2751   -0.2178   -1.2066 H   0  0  0  0  0  0  0  0  0  0  0  0
   -3.1065    1.2353   -2.7259 N   0  3  0  0  0  0  0  0  0  0  0  0
   -3.1573    2.1185   -2.2178 H   0  0  0  0  0  0  0  0  0  0  0  0
   -3.5731    1.1749   -3.9395 C   0  0  0  0  0  0  0  0  0  0  0  0
   -3.5941    0.0016   -4.6591 N   0  0  0  0  0  0  0  0  0  0  0  0
   -3.3980   -0.8642   -4.1612 H   0  0  0  0  0  0  0  0  0  0  0  0
   -4.1759   -0.0481   -5.4928 H   0  0  0  0  0  0  0  0  0  0  0  0
   -4.0654    2.3149   -4.5286 N   0  0  0  0  0  0  0  0  0  0  0  0
   -3.8969    3.2110   -4.0751 H   0  0  0  0  0  0  0  0  0  0  0  0
   -4.2288    2.3116   -5.5338 H   0  0  0  0  0  0  0  0  0  0  0  0
   -1.4150    0.9358    1.6757 C   0  0  0  0  0  0  0  0  0  0  0  0
   -2.4194    1.5986    1.4307 O   0  0  0  0  0  0  0  0  0  0  0  0
   -0.4336    1.4551    2.4986 N   0  0  0  0  0  0  0  0  0  0  0  0
    0.3364    0.8432    2.7591 H   0  0  0  0  0  0  0  0  0  0  0  0
   -0.5427    2.7550    3.1527 C   0  0  0  0  0  0  0  0  0  0  0  0
   -1.4022    2.7728    3.8313 H   0  0  0  0  0  0  0  0  0  0  0  0
    0.3606    2.9631    3.7346 H   0  0  0  0  0  0  0  0  0  0  0  0
   -0.6635    3.5509    2.4102 H   0  0  0  0  0  0  0  0  0  0  0  0
  1  2  1  0  0  0  0
  2  3  1  0  0  0  0
  2  4  1  0  0  0  0
  2  5  1  0  0  0  0
  5  6  2  0  0  0  0
  5  7  1  0  0  0  0
  7  8  1  0  0  0  0
  7  9  1  0  0  0  0
  9 10  1  0  0  0  0
  9 11  1  0  0  0  0
  9 29  1  0  0  0  0
 11 12  1  0  0  0  0
 11 13  1  0  0  0  0
 11 14  1  0  0  0  0
 14 15  1  0  0  0  0
 14 16  1  0  0  0  0
 14 17  1  0  0  0  0
 17 18  1  0  0  0  0
 17 19  1  0  0  0  0
 17 20  1  0  0  0  0
 20 21  1  0  0  0  0
 20 22  2  0  0  0  0
 22 23  1  0  0  0  0
 22 26  1  0  0  0  0
 23 24  1  0  0  0  0
 23 25  1  0  0  0  0
 26 27  1  0  0  0  0
 26 28  1  0  0  0  0
 29 30  2  0  0  0  0
 29 31  1  0  0  0  0
 31 32  1  0  0  0  0
 31 33  1  0  0  0  0
 33 34  1  0  0  0  0
 33 35  1  0  0  0  0
 33 36  1  0  0  0  0
M  CHG  1  20   1
M  END
$$$$

  -OEChem-03222214013D

 36 35  0     1  0  0  0  0  0999 V2000
   -3.9032   -4.1271    2.3311 H   0  0  0  0  0  0  0  0  0  0  0  0
   -4.0120   -3.1306    1.8927 C   0  0  0  0  0  0  0  0  0  0  0  0
   -4.5327   -2.4897    2.6085 H   0  0  0  0  0  0  0  0  0  0  0  0
   -4.6081   -3.2107    0.9810 H   0  0  0  0  0  0  0  0  0  0  0  0
   -2.6471   -2.5515    1.5729 C   0  0  0  0  0  0  0  0  0  0  0  0
   -1.6460   -3.2300    1.7263 O   0  0  0  0  0  0  0  0  0  0  0  0
   -2.5368   -1.2568    1.1023 N   0  0  0  0  0  0  0  0  0  0  0  0
   -3.3824   -0.6916    1.1570 H   0  0  0  0  0  0  0  0  0  0  0  0
   -1.2641   -0.5155    1.0923 C   0  0  1  0  0  0  0  0  0  0  0  0
   -0.5772   -0.9931    1.8002 H   0  0  0  0  0  0  0  0  0  0  0  0
   -0.6118   -0.6144   -0.3095 C   0  0  0  0  0  0  0  0  0  0  0  0
    0.4719   -0.5498   -0.1650 H   0  0  0  0  0  0  0  0  0  0  0  0
   -0.8112   -1.6012   -0.7419 H   0  0  0  0  0  0  0  0  0  0  0  0
   -0.9993    0.4875   -1.3129 C   0  0  0  0  0  0  0  0  0  0  0  0
   -0.9033    1.4808   -0.8639 H   0  0  0  0  0  0  0  0  0  0  0  0
   -0.3007    0.4500   -2.1560 H   0  0  0  0  0  0  0  0  0  0  0  0
   -2.4124    0.2612   -1.8435 C   0  0  0  0  0  0  0  0  0  0  0  0
   -2.4389   -0.6684   -2.4228 H   0  0  0  0  0  0  0  0  0  0  0  0
   -3.0968    0.1645   -0.9937 H   0  0  0  0  0  0  0  0  0  0  0  0
   -2.8142    1.4087   -2.6767 N   0  3  0  0  0  0  0  0  0  0  0  0
   -2.1862    2.2110   -2.6886 H   0  0  0  0  0  0  0  0  0  0  0  0
   -3.9570    1.4881   -3.2927 C   0  0  0  0  0  0  0  0  0  0  0  0
   -4.8763    0.4658   -3.2465 N   0  0  0  0  0  0  0  0  0  0  0  0
   -4.7091   -0.2859   -2.5813 H   0  0  0  0  0  0  0  0  0  0  0  0
   -5.8388    0.6670   -3.5090 H   0  0  0  0  0  0  0  0  0  0  0  0
   -4.2648    2.6203   -4.0085 N   0  0  0  0  0  0  0  0  0  0  0  0
   -3.5312    3.3049   -4.1812 H   0  0  0  0  0  0  0  0  0  0  0  0
   -5.0517    2.5891   -4.6540 H   0  0  0  0  0  0  0  0  0  0  0  0
   -1.4784    0.9202    1.6144 C   0  0  0  0  0  0  0  0  0  0  0  0
   -2.4709    1.5454    1.2492 O   0  0  0  0  0  0  0  0  0  0  0  0
   -0.6044    1.4839    2.5240 N   0  0  0  0  0  0  0  0  0  0  0  0
    0.1541    0.9020    2.8730 H   0  0  0  0  0  0  0  0  0  0  0  0
   -0.8259    2.7851    3.1458 C   0  0  0  0  0  0  0  0  0  0  0  0
   -1.7650    2.7870    3.7096 H   0  0  0  0  0  0  0  0  0  0  0  0
   -0.0092    3.0186    3.8363 H   0  0  0  0  0  0  0  0  0  0  0  0
   -0.8697    3.5725    2.3860 H   0  0  0  0  0  0  0  0  0  0  0  0
  1  2  1  0  0  0  0
  2  3  1  0  0  0  0
  2  4  1  0  0  0  0
  2  5  1  0  0  0  0
  5  6  2  0  0  0  0
  5  7  1  0  0  0  0
  7  8  1  0  0  0  0
  7  9  1  0  0  0  0
  9 10  1  0  0  0  0
  9 11  1  0  0  0  0
  9 29  1  0  0  0  0
 11 12  1  0  0  0  0
 11 13  1  0  0  0  0
 11 14  1  0  0  0  0
 14 15  1  0  0  0  0
 14 16  1  0  0  0  0
 14 17  1  0  0  0  0
 17 18  1  0  0  0  0
 17 19  1  0  0  0  0
 17 20  1  0  0  0  0
 20 21  1  0  0  0  0
 20 22  2  0  0  0  0
 22 23  1  0  0  0  0
 22 26  1  0  0  0  0
 23 24  1  0  0  0  0
 23 25  1  0  0  0  0
 26 27  1  0  0  0  0
 26 28  1  0  0  0  0
 29 30  2  0  0  0  0
 29 31  1  0  0  0  0
 31 32  1  0  0  0  0
 31 33  1  0  0  0  0
 33 34  1  0  0  0  0
 33 35  1  0  0  0  0
 33 36  1  0  0  0  0
M  CHG  1  20   1
M  END
$$$$

  -OEChem-03222214013D

 36 35  0     1  0  0  0  0  0999 V2000
   -3.4440   -4.5504    2.1700 H   0  0  0  0  0  0  0  0  0  0  0  0
   -3.7018   -3.5568    1.7916 C   0  0  0  0  0  0  0  0  0  0  0  0
   -4.3640   -3.0692    2.5110 H   0  0  0  0  0  0  0  0  0  0  0  0
   -4.2267   -3.6706    0.8403 H   0  0  0  0  0  0  0  0  0  0  0  0
   -2.4444   -2.7309    1.5984 C   0  0  0  0  0  0  0  0  0  0  0  0
   -1.3579   -3.1947    1.8991 O   0  0  0  0  0  0  0  0  0  0  0  0
   -2.5266   -1.4556    1.0704 N   0  0  0  0  0  0  0  0  0  0  0  0
   -3.4642   -1.0718    0.9784 H   0  0  0  0  0  0  0  0  0  0  0  0
   -1.4025   -0.5021    1.0729 C   0  0  1  0  0  0  0  0  0  0  0  0
   -0.6926   -0.8299    1.8410 H   0  0  0  0  0  0  0  0  0  0  0  0
   -0.6438   -0.5722   -0.2753 C   0  0  0  0  0  0  0  0  0  0  0  0
    0.4051   -0.3245   -0.0799 H   0  0  0  0  0  0  0  0  0  0  0  0
   -0.6597   -1.6048   -0.6417 H   0  0  0  0  0  0  0  0  0  0  0  0
   -1.1374    0.3693   -1.3892 C   0  0  0  0  0  0  0  0  0  0  0  0
   -1.0208    1.4112   -1.0731 H   0  0  0  0  0  0  0  0  0  0  0  0
   -0.5088    0.2256   -2.2745 H   0  0  0  0  0  0  0  0  0  0  0  0
   -2.5977    0.0946   -1.7558 C   0  0  0  0  0  0  0  0  0  0  0  0
   -2.6835   -0.9273   -2.1413 H   0  0  0  0  0  0  0  0  0  0  0  0
   -3.2289    0.1576   -0.8650 H   0  0  0  0  0  0  0  0  0  0  0  0
   -3.0566    1.0538   -2.7780 N   0  3  0  0  0  0  0  0  0  0  0  0
   -2.7717    0.8715   -3.7391 H   0  0  0  0  0  0  0  0  0  0  0  0
   -3.8135    2.0840   -2.5249 C   0  0  0  0  0  0  0  0  0  0  0  0
   -4.2208    2.4096   -1.2524 N   0  0  0  0  0  0  0  0  0  0  0  0
   -3.7404    1.9556   -0.4679 H   0  0  0  0  0  0  0  0  0  0  0  0
   -4.5939    3.3402   -1.0863 H   0  0  0  0  0  0  0  0  0  0  0  0
   -4.2282    2.8840   -3.5628 N   0  0  0  0  0  0  0  0  0  0  0  0
   -4.1019    2.5492   -4.5156 H   0  0  0  0  0  0  0  0  0  0  0  0
   -4.9816    3.5464   -3.3876 H   0  0  0  0  0  0  0  0  0  0  0  0
   -1.8242    0.9183    1.5049 C   0  0  0  0  0  0  0  0  0  0  0  0
   -2.8518    1.4173    1.0496 O   0  0  0  0  0  0  0  0  0  0  0  0
   -1.0608    1.6362    2.4050 N   0  0  0  0  0  0  0  0  0  0  0  0
   -0.2585    1.1658    2.8200 H   0  0  0  0  0  0  0  0  0  0  0  0
   -1.4433    2.9431    2.9289 C   0  0  0  0  0  0  0  0  0  0  0  0
   -2.4114    2.8856    3.4378 H   0  0  0  0  0  0  0  0  0  0  0  0
   -0.6972    3.2939    3.6490 H   0  0  0  0  0  0  0  0  0  0  0  0
   -1.5117    3.6777    2.1199 H   0  0  0  0  0  0  0  0  0  0  0  0
  1  2  1  0  0  0  0
  2  3  1  0  0  0  0
  2  4  1  0  0  0  0
  2  5  1  0  0  0  0
  5  6  2  0  0  0  0
  5  7  1  0  0  0  0
  7  8  1  0  0  0  0
  7  9  1  0  0  0  0
  9 10  1  0  0  0  0
  9 11  1  0  0  0  0
  9 29  1  0  0  0  0
 11 12  1  0  0  0  0
 11 13  1  0  0  0  0
 11 14  1  0  0  0  0
 14 15  1  0  0  0  0
 14 16  1  0  0  0  0
 14 17  1  0  0  0  0
 17 18  1  0  0  0  0
 17 19  1  0  0  0  0
 17 20  1  0  0  0  0
 20 21  1  0  0  0  0
 20 22  2  0  0  0  0
 22 23  1  0  0  0  0
 22 26  1  0  0  0  0
 23 24  1  0  0  0  0
 23 25  1  0  0  0  0
 26 27  1  0  0  0  0
 26 28  1  0  0  0  0
 29 30  2  0  0  0  0
 29 31  1  0  0  0  0
 31 32  1  0  0  0  0
 31 33  1  0  0  0  0
 33 34  1  0  0  0  0
 33 35  1  0  0  0  0
 33 36  1  0  0  0  0
M  CHG  1  20   1
M  END
$$$$

  -OEChem-03222214013D

 36 35  0     1  0  0  0  0  0999 V2000
   -3.4030   -4.5936    2.1169 H   0  0  0  0  0  0  0  0  0  0  0  0
   -3.6903   -3.5775    1.8311 C   0  0  0  0  0  0  0  0  0  0  0  0
   -4.3046   -3.1502    2.6273 H   0  0  0  0  0  0  0  0  0  0  0  0
   -4.2773   -3.6260    0.9111 H   0  0  0  0  0  0  0  0  0  0  0  0
   -2.4529   -2.7272    1.6153 C   0  0  0  0  0  0  0  0  0  0  0  0
   -1.3479   -3.1895    1.8433 O   0  0  0  0  0  0  0  0  0  0  0  0
   -2.5751   -1.4317    1.1459 N   0  0  0  0  0  0  0  0  0  0  0  0
   -3.5211   -1.0601    1.1030 H   0  0  0  0  0  0  0  0  0  0  0  0
   -1.4628   -0.4649    1.1148 C   0  0  1  0  0  0  0  0  0  0  0  0
   -0.7373   -0.8191    1.8557 H   0  0  0  0  0  0  0  0  0  0  0  0
   -0.7070   -0.5199   -0.2357 C   0  0  0  0  0  0  0  0  0  0  0  0
    0.3428   -0.2710   -0.0462 H   0  0  0  0  0  0  0  0  0  0  0  0
   -0.7221   -1.5552   -0.5942 H   0  0  0  0  0  0  0  0  0  0  0  0
   -1.2006    0.3966   -1.3728 C   0  0  0  0  0  0  0  0  0  0  0  0
   -0.8811    1.4198   -1.1466 H   0  0  0  0  0  0  0  0  0  0  0  0
   -0.7151    0.1004   -2.3087 H   0  0  0  0  0  0  0  0  0  0  0  0
   -2.7228    0.3899   -1.5548 C   0  0  0  0  0  0  0  0  0  0  0  0
   -3.0243   -0.5833   -1.9580 H   0  0  0  0  0  0  0  0  0  0  0  0
   -3.2322    0.5043   -0.5983 H   0  0  0  0  0  0  0  0  0  0  0  0
   -3.1245    1.4605   -2.4873 N   0  3  0  0  0  0  0  0  0  0  0  0
   -2.8337    1.3554   -3.4581 H   0  0  0  0  0  0  0  0  0  0  0  0
   -3.8373    2.4983   -2.1499 C   0  0  0  0  0  0  0  0  0  0  0  0
   -4.2618    2.7220   -0.8611 N   0  0  0  0  0  0  0  0  0  0  0  0
   -3.8141    2.1807   -0.1135 H   0  0  0  0  0  0  0  0  0  0  0  0
   -4.6044    3.6471   -0.6167 H   0  0  0  0  0  0  0  0  0  0  0  0
   -4.1867    3.4130   -3.1145 N   0  0  0  0  0  0  0  0  0  0  0  0
   -4.0470    3.1685   -4.0926 H   0  0  0  0  0  0  0  0  0  0  0  0
   -4.9096    4.0946   -2.8921 H   0  0  0  0  0  0  0  0  0  0  0  0
   -1.8129    0.9529    1.6192 C   0  0  0  0  0  0  0  0  0  0  0  0
   -2.8719    1.4876    1.3008 O   0  0  0  0  0  0  0  0  0  0  0  0
   -0.9598    1.6166    2.4804 N   0  0  0  0  0  0  0  0  0  0  0  0
   -0.1365    1.1125    2.8047 H   0  0  0  0  0  0  0  0  0  0  0  0
   -1.2739    2.8981    3.1039 C   0  0  0  0  0  0  0  0  0  0  0  0
   -2.1500    2.8040    3.7544 H   0  0  0  0  0  0  0  0  0  0  0  0
   -0.4290    3.2399    3.7104 H   0  0  0  0  0  0  0  0  0  0  0  0
   -1.4784    3.6588    2.3432 H   0  0  0  0  0  0  0  0  0  0  0  0
  1  2  1  0  0  0  0
  2  3  1  0  0  0  0
  2  4  1  0  0  0  0
  2  5  1  0  0  0  0
  5  6  2  0  0  0  0
  5  7  1  0  0  0  0
  7  8  1  0  0  0  0
  7  9  1  0  0  0  0
  9 10  1  0  0  0  0
  9 11  1  0  0  0  0
  9 29  1  0  0  0  0
 11 12  1  0  0  0  0
 11 13  1  0  0  0  0
 11 14  1  0  0  0  0
 14 15  1  0  0  0  0
 14 16  1  0  0  0  0
 14 17  1  0  0  0  0
 17 18  1  0  0  0  0
 17 19  1  0  0  0  0
 17 20  1  0  0  0  0
 20 21  1  0  0  0  0
 20 22  2  0  0  0  0
 22 23  1  0  0  0  0
 22 26  1  0  0  0  0
 23 24  1  0  0  0  0
 23 25  1  0  0  0  0
 26 27  1  0  0  0  0
 26 28  1  0  0  0  0
 29 30  2  0  0  0  0
 29 31  1  0  0  0  0
 31 32  1  0  0  0  0
 31 33  1  0  0  0  0
 33 34  1  0  0  0  0
 33 35  1  0  0  0  0
 33 36  1  0  0  0  0
M  CHG  1  20   1
M  END
$$$$

  -OEChem-03222214013D

 36 35  0     1  0  0  0  0  0999 V2000
   -3.3665   -4.5718    2.1996 H   0  0  0  0  0  0  0  0  0  0  0  0
   -3.6731   -3.5763    1.8653 C   0  0  0  0  0  0  0  0  0  0  0  0
   -4.3111   -3.1308    2.6324 H   0  0  0  0  0  0  0  0  0  0  0  0
   -4.2429   -3.6776    0.9386 H   0  0  0  0  0  0  0  0  0  0  0  0
   -2.4528   -2.7060    1.6323 C   0  0  0  0  0  0  0  0  0  0  0  0
   -1.3351   -3.1632    1.8021 O   0  0  0  0  0  0  0  0  0  0  0  0
   -2.6075   -1.3954    1.2180 N   0  0  0  0  0  0  0  0  0  0  0  0
   -3.5598   -1.0378    1.2154 H   0  0  0  0  0  0  0  0  0  0  0  0
   -1.5123   -0.4110    1.1708 C   0  0  1  0  0  0  0  0  0  0  0  0
   -0.7819   -0.7808    1.8993 H   0  0  0  0  0  0  0  0  0  0  0  0
   -0.7387   -0.4616   -0.1712 C   0  0  0  0  0  0  0  0  0  0  0  0
    0.3062   -0.2041    0.0329 H   0  0  0  0  0  0  0  0  0  0  0  0
   -0.7377   -1.5039   -0.5094 H   0  0  0  0  0  0  0  0  0  0  0  0
   -1.2059    0.4151   -1.3549 C   0  0  0  0  0  0  0  0  0  0  0  0
   -0.6894    1.3765   -1.2591 H   0  0  0  0  0  0  0  0  0  0  0  0
   -0.8767   -0.0387   -2.2960 H   0  0  0  0  0  0  0  0  0  0  0  0
   -2.7113    0.6982   -1.4160 C   0  0  0  0  0  0  0  0  0  0  0  0
   -3.1277    0.8252   -0.4228 H   0  0  0  0  0  0  0  0  0  0  0  0
   -3.2104   -0.1746   -1.8513 H   0  0  0  0  0  0  0  0  0  0  0  0
   -2.9829    1.8888   -2.2437 N   0  3  0  0  0  0  0  0  0  0  0  0
   -2.6430    1.8678   -3.2039 H   0  0  0  0  0  0  0  0  0  0  0  0
   -3.6674    2.9203   -1.8352 C   0  0  0  0  0  0  0  0  0  0  0  0
   -4.1589    3.0282   -0.5546 N   0  0  0  0  0  0  0  0  0  0  0  0
   -3.7818    2.3912    0.1556 H   0  0  0  0  0  0  0  0  0  0  0  0
   -4.4756    3.9386   -0.2326 H   0  0  0  0  0  0  0  0  0  0  0  0
   -3.9176    3.9488   -2.7122 N   0  0  0  0  0  0  0  0  0  0  0  0
   -3.7349    3.8009   -3.7024 H   0  0  0  0  0  0  0  0  0  0  0  0
   -4.6206    4.6393   -2.4558 H   0  0  0  0  0  0  0  0  0  0  0  0
   -1.8279    0.9941    1.7359 C   0  0  0  0  0  0  0  0  0  0  0  0
   -2.9170    1.5282    1.5435 O   0  0  0  0  0  0  0  0  0  0  0  0
   -0.9210    1.6217    2.5695 N   0  0  0  0  0  0  0  0  0  0  0  0
   -0.0783    1.1048    2.8137 H   0  0  0  0  0  0  0  0  0  0  0  0
   -1.2064    2.8547    3.2966 C   0  0  0  0  0  0  0  0  0  0  0  0
   -2.0415    2.7078    3.9899 H   0  0  0  0  0  0  0  0  0  0  0  0
   -0.3295    3.1639    3.8746 H   0  0  0  0  0  0  0  0  0  0  0  0
   -1.4612    3.6625    2.6030 H   0  0  0  0  0  0  0  0  0  0  0  0
  1  2  1  0  0  0  0
  2  3  1  0  0  0  0
  2  4  1  0  0  0  0
  2  5  1  0  0  0  0
  5  6  2  0  0  0  0
  5  7  1  0  0  0  0
  7  8  1  0  0  0  0
  7  9  1  0  0  0  0
  9 10  1  0  0  0  0
  9 11  1  0  0  0  0
  9 29  1  0  0  0  0
 11 12  1  0  0  0  0
 11 13  1  0  0  0  0
 11 14  1  0  0  0  0
 14 15  1  0  0  0  0
 14 16  1  0  0  0  0
 14 17  1  0  0  0  0
 17 18  1  0  0  0  0
 17 19  1  0  0  0  0
 17 20  1  0  0  0  0
 20 21  1  0  0  0  0
 20 22  2  0  0  0  0
 22 23  1  0  0  0  0
 22 26  1  0  0  0  0
 23 24  1  0  0  0  0
 23 25  1  0  0  0  0
 26 27  1  0  0  0  0
 26 28  1  0  0  0  0
 29 30  2  0  0  0  0
 29 31  1  0  0  0  0
 31 32  1  0  0  0  0
 31 33  1  0  0  0  0
 33 34  1  0  0  0  0
 33 35  1  0  0  0  0
 33 36  1  0  0  0  0
M  CHG  1  20   1
M  END
$$$$

  -OEChem-03222214013D

 36 35  0     1  0  0  0  0  0999 V2000
   -3.3536   -4.6475    1.9483 H   0  0  0  0  0  0  0  0  0  0  0  0
   -3.6773   -3.6335    1.6956 C   0  0  0  0  0  0  0  0  0  0  0  0
   -4.3394   -3.2696    2.4849 H   0  0  0  0  0  0  0  0  0  0  0  0
   -4.2275   -3.6665    0.7524 H   0  0  0  0  0  0  0  0  0  0  0  0
   -2.4740   -2.7198    1.5648 C   0  0  0  0  0  0  0  0  0  0  0  0
   -1.3525   -3.1545    1.7671 O   0  0  0  0  0  0  0  0  0  0  0  0
   -2.6472   -1.3949    1.2067 N   0  0  0  0  0  0  0  0  0  0  0  0
   -3.6085   -1.0637    1.1628 H   0  0  0  0  0  0  0  0  0  0  0  0
   -1.5779   -0.3818    1.2300 C   0  0  1  0  0  0  0  0  0  0  0  0
   -0.8760   -0.7635    1.9805 H   0  0  0  0  0  0  0  0  0  0  0  0
   -0.7282   -0.3972   -0.0694 C   0  0  0  0  0  0  0  0  0  0  0  0
    0.2942   -0.1178    0.2079 H   0  0  0  0  0  0  0  0  0  0  0  0
   -0.6752   -1.4383   -0.4067 H   0  0  0  0  0  0  0  0  0  0  0  0
   -1.1121    0.4638   -1.3005 C   0  0  0  0  0  0  0  0  0  0  0  0
   -0.4072    1.3022   -1.3200 H   0  0  0  0  0  0  0  0  0  0  0  0
   -0.9372   -0.1178   -2.2123 H   0  0  0  0  0  0  0  0  0  0  0  0
   -2.5299    1.0445   -1.3440 C   0  0  0  0  0  0  0  0  0  0  0  0
   -2.9520    1.1041   -0.3509 H   0  0  0  0  0  0  0  0  0  0  0  0
   -3.1665    0.3544   -1.9083 H   0  0  0  0  0  0  0  0  0  0  0  0
   -2.5510    2.3707   -1.9900 N   0  3  0  0  0  0  0  0  0  0  0  0
   -2.0748    2.4546   -2.8867 H   0  0  0  0  0  0  0  0  0  0  0  0
   -3.2025    3.3968   -1.5185 C   0  0  0  0  0  0  0  0  0  0  0  0
   -3.8794    3.3626   -0.3207 N   0  0  0  0  0  0  0  0  0  0  0  0
   -3.6758    2.5884    0.3208 H   0  0  0  0  0  0  0  0  0  0  0  0
   -4.1653    4.2429    0.0991 H   0  0  0  0  0  0  0  0  0  0  0  0
   -3.2268    4.5656   -2.2415 N   0  0  0  0  0  0  0  0  0  0  0  0
   -2.9020    4.5482   -3.2060 H   0  0  0  0  0  0  0  0  0  0  0  0
   -3.9101    5.2750   -1.9832 H   0  0  0  0  0  0  0  0  0  0  0  0
   -1.9364    0.9909    1.8480 C   0  0  0  0  0  0  0  0  0  0  0  0
   -3.0453    1.4939    1.6858 O   0  0  0  0  0  0  0  0  0  0  0  0
   -1.0611    1.6007    2.7282 N   0  0  0  0  0  0  0  0  0  0  0  0
   -0.2127    1.0898    2.9663 H   0  0  0  0  0  0  0  0  0  0  0  0
   -1.4089    2.7653    3.5370 C   0  0  0  0  0  0  0  0  0  0  0  0
   -2.2159    2.5204    4.2359 H   0  0  0  0  0  0  0  0  0  0  0  0
   -0.5409    3.0966    4.1158 H   0  0  0  0  0  0  0  0  0  0  0  0
   -1.7322    3.5958    2.9011 H   0  0  0  0  0  0  0  0  0  0  0  0
  1  2  1  0  0  0  0
  2  3  1  0  0  0  0
  2  4  1  0  0  0  0
  2  5  1  0  0  0  0
  5  6  2  0  0  0  0
  5  7  1  0  0  0  0
  7  8  1  0  0  0  0
  7  9  1  0  0  0  0
  9 10  1  0  0  0  0
  9 11  1  0  0  0  0
  9 29  1  0  0  0  0
 11 12  1  0  0  0  0
 11 13  1  0  0  0  0
 11 14  1  0  0  0  0
 14 15  1  0  0  0  0
 14 16  1  0  0  0  0
 14 17  1  0  0  0  0
 17 18  1  0  0  0  0
 17 19  1  0  0  0  0
 17 20  1  0  0  0  0
 20 21  1  0  0  0  0
 20 22  2  0  0  0  0
 22 23  1  0  0  0  0
 22 26  1  0  0  0  0
 23 24  1  0  0  0  0
 23 25  1  0  0  0  0
 26 27  1  0  0  0  0
 26 28  1  0  0  0  0
 29 30  2  0  0  0  0
 29 31  1  0  0  0  0
 31 32  1  0  0  0  0
 31 33  1  0  0  0  0
 33 34  1  0  0  0  0
 33 35  1  0  0  0  0
 33 36  1  0  0  0  0
M  CHG  1  20   1
M  END
$$$$

  -OEChem-03222214013D

 36 35  0     1  0  0  0  0  0999 V2000
   -3.8456   -4.2678    1.9053 H   0  0  0  0  0  0  0  0  0  0  0  0
   -3.9874   -3.2045    1.6911 C   0  0  0  0  0  0  0  0  0  0  0  0
   -4.5058   -2.7436    2.5352 H   0  0  0  0  0  0  0  0  0  0  0  0
   -4.6031   -3.1061    0.7942 H   0  0  0  0  0  0  0  0  0  0  0  0
   -2.6447   -2.5335    1.4756 C   0  0  0  0  0  0  0  0  0  0  0  0
   -1.6204   -3.1948    1.5019 O   0  0  0  0  0  0  0  0  0  0  0  0
   -2.5807   -1.1718    1.2442 N   0  0  0  0  0  0  0  0  0  0  0  0
   -3.4483   -0.6539    1.3672 H   0  0  0  0  0  0  0  0  0  0  0  0
   -1.3283   -0.3973    1.2399 C   0  0  1  0  0  0  0  0  0  0  0  0
   -0.6217   -0.9718    1.8503 H   0  0  0  0  0  0  0  0  0  0  0  0
   -0.6931   -0.4128   -0.1880 C   0  0  0  0  0  0  0  0  0  0  0  0
    0.3904   -0.3537   -0.0388 H   0  0  0  0  0  0  0  0  0  0  0  0
   -0.8816   -1.3967   -0.6318 H   0  0  0  0  0  0  0  0  0  0  0  0
   -1.0401    0.6639   -1.2521 C   0  0  0  0  0  0  0  0  0  0  0  0
   -0.1195    1.1630   -1.5736 H   0  0  0  0  0  0  0  0  0  0  0  0
   -1.4575    0.1533   -2.1265 H   0  0  0  0  0  0  0  0  0  0  0  0
   -2.0330    1.7074   -0.7811 C   0  0  0  0  0  0  0  0  0  0  0  0
   -2.8912    1.1859   -0.3428 H   0  0  0  0  0  0  0  0  0  0  0  0
   -1.5470    2.3014   -0.0011 H   0  0  0  0  0  0  0  0  0  0  0  0
   -2.5177    2.6293   -1.8152 N   0  3  0  0  0  0  0  0  0  0  0  0
   -2.1555    2.5334   -2.7628 H   0  0  0  0  0  0  0  0  0  0  0  0
   -3.3499    3.5830   -1.5074 C   0  0  0  0  0  0  0  0  0  0  0  0
   -3.8175    3.7318   -0.2166 N   0  0  0  0  0  0  0  0  0  0  0  0
   -3.4095    3.1449    0.5177 H   0  0  0  0  0  0  0  0  0  0  0  0
   -4.2527    4.6093    0.0571 H   0  0  0  0  0  0  0  0  0  0  0  0
   -3.7713    4.4643   -2.4740 N   0  0  0  0  0  0  0  0  0  0  0  0
   -3.5851    4.2431   -3.4501 H   0  0  0  0  0  0  0  0  0  0  0  0
   -4.5633    5.0688   -2.2639 H   0  0  0  0  0  0  0  0  0  0  0  0
   -1.4339    0.9357    2.0235 C   0  0  0  0  0  0  0  0  0  0  0  0
   -2.4641    1.6107    1.9796 O   0  0  0  0  0  0  0  0  0  0  0  0
   -0.4276    1.3129    2.8927 N   0  0  0  0  0  0  0  0  0  0  0  0
    0.3492    0.6663    3.0169 H   0  0  0  0  0  0  0  0  0  0  0  0
   -0.5352    2.4455    3.8069 C   0  0  0  0  0  0  0  0  0  0  0  0
   -1.3479    2.2852    4.5235 H   0  0  0  0  0  0  0  0  0  0  0  0
    0.3979    2.5703    4.3654 H   0  0  0  0  0  0  0  0  0  0  0  0
   -0.7296    3.3706    3.2546 H   0  0  0  0  0  0  0  0  0  0  0  0
  1  2  1  0  0  0  0
  2  3  1  0  0  0  0
  2  4  1  0  0  0  0
  2  5  1  0  0  0  0
  5  6  2  0  0  0  0
  5  7  1  0  0  0  0
  7  8  1  0  0  0  0
  7  9  1  0  0  0  0
  9 10  1  0  0  0  0
  9 11  1  0  0  0  0
  9 29  1  0  0  0  0
 11 12  1  0  0  0  0
 11 13  1  0  0  0  0
 11 14  1  0  0  0  0
 14 15  1  0  0  0  0
 14 16  1  0  0  0  0
 14 17  1  0  0  0  0
 17 18  1  0  0  0  0
 17 19  1  0  0  0  0
 17 20  1  0  0  0  0
 20 21  1  0  0  0  0
 20 22  2  0  0  0  0
 22 23  1  0  0  0  0
 22 26  1  0  0  0  0
 23 24  1  0  0  0  0
 23 25  1  0  0  0  0
 26 27  1  0  0  0  0
 26 28  1  0  0  0  0
 29 30  2  0  0  0  0
 29 31  1  0  0  0  0
 31 32  1  0  0  0  0
 31 33  1  0  0  0  0
 33 34  1  0  0  0  0
 33 35  1  0  0  0  0
 33 36  1  0  0  0  0
M  CHG  1  20   1
M  END
$$$$

  -OEChem-03222214013D

 36 35  0     1  0  0  0  0  0999 V2000
   -3.8414   -4.2489    1.9366 H   0  0  0  0  0  0  0  0  0  0  0  0
   -3.9814   -3.1842    1.7281 C   0  0  0  0  0  0  0  0  0  0  0  0
   -4.4869   -2.7246    2.5807 H   0  0  0  0  0  0  0  0  0  0  0  0
   -4.6084   -3.0798    0.8396 H   0  0  0  0  0  0  0  0  0  0  0  0
   -2.6387   -2.5172    1.4986 C   0  0  0  0  0  0  0  0  0  0  0  0
   -1.6169   -3.1832    1.5073 O   0  0  0  0  0  0  0  0  0  0  0  0
   -2.5711   -1.1532    1.2802 N   0  0  0  0  0  0  0  0  0  0  0  0
   -3.4374   -0.6326    1.4020 H   0  0  0  0  0  0  0  0  0  0  0  0
   -1.3166   -0.3830    1.2549 C   0  0  1  0  0  0  0  0  0  0  0  0
   -0.6048   -0.9666    1.8497 H   0  0  0  0  0  0  0  0  0  0  0  0
   -0.7047   -0.4082   -0.1830 C   0  0  0  0  0  0  0  0  0  0  0  0
    0.3784   -0.3311   -0.0391 H   0  0  0  0  0  0  0  0  0  0  0  0
   -0.8814   -1.3976   -0.6193 H   0  0  0  0  0  0  0  0  0  0  0  0
   -1.0621    0.6604   -1.2512 C   0  0  0  0  0  0  0  0  0  0  0  0
   -0.1513    0.9466   -1.7880 H   0  0  0  0  0  0  0  0  0  0  0  0
   -1.7378    0.1949   -1.9768 H   0  0  0  0  0  0  0  0  0  0  0  0
   -1.7430    1.8992   -0.7070 C   0  0  0  0  0  0  0  0  0  0  0  0
   -2.6472    1.5686   -0.1862 H   0  0  0  0  0  0  0  0  0  0  0  0
   -1.0726    2.3778    0.0151 H   0  0  0  0  0  0  0  0  0  0  0  0
   -2.1392    2.8891   -1.7164 N   0  3  0  0  0  0  0  0  0  0  0  0
   -1.8768    2.7263   -2.6875 H   0  0  0  0  0  0  0  0  0  0  0  0
   -2.8453    3.9301   -1.3779 C   0  0  0  0  0  0  0  0  0  0  0  0
   -3.2215    4.1387   -0.0659 N   0  0  0  0  0  0  0  0  0  0  0  0
   -3.0428    3.3912    0.6117 H   0  0  0  0  0  0  0  0  0  0  0  0
   -3.9691    4.7981    0.1366 H   0  0  0  0  0  0  0  0  0  0  0  0
   -3.2294    4.8404   -2.3335 N   0  0  0  0  0  0  0  0  0  0  0  0
   -2.8051    4.7868   -3.2573 H   0  0  0  0  0  0  0  0  0  0  0  0
   -3.5891    5.7417   -2.0247 H   0  0  0  0  0  0  0  0  0  0  0  0
   -1.3860    0.9449    2.0513 C   0  0  0  0  0  0  0  0  0  0  0  0
   -2.3952    1.6500    2.0222 O   0  0  0  0  0  0  0  0  0  0  0  0
   -0.3502    1.3008    2.8950 N   0  0  0  0  0  0  0  0  0  0  0  0
    0.4101    0.6325    3.0048 H   0  0  0  0  0  0  0  0  0  0  0  0
   -0.4207    2.4202    3.8292 C   0  0  0  0  0  0  0  0  0  0  0  0
   -1.2145    2.2559    4.5658 H   0  0  0  0  0  0  0  0  0  0  0  0
    0.5289    2.5271    4.3635 H   0  0  0  0  0  0  0  0  0  0  0  0
   -0.6215    3.3562    3.2976 H   0  0  0  0  0  0  0  0  0  0  0  0
  1  2  1  0  0  0  0
  2  3  1  0  0  0  0
  2  4  1  0  0  0  0
  2  5  1  0  0  0  0
  5  6  2  0  0  0  0
  5  7  1  0  0  0  0
  7  8  1  0  0  0  0
  7  9  1  0  0  0  0
  9 10  1  0  0  0  0
  9 11  1  0  0  0  0
  9 29  1  0  0  0  0
 11 12  1  0  0  0  0
 11 13  1  0  0  0  0
 11 14  1  0  0  0  0
 14 15  1  0  0  0  0
 14 16  1  0  0  0  0
 14 17  1  0  0  0  0
 17 18  1  0  0  0  0
 17 19  1  0  0  0  0
 17 20  1  0  0  0  0
 20 21  1  0  0  0  0
 20 22  2  0  0  0  0
 22 23  1  0  0  0  0
 22 26  1  0  0  0  0
 23 24  1  0  0  0  0
 23 25  1  0  0  0  0
 26 27  1  0  0  0  0
 26 28  1  0  0  0  0
 29 30  2  0  0  0  0
 29 31  1  0  0  0  0
 31 32  1  0  0  0  0
 31 33  1  0  0  0  0
 33 34  1  0  0  0  0
 33 35  1  0  0  0  0
 33 36  1  0  0  0  0
M  CHG  1  20   1
M  END
$$$$

  -OEChem-03222214013D

 36 35  0     1  0  0  0  0  0999 V2000
   -4.5257   -3.5252    1.8434 H   0  0  0  0  0  0  0  0  0  0  0  0
   -4.4194   -2.4406    1.7504 C   0  0  0  0  0  0  0  0  0  0  0  0
   -4.7922   -1.9724    2.6646 H   0  0  0  0  0  0  0  0  0  0  0  0
   -5.0194   -2.1015    0.9029 H   0  0  0  0  0  0  0  0  0  0  0  0
   -2.9624   -2.0774    1.5380 C   0  0  0  0  0  0  0  0  0  0  0  0
   -2.1033   -2.9406    1.6001 O   0  0  0  0  0  0  0  0  0  0  0  0
   -2.6045   -0.7664    1.2826 N   0  0  0  0  0  0  0  0  0  0  0  0
   -3.3405   -0.0711    1.3866 H   0  0  0  0  0  0  0  0  0  0  0  0
   -1.2140   -0.2804    1.3083 C   0  0  1  0  0  0  0  0  0  0  0  0
   -0.6430   -0.9749    1.9354 H   0  0  0  0  0  0  0  0  0  0  0  0
   -0.6015   -0.4301   -0.1180 C   0  0  0  0  0  0  0  0  0  0  0  0
    0.4683   -0.5890    0.0555 H   0  0  0  0  0  0  0  0  0  0  0  0
   -0.9757   -1.3629   -0.5548 H   0  0  0  0  0  0  0  0  0  0  0  0
   -0.6662    0.6645   -1.2187 C   0  0  0  0  0  0  0  0  0  0  0  0
    0.1580    0.5051   -1.9225 H   0  0  0  0  0  0  0  0  0  0  0  0
   -1.5924    0.4624   -1.7679 H   0  0  0  0  0  0  0  0  0  0  0  0
   -0.6945    2.1453   -0.8233 C   0  0  0  0  0  0  0  0  0  0  0  0
    0.3338    2.5236   -0.7998 H   0  0  0  0  0  0  0  0  0  0  0  0
   -1.0986    2.2787    0.1661 H   0  0  0  0  0  0  0  0  0  0  0  0
   -1.5017    2.9372   -1.7686 N   0  3  0  0  0  0  0  0  0  0  0  0
   -1.2140    2.9306   -2.7460 H   0  0  0  0  0  0  0  0  0  0  0  0
   -2.5357    3.6443   -1.4070 C   0  0  0  0  0  0  0  0  0  0  0  0
   -2.9818    3.6971   -0.1038 N   0  0  0  0  0  0  0  0  0  0  0  0
   -2.5795    3.0501    0.5837 H   0  0  0  0  0  0  0  0  0  0  0  0
   -3.9037    4.0785    0.0904 H   0  0  0  0  0  0  0  0  0  0  0  0
   -3.2152    4.3710   -2.3552 N   0  0  0  0  0  0  0  0  0  0  0  0
   -2.7876    4.4988   -3.2701 H   0  0  0  0  0  0  0  0  0  0  0  0
   -3.8764    5.0765   -2.0366 H   0  0  0  0  0  0  0  0  0  0  0  0
   -1.1185    1.0569    2.0709 C   0  0  0  0  0  0  0  0  0  0  0  0
   -2.0367    1.8738    1.9790 O   0  0  0  0  0  0  0  0  0  0  0  0
   -0.1131    1.2747    2.9931 N   0  0  0  0  0  0  0  0  0  0  0  0
    0.5431    0.5135    3.1583 H   0  0  0  0  0  0  0  0  0  0  0  0
   -0.0949    2.4119    3.9082 C   0  0  0  0  0  0  0  0  0  0  0  0
   -0.9629    2.3819    4.5756 H   0  0  0  0  0  0  0  0  0  0  0  0
    0.8117    2.3904    4.5214 H   0  0  0  0  0  0  0  0  0  0  0  0
   -0.1098    3.3553    3.3524 H   0  0  0  0  0  0  0  0  0  0  0  0
  1  2  1  0  0  0  0
  2  3  1  0  0  0  0
  2  4  1  0  0  0  0
  2  5  1  0  0  0  0
  5  6  2  0  0  0  0
  5  7  1  0  0  0  0
  7  8  1  0  0  0  0
  7  9  1  0  0  0  0
  9 10  1  0  0  0  0
  9 11  1  0  0  0  0
  9 29  1  0  0  0  0
 11 12  1  0  0  0  0
 11 13  1  0  0  0  0
 11 14  1  0  0  0  0
 14 15  1  0  0  0  0
 14 16  1  0  0  0  0
 14 17  1  0  0  0  0
 17 18  1  0  0  0  0
 17 19  1  0  0  0  0
 17 20  1  0  0  0  0
 20 21  1  0  0  0  0
 20 22  2  0  0  0  0
 22 23  1  0  0  0  0
 22 26  1  0  0  0  0
 23 24  1  0  0  0  0
 23 25  1  0  0  0  0
 26 27  1  0  0  0  0
 26 28  1  0  0  0  0
 29 30  2  0  0  0  0
 29 31  1  0  0  0  0
 31 32  1  0  0  0  0
 31 33  1  0  0  0  0
 33 34  1  0  0  0  0
 33 35  1  0  0  0  0
 33 36  1  0  0  0  0
M  CHG  1  20   1
M  END
$$$$

  -OEChem-03222214013D

 36 35  0     1  0  0  0  0  0999 V2000
   -4.4736   -3.6051    1.7388 H   0  0  0  0  0  0  0  0  0  0  0  0
   -4.3760   -2.5421    1.4999 C   0  0  0  0  0  0  0  0  0  0  0  0
   -4.8815   -1.9617    2.2753 H   0  0  0  0  0  0  0  0  0  0  0  0
   -4.8578   -2.3527    0.5379 H   0  0  0  0  0  0  0  0  0  0  0  0
   -2.9106   -2.1569    1.4303 C   0  0  0  0  0  0  0  0  0  0  0  0
   -2.0473   -3.0048    1.5831 O   0  0  0  0  0  0  0  0  0  0  0  0
   -2.5497   -0.8452    1.1842 N   0  0  0  0  0  0  0  0  0  0  0  0
   -3.2998   -0.1571    1.1868 H   0  0  0  0  0  0  0  0  0  0  0  0
   -1.1671   -0.3439    1.2630 C   0  0  1  0  0  0  0  0  0  0  0  0
   -0.5958   -1.0344    1.8945 H   0  0  0  0  0  0  0  0  0  0  0  0
   -0.5366   -0.4453   -0.1572 C   0  0  0  0  0  0  0  0  0  0  0  0
    0.5333   -0.6077    0.0111 H   0  0  0  0  0  0  0  0  0  0  0  0
   -0.9103   -1.3578   -0.6357 H   0  0  0  0  0  0  0  0  0  0  0  0
   -0.6194    0.7032   -1.1956 C   0  0  0  0  0  0  0  0  0  0  0  0
    0.0405    0.4600   -2.0352 H   0  0  0  0  0  0  0  0  0  0  0  0
   -1.6456    0.6828   -1.5779 H   0  0  0  0  0  0  0  0  0  0  0  0
   -0.3260    2.1410   -0.7433 C   0  0  0  0  0  0  0  0  0  0  0  0
    0.7601    2.2835   -0.7134 H   0  0  0  0  0  0  0  0  0  0  0  0
   -0.6904    2.3399    0.2553 H   0  0  0  0  0  0  0  0  0  0  0  0
   -0.9334    3.1072   -1.6771 N   0  3  0  0  0  0  0  0  0  0  0  0
   -0.5599    3.1327   -2.6248 H   0  0  0  0  0  0  0  0  0  0  0  0
   -1.8934    3.9254   -1.3463 C   0  0  0  0  0  0  0  0  0  0  0  0
   -2.4578    3.9424   -0.0901 N   0  0  0  0  0  0  0  0  0  0  0  0
   -2.2369    3.1763    0.5558 H   0  0  0  0  0  0  0  0  0  0  0  0
   -3.3383    4.4311    0.0478 H   0  0  0  0  0  0  0  0  0  0  0  0
   -2.3699    4.8131   -2.2813 N   0  0  0  0  0  0  0  0  0  0  0  0
   -1.8435    4.9455   -3.1423 H   0  0  0  0  0  0  0  0  0  0  0  0
   -2.9594    5.5790   -1.9610 H   0  0  0  0  0  0  0  0  0  0  0  0
   -1.1282    0.9954    2.0225 C   0  0  0  0  0  0  0  0  0  0  0  0
   -2.0147    1.8292    1.8334 O   0  0  0  0  0  0  0  0  0  0  0  0
   -0.1686    1.2336    2.9873 N   0  0  0  0  0  0  0  0  0  0  0  0
    0.4627    0.4671    3.2142 H   0  0  0  0  0  0  0  0  0  0  0  0
   -0.1930    2.3912    3.8759 C   0  0  0  0  0  0  0  0  0  0  0  0
   -1.1060    2.3918    4.4808 H   0  0  0  0  0  0  0  0  0  0  0  0
    0.6679    2.3674    4.5516 H   0  0  0  0  0  0  0  0  0  0  0  0
   -0.1508    3.3218    3.3008 H   0  0  0  0  0  0  0  0  0  0  0  0
  1  2  1  0  0  0  0
  2  3  1  0  0  0  0
  2  4  1  0  0  0  0
  2  5  1  0  0  0  0
  5  6  2  0  0  0  0
  5  7  1  0  0  0  0
  7  8  1  0  0  0  0
  7  9  1  0  0  0  0
  9 10  1  0  0  0  0
  9 11  1  0  0  0  0
  9 29  1  0  0  0  0
 11 12  1  0  0  0  0
 11 13  1  0  0  0  0
 11 14  1  0  0  0  0
 14 15  1  0  0  0  0
 14 16  1  0  0  0  0
 14 17  1  0  0  0  0
 17 18  1  0  0  0  0
 17 19  1  0  0  0  0
 17 20  1  0  0  0  0
 20 21  1  0  0  0  0
 20 22  2  0  0  0  0
 22 23  1  0  0  0  0
 22 26  1  0  0  0  0
 23 24  1  0  0  0  0
 23 25  1  0  0  0  0
 26 27  1  0  0  0  0
 26 28  1  0  0  0  0
 29 30  2  0  0  0  0
 29 31  1  0  0  0  0
 31 32  1  0  0  0  0
 31 33  1  0  0  0  0
 33 34  1  0  0  0  0
 33 35  1  0  0  0  0
 33 36  1  0  0  0  0
M  CHG  1  20   1
M  END
$$$$

  -OEChem-03222214013D

 36 35  0     1  0  0  0  0  0999 V2000
   -4.5132   -3.6000    1.6663 H   0  0  0  0  0  0  0  0  0  0  0  0
   -4.3990   -2.5330    1.4533 C   0  0  0  0  0  0  0  0  0  0  0  0
   -4.9066   -1.9632    2.2351 H   0  0  0  0  0  0  0  0  0  0  0  0
   -4.8661   -2.3157    0.4899 H   0  0  0  0  0  0  0  0  0  0  0  0
   -2.9281   -2.1651    1.4139 C   0  0  0  0  0  0  0  0  0  0  0  0
   -2.0804   -3.0112    1.6436 O   0  0  0  0  0  0  0  0  0  0  0  0
   -2.5434   -0.8699    1.1215 N   0  0  0  0  0  0  0  0  0  0  0  0
   -3.2849   -0.1770    1.0419 H   0  0  0  0  0  0  0  0  0  0  0  0
   -1.1580   -0.3809    1.2206 C   0  0  1  0  0  0  0  0  0  0  0  0
   -0.6010   -1.0558    1.8803 H   0  0  0  0  0  0  0  0  0  0  0  0
   -0.5065   -0.5003   -0.1864 C   0  0  0  0  0  0  0  0  0  0  0  0
    0.5599   -0.6885   -0.0234 H   0  0  0  0  0  0  0  0  0  0  0  0
   -0.9042   -1.3966   -0.6757 H   0  0  0  0  0  0  0  0  0  0  0  0
   -0.5955    0.6732   -1.1898 C   0  0  0  0  0  0  0  0  0  0  0  0
   -0.1240    0.3596   -2.1275 H   0  0  0  0  0  0  0  0  0  0  0  0
   -1.6580    0.8384   -1.3988 H   0  0  0  0  0  0  0  0  0  0  0  0
    0.0301    2.0073   -0.7540 C   0  0  0  0  0  0  0  0  0  0  0  0
   -0.2697    2.2965    0.2502 H   0  0  0  0  0  0  0  0  0  0  0  0
    1.1200    1.8963   -0.7376 H   0  0  0  0  0  0  0  0  0  0  0  0
   -0.3489    3.0703   -1.7033 N   0  3  0  0  0  0  0  0  0  0  0  0
    0.1325    3.0801   -2.6014 H   0  0  0  0  0  0  0  0  0  0  0  0
   -1.2429    3.9846   -1.4499 C   0  0  0  0  0  0  0  0  0  0  0  0
   -1.9459    4.0285   -0.2674 N   0  0  0  0  0  0  0  0  0  0  0  0
   -1.8873    3.2211    0.3629 H   0  0  0  0  0  0  0  0  0  0  0  0
   -2.7848    4.6000   -0.2152 H   0  0  0  0  0  0  0  0  0  0  0  0
   -1.5041    4.9478   -2.3947 N   0  0  0  0  0  0  0  0  0  0  0  0
   -0.8655    5.0456   -3.1812 H   0  0  0  0  0  0  0  0  0  0  0  0
   -2.0396    5.7663   -2.1116 H   0  0  0  0  0  0  0  0  0  0  0  0
   -1.1273    0.9891    1.9210 C   0  0  0  0  0  0  0  0  0  0  0  0
   -1.9450    1.8540    1.6080 O   0  0  0  0  0  0  0  0  0  0  0  0
   -0.1955    1.2593    2.9047 N   0  0  0  0  0  0  0  0  0  0  0  0
    0.3851    0.4834    3.2186 H   0  0  0  0  0  0  0  0  0  0  0  0
   -0.2022    2.4808    3.7034 C   0  0  0  0  0  0  0  0  0  0  0  0
   -1.1426    2.5718    4.2576 H   0  0  0  0  0  0  0  0  0  0  0  0
    0.6217    2.4661    4.4243 H   0  0  0  0  0  0  0  0  0  0  0  0
   -0.0823    3.3613    3.0638 H   0  0  0  0  0  0  0  0  0  0  0  0
  1  2  1  0  0  0  0
  2  3  1  0  0  0  0
  2  4  1  0  0  0  0
  2  5  1  0  0  0  0
  5  6  2  0  0  0  0
  5  7  1  0  0  0  0
  7  8  1  0  0  0  0
  7  9  1  0  0  0  0
  9 10  1  0  0  0  0
  9 11  1  0  0  0  0
  9 29  1  0  0  0  0
 11 12  1  0  0  0  0
 11 13  1  0  0  0  0
 11 14  1  0  0  0  0
 14 15  1  0  0  0  0
 14 16  1  0  0  0  0
 14 17  1  0  0  0  0
 17 18  1  0  0  0  0
 17 19  1  0  0  0  0
 17 20  1  0  0  0  0
 20 21  1  0  0  0  0
 20 22  2  0  0  0  0
 22 23  1  0  0  0  0
 22 26  1  0  0  0  0
 23 24  1  0  0  0  0
 23 25  1  0  0  0  0
 26 27  1  0  0  0  0
 26 28  1  0  0  0  0
 29 30  2  0  0  0  0
 29 31  1  0  0  0  0
 31 32  1  0  0  0  0
 31 33  1  0  0  0  0
 33 34  1  0  0  0  0
 33 35  1  0  0  0  0
 33 36  1  0  0  0  0
M  CHG  1  20   1
M  END
$$$$

  -OEChem-03222214013D

 36 35  0     1  0  0  0  0  0999 V2000
   -4.4636   -3.6145    1.7817 H   0  0  0  0  0  0  0  0  0  0  0  0
   -4.3561   -2.5604    1.5101 C   0  0  0  0  0  0  0  0  0  0  0  0
   -4.8839   -1.9523    2.2486 H   0  0  0  0  0  0  0  0  0  0  0  0
   -4.8072   -2.4040    0.5275 H   0  0  0  0  0  0  0  0  0  0  0  0
   -2.8886   -2.1788    1.4758 C   0  0  0  0  0  0  0  0  0  0  0  0
   -2.0365   -2.9979    1.7766 O   0  0  0  0  0  0  0  0  0  0  0  0
   -2.5123   -0.9018    1.1037 N   0  0  0  0  0  0  0  0  0  0  0  0
   -3.2594   -0.2284    0.9473 H   0  0  0  0  0  0  0  0  0  0  0  0
   -1.1319   -0.3948    1.1707 C   0  0  1  0  0  0  0  0  0  0  0  0
   -0.5654   -1.0304    1.8606 H   0  0  0  0  0  0  0  0  0  0  0  0
   -0.4829   -0.5688   -0.2285 C   0  0  0  0  0  0  0  0  0  0  0  0
    0.5875   -0.7503   -0.0840 H   0  0  0  0  0  0  0  0  0  0  0  0
   -0.8907   -1.4754   -0.6900 H   0  0  0  0  0  0  0  0  0  0  0  0
   -0.6309    0.5969   -1.2275 C   0  0  0  0  0  0  0  0  0  0  0  0
   -0.3841    0.2250   -2.2277 H   0  0  0  0  0  0  0  0  0  0  0  0
   -1.6795    0.9127   -1.2467 H   0  0  0  0  0  0  0  0  0  0  0  0
    0.2720    1.7999   -0.9222 C   0  0  0  0  0  0  0  0  0  0  0  0
    0.1219    2.1611    0.0972 H   0  0  0  0  0  0  0  0  0  0  0  0
    1.3192    1.4877   -1.0009 H   0  0  0  0  0  0  0  0  0  0  0  0
    0.0040    2.8861   -1.8838 N   0  3  0  0  0  0  0  0  0  0  0  0
    0.4599    2.8177   -2.7927 H   0  0  0  0  0  0  0  0  0  0  0  0
   -0.7549    3.9154   -1.6314 C   0  0  0  0  0  0  0  0  0  0  0  0
   -1.4240    4.0702   -0.4396 N   0  0  0  0  0  0  0  0  0  0  0  0
   -1.4915    3.2550    0.1792 H   0  0  0  0  0  0  0  0  0  0  0  0
   -2.1820    4.7459   -0.3938 H   0  0  0  0  0  0  0  0  0  0  0  0
   -0.9009    4.8919   -2.5877 N   0  0  0  0  0  0  0  0  0  0  0  0
   -0.2682    4.8911   -3.3852 H   0  0  0  0  0  0  0  0  0  0  0  0
   -1.3119    5.7805   -2.3078 H   0  0  0  0  0  0  0  0  0  0  0  0
   -1.0811    1.0185    1.7811 C   0  0  0  0  0  0  0  0  0  0  0  0
   -1.8380    1.8965    1.3710 O   0  0  0  0  0  0  0  0  0  0  0  0
   -0.1356    1.3371    2.7369 N   0  0  0  0  0  0  0  0  0  0  0  0
    0.4034    0.5660    3.1278 H   0  0  0  0  0  0  0  0  0  0  0  0
   -0.0935    2.6228    3.4260 C   0  0  0  0  0  0  0  0  0  0  0  0
   -1.0250    2.7945    3.9761 H   0  0  0  0  0  0  0  0  0  0  0  0
    0.7364    2.6425    4.1397 H   0  0  0  0  0  0  0  0  0  0  0  0
    0.0502    3.4398    2.7116 H   0  0  0  0  0  0  0  0  0  0  0  0
  1  2  1  0  0  0  0
  2  3  1  0  0  0  0
  2  4  1  0  0  0  0
  2  5  1  0  0  0  0
  5  6  2  0  0  0  0
  5  7  1  0  0  0  0
  7  8  1  0  0  0  0
  7  9  1  0  0  0  0
  9 10  1  0  0  0  0
  9 11  1  0  0  0  0
  9 29  1  0  0  0  0
 11 12  1  0  0  0  0
 11 13  1  0  0  0  0
 11 14  1  0  0  0  0
 14 15  1  0  0  0  0
 14 16  1  0  0  0  0
 14 17  1  0  0  0  0
 17 18  1  0  0  0  0
 17 19  1  0  0  0  0
 17 20  1  0  0  0  0
 20 21  1  0  0  0  0
 20 22  2  0  0  0  0
 22 23  1  0  0  0  0
 22 26  1  0  0  0  0
 23 24  1  0  0  0  0
 23 25  1  0  0  0  0
 26 27  1  0  0  0  0
 26 28  1  0  0  0  0
 29 30  2  0  0  0  0
 29 31  1  0  0  0  0
 31 32  1  0  0  0  0
 31 33  1  0  0  0  0
 33 34  1  0  0  0  0
 33 35  1  0  0  0  0
 33 36  1  0  0  0  0
M  CHG  1  20   1
M  END
$$$$

  -OEChem-03222214013D

 36 35  0     1  0  0  0  0  0999 V2000
   -4.0698   -4.0737    1.9782 H   0  0  0  0  0  0  0  0  0  0  0  0
   -4.1056   -3.0689    1.5476 C   0  0  0  0  0  0  0  0  0  0  0  0
   -4.7740   -2.4518    2.1528 H   0  0  0  0  0  0  0  0  0  0  0  0
   -4.5011   -3.1360    0.5316 H   0  0  0  0  0  0  0  0  0  0  0  0
   -2.7155   -2.4629    1.5243 C   0  0  0  0  0  0  0  0  0  0  0  0
   -1.7565   -3.1184    1.8976 O   0  0  0  0  0  0  0  0  0  0  0  0
   -2.5310   -1.1679    1.0780 N   0  0  0  0  0  0  0  0  0  0  0  0
   -3.3683   -0.6305    0.8600 H   0  0  0  0  0  0  0  0  0  0  0  0
   -1.2527   -0.4426    1.1473 C   0  0  1  0  0  0  0  0  0  0  0  0
   -0.6274   -0.9431    1.8946 H   0  0  0  0  0  0  0  0  0  0  0  0
   -0.5169   -0.5933   -0.2079 C   0  0  0  0  0  0  0  0  0  0  0  0
    0.5631   -0.5976   -0.0274 H   0  0  0  0  0  0  0  0  0  0  0  0
   -0.7654   -1.5725   -0.6326 H   0  0  0  0  0  0  0  0  0  0  0  0
   -0.8465    0.4951   -1.2447 C   0  0  0  0  0  0  0  0  0  0  0  0
   -0.7345    0.0661   -2.2463 H   0  0  0  0  0  0  0  0  0  0  0  0
   -1.8926    0.8026   -1.1445 H   0  0  0  0  0  0  0  0  0  0  0  0
    0.0996    1.6912   -1.1305 C   0  0  0  0  0  0  0  0  0  0  0  0
    0.1537    2.0093   -0.0840 H   0  0  0  0  0  0  0  0  0  0  0  0
    1.1022    1.3948   -1.4580 H   0  0  0  0  0  0  0  0  0  0  0  0
   -0.4127    2.7989   -1.9558 N   0  3  0  0  0  0  0  0  0  0  0  0
   -1.2953    2.6412   -2.4402 H   0  0  0  0  0  0  0  0  0  0  0  0
    0.1328    3.9791   -1.9976 C   0  0  0  0  0  0  0  0  0  0  0  0
    1.2801    4.2722   -1.2965 N   0  0  0  0  0  0  0  0  0  0  0  0
    1.5913    3.5974   -0.6011 H   0  0  0  0  0  0  0  0  0  0  0  0
    1.5284    5.2496   -1.1590 H   0  0  0  0  0  0  0  0  0  0  0  0
   -0.4464    4.9672   -2.7575 N   0  0  0  0  0  0  0  0  0  0  0  0
   -1.1936    4.7159   -3.4019 H   0  0  0  0  0  0  0  0  0  0  0  0
    0.0886    5.8118   -2.9500 H   0  0  0  0  0  0  0  0  0  0  0  0
   -1.4024    1.0067    1.6599 C   0  0  0  0  0  0  0  0  0  0  0  0
   -2.2567    1.7508    1.1910 O   0  0  0  0  0  0  0  0  0  0  0  0
   -0.5249    1.5021    2.6078 N   0  0  0  0  0  0  0  0  0  0  0  0
    0.0685    0.8199    3.0761 H   0  0  0  0  0  0  0  0  0  0  0  0
   -0.7118    2.7992    3.2514 C   0  0  0  0  0  0  0  0  0  0  0  0
   -1.6551    2.8182    3.8082 H   0  0  0  0  0  0  0  0  0  0  0  0
    0.1061    2.9963    3.9515 H   0  0  0  0  0  0  0  0  0  0  0  0
   -0.7273    3.6024    2.5075 H   0  0  0  0  0  0  0  0  0  0  0  0
  1  2  1  0  0  0  0
  2  3  1  0  0  0  0
  2  4  1  0  0  0  0
  2  5  1  0  0  0  0
  5  6  2  0  0  0  0
  5  7  1  0  0  0  0
  7  8  1  0  0  0  0
  7  9  1  0  0  0  0
  9 10  1  0  0  0  0
  9 11  1  0  0  0  0
  9 29  1  0  0  0  0
 11 12  1  0  0  0  0
 11 13  1  0  0  0  0
 11 14  1  0  0  0  0
 14 15  1  0  0  0  0
 14 16  1  0  0  0  0
 14 17  1  0  0  0  0
 17 18  1  0  0  0  0
 17 19  1  0  0  0  0
 17 20  1  0  0  0  0
 20 21  1  0  0  0  0
 20 22  2  0  0  0  0
 22 23  1  0  0  0  0
 22 26  1  0  0  0  0
 23 24  1  0  0  0  0
 23 25  1  0  0  0  0
 26 27  1  0  0  0  0
 26 28  1  0  0  0  0
 29 30  2  0  0  0  0
 29 31  1  0  0  0  0
 31 32  1  0  0  0  0
 31 33  1  0  0  0  0
 33 34  1  0  0  0  0
 33 35  1  0  0  0  0
 33 36  1  0  0  0  0
M  CHG  1  20   1
M  END
$$$$

  -OEChem-03222214013D

 36 35  0     1  0  0  0  0  0999 V2000
   -3.9518   -4.1923    1.5559 H   0  0  0  0  0  0  0  0  0  0  0  0
   -4.0137   -3.1502    1.2298 C   0  0  0  0  0  0  0  0  0  0  0  0
   -4.7457   -2.6304    1.8525 H   0  0  0  0  0  0  0  0  0  0  0  0
   -4.3469   -3.1273    0.1897 H   0  0  0  0  0  0  0  0  0  0  0  0
   -2.6574   -2.4835    1.3564 C   0  0  0  0  0  0  0  0  0  0  0  0
   -1.7016   -3.1170    1.7734 O   0  0  0  0  0  0  0  0  0  0  0  0
   -2.4996   -1.1600    0.9910 N   0  0  0  0  0  0  0  0  0  0  0  0
   -3.3440   -0.6502    0.7372 H   0  0  0  0  0  0  0  0  0  0  0  0
   -1.2780   -0.3748    1.2273 C   0  0  1  0  0  0  0  0  0  0  0  0
   -0.7200   -0.8815    2.0224 H   0  0  0  0  0  0  0  0  0  0  0  0
   -0.3748   -0.4348   -0.0286 C   0  0  0  0  0  0  0  0  0  0  0  0
    0.6723   -0.3893    0.2895 H   0  0  0  0  0  0  0  0  0  0  0  0
   -0.5089   -1.4100   -0.5103 H   0  0  0  0  0  0  0  0  0  0  0  0
   -0.6437    0.6763   -1.0615 C   0  0  0  0  0  0  0  0  0  0  0  0
   -0.6374    0.2282   -2.0609 H   0  0  0  0  0  0  0  0  0  0  0  0
   -1.6413    1.1032   -0.9312 H   0  0  0  0  0  0  0  0  0  0  0  0
    0.4421    1.7500   -1.0216 C   0  0  0  0  0  0  0  0  0  0  0  0
    0.6860    1.9766    0.0226 H   0  0  0  0  0  0  0  0  0  0  0  0
    1.3497    1.3777   -1.5063 H   0  0  0  0  0  0  0  0  0  0  0  0
   -0.0720    2.9706   -1.6693 N   0  3  0  0  0  0  0  0  0  0  0  0
   -0.9284    3.3610   -1.2732 H   0  0  0  0  0  0  0  0  0  0  0  0
    0.4919    3.5728   -2.6760 C   0  0  0  0  0  0  0  0  0  0  0  0
    1.6635    3.1210   -3.2397 N   0  0  0  0  0  0  0  0  0  0  0  0
    2.1871    2.4067   -2.7387 H   0  0  0  0  0  0  0  0  0  0  0  0
    2.1774    3.7433   -3.8602 H   0  0  0  0  0  0  0  0  0  0  0  0
   -0.0980    4.6985   -3.1993 N   0  0  0  0  0  0  0  0  0  0  0  0
   -1.0446    4.9336   -2.9058 H   0  0  0  0  0  0  0  0  0  0  0  0
    0.2193    5.0386   -4.1053 H   0  0  0  0  0  0  0  0  0  0  0  0
   -1.5362    1.0436    1.7863 C   0  0  0  0  0  0  0  0  0  0  0  0
   -2.3964    1.7656    1.2935 O   0  0  0  0  0  0  0  0  0  0  0  0
   -0.7763    1.5239    2.8375 N   0  0  0  0  0  0  0  0  0  0  0  0
   -0.1681    0.8569    3.3077 H   0  0  0  0  0  0  0  0  0  0  0  0
   -1.0674    2.7828    3.5166 C   0  0  0  0  0  0  0  0  0  0  0  0
   -2.0522    2.7413    3.9944 H   0  0  0  0  0  0  0  0  0  0  0  0
   -0.3164    2.9794    4.2883 H   0  0  0  0  0  0  0  0  0  0  0  0
   -1.0559    3.6168    2.8073 H   0  0  0  0  0  0  0  0  0  0  0  0
  1  2  1  0  0  0  0
  2  3  1  0  0  0  0
  2  4  1  0  0  0  0
  2  5  1  0  0  0  0
  5  6  2  0  0  0  0
  5  7  1  0  0  0  0
  7  8  1  0  0  0  0
  7  9  1  0  0  0  0
  9 10  1  0  0  0  0
  9 11  1  0  0  0  0
  9 29  1  0  0  0  0
 11 12  1  0  0  0  0
 11 13  1  0  0  0  0
 11 14  1  0  0  0  0
 14 15  1  0  0  0  0
 14 16  1  0  0  0  0
 14 17  1  0  0  0  0
 17 18  1  0  0  0  0
 17 19  1  0  0  0  0
 17 20  1  0  0  0  0
 20 21  1  0  0  0  0
 20 22  2  0  0  0  0
 22 23  1  0  0  0  0
 22 26  1  0  0  0  0
 23 24  1  0  0  0  0
 23 25  1  0  0  0  0
 26 27  1  0  0  0  0
 26 28  1  0  0  0  0
 29 30  2  0  0  0  0
 29 31  1  0  0  0  0
 31 32  1  0  0  0  0
 31 33  1  0  0  0  0
 33 34  1  0  0  0  0
 33 35  1  0  0  0  0
 33 36  1  0  0  0  0
M  CHG  1  20   1
M  END
$$$$

  -OEChem-03222214013D

 36 35  0     1  0  0  0  0  0999 V2000
   -3.8951   -4.2125    1.8057 H   0  0  0  0  0  0  0  0  0  0  0  0
   -3.9940   -3.1821    1.4520 C   0  0  0  0  0  0  0  0  0  0  0  0
   -4.6644   -2.6430    2.1257 H   0  0  0  0  0  0  0  0  0  0  0  0
   -4.4269   -3.1945    0.4491 H   0  0  0  0  0  0  0  0  0  0  0  0
   -2.6356   -2.5085    1.4220 C   0  0  0  0  0  0  0  0  0  0  0  0
   -1.6321   -3.1436    1.7032 O   0  0  0  0  0  0  0  0  0  0  0  0
   -2.5283   -1.1785    1.0630 N   0  0  0  0  0  0  0  0  0  0  0  0
   -3.3993   -0.6646    0.9377 H   0  0  0  0  0  0  0  0  0  0  0  0
   -1.2929   -0.3891    1.1817 C   0  0  1  0  0  0  0  0  0  0  0  0
   -0.6544   -0.8998    1.9109 H   0  0  0  0  0  0  0  0  0  0  0  0
   -0.5224   -0.4323   -0.1611 C   0  0  0  0  0  0  0  0  0  0  0  0
    0.5461   -0.3743    0.0721 H   0  0  0  0  0  0  0  0  0  0  0  0
   -0.6810   -1.4099   -0.6303 H   0  0  0  0  0  0  0  0  0  0  0  0
   -0.8715    0.6748   -1.1797 C   0  0  0  0  0  0  0  0  0  0  0  0
   -1.2361    0.1973   -2.0957 H   0  0  0  0  0  0  0  0  0  0  0  0
   -1.6822    1.3128   -0.8252 H   0  0  0  0  0  0  0  0  0  0  0  0
    0.3540    1.5211   -1.5194 C   0  0  0  0  0  0  0  0  0  0  0  0
    0.7966    1.9012   -0.5917 H   0  0  0  0  0  0  0  0  0  0  0  0
    1.0947    0.8939   -2.0271 H   0  0  0  0  0  0  0  0  0  0  0  0
   -0.0556    2.6506   -2.3739 N   0  3  0  0  0  0  0  0  0  0  0  0
   -1.0059    2.9988   -2.2466 H   0  0  0  0  0  0  0  0  0  0  0  0
    0.7342    3.2545   -3.2139 C   0  0  0  0  0  0  0  0  0  0  0  0
    2.0453    2.8717   -3.3842 N   0  0  0  0  0  0  0  0  0  0  0  0
    2.4401    2.2176   -2.7118 H   0  0  0  0  0  0  0  0  0  0  0  0
    2.6804    3.5056   -3.8650 H   0  0  0  0  0  0  0  0  0  0  0  0
    0.2545    4.3091   -3.9534 N   0  0  0  0  0  0  0  0  0  0  0  0
   -0.7489    4.4832   -3.9629 H   0  0  0  0  0  0  0  0  0  0  0  0
    0.8025    4.6354   -4.7472 H   0  0  0  0  0  0  0  0  0  0  0  0
   -1.5184    1.0127    1.7897 C   0  0  0  0  0  0  0  0  0  0  0  0
   -2.4791    1.6899    1.4424 O   0  0  0  0  0  0  0  0  0  0  0  0
   -0.6679    1.4960    2.7675 N   0  0  0  0  0  0  0  0  0  0  0  0
    0.0187    0.8473    3.1458 H   0  0  0  0  0  0  0  0  0  0  0  0
   -0.9270    2.7308    3.5019 C   0  0  0  0  0  0  0  0  0  0  0  0
   -1.8741    2.6609    4.0479 H   0  0  0  0  0  0  0  0  0  0  0  0
   -0.1255    2.9187    4.2233 H   0  0  0  0  0  0  0  0  0  0  0  0
   -0.9789    3.5833    2.8164 H   0  0  0  0  0  0  0  0  0  0  0  0
  1  2  1  0  0  0  0
  2  3  1  0  0  0  0
  2  4  1  0  0  0  0
  2  5  1  0  0  0  0
  5  6  2  0  0  0  0
  5  7  1  0  0  0  0
  7  8  1  0  0  0  0
  7  9  1  0  0  0  0
  9 10  1  0  0  0  0
  9 11  1  0  0  0  0
  9 29  1  0  0  0  0
 11 12  1  0  0  0  0
 11 13  1  0  0  0  0
 11 14  1  0  0  0  0
 14 15  1  0  0  0  0
 14 16  1  0  0  0  0
 14 17  1  0  0  0  0
 17 18  1  0  0  0  0
 17 19  1  0  0  0  0
 17 20  1  0  0  0  0
 20 21  1  0  0  0  0
 20 22  2  0  0  0  0
 22 23  1  0  0  0  0
 22 26  1  0  0  0  0
 23 24  1  0  0  0  0
 23 25  1  0  0  0  0
 26 27  1  0  0  0  0
 26 28  1  0  0  0  0
 29 30  2  0  0  0  0
 29 31  1  0  0  0  0
 31 32  1  0  0  0  0
 31 33  1  0  0  0  0
 33 34  1  0  0  0  0
 33 35  1  0  0  0  0
 33 36  1  0  0  0  0
M  CHG  1  20   1
M  END
$$$$

  -OEChem-03222214013D

 36 35  0     1  0  0  0  0  0999 V2000
   -3.8948   -4.2037    1.7898 H   0  0  0  0  0  0  0  0  0  0  0  0
   -3.9992   -3.1547    1.4975 C   0  0  0  0  0  0  0  0  0  0  0  0
   -4.6137   -2.6425    2.2419 H   0  0  0  0  0  0  0  0  0  0  0  0
   -4.4987   -3.1079    0.5269 H   0  0  0  0  0  0  0  0  0  0  0  0
   -2.6340   -2.4999    1.4121 C   0  0  0  0  0  0  0  0  0  0  0  0
   -1.6275   -3.1505    1.6430 O   0  0  0  0  0  0  0  0  0  0  0  0
   -2.5258   -1.1674    1.0643 N   0  0  0  0  0  0  0  0  0  0  0  0
   -3.3957   -0.6427    0.9828 H   0  0  0  0  0  0  0  0  0  0  0  0
   -1.2828   -0.3878    1.1620 C   0  0  1  0  0  0  0  0  0  0  0  0
   -0.6275   -0.9079    1.8696 H   0  0  0  0  0  0  0  0  0  0  0  0
   -0.5539   -0.4270   -0.2044 C   0  0  0  0  0  0  0  0  0  0  0  0
    0.5161   -0.3540    0.0182 H   0  0  0  0  0  0  0  0  0  0  0  0
   -0.7052   -1.4052   -0.6747 H   0  0  0  0  0  0  0  0  0  0  0  0
   -0.9118    0.6854   -1.2156 C   0  0  0  0  0  0  0  0  0  0  0  0
   -1.5730    0.2638   -1.9805 H   0  0  0  0  0  0  0  0  0  0  0  0
   -1.4557    1.5044   -0.7440 H   0  0  0  0  0  0  0  0  0  0  0  0
    0.3442    1.2631   -1.8645 C   0  0  0  0  0  0  0  0  0  0  0  0
    1.0041    1.6597   -1.0849 H   0  0  0  0  0  0  0  0  0  0  0  0
    0.8731    0.4652   -2.3974 H   0  0  0  0  0  0  0  0  0  0  0  0
   -0.0428    2.3399   -2.7940 N   0  3  0  0  0  0  0  0  0  0  0  0
   -0.9705    2.7442   -2.6686 H   0  0  0  0  0  0  0  0  0  0  0  0
    0.7373    2.8161   -3.7200 C   0  0  0  0  0  0  0  0  0  0  0  0
    2.0164    2.3430   -3.9057 N   0  0  0  0  0  0  0  0  0  0  0  0
    2.4031    1.7267   -3.1938 H   0  0  0  0  0  0  0  0  0  0  0  0
    2.6641    2.8931   -4.4663 H   0  0  0  0  0  0  0  0  0  0  0  0
    0.2793    3.8225   -4.5365 N   0  0  0  0  0  0  0  0  0  0  0  0
   -0.7130    4.0513   -4.5203 H   0  0  0  0  0  0  0  0  0  0  0  0
    0.8042    4.0385   -5.3820 H   0  0  0  0  0  0  0  0  0  0  0  0
   -1.5010    1.0054    1.7904 C   0  0  0  0  0  0  0  0  0  0  0  0
   -2.4781    1.6739    1.4730 O   0  0  0  0  0  0  0  0  0  0  0  0
   -0.6358    1.4838    2.7577 N   0  0  0  0  0  0  0  0  0  0  0  0
    0.0693    0.8409    3.1109 H   0  0  0  0  0  0  0  0  0  0  0  0
   -0.8793    2.7179    3.4982 C   0  0  0  0  0  0  0  0  0  0  0  0
   -1.8276    2.6580    4.0435 H   0  0  0  0  0  0  0  0  0  0  0  0
   -0.0760    2.8916    4.2211 H   0  0  0  0  0  0  0  0  0  0  0  0
   -0.9197    3.5744    2.8169 H   0  0  0  0  0  0  0  0  0  0  0  0
  1  2  1  0  0  0  0
  2  3  1  0  0  0  0
  2  4  1  0  0  0  0
  2  5  1  0  0  0  0
  5  6  2  0  0  0  0
  5  7  1  0  0  0  0
  7  8  1  0  0  0  0
  7  9  1  0  0  0  0
  9 10  1  0  0  0  0
  9 11  1  0  0  0  0
  9 29  1  0  0  0  0
 11 12  1  0  0  0  0
 11 13  1  0  0  0  0
 11 14  1  0  0  0  0
 14 15  1  0  0  0  0
 14 16  1  0  0  0  0
 14 17  1  0  0  0  0
 17 18  1  0  0  0  0
 17 19  1  0  0  0  0
 17 20  1  0  0  0  0
 20 21  1  0  0  0  0
 20 22  2  0  0  0  0
 22 23  1  0  0  0  0
 22 26  1  0  0  0  0
 23 24  1  0  0  0  0
 23 25  1  0  0  0  0
 26 27  1  0  0  0  0
 26 28  1  0  0  0  0
 29 30  2  0  0  0  0
 29 31  1  0  0  0  0
 31 32  1  0  0  0  0
 31 33  1  0  0  0  0
 33 34  1  0  0  0  0
 33 35  1  0  0  0  0
 33 36  1  0  0  0  0
M  CHG  1  20   1
M  END
$$$$

  -OEChem-03222214013D

 36 35  0     1  0  0  0  0  0999 V2000
   -3.9296   -4.1814    1.8146 H   0  0  0  0  0  0  0  0  0  0  0  0
   -4.0225   -3.1215    1.5612 C   0  0  0  0  0  0  0  0  0  0  0  0
   -4.5952   -2.6213    2.3459 H   0  0  0  0  0  0  0  0  0  0  0  0
   -4.5592   -3.0321    0.6138 H   0  0  0  0  0  0  0  0  0  0  0  0
   -2.6482   -2.4915    1.4418 C   0  0  0  0  0  0  0  0  0  0  0  0
   -1.6481   -3.1555    1.6621 O   0  0  0  0  0  0  0  0  0  0  0  0
   -2.5246   -1.1672    1.0696 N   0  0  0  0  0  0  0  0  0  0  0  0
   -3.3867   -0.6273    1.0027 H   0  0  0  0  0  0  0  0  0  0  0  0
   -1.2674   -0.4069    1.1343 C   0  0  1  0  0  0  0  0  0  0  0  0
   -0.6006   -0.9245    1.8329 H   0  0  0  0  0  0  0  0  0  0  0  0
   -0.5808   -0.4660   -0.2526 C   0  0  0  0  0  0  0  0  0  0  0  0
    0.4949   -0.3963   -0.0594 H   0  0  0  0  0  0  0  0  0  0  0  0
   -0.7540   -1.4445   -0.7142 H   0  0  0  0  0  0  0  0  0  0  0  0
   -0.9525    0.6487   -1.2519 C   0  0  0  0  0  0  0  0  0  0  0  0
   -1.8426    0.3445   -1.8134 H   0  0  0  0  0  0  0  0  0  0  0  0
   -1.1887    1.5835   -0.7394 H   0  0  0  0  0  0  0  0  0  0  0  0
    0.2165    0.9332   -2.1916 C   0  0  0  0  0  0  0  0  0  0  0  0
    1.0861    1.2420   -1.6011 H   0  0  0  0  0  0  0  0  0  0  0  0
    0.4714    0.0175   -2.7368 H   0  0  0  0  0  0  0  0  0  0  0  0
   -0.1643    2.0020   -3.1329 N   0  3  0  0  0  0  0  0  0  0  0  0
   -1.0550    2.4690   -2.9643 H   0  0  0  0  0  0  0  0  0  0  0  0
    0.5762    2.3861   -4.1317 C   0  0  0  0  0  0  0  0  0  0  0  0
    1.8006    1.8128   -4.3897 N   0  0  0  0  0  0  0  0  0  0  0  0
    2.1924    1.1906   -3.6856 H   0  0  0  0  0  0  0  0  0  0  0  0
    2.4429    2.2921   -5.0173 H   0  0  0  0  0  0  0  0  0  0  0  0
    0.1323    3.3939   -4.9540 N   0  0  0  0  0  0  0  0  0  0  0  0
   -0.8365    3.6977   -4.8757 H   0  0  0  0  0  0  0  0  0  0  0  0
    0.6073    3.5402   -5.8427 H   0  0  0  0  0  0  0  0  0  0  0  0
   -1.4704    0.9963    1.7443 C   0  0  0  0  0  0  0  0  0  0  0  0
   -2.4442    1.6651    1.4167 O   0  0  0  0  0  0  0  0  0  0  0  0
   -0.5931    1.4863    2.6944 N   0  0  0  0  0  0  0  0  0  0  0  0
    0.1156    0.8474    3.0471 H   0  0  0  0  0  0  0  0  0  0  0  0
   -0.8239    2.7321    3.4193 C   0  0  0  0  0  0  0  0  0  0  0  0
   -1.7214    2.6522    4.0418 H   0  0  0  0  0  0  0  0  0  0  0  0
    0.0284    2.9574    4.0680 H   0  0  0  0  0  0  0  0  0  0  0  0
   -0.9534    3.5667    2.7221 H   0  0  0  0  0  0  0  0  0  0  0  0
  1  2  1  0  0  0  0
  2  3  1  0  0  0  0
  2  4  1  0  0  0  0
  2  5  1  0  0  0  0
  5  6  2  0  0  0  0
  5  7  1  0  0  0  0
  7  8  1  0  0  0  0
  7  9  1  0  0  0  0
  9 10  1  0  0  0  0
  9 11  1  0  0  0  0
  9 29  1  0  0  0  0
 11 12  1  0  0  0  0
 11 13  1  0  0  0  0
 11 14  1  0  0  0  0
 14 15  1  0  0  0  0
 14 16  1  0  0  0  0
 14 17  1  0  0  0  0
 17 18  1  0  0  0  0
 17 19  1  0  0  0  0
 17 20  1  0  0  0  0
 20 21  1  0  0  0  0
 20 22  2  0  0  0  0
 22 23  1  0  0  0  0
 22 26  1  0  0  0  0
 23 24  1  0  0  0  0
 23 25  1  0  0  0  0
 26 27  1  0  0  0  0
 26 28  1  0  0  0  0
 29 30  2  0  0  0  0
 29 31  1  0  0  0  0
 31 32  1  0  0  0  0
 31 33  1  0  0  0  0
 33 34  1  0  0  0  0
 33 35  1  0  0  0  0
 33 36  1  0  0  0  0
M  CHG  1  20   1
M  END
$$$$

  -OEChem-03222214013D

 36 35  0     1  0  0  0  0  0999 V2000
   -3.9634   -4.1518    1.8920 H   0  0  0  0  0  0  0  0  0  0  0  0
   -4.0426   -3.1013    1.5979 C   0  0  0  0  0  0  0  0  0  0  0  0
   -4.6104   -2.5648    2.3619 H   0  0  0  0  0  0  0  0  0  0  0  0
   -4.5767   -3.0417    0.6469 H   0  0  0  0  0  0  0  0  0  0  0  0
   -2.6599   -2.4944    1.4572 C   0  0  0  0  0  0  0  0  0  0  0  0
   -1.6687   -3.1694    1.6843 O   0  0  0  0  0  0  0  0  0  0  0  0
   -2.5182   -1.1793    1.0594 N   0  0  0  0  0  0  0  0  0  0  0  0
   -3.3726   -0.6278    0.9876 H   0  0  0  0  0  0  0  0  0  0  0  0
   -1.2505   -0.4360    1.1186 C   0  0  1  0  0  0  0  0  0  0  0  0
   -0.5855   -0.9495    1.8219 H   0  0  0  0  0  0  0  0  0  0  0  0
   -0.5750   -0.5059   -0.2729 C   0  0  0  0  0  0  0  0  0  0  0  0
    0.5057   -0.4557   -0.1029 H   0  0  0  0  0  0  0  0  0  0  0  0
   -0.7791   -1.4779   -0.7359 H   0  0  0  0  0  0  0  0  0  0  0  0
   -0.9516    0.6220   -1.2507 C   0  0  0  0  0  0  0  0  0  0  0  0
   -1.9769    0.4682   -1.6049 H   0  0  0  0  0  0  0  0  0  0  0  0
   -0.9070    1.5964   -0.7559 H   0  0  0  0  0  0  0  0  0  0  0  0
    0.0307    0.6541   -2.4186 C   0  0  0  0  0  0  0  0  0  0  0  0
    1.0438    0.8154   -2.0337 H   0  0  0  0  0  0  0  0  0  0  0  0
    0.0033   -0.3111   -2.9369 H   0  0  0  0  0  0  0  0  0  0  0  0
   -0.3437    1.7410   -3.3415 N   0  3  0  0  0  0  0  0  0  0  0  0
   -1.1113    2.3471   -3.0525 H   0  0  0  0  0  0  0  0  0  0  0  0
    0.2533    1.9661   -4.4758 C   0  0  0  0  0  0  0  0  0  0  0  0
    1.3102    1.1963   -4.9058 N   0  0  0  0  0  0  0  0  0  0  0  0
    1.7238    0.5425   -4.2440 H   0  0  0  0  0  0  0  0  0  0  0  0
    1.8933    1.5459   -5.6637 H   0  0  0  0  0  0  0  0  0  0  0  0
   -0.1745    3.0017   -5.2716 N   0  0  0  0  0  0  0  0  0  0  0  0
   -1.0592    3.4549   -5.0506 H   0  0  0  0  0  0  0  0  0  0  0  0
    0.1547    3.0422   -6.2344 H   0  0  0  0  0  0  0  0  0  0  0  0
   -1.4517    0.9786    1.7014 C   0  0  0  0  0  0  0  0  0  0  0  0
   -2.4052    1.6552    1.3317 O   0  0  0  0  0  0  0  0  0  0  0  0
   -0.5832    1.4820    2.6522 N   0  0  0  0  0  0  0  0  0  0  0  0
    0.1167    0.8467    3.0285 H   0  0  0  0  0  0  0  0  0  0  0  0
   -0.8031    2.7535    3.3342 C   0  0  0  0  0  0  0  0  0  0  0  0
   -1.7182    2.7135    3.9347 H   0  0  0  0  0  0  0  0  0  0  0  0
    0.0375    2.9776    3.9984 H   0  0  0  0  0  0  0  0  0  0  0  0
   -0.8943    3.5693    2.6092 H   0  0  0  0  0  0  0  0  0  0  0  0
  1  2  1  0  0  0  0
  2  3  1  0  0  0  0
  2  4  1  0  0  0  0
  2  5  1  0  0  0  0
  5  6  2  0  0  0  0
  5  7  1  0  0  0  0
  7  8  1  0  0  0  0
  7  9  1  0  0  0  0
  9 10  1  0  0  0  0
  9 11  1  0  0  0  0
  9 29  1  0  0  0  0
 11 12  1  0  0  0  0
 11 13  1  0  0  0  0
 11 14  1  0  0  0  0
 14 15  1  0  0  0  0
 14 16  1  0  0  0  0
 14 17  1  0  0  0  0
 17 18  1  0  0  0  0
 17 19  1  0  0  0  0
 17 20  1  0  0  0  0
 20 21  1  0  0  0  0
 20 22  2  0  0  0  0
 22 23  1  0  0  0  0
 22 26  1  0  0  0  0
 23 24  1  0  0  0  0
 23 25  1  0  0  0  0
 26 27  1  0  0  0  0
 26 28  1  0  0  0  0
 29 30  2  0  0  0  0
 29 31  1  0  0  0  0
 31 32  1  0  0  0  0
 31 33  1  0  0  0  0
 33 34  1  0  0  0  0
 33 35  1  0  0  0  0
 33 36  1  0  0  0  0
M  CHG  1  20   1
M  END
$$$$

  -OEChem-03222214013D

 36 35  0     1  0  0  0  0  0999 V2000
   -3.9816   -4.1119    2.0528 H   0  0  0  0  0  0  0  0  0  0  0  0
   -4.0473   -3.1029    1.6362 C   0  0  0  0  0  0  0  0  0  0  0  0
   -4.6604   -2.4889    2.3002 H   0  0  0  0  0  0  0  0  0  0  0  0
   -4.5251   -3.1573    0.6554 H   0  0  0  0  0  0  0  0  0  0  0  0
   -2.6612   -2.5015    1.5057 C   0  0  0  0  0  0  0  0  0  0  0  0
   -1.6749   -3.1717    1.7652 O   0  0  0  0  0  0  0  0  0  0  0  0
   -2.5112   -1.1969    1.0781 N   0  0  0  0  0  0  0  0  0  0  0  0
   -3.3630   -0.6478    0.9685 H   0  0  0  0  0  0  0  0  0  0  0  0
   -1.2398   -0.4581    1.1161 C   0  0  1  0  0  0  0  0  0  0  0  0
   -0.5706   -0.9581    1.8252 H   0  0  0  0  0  0  0  0  0  0  0  0
   -0.5766   -0.5504   -0.2832 C   0  0  0  0  0  0  0  0  0  0  0  0
    0.4829   -0.7841   -0.1348 H   0  0  0  0  0  0  0  0  0  0  0  0
   -1.0106   -1.3875   -0.8415 H   0  0  0  0  0  0  0  0  0  0  0  0
   -0.6661    0.7291   -1.1298 C   0  0  0  0  0  0  0  0  0  0  0  0
   -1.7206    0.9859   -1.2834 H   0  0  0  0  0  0  0  0  0  0  0  0
   -0.1811    1.5620   -0.6092 H   0  0  0  0  0  0  0  0  0  0  0  0
    0.0161    0.5189   -2.4783 C   0  0  0  0  0  0  0  0  0  0  0  0
    1.0751    0.2895   -2.3158 H   0  0  0  0  0  0  0  0  0  0  0  0
   -0.4507   -0.3309   -2.9889 H   0  0  0  0  0  0  0  0  0  0  0  0
   -0.1271    1.7405   -3.2908 N   0  3  0  0  0  0  0  0  0  0  0  0
   -0.7264    2.4759   -2.9167 H   0  0  0  0  0  0  0  0  0  0  0  0
    0.4397    1.9085   -4.4500 C   0  0  0  0  0  0  0  0  0  0  0  0
    1.2309    0.9360   -5.0175 N   0  0  0  0  0  0  0  0  0  0  0  0
    1.2248    0.0117   -4.5909 H   0  0  0  0  0  0  0  0  0  0  0  0
    1.4521    1.0042   -6.0087 H   0  0  0  0  0  0  0  0  0  0  0  0
    0.2453    3.0839   -5.1352 N   0  0  0  0  0  0  0  0  0  0  0  0
   -0.1913    3.8670   -4.6522 H   0  0  0  0  0  0  0  0  0  0  0  0
    0.8469    3.2888   -5.9309 H   0  0  0  0  0  0  0  0  0  0  0  0
   -1.4399    0.9700    1.6677 C   0  0  0  0  0  0  0  0  0  0  0  0
   -2.3694    1.6550    1.2552 O   0  0  0  0  0  0  0  0  0  0  0  0
   -0.5698    1.4935    2.6061 N   0  0  0  0  0  0  0  0  0  0  0  0
    0.1165    0.8606    3.0102 H   0  0  0  0  0  0  0  0  0  0  0  0
   -0.7759    2.7903    3.2434 C   0  0  0  0  0  0  0  0  0  0  0  0
   -1.7245    2.8030    3.7909 H   0  0  0  0  0  0  0  0  0  0  0  0
    0.0333    2.9984    3.9505 H   0  0  0  0  0  0  0  0  0  0  0  0
   -0.7919    3.5894    2.4950 H   0  0  0  0  0  0  0  0  0  0  0  0
  1  2  1  0  0  0  0
  2  3  1  0  0  0  0
  2  4  1  0  0  0  0
  2  5  1  0  0  0  0
  5  6  2  0  0  0  0
  5  7  1  0  0  0  0
  7  8  1  0  0  0  0
  7  9  1  0  0  0  0
  9 10  1  0  0  0  0
  9 11  1  0  0  0  0
  9 29  1  0  0  0  0
 11 12  1  0  0  0  0
 11 13  1  0  0  0  0
 11 14  1  0  0  0  0
 14 15  1  0  0  0  0
 14 16  1  0  0  0  0
 14 17  1  0  0  0  0
 17 18  1  0  0  0  0
 17 19  1  0  0  0  0
 17 20  1  0  0  0  0
 20 21  1  0  0  0  0
 20 22  2  0  0  0  0
 22 23  1  0  0  0  0
 22 26  1  0  0  0  0
 23 24  1  0  0  0  0
 23 25  1  0  0  0  0
 26 27  1  0  0  0  0
 26 28  1  0  0  0  0
 29 30  2  0  0  0  0
 29 31  1  0  0  0  0
 31 32  1  0  0  0  0
 31 33  1  0  0  0  0
 33 34  1  0  0  0  0
 33 35  1  0  0  0  0
 33 36  1  0  0  0  0
M  CHG  1  20   1
M  END
$$$$

  -OEChem-03222214013D

 36 35  0     1  0  0  0  0  0999 V2000
   -3.9845   -4.1062    2.0773 H   0  0  0  0  0  0  0  0  0  0  0  0
   -4.0578   -3.1009    1.6527 C   0  0  0  0  0  0  0  0  0  0  0  0
   -4.6602   -2.4816    2.3215 H   0  0  0  0  0  0  0  0  0  0  0  0
   -4.5521   -3.1642    0.6806 H   0  0  0  0  0  0  0  0  0  0  0  0
   -2.6745   -2.5002    1.4932 C   0  0  0  0  0  0  0  0  0  0  0  0
   -1.6835   -3.1747    1.7219 O   0  0  0  0  0  0  0  0  0  0  0  0
   -2.5320   -1.1924    1.0723 N   0  0  0  0  0  0  0  0  0  0  0  0
   -3.3854   -0.6405    0.9944 H   0  0  0  0  0  0  0  0  0  0  0  0
   -1.2614   -0.4514    1.1057 C   0  0  1  0  0  0  0  0  0  0  0  0
   -0.5963   -0.9550    1.8164 H   0  0  0  0  0  0  0  0  0  0  0  0
   -0.5814   -0.5451   -0.2848 C   0  0  0  0  0  0  0  0  0  0  0  0
    0.4774   -0.7822   -0.1355 H   0  0  0  0  0  0  0  0  0  0  0  0
   -1.0182   -1.3839   -0.8387 H   0  0  0  0  0  0  0  0  0  0  0  0
   -0.6694    0.7326   -1.1351 C   0  0  0  0  0  0  0  0  0  0  0  0
   -1.6967    1.1123   -1.1121 H   0  0  0  0  0  0  0  0  0  0  0  0
   -0.0069    1.5041   -0.7272 H   0  0  0  0  0  0  0  0  0  0  0  0
   -0.3097    0.4285   -2.5864 C   0  0  0  0  0  0  0  0  0  0  0  0
    0.7273    0.0781   -2.6353 H   0  0  0  0  0  0  0  0  0  0  0  0
   -0.9649   -0.3668   -2.9587 H   0  0  0  0  0  0  0  0  0  0  0  0
   -0.4796    1.6483   -3.3970 N   0  3  0  0  0  0  0  0  0  0  0  0
   -0.8874    2.4585   -2.9310 H   0  0  0  0  0  0  0  0  0  0  0  0
   -0.1716    1.7269   -4.6590 C   0  0  0  0  0  0  0  0  0  0  0  0
    0.3480    0.6533   -5.3455 N   0  0  0  0  0  0  0  0  0  0  0  0
    0.3298   -0.2555   -4.8874 H   0  0  0  0  0  0  0  0  0  0  0  0
    0.3444    0.6764   -6.3631 H   0  0  0  0  0  0  0  0  0  0  0  0
   -0.3710    2.9081   -5.3330 N   0  0  0  0  0  0  0  0  0  0  0  0
   -0.5875    3.7470   -4.7978 H   0  0  0  0  0  0  0  0  0  0  0  0
    0.0569    3.0239   -6.2498 H   0  0  0  0  0  0  0  0  0  0  0  0
   -1.4444    0.9764    1.6660 C   0  0  0  0  0  0  0  0  0  0  0  0
   -2.3899    1.6610    1.2911 O   0  0  0  0  0  0  0  0  0  0  0  0
   -0.5587    1.4871    2.5968 N   0  0  0  0  0  0  0  0  0  0  0  0
    0.1391    0.8512    2.9757 H   0  0  0  0  0  0  0  0  0  0  0  0
   -0.7486    2.7777    3.2512 C   0  0  0  0  0  0  0  0  0  0  0  0
   -1.6887    2.7894    3.8131 H   0  0  0  0  0  0  0  0  0  0  0  0
    0.0724    2.9736    3.9479 H   0  0  0  0  0  0  0  0  0  0  0  0
   -0.7715    3.5849    2.5117 H   0  0  0  0  0  0  0  0  0  0  0  0
  1  2  1  0  0  0  0
  2  3  1  0  0  0  0
  2  4  1  0  0  0  0
  2  5  1  0  0  0  0
  5  6  2  0  0  0  0
  5  7  1  0  0  0  0
  7  8  1  0  0  0  0
  7  9  1  0  0  0  0
  9 10  1  0  0  0  0
  9 11  1  0  0  0  0
  9 29  1  0  0  0  0
 11 12  1  0  0  0  0
 11 13  1  0  0  0  0
 11 14  1  0  0  0  0
 14 15  1  0  0  0  0
 14 16  1  0  0  0  0
 14 17  1  0  0  0  0
 17 18  1  0  0  0  0
 17 19  1  0  0  0  0
 17 20  1  0  0  0  0
 20 21  1  0  0  0  0
 20 22  2  0  0  0  0
 22 23  1  0  0  0  0
 22 26  1  0  0  0  0
 23 24  1  0  0  0  0
 23 25  1  0  0  0  0
 26 27  1  0  0  0  0
 26 28  1  0  0  0  0
 29 30  2  0  0  0  0
 29 31  1  0  0  0  0
 31 32  1  0  0  0  0
 31 33  1  0  0  0  0
 33 34  1  0  0  0  0
 33 35  1  0  0  0  0
 33 36  1  0  0  0  0
M  CHG  1  20   1
M  END
$$$$

  -OEChem-03222214013D

 36 35  0     1  0  0  0  0  0999 V2000
   -3.9744   -4.0974    2.0851 H   0  0  0  0  0  0  0  0  0  0  0  0
   -4.0597   -3.0893    1.6690 C   0  0  0  0  0  0  0  0  0  0  0  0
   -4.6395   -2.4732    2.3607 H   0  0  0  0  0  0  0  0  0  0  0  0
   -4.5843   -3.1457    0.7125 H   0  0  0  0  0  0  0  0  0  0  0  0
   -2.6813   -2.4893    1.4693 C   0  0  0  0  0  0  0  0  0  0  0  0
   -1.6849   -3.1714    1.6448 O   0  0  0  0  0  0  0  0  0  0  0  0
   -2.5497   -1.1734    1.0703 N   0  0  0  0  0  0  0  0  0  0  0  0
   -3.4043   -0.6186    1.0403 H   0  0  0  0  0  0  0  0  0  0  0  0
   -1.2798   -0.4306    1.0999 C   0  0  1  0  0  0  0  0  0  0  0  0
   -0.6152   -0.9442    1.8036 H   0  0  0  0  0  0  0  0  0  0  0  0
   -0.5937   -0.5183   -0.2884 C   0  0  0  0  0  0  0  0  0  0  0  0
    0.4641   -0.7584   -0.1382 H   0  0  0  0  0  0  0  0  0  0  0  0
   -1.0291   -1.3620   -0.8359 H   0  0  0  0  0  0  0  0  0  0  0  0
   -0.6727    0.7539   -1.1531 C   0  0  0  0  0  0  0  0  0  0  0  0
   -1.6132    1.2784   -0.9604 H   0  0  0  0  0  0  0  0  0  0  0  0
    0.1542    1.4291   -0.9075 H   0  0  0  0  0  0  0  0  0  0  0  0
   -0.6674    0.3866   -2.6352 C   0  0  0  0  0  0  0  0  0  0  0  0
    0.2819   -0.1016   -2.8836 H   0  0  0  0  0  0  0  0  0  0  0  0
   -1.4835   -0.3176   -2.8318 H   0  0  0  0  0  0  0  0  0  0  0  0
   -0.8458    1.6055   -3.4450 N   0  3  0  0  0  0  0  0  0  0  0  0
   -1.0334    2.4717   -2.9407 H   0  0  0  0  0  0  0  0  0  0  0  0
   -0.8265    1.6169   -4.7462 C   0  0  0  0  0  0  0  0  0  0  0  0
   -0.6186    0.4696   -5.4774 N   0  0  0  0  0  0  0  0  0  0  0  0
   -0.6367   -0.4198   -4.9821 H   0  0  0  0  0  0  0  0  0  0  0  0
   -0.8526    0.4717   -6.4681 H   0  0  0  0  0  0  0  0  0  0  0  0
   -1.0237    2.8005   -5.4166 N   0  0  0  0  0  0  0  0  0  0  0  0
   -1.0030    3.6720   -4.8901 H   0  0  0  0  0  0  0  0  0  0  0  0
   -0.8132    2.8376   -6.4123 H   0  0  0  0  0  0  0  0  0  0  0  0
   -1.4502    0.9875    1.6882 C   0  0  0  0  0  0  0  0  0  0  0  0
   -2.4204    1.6662    1.3700 O   0  0  0  0  0  0  0  0  0  0  0  0
   -0.5482    1.4792    2.6137 N   0  0  0  0  0  0  0  0  0  0  0  0
    0.1693    0.8420    2.9515 H   0  0  0  0  0  0  0  0  0  0  0  0
   -0.7357    2.7459    3.3142 C   0  0  0  0  0  0  0  0  0  0  0  0
   -1.6657    2.7319    3.8927 H   0  0  0  0  0  0  0  0  0  0  0  0
    0.0960    2.9244    4.0028 H   0  0  0  0  0  0  0  0  0  0  0  0
   -0.7773    3.5772    2.6026 H   0  0  0  0  0  0  0  0  0  0  0  0
  1  2  1  0  0  0  0
  2  3  1  0  0  0  0
  2  4  1  0  0  0  0
  2  5  1  0  0  0  0
  5  6  2  0  0  0  0
  5  7  1  0  0  0  0
  7  8  1  0  0  0  0
  7  9  1  0  0  0  0
  9 10  1  0  0  0  0
  9 11  1  0  0  0  0
  9 29  1  0  0  0  0
 11 12  1  0  0  0  0
 11 13  1  0  0  0  0
 11 14  1  0  0  0  0
 14 15  1  0  0  0  0
 14 16  1  0  0  0  0
 14 17  1  0  0  0  0
 17 18  1  0  0  0  0
 17 19  1  0  0  0  0
 17 20  1  0  0  0  0
 20 21  1  0  0  0  0
 20 22  2  0  0  0  0
 22 23  1  0  0  0  0
 22 26  1  0  0  0  0
 23 24  1  0  0  0  0
 23 25  1  0  0  0  0
 26 27  1  0  0  0  0
 26 28  1  0  0  0  0
 29 30  2  0  0  0  0
 29 31  1  0  0  0  0
 31 32  1  0  0  0  0
 31 33  1  0  0  0  0
 33 34  1  0  0  0  0
 33 35  1  0  0  0  0
 33 36  1  0  0  0  0
M  CHG  1  20   1
M  END
$$$$

  -OEChem-03222214013D

 36 35  0     1  0  0  0  0  0999 V2000
   -3.9680   -4.1289    1.9642 H   0  0  0  0  0  0  0  0  0  0  0  0
   -4.0575   -3.0752    1.6855 C   0  0  0  0  0  0  0  0  0  0  0  0
   -4.5742   -2.5426    2.4875 H   0  0  0  0  0  0  0  0  0  0  0  0
   -4.6476   -3.0026    0.7690 H   0  0  0  0  0  0  0  0  0  0  0  0
   -2.6819   -2.4753    1.4671 C   0  0  0  0  0  0  0  0  0  0  0  0
   -1.6844   -3.1659    1.5973 O   0  0  0  0  0  0  0  0  0  0  0  0
   -2.5563   -1.1520    1.0916 N   0  0  0  0  0  0  0  0  0  0  0  0
   -3.4086   -0.5928    1.1090 H   0  0  0  0  0  0  0  0  0  0  0  0
   -1.2844   -0.4117    1.1070 C   0  0  1  0  0  0  0  0  0  0  0  0
   -0.6088   -0.9377    1.7909 H   0  0  0  0  0  0  0  0  0  0  0  0
   -0.6231   -0.4896   -0.2948 C   0  0  0  0  0  0  0  0  0  0  0  0
    0.4361   -0.7295   -0.1540 H   0  0  0  0  0  0  0  0  0  0  0  0
   -1.0570   -1.3402   -0.8325 H   0  0  0  0  0  0  0  0  0  0  0  0
   -0.6973    0.7774   -1.1751 C   0  0  0  0  0  0  0  0  0  0  0  0
   -1.4601    1.4682   -0.8101 H   0  0  0  0  0  0  0  0  0  0  0  0
    0.2655    1.2998   -1.1574 H   0  0  0  0  0  0  0  0  0  0  0  0
   -1.0847    0.3970   -2.6029 C   0  0  0  0  0  0  0  0  0  0  0  0
   -0.3040   -0.2438   -3.0279 H   0  0  0  0  0  0  0  0  0  0  0  0
   -2.0234   -0.1677   -2.5775 H   0  0  0  0  0  0  0  0  0  0  0  0
   -1.2521    1.6134   -3.4188 N   0  3  0  0  0  0  0  0  0  0  0  0
   -1.2319    2.5066   -2.9275 H   0  0  0  0  0  0  0  0  0  0  0  0
   -1.4801    1.5955   -4.7000 C   0  0  0  0  0  0  0  0  0  0  0  0
   -1.5705    0.4158   -5.4031 N   0  0  0  0  0  0  0  0  0  0  0  0
   -1.6161   -0.4512   -4.8714 H   0  0  0  0  0  0  0  0  0  0  0  0
   -1.9870    0.4309   -6.3318 H   0  0  0  0  0  0  0  0  0  0  0  0
   -1.6413    2.7805   -5.3772 N   0  0  0  0  0  0  0  0  0  0  0  0
   -1.4018    3.6505   -4.9054 H   0  0  0  0  0  0  0  0  0  0  0  0
   -1.6143    2.7663   -6.3952 H   0  0  0  0  0  0  0  0  0  0  0  0
   -1.4449    0.9932    1.7275 C   0  0  0  0  0  0  0  0  0  0  0  0
   -2.4370    1.6620    1.4588 O   0  0  0  0  0  0  0  0  0  0  0  0
   -0.5270    1.4725    2.6438 N   0  0  0  0  0  0  0  0  0  0  0  0
    0.2101    0.8389    2.9441 H   0  0  0  0  0  0  0  0  0  0  0  0
   -0.7181    2.7155    3.3850 C   0  0  0  0  0  0  0  0  0  0  0  0
   -1.5999    2.6452    4.0309 H   0  0  0  0  0  0  0  0  0  0  0  0
    0.1547    2.9215    4.0126 H   0  0  0  0  0  0  0  0  0  0  0  0
   -0.8526    3.5576    2.6979 H   0  0  0  0  0  0  0  0  0  0  0  0
  1  2  1  0  0  0  0
  2  3  1  0  0  0  0
  2  4  1  0  0  0  0
  2  5  1  0  0  0  0
  5  6  2  0  0  0  0
  5  7  1  0  0  0  0
  7  8  1  0  0  0  0
  7  9  1  0  0  0  0
  9 10  1  0  0  0  0
  9 11  1  0  0  0  0
  9 29  1  0  0  0  0
 11 12  1  0  0  0  0
 11 13  1  0  0  0  0
 11 14  1  0  0  0  0
 14 15  1  0  0  0  0
 14 16  1  0  0  0  0
 14 17  1  0  0  0  0
 17 18  1  0  0  0  0
 17 19  1  0  0  0  0
 17 20  1  0  0  0  0
 20 21  1  0  0  0  0
 20 22  2  0  0  0  0
 22 23  1  0  0  0  0
 22 26  1  0  0  0  0
 23 24  1  0  0  0  0
 23 25  1  0  0  0  0
 26 27  1  0  0  0  0
 26 28  1  0  0  0  0
 29 30  2  0  0  0  0
 29 31  1  0  0  0  0
 31 32  1  0  0  0  0
 31 33  1  0  0  0  0
 33 34  1  0  0  0  0
 33 35  1  0  0  0  0
 33 36  1  0  0  0  0
M  CHG  1  20   1
M  END
$$$$

  -OEChem-03222214013D

 36 35  0     1  0  0  0  0  0999 V2000
   -3.9679   -4.1352    1.9552 H   0  0  0  0  0  0  0  0  0  0  0  0
   -4.0575   -3.0739    1.7064 C   0  0  0  0  0  0  0  0  0  0  0  0
   -4.5570   -2.5607    2.5316 H   0  0  0  0  0  0  0  0  0  0  0  0
   -4.6635   -2.9746    0.8032 H   0  0  0  0  0  0  0  0  0  0  0  0
   -2.6828   -2.4752    1.4798 C   0  0  0  0  0  0  0  0  0  0  0  0
   -1.6860   -3.1677    1.6028 O   0  0  0  0  0  0  0  0  0  0  0  0
   -2.5564   -1.1514    1.1059 N   0  0  0  0  0  0  0  0  0  0  0  0
   -3.4057   -0.5882    1.1355 H   0  0  0  0  0  0  0  0  0  0  0  0
   -1.2810   -0.4169    1.1179 C   0  0  1  0  0  0  0  0  0  0  0  0
   -0.6008   -0.9455    1.7952 H   0  0  0  0  0  0  0  0  0  0  0  0
   -0.6376   -0.4945   -0.2934 C   0  0  0  0  0  0  0  0  0  0  0  0
    0.4240   -0.7181   -0.1429 H   0  0  0  0  0  0  0  0  0  0  0  0
   -1.0499   -1.3575   -0.8288 H   0  0  0  0  0  0  0  0  0  0  0  0
   -0.7035    0.7676   -1.1851 C   0  0  0  0  0  0  0  0  0  0  0  0
   -1.1950    1.6059   -0.6902 H   0  0  0  0  0  0  0  0  0  0  0  0
    0.3159    1.0877   -1.4263 H   0  0  0  0  0  0  0  0  0  0  0  0
   -1.4570    0.4508   -2.4748 C   0  0  0  0  0  0  0  0  0  0  0  0
   -0.9060   -0.3128   -3.0353 H   0  0  0  0  0  0  0  0  0  0  0  0
   -2.4447    0.0510   -2.2181 H   0  0  0  0  0  0  0  0  0  0  0  0
   -1.6063    1.6755   -3.2816 N   0  3  0  0  0  0  0  0  0  0  0  0
   -1.3544    2.5564   -2.8348 H   0  0  0  0  0  0  0  0  0  0  0  0
   -2.1030    1.6900   -4.4845 C   0  0  0  0  0  0  0  0  0  0  0  0
   -2.5156    0.5366   -5.1120 N   0  0  0  0  0  0  0  0  0  0  0  0
   -2.5762   -0.3118   -4.5526 H   0  0  0  0  0  0  0  0  0  0  0  0
   -3.1145    0.6141   -5.9315 H   0  0  0  0  0  0  0  0  0  0  0  0
   -2.2281    2.8845   -5.1527 N   0  0  0  0  0  0  0  0  0  0  0  0
   -1.7692    3.7092   -4.7706 H   0  0  0  0  0  0  0  0  0  0  0  0
   -2.4214    2.8651   -6.1524 H   0  0  0  0  0  0  0  0  0  0  0  0
   -1.4460    0.9843    1.7441 C   0  0  0  0  0  0  0  0  0  0  0  0
   -2.4349    1.6549    1.4664 O   0  0  0  0  0  0  0  0  0  0  0  0
   -0.5295    1.4632    2.6617 N   0  0  0  0  0  0  0  0  0  0  0  0
    0.2105    0.8316    2.9594 H   0  0  0  0  0  0  0  0  0  0  0  0
   -0.7085    2.7161    3.3887 C   0  0  0  0  0  0  0  0  0  0  0  0
   -1.5848    2.6586    4.0432 H   0  0  0  0  0  0  0  0  0  0  0  0
    0.1710    2.9251    4.0057 H   0  0  0  0  0  0  0  0  0  0  0  0
   -0.8443    3.5504    2.6924 H   0  0  0  0  0  0  0  0  0  0  0  0
  1  2  1  0  0  0  0
  2  3  1  0  0  0  0
  2  4  1  0  0  0  0
  2  5  1  0  0  0  0
  5  6  2  0  0  0  0
  5  7  1  0  0  0  0
  7  8  1  0  0  0  0
  7  9  1  0  0  0  0
  9 10  1  0  0  0  0
  9 11  1  0  0  0  0
  9 29  1  0  0  0  0
 11 12  1  0  0  0  0
 11 13  1  0  0  0  0
 11 14  1  0  0  0  0
 14 15  1  0  0  0  0
 14 16  1  0  0  0  0
 14 17  1  0  0  0  0
 17 18  1  0  0  0  0
 17 19  1  0  0  0  0
 17 20  1  0  0  0  0
 20 21  1  0  0  0  0
 20 22  2  0  0  0  0
 22 23  1  0  0  0  0
 22 26  1  0  0  0  0
 23 24  1  0  0  0  0
 23 25  1  0  0  0  0
 26 27  1  0  0  0  0
 26 28  1  0  0  0  0
 29 30  2  0  0  0  0
 29 31  1  0  0  0  0
 31 32  1  0  0  0  0
 31 33  1  0  0  0  0
 33 34  1  0  0  0  0
 33 35  1  0  0  0  0
 33 36  1  0  0  0  0
M  CHG  1  20   1
M  END
$$$$

  -OEChem-03222214013D

 36 35  0     1  0  0  0  0  0999 V2000
   -3.9827   -4.1226    2.0082 H   0  0  0  0  0  0  0  0  0  0  0  0
   -4.0582   -3.0621    1.7516 C   0  0  0  0  0  0  0  0  0  0  0  0
   -4.5425   -2.5351    2.5772 H   0  0  0  0  0  0  0  0  0  0  0  0
   -4.6708   -2.9610    0.8529 H   0  0  0  0  0  0  0  0  0  0  0  0
   -2.6769   -2.4853    1.5082 C   0  0  0  0  0  0  0  0  0  0  0  0
   -1.6874   -3.1828    1.6570 O   0  0  0  0  0  0  0  0  0  0  0  0
   -2.5371   -1.1720    1.1029 N   0  0  0  0  0  0  0  0  0  0  0  0
   -3.3801   -0.5993    1.1264 H   0  0  0  0  0  0  0  0  0  0  0  0
   -1.2543   -0.4501    1.1139 C   0  0  1  0  0  0  0  0  0  0  0  0
   -0.5743   -0.9678    1.8001 H   0  0  0  0  0  0  0  0  0  0  0  0
   -0.6233   -0.5405   -0.3026 C   0  0  0  0  0  0  0  0  0  0  0  0
    0.4387   -0.7585   -0.1455 H   0  0  0  0  0  0  0  0  0  0  0  0
   -1.0295   -1.4055   -0.8392 H   0  0  0  0  0  0  0  0  0  0  0  0
   -0.6807    0.7197   -1.1950 C   0  0  0  0  0  0  0  0  0  0  0  0
   -0.8554    1.6379   -0.6317 H   0  0  0  0  0  0  0  0  0  0  0  0
    0.2906    0.8367   -1.6879 H   0  0  0  0  0  0  0  0  0  0  0  0
   -1.7444    0.5379   -2.2743 C   0  0  0  0  0  0  0  0  0  0  0  0
   -1.4555   -0.2903   -2.9309 H   0  0  0  0  0  0  0  0  0  0  0  0
   -2.6952    0.2854   -1.7912 H   0  0  0  0  0  0  0  0  0  0  0  0
   -1.8919    1.7854   -3.0452 N   0  3  0  0  0  0  0  0  0  0  0  0
   -1.4307    2.6148   -2.6732 H   0  0  0  0  0  0  0  0  0  0  0  0
   -2.6454    1.8961   -4.1001 C   0  0  0  0  0  0  0  0  0  0  0  0
   -3.3500    0.8263   -4.6031 N   0  0  0  0  0  0  0  0  0  0  0  0
   -3.3979   -0.0168   -4.0348 H   0  0  0  0  0  0  0  0  0  0  0  0
   -4.1111    1.0079   -5.2540 H   0  0  0  0  0  0  0  0  0  0  0  0
   -2.7515    3.1116   -4.7328 N   0  0  0  0  0  0  0  0  0  0  0  0
   -2.1035    3.8545   -4.4776 H   0  0  0  0  0  0  0  0  0  0  0  0
   -3.1724    3.1423   -5.6595 H   0  0  0  0  0  0  0  0  0  0  0  0
   -1.4410    0.9619    1.7076 C   0  0  0  0  0  0  0  0  0  0  0  0
   -2.4145    1.6293    1.3702 O   0  0  0  0  0  0  0  0  0  0  0  0
   -0.5482    1.4679    2.6335 N   0  0  0  0  0  0  0  0  0  0  0  0
    0.1821    0.8442    2.9700 H   0  0  0  0  0  0  0  0  0  0  0  0
   -0.7527    2.7355    3.3272 C   0  0  0  0  0  0  0  0  0  0  0  0
   -1.6500    2.6892    3.9535 H   0  0  0  0  0  0  0  0  0  0  0  0
    0.1054    2.9595    3.9688 H   0  0  0  0  0  0  0  0  0  0  0  0
   -0.8667    3.5548    2.6095 H   0  0  0  0  0  0  0  0  0  0  0  0
  1  2  1  0  0  0  0
  2  3  1  0  0  0  0
  2  4  1  0  0  0  0
  2  5  1  0  0  0  0
  5  6  2  0  0  0  0
  5  7  1  0  0  0  0
  7  8  1  0  0  0  0
  7  9  1  0  0  0  0
  9 10  1  0  0  0  0
  9 11  1  0  0  0  0
  9 29  1  0  0  0  0
 11 12  1  0  0  0  0
 11 13  1  0  0  0  0
 11 14  1  0  0  0  0
 14 15  1  0  0  0  0
 14 16  1  0  0  0  0
 14 17  1  0  0  0  0
 17 18  1  0  0  0  0
 17 19  1  0  0  0  0
 17 20  1  0  0  0  0
 20 21  1  0  0  0  0
 20 22  2  0  0  0  0
 22 23  1  0  0  0  0
 22 26  1  0  0  0  0
 23 24  1  0  0  0  0
 23 25  1  0  0  0  0
 26 27  1  0  0  0  0
 26 28  1  0  0  0  0
 29 30  2  0  0  0  0
 29 31  1  0  0  0  0
 31 32  1  0  0  0  0
 31 33  1  0  0  0  0
 33 34  1  0  0  0  0
 33 35  1  0  0  0  0
 33 36  1  0  0  0  0
M  CHG  1  20   1
M  END
$$$$

  -OEChem-03222214013D

 36 35  0     1  0  0  0  0  0999 V2000
   -3.9895   -4.0738    2.1933 H   0  0  0  0  0  0  0  0  0  0  0  0
   -4.0612   -3.0815    1.7384 C   0  0  0  0  0  0  0  0  0  0  0  0
   -4.6381   -2.4335    2.4027 H   0  0  0  0  0  0  0  0  0  0  0  0
   -4.5816   -3.1701    0.7820 H   0  0  0  0  0  0  0  0  0  0  0  0
   -2.6742   -2.5059    1.5243 C   0  0  0  0  0  0  0  0  0  0  0  0
   -1.6887   -3.1933    1.7323 O   0  0  0  0  0  0  0  0  0  0  0  0
   -2.5245   -1.2063    1.0790 N   0  0  0  0  0  0  0  0  0  0  0  0
   -3.3681   -0.6359    1.0599 H   0  0  0  0  0  0  0  0  0  0  0  0
   -1.2420   -0.4836    1.1040 C   0  0  1  0  0  0  0  0  0  0  0  0
   -0.5715   -0.9786    1.8156 H   0  0  0  0  0  0  0  0  0  0  0  0
   -0.5906   -0.5935   -0.3017 C   0  0  0  0  0  0  0  0  0  0  0  0
    0.4694   -0.8104   -0.1319 H   0  0  0  0  0  0  0  0  0  0  0  0
   -0.9939   -1.4574   -0.8424 H   0  0  0  0  0  0  0  0  0  0  0  0
   -0.6444    0.6641   -1.1920 C   0  0  0  0  0  0  0  0  0  0  0  0
   -0.5516    1.5897   -0.6178 H   0  0  0  0  0  0  0  0  0  0  0  0
    0.2098    0.6364   -1.8771 H   0  0  0  0  0  0  0  0  0  0  0  0
   -1.9211    0.6436   -2.0275 C   0  0  0  0  0  0  0  0  0  0  0  0
   -1.8842   -0.1981   -2.7280 H   0  0  0  0  0  0  0  0  0  0  0  0
   -2.7746    0.5018   -1.3546 H   0  0  0  0  0  0  0  0  0  0  0  0
   -2.0681    1.9186   -2.7521 N   0  3  0  0  0  0  0  0  0  0  0  0
   -1.3947    2.6525   -2.5372 H   0  0  0  0  0  0  0  0  0  0  0  0
   -3.0635    2.1818   -3.5475 C   0  0  0  0  0  0  0  0  0  0  0  0
   -4.0433    1.2525   -3.8118 N   0  0  0  0  0  0  0  0  0  0  0  0
   -4.0625    0.4133   -3.2361 H   0  0  0  0  0  0  0  0  0  0  0  0
   -4.9194    1.5730   -4.2188 H   0  0  0  0  0  0  0  0  0  0  0  0
   -3.1502    3.4183   -4.1414 N   0  0  0  0  0  0  0  0  0  0  0  0
   -2.3500    4.0456   -4.0869 H   0  0  0  0  0  0  0  0  0  0  0  0
   -3.8059    3.5441   -4.9102 H   0  0  0  0  0  0  0  0  0  0  0  0
   -1.4568    0.9454    1.6459 C   0  0  0  0  0  0  0  0  0  0  0  0
   -2.4065    1.6060    1.2325 O   0  0  0  0  0  0  0  0  0  0  0  0
   -0.5977    1.4867    2.5832 N   0  0  0  0  0  0  0  0  0  0  0  0
    0.1233    0.8790    2.9663 H   0  0  0  0  0  0  0  0  0  0  0  0
   -0.8062    2.7931    3.1992 C   0  0  0  0  0  0  0  0  0  0  0  0
   -1.7607    2.8171    3.7360 H   0  0  0  0  0  0  0  0  0  0  0  0
   -0.0041    3.0079    3.9125 H   0  0  0  0  0  0  0  0  0  0  0  0
   -0.8098    3.5816    2.4392 H   0  0  0  0  0  0  0  0  0  0  0  0
  1  2  1  0  0  0  0
  2  3  1  0  0  0  0
  2  4  1  0  0  0  0
  2  5  1  0  0  0  0
  5  6  2  0  0  0  0
  5  7  1  0  0  0  0
  7  8  1  0  0  0  0
  7  9  1  0  0  0  0
  9 10  1  0  0  0  0
  9 11  1  0  0  0  0
  9 29  1  0  0  0  0
 11 12  1  0  0  0  0
 11 13  1  0  0  0  0
 11 14  1  0  0  0  0
 14 15  1  0  0  0  0
 14 16  1  0  0  0  0
 14 17  1  0  0  0  0
 17 18  1  0  0  0  0
 17 19  1  0  0  0  0
 17 20  1  0  0  0  0
 20 21  1  0  0  0  0
 20 22  2  0  0  0  0
 22 23  1  0  0  0  0
 22 26  1  0  0  0  0
 23 24  1  0  0  0  0
 23 25  1  0  0  0  0
 26 27  1  0  0  0  0
 26 28  1  0  0  0  0
 29 30  2  0  0  0  0
 29 31  1  0  0  0  0
 31 32  1  0  0  0  0
 31 33  1  0  0  0  0
 33 34  1  0  0  0  0
 33 35  1  0  0  0  0
 33 36  1  0  0  0  0
M  CHG  1  20   1
M  END
$$$$

  -OEChem-03222214013D

 36 35  0     1  0  0  0  0  0999 V2000
   -3.6526   -4.3949    2.0882 H   0  0  0  0  0  0  0  0  0  0  0  0
   -3.8353   -3.4150    1.6378 C   0  0  0  0  0  0  0  0  0  0  0  0
   -4.5596   -2.8757    2.2530 H   0  0  0  0  0  0  0  0  0  0  0  0
   -4.2505   -3.5612    0.6380 H   0  0  0  0  0  0  0  0  0  0  0  0
   -2.5394   -2.6320    1.5527 C   0  0  0  0  0  0  0  0  0  0  0  0
   -1.5004   -3.1238    1.9594 O   0  0  0  0  0  0  0  0  0  0  0  0
   -2.5324   -1.3626    1.0049 N   0  0  0  0  0  0  0  0  0  0  0  0
   -3.4407   -0.9532    0.7981 H   0  0  0  0  0  0  0  0  0  0  0  0
   -1.3706   -0.4585    1.0514 C   0  0  1  0  0  0  0  0  0  0  0  0
   -0.7071   -0.7976    1.8550 H   0  0  0  0  0  0  0  0  0  0  0  0
   -0.5736   -0.6005   -0.2734 C   0  0  0  0  0  0  0  0  0  0  0  0
    0.4866   -0.6526   -0.0028 H   0  0  0  0  0  0  0  0  0  0  0  0
   -0.8148   -1.5544   -0.7563 H   0  0  0  0  0  0  0  0  0  0  0  0
   -0.7204    0.5453   -1.2909 C   0  0  0  0  0  0  0  0  0  0  0  0
   -0.5777    1.5202   -0.8143 H   0  0  0  0  0  0  0  0  0  0  0  0
    0.0651    0.4421   -2.0473 H   0  0  0  0  0  0  0  0  0  0  0  0
   -2.0820    0.4609   -1.9829 C   0  0  0  0  0  0  0  0  0  0  0  0
   -2.1473   -0.4850   -2.5319 H   0  0  0  0  0  0  0  0  0  0  0  0
   -2.8796    0.4553   -1.2333 H   0  0  0  0  0  0  0  0  0  0  0  0
   -2.2591    1.5915   -2.9136 N   0  3  0  0  0  0  0  0  0  0  0  0
   -1.7912    1.5206   -3.8160 H   0  0  0  0  0  0  0  0  0  0  0  0
   -3.0075    2.6296   -2.6670 C   0  0  0  0  0  0  0  0  0  0  0  0
   -3.6590    2.8063   -1.4688 N   0  0  0  0  0  0  0  0  0  0  0  0
   -3.3644    2.2230   -0.6780 H   0  0  0  0  0  0  0  0  0  0  0  0
   -4.0244    3.7286   -1.2475 H   0  0  0  0  0  0  0  0  0  0  0  0
   -3.1622    3.5920   -3.6358 N   0  0  0  0  0  0  0  0  0  0  0  0
   -2.8581    3.3806   -4.5839 H   0  0  0  0  0  0  0  0  0  0  0  0
   -3.9092    4.2738   -3.5181 H   0  0  0  0  0  0  0  0  0  0  0  0
   -1.7802    0.9770    1.4431 C   0  0  0  0  0  0  0  0  0  0  0  0
   -2.7519    1.5055    0.9049 O   0  0  0  0  0  0  0  0  0  0  0  0
   -1.0502    1.6876    2.3762 N   0  0  0  0  0  0  0  0  0  0  0  0
   -0.3032    1.1927    2.8605 H   0  0  0  0  0  0  0  0  0  0  0  0
   -1.4301    3.0109    2.8598 C   0  0  0  0  0  0  0  0  0  0  0  0
   -2.4311    2.9861    3.3042 H   0  0  0  0  0  0  0  0  0  0  0  0
   -0.7239    3.3518    3.6237 H   0  0  0  0  0  0  0  0  0  0  0  0
   -1.4253    3.7363    2.0397 H   0  0  0  0  0  0  0  0  0  0  0  0
  1  2  1  0  0  0  0
  2  3  1  0  0  0  0
  2  4  1  0  0  0  0
  2  5  1  0  0  0  0
  5  6  2  0  0  0  0
  5  7  1  0  0  0  0
  7  8  1  0  0  0  0
  7  9  1  0  0  0  0
  9 10  1  0  0  0  0
  9 11  1  0  0  0  0
  9 29  1  0  0  0  0
 11 12  1  0  0  0  0
 11 13  1  0  0  0  0
 11 14  1  0  0  0  0
 14 15  1  0  0  0  0
 14 16  1  0  0  0  0
 14 17  1  0  0  0  0
 17 18  1  0  0  0  0
 17 19  1  0  0  0  0
 17 20  1  0  0  0  0
 20 21  1  0  0  0  0
 20 22  2  0  0  0  0
 22 23  1  0  0  0  0
 22 26  1  0  0  0  0
 23 24  1  0  0  0  0
 23 25  1  0  0  0  0
 26 27  1  0  0  0  0
 26 28  1  0  0  0  0
 29 30  2  0  0  0  0
 29 31  1  0  0  0  0
 31 32  1  0  0  0  0
 31 33  1  0  0  0  0
 33 34  1  0  0  0  0
 33 35  1  0  0  0  0
 33 36  1  0  0  0  0
M  CHG  1  20   1
M  END
$$$$

  -OEChem-03222214013D

 36 35  0     1  0  0  0  0  0999 V2000
   -3.6275   -4.4365    2.0354 H   0  0  0  0  0  0  0  0  0  0  0  0
   -3.8435   -3.4213    1.6897 C   0  0  0  0  0  0  0  0  0  0  0  0
   -4.5016   -2.9363    2.4145 H   0  0  0  0  0  0  0  0  0  0  0  0
   -4.3532   -3.4807    0.7253 H   0  0  0  0  0  0  0  0  0  0  0  0
   -2.5551   -2.6337    1.5501 C   0  0  0  0  0  0  0  0  0  0  0  0
   -1.4914   -3.1402    1.8648 O   0  0  0  0  0  0  0  0  0  0  0  0
   -2.5852   -1.3410    1.0602 N   0  0  0  0  0  0  0  0  0  0  0  0
   -3.5070   -0.9320    0.9255 H   0  0  0  0  0  0  0  0  0  0  0  0
   -1.4297   -0.4279    1.0797 C   0  0  1  0  0  0  0  0  0  0  0  0
   -0.7577   -0.7997    1.8616 H   0  0  0  0  0  0  0  0  0  0  0  0
   -0.6221   -0.5512   -0.2397 C   0  0  0  0  0  0  0  0  0  0  0  0
    0.4389   -0.6011    0.0282 H   0  0  0  0  0  0  0  0  0  0  0  0
   -0.8654   -1.5042   -0.7228 H   0  0  0  0  0  0  0  0  0  0  0  0
   -0.7742    0.5825   -1.2697 C   0  0  0  0  0  0  0  0  0  0  0  0
   -0.4295    1.5225   -0.8254 H   0  0  0  0  0  0  0  0  0  0  0  0
   -0.1312    0.3720   -2.1311 H   0  0  0  0  0  0  0  0  0  0  0  0
   -2.2245    0.7323   -1.7411 C   0  0  0  0  0  0  0  0  0  0  0  0
   -2.4963   -0.1504   -2.3304 H   0  0  0  0  0  0  0  0  0  0  0  0
   -2.9048    0.7640   -0.8888 H   0  0  0  0  0  0  0  0  0  0  0  0
   -2.3706    1.9449   -2.5691 N   0  3  0  0  0  0  0  0  0  0  0  0
   -1.8834    1.9503   -3.4640 H   0  0  0  0  0  0  0  0  0  0  0  0
   -3.1211    2.9620   -2.2509 C   0  0  0  0  0  0  0  0  0  0  0  0
   -3.8056    3.0364   -1.0604 N   0  0  0  0  0  0  0  0  0  0  0  0
   -3.5127    2.4010   -0.3103 H   0  0  0  0  0  0  0  0  0  0  0  0
   -4.1810    3.9367   -0.7752 H   0  0  0  0  0  0  0  0  0  0  0  0
   -3.2455    4.0068   -3.1352 N   0  0  0  0  0  0  0  0  0  0  0  0
   -2.9129    3.8797   -4.0888 H   0  0  0  0  0  0  0  0  0  0  0  0
   -3.9923    4.6809   -2.9784 H   0  0  0  0  0  0  0  0  0  0  0  0
   -1.7662    1.0044    1.5496 C   0  0  0  0  0  0  0  0  0  0  0  0
   -2.7836    1.5680    1.1541 O   0  0  0  0  0  0  0  0  0  0  0  0
   -0.9483    1.6531    2.4553 N   0  0  0  0  0  0  0  0  0  0  0  0
   -0.1707    1.1231    2.8451 H   0  0  0  0  0  0  0  0  0  0  0  0
   -1.2660    2.9480    3.0486 C   0  0  0  0  0  0  0  0  0  0  0  0
   -2.1904    2.8871    3.6331 H   0  0  0  0  0  0  0  0  0  0  0  0
   -0.4575    3.2661    3.7146 H   0  0  0  0  0  0  0  0  0  0  0  0
   -1.3889    3.7096    2.2716 H   0  0  0  0  0  0  0  0  0  0  0  0
  1  2  1  0  0  0  0
  2  3  1  0  0  0  0
  2  4  1  0  0  0  0
  2  5  1  0  0  0  0
  5  6  2  0  0  0  0
  5  7  1  0  0  0  0
  7  8  1  0  0  0  0
  7  9  1  0  0  0  0
  9 10  1  0  0  0  0
  9 11  1  0  0  0  0
  9 29  1  0  0  0  0
 11 12  1  0  0  0  0
 11 13  1  0  0  0  0
 11 14  1  0  0  0  0
 14 15  1  0  0  0  0
 14 16  1  0  0  0  0
 14 17  1  0  0  0  0
 17 18  1  0  0  0  0
 17 19  1  0  0  0  0
 17 20  1  0  0  0  0
 20 21  1  0  0  0  0
 20 22  2  0  0  0  0
 22 23  1  0  0  0  0
 22 26  1  0  0  0  0
 23 24  1  0  0  0  0
 23 25  1  0  0  0  0
 26 27  1  0  0  0  0
 26 28  1  0  0  0  0
 29 30  2  0  0  0  0
 29 31  1  0  0  0  0
 31 32  1  0  0  0  0
 31 33  1  0  0  0  0
 33 34  1  0  0  0  0
 33 35  1  0  0  0  0
 33 36  1  0  0  0  0
M  CHG  1  20   1
M  END
$$$$

  -OEChem-03222214013D

 36 35  0     1  0  0  0  0  0999 V2000
   -3.5586   -4.4732    2.0790 H   0  0  0  0  0  0  0  0  0  0  0  0
   -3.8129   -3.4652    1.7382 C   0  0  0  0  0  0  0  0  0  0  0  0
   -4.4724   -3.0021    2.4760 H   0  0  0  0  0  0  0  0  0  0  0  0
   -4.3385   -3.5404    0.7834 H   0  0  0  0  0  0  0  0  0  0  0  0
   -2.5518   -2.6383    1.5751 C   0  0  0  0  0  0  0  0  0  0  0  0
   -1.4637   -3.1330    1.8173 O   0  0  0  0  0  0  0  0  0  0  0  0
   -2.6318   -1.3265    1.1424 N   0  0  0  0  0  0  0  0  0  0  0  0
   -3.5672   -0.9339    1.0622 H   0  0  0  0  0  0  0  0  0  0  0  0
   -1.4935   -0.3909    1.1265 C   0  0  1  0  0  0  0  0  0  0  0  0
   -0.8058   -0.7801    1.8857 H   0  0  0  0  0  0  0  0  0  0  0  0
   -0.6824   -0.5003   -0.1933 C   0  0  0  0  0  0  0  0  0  0  0  0
    0.3798   -0.5437    0.0711 H   0  0  0  0  0  0  0  0  0  0  0  0
   -0.9218   -1.4613   -0.6618 H   0  0  0  0  0  0  0  0  0  0  0  0
   -0.8381    0.6008   -1.2629 C   0  0  0  0  0  0  0  0  0  0  0  0
   -0.2932    1.4833   -0.9095 H   0  0  0  0  0  0  0  0  0  0  0  0
   -0.3619    0.2723   -2.1931 H   0  0  0  0  0  0  0  0  0  0  0  0
   -2.2900    1.0077   -1.5431 C   0  0  0  0  0  0  0  0  0  0  0  0
   -2.8700    1.0500   -0.6255 H   0  0  0  0  0  0  0  0  0  0  0  0
   -2.7530    0.2348   -2.1667 H   0  0  0  0  0  0  0  0  0  0  0  0
   -2.3355    2.3030   -2.2486 N   0  3  0  0  0  0  0  0  0  0  0  0
   -1.8364    2.3602   -3.1349 H   0  0  0  0  0  0  0  0  0  0  0  0
   -3.0222    3.3338   -1.8424 C   0  0  0  0  0  0  0  0  0  0  0  0
   -3.7251    3.3400   -0.6602 N   0  0  0  0  0  0  0  0  0  0  0  0
   -3.5008    2.6113    0.0260 H   0  0  0  0  0  0  0  0  0  0  0  0
   -4.0436    4.2323   -0.2924 H   0  0  0  0  0  0  0  0  0  0  0  0
   -3.0563    4.4659   -2.6214 N   0  0  0  0  0  0  0  0  0  0  0  0
   -2.7057    4.4119   -3.5754 H   0  0  0  0  0  0  0  0  0  0  0  0
   -3.7595    5.1721   -2.4123 H   0  0  0  0  0  0  0  0  0  0  0  0
   -1.7821    1.0284    1.6678 C   0  0  0  0  0  0  0  0  0  0  0  0
   -2.8418    1.5976    1.4202 O   0  0  0  0  0  0  0  0  0  0  0  0
   -0.8905    1.6353    2.5330 N   0  0  0  0  0  0  0  0  0  0  0  0
   -0.0854    1.0865    2.8299 H   0  0  0  0  0  0  0  0  0  0  0  0
   -1.1708    2.8815    3.2399 C   0  0  0  0  0  0  0  0  0  0  0  0
   -2.0205    2.7546    3.9192 H   0  0  0  0  0  0  0  0  0  0  0  0
   -0.3003    3.1862    3.8298 H   0  0  0  0  0  0  0  0  0  0  0  0
   -1.4014    3.6841    2.5319 H   0  0  0  0  0  0  0  0  0  0  0  0
  1  2  1  0  0  0  0
  2  3  1  0  0  0  0
  2  4  1  0  0  0  0
  2  5  1  0  0  0  0
  5  6  2  0  0  0  0
  5  7  1  0  0  0  0
  7  8  1  0  0  0  0
  7  9  1  0  0  0  0
  9 10  1  0  0  0  0
  9 11  1  0  0  0  0
  9 29  1  0  0  0  0
 11 12  1  0  0  0  0
 11 13  1  0  0  0  0
 11 14  1  0  0  0  0
 14 15  1  0  0  0  0
 14 16  1  0  0  0  0
 14 17  1  0  0  0  0
 17 18  1  0  0  0  0
 17 19  1  0  0  0  0
 17 20  1  0  0  0  0
 20 21  1  0  0  0  0
 20 22  2  0  0  0  0
 22 23  1  0  0  0  0
 22 26  1  0  0  0  0
 23 24  1  0  0  0  0
 23 25  1  0  0  0  0
 26 27  1  0  0  0  0
 26 28  1  0  0  0  0
 29 30  2  0  0  0  0
 29 31  1  0  0  0  0
 31 32  1  0  0  0  0
 31 33  1  0  0  0  0
 33 34  1  0  0  0  0
 33 35  1  0  0  0  0
 33 36  1  0  0  0  0
M  CHG  1  20   1
M  END
$$$$

  -OEChem-03222214013D

 36 35  0     1  0  0  0  0  0999 V2000
   -3.5502   -4.5225    1.9186 H   0  0  0  0  0  0  0  0  0  0  0  0
   -3.8160   -3.5105    1.5995 C   0  0  0  0  0  0  0  0  0  0  0  0
   -4.5231   -3.0906    2.3188 H   0  0  0  0  0  0  0  0  0  0  0  0
   -4.2922   -3.5653    0.6178 H   0  0  0  0  0  0  0  0  0  0  0  0
   -2.5732   -2.6445    1.5261 C   0  0  0  0  0  0  0  0  0  0  0  0
   -1.4830   -3.1146    1.8062 O   0  0  0  0  0  0  0  0  0  0  0  0
   -2.6736   -1.3215    1.1352 N   0  0  0  0  0  0  0  0  0  0  0  0
   -3.6158   -0.9554    1.0159 H   0  0  0  0  0  0  0  0  0  0  0  0
   -1.5679   -0.3509    1.2006 C   0  0  1  0  0  0  0  0  0  0  0  0
   -0.9303   -0.7420    2.0015 H   0  0  0  0  0  0  0  0  0  0  0  0
   -0.6392   -0.4334   -0.0442 C   0  0  0  0  0  0  0  0  0  0  0  0
    0.3953   -0.4562    0.3164 H   0  0  0  0  0  0  0  0  0  0  0  0
   -0.8145   -1.4058   -0.5177 H   0  0  0  0  0  0  0  0  0  0  0  0
   -0.7009    0.6357   -1.1612 C   0  0  0  0  0  0  0  0  0  0  0  0
    0.0056    1.4222   -0.8734 H   0  0  0  0  0  0  0  0  0  0  0  0
   -0.3352    0.2021   -2.0985 H   0  0  0  0  0  0  0  0  0  0  0  0
   -2.0634    1.2970   -1.4021 C   0  0  0  0  0  0  0  0  0  0  0  0
   -2.6731    1.2658   -0.5077 H   0  0  0  0  0  0  0  0  0  0  0  0
   -2.5987    0.7124   -2.1585 H   0  0  0  0  0  0  0  0  0  0  0  0
   -1.9071    2.6857   -1.8757 N   0  3  0  0  0  0  0  0  0  0  0  0
   -1.2427    2.8415   -2.6323 H   0  0  0  0  0  0  0  0  0  0  0  0
   -2.6290    3.6844   -1.4500 C   0  0  0  0  0  0  0  0  0  0  0  0
   -3.5566    3.5535   -0.4426 N   0  0  0  0  0  0  0  0  0  0  0  0
   -3.4800    2.7284    0.1621 H   0  0  0  0  0  0  0  0  0  0  0  0
   -3.9239    4.3988   -0.0144 H   0  0  0  0  0  0  0  0  0  0  0  0
   -2.4716    4.9216   -2.0282 N   0  0  0  0  0  0  0  0  0  0  0  0
   -1.9393    4.9920   -2.8928 H   0  0  0  0  0  0  0  0  0  0  0  0
   -3.1801    5.6302   -1.8470 H   0  0  0  0  0  0  0  0  0  0  0  0
   -1.9160    1.0418    1.7740 C   0  0  0  0  0  0  0  0  0  0  0  0
   -2.9992    1.5718    1.5399 O   0  0  0  0  0  0  0  0  0  0  0  0
   -1.0735    1.6386    2.6939 N   0  0  0  0  0  0  0  0  0  0  0  0
   -0.2609    1.1008    2.9907 H   0  0  0  0  0  0  0  0  0  0  0  0
   -1.4391    2.8133    3.4798 C   0  0  0  0  0  0  0  0  0  0  0  0
   -2.2843    2.5863    4.1384 H   0  0  0  0  0  0  0  0  0  0  0  0
   -0.5948    3.1304    4.1003 H   0  0  0  0  0  0  0  0  0  0  0  0
   -1.7148    3.6470    2.8261 H   0  0  0  0  0  0  0  0  0  0  0  0
  1  2  1  0  0  0  0
  2  3  1  0  0  0  0
  2  4  1  0  0  0  0
  2  5  1  0  0  0  0
  5  6  2  0  0  0  0
  5  7  1  0  0  0  0
  7  8  1  0  0  0  0
  7  9  1  0  0  0  0
  9 10  1  0  0  0  0
  9 11  1  0  0  0  0
  9 29  1  0  0  0  0
 11 12  1  0  0  0  0
 11 13  1  0  0  0  0
 11 14  1  0  0  0  0
 14 15  1  0  0  0  0
 14 16  1  0  0  0  0
 14 17  1  0  0  0  0
 17 18  1  0  0  0  0
 17 19  1  0  0  0  0
 17 20  1  0  0  0  0
 20 21  1  0  0  0  0
 20 22  2  0  0  0  0
 22 23  1  0  0  0  0
 22 26  1  0  0  0  0
 23 24  1  0  0  0  0
 23 25  1  0  0  0  0
 26 27  1  0  0  0  0
 26 28  1  0  0  0  0
 29 30  2  0  0  0  0
 29 31  1  0  0  0  0
 31 32  1  0  0  0  0
 31 33  1  0  0  0  0
 33 34  1  0  0  0  0
 33 35  1  0  0  0  0
 33 36  1  0  0  0  0
M  CHG  1  20   1
M  END
$$$$

  -OEChem-03222214013D

 36 35  0     1  0  0  0  0  0999 V2000
   -3.8840   -4.2958    1.7893 H   0  0  0  0  0  0  0  0  0  0  0  0
   -4.0213   -3.2301    1.5841 C   0  0  0  0  0  0  0  0  0  0  0  0
   -4.5768   -2.7828    2.4119 H   0  0  0  0  0  0  0  0  0  0  0  0
   -4.5993   -3.1213    0.6634 H   0  0  0  0  0  0  0  0  0  0  0  0
   -2.6729   -2.5516    1.4346 C   0  0  0  0  0  0  0  0  0  0  0  0
   -1.6479   -3.2104    1.4923 O   0  0  0  0  0  0  0  0  0  0  0  0
   -2.6023   -1.1864    1.2270 N   0  0  0  0  0  0  0  0  0  0  0  0
   -3.4755   -0.6695    1.3090 H   0  0  0  0  0  0  0  0  0  0  0  0
   -1.3510   -0.4108    1.2699 C   0  0  1  0  0  0  0  0  0  0  0  0
   -0.6603   -0.9917    1.8918 H   0  0  0  0  0  0  0  0  0  0  0  0
   -0.6782   -0.4034   -0.1438 C   0  0  0  0  0  0  0  0  0  0  0  0
    0.3795   -0.6435    0.0103 H   0  0  0  0  0  0  0  0  0  0  0  0
   -1.0922   -1.2455   -0.7097 H   0  0  0  0  0  0  0  0  0  0  0  0
   -0.7110    0.8358   -1.0789 C   0  0  0  0  0  0  0  0  0  0  0  0
    0.2809    1.3005   -1.0864 H   0  0  0  0  0  0  0  0  0  0  0  0
   -0.9165    0.4877   -2.0969 H   0  0  0  0  0  0  0  0  0  0  0  0
   -1.7288    1.8938   -0.6930 C   0  0  0  0  0  0  0  0  0  0  0  0
   -2.6725    1.3917   -0.4516 H   0  0  0  0  0  0  0  0  0  0  0  0
   -1.3616    2.4019    0.2035 H   0  0  0  0  0  0  0  0  0  0  0  0
   -1.9808    2.9137   -1.7189 N   0  3  0  0  0  0  0  0  0  0  0  0
   -1.6321    2.7497   -2.6621 H   0  0  0  0  0  0  0  0  0  0  0  0
   -2.7129    3.9568   -1.4498 C   0  0  0  0  0  0  0  0  0  0  0  0
   -3.2322    4.1567   -0.1865 N   0  0  0  0  0  0  0  0  0  0  0  0
   -3.1327    3.4029    0.4993 H   0  0  0  0  0  0  0  0  0  0  0  0
   -3.9970    4.8161   -0.0642 H   0  0  0  0  0  0  0  0  0  0  0  0
   -2.9837    4.8774   -2.4336 N   0  0  0  0  0  0  0  0  0  0  0  0
   -2.4541    4.8335   -3.3018 H   0  0  0  0  0  0  0  0  0  0  0  0
   -3.3778    5.7754   -2.1595 H   0  0  0  0  0  0  0  0  0  0  0  0
   -1.4962    0.9041    2.0736 C   0  0  0  0  0  0  0  0  0  0  0  0
   -2.5225    1.5800    1.9890 O   0  0  0  0  0  0  0  0  0  0  0  0
   -0.5238    1.2751    2.9831 N   0  0  0  0  0  0  0  0  0  0  0  0
    0.2468    0.6261    3.1311 H   0  0  0  0  0  0  0  0  0  0  0  0
   -0.6791    2.3841    3.9191 C   0  0  0  0  0  0  0  0  0  0  0  0
   -1.5187    2.1994    4.5977 H   0  0  0  0  0  0  0  0  0  0  0  0
    0.2289    2.5021    4.5187 H   0  0  0  0  0  0  0  0  0  0  0  0
   -0.8585    3.3213    3.3822 H   0  0  0  0  0  0  0  0  0  0  0  0
  1  2  1  0  0  0  0
  2  3  1  0  0  0  0
  2  4  1  0  0  0  0
  2  5  1  0  0  0  0
  5  6  2  0  0  0  0
  5  7  1  0  0  0  0
  7  8  1  0  0  0  0
  7  9  1  0  0  0  0
  9 10  1  0  0  0  0
  9 11  1  0  0  0  0
  9 29  1  0  0  0  0
 11 12  1  0  0  0  0
 11 13  1  0  0  0  0
 11 14  1  0  0  0  0
 14 15  1  0  0  0  0
 14 16  1  0  0  0  0
 14 17  1  0  0  0  0
 17 18  1  0  0  0  0
 17 19  1  0  0  0  0
 17 20  1  0  0  0  0
 20 21  1  0  0  0  0
 20 22  2  0  0  0  0
 22 23  1  0  0  0  0
 22 26  1  0  0  0  0
 23 24  1  0  0  0  0
 23 25  1  0  0  0  0
 26 27  1  0  0  0  0
 26 28  1  0  0  0  0
 29 30  2  0  0  0  0
 29 31  1  0  0  0  0
 31 32  1  0  0  0  0
 31 33  1  0  0  0  0
 33 34  1  0  0  0  0
 33 35  1  0  0  0  0
 33 36  1  0  0  0  0
M  CHG  1  20   1
M  END
$$$$

  -OEChem-03222214013D

 36 35  0     1  0  0  0  0  0999 V2000
   -3.9262   -4.2294    1.7664 H   0  0  0  0  0  0  0  0  0  0  0  0
   -4.0383   -3.1504    1.6265 C   0  0  0  0  0  0  0  0  0  0  0  0
   -4.5591   -2.7369    2.4934 H   0  0  0  0  0  0  0  0  0  0  0  0
   -4.6369   -2.9729    0.7301 H   0  0  0  0  0  0  0  0  0  0  0  0
   -2.6761   -2.5006    1.4790 C   0  0  0  0  0  0  0  0  0  0  0  0
   -1.6655   -3.1827    1.5174 O   0  0  0  0  0  0  0  0  0  0  0  0
   -2.5769   -1.1338    1.2957 N   0  0  0  0  0  0  0  0  0  0  0  0
   -3.4398   -0.5990    1.3740 H   0  0  0  0  0  0  0  0  0  0  0  0
   -1.3092   -0.3852    1.3121 C   0  0  1  0  0  0  0  0  0  0  0  0
   -0.6174   -0.9919    1.9078 H   0  0  0  0  0  0  0  0  0  0  0  0
   -0.6762   -0.3941   -0.1226 C   0  0  0  0  0  0  0  0  0  0  0  0
    0.3831   -0.6314    0.0245 H   0  0  0  0  0  0  0  0  0  0  0  0
   -1.0932   -1.2446   -0.6740 H   0  0  0  0  0  0  0  0  0  0  0  0
   -0.6990    0.8358   -1.0745 C   0  0  0  0  0  0  0  0  0  0  0  0
    0.3303    1.0936   -1.3465 H   0  0  0  0  0  0  0  0  0  0  0  0
   -1.2131    0.5371   -1.9947 H   0  0  0  0  0  0  0  0  0  0  0  0
   -1.3854    2.0695   -0.5229 C   0  0  0  0  0  0  0  0  0  0  0  0
   -2.3738    1.7593   -0.1679 H   0  0  0  0  0  0  0  0  0  0  0  0
   -0.8050    2.4433    0.3272 H   0  0  0  0  0  0  0  0  0  0  0  0
   -1.5689    3.1614   -1.4869 N   0  3  0  0  0  0  0  0  0  0  0  0
   -1.0308    3.1406   -2.3517 H   0  0  0  0  0  0  0  0  0  0  0  0
   -2.3439    4.1697   -1.2054 C   0  0  0  0  0  0  0  0  0  0  0  0
   -3.0425    4.2231   -0.0156 N   0  0  0  0  0  0  0  0  0  0  0  0
   -2.8530    3.5064    0.6913 H   0  0  0  0  0  0  0  0  0  0  0  0
   -3.4348    5.1096    0.2926 H   0  0  0  0  0  0  0  0  0  0  0  0
   -2.4715    5.2067   -2.0982 N   0  0  0  0  0  0  0  0  0  0  0  0
   -2.1095    5.0851   -3.0419 H   0  0  0  0  0  0  0  0  0  0  0  0
   -3.2289    5.8730   -1.9590 H   0  0  0  0  0  0  0  0  0  0  0  0
   -1.3917    0.9190    2.1435 C   0  0  0  0  0  0  0  0  0  0  0  0
   -2.3840    1.6458    2.0839 O   0  0  0  0  0  0  0  0  0  0  0  0
   -0.3771    1.2466    3.0238 N   0  0  0  0  0  0  0  0  0  0  0  0
    0.3633    0.5593    3.1522 H   0  0  0  0  0  0  0  0  0  0  0  0
   -0.4662    2.3450    3.9810 C   0  0  0  0  0  0  0  0  0  0  0  0
   -1.2512    2.1483    4.7191 H   0  0  0  0  0  0  0  0  0  0  0  0
    0.4844    2.4621    4.5109 H   0  0  0  0  0  0  0  0  0  0  0  0
   -0.6904    3.2874    3.4708 H   0  0  0  0  0  0  0  0  0  0  0  0
  1  2  1  0  0  0  0
  2  3  1  0  0  0  0
  2  4  1  0  0  0  0
  2  5  1  0  0  0  0
  5  6  2  0  0  0  0
  5  7  1  0  0  0  0
  7  8  1  0  0  0  0
  7  9  1  0  0  0  0
  9 10  1  0  0  0  0
  9 11  1  0  0  0  0
  9 29  1  0  0  0  0
 11 12  1  0  0  0  0
 11 13  1  0  0  0  0
 11 14  1  0  0  0  0
 14 15  1  0  0  0  0
 14 16  1  0  0  0  0
 14 17  1  0  0  0  0
 17 18  1  0  0  0  0
 17 19  1  0  0  0  0
 17 20  1  0  0  0  0
 20 21  1  0  0  0  0
 20 22  2  0  0  0  0
 22 23  1  0  0  0  0
 22 26  1  0  0  0  0
 23 24  1  0  0  0  0
 23 25  1  0  0  0  0
 26 27  1  0  0  0  0
 26 28  1  0  0  0  0
 29 30  2  0  0  0  0
 29 31  1  0  0  0  0
 31 32  1  0  0  0  0
 31 33  1  0  0  0  0
 33 34  1  0  0  0  0
 33 35  1  0  0  0  0
 33 36  1  0  0  0  0
M  CHG  1  20   1
M  END
$$$$

  -OEChem-03222214013D

 36 35  0     1  0  0  0  0  0999 V2000
   -4.5813   -3.5419    1.4683 H   0  0  0  0  0  0  0  0  0  0  0  0
   -4.4807   -2.4567    1.3750 C   0  0  0  0  0  0  0  0  0  0  0  0
   -4.9816   -1.9835    2.2229 H   0  0  0  0  0  0  0  0  0  0  0  0
   -4.9645   -2.1385    0.4489 H   0  0  0  0  0  0  0  0  0  0  0  0
   -3.0143   -2.0699    1.3577 C   0  0  0  0  0  0  0  0  0  0  0  0
   -2.1571   -2.9180    1.5403 O   0  0  0  0  0  0  0  0  0  0  0  0
   -2.6465   -0.7542    1.1436 N   0  0  0  0  0  0  0  0  0  0  0  0
   -3.4002   -0.0710    1.1102 H   0  0  0  0  0  0  0  0  0  0  0  0
   -1.2762   -0.2422    1.3128 C   0  0  1  0  0  0  0  0  0  0  0  0
   -0.7972   -0.9295    2.0196 H   0  0  0  0  0  0  0  0  0  0  0  0
   -0.4646   -0.4333   -0.0027 C   0  0  0  0  0  0  0  0  0  0  0  0
    0.5027   -0.8298    0.3256 H   0  0  0  0  0  0  0  0  0  0  0  0
   -0.9307   -1.2419   -0.5766 H   0  0  0  0  0  0  0  0  0  0  0  0
   -0.1087    0.7017   -1.0070 C   0  0  0  0  0  0  0  0  0  0  0  0
    0.9369    0.5436   -1.2943 H   0  0  0  0  0  0  0  0  0  0  0  0
   -0.6954    0.5242   -1.9146 H   0  0  0  0  0  0  0  0  0  0  0  0
   -0.2376    2.1865   -0.6330 C   0  0  0  0  0  0  0  0  0  0  0  0
    0.6288    2.7153   -1.0459 H   0  0  0  0  0  0  0  0  0  0  0  0
   -0.2060    2.3312    0.4463 H   0  0  0  0  0  0  0  0  0  0  0  0
   -1.4587    2.7613   -1.2400 N   0  3  0  0  0  0  0  0  0  0  0  0
   -1.7311    2.3892   -2.1476 H   0  0  0  0  0  0  0  0  0  0  0  0
   -2.0843    3.8108   -0.7876 C   0  0  0  0  0  0  0  0  0  0  0  0
   -1.7932    4.3644    0.4338 N   0  0  0  0  0  0  0  0  0  0  0  0
   -1.4922    3.6772    1.1308 H   0  0  0  0  0  0  0  0  0  0  0  0
   -2.4357    5.0732    0.7759 H   0  0  0  0  0  0  0  0  0  0  0  0
   -3.0683    4.3922   -1.5519 N   0  0  0  0  0  0  0  0  0  0  0  0
   -3.1650    4.1095   -2.5247 H   0  0  0  0  0  0  0  0  0  0  0  0
   -3.4116    5.3125   -1.2840 H   0  0  0  0  0  0  0  0  0  0  0  0
   -1.2136    1.0930    2.0738 C   0  0  0  0  0  0  0  0  0  0  0  0
   -2.0424    1.9721    1.8605 O   0  0  0  0  0  0  0  0  0  0  0  0
   -0.2778    1.2854    3.0726 N   0  0  0  0  0  0  0  0  0  0  0  0
    0.3068    0.4871    3.3149 H   0  0  0  0  0  0  0  0  0  0  0  0
   -0.2962    2.4207    3.9899 C   0  0  0  0  0  0  0  0  0  0  0  0
   -1.2225    2.4271    4.5747 H   0  0  0  0  0  0  0  0  0  0  0  0
    0.5482    2.3580    4.6841 H   0  0  0  0  0  0  0  0  0  0  0  0
   -0.2177    3.3645    3.4410 H   0  0  0  0  0  0  0  0  0  0  0  0
  1  2  1  0  0  0  0
  2  3  1  0  0  0  0
  2  4  1  0  0  0  0
  2  5  1  0  0  0  0
  5  6  2  0  0  0  0
  5  7  1  0  0  0  0
  7  8  1  0  0  0  0
  7  9  1  0  0  0  0
  9 10  1  0  0  0  0
  9 11  1  0  0  0  0
  9 29  1  0  0  0  0
 11 12  1  0  0  0  0
 11 13  1  0  0  0  0
 11 14  1  0  0  0  0
 14 15  1  0  0  0  0
 14 16  1  0  0  0  0
 14 17  1  0  0  0  0
 17 18  1  0  0  0  0
 17 19  1  0  0  0  0
 17 20  1  0  0  0  0
 20 21  1  0  0  0  0
 20 22  2  0  0  0  0
 22 23  1  0  0  0  0
 22 26  1  0  0  0  0
 23 24  1  0  0  0  0
 23 25  1  0  0  0  0
 26 27  1  0  0  0  0
 26 28  1  0  0  0  0
 29 30  2  0  0  0  0
 29 31  1  0  0  0  0
 31 32  1  0  0  0  0
 31 33  1  0  0  0  0
 33 34  1  0  0  0  0
 33 35  1  0  0  0  0
 33 36  1  0  0  0  0
M  CHG  1  20   1
M  END
$$$$

  -OEChem-03222214013D

 36 35  0     1  0  0  0  0  0999 V2000
   -4.6011   -3.6060    1.3101 H   0  0  0  0  0  0  0  0  0  0  0  0
   -4.4738   -2.5231    1.2227 C   0  0  0  0  0  0  0  0  0  0  0  0
   -5.0038   -2.0398    2.0468 H   0  0  0  0  0  0  0  0  0  0  0  0
   -4.9071   -2.1946    0.2752 H   0  0  0  0  0  0  0  0  0  0  0  0
   -3.0006   -2.1660    1.2725 C   0  0  0  0  0  0  0  0  0  0  0  0
   -2.1637   -3.0392    1.4295 O   0  0  0  0  0  0  0  0  0  0  0  0
   -2.6017   -0.8491    1.1411 N   0  0  0  0  0  0  0  0  0  0  0  0
   -3.3383   -0.1464    1.1269 H   0  0  0  0  0  0  0  0  0  0  0  0
   -1.2201   -0.3832    1.3506 C   0  0  1  0  0  0  0  0  0  0  0  0
   -0.6991   -1.1223    1.9701 H   0  0  0  0  0  0  0  0  0  0  0  0
   -0.5045   -0.3885   -0.0379 C   0  0  0  0  0  0  0  0  0  0  0  0
    0.4732   -0.8394    0.1632 H   0  0  0  0  0  0  0  0  0  0  0  0
   -1.0241   -1.0946   -0.6958 H   0  0  0  0  0  0  0  0  0  0  0  0
   -0.1820    0.8783   -0.8795 C   0  0  0  0  0  0  0  0  0  0  0  0
    0.6515    0.6445   -1.5509 H   0  0  0  0  0  0  0  0  0  0  0  0
   -1.0638    1.0280   -1.5121 H   0  0  0  0  0  0  0  0  0  0  0  0
    0.1044    2.2254   -0.1986 C   0  0  0  0  0  0  0  0  0  0  0  0
    1.1624    2.2594    0.0844 H   0  0  0  0  0  0  0  0  0  0  0  0
   -0.4640    2.3600    0.7104 H   0  0  0  0  0  0  0  0  0  0  0  0
   -0.2106    3.3380   -1.1130 N   0  3  0  0  0  0  0  0  0  0  0  0
    0.3967    3.4616   -1.9221 H   0  0  0  0  0  0  0  0  0  0  0  0
   -1.2168    4.1484   -0.9355 C   0  0  0  0  0  0  0  0  0  0  0  0
   -2.0836    4.0341    0.1296 N   0  0  0  0  0  0  0  0  0  0  0  0
   -2.0218    3.2045    0.7302 H   0  0  0  0  0  0  0  0  0  0  0  0
   -2.9685    4.5338    0.1058 H   0  0  0  0  0  0  0  0  0  0  0  0
   -1.4317    5.1594   -1.8415 N   0  0  0  0  0  0  0  0  0  0  0  0
   -0.7021    5.3719   -2.5190 H   0  0  0  0  0  0  0  0  0  0  0  0
   -2.0792    5.9034   -1.5883 H   0  0  0  0  0  0  0  0  0  0  0  0
   -1.2475    0.9001    2.2004 C   0  0  0  0  0  0  0  0  0  0  0  0
   -2.0829    1.7730    1.9602 O   0  0  0  0  0  0  0  0  0  0  0  0
   -0.3717    1.0685    3.2555 N   0  0  0  0  0  0  0  0  0  0  0  0
    0.2129    0.2720    3.5031 H   0  0  0  0  0  0  0  0  0  0  0  0
   -0.4572    2.1777    4.2004 C   0  0  0  0  0  0  0  0  0  0  0  0
   -1.4168    2.1600    4.7283 H   0  0  0  0  0  0  0  0  0  0  0  0
   -0.3578    3.1368    3.6818 H   0  0  0  0  0  0  0  0  0  0  0  0
    0.3448    2.1052    4.9421 H   0  0  0  0  0  0  0  0  0  0  0  0
  1  2  1  0  0  0  0
  2  3  1  0  0  0  0
  2  4  1  0  0  0  0
  2  5  1  0  0  0  0
  5  6  2  0  0  0  0
  5  7  1  0  0  0  0
  7  8  1  0  0  0  0
  7  9  1  0  0  0  0
  9 10  1  0  0  0  0
  9 11  1  0  0  0  0
  9 29  1  0  0  0  0
 11 12  1  0  0  0  0
 11 13  1  0  0  0  0
 11 14  1  0  0  0  0
 14 15  1  0  0  0  0
 14 16  1  0  0  0  0
 14 17  1  0  0  0  0
 17 18  1  0  0  0  0
 17 19  1  0  0  0  0
 17 20  1  0  0  0  0
 20 21  1  0  0  0  0
 20 22  2  0  0  0  0
 22 23  1  0  0  0  0
 22 26  1  0  0  0  0
 23 24  1  0  0  0  0
 23 25  1  0  0  0  0
 26 27  1  0  0  0  0
 26 28  1  0  0  0  0
 29 30  2  0  0  0  0
 29 31  1  0  0  0  0
 31 32  1  0  0  0  0
 31 33  1  0  0  0  0
 33 34  1  0  0  0  0
 33 35  1  0  0  0  0
 33 36  1  0  0  0  0
M  CHG  1  20   1
M  END
$$$$

  -OEChem-03222214013D

 36 35  0     1  0  0  0  0  0999 V2000
   -4.5978   -3.6100    1.3762 H   0  0  0  0  0  0  0  0  0  0  0  0
   -4.4634   -2.5296    1.2713 C   0  0  0  0  0  0  0  0  0  0  0  0
   -4.9934   -2.0295    2.0854 H   0  0  0  0  0  0  0  0  0  0  0  0
   -4.8914   -2.2147    0.3168 H   0  0  0  0  0  0  0  0  0  0  0  0
   -2.9878   -2.1824    1.3203 C   0  0  0  0  0  0  0  0  0  0  0  0
   -2.1600   -3.0566    1.5153 O   0  0  0  0  0  0  0  0  0  0  0  0
   -2.5739   -0.8760    1.1398 N   0  0  0  0  0  0  0  0  0  0  0  0
   -3.3001   -0.1655    1.0709 H   0  0  0  0  0  0  0  0  0  0  0  0
   -1.1807   -0.4231    1.2921 C   0  0  1  0  0  0  0  0  0  0  0  0
   -0.6371   -1.1566    1.8984 H   0  0  0  0  0  0  0  0  0  0  0  0
   -0.5315   -0.4362   -0.1265 C   0  0  0  0  0  0  0  0  0  0  0  0
    0.4492   -0.9048    0.0095 H   0  0  0  0  0  0  0  0  0  0  0  0
   -1.1008   -1.1171   -0.7693 H   0  0  0  0  0  0  0  0  0  0  0  0
   -0.2590    0.8568   -0.9389 C   0  0  0  0  0  0  0  0  0  0  0  0
    0.3590    0.5920   -1.8036 H   0  0  0  0  0  0  0  0  0  0  0  0
   -1.2315    1.1802   -1.3254 H   0  0  0  0  0  0  0  0  0  0  0  0
    0.3814    2.0652   -0.2363 C   0  0  0  0  0  0  0  0  0  0  0  0
   -0.0573    2.2689    0.7353 H   0  0  0  0  0  0  0  0  0  0  0  0
    1.4424    1.8523   -0.0650 H   0  0  0  0  0  0  0  0  0  0  0  0
    0.2389    3.2645   -1.0824 N   0  3  0  0  0  0  0  0  0  0  0  0
    0.8653    3.3447   -1.8820 H   0  0  0  0  0  0  0  0  0  0  0  0
   -0.6370    4.2044   -0.8605 C   0  0  0  0  0  0  0  0  0  0  0  0
   -1.5287    4.1550    0.1874 N   0  0  0  0  0  0  0  0  0  0  0  0
   -1.6142    3.2793    0.7155 H   0  0  0  0  0  0  0  0  0  0  0  0
   -2.3345    4.7746    0.1769 H   0  0  0  0  0  0  0  0  0  0  0  0
   -0.6834    5.2918   -1.7002 N   0  0  0  0  0  0  0  0  0  0  0  0
    0.0830    5.4367   -2.3544 H   0  0  0  0  0  0  0  0  0  0  0  0
   -1.2160    6.1070   -1.4023 H   0  0  0  0  0  0  0  0  0  0  0  0
   -1.1599    0.8825    2.1049 C   0  0  0  0  0  0  0  0  0  0  0  0
   -1.9237    1.8014    1.8096 O   0  0  0  0  0  0  0  0  0  0  0  0
   -0.2452    1.0615    3.1251 N   0  0  0  0  0  0  0  0  0  0  0  0
    0.2928    0.2448    3.4105 H   0  0  0  0  0  0  0  0  0  0  0  0
   -0.2391    2.2281    4.0019 C   0  0  0  0  0  0  0  0  0  0  0  0
   -1.1812    2.2969    4.5566 H   0  0  0  0  0  0  0  0  0  0  0  0
    0.5812    2.1536    4.7231 H   0  0  0  0  0  0  0  0  0  0  0  0
   -0.1030    3.1470    3.4225 H   0  0  0  0  0  0  0  0  0  0  0  0
  1  2  1  0  0  0  0
  2  3  1  0  0  0  0
  2  4  1  0  0  0  0
  2  5  1  0  0  0  0
  5  6  2  0  0  0  0
  5  7  1  0  0  0  0
  7  8  1  0  0  0  0
  7  9  1  0  0  0  0
  9 10  1  0  0  0  0
  9 11  1  0  0  0  0
  9 29  1  0  0  0  0
 11 12  1  0  0  0  0
 11 13  1  0  0  0  0
 11 14  1  0  0  0  0
 14 15  1  0  0  0  0
 14 16  1  0  0  0  0
 14 17  1  0  0  0  0
 17 18  1  0  0  0  0
 17 19  1  0  0  0  0
 17 20  1  0  0  0  0
 20 21  1  0  0  0  0
 20 22  2  0  0  0  0
 22 23  1  0  0  0  0
 22 26  1  0  0  0  0
 23 24  1  0  0  0  0
 23 25  1  0  0  0  0
 26 27  1  0  0  0  0
 26 28  1  0  0  0  0
 29 30  2  0  0  0  0
 29 31  1  0  0  0  0
 31 32  1  0  0  0  0
 31 33  1  0  0  0  0
 33 34  1  0  0  0  0
 33 35  1  0  0  0  0
 33 36  1  0  0  0  0
M  CHG  1  20   1
M  END
$$$$

  -OEChem-03222214013D

 36 35  0     1  0  0  0  0  0999 V2000
   -4.5329   -3.6238    1.5381 H   0  0  0  0  0  0  0  0  0  0  0  0
   -4.4042   -2.5513    1.3656 C   0  0  0  0  0  0  0  0  0  0  0  0
   -4.9462   -2.0033    2.1402 H   0  0  0  0  0  0  0  0  0  0  0  0
   -4.8232   -2.3010    0.3882 H   0  0  0  0  0  0  0  0  0  0  0  0
   -2.9319   -2.1905    1.4079 C   0  0  0  0  0  0  0  0  0  0  0  0
   -2.1004   -3.0403    1.6800 O   0  0  0  0  0  0  0  0  0  0  0  0
   -2.5264   -0.8967    1.1395 N   0  0  0  0  0  0  0  0  0  0  0  0
   -3.2565   -0.2031    0.9899 H   0  0  0  0  0  0  0  0  0  0  0  0
   -1.1378   -0.4232    1.2620 C   0  0  1  0  0  0  0  0  0  0  0  0
   -0.5844   -1.1153    1.9068 H   0  0  0  0  0  0  0  0  0  0  0  0
   -0.4954   -0.5063   -0.1554 C   0  0  0  0  0  0  0  0  0  0  0  0
    0.4885   -0.9702   -0.0277 H   0  0  0  0  0  0  0  0  0  0  0  0
   -1.0793   -1.2007   -0.7703 H   0  0  0  0  0  0  0  0  0  0  0  0
   -0.2717    0.7824   -0.9788 C   0  0  0  0  0  0  0  0  0  0  0  0
    0.1439    0.4964   -1.9509 H   0  0  0  0  0  0  0  0  0  0  0  0
   -1.2544    1.2292   -1.1642 H   0  0  0  0  0  0  0  0  0  0  0  0
    0.6454    1.8440   -0.3521 C   0  0  0  0  0  0  0  0  0  0  0  0
    0.3344    2.1122    0.6573 H   0  0  0  0  0  0  0  0  0  0  0  0
    1.6604    1.4382   -0.2767 H   0  0  0  0  0  0  0  0  0  0  0  0
    0.6499    3.0523   -1.1975 N   0  3  0  0  0  0  0  0  0  0  0  0
    1.2819    3.0529   -1.9970 H   0  0  0  0  0  0  0  0  0  0  0  0
   -0.0994    4.0963   -0.9779 C   0  0  0  0  0  0  0  0  0  0  0  0
   -0.9960    4.1608    0.0644 N   0  0  0  0  0  0  0  0  0  0  0  0
   -1.2146    3.2938    0.5675 H   0  0  0  0  0  0  0  0  0  0  0  0
   -1.7174    4.8766    0.0428 H   0  0  0  0  0  0  0  0  0  0  0  0
   -0.0006    5.1804   -1.8171 N   0  0  0  0  0  0  0  0  0  0  0  0
    0.7803    5.2247   -2.4687 H   0  0  0  0  0  0  0  0  0  0  0  0
   -0.4284    6.0570   -1.5249 H   0  0  0  0  0  0  0  0  0  0  0  0
   -1.1060    0.9368    1.9825 C   0  0  0  0  0  0  0  0  0  0  0  0
   -1.8110    1.8633    1.5868 O   0  0  0  0  0  0  0  0  0  0  0  0
   -0.1826    1.1758    2.9829 N   0  0  0  0  0  0  0  0  0  0  0  0
    0.3164    0.3655    3.3472 H   0  0  0  0  0  0  0  0  0  0  0  0
   -0.1573    2.4047    3.7703 C   0  0  0  0  0  0  0  0  0  0  0  0
   -1.1110    2.5476    4.2903 H   0  0  0  0  0  0  0  0  0  0  0  0
    0.6392    2.3570    4.5199 H   0  0  0  0  0  0  0  0  0  0  0  0
    0.0280    3.2718    3.1283 H   0  0  0  0  0  0  0  0  0  0  0  0
  1  2  1  0  0  0  0
  2  3  1  0  0  0  0
  2  4  1  0  0  0  0
  2  5  1  0  0  0  0
  5  6  2  0  0  0  0
  5  7  1  0  0  0  0
  7  8  1  0  0  0  0
  7  9  1  0  0  0  0
  9 10  1  0  0  0  0
  9 11  1  0  0  0  0
  9 29  1  0  0  0  0
 11 12  1  0  0  0  0
 11 13  1  0  0  0  0
 11 14  1  0  0  0  0
 14 15  1  0  0  0  0
 14 16  1  0  0  0  0
 14 17  1  0  0  0  0
 17 18  1  0  0  0  0
 17 19  1  0  0  0  0
 17 20  1  0  0  0  0
 20 21  1  0  0  0  0
 20 22  2  0  0  0  0
 22 23  1  0  0  0  0
 22 26  1  0  0  0  0
 23 24  1  0  0  0  0
 23 25  1  0  0  0  0
 26 27  1  0  0  0  0
 26 28  1  0  0  0  0
 29 30  2  0  0  0  0
 29 31  1  0  0  0  0
 31 32  1  0  0  0  0
 31 33  1  0  0  0  0
 33 34  1  0  0  0  0
 33 35  1  0  0  0  0
 33 36  1  0  0  0  0
M  CHG  1  20   1
M  END
$$$$

  -OEChem-03222214013D

 36 35  0     1  0  0  0  0  0999 V2000
   -4.1275   -4.0411    1.9009 H   0  0  0  0  0  0  0  0  0  0  0  0
   -4.1360   -3.0251    1.4958 C   0  0  0  0  0  0  0  0  0  0  0  0
   -4.8103   -2.4126    2.0993 H   0  0  0  0  0  0  0  0  0  0  0  0
   -4.5063   -3.0598    0.4684 H   0  0  0  0  0  0  0  0  0  0  0  0
   -2.7364   -2.4412    1.5246 C   0  0  0  0  0  0  0  0  0  0  0  0
   -1.7997   -3.1154    1.9209 O   0  0  0  0  0  0  0  0  0  0  0  0
   -2.5177   -1.1432    1.1041 N   0  0  0  0  0  0  0  0  0  0  0  0
   -3.3366   -0.5916    0.8528 H   0  0  0  0  0  0  0  0  0  0  0  0
   -1.2237   -0.4485    1.1935 C   0  0  1  0  0  0  0  0  0  0  0  0
   -0.6056   -0.9683    1.9337 H   0  0  0  0  0  0  0  0  0  0  0  0
   -0.5047   -0.6021   -0.1783 C   0  0  0  0  0  0  0  0  0  0  0  0
    0.5324   -0.8968    0.0138 H   0  0  0  0  0  0  0  0  0  0  0  0
   -0.9621   -1.4313   -0.7296 H   0  0  0  0  0  0  0  0  0  0  0  0
   -0.4828    0.6336   -1.0976 C   0  0  0  0  0  0  0  0  0  0  0  0
   -0.2042    0.3122   -2.1070 H   0  0  0  0  0  0  0  0  0  0  0  0
   -1.4966    1.0444   -1.1579 H   0  0  0  0  0  0  0  0  0  0  0  0
    0.5074    1.7107   -0.6448 C   0  0  0  0  0  0  0  0  0  0  0  0
    0.4052    1.8838    0.4293 H   0  0  0  0  0  0  0  0  0  0  0  0
    1.5291    1.3680   -0.8426 H   0  0  0  0  0  0  0  0  0  0  0  0
    0.2300    2.9622   -1.3717 N   0  3  0  0  0  0  0  0  0  0  0  0
   -0.5224    2.9385   -2.0587 H   0  0  0  0  0  0  0  0  0  0  0  0
    0.8048    4.0968   -1.0986 C   0  0  0  0  0  0  0  0  0  0  0  0
    1.7745    4.2019   -0.1278 N   0  0  0  0  0  0  0  0  0  0  0  0
    1.9142    3.4042    0.4885 H   0  0  0  0  0  0  0  0  0  0  0  0
    2.0155    5.1268    0.2220 H   0  0  0  0  0  0  0  0  0  0  0  0
    0.4398    5.2265   -1.7911 N   0  0  0  0  0  0  0  0  0  0  0  0
   -0.1551    5.1286   -2.6117 H   0  0  0  0  0  0  0  0  0  0  0  0
    1.0303    6.0532   -1.7231 H   0  0  0  0  0  0  0  0  0  0  0  0
   -1.3893    0.9871    1.7356 C   0  0  0  0  0  0  0  0  0  0  0  0
   -2.2165    1.7479    1.2464 O   0  0  0  0  0  0  0  0  0  0  0  0
   -0.5282    1.4640    2.7091 N   0  0  0  0  0  0  0  0  0  0  0  0
    0.0256    0.7616    3.1964 H   0  0  0  0  0  0  0  0  0  0  0  0
   -0.7470    2.7406    3.3834 C   0  0  0  0  0  0  0  0  0  0  0  0
   -1.7013    2.7303    3.9216 H   0  0  0  0  0  0  0  0  0  0  0  0
    0.0537    2.9307    4.1050 H   0  0  0  0  0  0  0  0  0  0  0  0
   -0.7615    3.5634    2.6612 H   0  0  0  0  0  0  0  0  0  0  0  0
  1  2  1  0  0  0  0
  2  3  1  0  0  0  0
  2  4  1  0  0  0  0
  2  5  1  0  0  0  0
  5  6  2  0  0  0  0
  5  7  1  0  0  0  0
  7  8  1  0  0  0  0
  7  9  1  0  0  0  0
  9 10  1  0  0  0  0
  9 11  1  0  0  0  0
  9 29  1  0  0  0  0
 11 12  1  0  0  0  0
 11 13  1  0  0  0  0
 11 14  1  0  0  0  0
 14 15  1  0  0  0  0
 14 16  1  0  0  0  0
 14 17  1  0  0  0  0
 17 18  1  0  0  0  0
 17 19  1  0  0  0  0
 17 20  1  0  0  0  0
 20 21  1  0  0  0  0
 20 22  2  0  0  0  0
 22 23  1  0  0  0  0
 22 26  1  0  0  0  0
 23 24  1  0  0  0  0
 23 25  1  0  0  0  0
 26 27  1  0  0  0  0
 26 28  1  0  0  0  0
 29 30  2  0  0  0  0
 29 31  1  0  0  0  0
 31 32  1  0  0  0  0
 31 33  1  0  0  0  0
 33 34  1  0  0  0  0
 33 35  1  0  0  0  0
 33 36  1  0  0  0  0
M  CHG  1  20   1
M  END
$$$$

  -OEChem-03222214013D

 36 35  0     1  0  0  0  0  0999 V2000
   -4.3844   -3.6082    1.4444 H   0  0  0  0  0  0  0  0  0  0  0  0
   -4.1894   -2.6828    0.8946 C   0  0  0  0  0  0  0  0  0  0  0  0
   -5.0018   -1.9797    1.0925 H   0  0  0  0  0  0  0  0  0  0  0  0
   -4.1627   -2.9090   -0.1739 H   0  0  0  0  0  0  0  0  0  0  0  0
   -2.8665   -2.0847    1.3333 C   0  0  0  0  0  0  0  0  0  0  0  0
   -2.1930   -2.6448    2.1823 O   0  0  0  0  0  0  0  0  0  0  0  0
   -2.4197   -0.9009    0.7746 N   0  0  0  0  0  0  0  0  0  0  0  0
   -3.0291   -0.4513    0.0942 H   0  0  0  0  0  0  0  0  0  0  0  0
   -1.1854   -0.2043    1.1727 C   0  0  1  0  0  0  0  0  0  0  0  0
   -0.9451   -0.5548    2.1825 H   0  0  0  0  0  0  0  0  0  0  0  0
   -0.0092   -0.7012    0.2841 C   0  0  0  0  0  0  0  0  0  0  0  0
    0.8387   -0.9324    0.9375 H   0  0  0  0  0  0  0  0  0  0  0  0
   -0.3029   -1.6510   -0.1772 H   0  0  0  0  0  0  0  0  0  0  0  0
    0.4908    0.2357   -0.8354 C   0  0  0  0  0  0  0  0  0  0  0  0
    0.9201   -0.4091   -1.6101 H   0  0  0  0  0  0  0  0  0  0  0  0
   -0.3488    0.7573   -1.3071 H   0  0  0  0  0  0  0  0  0  0  0  0
    1.6075    1.2041   -0.4166 C   0  0  0  0  0  0  0  0  0  0  0  0
    2.1335    0.8174    0.4633 H   0  0  0  0  0  0  0  0  0  0  0  0
    2.3398    1.2953   -1.2251 H   0  0  0  0  0  0  0  0  0  0  0  0
    1.0003    2.5141   -0.1276 N   0  3  0  0  0  0  0  0  0  0  0  0
    0.3800    2.5443    0.6834 H   0  0  0  0  0  0  0  0  0  0  0  0
    0.8022    3.4237   -1.0333 C   0  0  0  0  0  0  0  0  0  0  0  0
    1.5454    3.4909   -2.1892 N   0  0  0  0  0  0  0  0  0  0  0  0
    2.4123    2.9583   -2.2177 H   0  0  0  0  0  0  0  0  0  0  0  0
    1.4923    4.3408   -2.7466 H   0  0  0  0  0  0  0  0  0  0  0  0
   -0.2183    4.3166   -0.8258 N   0  0  0  0  0  0  0  0  0  0  0  0
   -0.9756    3.9772   -0.2262 H   0  0  0  0  0  0  0  0  0  0  0  0
   -0.4976    4.8903   -1.6180 H   0  0  0  0  0  0  0  0  0  0  0  0
   -1.3460    1.3197    1.3536 C   0  0  0  0  0  0  0  0  0  0  0  0
   -1.8050    2.0437    0.4743 O   0  0  0  0  0  0  0  0  0  0  0  0
   -0.7898    1.9321    2.4632 N   0  0  0  0  0  0  0  0  0  0  0  0
   -0.5069    1.3056    3.2172 H   0  0  0  0  0  0  0  0  0  0  0  0
   -1.0407    3.3270    2.8193 C   0  0  0  0  0  0  0  0  0  0  0  0
   -2.1175    3.5248    2.8672 H   0  0  0  0  0  0  0  0  0  0  0  0
   -0.6091    3.5480    3.8011 H   0  0  0  0  0  0  0  0  0  0  0  0
   -0.5897    4.0054    2.0890 H   0  0  0  0  0  0  0  0  0  0  0  0
  1  2  1  0  0  0  0
  2  3  1  0  0  0  0
  2  4  1  0  0  0  0
  2  5  1  0  0  0  0
  5  6  2  0  0  0  0
  5  7  1  0  0  0  0
  7  8  1  0  0  0  0
  7  9  1  0  0  0  0
  9 10  1  0  0  0  0
  9 11  1  0  0  0  0
  9 29  1  0  0  0  0
 11 12  1  0  0  0  0
 11 13  1  0  0  0  0
 11 14  1  0  0  0  0
 14 15  1  0  0  0  0
 14 16  1  0  0  0  0
 14 17  1  0  0  0  0
 17 18  1  0  0  0  0
 17 19  1  0  0  0  0
 17 20  1  0  0  0  0
 20 21  1  0  0  0  0
 20 22  2  0  0  0  0
 22 23  1  0  0  0  0
 22 26  1  0  0  0  0
 23 24  1  0  0  0  0
 23 25  1  0  0  0  0
 26 27  1  0  0  0  0
 26 28  1  0  0  0  0
 29 30  2  0  0  0  0
 29 31  1  0  0  0  0
 31 32  1  0  0  0  0
 31 33  1  0  0  0  0
 33 34  1  0  0  0  0
 33 35  1  0  0  0  0
 33 36  1  0  0  0  0
M  CHG  1  20   1
M  END
$$$$

  -OEChem-03222214013D

 36 35  0     1  0  0  0  0  0999 V2000
   -3.9166   -4.2199    1.7324 H   0  0  0  0  0  0  0  0  0  0  0  0
   -4.0037   -3.1863    1.3857 C   0  0  0  0  0  0  0  0  0  0  0  0
   -4.7064   -2.6568    2.0335 H   0  0  0  0  0  0  0  0  0  0  0  0
   -4.3907   -3.1891    0.3641 H   0  0  0  0  0  0  0  0  0  0  0  0
   -2.6479   -2.5081    1.4249 C   0  0  0  0  0  0  0  0  0  0  0  0
   -1.6583   -3.1358    1.7664 O   0  0  0  0  0  0  0  0  0  0  0  0
   -2.5266   -1.1801    1.0637 N   0  0  0  0  0  0  0  0  0  0  0  0
   -3.3898   -0.6721    0.8755 H   0  0  0  0  0  0  0  0  0  0  0  0
   -1.2961   -0.3886    1.2158 C   0  0  1  0  0  0  0  0  0  0  0  0
   -0.6833   -0.8916    1.9718 H   0  0  0  0  0  0  0  0  0  0  0  0
   -0.4766   -0.4478   -0.1017 C   0  0  0  0  0  0  0  0  0  0  0  0
    0.5639   -0.6766    0.1522 H   0  0  0  0  0  0  0  0  0  0  0  0
   -0.8349   -1.2950   -0.6973 H   0  0  0  0  0  0  0  0  0  0  0  0
   -0.5115    0.8150   -0.9875 C   0  0  0  0  0  0  0  0  0  0  0  0
   -0.6277    0.4928   -2.0281 H   0  0  0  0  0  0  0  0  0  0  0  0
   -1.3768    1.4444   -0.7688 H   0  0  0  0  0  0  0  0  0  0  0  0
    0.7920    1.6035   -0.8857 C   0  0  0  0  0  0  0  0  0  0  0  0
    0.9988    1.8238    0.1677 H   0  0  0  0  0  0  0  0  0  0  0  0
    1.6125    0.9953   -1.2808 H   0  0  0  0  0  0  0  0  0  0  0  0
    0.6532    2.8629   -1.6394 N   0  3  0  0  0  0  0  0  0  0  0  0
   -0.2706    3.2958   -1.6371 H   0  0  0  0  0  0  0  0  0  0  0  0
    1.6332    3.4653   -2.2483 C   0  0  0  0  0  0  0  0  0  0  0  0
    2.9163    2.9672   -2.2394 N   0  0  0  0  0  0  0  0  0  0  0  0
    3.1270    2.2080   -1.5951 H   0  0  0  0  0  0  0  0  0  0  0  0
    3.6784    3.5803   -2.5217 H   0  0  0  0  0  0  0  0  0  0  0  0
    1.3885    4.6386   -2.9207 N   0  0  0  0  0  0  0  0  0  0  0  0
    0.4220    4.9144   -3.0848 H   0  0  0  0  0  0  0  0  0  0  0  0
    2.0993    4.9900   -3.5598 H   0  0  0  0  0  0  0  0  0  0  0  0
   -1.5490    1.0147    1.8093 C   0  0  0  0  0  0  0  0  0  0  0  0
   -2.4834    1.6984    1.4084 O   0  0  0  0  0  0  0  0  0  0  0  0
   -0.7317    1.5047    2.8122 N   0  0  0  0  0  0  0  0  0  0  0  0
   -0.0825    0.8457    3.2360 H   0  0  0  0  0  0  0  0  0  0  0  0
   -1.0252    2.7388    3.5350 C   0  0  0  0  0  0  0  0  0  0  0  0
   -1.9866    2.6604    4.0542 H   0  0  0  0  0  0  0  0  0  0  0  0
   -0.2468    2.9370    4.2785 H   0  0  0  0  0  0  0  0  0  0  0  0
   -1.0667    3.5890    2.8461 H   0  0  0  0  0  0  0  0  0  0  0  0
  1  2  1  0  0  0  0
  2  3  1  0  0  0  0
  2  4  1  0  0  0  0
  2  5  1  0  0  0  0
  5  6  2  0  0  0  0
  5  7  1  0  0  0  0
  7  8  1  0  0  0  0
  7  9  1  0  0  0  0
  9 10  1  0  0  0  0
  9 11  1  0  0  0  0
  9 29  1  0  0  0  0
 11 12  1  0  0  0  0
 11 13  1  0  0  0  0
 11 14  1  0  0  0  0
 14 15  1  0  0  0  0
 14 16  1  0  0  0  0
 14 17  1  0  0  0  0
 17 18  1  0  0  0  0
 17 19  1  0  0  0  0
 17 20  1  0  0  0  0
 20 21  1  0  0  0  0
 20 22  2  0  0  0  0
 22 23  1  0  0  0  0
 22 26  1  0  0  0  0
 23 24  1  0  0  0  0
 23 25  1  0  0  0  0
 26 27  1  0  0  0  0
 26 28  1  0  0  0  0
 29 30  2  0  0  0  0
 29 31  1  0  0  0  0
 31 32  1  0  0  0  0
 31 33  1  0  0  0  0
 33 34  1  0  0  0  0
 33 35  1  0  0  0  0
 33 36  1  0  0  0  0
M  CHG  1  20   1
M  END
$$$$

  -OEChem-03222214013D

 36 35  0     1  0  0  0  0  0999 V2000
   -3.8857   -4.2238    1.6699 H   0  0  0  0  0  0  0  0  0  0  0  0
   -3.9875   -3.1660    1.4120 C   0  0  0  0  0  0  0  0  0  0  0  0
   -4.6352   -2.6852    2.1491 H   0  0  0  0  0  0  0  0  0  0  0  0
   -4.4492   -3.0881    0.4249 H   0  0  0  0  0  0  0  0  0  0  0  0
   -2.6260   -2.4980    1.4035 C   0  0  0  0  0  0  0  0  0  0  0  0
   -1.6254   -3.1397    1.6815 O   0  0  0  0  0  0  0  0  0  0  0  0
   -2.5142   -1.1621    1.0708 N   0  0  0  0  0  0  0  0  0  0  0  0
   -3.3828   -0.6450    0.9389 H   0  0  0  0  0  0  0  0  0  0  0  0
   -1.2797   -0.3745    1.2069 C   0  0  1  0  0  0  0  0  0  0  0  0
   -0.6422   -0.8917    1.9324 H   0  0  0  0  0  0  0  0  0  0  0  0
   -0.5099   -0.4066   -0.1430 C   0  0  0  0  0  0  0  0  0  0  0  0
    0.5365   -0.6285    0.0918 H   0  0  0  0  0  0  0  0  0  0  0  0
   -0.8680   -1.2536   -0.7393 H   0  0  0  0  0  0  0  0  0  0  0  0
   -0.5543    0.8643   -1.0237 C   0  0  0  0  0  0  0  0  0  0  0  0
   -0.9953    0.5910   -1.9886 H   0  0  0  0  0  0  0  0  0  0  0  0
   -1.1945    1.6412   -0.6044 H   0  0  0  0  0  0  0  0  0  0  0  0
    0.8451    1.4289   -1.2615 C   0  0  0  0  0  0  0  0  0  0  0  0
    1.2977    1.6920   -0.2989 H   0  0  0  0  0  0  0  0  0  0  0  0
    1.4642    0.6625   -1.7403 H   0  0  0  0  0  0  0  0  0  0  0  0
    0.7457    2.6254   -2.1180 N   0  3  0  0  0  0  0  0  0  0  0  0
   -0.1493    3.1143   -2.1224 H   0  0  0  0  0  0  0  0  0  0  0  0
    1.7270    3.0907   -2.8355 C   0  0  0  0  0  0  0  0  0  0  0  0
    2.9704    2.5007   -2.8356 N   0  0  0  0  0  0  0  0  0  0  0  0
    3.1599    1.7931   -2.1290 H   0  0  0  0  0  0  0  0  0  0  0  0
    3.7584    3.0244   -3.2111 H   0  0  0  0  0  0  0  0  0  0  0  0
    1.5267    4.2039   -3.6164 N   0  0  0  0  0  0  0  0  0  0  0  0
    0.5746    4.5372   -3.7569 H   0  0  0  0  0  0  0  0  0  0  0  0
    2.2192    4.4264   -4.3294 H   0  0  0  0  0  0  0  0  0  0  0  0
   -1.5377    1.0088    1.8420 C   0  0  0  0  0  0  0  0  0  0  0  0
   -2.5034    1.6745    1.4875 O   0  0  0  0  0  0  0  0  0  0  0  0
   -0.7084    1.4901    2.8391 N   0  0  0  0  0  0  0  0  0  0  0  0
   -0.0290    0.8396    3.2269 H   0  0  0  0  0  0  0  0  0  0  0  0
   -1.0073    2.7033    3.5944 C   0  0  0  0  0  0  0  0  0  0  0  0
   -1.9626    2.6024    4.1210 H   0  0  0  0  0  0  0  0  0  0  0  0
   -0.2238    2.8923    4.3349 H   0  0  0  0  0  0  0  0  0  0  0  0
   -1.0645    3.5694    2.9265 H   0  0  0  0  0  0  0  0  0  0  0  0
  1  2  1  0  0  0  0
  2  3  1  0  0  0  0
  2  4  1  0  0  0  0
  2  5  1  0  0  0  0
  5  6  2  0  0  0  0
  5  7  1  0  0  0  0
  7  8  1  0  0  0  0
  7  9  1  0  0  0  0
  9 10  1  0  0  0  0
  9 11  1  0  0  0  0
  9 29  1  0  0  0  0
 11 12  1  0  0  0  0
 11 13  1  0  0  0  0
 11 14  1  0  0  0  0
 14 15  1  0  0  0  0
 14 16  1  0  0  0  0
 14 17  1  0  0  0  0
 17 18  1  0  0  0  0
 17 19  1  0  0  0  0
 17 20  1  0  0  0  0
 20 21  1  0  0  0  0
 20 22  2  0  0  0  0
 22 23  1  0  0  0  0
 22 26  1  0  0  0  0
 23 24  1  0  0  0  0
 23 25  1  0  0  0  0
 26 27  1  0  0  0  0
 26 28  1  0  0  0  0
 29 30  2  0  0  0  0
 29 31  1  0  0  0  0
 31 32  1  0  0  0  0
 31 33  1  0  0  0  0
 33 34  1  0  0  0  0
 33 35  1  0  0  0  0
 33 36  1  0  0  0  0
M  CHG  1  20   1
M  END
$$$$

  -OEChem-03222214013D

 36 35  0     1  0  0  0  0  0999 V2000
   -3.8921   -4.2002    1.7652 H   0  0  0  0  0  0  0  0  0  0  0  0
   -3.9903   -3.1518    1.4694 C   0  0  0  0  0  0  0  0  0  0  0  0
   -4.6223   -2.6393    2.1988 H   0  0  0  0  0  0  0  0  0  0  0  0
   -4.4673   -3.1075    0.4875 H   0  0  0  0  0  0  0  0  0  0  0  0
   -2.6242   -2.4952    1.4143 C   0  0  0  0  0  0  0  0  0  0  0  0
   -1.6216   -3.1440    1.6671 O   0  0  0  0  0  0  0  0  0  0  0  0
   -2.5087   -1.1626    1.0695 N   0  0  0  0  0  0  0  0  0  0  0  0
   -3.3757   -0.6373    0.9617 H   0  0  0  0  0  0  0  0  0  0  0  0
   -1.2644   -0.3859    1.1820 C   0  0  1  0  0  0  0  0  0  0  0  0
   -0.6123   -0.9021    1.8953 H   0  0  0  0  0  0  0  0  0  0  0  0
   -0.5356   -0.4208   -0.1909 C   0  0  0  0  0  0  0  0  0  0  0  0
    0.5152   -0.6312    0.0349 H   0  0  0  0  0  0  0  0  0  0  0  0
   -0.8940   -1.2728   -0.7796 H   0  0  0  0  0  0  0  0  0  0  0  0
   -0.5860    0.8505   -1.0719 C   0  0  0  0  0  0  0  0  0  0  0  0
   -1.3111    0.6912   -1.8774 H   0  0  0  0  0  0  0  0  0  0  0  0
   -0.9162    1.7274   -0.5133 H   0  0  0  0  0  0  0  0  0  0  0  0
    0.7925    1.1674   -1.6501 C   0  0  0  0  0  0  0  0  0  0  0  0
    1.4999    1.3289   -0.8291 H   0  0  0  0  0  0  0  0  0  0  0  0
    1.1363    0.3128   -2.2435 H   0  0  0  0  0  0  0  0  0  0  0  0
    0.7069    2.3758   -2.4913 N   0  3  0  0  0  0  0  0  0  0  0  0
   -0.1247    2.9560   -2.3821 H   0  0  0  0  0  0  0  0  0  0  0  0
    1.6296    2.7379   -3.3351 C   0  0  0  0  0  0  0  0  0  0  0  0
    2.7878    2.0127   -3.4991 N   0  0  0  0  0  0  0  0  0  0  0  0
    2.9878    1.2768   -2.8249 H   0  0  0  0  0  0  0  0  0  0  0  0
    3.5724    2.4480   -3.9801 H   0  0  0  0  0  0  0  0  0  0  0  0
    1.4545    3.8760   -4.0857 N   0  0  0  0  0  0  0  0  0  0  0  0
    0.5357    4.3150   -4.1015 H   0  0  0  0  0  0  0  0  0  0  0  0
    2.0694    4.0301   -4.8827 H   0  0  0  0  0  0  0  0  0  0  0  0
   -1.5188    0.9995    1.8124 C   0  0  0  0  0  0  0  0  0  0  0  0
   -2.4778    1.6685    1.4451 O   0  0  0  0  0  0  0  0  0  0  0  0
   -0.6828    1.4900    2.7988 N   0  0  0  0  0  0  0  0  0  0  0  0
    0.0067    0.8488    3.1837 H   0  0  0  0  0  0  0  0  0  0  0  0
   -0.9560    2.7272    3.5235 C   0  0  0  0  0  0  0  0  0  0  0  0
   -1.9135    2.6595    4.0514 H   0  0  0  0  0  0  0  0  0  0  0  0
   -0.1684    2.9180    4.2592 H   0  0  0  0  0  0  0  0  0  0  0  0
   -0.9947    3.5769    2.8339 H   0  0  0  0  0  0  0  0  0  0  0  0
  1  2  1  0  0  0  0
  2  3  1  0  0  0  0
  2  4  1  0  0  0  0
  2  5  1  0  0  0  0
  5  6  2  0  0  0  0
  5  7  1  0  0  0  0
  7  8  1  0  0  0  0
  7  9  1  0  0  0  0
  9 10  1  0  0  0  0
  9 11  1  0  0  0  0
  9 29  1  0  0  0  0
 11 12  1  0  0  0  0
 11 13  1  0  0  0  0
 11 14  1  0  0  0  0
 14 15  1  0  0  0  0
 14 16  1  0  0  0  0
 14 17  1  0  0  0  0
 17 18  1  0  0  0  0
 17 19  1  0  0  0  0
 17 20  1  0  0  0  0
 20 21  1  0  0  0  0
 20 22  2  0  0  0  0
 22 23  1  0  0  0  0
 22 26  1  0  0  0  0
 23 24  1  0  0  0  0
 23 25  1  0  0  0  0
 26 27  1  0  0  0  0
 26 28  1  0  0  0  0
 29 30  2  0  0  0  0
 29 31  1  0  0  0  0
 31 32  1  0  0  0  0
 31 33  1  0  0  0  0
 33 34  1  0  0  0  0
 33 35  1  0  0  0  0
 33 36  1  0  0  0  0
M  CHG  1  20   1
M  END
$$$$

  -OEChem-03222214013D

 36 35  0     1  0  0  0  0  0999 V2000
   -3.9449   -4.1722    1.7765 H   0  0  0  0  0  0  0  0  0  0  0  0
   -4.0257   -3.1140    1.5115 C   0  0  0  0  0  0  0  0  0  0  0  0
   -4.6330   -2.6084    2.2661 H   0  0  0  0  0  0  0  0  0  0  0  0
   -4.5197   -3.0317    0.5404 H   0  0  0  0  0  0  0  0  0  0  0  0
   -2.6464   -2.4857    1.4490 C   0  0  0  0  0  0  0  0  0  0  0  0
   -1.6574   -3.1502    1.7140 O   0  0  0  0  0  0  0  0  0  0  0  0
   -2.5031   -1.1631    1.0776 N   0  0  0  0  0  0  0  0  0  0  0  0
   -3.3581   -0.6213    0.9564 H   0  0  0  0  0  0  0  0  0  0  0  0
   -1.2405   -0.4131    1.1603 C   0  0  1  0  0  0  0  0  0  0  0  0
   -0.5778   -0.9307    1.8629 H   0  0  0  0  0  0  0  0  0  0  0  0
   -0.5582   -0.4676   -0.2349 C   0  0  0  0  0  0  0  0  0  0  0  0
    0.4972   -0.6876   -0.0420 H   0  0  0  0  0  0  0  0  0  0  0  0
   -0.9477   -1.3123   -0.8141 H   0  0  0  0  0  0  0  0  0  0  0  0
   -0.6169    0.8099   -1.1005 C   0  0  0  0  0  0  0  0  0  0  0  0
   -1.5434    0.8066   -1.6850 H   0  0  0  0  0  0  0  0  0  0  0  0
   -0.6156    1.7116   -0.4835 H   0  0  0  0  0  0  0  0  0  0  0  0
    0.6086    0.8985   -2.0078 C   0  0  0  0  0  0  0  0  0  0  0  0
    1.5136    0.9345   -1.3912 H   0  0  0  0  0  0  0  0  0  0  0  0
    0.6510    0.0046   -2.6403 H   0  0  0  0  0  0  0  0  0  0  0  0
    0.5106    2.1093   -2.8433 N   0  3  0  0  0  0  0  0  0  0  0  0
   -0.2758    2.7324   -2.6610 H   0  0  0  0  0  0  0  0  0  0  0  0
    1.3613    2.4145   -3.7798 C   0  0  0  0  0  0  0  0  0  0  0  0
    2.4529    1.6224   -4.0546 N   0  0  0  0  0  0  0  0  0  0  0  0
    2.6697    0.8674   -3.4071 H   0  0  0  0  0  0  0  0  0  0  0  0
    3.2121    2.0106   -4.6105 H   0  0  0  0  0  0  0  0  0  0  0  0
    1.1738    3.5588   -4.5176 N   0  0  0  0  0  0  0  0  0  0  0  0
    0.2820    4.0452   -4.4463 H   0  0  0  0  0  0  0  0  0  0  0  0
    1.7137    3.6783   -5.3727 H   0  0  0  0  0  0  0  0  0  0  0  0
   -1.4715    0.9860    1.7681 C   0  0  0  0  0  0  0  0  0  0  0  0
   -2.4076    1.6713    1.3720 O   0  0  0  0  0  0  0  0  0  0  0  0
   -0.6220    1.4832    2.7394 N   0  0  0  0  0  0  0  0  0  0  0  0
    0.0554    0.8376    3.1383 H   0  0  0  0  0  0  0  0  0  0  0  0
   -0.8644    2.7457    3.4308 C   0  0  0  0  0  0  0  0  0  0  0  0
   -1.7880    2.6907    4.0170 H   0  0  0  0  0  0  0  0  0  0  0  0
   -0.0362    2.9719    4.1096 H   0  0  0  0  0  0  0  0  0  0  0  0
   -0.9532    3.5680    2.7129 H   0  0  0  0  0  0  0  0  0  0  0  0
  1  2  1  0  0  0  0
  2  3  1  0  0  0  0
  2  4  1  0  0  0  0
  2  5  1  0  0  0  0
  5  6  2  0  0  0  0
  5  7  1  0  0  0  0
  7  8  1  0  0  0  0
  7  9  1  0  0  0  0
  9 10  1  0  0  0  0
  9 11  1  0  0  0  0
  9 29  1  0  0  0  0
 11 12  1  0  0  0  0
 11 13  1  0  0  0  0
 11 14  1  0  0  0  0
 14 15  1  0  0  0  0
 14 16  1  0  0  0  0
 14 17  1  0  0  0  0
 17 18  1  0  0  0  0
 17 19  1  0  0  0  0
 17 20  1  0  0  0  0
 20 21  1  0  0  0  0
 20 22  2  0  0  0  0
 22 23  1  0  0  0  0
 22 26  1  0  0  0  0
 23 24  1  0  0  0  0
 23 25  1  0  0  0  0
 26 27  1  0  0  0  0
 26 28  1  0  0  0  0
 29 30  2  0  0  0  0
 29 31  1  0  0  0  0
 31 32  1  0  0  0  0
 31 33  1  0  0  0  0
 33 34  1  0  0  0  0
 33 35  1  0  0  0  0
 33 36  1  0  0  0  0
M  CHG  1  20   1
M  END
$$$$

  -OEChem-03222214013D

 36 35  0     1  0  0  0  0  0999 V2000
   -3.9645   -4.1187    2.0470 H   0  0  0  0  0  0  0  0  0  0  0  0
   -4.0327   -3.1135    1.6214 C   0  0  0  0  0  0  0  0  0  0  0  0
   -4.6583   -2.4989    2.2731 H   0  0  0  0  0  0  0  0  0  0  0  0
   -4.4983   -3.1794    0.6353 H   0  0  0  0  0  0  0  0  0  0  0  0
   -2.6499   -2.5022    1.5019 C   0  0  0  0  0  0  0  0  0  0  0  0
   -1.6603   -3.1669    1.7640 O   0  0  0  0  0  0  0  0  0  0  0  0
   -2.5060   -1.1933    1.0851 N   0  0  0  0  0  0  0  0  0  0  0  0
   -3.3599   -0.6488    0.9693 H   0  0  0  0  0  0  0  0  0  0  0  0
   -1.2376   -0.4498    1.1272 C   0  0  1  0  0  0  0  0  0  0  0  0
   -0.5637   -0.9505    1.8312 H   0  0  0  0  0  0  0  0  0  0  0  0
   -0.5817   -0.5321   -0.2777 C   0  0  0  0  0  0  0  0  0  0  0  0
    0.4779   -0.7580   -0.1180 H   0  0  0  0  0  0  0  0  0  0  0  0
   -1.0011   -1.3744   -0.8395 H   0  0  0  0  0  0  0  0  0  0  0  0
   -0.6668    0.7436   -1.1358 C   0  0  0  0  0  0  0  0  0  0  0  0
   -1.6958    0.8732   -1.4898 H   0  0  0  0  0  0  0  0  0  0  0  0
   -0.3956    1.6252   -0.5467 H   0  0  0  0  0  0  0  0  0  0  0  0
    0.3077    0.6600   -2.3075 C   0  0  0  0  0  0  0  0  0  0  0  0
    1.3288    0.5632   -1.9219 H   0  0  0  0  0  0  0  0  0  0  0  0
    0.0751   -0.2275   -2.9067 H   0  0  0  0  0  0  0  0  0  0  0  0
    0.1834    1.8765   -3.1310 N   0  3  0  0  0  0  0  0  0  0  0  0
   -0.5757    2.5161   -2.8971 H   0  0  0  0  0  0  0  0  0  0  0  0
    0.9651    2.1542   -4.1337 C   0  0  0  0  0  0  0  0  0  0  0  0
    1.9859    1.3117   -4.5112 N   0  0  0  0  0  0  0  0  0  0  0  0
    2.0148    0.3835   -4.0940 H   0  0  0  0  0  0  0  0  0  0  0  0
    2.4102    1.4384   -5.4279 H   0  0  0  0  0  0  0  0  0  0  0  0
    0.7718    3.3163   -4.8418 N   0  0  0  0  0  0  0  0  0  0  0  0
    0.1427    4.0214   -4.4621 H   0  0  0  0  0  0  0  0  0  0  0  0
    1.5039    3.6240   -5.4793 H   0  0  0  0  0  0  0  0  0  0  0  0
   -1.4522    0.9704    1.6924 C   0  0  0  0  0  0  0  0  0  0  0  0
   -2.3796    1.6553    1.2750 O   0  0  0  0  0  0  0  0  0  0  0  0
   -0.5871    1.4928    2.6363 N   0  0  0  0  0  0  0  0  0  0  0  0
    0.0949    0.8583    3.0451 H   0  0  0  0  0  0  0  0  0  0  0  0
   -0.7968    2.7891    3.2733 C   0  0  0  0  0  0  0  0  0  0  0  0
   -1.7498    2.8023    3.8132 H   0  0  0  0  0  0  0  0  0  0  0  0
    0.0070    2.9955    3.9869 H   0  0  0  0  0  0  0  0  0  0  0  0
   -0.8059    3.5887    2.5253 H   0  0  0  0  0  0  0  0  0  0  0  0
  1  2  1  0  0  0  0
  2  3  1  0  0  0  0
  2  4  1  0  0  0  0
  2  5  1  0  0  0  0
  5  6  2  0  0  0  0
  5  7  1  0  0  0  0
  7  8  1  0  0  0  0
  7  9  1  0  0  0  0
  9 10  1  0  0  0  0
  9 11  1  0  0  0  0
  9 29  1  0  0  0  0
 11 12  1  0  0  0  0
 11 13  1  0  0  0  0
 11 14  1  0  0  0  0
 14 15  1  0  0  0  0
 14 16  1  0  0  0  0
 14 17  1  0  0  0  0
 17 18  1  0  0  0  0
 17 19  1  0  0  0  0
 17 20  1  0  0  0  0
 20 21  1  0  0  0  0
 20 22  2  0  0  0  0
 22 23  1  0  0  0  0
 22 26  1  0  0  0  0
 23 24  1  0  0  0  0
 23 25  1  0  0  0  0
 26 27  1  0  0  0  0
 26 28  1  0  0  0  0
 29 30  2  0  0  0  0
 29 31  1  0  0  0  0
 31 32  1  0  0  0  0
 31 33  1  0  0  0  0
 33 34  1  0  0  0  0
 33 35  1  0  0  0  0
 33 36  1  0  0  0  0
M  CHG  1  20   1
M  END
$$$$

  -OEChem-03222214013D

 36 35  0     1  0  0  0  0  0999 V2000
   -3.9891   -4.1030    2.0398 H   0  0  0  0  0  0  0  0  0  0  0  0
   -4.0475   -3.0953    1.6187 C   0  0  0  0  0  0  0  0  0  0  0  0
   -4.6701   -2.4785    2.2712 H   0  0  0  0  0  0  0  0  0  0  0  0
   -4.5110   -3.1524    0.6311 H   0  0  0  0  0  0  0  0  0  0  0  0
   -2.6591   -2.4955    1.5059 C   0  0  0  0  0  0  0  0  0  0  0  0
   -1.6770   -3.1648    1.7839 O   0  0  0  0  0  0  0  0  0  0  0  0
   -2.5007   -1.1920    1.0785 N   0  0  0  0  0  0  0  0  0  0  0  0
   -3.3484   -0.6412    0.9468 H   0  0  0  0  0  0  0  0  0  0  0  0
   -1.2252   -0.4608    1.1226 C   0  0  1  0  0  0  0  0  0  0  0  0
   -0.5541   -0.9563    1.8328 H   0  0  0  0  0  0  0  0  0  0  0  0
   -0.5625   -0.5440   -0.2801 C   0  0  0  0  0  0  0  0  0  0  0  0
    0.3975   -1.0590   -0.1669 H   0  0  0  0  0  0  0  0  0  0  0  0
   -1.1787   -1.1656   -0.9393 H   0  0  0  0  0  0  0  0  0  0  0  0
   -0.3134    0.8050   -0.9738 C   0  0  0  0  0  0  0  0  0  0  0  0
   -1.2684    1.3248   -1.1115 H   0  0  0  0  0  0  0  0  0  0  0  0
    0.3373    1.4326   -0.3549 H   0  0  0  0  0  0  0  0  0  0  0  0
    0.3379    0.5814   -2.3358 C   0  0  0  0  0  0  0  0  0  0  0  0
    1.3122    0.1003   -2.1951 H   0  0  0  0  0  0  0  0  0  0  0  0
   -0.2970   -0.0832   -2.9325 H   0  0  0  0  0  0  0  0  0  0  0  0
    0.4975    1.8776   -3.0196 N   0  3  0  0  0  0  0  0  0  0  0  0
    0.0609    2.6874   -2.5800 H   0  0  0  0  0  0  0  0  0  0  0  0
    1.1189    2.0260   -4.1536 C   0  0  0  0  0  0  0  0  0  0  0  0
    1.6904    0.9608   -4.8117 N   0  0  0  0  0  0  0  0  0  0  0  0
    1.4727    0.0243   -4.4770 H   0  0  0  0  0  0  0  0  0  0  0  0
    1.9461    1.0721   -5.7907 H   0  0  0  0  0  0  0  0  0  0  0  0
    1.2083    3.2757   -4.7188 N   0  0  0  0  0  0  0  0  0  0  0  0
    0.9412    4.0855   -4.1623 H   0  0  0  0  0  0  0  0  0  0  0  0
    1.8631    3.4176   -5.4859 H   0  0  0  0  0  0  0  0  0  0  0  0
   -1.4402    0.9652    1.6756 C   0  0  0  0  0  0  0  0  0  0  0  0
   -2.3605    1.6523    1.2474 O   0  0  0  0  0  0  0  0  0  0  0  0
   -0.5809    1.4901    2.6237 N   0  0  0  0  0  0  0  0  0  0  0  0
    0.0874    0.8513    3.0485 H   0  0  0  0  0  0  0  0  0  0  0  0
   -0.8024    2.7836    3.2631 C   0  0  0  0  0  0  0  0  0  0  0  0
   -1.7542    2.7865    3.8055 H   0  0  0  0  0  0  0  0  0  0  0  0
    0.0010    2.9972    3.9751 H   0  0  0  0  0  0  0  0  0  0  0  0
   -0.8215    3.5843    2.5162 H   0  0  0  0  0  0  0  0  0  0  0  0
  1  2  1  0  0  0  0
  2  3  1  0  0  0  0
  2  4  1  0  0  0  0
  2  5  1  0  0  0  0
  5  6  2  0  0  0  0
  5  7  1  0  0  0  0
  7  8  1  0  0  0  0
  7  9  1  0  0  0  0
  9 10  1  0  0  0  0
  9 11  1  0  0  0  0
  9 29  1  0  0  0  0
 11 12  1  0  0  0  0
 11 13  1  0  0  0  0
 11 14  1  0  0  0  0
 14 15  1  0  0  0  0
 14 16  1  0  0  0  0
 14 17  1  0  0  0  0
 17 18  1  0  0  0  0
 17 19  1  0  0  0  0
 17 20  1  0  0  0  0
 20 21  1  0  0  0  0
 20 22  2  0  0  0  0
 22 23  1  0  0  0  0
 22 26  1  0  0  0  0
 23 24  1  0  0  0  0
 23 25  1  0  0  0  0
 26 27  1  0  0  0  0
 26 28  1  0  0  0  0
 29 30  2  0  0  0  0
 29 31  1  0  0  0  0
 31 32  1  0  0  0  0
 31 33  1  0  0  0  0
 33 34  1  0  0  0  0
 33 35  1  0  0  0  0
 33 36  1  0  0  0  0
M  CHG  1  20   1
M  END
$$$$

  -OEChem-03222214013D

 36 35  0     1  0  0  0  0  0999 V2000
   -3.9895   -4.0923    2.0531 H   0  0  0  0  0  0  0  0  0  0  0  0
   -4.0529   -3.0853    1.6308 C   0  0  0  0  0  0  0  0  0  0  0  0
   -4.6574   -2.4642    2.2962 H   0  0  0  0  0  0  0  0  0  0  0  0
   -4.5397   -3.1429    0.6545 H   0  0  0  0  0  0  0  0  0  0  0  0
   -2.6647   -2.4916    1.4851 C   0  0  0  0  0  0  0  0  0  0  0  0
   -1.6784   -3.1698    1.7235 O   0  0  0  0  0  0  0  0  0  0  0  0
   -2.5126   -1.1824    1.0733 N   0  0  0  0  0  0  0  0  0  0  0  0
   -3.3627   -0.6269    0.9826 H   0  0  0  0  0  0  0  0  0  0  0  0
   -1.2377   -0.4495    1.1145 C   0  0  1  0  0  0  0  0  0  0  0  0
   -0.5681   -0.9517    1.8215 H   0  0  0  0  0  0  0  0  0  0  0  0
   -0.5648   -0.5279   -0.2838 C   0  0  0  0  0  0  0  0  0  0  0  0
    0.3917   -1.0514   -0.1787 H   0  0  0  0  0  0  0  0  0  0  0  0
   -1.1900   -1.1457   -0.9381 H   0  0  0  0  0  0  0  0  0  0  0  0
   -0.3112    0.8190   -0.9840 C   0  0  0  0  0  0  0  0  0  0  0  0
   -1.2105    1.4409   -0.9298 H   0  0  0  0  0  0  0  0  0  0  0  0
    0.5091    1.3517   -0.4907 H   0  0  0  0  0  0  0  0  0  0  0  0
    0.0004    0.5885   -2.4608 C   0  0  0  0  0  0  0  0  0  0  0  0
    0.9244    0.0057   -2.5479 H   0  0  0  0  0  0  0  0  0  0  0  0
   -0.8170    0.0156   -2.9126 H   0  0  0  0  0  0  0  0  0  0  0  0
    0.1444    1.8867   -3.1449 N   0  3  0  0  0  0  0  0  0  0  0  0
   -0.0846    2.7210   -2.6053 H   0  0  0  0  0  0  0  0  0  0  0  0
    0.4908    2.0103   -4.3935 C   0  0  0  0  0  0  0  0  0  0  0  0
    0.7668    0.9157   -5.1813 N   0  0  0  0  0  0  0  0  0  0  0  0
    0.5314   -0.0046   -4.8152 H   0  0  0  0  0  0  0  0  0  0  0  0
    0.7962    1.0357   -6.1918 H   0  0  0  0  0  0  0  0  0  0  0  0
    0.5813    3.2639   -4.9500 N   0  0  0  0  0  0  0  0  0  0  0  0
    0.5484    4.0766   -4.3374 H   0  0  0  0  0  0  0  0  0  0  0  0
    1.0420    3.3641   -5.8526 H   0  0  0  0  0  0  0  0  0  0  0  0
   -1.4433    0.9698    1.6872 C   0  0  0  0  0  0  0  0  0  0  0  0
   -2.3896    1.6490    1.3052 O   0  0  0  0  0  0  0  0  0  0  0  0
   -0.5728    1.4825    2.6314 N   0  0  0  0  0  0  0  0  0  0  0  0
    0.1186    0.8458    3.0209 H   0  0  0  0  0  0  0  0  0  0  0  0
   -0.7955    2.7589    3.3037 C   0  0  0  0  0  0  0  0  0  0  0  0
   -1.7406    2.7414    3.8574 H   0  0  0  0  0  0  0  0  0  0  0  0
    0.0150    2.9624    4.0105 H   0  0  0  0  0  0  0  0  0  0  0  0
   -0.8301    3.5765    2.5761 H   0  0  0  0  0  0  0  0  0  0  0  0
  1  2  1  0  0  0  0
  2  3  1  0  0  0  0
  2  4  1  0  0  0  0
  2  5  1  0  0  0  0
  5  6  2  0  0  0  0
  5  7  1  0  0  0  0
  7  8  1  0  0  0  0
  7  9  1  0  0  0  0
  9 10  1  0  0  0  0
  9 11  1  0  0  0  0
  9 29  1  0  0  0  0
 11 12  1  0  0  0  0
 11 13  1  0  0  0  0
 11 14  1  0  0  0  0
 14 15  1  0  0  0  0
 14 16  1  0  0  0  0
 14 17  1  0  0  0  0
 17 18  1  0  0  0  0
 17 19  1  0  0  0  0
 17 20  1  0  0  0  0
 20 21  1  0  0  0  0
 20 22  2  0  0  0  0
 22 23  1  0  0  0  0
 22 26  1  0  0  0  0
 23 24  1  0  0  0  0
 23 25  1  0  0  0  0
 26 27  1  0  0  0  0
 26 28  1  0  0  0  0
 29 30  2  0  0  0  0
 29 31  1  0  0  0  0
 31 32  1  0  0  0  0
 31 33  1  0  0  0  0
 33 34  1  0  0  0  0
 33 35  1  0  0  0  0
 33 36  1  0  0  0  0
M  CHG  1  20   1
M  END
$$$$

  -OEChem-03222214013D

 36 35  0     1  0  0  0  0  0999 V2000
   -3.9783   -4.0983    2.0199 H   0  0  0  0  0  0  0  0  0  0  0  0
   -4.0534   -3.0800    1.6282 C   0  0  0  0  0  0  0  0  0  0  0  0
   -4.6470   -2.4806    2.3227 H   0  0  0  0  0  0  0  0  0  0  0  0
   -4.5579   -3.1114    0.6598 H   0  0  0  0  0  0  0  0  0  0  0  0
   -2.6699   -2.4785    1.4731 C   0  0  0  0  0  0  0  0  0  0  0  0
   -1.6791   -3.1591    1.6839 O   0  0  0  0  0  0  0  0  0  0  0  0
   -2.5260   -1.1624    1.0794 N   0  0  0  0  0  0  0  0  0  0  0  0
   -3.3770   -0.6036    1.0228 H   0  0  0  0  0  0  0  0  0  0  0  0
   -1.2501   -0.4300    1.1178 C   0  0  1  0  0  0  0  0  0  0  0  0
   -0.5806   -0.9412    1.8187 H   0  0  0  0  0  0  0  0  0  0  0  0
   -0.5738   -0.5054   -0.2812 C   0  0  0  0  0  0  0  0  0  0  0  0
    0.3785   -1.0363   -0.1780 H   0  0  0  0  0  0  0  0  0  0  0  0
   -1.2039   -1.1272   -0.9274 H   0  0  0  0  0  0  0  0  0  0  0  0
   -0.3079    0.8327   -1.0024 C   0  0  0  0  0  0  0  0  0  0  0  0
   -1.0830    1.5636   -0.7584 H   0  0  0  0  0  0  0  0  0  0  0  0
    0.6582    1.2419   -0.6883 H   0  0  0  0  0  0  0  0  0  0  0  0
   -0.3605    0.6313   -2.5160 C   0  0  0  0  0  0  0  0  0  0  0  0
    0.4473   -0.0452   -2.8171 H   0  0  0  0  0  0  0  0  0  0  0  0
   -1.3184    0.1706   -2.7813 H   0  0  0  0  0  0  0  0  0  0  0  0
   -0.2232    1.9314   -3.1975 N   0  3  0  0  0  0  0  0  0  0  0  0
   -0.2160    2.7633   -2.6082 H   0  0  0  0  0  0  0  0  0  0  0  0
   -0.1723    2.0671   -4.4910 C   0  0  0  0  0  0  0  0  0  0  0  0
   -0.2282    0.9829   -5.3373 N   0  0  0  0  0  0  0  0  0  0  0  0
   -0.4767    0.0805   -4.9370 H   0  0  0  0  0  0  0  0  0  0  0  0
   -0.4308    1.1420   -6.3223 H   0  0  0  0  0  0  0  0  0  0  0  0
   -0.0634    3.3241   -5.0361 N   0  0  0  0  0  0  0  0  0  0  0  0
    0.1483    4.1080   -4.4216 H   0  0  0  0  0  0  0  0  0  0  0  0
    0.1844    3.4081   -6.0203 H   0  0  0  0  0  0  0  0  0  0  0  0
   -1.4474    0.9802    1.7151 C   0  0  0  0  0  0  0  0  0  0  0  0
   -2.4092    1.6573    1.3691 O   0  0  0  0  0  0  0  0  0  0  0  0
   -0.5655    1.4778    2.6567 N   0  0  0  0  0  0  0  0  0  0  0  0
    0.1401    0.8397    3.0171 H   0  0  0  0  0  0  0  0  0  0  0  0
   -0.7865    2.7359    3.3629 C   0  0  0  0  0  0  0  0  0  0  0  0
   -1.7205    2.6965    3.9339 H   0  0  0  0  0  0  0  0  0  0  0  0
    0.0354    2.9299    4.0590 H   0  0  0  0  0  0  0  0  0  0  0  0
   -0.8418    3.5701    2.6556 H   0  0  0  0  0  0  0  0  0  0  0  0
  1  2  1  0  0  0  0
  2  3  1  0  0  0  0
  2  4  1  0  0  0  0
  2  5  1  0  0  0  0
  5  6  2  0  0  0  0
  5  7  1  0  0  0  0
  7  8  1  0  0  0  0
  7  9  1  0  0  0  0
  9 10  1  0  0  0  0
  9 11  1  0  0  0  0
  9 29  1  0  0  0  0
 11 12  1  0  0  0  0
 11 13  1  0  0  0  0
 11 14  1  0  0  0  0
 14 15  1  0  0  0  0
 14 16  1  0  0  0  0
 14 17  1  0  0  0  0
 17 18  1  0  0  0  0
 17 19  1  0  0  0  0
 17 20  1  0  0  0  0
 20 21  1  0  0  0  0
 20 22  2  0  0  0  0
 22 23  1  0  0  0  0
 22 26  1  0  0  0  0
 23 24  1  0  0  0  0
 23 25  1  0  0  0  0
 26 27  1  0  0  0  0
 26 28  1  0  0  0  0
 29 30  2  0  0  0  0
 29 31  1  0  0  0  0
 31 32  1  0  0  0  0
 31 33  1  0  0  0  0
 33 34  1  0  0  0  0
 33 35  1  0  0  0  0
 33 36  1  0  0  0  0
M  CHG  1  20   1
M  END
$$$$

  -OEChem-03222214013D

 36 35  0     1  0  0  0  0  0999 V2000
   -3.9833   -4.1047    1.9592 H   0  0  0  0  0  0  0  0  0  0  0  0
   -4.0544   -3.0653    1.6260 C   0  0  0  0  0  0  0  0  0  0  0  0
   -4.6263   -2.4988    2.3649 H   0  0  0  0  0  0  0  0  0  0  0  0
   -4.5795   -3.0380    0.6685 H   0  0  0  0  0  0  0  0  0  0  0  0
   -2.6675   -2.4700    1.4751 C   0  0  0  0  0  0  0  0  0  0  0  0
   -1.6796   -3.1573    1.6765 O   0  0  0  0  0  0  0  0  0  0  0  0
   -2.5186   -1.1512    1.0931 N   0  0  0  0  0  0  0  0  0  0  0  0
   -3.3672   -0.5879    1.0459 H   0  0  0  0  0  0  0  0  0  0  0  0
   -1.2395   -0.4237    1.1296 C   0  0  1  0  0  0  0  0  0  0  0  0
   -0.5640   -0.9413    1.8199 H   0  0  0  0  0  0  0  0  0  0  0  0
   -0.5815   -0.4932   -0.2801 C   0  0  0  0  0  0  0  0  0  0  0  0
    0.3718   -1.0231   -0.1786 H   0  0  0  0  0  0  0  0  0  0  0  0
   -1.2091   -1.1275   -0.9161 H   0  0  0  0  0  0  0  0  0  0  0  0
   -0.3043    0.8367   -1.0225 C   0  0  0  0  0  0  0  0  0  0  0  0
   -0.8568    1.6717   -0.5889 H   0  0  0  0  0  0  0  0  0  0  0  0
    0.7624    1.0766   -0.9560 H   0  0  0  0  0  0  0  0  0  0  0  0
   -0.7387    0.7189   -2.4828 C   0  0  0  0  0  0  0  0  0  0  0  0
   -0.1300   -0.0455   -2.9784 H   0  0  0  0  0  0  0  0  0  0  0  0
   -1.7883    0.4059   -2.5168 H   0  0  0  0  0  0  0  0  0  0  0  0
   -0.5828    2.0188   -3.1601 N   0  3  0  0  0  0  0  0  0  0  0  0
   -0.3213    2.8149   -2.5797 H   0  0  0  0  0  0  0  0  0  0  0  0
   -0.8217    2.2039   -4.4261 C   0  0  0  0  0  0  0  0  0  0  0  0
   -1.2267    1.1744   -5.2449 N   0  0  0  0  0  0  0  0  0  0  0  0
   -1.5002    0.2985   -4.8041 H   0  0  0  0  0  0  0  0  0  0  0  0
   -1.6321    1.4014   -6.1508 H   0  0  0  0  0  0  0  0  0  0  0  0
   -0.6729    3.4578   -4.9689 N   0  0  0  0  0  0  0  0  0  0  0  0
   -0.2180    4.1817   -4.4159 H   0  0  0  0  0  0  0  0  0  0  0  0
   -0.6609    3.5513   -5.9831 H   0  0  0  0  0  0  0  0  0  0  0  0
   -1.4431    0.9781    1.7424 C   0  0  0  0  0  0  0  0  0  0  0  0
   -2.4063    1.6545    1.3977 O   0  0  0  0  0  0  0  0  0  0  0  0
   -0.5624    1.4717    2.6872 N   0  0  0  0  0  0  0  0  0  0  0  0
    0.1499    0.8354    3.0376 H   0  0  0  0  0  0  0  0  0  0  0  0
   -0.7920    2.7186    3.4101 C   0  0  0  0  0  0  0  0  0  0  0  0
   -1.7153    2.6571    3.9964 H   0  0  0  0  0  0  0  0  0  0  0  0
    0.0386    2.9195    4.0942 H   0  0  0  0  0  0  0  0  0  0  0  0
   -0.8735    3.5592    2.7131 H   0  0  0  0  0  0  0  0  0  0  0  0
  1  2  1  0  0  0  0
  2  3  1  0  0  0  0
  2  4  1  0  0  0  0
  2  5  1  0  0  0  0
  5  6  2  0  0  0  0
  5  7  1  0  0  0  0
  7  8  1  0  0  0  0
  7  9  1  0  0  0  0
  9 10  1  0  0  0  0
  9 11  1  0  0  0  0
  9 29  1  0  0  0  0
 11 12  1  0  0  0  0
 11 13  1  0  0  0  0
 11 14  1  0  0  0  0
 14 15  1  0  0  0  0
 14 16  1  0  0  0  0
 14 17  1  0  0  0  0
 17 18  1  0  0  0  0
 17 19  1  0  0  0  0
 17 20  1  0  0  0  0
 20 21  1  0  0  0  0
 20 22  2  0  0  0  0
 22 23  1  0  0  0  0
 22 26  1  0  0  0  0
 23 24  1  0  0  0  0
 23 25  1  0  0  0  0
 26 27  1  0  0  0  0
 26 28  1  0  0  0  0
 29 30  2  0  0  0  0
 29 31  1  0  0  0  0
 31 32  1  0  0  0  0
 31 33  1  0  0  0  0
 33 34  1  0  0  0  0
 33 35  1  0  0  0  0
 33 36  1  0  0  0  0
M  CHG  1  20   1
M  END
$$$$

  -OEChem-03222214013D

 36 35  0     1  0  0  0  0  0999 V2000
   -3.9894   -4.1064    1.9754 H   0  0  0  0  0  0  0  0  0  0  0  0
   -4.0564   -3.0635    1.6526 C   0  0  0  0  0  0  0  0  0  0  0  0
   -4.6152   -2.4992    2.4030 H   0  0  0  0  0  0  0  0  0  0  0  0
   -4.5919   -3.0234    0.7013 H   0  0  0  0  0  0  0  0  0  0  0  0
   -2.6668   -2.4777    1.4920 C   0  0  0  0  0  0  0  0  0  0  0  0
   -1.6829   -3.1670    1.7046 O   0  0  0  0  0  0  0  0  0  0  0  0
   -2.5111   -1.1642    1.0946 N   0  0  0  0  0  0  0  0  0  0  0  0
   -3.3564   -0.5969    1.0418 H   0  0  0  0  0  0  0  0  0  0  0  0
   -1.2278   -0.4444    1.1336 C   0  0  1  0  0  0  0  0  0  0  0  0
   -0.5521   -0.9576    1.8272 H   0  0  0  0  0  0  0  0  0  0  0  0
   -0.5828   -0.5199   -0.2824 C   0  0  0  0  0  0  0  0  0  0  0  0
    0.3745   -1.0396   -0.1657 H   0  0  0  0  0  0  0  0  0  0  0  0
   -1.1947   -1.1698   -0.9181 H   0  0  0  0  0  0  0  0  0  0  0  0
   -0.2957    0.8038   -1.0353 C   0  0  0  0  0  0  0  0  0  0  0  0
   -0.5514    1.6910   -0.4544 H   0  0  0  0  0  0  0  0  0  0  0  0
    0.7778    0.8629   -1.2458 H   0  0  0  0  0  0  0  0  0  0  0  0
   -1.0673    0.8298   -2.3536 C   0  0  0  0  0  0  0  0  0  0  0  0
   -0.7047    0.0227   -3.0000 H   0  0  0  0  0  0  0  0  0  0  0  0
   -2.1288    0.6584   -2.1423 H   0  0  0  0  0  0  0  0  0  0  0  0
   -0.8949    2.1362   -3.0146 N   0  3  0  0  0  0  0  0  0  0  0  0
   -0.3874    2.8531   -2.4978 H   0  0  0  0  0  0  0  0  0  0  0  0
   -1.4149    2.4321   -4.1704 C   0  0  0  0  0  0  0  0  0  0  0  0
   -2.1567    1.5203   -4.8865 N   0  0  0  0  0  0  0  0  0  0  0  0
   -2.4390    0.6645   -4.4132 H   0  0  0  0  0  0  0  0  0  0  0  0
   -2.7373    1.8571   -5.6517 H   0  0  0  0  0  0  0  0  0  0  0  0
   -1.2273    3.6874   -4.6978 N   0  0  0  0  0  0  0  0  0  0  0  0
   -0.5465    4.3067   -4.2623 H   0  0  0  0  0  0  0  0  0  0  0  0
   -1.4594    3.8442   -5.6769 H   0  0  0  0  0  0  0  0  0  0  0  0
   -1.4451    0.9621    1.7301 C   0  0  0  0  0  0  0  0  0  0  0  0
   -2.3873    1.6435    1.3380 O   0  0  0  0  0  0  0  0  0  0  0  0
   -0.5796    1.4694    2.6816 N   0  0  0  0  0  0  0  0  0  0  0  0
    0.1230    0.8363    3.0571 H   0  0  0  0  0  0  0  0  0  0  0  0
   -0.8072    2.7367    3.3693 C   0  0  0  0  0  0  0  0  0  0  0  0
   -1.7379    2.6982    3.9457 H   0  0  0  0  0  0  0  0  0  0  0  0
    0.0172    2.9474    4.0581 H   0  0  0  0  0  0  0  0  0  0  0  0
   -0.8725    3.5606    2.6508 H   0  0  0  0  0  0  0  0  0  0  0  0
  1  2  1  0  0  0  0
  2  3  1  0  0  0  0
  2  4  1  0  0  0  0
  2  5  1  0  0  0  0
  5  6  2  0  0  0  0
  5  7  1  0  0  0  0
  7  8  1  0  0  0  0
  7  9  1  0  0  0  0
  9 10  1  0  0  0  0
  9 11  1  0  0  0  0
  9 29  1  0  0  0  0
 11 12  1  0  0  0  0
 11 13  1  0  0  0  0
 11 14  1  0  0  0  0
 14 15  1  0  0  0  0
 14 16  1  0  0  0  0
 14 17  1  0  0  0  0
 17 18  1  0  0  0  0
 17 19  1  0  0  0  0
 17 20  1  0  0  0  0
 20 21  1  0  0  0  0
 20 22  2  0  0  0  0
 22 23  1  0  0  0  0
 22 26  1  0  0  0  0
 23 24  1  0  0  0  0
 23 25  1  0  0  0  0
 26 27  1  0  0  0  0
 26 28  1  0  0  0  0
 29 30  2  0  0  0  0
 29 31  1  0  0  0  0
 31 32  1  0  0  0  0
 31 33  1  0  0  0  0
 33 34  1  0  0  0  0
 33 35  1  0  0  0  0
 33 36  1  0  0  0  0
M  CHG  1  20   1
M  END
$$$$

  -OEChem-03222214013D

 36 35  0     1  0  0  0  0  0999 V2000
   -4.0130   -4.0653    2.1215 H   0  0  0  0  0  0  0  0  0  0  0  0
   -4.0646   -3.0669    1.6776 C   0  0  0  0  0  0  0  0  0  0  0  0
   -4.6661   -2.4259    2.3264 H   0  0  0  0  0  0  0  0  0  0  0  0
   -4.5466   -3.1407    0.7001 H   0  0  0  0  0  0  0  0  0  0  0  0
   -2.6694   -2.4919    1.5269 C   0  0  0  0  0  0  0  0  0  0  0  0
   -1.6938   -3.1756    1.7887 O   0  0  0  0  0  0  0  0  0  0  0  0
   -2.4988   -1.1935    1.0872 N   0  0  0  0  0  0  0  0  0  0  0  0
   -3.3394   -0.6242    0.9994 H   0  0  0  0  0  0  0  0  0  0  0  0
   -1.2107   -0.4821    1.1241 C   0  0  1  0  0  0  0  0  0  0  0  0
   -0.5360   -0.9764    1.8324 H   0  0  0  0  0  0  0  0  0  0  0  0
   -0.5740   -0.5779   -0.2933 C   0  0  0  0  0  0  0  0  0  0  0  0
    0.3872   -1.0866   -0.1624 H   0  0  0  0  0  0  0  0  0  0  0  0
   -1.1736   -1.2376   -0.9307 H   0  0  0  0  0  0  0  0  0  0  0  0
   -0.2858    0.7438   -1.0425 C   0  0  0  0  0  0  0  0  0  0  0  0
   -0.2323    1.6111   -0.3809 H   0  0  0  0  0  0  0  0  0  0  0  0
    0.6969    0.6593   -1.5190 H   0  0  0  0  0  0  0  0  0  0  0  0
   -1.3261    0.9498   -2.1407 C   0  0  0  0  0  0  0  0  0  0  0  0
   -1.2208    0.1605   -2.8933 H   0  0  0  0  0  0  0  0  0  0  0  0
   -2.3236    0.8753   -1.6926 H   0  0  0  0  0  0  0  0  0  0  0  0
   -1.1569    2.2789   -2.7551 N   0  3  0  0  0  0  0  0  0  0  0  0
   -0.4668    2.8988   -2.3336 H   0  0  0  0  0  0  0  0  0  0  0  0
   -1.9079    2.7248   -3.7196 C   0  0  0  0  0  0  0  0  0  0  0  0
   -2.9021    1.9541   -4.2779 N   0  0  0  0  0  0  0  0  0  0  0  0
   -3.1497    1.0887   -3.8024 H   0  0  0  0  0  0  0  0  0  0  0  0
   -3.6190    2.4148   -4.8346 H   0  0  0  0  0  0  0  0  0  0  0  0
   -1.7142    3.9990   -4.1976 N   0  0  0  0  0  0  0  0  0  0  0  0
   -0.8815    4.5096   -3.9105 H   0  0  0  0  0  0  0  0  0  0  0  0
   -2.1597    4.2637   -5.0742 H   0  0  0  0  0  0  0  0  0  0  0  0
   -1.4466    0.9416    1.6705 C   0  0  0  0  0  0  0  0  0  0  0  0
   -2.3566    1.6220    1.2049 O   0  0  0  0  0  0  0  0  0  0  0  0
   -0.6037    1.4814    2.6240 N   0  0  0  0  0  0  0  0  0  0  0  0
    0.0761    0.8564    3.0520 H   0  0  0  0  0  0  0  0  0  0  0  0
   -0.8259    2.7875    3.2355 C   0  0  0  0  0  0  0  0  0  0  0  0
   -1.7905    2.8093    3.7541 H   0  0  0  0  0  0  0  0  0  0  0  0
   -0.0379    3.0045    3.9635 H   0  0  0  0  0  0  0  0  0  0  0  0
   -0.8171    3.5757    2.4756 H   0  0  0  0  0  0  0  0  0  0  0  0
  1  2  1  0  0  0  0
  2  3  1  0  0  0  0
  2  4  1  0  0  0  0
  2  5  1  0  0  0  0
  5  6  2  0  0  0  0
  5  7  1  0  0  0  0
  7  8  1  0  0  0  0
  7  9  1  0  0  0  0
  9 10  1  0  0  0  0
  9 11  1  0  0  0  0
  9 29  1  0  0  0  0
 11 12  1  0  0  0  0
 11 13  1  0  0  0  0
 11 14  1  0  0  0  0
 14 15  1  0  0  0  0
 14 16  1  0  0  0  0
 14 17  1  0  0  0  0
 17 18  1  0  0  0  0
 17 19  1  0  0  0  0
 17 20  1  0  0  0  0
 20 21  1  0  0  0  0
 20 22  2  0  0  0  0
 22 23  1  0  0  0  0
 22 26  1  0  0  0  0
 23 24  1  0  0  0  0
 23 25  1  0  0  0  0
 26 27  1  0  0  0  0
 26 28  1  0  0  0  0
 29 30  2  0  0  0  0
 29 31  1  0  0  0  0
 31 32  1  0  0  0  0
 31 33  1  0  0  0  0
 33 34  1  0  0  0  0
 33 35  1  0  0  0  0
 33 36  1  0  0  0  0
M  CHG  1  20   1
M  END
$$$$

  -OEChem-03222214013D

 36 35  0     1  0  0  0  0  0999 V2000
   -3.8018   -4.2400    2.0834 H   0  0  0  0  0  0  0  0  0  0  0  0
   -3.9212   -3.2717    1.5888 C   0  0  0  0  0  0  0  0  0  0  0  0
   -4.6682   -2.6894    2.1334 H   0  0  0  0  0  0  0  0  0  0  0  0
   -4.2721   -3.4408    0.5683 H   0  0  0  0  0  0  0  0  0  0  0  0
   -2.5976   -2.5314    1.5683 C   0  0  0  0  0  0  0  0  0  0  0  0
   -1.6099   -3.0306    2.0808 O   0  0  0  0  0  0  0  0  0  0  0  0
   -2.5059   -1.2889    0.9696 N   0  0  0  0  0  0  0  0  0  0  0  0
   -3.3739   -0.8694    0.6434 H   0  0  0  0  0  0  0  0  0  0  0  0
   -1.3081   -0.4346    1.0332 C   0  0  1  0  0  0  0  0  0  0  0  0
   -0.6750   -0.7578    1.8672 H   0  0  0  0  0  0  0  0  0  0  0  0
   -0.5013   -0.6477   -0.2805 C   0  0  0  0  0  0  0  0  0  0  0  0
    0.4856   -1.0184    0.0177 H   0  0  0  0  0  0  0  0  0  0  0  0
   -0.9536   -1.4458   -0.8805 H   0  0  0  0  0  0  0  0  0  0  0  0
   -0.2704    0.5913   -1.1696 C   0  0  0  0  0  0  0  0  0  0  0  0
   -0.1312    1.5030   -0.5817 H   0  0  0  0  0  0  0  0  0  0  0  0
    0.6556    0.4424   -1.7357 H   0  0  0  0  0  0  0  0  0  0  0  0
   -1.4208    0.7287   -2.1675 C   0  0  0  0  0  0  0  0  0  0  0  0
   -1.4106   -0.1271   -2.8515 H   0  0  0  0  0  0  0  0  0  0  0  0
   -2.3753    0.7042   -1.6309 H   0  0  0  0  0  0  0  0  0  0  0  0
   -1.2962    1.9835   -2.9324 N   0  3  0  0  0  0  0  0  0  0  0  0
   -0.6284    1.9889   -3.7020 H   0  0  0  0  0  0  0  0  0  0  0  0
   -2.0242    3.0425   -2.7147 C   0  0  0  0  0  0  0  0  0  0  0  0
   -2.9355    3.1159   -1.6869 N   0  0  0  0  0  0  0  0  0  0  0  0
   -2.8592    2.4208   -0.9359 H   0  0  0  0  0  0  0  0  0  0  0  0
   -3.3005    4.0287   -1.4294 H   0  0  0  0  0  0  0  0  0  0  0  0
   -1.8870    4.1345   -3.5383 N   0  0  0  0  0  0  0  0  0  0  0  0
   -1.3697    4.0257   -4.4082 H   0  0  0  0  0  0  0  0  0  0  0  0
   -2.6019    4.8586   -3.4981 H   0  0  0  0  0  0  0  0  0  0  0  0
   -1.7131    1.0219    1.3462 C   0  0  0  0  0  0  0  0  0  0  0  0
   -2.5987    1.5673    0.6889 O   0  0  0  0  0  0  0  0  0  0  0  0
   -1.0194    1.7561    2.2892 N   0  0  0  0  0  0  0  0  0  0  0  0
   -0.3469    1.2529    2.8656 H   0  0  0  0  0  0  0  0  0  0  0  0
   -1.3829    3.1139    2.6811 C   0  0  0  0  0  0  0  0  0  0  0  0
   -2.4136    3.1457    3.0505 H   0  0  0  0  0  0  0  0  0  0  0  0
   -0.7215    3.4665    3.4792 H   0  0  0  0  0  0  0  0  0  0  0  0
   -1.2905    3.7983    1.8317 H   0  0  0  0  0  0  0  0  0  0  0  0
  1  2  1  0  0  0  0
  2  3  1  0  0  0  0
  2  4  1  0  0  0  0
  2  5  1  0  0  0  0
  5  6  2  0  0  0  0
  5  7  1  0  0  0  0
  7  8  1  0  0  0  0
  7  9  1  0  0  0  0
  9 10  1  0  0  0  0
  9 11  1  0  0  0  0
  9 29  1  0  0  0  0
 11 12  1  0  0  0  0
 11 13  1  0  0  0  0
 11 14  1  0  0  0  0
 14 15  1  0  0  0  0
 14 16  1  0  0  0  0
 14 17  1  0  0  0  0
 17 18  1  0  0  0  0
 17 19  1  0  0  0  0
 17 20  1  0  0  0  0
 20 21  1  0  0  0  0
 20 22  2  0  0  0  0
 22 23  1  0  0  0  0
 22 26  1  0  0  0  0
 23 24  1  0  0  0  0
 23 25  1  0  0  0  0
 26 27  1  0  0  0  0
 26 28  1  0  0  0  0
 29 30  2  0  0  0  0
 29 31  1  0  0  0  0
 31 32  1  0  0  0  0
 31 33  1  0  0  0  0
 33 34  1  0  0  0  0
 33 35  1  0  0  0  0
 33 36  1  0  0  0  0
M  CHG  1  20   1
M  END
$$$$

  -OEChem-03222214013D

 36 35  0     1  0  0  0  0  0999 V2000
   -3.7778   -4.2901    2.0275 H   0  0  0  0  0  0  0  0  0  0  0  0
   -3.9273   -3.2962    1.5955 C   0  0  0  0  0  0  0  0  0  0  0  0
   -4.6506   -2.7525    2.2080 H   0  0  0  0  0  0  0  0  0  0  0  0
   -4.3268   -3.4101    0.5850 H   0  0  0  0  0  0  0  0  0  0  0  0
   -2.6114   -2.5432    1.5533 C   0  0  0  0  0  0  0  0  0  0  0  0
   -1.5966   -3.0588    1.9911 O   0  0  0  0  0  0  0  0  0  0  0  0
   -2.5581   -1.2720    1.0132 N   0  0  0  0  0  0  0  0  0  0  0  0
   -3.4457   -0.8473    0.7537 H   0  0  0  0  0  0  0  0  0  0  0  0
   -1.3676   -0.4069    1.0567 C   0  0  1  0  0  0  0  0  0  0  0  0
   -0.7251   -0.7650    1.8696 H   0  0  0  0  0  0  0  0  0  0  0  0
   -0.5531   -0.5980   -0.2546 C   0  0  0  0  0  0  0  0  0  0  0  0
    0.4390   -0.9614    0.0353 H   0  0  0  0  0  0  0  0  0  0  0  0
   -1.0043   -1.3913   -0.8612 H   0  0  0  0  0  0  0  0  0  0  0  0
   -0.3438    0.6441   -1.1401 C   0  0  0  0  0  0  0  0  0  0  0  0
   -0.0037    1.4917   -0.5359 H   0  0  0  0  0  0  0  0  0  0  0  0
    0.4447    0.4304   -1.8701 H   0  0  0  0  0  0  0  0  0  0  0  0
   -1.6328    0.9906   -1.8921 C   0  0  0  0  0  0  0  0  0  0  0  0
   -1.8404    0.2014   -2.6231 H   0  0  0  0  0  0  0  0  0  0  0  0
   -2.4784    1.0131   -1.2009 H   0  0  0  0  0  0  0  0  0  0  0  0
   -1.4949    2.2852   -2.5857 N   0  3  0  0  0  0  0  0  0  0  0  0
   -0.8411    2.3200   -3.3663 H   0  0  0  0  0  0  0  0  0  0  0  0
   -2.2037    3.3424   -2.3047 C   0  0  0  0  0  0  0  0  0  0  0  0
   -3.1018    3.3786   -1.2638 N   0  0  0  0  0  0  0  0  0  0  0  0
   -3.0255    2.6444   -0.5512 H   0  0  0  0  0  0  0  0  0  0  0  0
   -3.4437    4.2838   -0.9531 H   0  0  0  0  0  0  0  0  0  0  0  0
   -2.0596    4.4723   -3.0741 N   0  0  0  0  0  0  0  0  0  0  0  0
   -1.5533    4.4000   -3.9542 H   0  0  0  0  0  0  0  0  0  0  0  0
   -2.7660    5.2011   -2.9917 H   0  0  0  0  0  0  0  0  0  0  0  0
   -1.7109    1.0449    1.4557 C   0  0  0  0  0  0  0  0  0  0  0  0
   -2.6636    1.6258    0.9410 O   0  0  0  0  0  0  0  0  0  0  0  0
   -0.9379    1.7145    2.3853 N   0  0  0  0  0  0  0  0  0  0  0  0
   -0.2250    1.1727    2.8710 H   0  0  0  0  0  0  0  0  0  0  0  0
   -1.2639    3.0402    2.9007 C   0  0  0  0  0  0  0  0  0  0  0  0
   -2.2412    3.0310    3.3954 H   0  0  0  0  0  0  0  0  0  0  0  0
   -0.5119    3.3571    3.6304 H   0  0  0  0  0  0  0  0  0  0  0  0
   -1.2851    3.7752    2.0895 H   0  0  0  0  0  0  0  0  0  0  0  0
  1  2  1  0  0  0  0
  2  3  1  0  0  0  0
  2  4  1  0  0  0  0
  2  5  1  0  0  0  0
  5  6  2  0  0  0  0
  5  7  1  0  0  0  0
  7  8  1  0  0  0  0
  7  9  1  0  0  0  0
  9 10  1  0  0  0  0
  9 11  1  0  0  0  0
  9 29  1  0  0  0  0
 11 12  1  0  0  0  0
 11 13  1  0  0  0  0
 11 14  1  0  0  0  0
 14 15  1  0  0  0  0
 14 16  1  0  0  0  0
 14 17  1  0  0  0  0
 17 18  1  0  0  0  0
 17 19  1  0  0  0  0
 17 20  1  0  0  0  0
 20 21  1  0  0  0  0
 20 22  2  0  0  0  0
 22 23  1  0  0  0  0
 22 26  1  0  0  0  0
 23 24  1  0  0  0  0
 23 25  1  0  0  0  0
 26 27  1  0  0  0  0
 26 28  1  0  0  0  0
 29 30  2  0  0  0  0
 29 31  1  0  0  0  0
 31 32  1  0  0  0  0
 31 33  1  0  0  0  0
 33 34  1  0  0  0  0
 33 35  1  0  0  0  0
 33 36  1  0  0  0  0
M  CHG  1  20   1
M  END
$$$$

  -OEChem-03222214013D

 36 35  0     1  0  0  0  0  0999 V2000
   -3.7303   -4.3372    1.9910 H   0  0  0  0  0  0  0  0  0  0  0  0
   -3.9176   -3.3283    1.6121 C   0  0  0  0  0  0  0  0  0  0  0  0
   -4.6236   -2.8277    2.2789 H   0  0  0  0  0  0  0  0  0  0  0  0
   -4.3580   -3.4049    0.6153 H   0  0  0  0  0  0  0  0  0  0  0  0
   -2.6187   -2.5481    1.5469 C   0  0  0  0  0  0  0  0  0  0  0  0
   -1.5754   -3.0676    1.9066 O   0  0  0  0  0  0  0  0  0  0  0  0
   -2.6110   -1.2523    1.0640 N   0  0  0  0  0  0  0  0  0  0  0  0
   -3.5172   -0.8305    0.8723 H   0  0  0  0  0  0  0  0  0  0  0  0
   -1.4317   -0.3709    1.0828 C   0  0  1  0  0  0  0  0  0  0  0  0
   -0.7833   -0.7536    1.8791 H   0  0  0  0  0  0  0  0  0  0  0  0
   -0.5983   -0.5500   -0.2190 C   0  0  0  0  0  0  0  0  0  0  0  0
    0.3947   -0.9086    0.0738 H   0  0  0  0  0  0  0  0  0  0  0  0
   -1.0471   -1.3488   -0.8198 H   0  0  0  0  0  0  0  0  0  0  0  0
   -0.3927    0.6727   -1.1338 C   0  0  0  0  0  0  0  0  0  0  0  0
    0.1414    1.4431   -0.5672 H   0  0  0  0  0  0  0  0  0  0  0  0
    0.2423    0.3882   -1.9797 H   0  0  0  0  0  0  0  0  0  0  0  0
   -1.7126    1.2470   -1.6620 C   0  0  0  0  0  0  0  0  0  0  0  0
   -2.4731    1.2455   -0.8834 H   0  0  0  0  0  0  0  0  0  0  0  0
   -2.0826    0.5940   -2.4604 H   0  0  0  0  0  0  0  0  0  0  0  0
   -1.5099    2.6091   -2.1917 N   0  3  0  0  0  0  0  0  0  0  0  0
   -0.8163    2.7157   -2.9301 H   0  0  0  0  0  0  0  0  0  0  0  0
   -2.2143    3.6451   -1.8312 C   0  0  0  0  0  0  0  0  0  0  0  0
   -3.1745    3.5854   -0.8484 N   0  0  0  0  0  0  0  0  0  0  0  0
   -3.1390    2.7854   -0.2073 H   0  0  0  0  0  0  0  0  0  0  0  0
   -3.5291    4.4586   -0.4679 H   0  0  0  0  0  0  0  0  0  0  0  0
   -2.0026    4.8515   -2.4556 N   0  0  0  0  0  0  0  0  0  0  0  0
   -1.4425    4.8695   -3.3054 H   0  0  0  0  0  0  0  0  0  0  0  0
   -2.6958    5.5866   -2.3276 H   0  0  0  0  0  0  0  0  0  0  0  0
   -1.7245    1.0689    1.5601 C   0  0  0  0  0  0  0  0  0  0  0  0
   -2.7406    1.6591    1.2030 O   0  0  0  0  0  0  0  0  0  0  0  0
   -0.8798    1.6850    2.4645 N   0  0  0  0  0  0  0  0  0  0  0  0
   -0.1240    1.1206    2.8491 H   0  0  0  0  0  0  0  0  0  0  0  0
   -1.1790    2.9606    3.1075 C   0  0  0  0  0  0  0  0  0  0  0  0
   -2.0934    2.8845    3.7060 H   0  0  0  0  0  0  0  0  0  0  0  0
   -0.3575    3.2517    3.7700 H   0  0  0  0  0  0  0  0  0  0  0  0
   -1.3108    3.7488    2.3590 H   0  0  0  0  0  0  0  0  0  0  0  0
  1  2  1  0  0  0  0
  2  3  1  0  0  0  0
  2  4  1  0  0  0  0
  2  5  1  0  0  0  0
  5  6  2  0  0  0  0
  5  7  1  0  0  0  0
  7  8  1  0  0  0  0
  7  9  1  0  0  0  0
  9 10  1  0  0  0  0
  9 11  1  0  0  0  0
  9 29  1  0  0  0  0
 11 12  1  0  0  0  0
 11 13  1  0  0  0  0
 11 14  1  0  0  0  0
 14 15  1  0  0  0  0
 14 16  1  0  0  0  0
 14 17  1  0  0  0  0
 17 18  1  0  0  0  0
 17 19  1  0  0  0  0
 17 20  1  0  0  0  0
 20 21  1  0  0  0  0
 20 22  2  0  0  0  0
 22 23  1  0  0  0  0
 22 26  1  0  0  0  0
 23 24  1  0  0  0  0
 23 25  1  0  0  0  0
 26 27  1  0  0  0  0
 26 28  1  0  0  0  0
 29 30  2  0  0  0  0
 29 31  1  0  0  0  0
 31 32  1  0  0  0  0
 31 33  1  0  0  0  0
 33 34  1  0  0  0  0
 33 35  1  0  0  0  0
 33 36  1  0  0  0  0
M  CHG  1  20   1
M  END
$$$$

  -OEChem-03222214013D

 36 35  0     1  0  0  0  0  0999 V2000
   -3.6853   -4.3715    1.9925 H   0  0  0  0  0  0  0  0  0  0  0  0
   -3.8983   -3.3613    1.6310 C   0  0  0  0  0  0  0  0  0  0  0  0
   -4.5944   -2.8811    2.3229 H   0  0  0  0  0  0  0  0  0  0  0  0
   -4.3636   -3.4324    0.6451 H   0  0  0  0  0  0  0  0  0  0  0  0
   -2.6147   -2.5582    1.5426 C   0  0  0  0  0  0  0  0  0  0  0  0
   -1.5519   -3.0669    1.8590 O   0  0  0  0  0  0  0  0  0  0  0  0
   -2.6453   -1.2491    1.0977 N   0  0  0  0  0  0  0  0  0  0  0  0
   -3.5648   -0.8431    0.9364 H   0  0  0  0  0  0  0  0  0  0  0  0
   -1.4891   -0.3378    1.1274 C   0  0  1  0  0  0  0  0  0  0  0  0
   -0.8514   -0.7223    1.9317 H   0  0  0  0  0  0  0  0  0  0  0  0
   -0.6048   -0.5025   -0.1448 C   0  0  0  0  0  0  0  0  0  0  0  0
    0.3814   -0.8524    0.1802 H   0  0  0  0  0  0  0  0  0  0  0  0
   -1.0315   -1.3148   -0.7437 H   0  0  0  0  0  0  0  0  0  0  0  0
   -0.3739    0.6872   -1.1034 C   0  0  0  0  0  0  0  0  0  0  0  0
    0.3348    1.3603   -0.6083 H   0  0  0  0  0  0  0  0  0  0  0  0
    0.1068    0.3275   -2.0198 H   0  0  0  0  0  0  0  0  0  0  0  0
   -1.6279    1.4912   -1.4694 C   0  0  0  0  0  0  0  0  0  0  0  0
   -2.3692    1.4351   -0.6792 H   0  0  0  0  0  0  0  0  0  0  0  0
   -2.0858    1.0299   -2.3513 H   0  0  0  0  0  0  0  0  0  0  0  0
   -1.2893    2.8952   -1.7726 N   0  3  0  0  0  0  0  0  0  0  0  0
   -0.5158    3.0519   -2.4170 H   0  0  0  0  0  0  0  0  0  0  0  0
   -1.9817    3.9176   -1.3545 C   0  0  0  0  0  0  0  0  0  0  0  0
   -3.0488    3.7914   -0.4960 N   0  0  0  0  0  0  0  0  0  0  0  0
   -3.1195    2.9181    0.0376 H   0  0  0  0  0  0  0  0  0  0  0  0
   -3.4041    4.6298   -0.0450 H   0  0  0  0  0  0  0  0  0  0  0  0
   -1.6460    5.1781   -1.7879 N   0  0  0  0  0  0  0  0  0  0  0  0
   -0.9971    5.2682   -2.5669 H   0  0  0  0  0  0  0  0  0  0  0  0
   -2.3154    5.9306   -1.6382 H   0  0  0  0  0  0  0  0  0  0  0  0
   -1.7983    1.0834    1.6476 C   0  0  0  0  0  0  0  0  0  0  0  0
   -2.8540    1.6446    1.3661 O   0  0  0  0  0  0  0  0  0  0  0  0
   -0.9481    1.6884    2.5550 N   0  0  0  0  0  0  0  0  0  0  0  0
   -0.1714    1.1261    2.8989 H   0  0  0  0  0  0  0  0  0  0  0  0
   -1.2906    2.9002    3.2933 C   0  0  0  0  0  0  0  0  0  0  0  0
   -2.1591    2.7237    3.9372 H   0  0  0  0  0  0  0  0  0  0  0  0
   -0.4503    3.2084    3.9239 H   0  0  0  0  0  0  0  0  0  0  0  0
   -1.5210    3.7207    2.6064 H   0  0  0  0  0  0  0  0  0  0  0  0
  1  2  1  0  0  0  0
  2  3  1  0  0  0  0
  2  4  1  0  0  0  0
  2  5  1  0  0  0  0
  5  6  2  0  0  0  0
  5  7  1  0  0  0  0
  7  8  1  0  0  0  0
  7  9  1  0  0  0  0
  9 10  1  0  0  0  0
  9 11  1  0  0  0  0
  9 29  1  0  0  0  0
 11 12  1  0  0  0  0
 11 13  1  0  0  0  0
 11 14  1  0  0  0  0
 14 15  1  0  0  0  0
 14 16  1  0  0  0  0
 14 17  1  0  0  0  0
 17 18  1  0  0  0  0
 17 19  1  0  0  0  0
 17 20  1  0  0  0  0
 20 21  1  0  0  0  0
 20 22  2  0  0  0  0
 22 23  1  0  0  0  0
 22 26  1  0  0  0  0
 23 24  1  0  0  0  0
 23 25  1  0  0  0  0
 26 27  1  0  0  0  0
 26 28  1  0  0  0  0
 29 30  2  0  0  0  0
 29 31  1  0  0  0  0
 31 32  1  0  0  0  0
 31 33  1  0  0  0  0
 33 34  1  0  0  0  0
 33 35  1  0  0  0  0
 33 36  1  0  0  0  0
M  CHG  1  20   1
M  END
$$$$

  -OEChem-03222214013D

 36 35  0     1  0  0  0  0  0999 V2000
   -3.8508   -4.3235    1.7427 H   0  0  0  0  0  0  0  0  0  0  0  0
   -3.9888   -3.2613    1.5210 C   0  0  0  0  0  0  0  0  0  0  0  0
   -4.5815   -2.8112    2.3209 H   0  0  0  0  0  0  0  0  0  0  0  0
   -4.5299   -3.1673    0.5767 H   0  0  0  0  0  0  0  0  0  0  0  0
   -2.6418   -2.5717    1.4191 C   0  0  0  0  0  0  0  0  0  0  0  0
   -1.6144   -3.2213    1.5216 O   0  0  0  0  0  0  0  0  0  0  0  0
   -2.5728   -1.2077    1.2045 N   0  0  0  0  0  0  0  0  0  0  0  0
   -3.4514   -0.6935    1.2364 H   0  0  0  0  0  0  0  0  0  0  0  0
   -1.3251   -0.4277    1.2688 C   0  0  1  0  0  0  0  0  0  0  0  0
   -0.6261   -0.9944    1.8943 H   0  0  0  0  0  0  0  0  0  0  0  0
   -0.6597   -0.3943   -0.1493 C   0  0  0  0  0  0  0  0  0  0  0  0
    0.3003   -0.9162   -0.0685 H   0  0  0  0  0  0  0  0  0  0  0  0
   -1.2782   -1.0122   -0.8104 H   0  0  0  0  0  0  0  0  0  0  0  0
   -0.3930    0.9245   -0.9214 C   0  0  0  0  0  0  0  0  0  0  0  0
    0.6099    1.2838   -0.6663 H   0  0  0  0  0  0  0  0  0  0  0  0
   -0.3959    0.6950   -1.9926 H   0  0  0  0  0  0  0  0  0  0  0  0
   -1.3807    2.0458   -0.6349 C   0  0  0  0  0  0  0  0  0  0  0  0
   -2.3891    1.6180   -0.5928 H   0  0  0  0  0  0  0  0  0  0  0  0
   -1.1405    2.4731    0.3427 H   0  0  0  0  0  0  0  0  0  0  0  0
   -1.3588    3.1318   -1.6247 N   0  3  0  0  0  0  0  0  0  0  0  0
   -0.8770    2.9701   -2.5078 H   0  0  0  0  0  0  0  0  0  0  0  0
   -2.0122    4.2394   -1.4200 C   0  0  0  0  0  0  0  0  0  0  0  0
   -2.7124    4.4496   -0.2501 N   0  0  0  0  0  0  0  0  0  0  0  0
   -2.8208    3.6589    0.3897 H   0  0  0  0  0  0  0  0  0  0  0  0
   -3.4141    5.1857   -0.2220 H   0  0  0  0  0  0  0  0  0  0  0  0
   -2.0138    5.2211   -2.3818 N   0  0  0  0  0  0  0  0  0  0  0  0
   -1.3615    5.1450   -3.1596 H   0  0  0  0  0  0  0  0  0  0  0  0
   -2.3461    6.1488   -2.1252 H   0  0  0  0  0  0  0  0  0  0  0  0
   -1.5217    0.8825    2.0655 C   0  0  0  0  0  0  0  0  0  0  0  0
   -2.5373    1.5610    1.9134 O   0  0  0  0  0  0  0  0  0  0  0  0
   -0.5868    1.2754    3.0053 N   0  0  0  0  0  0  0  0  0  0  0  0
    0.1705    0.6244    3.2046 H   0  0  0  0  0  0  0  0  0  0  0  0
   -0.7942    2.3896    3.9250 C   0  0  0  0  0  0  0  0  0  0  0  0
   -1.6602    2.2002    4.5684 H   0  0  0  0  0  0  0  0  0  0  0  0
    0.0862    2.5229    4.5620 H   0  0  0  0  0  0  0  0  0  0  0  0
   -0.9619    3.3201    3.3732 H   0  0  0  0  0  0  0  0  0  0  0  0
  1  2  1  0  0  0  0
  2  3  1  0  0  0  0
  2  4  1  0  0  0  0
  2  5  1  0  0  0  0
  5  6  2  0  0  0  0
  5  7  1  0  0  0  0
  7  8  1  0  0  0  0
  7  9  1  0  0  0  0
  9 10  1  0  0  0  0
  9 11  1  0  0  0  0
  9 29  1  0  0  0  0
 11 12  1  0  0  0  0
 11 13  1  0  0  0  0
 11 14  1  0  0  0  0
 14 15  1  0  0  0  0
 14 16  1  0  0  0  0
 14 17  1  0  0  0  0
 17 18  1  0  0  0  0
 17 19  1  0  0  0  0
 17 20  1  0  0  0  0
 20 21  1  0  0  0  0
 20 22  2  0  0  0  0
 22 23  1  0  0  0  0
 22 26  1  0  0  0  0
 23 24  1  0  0  0  0
 23 25  1  0  0  0  0
 26 27  1  0  0  0  0
 26 28  1  0  0  0  0
 29 30  2  0  0  0  0
 29 31  1  0  0  0  0
 31 32  1  0  0  0  0
 31 33  1  0  0  0  0
 33 34  1  0  0  0  0
 33 35  1  0  0  0  0
 33 36  1  0  0  0  0
M  CHG  1  20   1
M  END
$$$$

  -OEChem-03222214013D

 36 35  0     1  0  0  0  0  0999 V2000
   -3.9701   -4.2435    1.5833 H   0  0  0  0  0  0  0  0  0  0  0  0
   -4.0664   -3.1598    1.4695 C   0  0  0  0  0  0  0  0  0  0  0  0
   -4.6247   -2.7656    2.3219 H   0  0  0  0  0  0  0  0  0  0  0  0
   -4.6194   -2.9510    0.5507 H   0  0  0  0  0  0  0  0  0  0  0  0
   -2.6933   -2.5193    1.4058 C   0  0  0  0  0  0  0  0  0  0  0  0
   -1.6911   -3.2103    1.4850 O   0  0  0  0  0  0  0  0  0  0  0  0
   -2.5729   -1.1516    1.2473 N   0  0  0  0  0  0  0  0  0  0  0  0
   -3.4323   -0.6062    1.2844 H   0  0  0  0  0  0  0  0  0  0  0  0
   -1.2965   -0.4207    1.3156 C   0  0  1  0  0  0  0  0  0  0  0  0
   -0.6096   -1.0365    1.9073 H   0  0  0  0  0  0  0  0  0  0  0  0
   -0.6554   -0.3749   -0.1173 C   0  0  0  0  0  0  0  0  0  0  0  0
    0.2847   -0.9347   -0.0579 H   0  0  0  0  0  0  0  0  0  0  0  0
   -1.3025   -0.9621   -0.7786 H   0  0  0  0  0  0  0  0  0  0  0  0
   -0.3407    0.9395   -0.8876 C   0  0  0  0  0  0  0  0  0  0  0  0
    0.7433    1.0969   -0.8761 H   0  0  0  0  0  0  0  0  0  0  0  0
   -0.6367    0.7967   -1.9327 H   0  0  0  0  0  0  0  0  0  0  0  0
   -1.0037    2.1956   -0.3507 C   0  0  0  0  0  0  0  0  0  0  0  0
   -2.0586    1.9592   -0.1744 H   0  0  0  0  0  0  0  0  0  0  0  0
   -0.5371    2.4624    0.6033 H   0  0  0  0  0  0  0  0  0  0  0  0
   -0.9352    3.3535   -1.2520 N   0  3  0  0  0  0  0  0  0  0  0  0
   -0.2479    3.3413   -2.0042 H   0  0  0  0  0  0  0  0  0  0  0  0
   -1.6855    4.3995   -1.0538 C   0  0  0  0  0  0  0  0  0  0  0  0
   -2.5909    4.4432   -0.0130 N   0  0  0  0  0  0  0  0  0  0  0  0
   -2.5804    3.6816    0.6705 H   0  0  0  0  0  0  0  0  0  0  0  0
   -2.9818    5.3387    0.2699 H   0  0  0  0  0  0  0  0  0  0  0  0
   -1.5772    5.4869   -1.8873 N   0  0  0  0  0  0  0  0  0  0  0  0
   -1.0520    5.3868   -2.7536 H   0  0  0  0  0  0  0  0  0  0  0  0
   -2.3053    6.1979   -1.8501 H   0  0  0  0  0  0  0  0  0  0  0  0
   -1.4310    0.8607    2.1713 C   0  0  0  0  0  0  0  0  0  0  0  0
   -2.4077    1.5999    2.0509 O   0  0  0  0  0  0  0  0  0  0  0  0
   -0.4624    1.1776    3.1060 N   0  0  0  0  0  0  0  0  0  0  0  0
    0.2589    0.4788    3.2754 H   0  0  0  0  0  0  0  0  0  0  0  0
   -0.6117    2.2563    4.0780 C   0  0  0  0  0  0  0  0  0  0  0  0
   -1.4431    2.0451    4.7591 H   0  0  0  0  0  0  0  0  0  0  0  0
    0.3025    2.3603    4.6711 H   0  0  0  0  0  0  0  0  0  0  0  0
   -0.8024    3.2097    3.5745 H   0  0  0  0  0  0  0  0  0  0  0  0
  1  2  1  0  0  0  0
  2  3  1  0  0  0  0
  2  4  1  0  0  0  0
  2  5  1  0  0  0  0
  5  6  2  0  0  0  0
  5  7  1  0  0  0  0
  7  8  1  0  0  0  0
  7  9  1  0  0  0  0
  9 10  1  0  0  0  0
  9 11  1  0  0  0  0
  9 29  1  0  0  0  0
 11 12  1  0  0  0  0
 11 13  1  0  0  0  0
 11 14  1  0  0  0  0
 14 15  1  0  0  0  0
 14 16  1  0  0  0  0
 14 17  1  0  0  0  0
 17 18  1  0  0  0  0
 17 19  1  0  0  0  0
 17 20  1  0  0  0  0
 20 21  1  0  0  0  0
 20 22  2  0  0  0  0
 22 23  1  0  0  0  0
 22 26  1  0  0  0  0
 23 24  1  0  0  0  0
 23 25  1  0  0  0  0
 26 27  1  0  0  0  0
 26 28  1  0  0  0  0
 29 30  2  0  0  0  0
 29 31  1  0  0  0  0
 31 32  1  0  0  0  0
 31 33  1  0  0  0  0
 33 34  1  0  0  0  0
 33 35  1  0  0  0  0
 33 36  1  0  0  0  0
M  CHG  1  20   1
M  END
$$$$

  -OEChem-03222214013D

 36 35  0     1  0  0  0  0  0999 V2000
   -4.5005   -3.6201    1.6582 H   0  0  0  0  0  0  0  0  0  0  0  0
   -4.4049   -2.5430    1.4930 C   0  0  0  0  0  0  0  0  0  0  0  0
   -4.8596   -2.0184    2.3366 H   0  0  0  0  0  0  0  0  0  0  0  0
   -4.9376   -2.2791    0.5765 H   0  0  0  0  0  0  0  0  0  0  0  0
   -2.9414   -2.1642    1.3706 C   0  0  0  0  0  0  0  0  0  0  0  0
   -2.0834   -3.0310    1.3645 O   0  0  0  0  0  0  0  0  0  0  0  0
   -2.5724   -0.8360    1.2683 N   0  0  0  0  0  0  0  0  0  0  0  0
   -3.3085   -0.1440    1.3964 H   0  0  0  0  0  0  0  0  0  0  0  0
   -1.1770   -0.3674    1.3418 C   0  0  1  0  0  0  0  0  0  0  0  0
   -0.5848   -1.1272    1.8648 H   0  0  0  0  0  0  0  0  0  0  0  0
   -0.6045   -0.2921   -0.1135 C   0  0  0  0  0  0  0  0  0  0  0  0
    0.2174   -1.0164   -0.1301 H   0  0  0  0  0  0  0  0  0  0  0  0
   -1.3643   -0.7100   -0.7837 H   0  0  0  0  0  0  0  0  0  0  0  0
   -0.0527    0.9770   -0.8380 C   0  0  0  0  0  0  0  0  0  0  0  0
    0.9691    0.7504   -1.1626 H   0  0  0  0  0  0  0  0  0  0  0  0
   -0.6451    1.0734   -1.7546 H   0  0  0  0  0  0  0  0  0  0  0  0
   -0.0062    2.3597   -0.1662 C   0  0  0  0  0  0  0  0  0  0  0  0
    1.0340    2.5871    0.0927 H   0  0  0  0  0  0  0  0  0  0  0  0
   -0.5651    2.3842    0.7554 H   0  0  0  0  0  0  0  0  0  0  0  0
   -0.5351    3.4060   -1.0619 N   0  3  0  0  0  0  0  0  0  0  0  0
   -0.0332    3.5672   -1.9339 H   0  0  0  0  0  0  0  0  0  0  0  0
   -1.5807    4.1337   -0.7831 C   0  0  0  0  0  0  0  0  0  0  0  0
   -2.3113    3.9769    0.3740 N   0  0  0  0  0  0  0  0  0  0  0  0
   -2.1256    3.1603    0.9668 H   0  0  0  0  0  0  0  0  0  0  0  0
   -3.2315    4.4036    0.4388 H   0  0  0  0  0  0  0  0  0  0  0  0
   -1.9789    5.1038   -1.6718 N   0  0  0  0  0  0  0  0  0  0  0  0
   -1.3502    5.3586   -2.4307 H   0  0  0  0  0  0  0  0  0  0  0  0
   -2.6474    5.8024   -1.3525 H   0  0  0  0  0  0  0  0  0  0  0  0
   -1.1207    0.8646    2.2622 C   0  0  0  0  0  0  0  0  0  0  0  0
   -1.9940    1.7288    2.1758 O   0  0  0  0  0  0  0  0  0  0  0  0
   -0.1337    0.9896    3.2208 N   0  0  0  0  0  0  0  0  0  0  0  0
    0.4911    0.1957    3.3503 H   0  0  0  0  0  0  0  0  0  0  0  0
   -0.1193    2.0482    4.2258 C   0  0  0  0  0  0  0  0  0  0  0  0
   -1.0028    1.9788    4.8695 H   0  0  0  0  0  0  0  0  0  0  0  0
    0.7728    1.9608    4.8542 H   0  0  0  0  0  0  0  0  0  0  0  0
   -0.1066    3.0339    3.7494 H   0  0  0  0  0  0  0  0  0  0  0  0
  1  2  1  0  0  0  0
  2  3  1  0  0  0  0
  2  4  1  0  0  0  0
  2  5  1  0  0  0  0
  5  6  2  0  0  0  0
  5  7  1  0  0  0  0
  7  8  1  0  0  0  0
  7  9  1  0  0  0  0
  9 10  1  0  0  0  0
  9 11  1  0  0  0  0
  9 29  1  0  0  0  0
 11 12  1  0  0  0  0
 11 13  1  0  0  0  0
 11 14  1  0  0  0  0
 14 15  1  0  0  0  0
 14 16  1  0  0  0  0
 14 17  1  0  0  0  0
 17 18  1  0  0  0  0
 17 19  1  0  0  0  0
 17 20  1  0  0  0  0
 20 21  1  0  0  0  0
 20 22  2  0  0  0  0
 22 23  1  0  0  0  0
 22 26  1  0  0  0  0
 23 24  1  0  0  0  0
 23 25  1  0  0  0  0
 26 27  1  0  0  0  0
 26 28  1  0  0  0  0
 29 30  2  0  0  0  0
 29 31  1  0  0  0  0
 31 32  1  0  0  0  0
 31 33  1  0  0  0  0
 33 34  1  0  0  0  0
 33 35  1  0  0  0  0
 33 36  1  0  0  0  0
M  CHG  1  20   1
M  END
$$$$

  -OEChem-03222214013D

 36 35  0     1  0  0  0  0  0999 V2000
   -4.3570   -3.7884    1.3884 H   0  0  0  0  0  0  0  0  0  0  0  0
   -4.2797   -2.6972    1.3838 C   0  0  0  0  0  0  0  0  0  0  0  0
   -4.7651   -2.3067    2.2815 H   0  0  0  0  0  0  0  0  0  0  0  0
   -4.7954   -2.3129    0.5006 H   0  0  0  0  0  0  0  0  0  0  0  0
   -2.8224   -2.2788    1.3591 C   0  0  0  0  0  0  0  0  0  0  0  0
   -1.9423   -3.1198    1.4358 O   0  0  0  0  0  0  0  0  0  0  0  0
   -2.4846   -0.9431    1.2527 N   0  0  0  0  0  0  0  0  0  0  0  0
   -3.2457   -0.2676    1.2946 H   0  0  0  0  0  0  0  0  0  0  0  0
   -1.1070   -0.4335    1.3645 C   0  0  1  0  0  0  0  0  0  0  0  0
   -0.4879   -1.1688    1.8912 H   0  0  0  0  0  0  0  0  0  0  0  0
   -0.5416   -0.3068   -0.0892 C   0  0  0  0  0  0  0  0  0  0  0  0
    0.3204   -0.9829   -0.1025 H   0  0  0  0  0  0  0  0  0  0  0  0
   -1.2659   -0.7521   -0.7810 H   0  0  0  0  0  0  0  0  0  0  0  0
   -0.0344    1.0033   -0.7663 C   0  0  0  0  0  0  0  0  0  0  0  0
    0.8438    0.7569   -1.3733 H   0  0  0  0  0  0  0  0  0  0  0  0
   -0.8285    1.2792   -1.4690 H   0  0  0  0  0  0  0  0  0  0  0  0
    0.2862    2.2690    0.0461 C   0  0  0  0  0  0  0  0  0  0  0  0
   -0.3128    2.3516    0.9411 H   0  0  0  0  0  0  0  0  0  0  0  0
    1.3321    2.2250    0.3690 H   0  0  0  0  0  0  0  0  0  0  0  0
    0.0533    3.4775   -0.7654 N   0  3  0  0  0  0  0  0  0  0  0  0
    0.7093    3.6661   -1.5222 H   0  0  0  0  0  0  0  0  0  0  0  0
   -0.9467    4.2898   -0.5620 C   0  0  0  0  0  0  0  0  0  0  0  0
   -1.8761    4.0868    0.4356 N   0  0  0  0  0  0  0  0  0  0  0  0
   -1.8587    3.2024    0.9557 H   0  0  0  0  0  0  0  0  0  0  0  0
   -2.7523    4.6017    0.4107 H   0  0  0  0  0  0  0  0  0  0  0  0
   -1.0923    5.3923   -1.3699 N   0  0  0  0  0  0  0  0  0  0  0  0
   -0.3227    5.6561   -1.9818 H   0  0  0  0  0  0  0  0  0  0  0  0
   -1.7440    6.1194   -1.0809 H   0  0  0  0  0  0  0  0  0  0  0  0
   -1.1452    0.8067    2.2740 C   0  0  0  0  0  0  0  0  0  0  0  0
   -1.9950    1.6787    2.0859 O   0  0  0  0  0  0  0  0  0  0  0  0
   -0.2058    0.9782    3.2725 N   0  0  0  0  0  0  0  0  0  0  0  0
    0.3999    0.1848    3.4761 H   0  0  0  0  0  0  0  0  0  0  0  0
   -0.2588    2.0677    4.2419 C   0  0  0  0  0  0  0  0  0  0  0  0
   -1.1879    2.0229    4.8204 H   0  0  0  0  0  0  0  0  0  0  0  0
   -0.2043    3.0376    3.7368 H   0  0  0  0  0  0  0  0  0  0  0  0
    0.5837    1.9955    4.9372 H   0  0  0  0  0  0  0  0  0  0  0  0
  1  2  1  0  0  0  0
  2  3  1  0  0  0  0
  2  4  1  0  0  0  0
  2  5  1  0  0  0  0
  5  6  2  0  0  0  0
  5  7  1  0  0  0  0
  7  8  1  0  0  0  0
  7  9  1  0  0  0  0
  9 10  1  0  0  0  0
  9 11  1  0  0  0  0
  9 29  1  0  0  0  0
 11 12  1  0  0  0  0
 11 13  1  0  0  0  0
 11 14  1  0  0  0  0
 14 15  1  0  0  0  0
 14 16  1  0  0  0  0
 14 17  1  0  0  0  0
 17 18  1  0  0  0  0
 17 19  1  0  0  0  0
 17 20  1  0  0  0  0
 20 21  1  0  0  0  0
 20 22  2  0  0  0  0
 22 23  1  0  0  0  0
 22 26  1  0  0  0  0
 23 24  1  0  0  0  0
 23 25  1  0  0  0  0
 26 27  1  0  0  0  0
 26 28  1  0  0  0  0
 29 30  2  0  0  0  0
 29 31  1  0  0  0  0
 31 32  1  0  0  0  0
 31 33  1  0  0  0  0
 33 34  1  0  0  0  0
 33 35  1  0  0  0  0
 33 36  1  0  0  0  0
M  CHG  1  20   1
M  END
$$$$

  -OEChem-03222214013D

 36 35  0     1  0  0  0  0  0999 V2000
   -4.5712   -3.6719    1.1051 H   0  0  0  0  0  0  0  0  0  0  0  0
   -4.4364   -2.5887    1.0346 C   0  0  0  0  0  0  0  0  0  0  0  0
   -5.0461   -2.1080    1.8032 H   0  0  0  0  0  0  0  0  0  0  0  0
   -4.7732   -2.2574    0.0496 H   0  0  0  0  0  0  0  0  0  0  0  0
   -2.9758   -2.2316    1.2317 C   0  0  0  0  0  0  0  0  0  0  0  0
   -2.1613   -3.1020    1.4902 O   0  0  0  0  0  0  0  0  0  0  0  0
   -2.5601   -0.9188    1.1165 N   0  0  0  0  0  0  0  0  0  0  0  0
   -3.2788   -0.2121    0.9711 H   0  0  0  0  0  0  0  0  0  0  0  0
   -1.1830   -0.4645    1.3718 C   0  0  1  0  0  0  0  0  0  0  0  0
   -0.6523   -1.2057    1.9799 H   0  0  0  0  0  0  0  0  0  0  0  0
   -0.4749   -0.3934   -0.0209 C   0  0  0  0  0  0  0  0  0  0  0  0
    0.3591   -1.0994    0.0567 H   0  0  0  0  0  0  0  0  0  0  0  0
   -1.1422   -0.8136   -0.7824 H   0  0  0  0  0  0  0  0  0  0  0  0
    0.1370    0.8999   -0.6298 C   0  0  0  0  0  0  0  0  0  0  0  0
    0.9062    0.6071   -1.3528 H   0  0  0  0  0  0  0  0  0  0  0  0
   -0.6760    1.3610   -1.2016 H   0  0  0  0  0  0  0  0  0  0  0  0
    0.7150    1.9975    0.2793 C   0  0  0  0  0  0  0  0  0  0  0  0
    0.1056    2.1816    1.1570 H   0  0  0  0  0  0  0  0  0  0  0  0
    1.7006    1.6802    0.6374 H   0  0  0  0  0  0  0  0  0  0  0  0
    0.8285    3.2603   -0.4725 N   0  3  0  0  0  0  0  0  0  0  0  0
    1.6224    3.3564   -1.1044 H   0  0  0  0  0  0  0  0  0  0  0  0
   -0.0343    4.2329   -0.3708 C   0  0  0  0  0  0  0  0  0  0  0  0
   -1.1393    4.1609    0.4494 N   0  0  0  0  0  0  0  0  0  0  0  0
   -1.3710    3.2608    0.8845 H   0  0  0  0  0  0  0  0  0  0  0  0
   -1.8973    4.8251    0.3158 H   0  0  0  0  0  0  0  0  0  0  0  0
    0.1525    5.3780   -1.1077 N   0  0  0  0  0  0  0  0  0  0  0  0
    1.0485    5.5228   -1.5688 H   0  0  0  0  0  0  0  0  0  0  0  0
   -0.4001    6.1995   -0.8697 H   0  0  0  0  0  0  0  0  0  0  0  0
   -1.2649    0.8149    2.2225 C   0  0  0  0  0  0  0  0  0  0  0  0
   -1.9650    1.7565    1.8506 O   0  0  0  0  0  0  0  0  0  0  0  0
   -0.4385    0.9823    3.3183 N   0  0  0  0  0  0  0  0  0  0  0  0
    0.0513    0.1534    3.6522 H   0  0  0  0  0  0  0  0  0  0  0  0
   -0.5152    2.1359    4.2099 C   0  0  0  0  0  0  0  0  0  0  0  0
   -1.5098    2.2056    4.6635 H   0  0  0  0  0  0  0  0  0  0  0  0
    0.2229    2.0422    5.0130 H   0  0  0  0  0  0  0  0  0  0  0  0
   -0.3110    3.0625    3.6636 H   0  0  0  0  0  0  0  0  0  0  0  0
  1  2  1  0  0  0  0
  2  3  1  0  0  0  0
  2  4  1  0  0  0  0
  2  5  1  0  0  0  0
  5  6  2  0  0  0  0
  5  7  1  0  0  0  0
  7  8  1  0  0  0  0
  7  9  1  0  0  0  0
  9 10  1  0  0  0  0
  9 11  1  0  0  0  0
  9 29  1  0  0  0  0
 11 12  1  0  0  0  0
 11 13  1  0  0  0  0
 11 14  1  0  0  0  0
 14 15  1  0  0  0  0
 14 16  1  0  0  0  0
 14 17  1  0  0  0  0
 17 18  1  0  0  0  0
 17 19  1  0  0  0  0
 17 20  1  0  0  0  0
 20 21  1  0  0  0  0
 20 22  2  0  0  0  0
 22 23  1  0  0  0  0
 22 26  1  0  0  0  0
 23 24  1  0  0  0  0
 23 25  1  0  0  0  0
 26 27  1  0  0  0  0
 26 28  1  0  0  0  0
 29 30  2  0  0  0  0
 29 31  1  0  0  0  0
 31 32  1  0  0  0  0
 31 33  1  0  0  0  0
 33 34  1  0  0  0  0
 33 35  1  0  0  0  0
 33 36  1  0  0  0  0
M  CHG  1  20   1
M  END
$$$$

  -OEChem-03222214013D

 36 35  0     1  0  0  0  0  0999 V2000
   -4.5902   -3.6420    1.2523 H   0  0  0  0  0  0  0  0  0  0  0  0
   -4.4443   -2.5645    1.1329 C   0  0  0  0  0  0  0  0  0  0  0  0
   -5.0425   -2.0437    1.8843 H   0  0  0  0  0  0  0  0  0  0  0  0
   -4.7859   -2.2730    0.1370 H   0  0  0  0  0  0  0  0  0  0  0  0
   -2.9781   -2.2160    1.3025 C   0  0  0  0  0  0  0  0  0  0  0  0
   -2.1716   -3.0836    1.5940 O   0  0  0  0  0  0  0  0  0  0  0  0
   -2.5486   -0.9141    1.1283 N   0  0  0  0  0  0  0  0  0  0  0  0
   -3.2577   -0.2087    0.9371 H   0  0  0  0  0  0  0  0  0  0  0  0
   -1.1588   -0.4704    1.3262 C   0  0  1  0  0  0  0  0  0  0  0  0
   -0.6158   -1.2022    1.9351 H   0  0  0  0  0  0  0  0  0  0  0  0
   -0.5037   -0.4467   -0.0924 C   0  0  0  0  0  0  0  0  0  0  0  0
    0.3232   -1.1635   -0.0483 H   0  0  0  0  0  0  0  0  0  0  0  0
   -1.2112   -0.8534   -0.8242 H   0  0  0  0  0  0  0  0  0  0  0  0
    0.0807    0.8491   -0.7081 C   0  0  0  0  0  0  0  0  0  0  0  0
    0.6457    0.5754   -1.6058 H   0  0  0  0  0  0  0  0  0  0  0  0
   -0.7745    1.4498   -1.0367 H   0  0  0  0  0  0  0  0  0  0  0  0
    0.9667    1.7402    0.1755 C   0  0  0  0  0  0  0  0  0  0  0  0
    0.5080    1.9552    1.1377 H   0  0  0  0  0  0  0  0  0  0  0  0
    1.9092    1.2192    0.3774 H   0  0  0  0  0  0  0  0  0  0  0  0
    1.2303    3.0160   -0.5151 N   0  3  0  0  0  0  0  0  0  0  0  0
    2.0098    3.0356   -1.1715 H   0  0  0  0  0  0  0  0  0  0  0  0
    0.5252    4.0964   -0.3269 C   0  0  0  0  0  0  0  0  0  0  0  0
   -0.5572    4.1366    0.5238 N   0  0  0  0  0  0  0  0  0  0  0  0
   -0.9241    3.2494    0.8862 H   0  0  0  0  0  0  0  0  0  0  0  0
   -1.2115    4.9108    0.4462 H   0  0  0  0  0  0  0  0  0  0  0  0
    0.8642    5.2447   -1.0012 N   0  0  0  0  0  0  0  0  0  0  0  0
    1.7626    5.2833   -1.4782 H   0  0  0  0  0  0  0  0  0  0  0  0
    0.4478    6.1226   -0.6972 H   0  0  0  0  0  0  0  0  0  0  0  0
   -1.1711    0.8411    2.1326 C   0  0  0  0  0  0  0  0  0  0  0  0
   -1.7940    1.8168    1.7182 O   0  0  0  0  0  0  0  0  0  0  0  0
   -0.2938    1.0123    3.1882 N   0  0  0  0  0  0  0  0  0  0  0  0
    0.1425    0.1681    3.5562 H   0  0  0  0  0  0  0  0  0  0  0  0
   -0.2737    2.2078    4.0256 C   0  0  0  0  0  0  0  0  0  0  0  0
   -1.2533    2.3689    4.4889 H   0  0  0  0  0  0  0  0  0  0  0  0
    0.4692    2.0982    4.8224 H   0  0  0  0  0  0  0  0  0  0  0  0
   -0.0131    3.0915    3.4344 H   0  0  0  0  0  0  0  0  0  0  0  0
  1  2  1  0  0  0  0
  2  3  1  0  0  0  0
  2  4  1  0  0  0  0
  2  5  1  0  0  0  0
  5  6  2  0  0  0  0
  5  7  1  0  0  0  0
  7  8  1  0  0  0  0
  7  9  1  0  0  0  0
  9 10  1  0  0  0  0
  9 11  1  0  0  0  0
  9 29  1  0  0  0  0
 11 12  1  0  0  0  0
 11 13  1  0  0  0  0
 11 14  1  0  0  0  0
 14 15  1  0  0  0  0
 14 16  1  0  0  0  0
 14 17  1  0  0  0  0
 17 18  1  0  0  0  0
 17 19  1  0  0  0  0
 17 20  1  0  0  0  0
 20 21  1  0  0  0  0
 20 22  2  0  0  0  0
 22 23  1  0  0  0  0
 22 26  1  0  0  0  0
 23 24  1  0  0  0  0
 23 25  1  0  0  0  0
 26 27  1  0  0  0  0
 26 28  1  0  0  0  0
 29 30  2  0  0  0  0
 29 31  1  0  0  0  0
 31 32  1  0  0  0  0
 31 33  1  0  0  0  0
 33 34  1  0  0  0  0
 33 35  1  0  0  0  0
 33 36  1  0  0  0  0
M  CHG  1  20   1
M  END
$$$$

  -OEChem-03222214013D

 36 35  0     1  0  0  0  0  0999 V2000
   -4.5120   -3.6474    1.4643 H   0  0  0  0  0  0  0  0  0  0  0  0
   -4.3761   -2.5778    1.2803 C   0  0  0  0  0  0  0  0  0  0  0  0
   -4.9702   -2.0184    2.0068 H   0  0  0  0  0  0  0  0  0  0  0  0
   -4.7313   -2.3472    0.2730 H   0  0  0  0  0  0  0  0  0  0  0  0
   -2.9110   -2.2092    1.4126 C   0  0  0  0  0  0  0  0  0  0  0  0
   -2.0938   -3.0530    1.7420 O   0  0  0  0  0  0  0  0  0  0  0  0
   -2.4939   -0.9168    1.1564 N   0  0  0  0  0  0  0  0  0  0  0  0
   -3.2107   -0.2316    0.9247 H   0  0  0  0  0  0  0  0  0  0  0  0
   -1.1043   -0.4519    1.2964 C   0  0  1  0  0  0  0  0  0  0  0  0
   -0.5500   -1.1503    1.9333 H   0  0  0  0  0  0  0  0  0  0  0  0
   -0.4733   -0.5215   -0.1296 C   0  0  0  0  0  0  0  0  0  0  0  0
    0.3574   -1.2333   -0.0775 H   0  0  0  0  0  0  0  0  0  0  0  0
   -1.1998   -0.9554   -0.8264 H   0  0  0  0  0  0  0  0  0  0  0  0
    0.0663    0.7675   -0.7835 C   0  0  0  0  0  0  0  0  0  0  0  0
    0.4352    0.5112   -1.7827 H   0  0  0  0  0  0  0  0  0  0  0  0
   -0.7747    1.4558   -0.9188 H   0  0  0  0  0  0  0  0  0  0  0  0
    1.1913    1.4775   -0.0212 C   0  0  0  0  0  0  0  0  0  0  0  0
    0.9037    1.6951    1.0079 H   0  0  0  0  0  0  0  0  0  0  0  0
    2.0678    0.8213    0.0191 H   0  0  0  0  0  0  0  0  0  0  0  0
    1.5357    2.7369   -0.7068 N   0  3  0  0  0  0  0  0  0  0  0  0
    2.2805    2.6938   -1.4011 H   0  0  0  0  0  0  0  0  0  0  0  0
    0.9473    3.8774   -0.4762 C   0  0  0  0  0  0  0  0  0  0  0  0
   -0.0883    4.0135    0.4211 N   0  0  0  0  0  0  0  0  0  0  0  0
   -0.5384    3.1621    0.7746 H   0  0  0  0  0  0  0  0  0  0  0  0
   -0.6640    4.8502    0.3732 H   0  0  0  0  0  0  0  0  0  0  0  0
    1.3665    4.9965   -1.1552 N   0  0  0  0  0  0  0  0  0  0  0  0
    2.2422    4.9554   -1.6725 H   0  0  0  0  0  0  0  0  0  0  0  0
    1.0480    5.9066   -0.8283 H   0  0  0  0  0  0  0  0  0  0  0  0
   -1.0585    0.9063    2.0257 C   0  0  0  0  0  0  0  0  0  0  0  0
   -1.6594    1.8786    1.5766 O   0  0  0  0  0  0  0  0  0  0  0  0
   -0.1344    1.1140    3.0346 N   0  0  0  0  0  0  0  0  0  0  0  0
    0.2880    0.2770    3.4341 H   0  0  0  0  0  0  0  0  0  0  0  0
   -0.0852    2.3378    3.8297 C   0  0  0  0  0  0  0  0  0  0  0  0
   -1.0567    2.5313    4.2975 H   0  0  0  0  0  0  0  0  0  0  0  0
    0.6645    2.2431    4.6221 H   0  0  0  0  0  0  0  0  0  0  0  0
    0.1827    3.1963    3.2065 H   0  0  0  0  0  0  0  0  0  0  0  0
  1  2  1  0  0  0  0
  2  3  1  0  0  0  0
  2  4  1  0  0  0  0
  2  5  1  0  0  0  0
  5  6  2  0  0  0  0
  5  7  1  0  0  0  0
  7  8  1  0  0  0  0
  7  9  1  0  0  0  0
  9 10  1  0  0  0  0
  9 11  1  0  0  0  0
  9 29  1  0  0  0  0
 11 12  1  0  0  0  0
 11 13  1  0  0  0  0
 11 14  1  0  0  0  0
 14 15  1  0  0  0  0
 14 16  1  0  0  0  0
 14 17  1  0  0  0  0
 17 18  1  0  0  0  0
 17 19  1  0  0  0  0
 17 20  1  0  0  0  0
 20 21  1  0  0  0  0
 20 22  2  0  0  0  0
 22 23  1  0  0  0  0
 22 26  1  0  0  0  0
 23 24  1  0  0  0  0
 23 25  1  0  0  0  0
 26 27  1  0  0  0  0
 26 28  1  0  0  0  0
 29 30  2  0  0  0  0
 29 31  1  0  0  0  0
 31 32  1  0  0  0  0
 31 33  1  0  0  0  0
 33 34  1  0  0  0  0
 33 35  1  0  0  0  0
 33 36  1  0  0  0  0
M  CHG  1  20   1
M  END
$$$$

  -OEChem-03222214013D

 36 35  0     1  0  0  0  0  0999 V2000
   -4.1175   -4.0526    1.9220 H   0  0  0  0  0  0  0  0  0  0  0  0
   -4.1266   -3.0392    1.5108 C   0  0  0  0  0  0  0  0  0  0  0  0
   -4.8059   -2.4249    2.1065 H   0  0  0  0  0  0  0  0  0  0  0  0
   -4.4905   -3.0804    0.4814 H   0  0  0  0  0  0  0  0  0  0  0  0
   -2.7296   -2.4500    1.5439 C   0  0  0  0  0  0  0  0  0  0  0  0
   -1.7935   -3.1113    1.9638 O   0  0  0  0  0  0  0  0  0  0  0  0
   -2.5123   -1.1582    1.1059 N   0  0  0  0  0  0  0  0  0  0  0  0
   -3.3293   -0.6130    0.8338 H   0  0  0  0  0  0  0  0  0  0  0  0
   -1.2217   -0.4589    1.1962 C   0  0  1  0  0  0  0  0  0  0  0  0
   -0.5976   -0.9594    1.9442 H   0  0  0  0  0  0  0  0  0  0  0  0
   -0.5031   -0.6116   -0.1776 C   0  0  0  0  0  0  0  0  0  0  0  0
    0.4224   -1.1758   -0.0199 H   0  0  0  0  0  0  0  0  0  0  0  0
   -1.1265   -1.2256   -0.8373 H   0  0  0  0  0  0  0  0  0  0  0  0
   -0.1659    0.6808   -0.9427 C   0  0  0  0  0  0  0  0  0  0  0  0
    0.0856    0.4130   -1.9746 H   0  0  0  0  0  0  0  0  0  0  0  0
   -1.0502    1.3249   -0.9887 H   0  0  0  0  0  0  0  0  0  0  0  0
    1.0233    1.4267   -0.3369 C   0  0  0  0  0  0  0  0  0  0  0  0
    0.8673    1.5579    0.7377 H   0  0  0  0  0  0  0  0  0  0  0  0
    1.9346    0.8372   -0.4868 H   0  0  0  0  0  0  0  0  0  0  0  0
    1.1449    2.7440   -0.9859 N   0  3  0  0  0  0  0  0  0  0  0  0
    0.5278    2.9266   -1.7765 H   0  0  0  0  0  0  0  0  0  0  0  0
    1.9384    3.6865   -0.5685 C   0  0  0  0  0  0  0  0  0  0  0  0
    2.7901    3.5000    0.4963 N   0  0  0  0  0  0  0  0  0  0  0  0
    2.9137    2.5499    0.8392 H   0  0  0  0  0  0  0  0  0  0  0  0
    3.5564    4.1577    0.6255 H   0  0  0  0  0  0  0  0  0  0  0  0
    1.9355    4.9040   -1.2058 N   0  0  0  0  0  0  0  0  0  0  0  0
    1.1827    5.1080   -1.8606 H   0  0  0  0  0  0  0  0  0  0  0  0
    2.3934    5.6903   -0.7488 H   0  0  0  0  0  0  0  0  0  0  0  0
   -1.4174    0.9814    1.7171 C   0  0  0  0  0  0  0  0  0  0  0  0
   -2.2624    1.7147    1.2185 O   0  0  0  0  0  0  0  0  0  0  0  0
   -0.5774    1.4847    2.6961 N   0  0  0  0  0  0  0  0  0  0  0  0
   -0.0367    0.7949    3.2139 H   0  0  0  0  0  0  0  0  0  0  0  0
   -0.8240    2.7716    3.3406 C   0  0  0  0  0  0  0  0  0  0  0  0
   -1.7932    2.7641    3.8515 H   0  0  0  0  0  0  0  0  0  0  0  0
   -0.0452    2.9816    4.0807 H   0  0  0  0  0  0  0  0  0  0  0  0
   -0.8241    3.5801    2.6021 H   0  0  0  0  0  0  0  0  0  0  0  0
  1  2  1  0  0  0  0
  2  3  1  0  0  0  0
  2  4  1  0  0  0  0
  2  5  1  0  0  0  0
  5  6  2  0  0  0  0
  5  7  1  0  0  0  0
  7  8  1  0  0  0  0
  7  9  1  0  0  0  0
  9 10  1  0  0  0  0
  9 11  1  0  0  0  0
  9 29  1  0  0  0  0
 11 12  1  0  0  0  0
 11 13  1  0  0  0  0
 11 14  1  0  0  0  0
 14 15  1  0  0  0  0
 14 16  1  0  0  0  0
 14 17  1  0  0  0  0
 17 18  1  0  0  0  0
 17 19  1  0  0  0  0
 17 20  1  0  0  0  0
 20 21  1  0  0  0  0
 20 22  2  0  0  0  0
 22 23  1  0  0  0  0
 22 26  1  0  0  0  0
 23 24  1  0  0  0  0
 23 25  1  0  0  0  0
 26 27  1  0  0  0  0
 26 28  1  0  0  0  0
 29 30  2  0  0  0  0
 29 31  1  0  0  0  0
 31 32  1  0  0  0  0
 31 33  1  0  0  0  0
 33 34  1  0  0  0  0
 33 35  1  0  0  0  0
 33 36  1  0  0  0  0
M  CHG  1  20   1
M  END
$$$$

  -OEChem-03222214013D

 36 35  0     1  0  0  0  0  0999 V2000
   -4.0390   -4.1072    1.9555 H   0  0  0  0  0  0  0  0  0  0  0  0
   -4.0854   -3.0914    1.5524 C   0  0  0  0  0  0  0  0  0  0  0  0
   -4.7554   -2.4960    2.1773 H   0  0  0  0  0  0  0  0  0  0  0  0
   -4.4865   -3.1340    0.5370 H   0  0  0  0  0  0  0  0  0  0  0  0
   -2.7011   -2.4724    1.5377 C   0  0  0  0  0  0  0  0  0  0  0  0
   -1.7360   -3.1180    1.9146 O   0  0  0  0  0  0  0  0  0  0  0  0
   -2.5273   -1.1749    1.0969 N   0  0  0  0  0  0  0  0  0  0  0  0
   -3.3669   -0.6442    0.8681 H   0  0  0  0  0  0  0  0  0  0  0  0
   -1.2550   -0.4403    1.1652 C   0  0  1  0  0  0  0  0  0  0  0  0
   -0.6236   -0.9244    1.9181 H   0  0  0  0  0  0  0  0  0  0  0  0
   -0.5130   -0.5888   -0.1944 C   0  0  0  0  0  0  0  0  0  0  0  0
    0.4218   -1.1344   -0.0262 H   0  0  0  0  0  0  0  0  0  0  0  0
   -1.1202   -1.2217   -0.8514 H   0  0  0  0  0  0  0  0  0  0  0  0
   -0.2127    0.7098   -0.9675 C   0  0  0  0  0  0  0  0  0  0  0  0
   -0.1723    0.4619   -2.0338 H   0  0  0  0  0  0  0  0  0  0  0  0
   -1.0161    1.4426   -0.8532 H   0  0  0  0  0  0  0  0  0  0  0  0
    1.1424    1.2919   -0.5717 C   0  0  0  0  0  0  0  0  0  0  0  0
    1.1709    1.4290    0.5149 H   0  0  0  0  0  0  0  0  0  0  0  0
    1.9364    0.5933   -0.8581 H   0  0  0  0  0  0  0  0  0  0  0  0
    1.3233    2.5905   -1.2449 N   0  3  0  0  0  0  0  0  0  0  0  0
    0.5785    2.8911   -1.8730 H   0  0  0  0  0  0  0  0  0  0  0  0
    2.3348    3.3814   -1.0348 C   0  0  0  0  0  0  0  0  0  0  0  0
    3.3685    3.0306   -0.1967 N   0  0  0  0  0  0  0  0  0  0  0  0
    3.4185    2.0616    0.1109 H   0  0  0  0  0  0  0  0  0  0  0  0
    4.2369    3.5592   -0.2508 H   0  0  0  0  0  0  0  0  0  0  0  0
    2.3818    4.6026   -1.6635 N   0  0  0  0  0  0  0  0  0  0  0  0
    1.5461    4.9398   -2.1379 H   0  0  0  0  0  0  0  0  0  0  0  0
    3.0513    5.2941   -1.3306 H   0  0  0  0  0  0  0  0  0  0  0  0
   -1.4520    0.9993    1.6878 C   0  0  0  0  0  0  0  0  0  0  0  0
   -2.3506    1.7031    1.2434 O   0  0  0  0  0  0  0  0  0  0  0  0
   -0.5942    1.5150    2.6441 N   0  0  0  0  0  0  0  0  0  0  0  0
   -0.0040    0.8415    3.1272 H   0  0  0  0  0  0  0  0  0  0  0  0
   -0.8382    2.7974    3.2988 C   0  0  0  0  0  0  0  0  0  0  0  0
   -1.7819    2.7707    3.8545 H   0  0  0  0  0  0  0  0  0  0  0  0
   -0.0301    3.0248    4.0010 H   0  0  0  0  0  0  0  0  0  0  0  0
   -0.8892    3.6052    2.5610 H   0  0  0  0  0  0  0  0  0  0  0  0
  1  2  1  0  0  0  0
  2  3  1  0  0  0  0
  2  4  1  0  0  0  0
  2  5  1  0  0  0  0
  5  6  2  0  0  0  0
  5  7  1  0  0  0  0
  7  8  1  0  0  0  0
  7  9  1  0  0  0  0
  9 10  1  0  0  0  0
  9 11  1  0  0  0  0
  9 29  1  0  0  0  0
 11 12  1  0  0  0  0
 11 13  1  0  0  0  0
 11 14  1  0  0  0  0
 14 15  1  0  0  0  0
 14 16  1  0  0  0  0
 14 17  1  0  0  0  0
 17 18  1  0  0  0  0
 17 19  1  0  0  0  0
 17 20  1  0  0  0  0
 20 21  1  0  0  0  0
 20 22  2  0  0  0  0
 22 23  1  0  0  0  0
 22 26  1  0  0  0  0
 23 24  1  0  0  0  0
 23 25  1  0  0  0  0
 26 27  1  0  0  0  0
 26 28  1  0  0  0  0
 29 30  2  0  0  0  0
 29 31  1  0  0  0  0
 31 32  1  0  0  0  0
 31 33  1  0  0  0  0
 33 34  1  0  0  0  0
 33 35  1  0  0  0  0
 33 36  1  0  0  0  0
M  CHG  1  20   1
M  END
$$$$

  -OEChem-03222214013D

 36 35  0     1  0  0  0  0  0999 V2000
   -3.8798   -4.2296    1.7332 H   0  0  0  0  0  0  0  0  0  0  0  0
   -3.9729   -3.1920    1.4000 C   0  0  0  0  0  0  0  0  0  0  0  0
   -4.6749   -2.6738    2.0577 H   0  0  0  0  0  0  0  0  0  0  0  0
   -4.3650   -3.1842    0.3803 H   0  0  0  0  0  0  0  0  0  0  0  0
   -2.6201   -2.5076    1.4423 C   0  0  0  0  0  0  0  0  0  0  0  0
   -1.6308   -3.1265    1.8015 O   0  0  0  0  0  0  0  0  0  0  0  0
   -2.4999   -1.1825    1.0713 N   0  0  0  0  0  0  0  0  0  0  0  0
   -3.3605   -0.6760    0.8652 H   0  0  0  0  0  0  0  0  0  0  0  0
   -1.2710   -0.3899    1.2314 C   0  0  1  0  0  0  0  0  0  0  0  0
   -0.6464   -0.8746    1.9898 H   0  0  0  0  0  0  0  0  0  0  0  0
   -0.4669   -0.4334   -0.1010 C   0  0  0  0  0  0  0  0  0  0  0  0
    0.4806   -0.9492    0.0891 H   0  0  0  0  0  0  0  0  0  0  0  0
   -1.0141   -1.0669   -0.8084 H   0  0  0  0  0  0  0  0  0  0  0  0
   -0.1856    0.9055   -0.8203 C   0  0  0  0  0  0  0  0  0  0  0  0
   -0.3566    0.7520   -1.8917 H   0  0  0  0  0  0  0  0  0  0  0  0
   -0.8686    1.7010   -0.5157 H   0  0  0  0  0  0  0  0  0  0  0  0
    1.2687    1.3308   -0.6306 C   0  0  0  0  0  0  0  0  0  0  0  0
    1.4746    1.4454    0.4395 H   0  0  0  0  0  0  0  0  0  0  0  0
    1.9250    0.5495   -1.0287 H   0  0  0  0  0  0  0  0  0  0  0  0
    1.4977    2.6101   -1.3269 N   0  3  0  0  0  0  0  0  0  0  0  0
    0.6985    3.2388   -1.4064 H   0  0  0  0  0  0  0  0  0  0  0  0
    2.6492    2.9833   -1.8062 C   0  0  0  0  0  0  0  0  0  0  0  0
    3.7761    2.2013   -1.6895 N   0  0  0  0  0  0  0  0  0  0  0  0
    3.7359    1.3974   -1.0666 H   0  0  0  0  0  0  0  0  0  0  0  0
    4.6850    2.6238   -1.8682 H   0  0  0  0  0  0  0  0  0  0  0  0
    2.7540    4.1946   -2.4473 N   0  0  0  0  0  0  0  0  0  0  0  0
    1.9001    4.6904   -2.6971 H   0  0  0  0  0  0  0  0  0  0  0  0
    3.5914    4.3824   -2.9957 H   0  0  0  0  0  0  0  0  0  0  0  0
   -1.5839    1.0048    1.8135 C   0  0  0  0  0  0  0  0  0  0  0  0
   -2.5194    1.6591    1.3690 O   0  0  0  0  0  0  0  0  0  0  0  0
   -0.8108    1.5284    2.8343 N   0  0  0  0  0  0  0  0  0  0  0  0
   -0.1676    0.8886    3.2944 H   0  0  0  0  0  0  0  0  0  0  0  0
   -1.1657    2.7618    3.5304 C   0  0  0  0  0  0  0  0  0  0  0  0
   -2.1370    2.6563    4.0258 H   0  0  0  0  0  0  0  0  0  0  0  0
   -0.4143    2.9994    4.2897 H   0  0  0  0  0  0  0  0  0  0  0  0
   -1.2205    3.5999    2.8276 H   0  0  0  0  0  0  0  0  0  0  0  0
  1  2  1  0  0  0  0
  2  3  1  0  0  0  0
  2  4  1  0  0  0  0
  2  5  1  0  0  0  0
  5  6  2  0  0  0  0
  5  7  1  0  0  0  0
  7  8  1  0  0  0  0
  7  9  1  0  0  0  0
  9 10  1  0  0  0  0
  9 11  1  0  0  0  0
  9 29  1  0  0  0  0
 11 12  1  0  0  0  0
 11 13  1  0  0  0  0
 11 14  1  0  0  0  0
 14 15  1  0  0  0  0
 14 16  1  0  0  0  0
 14 17  1  0  0  0  0
 17 18  1  0  0  0  0
 17 19  1  0  0  0  0
 17 20  1  0  0  0  0
 20 21  1  0  0  0  0
 20 22  2  0  0  0  0
 22 23  1  0  0  0  0
 22 26  1  0  0  0  0
 23 24  1  0  0  0  0
 23 25  1  0  0  0  0
 26 27  1  0  0  0  0
 26 28  1  0  0  0  0
 29 30  2  0  0  0  0
 29 31  1  0  0  0  0
 31 32  1  0  0  0  0
 31 33  1  0  0  0  0
 33 34  1  0  0  0  0
 33 35  1  0  0  0  0
 33 36  1  0  0  0  0
M  CHG  1  20   1
M  END
$$$$

  -OEChem-03222214013D

 36 35  0     1  0  0  0  0  0999 V2000
   -3.8841   -4.2102    1.7296 H   0  0  0  0  0  0  0  0  0  0  0  0
   -3.9713   -3.1702    1.4024 C   0  0  0  0  0  0  0  0  0  0  0  0
   -4.6633   -2.6497    2.0687 H   0  0  0  0  0  0  0  0  0  0  0  0
   -4.3721   -3.1542    0.3861 H   0  0  0  0  0  0  0  0  0  0  0  0
   -2.6125   -2.4970    1.4357 C   0  0  0  0  0  0  0  0  0  0  0  0
   -1.6231   -3.1271    1.7743 O   0  0  0  0  0  0  0  0  0  0  0  0
   -2.4863   -1.1700    1.0740 N   0  0  0  0  0  0  0  0  0  0  0  0
   -3.3456   -0.6553    0.8828 H   0  0  0  0  0  0  0  0  0  0  0  0
   -1.2513   -0.3860    1.2286 C   0  0  1  0  0  0  0  0  0  0  0  0
   -0.6171   -0.8785    1.9739 H   0  0  0  0  0  0  0  0  0  0  0  0
   -0.4762   -0.4225   -0.1224 C   0  0  0  0  0  0  0  0  0  0  0  0
    0.4736   -0.9334    0.0685 H   0  0  0  0  0  0  0  0  0  0  0  0
   -1.0208   -1.0646   -0.8236 H   0  0  0  0  0  0  0  0  0  0  0  0
   -0.1892    0.9146   -0.8503 C   0  0  0  0  0  0  0  0  0  0  0  0
   -0.6583    0.8715   -1.8397 H   0  0  0  0  0  0  0  0  0  0  0  0
   -0.6194    1.7782   -0.3409 H   0  0  0  0  0  0  0  0  0  0  0  0
    1.3134    1.1332   -1.0174 C   0  0  0  0  0  0  0  0  0  0  0  0
    1.7855    1.1695   -0.0292 H   0  0  0  0  0  0  0  0  0  0  0  0
    1.7368    0.2910   -1.5753 H   0  0  0  0  0  0  0  0  0  0  0  0
    1.5475    2.3991   -1.7366 N   0  3  0  0  0  0  0  0  0  0  0  0
    0.8058    3.0977   -1.6926 H   0  0  0  0  0  0  0  0  0  0  0  0
    2.6394    2.6723   -2.3909 C   0  0  0  0  0  0  0  0  0  0  0  0
    3.6906    1.7857   -2.4536 N   0  0  0  0  0  0  0  0  0  0  0  0
    3.6665    0.9740   -1.8398 H   0  0  0  0  0  0  0  0  0  0  0  0
    4.5987    2.1243   -2.7654 H   0  0  0  0  0  0  0  0  0  0  0  0
    2.7570    3.8797   -3.0374 N   0  0  0  0  0  0  0  0  0  0  0  0
    1.9263    4.4586   -3.1476 H   0  0  0  0  0  0  0  0  0  0  0  0
    3.5137    3.9996   -3.7086 H   0  0  0  0  0  0  0  0  0  0  0  0
   -1.5651    1.0021    1.8246 C   0  0  0  0  0  0  0  0  0  0  0  0
   -2.4911    1.6650    1.3723 O   0  0  0  0  0  0  0  0  0  0  0  0
   -0.7890    1.5201    2.8459 N   0  0  0  0  0  0  0  0  0  0  0  0
   -0.1409    0.8808    3.2999 H   0  0  0  0  0  0  0  0  0  0  0  0
   -1.1202    2.7652    3.5321 C   0  0  0  0  0  0  0  0  0  0  0  0
   -2.1022    2.6898    4.0114 H   0  0  0  0  0  0  0  0  0  0  0  0
   -0.3749    2.9827    4.3034 H   0  0  0  0  0  0  0  0  0  0  0  0
   -1.1378    3.6022    2.8261 H   0  0  0  0  0  0  0  0  0  0  0  0
  1  2  1  0  0  0  0
  2  3  1  0  0  0  0
  2  4  1  0  0  0  0
  2  5  1  0  0  0  0
  5  6  2  0  0  0  0
  5  7  1  0  0  0  0
  7  8  1  0  0  0  0
  7  9  1  0  0  0  0
  9 10  1  0  0  0  0
  9 11  1  0  0  0  0
  9 29  1  0  0  0  0
 11 12  1  0  0  0  0
 11 13  1  0  0  0  0
 11 14  1  0  0  0  0
 14 15  1  0  0  0  0
 14 16  1  0  0  0  0
 14 17  1  0  0  0  0
 17 18  1  0  0  0  0
 17 19  1  0  0  0  0
 17 20  1  0  0  0  0
 20 21  1  0  0  0  0
 20 22  2  0  0  0  0
 22 23  1  0  0  0  0
 22 26  1  0  0  0  0
 23 24  1  0  0  0  0
 23 25  1  0  0  0  0
 26 27  1  0  0  0  0
 26 28  1  0  0  0  0
 29 30  2  0  0  0  0
 29 31  1  0  0  0  0
 31 32  1  0  0  0  0
 31 33  1  0  0  0  0
 33 34  1  0  0  0  0
 33 35  1  0  0  0  0
 33 36  1  0  0  0  0
M  CHG  1  20   1
M  END
$$$$

  -OEChem-03222214013D

 36 35  0     1  0  0  0  0  0999 V2000
   -3.9222   -4.1473    1.9609 H   0  0  0  0  0  0  0  0  0  0  0  0
   -4.0004   -3.1259    1.5775 C   0  0  0  0  0  0  0  0  0  0  0  0
   -4.6444   -2.5491    2.2457 H   0  0  0  0  0  0  0  0  0  0  0  0
   -4.4520   -3.1567    0.5831 H   0  0  0  0  0  0  0  0  0  0  0  0
   -2.6254   -2.4901    1.5036 C   0  0  0  0  0  0  0  0  0  0  0  0
   -1.6327   -3.1395    1.7924 O   0  0  0  0  0  0  0  0  0  0  0  0
   -2.4892   -1.1753    1.1033 N   0  0  0  0  0  0  0  0  0  0  0  0
   -3.3454   -0.6421    0.9541 H   0  0  0  0  0  0  0  0  0  0  0  0
   -1.2274   -0.4221    1.1650 C   0  0  1  0  0  0  0  0  0  0  0  0
   -0.5497   -0.9141    1.8711 H   0  0  0  0  0  0  0  0  0  0  0  0
   -0.5652   -0.4894   -0.2435 C   0  0  0  0  0  0  0  0  0  0  0  0
    0.3922   -1.0025   -0.1018 H   0  0  0  0  0  0  0  0  0  0  0  0
   -1.1579   -1.1365   -0.9004 H   0  0  0  0  0  0  0  0  0  0  0  0
   -0.3032    0.8371   -0.9975 C   0  0  0  0  0  0  0  0  0  0  0  0
   -1.0665    0.9613   -1.7734 H   0  0  0  0  0  0  0  0  0  0  0  0
   -0.3655    1.7056   -0.3390 H   0  0  0  0  0  0  0  0  0  0  0  0
    1.0967    0.8387   -1.6093 C   0  0  0  0  0  0  0  0  0  0  0  0
    1.8376    0.7288   -0.8098 H   0  0  0  0  0  0  0  0  0  0  0  0
    1.1908   -0.0132   -2.2923 H   0  0  0  0  0  0  0  0  0  0  0  0
    1.3155    2.1024   -2.3368 N   0  3  0  0  0  0  0  0  0  0  0  0
    0.5091    2.7163   -2.4493 H   0  0  0  0  0  0  0  0  0  0  0  0
    2.4639    2.4616   -2.8332 C   0  0  0  0  0  0  0  0  0  0  0  0
    3.5789    1.6609   -2.7329 N   0  0  0  0  0  0  0  0  0  0  0  0
    3.4468    0.7018   -2.4185 H   0  0  0  0  0  0  0  0  0  0  0  0
    4.3790    1.8622   -3.3292 H   0  0  0  0  0  0  0  0  0  0  0  0
    2.5761    3.6705   -3.4778 N   0  0  0  0  0  0  0  0  0  0  0  0
    1.8097    4.3374   -3.4056 H   0  0  0  0  0  0  0  0  0  0  0  0
    3.5077    4.0330   -3.6731 H   0  0  0  0  0  0  0  0  0  0  0  0
   -1.4876    0.9827    1.7477 C   0  0  0  0  0  0  0  0  0  0  0  0
   -2.4103    1.6606    1.3110 O   0  0  0  0  0  0  0  0  0  0  0  0
   -0.6493    1.5103    2.7132 N   0  0  0  0  0  0  0  0  0  0  0  0
    0.0136    0.8720    3.1469 H   0  0  0  0  0  0  0  0  0  0  0  0
   -0.9162    2.7828    3.3769 C   0  0  0  0  0  0  0  0  0  0  0  0
   -1.8691    2.7424    3.9158 H   0  0  0  0  0  0  0  0  0  0  0  0
   -0.1226    3.0101    4.0956 H   0  0  0  0  0  0  0  0  0  0  0  0
   -0.9611    3.5968    2.6458 H   0  0  0  0  0  0  0  0  0  0  0  0
  1  2  1  0  0  0  0
  2  3  1  0  0  0  0
  2  4  1  0  0  0  0
  2  5  1  0  0  0  0
  5  6  2  0  0  0  0
  5  7  1  0  0  0  0
  7  8  1  0  0  0  0
  7  9  1  0  0  0  0
  9 10  1  0  0  0  0
  9 11  1  0  0  0  0
  9 29  1  0  0  0  0
 11 12  1  0  0  0  0
 11 13  1  0  0  0  0
 11 14  1  0  0  0  0
 14 15  1  0  0  0  0
 14 16  1  0  0  0  0
 14 17  1  0  0  0  0
 17 18  1  0  0  0  0
 17 19  1  0  0  0  0
 17 20  1  0  0  0  0
 20 21  1  0  0  0  0
 20 22  2  0  0  0  0
 22 23  1  0  0  0  0
 22 26  1  0  0  0  0
 23 24  1  0  0  0  0
 23 25  1  0  0  0  0
 26 27  1  0  0  0  0
 26 28  1  0  0  0  0
 29 30  2  0  0  0  0
 29 31  1  0  0  0  0
 31 32  1  0  0  0  0
 31 33  1  0  0  0  0
 33 34  1  0  0  0  0
 33 35  1  0  0  0  0
 33 36  1  0  0  0  0
M  CHG  1  20   1
M  END
$$$$

  -OEChem-03222214013D

 36 35  0     1  0  0  0  0  0999 V2000
   -3.9517   -4.1233    2.0025 H   0  0  0  0  0  0  0  0  0  0  0  0
   -4.0143   -3.1123    1.5902 C   0  0  0  0  0  0  0  0  0  0  0  0
   -4.6562   -2.5091    2.2366 H   0  0  0  0  0  0  0  0  0  0  0  0
   -4.4584   -3.1652    0.5934 H   0  0  0  0  0  0  0  0  0  0  0  0
   -2.6313   -2.4951    1.5096 C   0  0  0  0  0  0  0  0  0  0  0  0
   -1.6462   -3.1531    1.8047 O   0  0  0  0  0  0  0  0  0  0  0  0
   -2.4804   -1.1862    1.0963 N   0  0  0  0  0  0  0  0  0  0  0  0
   -3.3310   -0.6448    0.9445 H   0  0  0  0  0  0  0  0  0  0  0  0
   -1.2110   -0.4458    1.1524 C   0  0  1  0  0  0  0  0  0  0  0  0
   -0.5306   -0.9396    1.8551 H   0  0  0  0  0  0  0  0  0  0  0  0
   -0.5656   -0.5099   -0.2621 C   0  0  0  0  0  0  0  0  0  0  0  0
    0.3954   -1.0196   -0.1348 H   0  0  0  0  0  0  0  0  0  0  0  0
   -1.1654   -1.1456   -0.9230 H   0  0  0  0  0  0  0  0  0  0  0  0
   -0.3106    0.8308   -0.9833 C   0  0  0  0  0  0  0  0  0  0  0  0
   -1.2107    1.1214   -1.5368 H   0  0  0  0  0  0  0  0  0  0  0  0
   -0.0820    1.6273   -0.2695 H   0  0  0  0  0  0  0  0  0  0  0  0
    0.8970    0.7128   -1.9100 C   0  0  0  0  0  0  0  0  0  0  0  0
    1.7827    0.4582   -1.3174 H   0  0  0  0  0  0  0  0  0  0  0  0
    0.7180   -0.0910   -2.6329 H   0  0  0  0  0  0  0  0  0  0  0  0
    1.1003    1.9922   -2.6136 N   0  3  0  0  0  0  0  0  0  0  0  0
    0.3657    2.6929   -2.5182 H   0  0  0  0  0  0  0  0  0  0  0  0
    2.1384    2.2532   -3.3537 C   0  0  0  0  0  0  0  0  0  0  0  0
    3.1421    1.3312   -3.5457 N   0  0  0  0  0  0  0  0  0  0  0  0
    2.9736    0.3755   -3.2378 H   0  0  0  0  0  0  0  0  0  0  0  0
    3.7989    1.4782   -4.3094 H   0  0  0  0  0  0  0  0  0  0  0  0
    2.2432    3.4787   -3.9670 N   0  0  0  0  0  0  0  0  0  0  0  0
    1.6011    4.2200   -3.6928 H   0  0  0  0  0  0  0  0  0  0  0  0
    3.1421    3.7485   -4.3624 H   0  0  0  0  0  0  0  0  0  0  0  0
   -1.4642    0.9662    1.7210 C   0  0  0  0  0  0  0  0  0  0  0  0
   -2.3697    1.6525    1.2613 O   0  0  0  0  0  0  0  0  0  0  0  0
   -0.6258    1.4972    2.6840 N   0  0  0  0  0  0  0  0  0  0  0  0
    0.0292    0.8588    3.1295 H   0  0  0  0  0  0  0  0  0  0  0  0
   -0.8721    2.7879    3.3192 C   0  0  0  0  0  0  0  0  0  0  0  0
   -1.8371    2.7828    3.8376 H   0  0  0  0  0  0  0  0  0  0  0  0
   -0.0879    3.0060    4.0509 H   0  0  0  0  0  0  0  0  0  0  0  0
   -0.8787    3.5897    2.5734 H   0  0  0  0  0  0  0  0  0  0  0  0
  1  2  1  0  0  0  0
  2  3  1  0  0  0  0
  2  4  1  0  0  0  0
  2  5  1  0  0  0  0
  5  6  2  0  0  0  0
  5  7  1  0  0  0  0
  7  8  1  0  0  0  0
  7  9  1  0  0  0  0
  9 10  1  0  0  0  0
  9 11  1  0  0  0  0
  9 29  1  0  0  0  0
 11 12  1  0  0  0  0
 11 13  1  0  0  0  0
 11 14  1  0  0  0  0
 14 15  1  0  0  0  0
 14 16  1  0  0  0  0
 14 17  1  0  0  0  0
 17 18  1  0  0  0  0
 17 19  1  0  0  0  0
 17 20  1  0  0  0  0
 20 21  1  0  0  0  0
 20 22  2  0  0  0  0
 22 23  1  0  0  0  0
 22 26  1  0  0  0  0
 23 24  1  0  0  0  0
 23 25  1  0  0  0  0
 26 27  1  0  0  0  0
 26 28  1  0  0  0  0
 29 30  2  0  0  0  0
 29 31  1  0  0  0  0
 31 32  1  0  0  0  0
 31 33  1  0  0  0  0
 33 34  1  0  0  0  0
 33 35  1  0  0  0  0
 33 36  1  0  0  0  0
M  CHG  1  20   1
M  END
$$$$

  -OEChem-03222214013D

 36 35  0     1  0  0  0  0  0999 V2000
   -3.9768   -4.1149    2.0094 H   0  0  0  0  0  0  0  0  0  0  0  0
   -4.0333   -3.1021    1.6003 C   0  0  0  0  0  0  0  0  0  0  0  0
   -4.6688   -2.4962    2.2505 H   0  0  0  0  0  0  0  0  0  0  0  0
   -4.4810   -3.1486    0.6048 H   0  0  0  0  0  0  0  0  0  0  0  0
   -2.6459   -2.4956    1.5177 C   0  0  0  0  0  0  0  0  0  0  0  0
   -1.6668   -3.1587    1.8205 O   0  0  0  0  0  0  0  0  0  0  0  0
   -2.4849   -1.1928    1.0896 N   0  0  0  0  0  0  0  0  0  0  0  0
   -3.3316   -0.6467    0.9335 H   0  0  0  0  0  0  0  0  0  0  0  0
   -1.2105   -0.4608    1.1386 C   0  0  1  0  0  0  0  0  0  0  0  0
   -0.5339   -0.9534    1.8455 H   0  0  0  0  0  0  0  0  0  0  0  0
   -0.5625   -0.5365   -0.2723 C   0  0  0  0  0  0  0  0  0  0  0  0
    0.3990   -1.0479   -0.1551 H   0  0  0  0  0  0  0  0  0  0  0  0
   -1.1726   -1.1629   -0.9326 H   0  0  0  0  0  0  0  0  0  0  0  0
   -0.3122    0.8115   -0.9717 C   0  0  0  0  0  0  0  0  0  0  0  0
   -1.2681    1.2301   -1.3073 H   0  0  0  0  0  0  0  0  0  0  0  0
    0.1494    1.5219   -0.2779 H   0  0  0  0  0  0  0  0  0  0  0  0
    0.6387    0.6241   -2.1506 C   0  0  0  0  0  0  0  0  0  0  0  0
    1.5985    0.2438   -1.7835 H   0  0  0  0  0  0  0  0  0  0  0  0
    0.2123   -0.1126   -2.8407 H   0  0  0  0  0  0  0  0  0  0  0  0
    0.8238    1.9152   -2.8379 N   0  3  0  0  0  0  0  0  0  0  0  0
    0.2199    2.6833   -2.5460 H   0  0  0  0  0  0  0  0  0  0  0  0
    1.6793    2.1072   -3.7999 C   0  0  0  0  0  0  0  0  0  0  0  0
    2.4946    1.0969   -4.2569 N   0  0  0  0  0  0  0  0  0  0  0  0
    2.2940    0.1483   -3.9464 H   0  0  0  0  0  0  0  0  0  0  0  0
    2.9689    1.2180   -5.1495 H   0  0  0  0  0  0  0  0  0  0  0  0
    1.7762    3.3481   -4.3829 N   0  0  0  0  0  0  0  0  0  0  0  0
    1.3030    4.1352   -3.9433 H   0  0  0  0  0  0  0  0  0  0  0  0
    2.5772    3.5446   -4.9802 H   0  0  0  0  0  0  0  0  0  0  0  0
   -1.4451    0.9620    1.6899 C   0  0  0  0  0  0  0  0  0  0  0  0
   -2.3488    1.6509    1.2303 O   0  0  0  0  0  0  0  0  0  0  0  0
   -0.5989    1.4944    2.6453 N   0  0  0  0  0  0  0  0  0  0  0  0
    0.0570    0.8560    3.0896 H   0  0  0  0  0  0  0  0  0  0  0  0
   -0.8306    2.7928    3.2705 C   0  0  0  0  0  0  0  0  0  0  0  0
   -1.7892    2.7984    3.8005 H   0  0  0  0  0  0  0  0  0  0  0  0
   -0.0367    3.0142    3.9907 H   0  0  0  0  0  0  0  0  0  0  0  0
   -0.8419    3.5869    2.5166 H   0  0  0  0  0  0  0  0  0  0  0  0
  1  2  1  0  0  0  0
  2  3  1  0  0  0  0
  2  4  1  0  0  0  0
  2  5  1  0  0  0  0
  5  6  2  0  0  0  0
  5  7  1  0  0  0  0
  7  8  1  0  0  0  0
  7  9  1  0  0  0  0
  9 10  1  0  0  0  0
  9 11  1  0  0  0  0
  9 29  1  0  0  0  0
 11 12  1  0  0  0  0
 11 13  1  0  0  0  0
 11 14  1  0  0  0  0
 14 15  1  0  0  0  0
 14 16  1  0  0  0  0
 14 17  1  0  0  0  0
 17 18  1  0  0  0  0
 17 19  1  0  0  0  0
 17 20  1  0  0  0  0
 20 21  1  0  0  0  0
 20 22  2  0  0  0  0
 22 23  1  0  0  0  0
 22 26  1  0  0  0  0
 23 24  1  0  0  0  0
 23 25  1  0  0  0  0
 26 27  1  0  0  0  0
 26 28  1  0  0  0  0
 29 30  2  0  0  0  0
 29 31  1  0  0  0  0
 31 32  1  0  0  0  0
 31 33  1  0  0  0  0
 33 34  1  0  0  0  0
 33 35  1  0  0  0  0
 33 36  1  0  0  0  0
M  CHG  1  20   1
M  END
$$$$

  -OEChem-03222214013D

 36 35  0     1  0  0  0  0  0999 V2000
   -4.0038   -4.0908    2.0303 H   0  0  0  0  0  0  0  0  0  0  0  0
   -4.0480   -3.0849    1.6030 C   0  0  0  0  0  0  0  0  0  0  0  0
   -4.6803   -2.4613    2.2396 H   0  0  0  0  0  0  0  0  0  0  0  0
   -4.4918   -3.1449    0.6064 H   0  0  0  0  0  0  0  0  0  0  0  0
   -2.6542   -2.4931    1.5156 C   0  0  0  0  0  0  0  0  0  0  0  0
   -1.6819   -3.1616    1.8284 O   0  0  0  0  0  0  0  0  0  0  0  0
   -2.4786   -1.1958    1.0773 N   0  0  0  0  0  0  0  0  0  0  0  0
   -3.3187   -0.6411    0.9149 H   0  0  0  0  0  0  0  0  0  0  0  0
   -1.1975   -0.4762    1.1333 C   0  0  1  0  0  0  0  0  0  0  0  0
   -0.5240   -0.9634    1.8471 H   0  0  0  0  0  0  0  0  0  0  0  0
   -0.5427   -0.5499   -0.2728 C   0  0  0  0  0  0  0  0  0  0  0  0
    0.2436   -1.3119   -0.2421 H   0  0  0  0  0  0  0  0  0  0  0  0
   -1.2896   -0.8910   -0.9982 H   0  0  0  0  0  0  0  0  0  0  0  0
    0.0471    0.7693   -0.7988 C   0  0  0  0  0  0  0  0  0  0  0  0
   -0.7442    1.5234   -0.8752 H   0  0  0  0  0  0  0  0  0  0  0  0
    0.8132    1.1387   -0.1083 H   0  0  0  0  0  0  0  0  0  0  0  0
    0.6546    0.5503   -2.1823 C   0  0  0  0  0  0  0  0  0  0  0  0
    1.4831   -0.1624   -2.1034 H   0  0  0  0  0  0  0  0  0  0  0  0
   -0.1081    0.1263   -2.8451 H   0  0  0  0  0  0  0  0  0  0  0  0
    1.1323    1.8369   -2.7209 N   0  3  0  0  0  0  0  0  0  0  0  0
    0.8839    2.6767   -2.1987 H   0  0  0  0  0  0  0  0  0  0  0  0
    1.7980    1.9518   -3.8336 C   0  0  0  0  0  0  0  0  0  0  0  0
    2.1181    0.8558   -4.6025 N   0  0  0  0  0  0  0  0  0  0  0  0
    1.6779   -0.0321   -4.3692 H   0  0  0  0  0  0  0  0  0  0  0  0
    2.4138    1.0047   -5.5651 H   0  0  0  0  0  0  0  0  0  0  0  0
    2.1918    3.1972   -4.2625 N   0  0  0  0  0  0  0  0  0  0  0  0
    2.1113    3.9852   -3.6224 H   0  0  0  0  0  0  0  0  0  0  0  0
    2.8771    3.2598   -5.0133 H   0  0  0  0  0  0  0  0  0  0  0  0
   -1.4328    0.9520    1.6709 C   0  0  0  0  0  0  0  0  0  0  0  0
   -2.3357    1.6364    1.2037 O   0  0  0  0  0  0  0  0  0  0  0  0
   -0.5963    1.4891    2.6328 N   0  0  0  0  0  0  0  0  0  0  0  0
    0.0488    0.8505    3.0922 H   0  0  0  0  0  0  0  0  0  0  0  0
   -0.8376    2.7889    3.2517 C   0  0  0  0  0  0  0  0  0  0  0  0
   -1.7991    2.7920    3.7765 H   0  0  0  0  0  0  0  0  0  0  0  0
   -0.0484    3.0164    3.9750 H   0  0  0  0  0  0  0  0  0  0  0  0
   -0.8485    3.5804    2.4950 H   0  0  0  0  0  0  0  0  0  0  0  0
  1  2  1  0  0  0  0
  2  3  1  0  0  0  0
  2  4  1  0  0  0  0
  2  5  1  0  0  0  0
  5  6  2  0  0  0  0
  5  7  1  0  0  0  0
  7  8  1  0  0  0  0
  7  9  1  0  0  0  0
  9 10  1  0  0  0  0
  9 11  1  0  0  0  0
  9 29  1  0  0  0  0
 11 12  1  0  0  0  0
 11 13  1  0  0  0  0
 11 14  1  0  0  0  0
 14 15  1  0  0  0  0
 14 16  1  0  0  0  0
 14 17  1  0  0  0  0
 17 18  1  0  0  0  0
 17 19  1  0  0  0  0
 17 20  1  0  0  0  0
 20 21  1  0  0  0  0
 20 22  2  0  0  0  0
 22 23  1  0  0  0  0
 22 26  1  0  0  0  0
 23 24  1  0  0  0  0
 23 25  1  0  0  0  0
 26 27  1  0  0  0  0
 26 28  1  0  0  0  0
 29 30  2  0  0  0  0
 29 31  1  0  0  0  0
 31 32  1  0  0  0  0
 31 33  1  0  0  0  0
 33 34  1  0  0  0  0
 33 35  1  0  0  0  0
 33 36  1  0  0  0  0
M  CHG  1  20   1
M  END
$$$$

  -OEChem-03222214013D

 36 35  0     1  0  0  0  0  0999 V2000
   -4.0001   -4.0849    2.0238 H   0  0  0  0  0  0  0  0  0  0  0  0
   -4.0495   -3.0779    1.6001 C   0  0  0  0  0  0  0  0  0  0  0  0
   -4.6735   -2.4559    2.2464 H   0  0  0  0  0  0  0  0  0  0  0  0
   -4.5057   -3.1343    0.6091 H   0  0  0  0  0  0  0  0  0  0  0  0
   -2.6563   -2.4877    1.4970 C   0  0  0  0  0  0  0  0  0  0  0  0
   -1.6806   -3.1641    1.7807 O   0  0  0  0  0  0  0  0  0  0  0  0
   -2.4856   -1.1841    1.0751 N   0  0  0  0  0  0  0  0  0  0  0  0
   -3.3277   -0.6247    0.9421 H   0  0  0  0  0  0  0  0  0  0  0  0
   -1.2044   -0.4643    1.1334 C   0  0  1  0  0  0  0  0  0  0  0  0
   -0.5329   -0.9590    1.8438 H   0  0  0  0  0  0  0  0  0  0  0  0
   -0.5420   -0.5342   -0.2708 C   0  0  0  0  0  0  0  0  0  0  0  0
    0.2362   -1.3046   -0.2506 H   0  0  0  0  0  0  0  0  0  0  0  0
   -1.2997   -0.8678   -0.9891 H   0  0  0  0  0  0  0  0  0  0  0  0
    0.0564    0.7783   -0.8114 C   0  0  0  0  0  0  0  0  0  0  0  0
   -0.6512    1.6026   -0.6805 H   0  0  0  0  0  0  0  0  0  0  0  0
    0.9755    1.0223   -0.2677 H   0  0  0  0  0  0  0  0  0  0  0  0
    0.3279    0.6446   -2.3084 C   0  0  0  0  0  0  0  0  0  0  0  0
    1.0810   -0.1349   -2.4694 H   0  0  0  0  0  0  0  0  0  0  0  0
   -0.5971    0.3452   -2.8141 H   0  0  0  0  0  0  0  0  0  0  0  0
    0.7995    1.9348   -2.8444 N   0  3  0  0  0  0  0  0  0  0  0  0
    0.7693    2.7356   -2.2144 H   0  0  0  0  0  0  0  0  0  0  0  0
    1.1889    2.1075   -4.0743 C   0  0  0  0  0  0  0  0  0  0  0  0
    1.2061    1.0727   -4.9813 N   0  0  0  0  0  0  0  0  0  0  0  0
    0.7539    0.2003   -4.7155 H   0  0  0  0  0  0  0  0  0  0  0  0
    1.2806    1.2921   -5.9725 H   0  0  0  0  0  0  0  0  0  0  0  0
    1.5912    3.3545   -4.4890 N   0  0  0  0  0  0  0  0  0  0  0  0
    1.7434    4.0791   -3.7900 H   0  0  0  0  0  0  0  0  0  0  0  0
    2.0771    3.4390   -5.3801 H   0  0  0  0  0  0  0  0  0  0  0  0
   -1.4378    0.9558    1.6917 C   0  0  0  0  0  0  0  0  0  0  0  0
   -2.3541    1.6389    1.2491 O   0  0  0  0  0  0  0  0  0  0  0  0
   -0.5976    1.4826    2.6556 N   0  0  0  0  0  0  0  0  0  0  0  0
    0.0621    0.8442    3.0939 H   0  0  0  0  0  0  0  0  0  0  0  0
   -0.8393    2.7724    3.2952 C   0  0  0  0  0  0  0  0  0  0  0  0
   -1.7977    2.7651    3.8257 H   0  0  0  0  0  0  0  0  0  0  0  0
   -0.0468    2.9913    4.0176 H   0  0  0  0  0  0  0  0  0  0  0  0
   -0.8566    3.5753    2.5505 H   0  0  0  0  0  0  0  0  0  0  0  0
  1  2  1  0  0  0  0
  2  3  1  0  0  0  0
  2  4  1  0  0  0  0
  2  5  1  0  0  0  0
  5  6  2  0  0  0  0
  5  7  1  0  0  0  0
  7  8  1  0  0  0  0
  7  9  1  0  0  0  0
  9 10  1  0  0  0  0
  9 11  1  0  0  0  0
  9 29  1  0  0  0  0
 11 12  1  0  0  0  0
 11 13  1  0  0  0  0
 11 14  1  0  0  0  0
 14 15  1  0  0  0  0
 14 16  1  0  0  0  0
 14 17  1  0  0  0  0
 17 18  1  0  0  0  0
 17 19  1  0  0  0  0
 17 20  1  0  0  0  0
 20 21  1  0  0  0  0
 20 22  2  0  0  0  0
 22 23  1  0  0  0  0
 22 26  1  0  0  0  0
 23 24  1  0  0  0  0
 23 25  1  0  0  0  0
 26 27  1  0  0  0  0
 26 28  1  0  0  0  0
 29 30  2  0  0  0  0
 29 31  1  0  0  0  0
 31 32  1  0  0  0  0
 31 33  1  0  0  0  0
 33 34  1  0  0  0  0
 33 35  1  0  0  0  0
 33 36  1  0  0  0  0
M  CHG  1  20   1
M  END
$$$$

  -OEChem-03222214013D

 36 35  0     1  0  0  0  0  0999 V2000
   -3.9963   -4.0898    1.9864 H   0  0  0  0  0  0  0  0  0  0  0  0
   -4.0497   -3.0707    1.5928 C   0  0  0  0  0  0  0  0  0  0  0  0
   -4.6648   -2.4673    2.2647 H   0  0  0  0  0  0  0  0  0  0  0  0
   -4.5177   -3.0981    0.6060 H   0  0  0  0  0  0  0  0  0  0  0  0
   -2.6571   -2.4789    1.4899 C   0  0  0  0  0  0  0  0  0  0  0  0
   -1.6801   -3.1584    1.7603 O   0  0  0  0  0  0  0  0  0  0  0  0
   -2.4872   -1.1708    1.0816 N   0  0  0  0  0  0  0  0  0  0  0  0
   -3.3292   -0.6076    0.9660 H   0  0  0  0  0  0  0  0  0  0  0  0
   -1.2037   -0.4536    1.1408 C   0  0  1  0  0  0  0  0  0  0  0  0
   -0.5303   -0.9542    1.8452 H   0  0  0  0  0  0  0  0  0  0  0  0
   -0.5426   -0.5174   -0.2665 C   0  0  0  0  0  0  0  0  0  0  0  0
    0.2252   -1.2988   -0.2589 H   0  0  0  0  0  0  0  0  0  0  0  0
   -1.3124   -0.8467   -0.9737 H   0  0  0  0  0  0  0  0  0  0  0  0
    0.0685    0.7865   -0.8280 C   0  0  0  0  0  0  0  0  0  0  0  0
   -0.4840    1.6653   -0.4875 H   0  0  0  0  0  0  0  0  0  0  0  0
    1.1047    0.8859   -0.4873 H   0  0  0  0  0  0  0  0  0  0  0  0
   -0.0121    0.7813   -2.3540 C   0  0  0  0  0  0  0  0  0  0  0  0
    0.5999   -0.0405   -2.7427 H   0  0  0  0  0  0  0  0  0  0  0  0
   -1.0525    0.6140   -2.6544 H   0  0  0  0  0  0  0  0  0  0  0  0
    0.4617    2.0711   -2.8886 N   0  3  0  0  0  0  0  0  0  0  0  0
    0.6719    2.8036   -2.2116 H   0  0  0  0  0  0  0  0  0  0  0  0
    0.5629    2.3305   -4.1602 C   0  0  0  0  0  0  0  0  0  0  0  0
    0.2449    1.3949   -5.1182 N   0  0  0  0  0  0  0  0  0  0  0  0
   -0.2319    0.5486   -4.8136 H   0  0  0  0  0  0  0  0  0  0  0  0
    0.0982    1.7079   -6.0756 H   0  0  0  0  0  0  0  0  0  0  0  0
    0.9937    3.5704   -4.5679 N   0  0  0  0  0  0  0  0  0  0  0  0
    1.3891    4.2039   -3.8757 H   0  0  0  0  0  0  0  0  0  0  0  0
    1.2696    3.6935   -5.5404 H   0  0  0  0  0  0  0  0  0  0  0  0
   -1.4410    0.9581    1.7172 C   0  0  0  0  0  0  0  0  0  0  0  0
   -2.3606    1.6428    1.2828 O   0  0  0  0  0  0  0  0  0  0  0  0
   -0.5997    1.4764    2.6846 N   0  0  0  0  0  0  0  0  0  0  0  0
    0.0697    0.8373    3.1072 H   0  0  0  0  0  0  0  0  0  0  0  0
   -0.8489    2.7530    3.3467 C   0  0  0  0  0  0  0  0  0  0  0  0
   -1.8056    2.7285    3.8795 H   0  0  0  0  0  0  0  0  0  0  0  0
   -0.0561    2.9662    4.0706 H   0  0  0  0  0  0  0  0  0  0  0  0
   -0.8750    3.5679    2.6158 H   0  0  0  0  0  0  0  0  0  0  0  0
  1  2  1  0  0  0  0
  2  3  1  0  0  0  0
  2  4  1  0  0  0  0
  2  5  1  0  0  0  0
  5  6  2  0  0  0  0
  5  7  1  0  0  0  0
  7  8  1  0  0  0  0
  7  9  1  0  0  0  0
  9 10  1  0  0  0  0
  9 11  1  0  0  0  0
  9 29  1  0  0  0  0
 11 12  1  0  0  0  0
 11 13  1  0  0  0  0
 11 14  1  0  0  0  0
 14 15  1  0  0  0  0
 14 16  1  0  0  0  0
 14 17  1  0  0  0  0
 17 18  1  0  0  0  0
 17 19  1  0  0  0  0
 17 20  1  0  0  0  0
 20 21  1  0  0  0  0
 20 22  2  0  0  0  0
 22 23  1  0  0  0  0
 22 26  1  0  0  0  0
 23 24  1  0  0  0  0
 23 25  1  0  0  0  0
 26 27  1  0  0  0  0
 26 28  1  0  0  0  0
 29 30  2  0  0  0  0
 29 31  1  0  0  0  0
 31 32  1  0  0  0  0
 31 33  1  0  0  0  0
 33 34  1  0  0  0  0
 33 35  1  0  0  0  0
 33 36  1  0  0  0  0
M  CHG  1  20   1
M  END
$$$$

  -OEChem-03222214013D

 36 35  0     1  0  0  0  0  0999 V2000
   -3.9923   -4.1105    1.9286 H   0  0  0  0  0  0  0  0  0  0  0  0
   -4.0448   -3.0710    1.5926 C   0  0  0  0  0  0  0  0  0  0  0  0
   -4.6463   -2.5018    2.3054 H   0  0  0  0  0  0  0  0  0  0  0  0
   -4.5274   -3.0422    0.6130 H   0  0  0  0  0  0  0  0  0  0  0  0
   -2.6506   -2.4811    1.5022 C   0  0  0  0  0  0  0  0  0  0  0  0
   -1.6766   -3.1612    1.7810 O   0  0  0  0  0  0  0  0  0  0  0  0
   -2.4774   -1.1737    1.0933 N   0  0  0  0  0  0  0  0  0  0  0  0
   -3.3183   -0.6099    0.9732 H   0  0  0  0  0  0  0  0  0  0  0  0
   -1.1929   -0.4586    1.1528 C   0  0  1  0  0  0  0  0  0  0  0  0
   -0.5144   -0.9583    1.8530 H   0  0  0  0  0  0  0  0  0  0  0  0
   -0.5478   -0.5166   -0.2633 C   0  0  0  0  0  0  0  0  0  0  0  0
    0.2225   -1.2954   -0.2549 H   0  0  0  0  0  0  0  0  0  0  0  0
   -1.3180   -0.8612   -0.9626 H   0  0  0  0  0  0  0  0  0  0  0  0
    0.0690    0.7812   -0.8439 C   0  0  0  0  0  0  0  0  0  0  0  0
   -0.2446    1.6745   -0.3009 H   0  0  0  0  0  0  0  0  0  0  0  0
    1.1604    0.7234   -0.7705 H   0  0  0  0  0  0  0  0  0  0  0  0
   -0.3575    0.9519   -2.3017 C   0  0  0  0  0  0  0  0  0  0  0  0
    0.0262    0.1098   -2.8886 H   0  0  0  0  0  0  0  0  0  0  0  0
   -1.4523    0.9427   -2.3527 H   0  0  0  0  0  0  0  0  0  0  0  0
    0.1559    2.2260   -2.8370 N   0  3  0  0  0  0  0  0  0  0  0  0
    0.6336    2.8452   -2.1835 H   0  0  0  0  0  0  0  0  0  0  0  0
   -0.0303    2.6148   -4.0652 C   0  0  0  0  0  0  0  0  0  0  0  0
   -0.7138    1.8395   -4.9740 N   0  0  0  0  0  0  0  0  0  0  0  0
   -1.2188    1.0297   -4.6199 H   0  0  0  0  0  0  0  0  0  0  0  0
   -1.0476    2.2738   -5.8319 H   0  0  0  0  0  0  0  0  0  0  0  0
    0.4606    3.8314   -4.4750 N   0  0  0  0  0  0  0  0  0  0  0  0
    1.1047    4.3322   -3.8659 H   0  0  0  0  0  0  0  0  0  0  0  0
    0.4892    4.0342   -5.4726 H   0  0  0  0  0  0  0  0  0  0  0  0
   -1.4449    0.9499    1.7292 C   0  0  0  0  0  0  0  0  0  0  0  0
   -2.3505    1.6374    1.2694 O   0  0  0  0  0  0  0  0  0  0  0  0
   -0.6121    1.4732    2.7011 N   0  0  0  0  0  0  0  0  0  0  0  0
    0.0532    0.8356    3.1328 H   0  0  0  0  0  0  0  0  0  0  0  0
   -0.8667    2.7528    3.3550 C   0  0  0  0  0  0  0  0  0  0  0  0
   -1.8190    2.7235    3.8954 H   0  0  0  0  0  0  0  0  0  0  0  0
   -0.0697    2.9782    4.0704 H   0  0  0  0  0  0  0  0  0  0  0  0
   -0.9056    3.5624    2.6187 H   0  0  0  0  0  0  0  0  0  0  0  0
  1  2  1  0  0  0  0
  2  3  1  0  0  0  0
  2  4  1  0  0  0  0
  2  5  1  0  0  0  0
  5  6  2  0  0  0  0
  5  7  1  0  0  0  0
  7  8  1  0  0  0  0
  7  9  1  0  0  0  0
  9 10  1  0  0  0  0
  9 11  1  0  0  0  0
  9 29  1  0  0  0  0
 11 12  1  0  0  0  0
 11 13  1  0  0  0  0
 11 14  1  0  0  0  0
 14 15  1  0  0  0  0
 14 16  1  0  0  0  0
 14 17  1  0  0  0  0
 17 18  1  0  0  0  0
 17 19  1  0  0  0  0
 17 20  1  0  0  0  0
 20 21  1  0  0  0  0
 20 22  2  0  0  0  0
 22 23  1  0  0  0  0
 22 26  1  0  0  0  0
 23 24  1  0  0  0  0
 23 25  1  0  0  0  0
 26 27  1  0  0  0  0
 26 28  1  0  0  0  0
 29 30  2  0  0  0  0
 29 31  1  0  0  0  0
 31 32  1  0  0  0  0
 31 33  1  0  0  0  0
 33 34  1  0  0  0  0
 33 35  1  0  0  0  0
 33 36  1  0  0  0  0
M  CHG  1  20   1
M  END
$$$$

  -OEChem-03222214013D

 36 35  0     1  0  0  0  0  0999 V2000
   -4.0277   -3.9296    2.1400 H   0  0  0  0  0  0  0  0  0  0  0  0
   -4.0236   -3.0164    1.5378 C   0  0  0  0  0  0  0  0  0  0  0  0
   -4.7730   -2.3296    1.9382 H   0  0  0  0  0  0  0  0  0  0  0  0
   -4.2853   -3.2730    0.5087 H   0  0  0  0  0  0  0  0  0  0  0  0
   -2.6518   -2.3709    1.5795 C   0  0  0  0  0  0  0  0  0  0  0  0
   -1.7511   -2.8847    2.2217 O   0  0  0  0  0  0  0  0  0  0  0  0
   -2.4194   -1.1903    0.9004 N   0  0  0  0  0  0  0  0  0  0  0  0
   -3.2176   -0.7490    0.4476 H   0  0  0  0  0  0  0  0  0  0  0  0
   -1.1651   -0.4252    0.9960 C   0  0  1  0  0  0  0  0  0  0  0  0
   -0.5868   -0.7212    1.8784 H   0  0  0  0  0  0  0  0  0  0  0  0
   -0.3342   -0.7483   -0.2811 C   0  0  0  0  0  0  0  0  0  0  0  0
    0.4476   -1.4575    0.0119 H   0  0  0  0  0  0  0  0  0  0  0  0
   -0.9707   -1.2858   -0.9935 H   0  0  0  0  0  0  0  0  0  0  0  0
    0.3415    0.4359   -1.0191 C   0  0  0  0  0  0  0  0  0  0  0  0
    0.2250    1.3921   -0.5074 H   0  0  0  0  0  0  0  0  0  0  0  0
    1.4202    0.2509   -1.0618 H   0  0  0  0  0  0  0  0  0  0  0  0
   -0.1907    0.5221   -2.4497 C   0  0  0  0  0  0  0  0  0  0  0  0
    0.2440   -0.2858   -3.0491 H   0  0  0  0  0  0  0  0  0  0  0  0
   -1.2767    0.3764   -2.4450 H   0  0  0  0  0  0  0  0  0  0  0  0
    0.1265    1.8315   -3.0492 N   0  3  0  0  0  0  0  0  0  0  0  0
    0.9752    1.8895   -3.6105 H   0  0  0  0  0  0  0  0  0  0  0  0
   -0.6549    2.8720   -2.9625 C   0  0  0  0  0  0  0  0  0  0  0  0
   -1.8080    2.8737   -2.2093 N   0  0  0  0  0  0  0  0  0  0  0  0
   -1.9073    2.1542   -1.4851 H   0  0  0  0  0  0  0  0  0  0  0  0
   -2.2564    3.7661   -2.0199 H   0  0  0  0  0  0  0  0  0  0  0  0
   -0.3255    4.0178   -3.6466 N   0  0  0  0  0  0  0  0  0  0  0  0
    0.4047    3.9691   -4.3544 H   0  0  0  0  0  0  0  0  0  0  0  0
   -1.0375    4.7389   -3.7469 H   0  0  0  0  0  0  0  0  0  0  0  0
   -1.5373    1.0625    1.1677 C   0  0  0  0  0  0  0  0  0  0  0  0
   -2.2639    1.6045    0.3346 O   0  0  0  0  0  0  0  0  0  0  0  0
   -0.8942    1.8410    2.1113 N   0  0  0  0  0  0  0  0  0  0  0  0
   -0.3510    1.3507    2.8201 H   0  0  0  0  0  0  0  0  0  0  0  0
   -1.2070    3.2483    2.3369 C   0  0  0  0  0  0  0  0  0  0  0  0
   -2.2553    3.3662    2.6318 H   0  0  0  0  0  0  0  0  0  0  0  0
   -0.5769    3.6522    3.1358 H   0  0  0  0  0  0  0  0  0  0  0  0
   -1.0272    3.8341    1.4296 H   0  0  0  0  0  0  0  0  0  0  0  0
  1  2  1  0  0  0  0
  2  3  1  0  0  0  0
  2  4  1  0  0  0  0
  2  5  1  0  0  0  0
  5  6  2  0  0  0  0
  5  7  1  0  0  0  0
  7  8  1  0  0  0  0
  7  9  1  0  0  0  0
  9 10  1  0  0  0  0
  9 11  1  0  0  0  0
  9 29  1  0  0  0  0
 11 12  1  0  0  0  0
 11 13  1  0  0  0  0
 11 14  1  0  0  0  0
 14 15  1  0  0  0  0
 14 16  1  0  0  0  0
 14 17  1  0  0  0  0
 17 18  1  0  0  0  0
 17 19  1  0  0  0  0
 17 20  1  0  0  0  0
 20 21  1  0  0  0  0
 20 22  2  0  0  0  0
 22 23  1  0  0  0  0
 22 26  1  0  0  0  0
 23 24  1  0  0  0  0
 23 25  1  0  0  0  0
 26 27  1  0  0  0  0
 26 28  1  0  0  0  0
 29 30  2  0  0  0  0
 29 31  1  0  0  0  0
 31 32  1  0  0  0  0
 31 33  1  0  0  0  0
 33 34  1  0  0  0  0
 33 35  1  0  0  0  0
 33 36  1  0  0  0  0
M  CHG  1  20   1
M  END
$$$$

  -OEChem-03222214013D

 36 35  0     1  0  0  0  0  0999 V2000
   -3.9321   -4.0468    2.1417 H   0  0  0  0  0  0  0  0  0  0  0  0
   -3.9838   -3.0973    1.6013 C   0  0  0  0  0  0  0  0  0  0  0  0
   -4.7302   -2.4604    2.0819 H   0  0  0  0  0  0  0  0  0  0  0  0
   -4.2912   -3.2962    0.5721 H   0  0  0  0  0  0  0  0  0  0  0  0
   -2.6297   -2.4145    1.6180 C   0  0  0  0  0  0  0  0  0  0  0  0
   -1.6987   -2.9136    2.2274 O   0  0  0  0  0  0  0  0  0  0  0  0
   -2.4483   -1.2168    0.9535 N   0  0  0  0  0  0  0  0  0  0  0  0
   -3.2702   -0.7910    0.5293 H   0  0  0  0  0  0  0  0  0  0  0  0
   -1.2100   -0.4236    1.0148 C   0  0  1  0  0  0  0  0  0  0  0  0
   -0.5965   -0.7241    1.8720 H   0  0  0  0  0  0  0  0  0  0  0  0
   -0.4159   -0.7161   -0.2907 C   0  0  0  0  0  0  0  0  0  0  0  0
    0.4024   -1.3910   -0.0172 H   0  0  0  0  0  0  0  0  0  0  0  0
   -1.0445   -1.2752   -0.9934 H   0  0  0  0  0  0  0  0  0  0  0  0
    0.1963    0.4989   -1.0244 C   0  0  0  0  0  0  0  0  0  0  0  0
    0.3069    1.3731   -0.3779 H   0  0  0  0  0  0  0  0  0  0  0  0
    1.2067    0.2330   -1.3538 H   0  0  0  0  0  0  0  0  0  0  0  0
   -0.6373    0.8170   -2.2660 C   0  0  0  0  0  0  0  0  0  0  0  0
   -0.4939    0.0271   -3.0117 H   0  0  0  0  0  0  0  0  0  0  0  0
   -1.6995    0.8229   -1.9978 H   0  0  0  0  0  0  0  0  0  0  0  0
   -0.2532    2.1230   -2.8321 N   0  3  0  0  0  0  0  0  0  0  0  0
    0.5685    2.1414   -3.4345 H   0  0  0  0  0  0  0  0  0  0  0  0
   -0.9424    3.2158   -2.6600 C   0  0  0  0  0  0  0  0  0  0  0  0
   -2.0563    3.2701   -1.8535 N   0  0  0  0  0  0  0  0  0  0  0  0
   -2.1915    2.5096   -1.1778 H   0  0  0  0  0  0  0  0  0  0  0  0
   -2.4188    4.1824   -1.5910 H   0  0  0  0  0  0  0  0  0  0  0  0
   -0.5526    4.3639   -3.3073 N   0  0  0  0  0  0  0  0  0  0  0  0
    0.1385    4.2908   -4.0511 H   0  0  0  0  0  0  0  0  0  0  0  0
   -1.2122    5.1385   -3.3471 H   0  0  0  0  0  0  0  0  0  0  0  0
   -1.5884    1.0578    1.2278 C   0  0  0  0  0  0  0  0  0  0  0  0
   -2.3713    1.6079    0.4543 O   0  0  0  0  0  0  0  0  0  0  0  0
   -0.9129    1.8241    2.1589 N   0  0  0  0  0  0  0  0  0  0  0  0
   -0.3257    1.3245    2.8248 H   0  0  0  0  0  0  0  0  0  0  0  0
   -1.2517    3.2127    2.4511 C   0  0  0  0  0  0  0  0  0  0  0  0
   -2.2947    3.2938    2.7761 H   0  0  0  0  0  0  0  0  0  0  0  0
   -0.6116    3.5972    3.2517 H   0  0  0  0  0  0  0  0  0  0  0  0
   -1.1076    3.8396    1.5656 H   0  0  0  0  0  0  0  0  0  0  0  0
  1  2  1  0  0  0  0
  2  3  1  0  0  0  0
  2  4  1  0  0  0  0
  2  5  1  0  0  0  0
  5  6  2  0  0  0  0
  5  7  1  0  0  0  0
  7  8  1  0  0  0  0
  7  9  1  0  0  0  0
  9 10  1  0  0  0  0
  9 11  1  0  0  0  0
  9 29  1  0  0  0  0
 11 12  1  0  0  0  0
 11 13  1  0  0  0  0
 11 14  1  0  0  0  0
 14 15  1  0  0  0  0
 14 16  1  0  0  0  0
 14 17  1  0  0  0  0
 17 18  1  0  0  0  0
 17 19  1  0  0  0  0
 17 20  1  0  0  0  0
 20 21  1  0  0  0  0
 20 22  2  0  0  0  0
 22 23  1  0  0  0  0
 22 26  1  0  0  0  0
 23 24  1  0  0  0  0
 23 25  1  0  0  0  0
 26 27  1  0  0  0  0
 26 28  1  0  0  0  0
 29 30  2  0  0  0  0
 29 31  1  0  0  0  0
 31 32  1  0  0  0  0
 31 33  1  0  0  0  0
 33 34  1  0  0  0  0
 33 35  1  0  0  0  0
 33 36  1  0  0  0  0
M  CHG  1  20   1
M  END
$$$$

  -OEChem-03222214013D

 36 35  0     1  0  0  0  0  0999 V2000
   -3.8985   -4.1157    2.0966 H   0  0  0  0  0  0  0  0  0  0  0  0
   -3.9851   -3.1439    1.6021 C   0  0  0  0  0  0  0  0  0  0  0  0
   -4.7223   -2.5420    2.1388 H   0  0  0  0  0  0  0  0  0  0  0  0
   -4.3272   -3.3011    0.5765 H   0  0  0  0  0  0  0  0  0  0  0  0
   -2.6418   -2.4400    1.5998 C   0  0  0  0  0  0  0  0  0  0  0  0
   -1.6804   -2.9535    2.1473 O   0  0  0  0  0  0  0  0  0  0  0  0
   -2.5024   -1.2129    0.9800 N   0  0  0  0  0  0  0  0  0  0  0  0
   -3.3470   -0.7815    0.6096 H   0  0  0  0  0  0  0  0  0  0  0  0
   -1.2751   -0.4026    1.0318 C   0  0  1  0  0  0  0  0  0  0  0  0
   -0.6524   -0.7290    1.8724 H   0  0  0  0  0  0  0  0  0  0  0  0
   -0.4755   -0.6711   -0.2748 C   0  0  0  0  0  0  0  0  0  0  0  0
    0.3569   -1.3311   -0.0071 H   0  0  0  0  0  0  0  0  0  0  0  0
   -1.0929   -1.2322   -0.9857 H   0  0  0  0  0  0  0  0  0  0  0  0
    0.1072    0.5603   -0.9962 C   0  0  0  0  0  0  0  0  0  0  0  0
    0.4146    1.3313   -0.2829 H   0  0  0  0  0  0  0  0  0  0  0  0
    1.0066    0.2564   -1.5428 H   0  0  0  0  0  0  0  0  0  0  0  0
   -0.9102    1.1002   -2.0044 C   0  0  0  0  0  0  0  0  0  0  0  0
   -0.9963    0.3961   -2.8394 H   0  0  0  0  0  0  0  0  0  0  0  0
   -1.8962    1.1628   -1.5349 H   0  0  0  0  0  0  0  0  0  0  0  0
   -0.4941    2.4231   -2.5049 N   0  3  0  0  0  0  0  0  0  0  0  0
    0.3230    2.4492   -3.1129 H   0  0  0  0  0  0  0  0  0  0  0  0
   -1.1498    3.5252   -2.2724 C   0  0  0  0  0  0  0  0  0  0  0  0
   -2.2585    3.5701   -1.4588 N   0  0  0  0  0  0  0  0  0  0  0  0
   -2.4147    2.7755   -0.8285 H   0  0  0  0  0  0  0  0  0  0  0  0
   -2.5957    4.4765   -1.1469 H   0  0  0  0  0  0  0  0  0  0  0  0
   -0.7289    4.6935   -2.8616 N   0  0  0  0  0  0  0  0  0  0  0  0
   -0.0433    4.6393   -3.6122 H   0  0  0  0  0  0  0  0  0  0  0  0
   -1.3647    5.4889   -2.8559 H   0  0  0  0  0  0  0  0  0  0  0  0
   -1.6211    1.0747    1.3179 C   0  0  0  0  0  0  0  0  0  0  0  0
   -2.4731    1.6566    0.6498 O   0  0  0  0  0  0  0  0  0  0  0  0
   -0.8951    1.7912    2.2509 N   0  0  0  0  0  0  0  0  0  0  0  0
   -0.2693    1.2578    2.8525 H   0  0  0  0  0  0  0  0  0  0  0  0
   -1.2192    3.1591    2.6423 C   0  0  0  0  0  0  0  0  0  0  0  0
   -2.2361    3.2123    3.0465 H   0  0  0  0  0  0  0  0  0  0  0  0
   -0.5238    3.5061    3.4135 H   0  0  0  0  0  0  0  0  0  0  0  0
   -1.1441    3.8345    1.7842 H   0  0  0  0  0  0  0  0  0  0  0  0
  1  2  1  0  0  0  0
  2  3  1  0  0  0  0
  2  4  1  0  0  0  0
  2  5  1  0  0  0  0
  5  6  2  0  0  0  0
  5  7  1  0  0  0  0
  7  8  1  0  0  0  0
  7  9  1  0  0  0  0
  9 10  1  0  0  0  0
  9 11  1  0  0  0  0
  9 29  1  0  0  0  0
 11 12  1  0  0  0  0
 11 13  1  0  0  0  0
 11 14  1  0  0  0  0
 14 15  1  0  0  0  0
 14 16  1  0  0  0  0
 14 17  1  0  0  0  0
 17 18  1  0  0  0  0
 17 19  1  0  0  0  0
 17 20  1  0  0  0  0
 20 21  1  0  0  0  0
 20 22  2  0  0  0  0
 22 23  1  0  0  0  0
 22 26  1  0  0  0  0
 23 24  1  0  0  0  0
 23 25  1  0  0  0  0
 26 27  1  0  0  0  0
 26 28  1  0  0  0  0
 29 30  2  0  0  0  0
 29 31  1  0  0  0  0
 31 32  1  0  0  0  0
 31 33  1  0  0  0  0
 33 34  1  0  0  0  0
 33 35  1  0  0  0  0
 33 36  1  0  0  0  0
M  CHG  1  20   1
M  END
$$$$

  -OEChem-03222214013D

 36 35  0     1  0  0  0  0  0999 V2000
   -3.8647   -4.1604    2.0451 H   0  0  0  0  0  0  0  0  0  0  0  0
   -3.9930   -3.1451    1.6589 C   0  0  0  0  0  0  0  0  0  0  0  0
   -4.6727   -2.6009    2.3190 H   0  0  0  0  0  0  0  0  0  0  0  0
   -4.4323   -3.2038    0.6603 H   0  0  0  0  0  0  0  0  0  0  0  0
   -2.6525   -2.4382    1.5982 C   0  0  0  0  0  0  0  0  0  0  0  0
   -1.6565   -2.9760    2.0530 O   0  0  0  0  0  0  0  0  0  0  0  0
   -2.5542   -1.1827    1.0284 N   0  0  0  0  0  0  0  0  0  0  0  0
   -3.4235   -0.7360    0.7430 H   0  0  0  0  0  0  0  0  0  0  0  0
   -1.3304   -0.3653    1.0445 C   0  0  1  0  0  0  0  0  0  0  0  0
   -0.6962   -0.7209    1.8642 H   0  0  0  0  0  0  0  0  0  0  0  0
   -0.5272   -0.6302   -0.2618 C   0  0  0  0  0  0  0  0  0  0  0  0
    0.3103   -1.2865    0.0001 H   0  0  0  0  0  0  0  0  0  0  0  0
   -1.1514   -1.1931   -0.9649 H   0  0  0  0  0  0  0  0  0  0  0  0
    0.0420    0.5908   -1.0088 C   0  0  0  0  0  0  0  0  0  0  0  0
    0.5475    1.2512   -0.2962 H   0  0  0  0  0  0  0  0  0  0  0  0
    0.7945    0.2520   -1.7291 H   0  0  0  0  0  0  0  0  0  0  0  0
   -1.0568    1.3485   -1.7626 C   0  0  0  0  0  0  0  0  0  0  0  0
   -1.3065    0.7911   -2.6723 H   0  0  0  0  0  0  0  0  0  0  0  0
   -1.9664    1.3919   -1.1628 H   0  0  0  0  0  0  0  0  0  0  0  0
   -0.6064    2.7066   -2.1212 N   0  3  0  0  0  0  0  0  0  0  0  0
    0.2267    2.7760   -2.7034 H   0  0  0  0  0  0  0  0  0  0  0  0
   -1.2623    3.7924   -1.8210 C   0  0  0  0  0  0  0  0  0  0  0  0
   -2.4003    3.7814   -1.0481 N   0  0  0  0  0  0  0  0  0  0  0  0
   -2.5753    2.9444   -0.4811 H   0  0  0  0  0  0  0  0  0  0  0  0
   -2.7430    4.6642   -0.6793 H   0  0  0  0  0  0  0  0  0  0  0  0
   -0.8127    5.0017   -2.2960 N   0  0  0  0  0  0  0  0  0  0  0  0
   -0.0953    5.0044   -3.0182 H   0  0  0  0  0  0  0  0  0  0  0  0
   -1.4433    5.8001   -2.2502 H   0  0  0  0  0  0  0  0  0  0  0  0
   -1.6200    1.1063    1.4130 C   0  0  0  0  0  0  0  0  0  0  0  0
   -2.5656    1.7091    0.9117 O   0  0  0  0  0  0  0  0  0  0  0  0
   -0.8149    1.7647    2.3242 N   0  0  0  0  0  0  0  0  0  0  0  0
   -0.1281    1.1979    2.8192 H   0  0  0  0  0  0  0  0  0  0  0  0
   -1.1299    3.0821    2.8675 C   0  0  0  0  0  0  0  0  0  0  0  0
   -2.0665    3.0489    3.4346 H   0  0  0  0  0  0  0  0  0  0  0  0
   -0.3317    3.4145    3.5390 H   0  0  0  0  0  0  0  0  0  0  0  0
   -1.2297    3.8193    2.0645 H   0  0  0  0  0  0  0  0  0  0  0  0
  1  2  1  0  0  0  0
  2  3  1  0  0  0  0
  2  4  1  0  0  0  0
  2  5  1  0  0  0  0
  5  6  2  0  0  0  0
  5  7  1  0  0  0  0
  7  8  1  0  0  0  0
  7  9  1  0  0  0  0
  9 10  1  0  0  0  0
  9 11  1  0  0  0  0
  9 29  1  0  0  0  0
 11 12  1  0  0  0  0
 11 13  1  0  0  0  0
 11 14  1  0  0  0  0
 14 15  1  0  0  0  0
 14 16  1  0  0  0  0
 14 17  1  0  0  0  0
 17 18  1  0  0  0  0
 17 19  1  0  0  0  0
 17 20  1  0  0  0  0
 20 21  1  0  0  0  0
 20 22  2  0  0  0  0
 22 23  1  0  0  0  0
 22 26  1  0  0  0  0
 23 24  1  0  0  0  0
 23 25  1  0  0  0  0
 26 27  1  0  0  0  0
 26 28  1  0  0  0  0
 29 30  2  0  0  0  0
 29 31  1  0  0  0  0
 31 32  1  0  0  0  0
 31 33  1  0  0  0  0
 33 34  1  0  0  0  0
 33 35  1  0  0  0  0
 33 36  1  0  0  0  0
M  CHG  1  20   1
M  END
$$$$

  -OEChem-03222214013D

 36 35  0     1  0  0  0  0  0999 V2000
   -3.8479   -4.1712    2.0633 H   0  0  0  0  0  0  0  0  0  0  0  0
   -3.9825   -3.1809    1.6187 C   0  0  0  0  0  0  0  0  0  0  0  0
   -4.7012   -2.6205    2.2212 H   0  0  0  0  0  0  0  0  0  0  0  0
   -4.3785   -3.3014    0.6077 H   0  0  0  0  0  0  0  0  0  0  0  0
   -2.6566   -2.4460    1.5735 C   0  0  0  0  0  0  0  0  0  0  0  0
   -1.6463   -2.9777    2.0037 O   0  0  0  0  0  0  0  0  0  0  0  0
   -2.5884   -1.1707    1.0448 N   0  0  0  0  0  0  0  0  0  0  0  0
   -3.4687   -0.7337    0.7781 H   0  0  0  0  0  0  0  0  0  0  0  0
   -1.3820   -0.3284    1.0749 C   0  0  1  0  0  0  0  0  0  0  0  0
   -0.7615   -0.6908    1.9025 H   0  0  0  0  0  0  0  0  0  0  0  0
   -0.5287   -0.5856   -0.2034 C   0  0  0  0  0  0  0  0  0  0  0  0
    0.3040   -1.2378    0.0824 H   0  0  0  0  0  0  0  0  0  0  0  0
   -1.1367   -1.1577   -0.9130 H   0  0  0  0  0  0  0  0  0  0  0  0
    0.0536    0.6127   -0.9811 C   0  0  0  0  0  0  0  0  0  0  0  0
    0.7245    1.1527   -0.3046 H   0  0  0  0  0  0  0  0  0  0  0  0
    0.6597    0.2428   -1.8154 H   0  0  0  0  0  0  0  0  0  0  0  0
   -1.0090    1.5772   -1.5237 C   0  0  0  0  0  0  0  0  0  0  0  0
   -1.9058    1.5419   -0.9097 H   0  0  0  0  0  0  0  0  0  0  0  0
   -1.3065    1.2367   -2.5218 H   0  0  0  0  0  0  0  0  0  0  0  0
   -0.4875    2.9549   -1.6103 N   0  3  0  0  0  0  0  0  0  0  0  0
    0.4231    3.0746   -2.0512 H   0  0  0  0  0  0  0  0  0  0  0  0
   -1.1715    4.0119   -1.2714 C   0  0  0  0  0  0  0  0  0  0  0  0
   -2.4140    3.9354   -0.6854 N   0  0  0  0  0  0  0  0  0  0  0  0
   -2.6595    3.0481   -0.2326 H   0  0  0  0  0  0  0  0  0  0  0  0
   -2.8006    4.7784   -0.2696 H   0  0  0  0  0  0  0  0  0  0  0  0
   -0.6452    5.2588   -1.5121 N   0  0  0  0  0  0  0  0  0  0  0  0
    0.1713    5.3342   -2.1153 H   0  0  0  0  0  0  0  0  0  0  0  0
   -1.2692    6.0614   -1.4555 H   0  0  0  0  0  0  0  0  0  0  0  0
   -1.6785    1.1280    1.4924 C   0  0  0  0  0  0  0  0  0  0  0  0
   -2.6760    1.7139    1.0789 O   0  0  0  0  0  0  0  0  0  0  0  0
   -0.8657    1.7658    2.4119 N   0  0  0  0  0  0  0  0  0  0  0  0
   -0.1490    1.1950    2.8574 H   0  0  0  0  0  0  0  0  0  0  0  0
   -1.2200    3.0300    3.0500 C   0  0  0  0  0  0  0  0  0  0  0  0
   -2.1592    2.9296    3.6050 H   0  0  0  0  0  0  0  0  0  0  0  0
   -0.4365    3.3324    3.7524 H   0  0  0  0  0  0  0  0  0  0  0  0
   -1.3343    3.8221    2.3033 H   0  0  0  0  0  0  0  0  0  0  0  0
  1  2  1  0  0  0  0
  2  3  1  0  0  0  0
  2  4  1  0  0  0  0
  2  5  1  0  0  0  0
  5  6  2  0  0  0  0
  5  7  1  0  0  0  0
  7  8  1  0  0  0  0
  7  9  1  0  0  0  0
  9 10  1  0  0  0  0
  9 11  1  0  0  0  0
  9 29  1  0  0  0  0
 11 12  1  0  0  0  0
 11 13  1  0  0  0  0
 11 14  1  0  0  0  0
 14 15  1  0  0  0  0
 14 16  1  0  0  0  0
 14 17  1  0  0  0  0
 17 18  1  0  0  0  0
 17 19  1  0  0  0  0
 17 20  1  0  0  0  0
 20 21  1  0  0  0  0
 20 22  2  0  0  0  0
 22 23  1  0  0  0  0
 22 26  1  0  0  0  0
 23 24  1  0  0  0  0
 23 25  1  0  0  0  0
 26 27  1  0  0  0  0
 26 28  1  0  0  0  0
 29 30  2  0  0  0  0
 29 31  1  0  0  0  0
 31 32  1  0  0  0  0
 31 33  1  0  0  0  0
 33 34  1  0  0  0  0
 33 35  1  0  0  0  0
 33 36  1  0  0  0  0
M  CHG  1  20   1
M  END
$$$$

  -OEChem-03222214013D

 36 35  0     1  0  0  0  0  0999 V2000
   -3.8540   -4.3158    1.7350 H   0  0  0  0  0  0  0  0  0  0  0  0
   -3.9763   -3.2606    1.4741 C   0  0  0  0  0  0  0  0  0  0  0  0
   -4.6192   -2.7874    2.2201 H   0  0  0  0  0  0  0  0  0  0  0  0
   -4.4544   -3.1942    0.4940 H   0  0  0  0  0  0  0  0  0  0  0  0
   -2.6247   -2.5735    1.4398 C   0  0  0  0  0  0  0  0  0  0  0  0
   -1.6074   -3.2140    1.6482 O   0  0  0  0  0  0  0  0  0  0  0  0
   -2.5386   -1.2208    1.1712 N   0  0  0  0  0  0  0  0  0  0  0  0
   -3.4141   -0.7048    1.0997 H   0  0  0  0  0  0  0  0  0  0  0  0
   -1.2918   -0.4441    1.2652 C   0  0  1  0  0  0  0  0  0  0  0  0
   -0.5939   -0.9767    1.9208 H   0  0  0  0  0  0  0  0  0  0  0  0
   -0.6228   -0.4159   -0.1481 C   0  0  0  0  0  0  0  0  0  0  0  0
    0.1724   -1.1694   -0.1485 H   0  0  0  0  0  0  0  0  0  0  0  0
   -1.3714   -0.7642   -0.8685 H   0  0  0  0  0  0  0  0  0  0  0  0
   -0.0412    0.8850   -0.7559 C   0  0  0  0  0  0  0  0  0  0  0  0
    0.9194    1.1023   -0.2763 H   0  0  0  0  0  0  0  0  0  0  0  0
    0.1560    0.6978   -1.8169 H   0  0  0  0  0  0  0  0  0  0  0  0
   -0.9394    2.1093   -0.6134 C   0  0  0  0  0  0  0  0  0  0  0  0
   -1.9766    1.8040   -0.7942 H   0  0  0  0  0  0  0  0  0  0  0  0
   -0.8601    2.4831    0.4111 H   0  0  0  0  0  0  0  0  0  0  0  0
   -0.5869    3.2032   -1.5306 N   0  3  0  0  0  0  0  0  0  0  0  0
    0.0387    2.9953   -2.3074 H   0  0  0  0  0  0  0  0  0  0  0  0
   -1.1188    4.3857   -1.4124 C   0  0  0  0  0  0  0  0  0  0  0  0
   -2.0079    4.6717   -0.3980 N   0  0  0  0  0  0  0  0  0  0  0  0
   -2.3498    3.8927    0.1683 H   0  0  0  0  0  0  0  0  0  0  0  0
   -2.5975    5.4967   -0.4802 H   0  0  0  0  0  0  0  0  0  0  0  0
   -0.7975    5.3735   -2.3124 N   0  0  0  0  0  0  0  0  0  0  0  0
   -0.0167    5.2213   -2.9479 H   0  0  0  0  0  0  0  0  0  0  0  0
   -1.0498    6.3340   -2.0870 H   0  0  0  0  0  0  0  0  0  0  0  0
   -1.5595    0.8879    1.9985 C   0  0  0  0  0  0  0  0  0  0  0  0
   -2.5402    1.5736    1.7146 O   0  0  0  0  0  0  0  0  0  0  0  0
   -0.6912    1.3291    2.9798 N   0  0  0  0  0  0  0  0  0  0  0  0
    0.0274    0.6746    3.2836 H   0  0  0  0  0  0  0  0  0  0  0  0
   -0.9689    2.4832    3.8289 C   0  0  0  0  0  0  0  0  0  0  0  0
   -1.8789    2.3172    4.4156 H   0  0  0  0  0  0  0  0  0  0  0  0
   -0.1379    2.6523    4.5212 H   0  0  0  0  0  0  0  0  0  0  0  0
   -1.0997    3.3859    3.2235 H   0  0  0  0  0  0  0  0  0  0  0  0
  1  2  1  0  0  0  0
  2  3  1  0  0  0  0
  2  4  1  0  0  0  0
  2  5  1  0  0  0  0
  5  6  2  0  0  0  0
  5  7  1  0  0  0  0
  7  8  1  0  0  0  0
  7  9  1  0  0  0  0
  9 10  1  0  0  0  0
  9 11  1  0  0  0  0
  9 29  1  0  0  0  0
 11 12  1  0  0  0  0
 11 13  1  0  0  0  0
 11 14  1  0  0  0  0
 14 15  1  0  0  0  0
 14 16  1  0  0  0  0
 14 17  1  0  0  0  0
 17 18  1  0  0  0  0
 17 19  1  0  0  0  0
 17 20  1  0  0  0  0
 20 21  1  0  0  0  0
 20 22  2  0  0  0  0
 22 23  1  0  0  0  0
 22 26  1  0  0  0  0
 23 24  1  0  0  0  0
 23 25  1  0  0  0  0
 26 27  1  0  0  0  0
 26 28  1  0  0  0  0
 29 30  2  0  0  0  0
 29 31  1  0  0  0  0
 31 32  1  0  0  0  0
 31 33  1  0  0  0  0
 33 34  1  0  0  0  0
 33 35  1  0  0  0  0
 33 36  1  0  0  0  0
M  CHG  1  20   1
M  END
$$$$

  -OEChem-03222214013D

 36 35  0     1  0  0  0  0  0999 V2000
   -3.9957   -4.2399    1.5247 H   0  0  0  0  0  0  0  0  0  0  0  0
   -4.0746   -3.1592    1.3756 C   0  0  0  0  0  0  0  0  0  0  0  0
   -4.6919   -2.7390    2.1731 H   0  0  0  0  0  0  0  0  0  0  0  0
   -4.5563   -2.9720    0.4131 H   0  0  0  0  0  0  0  0  0  0  0  0
   -2.6952   -2.5289    1.3966 C   0  0  0  0  0  0  0  0  0  0  0  0
   -1.7069   -3.2224    1.5723 O   0  0  0  0  0  0  0  0  0  0  0  0
   -2.5508   -1.1672    1.2109 N   0  0  0  0  0  0  0  0  0  0  0  0
   -3.4031   -0.6122    1.1532 H   0  0  0  0  0  0  0  0  0  0  0  0
   -1.2701   -0.4498    1.3268 C   0  0  1  0  0  0  0  0  0  0  0  0
   -0.5842   -1.0482    1.9370 H   0  0  0  0  0  0  0  0  0  0  0  0
   -0.6253   -0.3776   -0.1013 C   0  0  0  0  0  0  0  0  0  0  0  0
    0.1211   -1.1774   -0.1627 H   0  0  0  0  0  0  0  0  0  0  0  0
   -1.4134   -0.6485   -0.8129 H   0  0  0  0  0  0  0  0  0  0  0  0
    0.0136    0.9088   -0.6939 C   0  0  0  0  0  0  0  0  0  0  0  0
    1.0789    0.9131   -0.4399 H   0  0  0  0  0  0  0  0  0  0  0  0
   -0.0611    0.8480   -1.7852 H   0  0  0  0  0  0  0  0  0  0  0  0
   -0.5845    2.2254   -0.2204 C   0  0  0  0  0  0  0  0  0  0  0  0
   -1.6746    2.1153   -0.2246 H   0  0  0  0  0  0  0  0  0  0  0  0
   -0.2555    2.4205    0.8056 H   0  0  0  0  0  0  0  0  0  0  0  0
   -0.2266    3.3752   -1.0631 N   0  3  0  0  0  0  0  0  0  0  0  0
    0.5891    3.2922   -1.6682 H   0  0  0  0  0  0  0  0  0  0  0  0
   -0.8890    4.4943   -0.9955 C   0  0  0  0  0  0  0  0  0  0  0  0
   -1.9681    4.6366   -0.1484 N   0  0  0  0  0  0  0  0  0  0  0  0
   -2.1653    3.8830    0.5137 H   0  0  0  0  0  0  0  0  0  0  0  0
   -2.3176    5.5684    0.0626 H   0  0  0  0  0  0  0  0  0  0  0  0
   -0.5115    5.5607   -1.7756 N   0  0  0  0  0  0  0  0  0  0  0  0
    0.1521    5.4005   -2.5308 H   0  0  0  0  0  0  0  0  0  0  0  0
   -1.1560    6.3438   -1.8659 H   0  0  0  0  0  0  0  0  0  0  0  0
   -1.4790    0.8423    2.1477 C   0  0  0  0  0  0  0  0  0  0  0  0
   -2.4196    1.5969    1.9056 O   0  0  0  0  0  0  0  0  0  0  0  0
   -0.5800    1.1881    3.1403 N   0  0  0  0  0  0  0  0  0  0  0  0
    0.1037    0.4806    3.4032 H   0  0  0  0  0  0  0  0  0  0  0  0
   -0.7986    2.3000    4.0604 C   0  0  0  0  0  0  0  0  0  0  0  0
   -1.6748    2.1100    4.6897 H   0  0  0  0  0  0  0  0  0  0  0  0
    0.0724    2.4289    4.7106 H   0  0  0  0  0  0  0  0  0  0  0  0
   -0.9561    3.2338    3.5109 H   0  0  0  0  0  0  0  0  0  0  0  0
  1  2  1  0  0  0  0
  2  3  1  0  0  0  0
  2  4  1  0  0  0  0
  2  5  1  0  0  0  0
  5  6  2  0  0  0  0
  5  7  1  0  0  0  0
  7  8  1  0  0  0  0
  7  9  1  0  0  0  0
  9 10  1  0  0  0  0
  9 11  1  0  0  0  0
  9 29  1  0  0  0  0
 11 12  1  0  0  0  0
 11 13  1  0  0  0  0
 11 14  1  0  0  0  0
 14 15  1  0  0  0  0
 14 16  1  0  0  0  0
 14 17  1  0  0  0  0
 17 18  1  0  0  0  0
 17 19  1  0  0  0  0
 17 20  1  0  0  0  0
 20 21  1  0  0  0  0
 20 22  2  0  0  0  0
 22 23  1  0  0  0  0
 22 26  1  0  0  0  0
 23 24  1  0  0  0  0
 23 25  1  0  0  0  0
 26 27  1  0  0  0  0
 26 28  1  0  0  0  0
 29 30  2  0  0  0  0
 29 31  1  0  0  0  0
 31 32  1  0  0  0  0
 31 33  1  0  0  0  0
 33 34  1  0  0  0  0
 33 35  1  0  0  0  0
 33 36  1  0  0  0  0
M  CHG  1  20   1
M  END
$$$$

  -OEChem-03222214013D

 36 35  0     1  0  0  0  0  0999 V2000
   -4.0359   -4.2316    1.4940 H   0  0  0  0  0  0  0  0  0  0  0  0
   -4.1019   -3.1488    1.3543 C   0  0  0  0  0  0  0  0  0  0  0  0
   -4.7185   -2.7290    2.1525 H   0  0  0  0  0  0  0  0  0  0  0  0
   -4.5762   -2.9472    0.3910 H   0  0  0  0  0  0  0  0  0  0  0  0
   -2.7160   -2.5337    1.3882 C   0  0  0  0  0  0  0  0  0  0  0  0
   -1.7341   -3.2428    1.5357 O   0  0  0  0  0  0  0  0  0  0  0  0
   -2.5582   -1.1686    1.2451 N   0  0  0  0  0  0  0  0  0  0  0  0
   -3.4045   -0.6029    1.2039 H   0  0  0  0  0  0  0  0  0  0  0  0
   -1.2678   -0.4700    1.3641 C   0  0  1  0  0  0  0  0  0  0  0  0
   -0.5783   -1.0942    1.9436 H   0  0  0  0  0  0  0  0  0  0  0  0
   -0.6518   -0.3658   -0.0764 C   0  0  0  0  0  0  0  0  0  0  0  0
    0.0806   -1.1755   -0.1684 H   0  0  0  0  0  0  0  0  0  0  0  0
   -1.4563   -0.6154   -0.7776 H   0  0  0  0  0  0  0  0  0  0  0  0
   -0.0026    0.9189   -0.6700 C   0  0  0  0  0  0  0  0  0  0  0  0
    1.0825    0.7704   -0.6876 H   0  0  0  0  0  0  0  0  0  0  0  0
   -0.3317    1.0113   -1.7110 H   0  0  0  0  0  0  0  0  0  0  0  0
   -0.2765    2.2298    0.0506 C   0  0  0  0  0  0  0  0  0  0  0  0
   -1.3577    2.2982    0.1952 H   0  0  0  0  0  0  0  0  0  0  0  0
    0.2129    2.2174    1.0303 H   0  0  0  0  0  0  0  0  0  0  0  0
    0.1617    3.4135   -0.7046 N   0  3  0  0  0  0  0  0  0  0  0  0
    0.9991    3.3306   -1.2794 H   0  0  0  0  0  0  0  0  0  0  0  0
   -0.4418    4.5620   -0.5850 C   0  0  0  0  0  0  0  0  0  0  0  0
   -1.5467    4.7147    0.2265 N   0  0  0  0  0  0  0  0  0  0  0  0
   -1.8272    3.9307    0.8196 H   0  0  0  0  0  0  0  0  0  0  0  0
   -1.8522    5.6503    0.4845 H   0  0  0  0  0  0  0  0  0  0  0  0
    0.0270    5.6553   -1.2736 N   0  0  0  0  0  0  0  0  0  0  0  0
    0.7152    5.5103   -2.0096 H   0  0  0  0  0  0  0  0  0  0  0  0
   -0.5687    6.4792   -1.3331 H   0  0  0  0  0  0  0  0  0  0  0  0
   -1.4564    0.7947    2.2311 C   0  0  0  0  0  0  0  0  0  0  0  0
   -2.3782    1.5786    2.0148 O   0  0  0  0  0  0  0  0  0  0  0  0
   -0.5397    1.0961    3.2224 N   0  0  0  0  0  0  0  0  0  0  0  0
    0.1258    0.3635    3.4635 H   0  0  0  0  0  0  0  0  0  0  0  0
   -0.7288    2.1849    4.1762 C   0  0  0  0  0  0  0  0  0  0  0  0
   -1.6175    2.0056    4.7911 H   0  0  0  0  0  0  0  0  0  0  0  0
    0.1396    2.2625    4.8383 H   0  0  0  0  0  0  0  0  0  0  0  0
   -0.8484    3.1406    3.6558 H   0  0  0  0  0  0  0  0  0  0  0  0
  1  2  1  0  0  0  0
  2  3  1  0  0  0  0
  2  4  1  0  0  0  0
  2  5  1  0  0  0  0
  5  6  2  0  0  0  0
  5  7  1  0  0  0  0
  7  8  1  0  0  0  0
  7  9  1  0  0  0  0
  9 10  1  0  0  0  0
  9 11  1  0  0  0  0
  9 29  1  0  0  0  0
 11 12  1  0  0  0  0
 11 13  1  0  0  0  0
 11 14  1  0  0  0  0
 14 15  1  0  0  0  0
 14 16  1  0  0  0  0
 14 17  1  0  0  0  0
 17 18  1  0  0  0  0
 17 19  1  0  0  0  0
 17 20  1  0  0  0  0
 20 21  1  0  0  0  0
 20 22  2  0  0  0  0
 22 23  1  0  0  0  0
 22 26  1  0  0  0  0
 23 24  1  0  0  0  0
 23 25  1  0  0  0  0
 26 27  1  0  0  0  0
 26 28  1  0  0  0  0
 29 30  2  0  0  0  0
 29 31  1  0  0  0  0
 31 32  1  0  0  0  0
 31 33  1  0  0  0  0
 33 34  1  0  0  0  0
 33 35  1  0  0  0  0
 33 36  1  0  0  0  0
M  CHG  1  20   1
M  END
$$$$

  -OEChem-03222214013D

 36 35  0     1  0  0  0  0  0999 V2000
   -4.1595   -3.9154    1.5713 H   0  0  0  0  0  0  0  0  0  0  0  0
   -4.1140   -2.8227    1.6006 C   0  0  0  0  0  0  0  0  0  0  0  0
   -4.5555   -2.4770    2.5383 H   0  0  0  0  0  0  0  0  0  0  0  0
   -4.6929   -2.4257    0.7636 H   0  0  0  0  0  0  0  0  0  0  0  0
   -2.6732   -2.3593    1.5036 C   0  0  0  0  0  0  0  0  0  0  0  0
   -1.7646   -3.1725    1.5323 O   0  0  0  0  0  0  0  0  0  0  0  0
   -2.3807   -1.0140    1.3876 N   0  0  0  0  0  0  0  0  0  0  0  0
   -3.1584   -0.3593    1.4533 H   0  0  0  0  0  0  0  0  0  0  0  0
   -1.0122   -0.4685    1.4032 C   0  0  1  0  0  0  0  0  0  0  0  0
   -0.3139   -1.1823    1.8548 H   0  0  0  0  0  0  0  0  0  0  0  0
   -0.5946   -0.2617   -0.0908 C   0  0  0  0  0  0  0  0  0  0  0  0
    0.0360   -1.1224   -0.3397 H   0  0  0  0  0  0  0  0  0  0  0  0
   -1.4987   -0.3798   -0.6992 H   0  0  0  0  0  0  0  0  0  0  0  0
    0.1203    0.9962   -0.6794 C   0  0  0  0  0  0  0  0  0  0  0  0
    1.0358    0.6557   -1.1755 H   0  0  0  0  0  0  0  0  0  0  0  0
   -0.5389    1.3617   -1.4751 H   0  0  0  0  0  0  0  0  0  0  0  0
    0.5039    2.2051    0.1914 C   0  0  0  0  0  0  0  0  0  0  0  0
   -0.1086    2.2900    1.0777 H   0  0  0  0  0  0  0  0  0  0  0  0
    1.5384    2.0841    0.5314 H   0  0  0  0  0  0  0  0  0  0  0  0
    0.3583    3.4579   -0.5712 N   0  3  0  0  0  0  0  0  0  0  0  0
    1.0544    3.6511   -1.2898 H   0  0  0  0  0  0  0  0  0  0  0  0
   -0.6196    4.2988   -0.3772 C   0  0  0  0  0  0  0  0  0  0  0  0
   -1.6029    4.0893    0.5664 N   0  0  0  0  0  0  0  0  0  0  0  0
   -2.4557    4.6413    0.5263 H   0  0  0  0  0  0  0  0  0  0  0  0
   -1.6442    3.1838    1.0476 H   0  0  0  0  0  0  0  0  0  0  0  0
   -0.6853    5.4403   -1.1402 N   0  0  0  0  0  0  0  0  0  0  0  0
    0.1222    5.7001   -1.7031 H   0  0  0  0  0  0  0  0  0  0  0  0
   -1.3222    6.1795   -0.8489 H   0  0  0  0  0  0  0  0  0  0  0  0
   -1.0465    0.7569    2.3325 C   0  0  0  0  0  0  0  0  0  0  0  0
   -1.8846    1.6408    2.1501 O   0  0  0  0  0  0  0  0  0  0  0  0
   -0.0533    0.9514    3.2742 N   0  0  0  0  0  0  0  0  0  0  0  0
    0.5588    0.1594    3.4640 H   0  0  0  0  0  0  0  0  0  0  0  0
   -0.0720    2.0471    4.2382 C   0  0  0  0  0  0  0  0  0  0  0  0
   -0.0520    3.0142    3.7254 H   0  0  0  0  0  0  0  0  0  0  0  0
   -0.9725    1.9960    4.8599 H   0  0  0  0  0  0  0  0  0  0  0  0
    0.8027    1.9887    4.8938 H   0  0  0  0  0  0  0  0  0  0  0  0
  1  2  1  0  0  0  0
  2  3  1  0  0  0  0
  2  4  1  0  0  0  0
  2  5  1  0  0  0  0
  5  6  2  0  0  0  0
  5  7  1  0  0  0  0
  7  8  1  0  0  0  0
  7  9  1  0  0  0  0
  9 10  1  0  0  0  0
  9 11  1  0  0  0  0
  9 29  1  0  0  0  0
 11 12  1  0  0  0  0
 11 13  1  0  0  0  0
 11 14  1  0  0  0  0
 14 15  1  0  0  0  0
 14 16  1  0  0  0  0
 14 17  1  0  0  0  0
 17 18  1  0  0  0  0
 17 19  1  0  0  0  0
 17 20  1  0  0  0  0
 20 21  1  0  0  0  0
 20 22  2  0  0  0  0
 22 23  1  0  0  0  0
 22 26  1  0  0  0  0
 23 24  1  0  0  0  0
 23 25  1  0  0  0  0
 26 27  1  0  0  0  0
 26 28  1  0  0  0  0
 29 30  2  0  0  0  0
 29 31  1  0  0  0  0
 31 32  1  0  0  0  0
 31 33  1  0  0  0  0
 33 34  1  0  0  0  0
 33 35  1  0  0  0  0
 33 36  1  0  0  0  0
M  CHG  1  20   1
M  END
$$$$

  -OEChem-03222214013D

 36 35  0     1  0  0  0  0  0999 V2000
   -4.5280   -3.6917    0.7738 H   0  0  0  0  0  0  0  0  0  0  0  0
   -4.3901   -2.6087    0.7067 C   0  0  0  0  0  0  0  0  0  0  0  0
   -5.1094   -2.1213    1.3690 H   0  0  0  0  0  0  0  0  0  0  0  0
   -4.5792   -2.2946   -0.3224 H   0  0  0  0  0  0  0  0  0  0  0  0
   -2.9767   -2.2382    1.1125 C   0  0  0  0  0  0  0  0  0  0  0  0
   -2.2087   -3.0976    1.5118 O   0  0  0  0  0  0  0  0  0  0  0  0
   -2.5500   -0.9264    1.0342 N   0  0  0  0  0  0  0  0  0  0  0  0
   -3.2322   -0.2262    0.7484 H   0  0  0  0  0  0  0  0  0  0  0  0
   -1.2175   -0.4694    1.4634 C   0  0  1  0  0  0  0  0  0  0  0  0
   -0.7499   -1.1961    2.1374 H   0  0  0  0  0  0  0  0  0  0  0  0
   -0.3587   -0.3835    0.1584 C   0  0  0  0  0  0  0  0  0  0  0  0
    0.2679   -1.2822    0.1727 H   0  0  0  0  0  0  0  0  0  0  0  0
   -1.0252   -0.5057   -0.7035 H   0  0  0  0  0  0  0  0  0  0  0  0
    0.5860    0.7987   -0.2107 C   0  0  0  0  0  0  0  0  0  0  0  0
    1.4892    0.3837   -0.6712 H   0  0  0  0  0  0  0  0  0  0  0  0
    0.0622    1.3525   -0.9976 H   0  0  0  0  0  0  0  0  0  0  0  0
    1.0179    1.8283    0.8457 C   0  0  0  0  0  0  0  0  0  0  0  0
    0.2227    2.0707    1.5404 H   0  0  0  0  0  0  0  0  0  0  0  0
    1.8439    1.4126    1.4334 H   0  0  0  0  0  0  0  0  0  0  0  0
    1.4278    3.0871    0.1989 N   0  3  0  0  0  0  0  0  0  0  0  0
    2.4151    3.1961   -0.0297 H   0  0  0  0  0  0  0  0  0  0  0  0
    0.6015    4.0740   -0.0135 C   0  0  0  0  0  0  0  0  0  0  0  0
   -0.7408    3.9923    0.2932 N   0  0  0  0  0  0  0  0  0  0  0  0
   -1.0886    3.1722    0.8031 H   0  0  0  0  0  0  0  0  0  0  0  0
   -1.3007    4.8406    0.3206 H   0  0  0  0  0  0  0  0  0  0  0  0
    1.0737    5.2392   -0.5693 N   0  0  0  0  0  0  0  0  0  0  0  0
    2.0113    5.2495   -0.9655 H   0  0  0  0  0  0  0  0  0  0  0  0
    0.3993    5.9184   -0.9166 H   0  0  0  0  0  0  0  0  0  0  0  0
   -1.4289    0.8205    2.2763 C   0  0  0  0  0  0  0  0  0  0  0  0
   -1.9949    1.7860    1.7641 O   0  0  0  0  0  0  0  0  0  0  0  0
   -0.7607    0.9989    3.4743 N   0  0  0  0  0  0  0  0  0  0  0  0
   -0.3709    0.1618    3.9052 H   0  0  0  0  0  0  0  0  0  0  0  0
   -0.9272    2.1817    4.3136 C   0  0  0  0  0  0  0  0  0  0  0  0
   -0.3218    2.0890    5.2211 H   0  0  0  0  0  0  0  0  0  0  0  0
   -0.6090    3.0836    3.7807 H   0  0  0  0  0  0  0  0  0  0  0  0
   -1.9753    2.2983    4.6097 H   0  0  0  0  0  0  0  0  0  0  0  0
  1  2  1  0  0  0  0
  2  3  1  0  0  0  0
  2  4  1  0  0  0  0
  2  5  1  0  0  0  0
  5  6  2  0  0  0  0
  5  7  1  0  0  0  0
  7  8  1  0  0  0  0
  7  9  1  0  0  0  0
  9 10  1  0  0  0  0
  9 11  1  0  0  0  0
  9 29  1  0  0  0  0
 11 12  1  0  0  0  0
 11 13  1  0  0  0  0
 11 14  1  0  0  0  0
 14 15  1  0  0  0  0
 14 16  1  0  0  0  0
 14 17  1  0  0  0  0
 17 18  1  0  0  0  0
 17 19  1  0  0  0  0
 17 20  1  0  0  0  0
 20 21  1  0  0  0  0
 20 22  2  0  0  0  0
 22 23  1  0  0  0  0
 22 26  1  0  0  0  0
 23 24  1  0  0  0  0
 23 25  1  0  0  0  0
 26 27  1  0  0  0  0
 26 28  1  0  0  0  0
 29 30  2  0  0  0  0
 29 31  1  0  0  0  0
 31 32  1  0  0  0  0
 31 33  1  0  0  0  0
 33 34  1  0  0  0  0
 33 35  1  0  0  0  0
 33 36  1  0  0  0  0
M  CHG  1  20   1
M  END
$$$$

  -OEChem-03222214013D

 36 35  0     1  0  0  0  0  0999 V2000
   -4.5651   -3.6818    1.0613 H   0  0  0  0  0  0  0  0  0  0  0  0
   -4.4121   -2.6052    0.9436 C   0  0  0  0  0  0  0  0  0  0  0  0
   -5.0860   -2.0783    1.6233 H   0  0  0  0  0  0  0  0  0  0  0  0
   -4.6516   -2.3278   -0.0856 H   0  0  0  0  0  0  0  0  0  0  0  0
   -2.9723   -2.2470    1.2573 C   0  0  0  0  0  0  0  0  0  0  0  0
   -2.1958   -3.1059    1.6413 O   0  0  0  0  0  0  0  0  0  0  0  0
   -2.5316   -0.9457    1.1117 N   0  0  0  0  0  0  0  0  0  0  0  0
   -3.2169   -0.2461    0.8323 H   0  0  0  0  0  0  0  0  0  0  0  0
   -1.1656   -0.4984    1.4304 C   0  0  1  0  0  0  0  0  0  0  0  0
   -0.6530   -1.2192    2.0772 H   0  0  0  0  0  0  0  0  0  0  0  0
   -0.4292   -0.4529    0.0517 C   0  0  0  0  0  0  0  0  0  0  0  0
    0.1948   -1.3532    0.0281 H   0  0  0  0  0  0  0  0  0  0  0  0
   -1.1634   -0.5781   -0.7530 H   0  0  0  0  0  0  0  0  0  0  0  0
    0.4790    0.7253   -0.3879 C   0  0  0  0  0  0  0  0  0  0  0  0
    1.1909    0.3511   -1.1316 H   0  0  0  0  0  0  0  0  0  0  0  0
   -0.1804    1.4302   -0.9058 H   0  0  0  0  0  0  0  0  0  0  0  0
    1.2496    1.5254    0.6711 C   0  0  0  0  0  0  0  0  0  0  0  0
    0.6312    1.7769    1.5270 H   0  0  0  0  0  0  0  0  0  0  0  0
    2.0876    0.9234    1.0399 H   0  0  0  0  0  0  0  0  0  0  0  0
    1.7409    2.7822    0.0783 N   0  3  0  0  0  0  0  0  0  0  0  0
    2.6361    2.7484   -0.4077 H   0  0  0  0  0  0  0  0  0  0  0  0
    1.0843    3.9074    0.1396 C   0  0  0  0  0  0  0  0  0  0  0  0
   -0.1433    4.0175    0.7565 N   0  0  0  0  0  0  0  0  0  0  0  0
   -0.6324    3.1584    1.0317 H   0  0  0  0  0  0  0  0  0  0  0  0
   -0.7153    4.8360    0.5653 H   0  0  0  0  0  0  0  0  0  0  0  0
    1.6254    5.0325   -0.4350 N   0  0  0  0  0  0  0  0  0  0  0  0
    2.5989    5.0111   -0.7317 H   0  0  0  0  0  0  0  0  0  0  0  0
    1.2150    5.9363   -0.2079 H   0  0  0  0  0  0  0  0  0  0  0  0
   -1.2761    0.8193    2.2212 C   0  0  0  0  0  0  0  0  0  0  0  0
   -1.7922    1.8072    1.7031 O   0  0  0  0  0  0  0  0  0  0  0  0
   -0.5084    1.0042    3.3579 N   0  0  0  0  0  0  0  0  0  0  0  0
   -0.1447    0.1592    3.7961 H   0  0  0  0  0  0  0  0  0  0  0  0
   -0.5721    2.2140    4.1727 C   0  0  0  0  0  0  0  0  0  0  0  0
   -1.5995    2.4009    4.5042 H   0  0  0  0  0  0  0  0  0  0  0  0
    0.0602    2.1054    5.0599 H   0  0  0  0  0  0  0  0  0  0  0  0
   -0.2211    3.0824    3.6066 H   0  0  0  0  0  0  0  0  0  0  0  0
  1  2  1  0  0  0  0
  2  3  1  0  0  0  0
  2  4  1  0  0  0  0
  2  5  1  0  0  0  0
  5  6  2  0  0  0  0
  5  7  1  0  0  0  0
  7  8  1  0  0  0  0
  7  9  1  0  0  0  0
  9 10  1  0  0  0  0
  9 11  1  0  0  0  0
  9 29  1  0  0  0  0
 11 12  1  0  0  0  0
 11 13  1  0  0  0  0
 11 14  1  0  0  0  0
 14 15  1  0  0  0  0
 14 16  1  0  0  0  0
 14 17  1  0  0  0  0
 17 18  1  0  0  0  0
 17 19  1  0  0  0  0
 17 20  1  0  0  0  0
 20 21  1  0  0  0  0
 20 22  2  0  0  0  0
 22 23  1  0  0  0  0
 22 26  1  0  0  0  0
 23 24  1  0  0  0  0
 23 25  1  0  0  0  0
 26 27  1  0  0  0  0
 26 28  1  0  0  0  0
 29 30  2  0  0  0  0
 29 31  1  0  0  0  0
 31 32  1  0  0  0  0
 31 33  1  0  0  0  0
 33 34  1  0  0  0  0
 33 35  1  0  0  0  0
 33 36  1  0  0  0  0
M  CHG  1  20   1
M  END
$$$$

  -OEChem-03222214013D

 36 35  0     1  0  0  0  0  0999 V2000
   -4.5963   -3.6142    1.1889 H   0  0  0  0  0  0  0  0  0  0  0  0
   -4.4235   -2.5461    1.0291 C   0  0  0  0  0  0  0  0  0  0  0  0
   -5.0660   -1.9809    1.7083 H   0  0  0  0  0  0  0  0  0  0  0  0
   -4.6863   -2.2986   -0.0021 H   0  0  0  0  0  0  0  0  0  0  0  0
   -2.9680   -2.2096    1.2904 C   0  0  0  0  0  0  0  0  0  0  0  0
   -2.1960   -3.0741    1.6714 O   0  0  0  0  0  0  0  0  0  0  0  0
   -2.5086   -0.9197    1.1051 N   0  0  0  0  0  0  0  0  0  0  0  0
   -3.1877   -0.2158    0.8210 H   0  0  0  0  0  0  0  0  0  0  0  0
   -1.1243   -0.4930    1.3675 C   0  0  1  0  0  0  0  0  0  0  0  0
   -0.6034   -1.2173    2.0037 H   0  0  0  0  0  0  0  0  0  0  0  0
   -0.4451   -0.4914   -0.0404 C   0  0  0  0  0  0  0  0  0  0  0  0
    0.1613   -1.4023   -0.0891 H   0  0  0  0  0  0  0  0  0  0  0  0
   -1.2124   -0.5968   -0.8163 H   0  0  0  0  0  0  0  0  0  0  0  0
    0.4519    0.6825   -0.4900 C   0  0  0  0  0  0  0  0  0  0  0  0
    0.9775    0.3824   -1.4032 H   0  0  0  0  0  0  0  0  0  0  0  0
   -0.2167    1.5059   -0.7625 H   0  0  0  0  0  0  0  0  0  0  0  0
    1.4798    1.2044    0.5192 C   0  0  0  0  0  0  0  0  0  0  0  0
    1.0266    1.4073    1.4864 H   0  0  0  0  0  0  0  0  0  0  0  0
    2.2512    0.4420    0.6748 H   0  0  0  0  0  0  0  0  0  0  0  0
    2.0881    2.4476    0.0108 N   0  3  0  0  0  0  0  0  0  0  0  0
    2.9699    2.3578   -0.4925 H   0  0  0  0  0  0  0  0  0  0  0  0
    1.5627    3.6305    0.1720 C   0  0  0  0  0  0  0  0  0  0  0  0
    0.3605    3.8314    0.8148 N   0  0  0  0  0  0  0  0  0  0  0  0
   -0.2225    3.0152    1.0300 H   0  0  0  0  0  0  0  0  0  0  0  0
   -0.1186    4.7189    0.6853 H   0  0  0  0  0  0  0  0  0  0  0  0
    2.2228    4.7296   -0.3228 N   0  0  0  0  0  0  0  0  0  0  0  0
    3.1871    4.6236   -0.6315 H   0  0  0  0  0  0  0  0  0  0  0  0
    1.9171    5.6525   -0.0200 H   0  0  0  0  0  0  0  0  0  0  0  0
   -1.1480    0.8433    2.1389 C   0  0  0  0  0  0  0  0  0  0  0  0
   -1.6272    1.8489    1.6223 O   0  0  0  0  0  0  0  0  0  0  0  0
   -0.3213    1.0145    3.2366 N   0  0  0  0  0  0  0  0  0  0  0  0
    0.0125    0.1574    3.6757 H   0  0  0  0  0  0  0  0  0  0  0  0
   -0.3349    2.2221    4.0578 C   0  0  0  0  0  0  0  0  0  0  0  0
   -1.3538    2.4496    4.3904 H   0  0  0  0  0  0  0  0  0  0  0  0
    0.2913    2.0818    4.9447 H   0  0  0  0  0  0  0  0  0  0  0  0
    0.0527    3.0785    3.4986 H   0  0  0  0  0  0  0  0  0  0  0  0
  1  2  1  0  0  0  0
  2  3  1  0  0  0  0
  2  4  1  0  0  0  0
  2  5  1  0  0  0  0
  5  6  2  0  0  0  0
  5  7  1  0  0  0  0
  7  8  1  0  0  0  0
  7  9  1  0  0  0  0
  9 10  1  0  0  0  0
  9 11  1  0  0  0  0
  9 29  1  0  0  0  0
 11 12  1  0  0  0  0
 11 13  1  0  0  0  0
 11 14  1  0  0  0  0
 14 15  1  0  0  0  0
 14 16  1  0  0  0  0
 14 17  1  0  0  0  0
 17 18  1  0  0  0  0
 17 19  1  0  0  0  0
 17 20  1  0  0  0  0
 20 21  1  0  0  0  0
 20 22  2  0  0  0  0
 22 23  1  0  0  0  0
 22 26  1  0  0  0  0
 23 24  1  0  0  0  0
 23 25  1  0  0  0  0
 26 27  1  0  0  0  0
 26 28  1  0  0  0  0
 29 30  2  0  0  0  0
 29 31  1  0  0  0  0
 31 32  1  0  0  0  0
 31 33  1  0  0  0  0
 33 34  1  0  0  0  0
 33 35  1  0  0  0  0
 33 36  1  0  0  0  0
M  CHG  1  20   1
M  END
$$$$

  -OEChem-03222214013D

 36 35  0     1  0  0  0  0  0999 V2000
   -4.1589   -4.0382    1.8837 H   0  0  0  0  0  0  0  0  0  0  0  0
   -4.1409   -3.0255    1.4711 C   0  0  0  0  0  0  0  0  0  0  0  0
   -4.8383   -2.4031    2.0368 H   0  0  0  0  0  0  0  0  0  0  0  0
   -4.4616   -3.0650    0.4274 H   0  0  0  0  0  0  0  0  0  0  0  0
   -2.7408   -2.4508    1.5625 C   0  0  0  0  0  0  0  0  0  0  0  0
   -1.8332   -3.1140    2.0389 O   0  0  0  0  0  0  0  0  0  0  0  0
   -2.4874   -1.1665    1.1236 N   0  0  0  0  0  0  0  0  0  0  0  0
   -3.2788   -0.6146    0.7944 H   0  0  0  0  0  0  0  0  0  0  0  0
   -1.1850   -0.4961    1.2475 C   0  0  1  0  0  0  0  0  0  0  0  0
   -0.5518   -0.9991    1.9861 H   0  0  0  0  0  0  0  0  0  0  0  0
   -0.5109   -0.6126   -0.1536 C   0  0  0  0  0  0  0  0  0  0  0  0
    0.2254   -1.4217   -0.1024 H   0  0  0  0  0  0  0  0  0  0  0  0
   -1.2631   -0.9245   -0.8873 H   0  0  0  0  0  0  0  0  0  0  0  0
    0.1711    0.6357   -0.7437 C   0  0  0  0  0  0  0  0  0  0  0  0
    0.5632    0.3851   -1.7355 H   0  0  0  0  0  0  0  0  0  0  0  0
   -0.5863    1.4154   -0.8828 H   0  0  0  0  0  0  0  0  0  0  0  0
    1.3118    1.1719    0.1220 C   0  0  0  0  0  0  0  0  0  0  0  0
    0.9840    1.2643    1.1586 H   0  0  0  0  0  0  0  0  0  0  0  0
    2.1494    0.4665    0.0876 H   0  0  0  0  0  0  0  0  0  0  0  0
    1.7274    2.4908   -0.3878 N   0  3  0  0  0  0  0  0  0  0  0  0
    1.3546    2.7741   -1.2934 H   0  0  0  0  0  0  0  0  0  0  0  0
    2.4889    3.3136    0.2721 C   0  0  0  0  0  0  0  0  0  0  0  0
    3.0260    2.9811    1.4948 N   0  0  0  0  0  0  0  0  0  0  0  0
    2.9626    2.0079    1.7853 H   0  0  0  0  0  0  0  0  0  0  0  0
    3.8063    3.5327    1.8459 H   0  0  0  0  0  0  0  0  0  0  0  0
    2.7745    4.5474   -0.2609 N   0  0  0  0  0  0  0  0  0  0  0  0
    2.2377    4.8663   -1.0655 H   0  0  0  0  0  0  0  0  0  0  0  0
    3.1845    5.2538    0.3470 H   0  0  0  0  0  0  0  0  0  0  0  0
   -1.4293    0.9411    1.7588 C   0  0  0  0  0  0  0  0  0  0  0  0
   -2.2193    1.6749    1.1780 O   0  0  0  0  0  0  0  0  0  0  0  0
   -0.6455    1.4649    2.7740 N   0  0  0  0  0  0  0  0  0  0  0  0
   -0.1710    0.7801    3.3587 H   0  0  0  0  0  0  0  0  0  0  0  0
   -0.9186    2.7753    3.3581 C   0  0  0  0  0  0  0  0  0  0  0  0
   -1.9204    2.7956    3.8015 H   0  0  0  0  0  0  0  0  0  0  0  0
   -0.1894    3.0015    4.1421 H   0  0  0  0  0  0  0  0  0  0  0  0
   -0.8580    3.5591    2.5955 H   0  0  0  0  0  0  0  0  0  0  0  0
  1  2  1  0  0  0  0
  2  3  1  0  0  0  0
  2  4  1  0  0  0  0
  2  5  1  0  0  0  0
  5  6  2  0  0  0  0
  5  7  1  0  0  0  0
  7  8  1  0  0  0  0
  7  9  1  0  0  0  0
  9 10  1  0  0  0  0
  9 11  1  0  0  0  0
  9 29  1  0  0  0  0
 11 12  1  0  0  0  0
 11 13  1  0  0  0  0
 11 14  1  0  0  0  0
 14 15  1  0  0  0  0
 14 16  1  0  0  0  0
 14 17  1  0  0  0  0
 17 18  1  0  0  0  0
 17 19  1  0  0  0  0
 17 20  1  0  0  0  0
 20 21  1  0  0  0  0
 20 22  2  0  0  0  0
 22 23  1  0  0  0  0
 22 26  1  0  0  0  0
 23 24  1  0  0  0  0
 23 25  1  0  0  0  0
 26 27  1  0  0  0  0
 26 28  1  0  0  0  0
 29 30  2  0  0  0  0
 29 31  1  0  0  0  0
 31 32  1  0  0  0  0
 31 33  1  0  0  0  0
 33 34  1  0  0  0  0
 33 35  1  0  0  0  0
 33 36  1  0  0  0  0
M  CHG  1  20   1
M  END
$$$$

  -OEChem-03222214013D

 36 35  0     1  0  0  0  0  0999 V2000
   -3.9530   -4.2124    1.7959 H   0  0  0  0  0  0  0  0  0  0  0  0
   -4.0187   -3.1762    1.4519 C   0  0  0  0  0  0  0  0  0  0  0  0
   -4.7407   -2.6437    2.0757 H   0  0  0  0  0  0  0  0  0  0  0  0
   -4.3673   -3.1714    0.4165 H   0  0  0  0  0  0  0  0  0  0  0  0
   -2.6607   -2.5079    1.5456 C   0  0  0  0  0  0  0  0  0  0  0  0
   -1.7124   -3.1060    2.0292 O   0  0  0  0  0  0  0  0  0  0  0  0
   -2.4909   -1.2144    1.0932 N   0  0  0  0  0  0  0  0  0  0  0  0
   -3.3197   -0.7167    0.7690 H   0  0  0  0  0  0  0  0  0  0  0  0
   -1.2511   -0.4416    1.2557 C   0  0  1  0  0  0  0  0  0  0  0  0
   -0.6331   -0.8838    2.0443 H   0  0  0  0  0  0  0  0  0  0  0  0
   -0.4607   -0.5378   -0.0808 C   0  0  0  0  0  0  0  0  0  0  0  0
    0.3262   -1.2914    0.0309 H   0  0  0  0  0  0  0  0  0  0  0  0
   -1.1394   -0.9110   -0.8565 H   0  0  0  0  0  0  0  0  0  0  0  0
    0.1463    0.7655   -0.6314 C   0  0  0  0  0  0  0  0  0  0  0  0
    0.4432    0.5901   -1.6713 H   0  0  0  0  0  0  0  0  0  0  0  0
   -0.6002    1.5661   -0.6484 H   0  0  0  0  0  0  0  0  0  0  0  0
    1.3849    1.1820    0.1598 C   0  0  0  0  0  0  0  0  0  0  0  0
    1.1265    1.2833    1.2190 H   0  0  0  0  0  0  0  0  0  0  0  0
    2.1490    0.4038    0.0630 H   0  0  0  0  0  0  0  0  0  0  0  0
    1.8796    2.4701   -0.3591 N   0  3  0  0  0  0  0  0  0  0  0  0
    1.2003    3.0648   -0.8333 H   0  0  0  0  0  0  0  0  0  0  0  0
    3.1006    2.8951   -0.2096 C   0  0  0  0  0  0  0  0  0  0  0  0
    4.0576    2.1458    0.4366 N   0  0  0  0  0  0  0  0  0  0  0  0
    3.8390    1.1745    0.6485 H   0  0  0  0  0  0  0  0  0  0  0  0
    5.0364    2.4037    0.3277 H   0  0  0  0  0  0  0  0  0  0  0  0
    3.4540    4.1262   -0.7085 N   0  0  0  0  0  0  0  0  0  0  0  0
    2.7217    4.7510   -1.0408 H   0  0  0  0  0  0  0  0  0  0  0  0
    4.3374    4.5381   -0.4135 H   0  0  0  0  0  0  0  0  0  0  0  0
   -1.5914    0.9872    1.7297 C   0  0  0  0  0  0  0  0  0  0  0  0
   -2.4466    1.6411    1.1460 O   0  0  0  0  0  0  0  0  0  0  0  0
   -0.8706    1.5723    2.7563 N   0  0  0  0  0  0  0  0  0  0  0  0
   -0.3277    0.9387    3.3383 H   0  0  0  0  0  0  0  0  0  0  0  0
   -1.2465    2.8626    3.3271 C   0  0  0  0  0  0  0  0  0  0  0  0
   -2.2504    2.8120    3.7627 H   0  0  0  0  0  0  0  0  0  0  0  0
   -0.5422    3.1490    4.1142 H   0  0  0  0  0  0  0  0  0  0  0  0
   -1.2385    3.6423    2.5581 H   0  0  0  0  0  0  0  0  0  0  0  0
  1  2  1  0  0  0  0
  2  3  1  0  0  0  0
  2  4  1  0  0  0  0
  2  5  1  0  0  0  0
  5  6  2  0  0  0  0
  5  7  1  0  0  0  0
  7  8  1  0  0  0  0
  7  9  1  0  0  0  0
  9 10  1  0  0  0  0
  9 11  1  0  0  0  0
  9 29  1  0  0  0  0
 11 12  1  0  0  0  0
 11 13  1  0  0  0  0
 11 14  1  0  0  0  0
 14 15  1  0  0  0  0
 14 16  1  0  0  0  0
 14 17  1  0  0  0  0
 17 18  1  0  0  0  0
 17 19  1  0  0  0  0
 17 20  1  0  0  0  0
 20 21  1  0  0  0  0
 20 22  2  0  0  0  0
 22 23  1  0  0  0  0
 22 26  1  0  0  0  0
 23 24  1  0  0  0  0
 23 25  1  0  0  0  0
 26 27  1  0  0  0  0
 26 28  1  0  0  0  0
 29 30  2  0  0  0  0
 29 31  1  0  0  0  0
 31 32  1  0  0  0  0
 31 33  1  0  0  0  0
 33 34  1  0  0  0  0
 33 35  1  0  0  0  0
 33 36  1  0  0  0  0
M  CHG  1  20   1
M  END
$$$$

  -OEChem-03222214013D

 36 35  0     1  0  0  0  0  0999 V2000
   -3.8977   -4.2193    1.8308 H   0  0  0  0  0  0  0  0  0  0  0  0
   -3.9715   -3.1974    1.4479 C   0  0  0  0  0  0  0  0  0  0  0  0
   -4.7053   -2.6504    2.0446 H   0  0  0  0  0  0  0  0  0  0  0  0
   -4.3105   -3.2344    0.4100 H   0  0  0  0  0  0  0  0  0  0  0  0
   -2.6220   -2.5105    1.5289 C   0  0  0  0  0  0  0  0  0  0  0  0
   -1.6546   -3.1051    1.9780 O   0  0  0  0  0  0  0  0  0  0  0  0
   -2.4792   -1.2082    1.0929 N   0  0  0  0  0  0  0  0  0  0  0  0
   -3.3226   -0.7168    0.7977 H   0  0  0  0  0  0  0  0  0  0  0  0
   -1.2502   -0.4166    1.2513 C   0  0  1  0  0  0  0  0  0  0  0  0
   -0.6248   -0.8587    2.0342 H   0  0  0  0  0  0  0  0  0  0  0  0
   -0.4550   -0.4931   -0.0833 C   0  0  0  0  0  0  0  0  0  0  0  0
    0.3340   -1.2460    0.0176 H   0  0  0  0  0  0  0  0  0  0  0  0
   -1.1369   -0.8657   -0.8562 H   0  0  0  0  0  0  0  0  0  0  0  0
    0.1364    0.8190   -0.6378 C   0  0  0  0  0  0  0  0  0  0  0  0
    0.2057    0.7195   -1.7267 H   0  0  0  0  0  0  0  0  0  0  0  0
   -0.5093    1.6808   -0.4488 H   0  0  0  0  0  0  0  0  0  0  0  0
    1.5451    1.0439   -0.0944 C   0  0  0  0  0  0  0  0  0  0  0  0
    1.5032    1.1215    0.9977 H   0  0  0  0  0  0  0  0  0  0  0  0
    2.1699    0.1841   -0.3578 H   0  0  0  0  0  0  0  0  0  0  0  0
    2.1000    2.2844   -0.6661 N   0  3  0  0  0  0  0  0  0  0  0  0
    1.4299    2.9776   -0.9983 H   0  0  0  0  0  0  0  0  0  0  0  0
    3.3736    2.5415   -0.7481 C   0  0  0  0  0  0  0  0  0  0  0  0
    4.3267    1.6491   -0.3122 N   0  0  0  0  0  0  0  0  0  0  0  0
    4.0242    0.7090   -0.0662 H   0  0  0  0  0  0  0  0  0  0  0  0
    5.2919    1.7803   -0.6081 H   0  0  0  0  0  0  0  0  0  0  0  0
    3.7888    3.7363   -1.2862 N   0  0  0  0  0  0  0  0  0  0  0  0
    3.0990    4.4676   -1.4495 H   0  0  0  0  0  0  0  0  0  0  0  0
    4.7607    4.0147   -1.1633 H   0  0  0  0  0  0  0  0  0  0  0  0
   -1.6001    1.0015    1.7488 C   0  0  0  0  0  0  0  0  0  0  0  0
   -2.4862    1.6422    1.1975 O   0  0  0  0  0  0  0  0  0  0  0  0
   -0.8728    1.5838    2.7721 N   0  0  0  0  0  0  0  0  0  0  0  0
   -0.2869    0.9607    3.3225 H   0  0  0  0  0  0  0  0  0  0  0  0
   -1.2493    2.8653    3.3620 C   0  0  0  0  0  0  0  0  0  0  0  0
   -2.2444    2.8009    3.8152 H   0  0  0  0  0  0  0  0  0  0  0  0
   -0.5336    3.1518    4.1388 H   0  0  0  0  0  0  0  0  0  0  0  0
   -1.2623    3.6521    2.6003 H   0  0  0  0  0  0  0  0  0  0  0  0
  1  2  1  0  0  0  0
  2  3  1  0  0  0  0
  2  4  1  0  0  0  0
  2  5  1  0  0  0  0
  5  6  2  0  0  0  0
  5  7  1  0  0  0  0
  7  8  1  0  0  0  0
  7  9  1  0  0  0  0
  9 10  1  0  0  0  0
  9 11  1  0  0  0  0
  9 29  1  0  0  0  0
 11 12  1  0  0  0  0
 11 13  1  0  0  0  0
 11 14  1  0  0  0  0
 14 15  1  0  0  0  0
 14 16  1  0  0  0  0
 14 17  1  0  0  0  0
 17 18  1  0  0  0  0
 17 19  1  0  0  0  0
 17 20  1  0  0  0  0
 20 21  1  0  0  0  0
 20 22  2  0  0  0  0
 22 23  1  0  0  0  0
 22 26  1  0  0  0  0
 23 24  1  0  0  0  0
 23 25  1  0  0  0  0
 26 27  1  0  0  0  0
 26 28  1  0  0  0  0
 29 30  2  0  0  0  0
 29 31  1  0  0  0  0
 31 32  1  0  0  0  0
 31 33  1  0  0  0  0
 33 34  1  0  0  0  0
 33 35  1  0  0  0  0
 33 36  1  0  0  0  0
M  CHG  1  20   1
M  END
$$$$

  -OEChem-03222214013D

 36 35  0     1  0  0  0  0  0999 V2000
   -3.9146   -4.1921    1.8299 H   0  0  0  0  0  0  0  0  0  0  0  0
   -3.9909   -3.1521    1.5002 C   0  0  0  0  0  0  0  0  0  0  0  0
   -4.6688   -2.6190    2.1711 H   0  0  0  0  0  0  0  0  0  0  0  0
   -4.4014   -3.1334    0.4878 H   0  0  0  0  0  0  0  0  0  0  0  0
   -2.6233   -2.4975    1.5185 C   0  0  0  0  0  0  0  0  0  0  0  0
   -1.6464   -3.1220    1.9018 O   0  0  0  0  0  0  0  0  0  0  0  0
   -2.4753   -1.1903    1.0998 N   0  0  0  0  0  0  0  0  0  0  0  0
   -3.3226   -0.6747    0.8628 H   0  0  0  0  0  0  0  0  0  0  0  0
   -1.2260   -0.4243    1.2205 C   0  0  1  0  0  0  0  0  0  0  0  0
   -0.5736   -0.8884    1.9676 H   0  0  0  0  0  0  0  0  0  0  0  0
   -0.4954   -0.4898   -0.1524 C   0  0  0  0  0  0  0  0  0  0  0  0
    0.2750   -1.2665   -0.0983 H   0  0  0  0  0  0  0  0  0  0  0  0
   -1.2209   -0.8376   -0.8968 H   0  0  0  0  0  0  0  0  0  0  0  0
    0.1046    0.8144   -0.7277 C   0  0  0  0  0  0  0  0  0  0  0  0
   -0.1319    0.8479   -1.7971 H   0  0  0  0  0  0  0  0  0  0  0  0
   -0.3273    1.7165   -0.2890 H   0  0  0  0  0  0  0  0  0  0  0  0
    1.6240    0.8183   -0.5730 C   0  0  0  0  0  0  0  0  0  0  0  0
    1.8773    0.7860    0.4926 H   0  0  0  0  0  0  0  0  0  0  0  0
    2.0353   -0.0748   -1.0564 H   0  0  0  0  0  0  0  0  0  0  0  0
    2.1800    2.0359   -1.1913 N   0  3  0  0  0  0  0  0  0  0  0  0
    1.5124    2.7123   -1.5607 H   0  0  0  0  0  0  0  0  0  0  0  0
    3.4548    2.2796   -1.2911 C   0  0  0  0  0  0  0  0  0  0  0  0
    4.4014    1.3970   -0.8221 N   0  0  0  0  0  0  0  0  0  0  0  0
    4.0904    0.4690   -0.5421 H   0  0  0  0  0  0  0  0  0  0  0  0
    5.3664    1.5071   -1.1270 H   0  0  0  0  0  0  0  0  0  0  0  0
    3.8775    3.4467   -1.8817 N   0  0  0  0  0  0  0  0  0  0  0  0
    3.1931    4.1748   -2.0778 H   0  0  0  0  0  0  0  0  0  0  0  0
    4.8522    3.7222   -1.7755 H   0  0  0  0  0  0  0  0  0  0  0  0
   -1.5464    0.9857    1.7581 C   0  0  0  0  0  0  0  0  0  0  0  0
   -2.4432    1.6440    1.2458 O   0  0  0  0  0  0  0  0  0  0  0  0
   -0.7782    1.5448    2.7640 N   0  0  0  0  0  0  0  0  0  0  0  0
   -0.1644    0.9134    3.2729 H   0  0  0  0  0  0  0  0  0  0  0  0
   -1.1146    2.8227    3.3849 C   0  0  0  0  0  0  0  0  0  0  0  0
   -2.0929    2.7652    3.8744 H   0  0  0  0  0  0  0  0  0  0  0  0
   -0.3660    3.0879    4.1378 H   0  0  0  0  0  0  0  0  0  0  0  0
   -1.1449    3.6204    2.6351 H   0  0  0  0  0  0  0  0  0  0  0  0
  1  2  1  0  0  0  0
  2  3  1  0  0  0  0
  2  4  1  0  0  0  0
  2  5  1  0  0  0  0
  5  6  2  0  0  0  0
  5  7  1  0  0  0  0
  7  8  1  0  0  0  0
  7  9  1  0  0  0  0
  9 10  1  0  0  0  0
  9 11  1  0  0  0  0
  9 29  1  0  0  0  0
 11 12  1  0  0  0  0
 11 13  1  0  0  0  0
 11 14  1  0  0  0  0
 14 15  1  0  0  0  0
 14 16  1  0  0  0  0
 14 17  1  0  0  0  0
 17 18  1  0  0  0  0
 17 19  1  0  0  0  0
 17 20  1  0  0  0  0
 20 21  1  0  0  0  0
 20 22  2  0  0  0  0
 22 23  1  0  0  0  0
 22 26  1  0  0  0  0
 23 24  1  0  0  0  0
 23 25  1  0  0  0  0
 26 27  1  0  0  0  0
 26 28  1  0  0  0  0
 29 30  2  0  0  0  0
 29 31  1  0  0  0  0
 31 32  1  0  0  0  0
 31 33  1  0  0  0  0
 33 34  1  0  0  0  0
 33 35  1  0  0  0  0
 33 36  1  0  0  0  0
M  CHG  1  20   1
M  END
$$$$

  -OEChem-03222214013D

 36 35  0     1  0  0  0  0  0999 V2000
   -3.9349   -4.1305    1.9908 H   0  0  0  0  0  0  0  0  0  0  0  0
   -3.9946   -3.1204    1.5760 C   0  0  0  0  0  0  0  0  0  0  0  0
   -4.6636   -2.5238    2.2007 H   0  0  0  0  0  0  0  0  0  0  0  0
   -4.4056   -3.1782    0.5655 H   0  0  0  0  0  0  0  0  0  0  0  0
   -2.6163   -2.4887    1.5394 C   0  0  0  0  0  0  0  0  0  0  0  0
   -1.6356   -3.1295    1.8844 O   0  0  0  0  0  0  0  0  0  0  0  0
   -2.4624   -1.1846    1.1135 N   0  0  0  0  0  0  0  0  0  0  0  0
   -3.3091   -0.6529    0.9124 H   0  0  0  0  0  0  0  0  0  0  0  0
   -1.1959   -0.4410    1.1834 C   0  0  1  0  0  0  0  0  0  0  0  0
   -0.5138   -0.9145    1.8978 H   0  0  0  0  0  0  0  0  0  0  0  0
   -0.5408   -0.5063   -0.2280 C   0  0  0  0  0  0  0  0  0  0  0  0
    0.2257   -1.2883   -0.1970 H   0  0  0  0  0  0  0  0  0  0  0  0
   -1.2951   -0.8541   -0.9432 H   0  0  0  0  0  0  0  0  0  0  0  0
    0.0552    0.7923   -0.8264 C   0  0  0  0  0  0  0  0  0  0  0  0
   -0.4664    1.0158   -1.7637 H   0  0  0  0  0  0  0  0  0  0  0  0
   -0.0778    1.6587   -0.1756 H   0  0  0  0  0  0  0  0  0  0  0  0
    1.5475    0.6143   -1.1000 C   0  0  0  0  0  0  0  0  0  0  0  0
    2.0555    0.3661   -0.1617 H   0  0  0  0  0  0  0  0  0  0  0  0
    1.6882   -0.2148   -1.8027 H   0  0  0  0  0  0  0  0  0  0  0  0
    2.1007    1.8587   -1.6644 N   0  3  0  0  0  0  0  0  0  0  0  0
    1.4327    2.5762   -1.9447 H   0  0  0  0  0  0  0  0  0  0  0  0
    3.3738    2.0743   -1.8277 C   0  0  0  0  0  0  0  0  0  0  0  0
    4.3183    1.1281   -1.5005 N   0  0  0  0  0  0  0  0  0  0  0  0
    3.9930    0.1862   -1.2923 H   0  0  0  0  0  0  0  0  0  0  0  0
    5.2632    1.2376   -1.8635 H   0  0  0  0  0  0  0  0  0  0  0  0
    3.7966    3.2765   -2.3419 N   0  0  0  0  0  0  0  0  0  0  0  0
    3.1261    4.0393   -2.4162 H   0  0  0  0  0  0  0  0  0  0  0  0
    4.7839    3.5153   -2.2686 H   0  0  0  0  0  0  0  0  0  0  0  0
   -1.4888    0.9704    1.7334 C   0  0  0  0  0  0  0  0  0  0  0  0
   -2.3833    1.6430    1.2355 O   0  0  0  0  0  0  0  0  0  0  0  0
   -0.6826    1.5240    2.7118 N   0  0  0  0  0  0  0  0  0  0  0  0
   -0.0576    0.8895    3.2029 H   0  0  0  0  0  0  0  0  0  0  0  0
   -0.9736    2.8150    3.3279 C   0  0  0  0  0  0  0  0  0  0  0  0
   -1.9508    2.7923    3.8226 H   0  0  0  0  0  0  0  0  0  0  0  0
   -0.2127    3.0582    4.0759 H   0  0  0  0  0  0  0  0  0  0  0  0
   -0.9811    3.6094    2.5740 H   0  0  0  0  0  0  0  0  0  0  0  0
  1  2  1  0  0  0  0
  2  3  1  0  0  0  0
  2  4  1  0  0  0  0
  2  5  1  0  0  0  0
  5  6  2  0  0  0  0
  5  7  1  0  0  0  0
  7  8  1  0  0  0  0
  7  9  1  0  0  0  0
  9 10  1  0  0  0  0
  9 11  1  0  0  0  0
  9 29  1  0  0  0  0
 11 12  1  0  0  0  0
 11 13  1  0  0  0  0
 11 14  1  0  0  0  0
 14 15  1  0  0  0  0
 14 16  1  0  0  0  0
 14 17  1  0  0  0  0
 17 18  1  0  0  0  0
 17 19  1  0  0  0  0
 17 20  1  0  0  0  0
 20 21  1  0  0  0  0
 20 22  2  0  0  0  0
 22 23  1  0  0  0  0
 22 26  1  0  0  0  0
 23 24  1  0  0  0  0
 23 25  1  0  0  0  0
 26 27  1  0  0  0  0
 26 28  1  0  0  0  0
 29 30  2  0  0  0  0
 29 31  1  0  0  0  0
 31 32  1  0  0  0  0
 31 33  1  0  0  0  0
 33 34  1  0  0  0  0
 33 35  1  0  0  0  0
 33 36  1  0  0  0  0
M  CHG  1  20   1
M  END
$$$$

  -OEChem-03222214013D

 36 35  0     1  0  0  0  0  0999 V2000
   -3.9499   -4.1194    1.9942 H   0  0  0  0  0  0  0  0  0  0  0  0
   -4.0013   -3.1107    1.5745 C   0  0  0  0  0  0  0  0  0  0  0  0
   -4.6629   -2.5047    2.1983 H   0  0  0  0  0  0  0  0  0  0  0  0
   -4.4155   -3.1702    0.5653 H   0  0  0  0  0  0  0  0  0  0  0  0
   -2.6174   -2.4922    1.5315 C   0  0  0  0  0  0  0  0  0  0  0  0
   -1.6424   -3.1425    1.8740 O   0  0  0  0  0  0  0  0  0  0  0  0
   -2.4527   -1.1901    1.1036 N   0  0  0  0  0  0  0  0  0  0  0  0
   -3.2952   -0.6519    0.9027 H   0  0  0  0  0  0  0  0  0  0  0  0
   -1.1809   -0.4562    1.1770 C   0  0  1  0  0  0  0  0  0  0  0  0
   -0.4974   -0.9353    1.8862 H   0  0  0  0  0  0  0  0  0  0  0  0
   -0.5417   -0.5084   -0.2405 C   0  0  0  0  0  0  0  0  0  0  0  0
    0.2365   -1.2787   -0.2049 H   0  0  0  0  0  0  0  0  0  0  0  0
   -1.2867   -0.8598   -0.9636 H   0  0  0  0  0  0  0  0  0  0  0  0
    0.0521    0.8018   -0.8086 C   0  0  0  0  0  0  0  0  0  0  0  0
   -0.6455    1.2247   -1.5403 H   0  0  0  0  0  0  0  0  0  0  0  0
    0.2035    1.5501   -0.0268 H   0  0  0  0  0  0  0  0  0  0  0  0
    1.4159    0.5355   -1.4427 C   0  0  0  0  0  0  0  0  0  0  0  0
    2.0957    0.1384   -0.6807 H   0  0  0  0  0  0  0  0  0  0  0  0
    1.3021   -0.2147   -2.2332 H   0  0  0  0  0  0  0  0  0  0  0  0
    1.9539    1.7876   -2.0051 N   0  3  0  0  0  0  0  0  0  0  0  0
    1.3152    2.5802   -2.0648 H   0  0  0  0  0  0  0  0  0  0  0  0
    3.1723    1.9167   -2.4441 C   0  0  0  0  0  0  0  0  0  0  0  0
    4.0655    0.8698   -2.4231 N   0  0  0  0  0  0  0  0  0  0  0  0
    3.7042   -0.0584   -2.2127 H   0  0  0  0  0  0  0  0  0  0  0  0
    4.9113    0.9379   -2.9856 H   0  0  0  0  0  0  0  0  0  0  0  0
    3.5863    3.1271   -2.9465 N   0  0  0  0  0  0  0  0  0  0  0  0
    2.9968    3.9449   -2.8021 H   0  0  0  0  0  0  0  0  0  0  0  0
    4.5826    3.2769   -3.0955 H   0  0  0  0  0  0  0  0  0  0  0  0
   -1.4700    0.9579    1.7238 C   0  0  0  0  0  0  0  0  0  0  0  0
   -2.3504    1.6380    1.2111 O   0  0  0  0  0  0  0  0  0  0  0  0
   -0.6670    1.5103    2.7057 N   0  0  0  0  0  0  0  0  0  0  0  0
   -0.0418    0.8766    3.1977 H   0  0  0  0  0  0  0  0  0  0  0  0
   -0.9495    2.8075    3.3132 C   0  0  0  0  0  0  0  0  0  0  0  0
   -1.9328    2.7996    3.7960 H   0  0  0  0  0  0  0  0  0  0  0  0
   -0.1955    3.0450    4.0701 H   0  0  0  0  0  0  0  0  0  0  0  0
   -0.9373    3.5986    2.5560 H   0  0  0  0  0  0  0  0  0  0  0  0
  1  2  1  0  0  0  0
  2  3  1  0  0  0  0
  2  4  1  0  0  0  0
  2  5  1  0  0  0  0
  5  6  2  0  0  0  0
  5  7  1  0  0  0  0
  7  8  1  0  0  0  0
  7  9  1  0  0  0  0
  9 10  1  0  0  0  0
  9 11  1  0  0  0  0
  9 29  1  0  0  0  0
 11 12  1  0  0  0  0
 11 13  1  0  0  0  0
 11 14  1  0  0  0  0
 14 15  1  0  0  0  0
 14 16  1  0  0  0  0
 14 17  1  0  0  0  0
 17 18  1  0  0  0  0
 17 19  1  0  0  0  0
 17 20  1  0  0  0  0
 20 21  1  0  0  0  0
 20 22  2  0  0  0  0
 22 23  1  0  0  0  0
 22 26  1  0  0  0  0
 23 24  1  0  0  0  0
 23 25  1  0  0  0  0
 26 27  1  0  0  0  0
 26 28  1  0  0  0  0
 29 30  2  0  0  0  0
 29 31  1  0  0  0  0
 31 32  1  0  0  0  0
 31 33  1  0  0  0  0
 33 34  1  0  0  0  0
 33 35  1  0  0  0  0
 33 36  1  0  0  0  0
M  CHG  1  20   1
M  END
$$$$

  -OEChem-03222214013D

 36 35  0     1  0  0  0  0  0999 V2000
   -3.9955   -4.1047    2.0223 H   0  0  0  0  0  0  0  0  0  0  0  0
   -4.0338   -3.1042    1.5815 C   0  0  0  0  0  0  0  0  0  0  0  0
   -4.6961   -2.4800    2.1862 H   0  0  0  0  0  0  0  0  0  0  0  0
   -4.4390   -3.1802    0.5696 H   0  0  0  0  0  0  0  0  0  0  0  0
   -2.6434   -2.4991    1.5397 C   0  0  0  0  0  0  0  0  0  0  0  0
   -1.6768   -3.1570    1.8905 O   0  0  0  0  0  0  0  0  0  0  0  0
   -2.4625   -1.2037    1.0978 N   0  0  0  0  0  0  0  0  0  0  0  0
   -3.2987   -0.6589    0.8885 H   0  0  0  0  0  0  0  0  0  0  0  0
   -1.1829   -0.4821    1.1644 C   0  0  1  0  0  0  0  0  0  0  0  0
   -0.5041   -0.9641    1.8765 H   0  0  0  0  0  0  0  0  0  0  0  0
   -0.5445   -0.5446   -0.2511 C   0  0  0  0  0  0  0  0  0  0  0  0
    0.2411   -1.3067   -0.2096 H   0  0  0  0  0  0  0  0  0  0  0  0
   -1.2839   -0.8953   -0.9798 H   0  0  0  0  0  0  0  0  0  0  0  0
    0.0493    0.7721   -0.7910 C   0  0  0  0  0  0  0  0  0  0  0  0
   -0.7377    1.3462   -1.2938 H   0  0  0  0  0  0  0  0  0  0  0  0
    0.4437    1.3819    0.0275 H   0  0  0  0  0  0  0  0  0  0  0  0
    1.2146    0.4860   -1.7353 C   0  0  0  0  0  0  0  0  0  0  0  0
    2.0029   -0.0412   -1.1862 H   0  0  0  0  0  0  0  0  0  0  0  0
    0.8667   -0.1584   -2.5505 H   0  0  0  0  0  0  0  0  0  0  0  0
    1.7260    1.7586   -2.2768 N   0  3  0  0  0  0  0  0  0  0  0  0
    1.1666    2.5928   -2.1006 H   0  0  0  0  0  0  0  0  0  0  0  0
    2.8145    1.8603   -2.9830 C   0  0  0  0  0  0  0  0  0  0  0  0
    3.5860    0.7623   -3.2883 N   0  0  0  0  0  0  0  0  0  0  0  0
    3.1968   -0.1588   -3.0967 H   0  0  0  0  0  0  0  0  0  0  0  0
    4.2776    0.8439   -4.0308 H   0  0  0  0  0  0  0  0  0  0  0  0
    3.2102    3.0934   -3.4438 N   0  0  0  0  0  0  0  0  0  0  0  0
    2.7472    3.9246   -3.0809 H   0  0  0  0  0  0  0  0  0  0  0  0
    4.1537    3.1951   -3.8133 H   0  0  0  0  0  0  0  0  0  0  0  0
   -1.4462    0.9441    1.6941 C   0  0  0  0  0  0  0  0  0  0  0  0
   -2.3114    1.6354    1.1700 O   0  0  0  0  0  0  0  0  0  0  0  0
   -0.6319    1.4947    2.6678 N   0  0  0  0  0  0  0  0  0  0  0  0
   -0.0145    0.8590    3.1675 H   0  0  0  0  0  0  0  0  0  0  0  0
   -0.8681    2.8181    3.2369 C   0  0  0  0  0  0  0  0  0  0  0  0
   -1.8441    2.8547    3.7329 H   0  0  0  0  0  0  0  0  0  0  0  0
   -0.0961    3.0578    3.9749 H   0  0  0  0  0  0  0  0  0  0  0  0
   -0.8441    3.5834    2.4539 H   0  0  0  0  0  0  0  0  0  0  0  0
  1  2  1  0  0  0  0
  2  3  1  0  0  0  0
  2  4  1  0  0  0  0
  2  5  1  0  0  0  0
  5  6  2  0  0  0  0
  5  7  1  0  0  0  0
  7  8  1  0  0  0  0
  7  9  1  0  0  0  0
  9 10  1  0  0  0  0
  9 11  1  0  0  0  0
  9 29  1  0  0  0  0
 11 12  1  0  0  0  0
 11 13  1  0  0  0  0
 11 14  1  0  0  0  0
 14 15  1  0  0  0  0
 14 16  1  0  0  0  0
 14 17  1  0  0  0  0
 17 18  1  0  0  0  0
 17 19  1  0  0  0  0
 17 20  1  0  0  0  0
 20 21  1  0  0  0  0
 20 22  2  0  0  0  0
 22 23  1  0  0  0  0
 22 26  1  0  0  0  0
 23 24  1  0  0  0  0
 23 25  1  0  0  0  0
 26 27  1  0  0  0  0
 26 28  1  0  0  0  0
 29 30  2  0  0  0  0
 29 31  1  0  0  0  0
 31 32  1  0  0  0  0
 31 33  1  0  0  0  0
 33 34  1  0  0  0  0
 33 35  1  0  0  0  0
 33 36  1  0  0  0  0
M  CHG  1  20   1
M  END
$$$$

  -OEChem-03222214013D

 36 35  0     1  0  0  0  0  0999 V2000
   -4.0010   -4.0953    2.0209 H   0  0  0  0  0  0  0  0  0  0  0  0
   -4.0403   -3.0885    1.5951 C   0  0  0  0  0  0  0  0  0  0  0  0
   -4.6823   -2.4667    2.2238 H   0  0  0  0  0  0  0  0  0  0  0  0
   -4.4698   -3.1467    0.5922 H   0  0  0  0  0  0  0  0  0  0  0  0
   -2.6464   -2.4947    1.5287 C   0  0  0  0  0  0  0  0  0  0  0  0
   -1.6782   -3.1599    1.8608 O   0  0  0  0  0  0  0  0  0  0  0  0
   -2.4662   -1.2000    1.0846 N   0  0  0  0  0  0  0  0  0  0  0  0
   -3.3040   -0.6495    0.8985 H   0  0  0  0  0  0  0  0  0  0  0  0
   -1.1850   -0.4811    1.1454 C   0  0  1  0  0  0  0  0  0  0  0  0
   -0.5088   -0.9656    1.8582 H   0  0  0  0  0  0  0  0  0  0  0  0
   -0.5425   -0.5514   -0.2662 C   0  0  0  0  0  0  0  0  0  0  0  0
    0.2447   -1.3124   -0.2299 H   0  0  0  0  0  0  0  0  0  0  0  0
   -1.2852   -0.8963   -0.9945 H   0  0  0  0  0  0  0  0  0  0  0  0
    0.0471    0.7685   -0.7923 C   0  0  0  0  0  0  0  0  0  0  0  0
   -0.7670    1.4457   -1.0761 H   0  0  0  0  0  0  0  0  0  0  0  0
    0.6416    1.2533   -0.0104 H   0  0  0  0  0  0  0  0  0  0  0  0
    0.9539    0.4953   -1.9899 C   0  0  0  0  0  0  0  0  0  0  0  0
    1.7901   -0.1379   -1.6727 H   0  0  0  0  0  0  0  0  0  0  0  0
    0.3828   -0.0405   -2.7566 H   0  0  0  0  0  0  0  0  0  0  0  0
    1.4505    1.7739   -2.5307 N   0  3  0  0  0  0  0  0  0  0  0  0
    1.0256    2.6253   -2.1647 H   0  0  0  0  0  0  0  0  0  0  0  0
    2.3518    1.8640   -3.4655 C   0  0  0  0  0  0  0  0  0  0  0  0
    2.9262    0.7475   -4.0297 N   0  0  0  0  0  0  0  0  0  0  0  0
    2.5095   -0.1581   -3.8230 H   0  0  0  0  0  0  0  0  0  0  0  0
    3.4408    0.8500   -4.9020 H   0  0  0  0  0  0  0  0  0  0  0  0
    2.7435    3.1039   -3.9117 N   0  0  0  0  0  0  0  0  0  0  0  0
    2.4608    3.9275   -3.3838 H   0  0  0  0  0  0  0  0  0  0  0  0
    3.5763    3.1718   -4.4937 H   0  0  0  0  0  0  0  0  0  0  0  0
   -1.4305    0.9493    1.6741 C   0  0  0  0  0  0  0  0  0  0  0  0
   -2.3149    1.6366    1.1772 O   0  0  0  0  0  0  0  0  0  0  0  0
   -0.6055    1.4958    2.6409 N   0  0  0  0  0  0  0  0  0  0  0  0
    0.0258    0.8590    3.1217 H   0  0  0  0  0  0  0  0  0  0  0  0
   -0.8583    2.8015    3.2432 C   0  0  0  0  0  0  0  0  0  0  0  0
   -1.8297    2.8086    3.7495 H   0  0  0  0  0  0  0  0  0  0  0  0
   -0.0834    3.0371    3.9795 H   0  0  0  0  0  0  0  0  0  0  0  0
   -0.8557    3.5860    2.4790 H   0  0  0  0  0  0  0  0  0  0  0  0
  1  2  1  0  0  0  0
  2  3  1  0  0  0  0
  2  4  1  0  0  0  0
  2  5  1  0  0  0  0
  5  6  2  0  0  0  0
  5  7  1  0  0  0  0
  7  8  1  0  0  0  0
  7  9  1  0  0  0  0
  9 10  1  0  0  0  0
  9 11  1  0  0  0  0
  9 29  1  0  0  0  0
 11 12  1  0  0  0  0
 11 13  1  0  0  0  0
 11 14  1  0  0  0  0
 14 15  1  0  0  0  0
 14 16  1  0  0  0  0
 14 17  1  0  0  0  0
 17 18  1  0  0  0  0
 17 19  1  0  0  0  0
 17 20  1  0  0  0  0
 20 21  1  0  0  0  0
 20 22  2  0  0  0  0
 22 23  1  0  0  0  0
 22 26  1  0  0  0  0
 23 24  1  0  0  0  0
 23 25  1  0  0  0  0
 26 27  1  0  0  0  0
 26 28  1  0  0  0  0
 29 30  2  0  0  0  0
 29 31  1  0  0  0  0
 31 32  1  0  0  0  0
 31 33  1  0  0  0  0
 33 34  1  0  0  0  0
 33 35  1  0  0  0  0
 33 36  1  0  0  0  0
M  CHG  1  20   1
M  END
$$$$

  -OEChem-03222214013D

 36 35  0     1  0  0  0  0  0999 V2000
   -4.0214   -4.0846    2.0213 H   0  0  0  0  0  0  0  0  0  0  0  0
   -4.0502   -3.0814    1.5865 C   0  0  0  0  0  0  0  0  0  0  0  0
   -4.6961   -2.4507    2.2022 H   0  0  0  0  0  0  0  0  0  0  0  0
   -4.4681   -3.1457    0.5792 H   0  0  0  0  0  0  0  0  0  0  0  0
   -2.6521   -2.4967    1.5315 C   0  0  0  0  0  0  0  0  0  0  0  0
   -1.6922   -3.1630    1.8847 O   0  0  0  0  0  0  0  0  0  0  0  0
   -2.4584   -1.2080    1.0764 N   0  0  0  0  0  0  0  0  0  0  0  0
   -3.2903   -0.6548    0.8724 H   0  0  0  0  0  0  0  0  0  0  0  0
   -1.1747   -0.4957    1.1468 C   0  0  1  0  0  0  0  0  0  0  0  0
   -0.5022   -0.9775    1.8648 H   0  0  0  0  0  0  0  0  0  0  0  0
   -0.5286   -0.5653   -0.2584 C   0  0  0  0  0  0  0  0  0  0  0  0
    0.0423   -1.4975   -0.3288 H   0  0  0  0  0  0  0  0  0  0  0  0
   -1.3256   -0.6137   -1.0089 H   0  0  0  0  0  0  0  0  0  0  0  0
    0.3730    0.6267   -0.6208 C   0  0  0  0  0  0  0  0  0  0  0  0
   -0.2090    1.5549   -0.6048 H   0  0  0  0  0  0  0  0  0  0  0  0
    1.1864    0.7142    0.1077 H   0  0  0  0  0  0  0  0  0  0  0  0
    0.9422    0.4302   -2.0234 C   0  0  0  0  0  0  0  0  0  0  0  0
    1.5734   -0.4654   -2.0321 H   0  0  0  0  0  0  0  0  0  0  0  0
    0.1151    0.2806   -2.7263 H   0  0  0  0  0  0  0  0  0  0  0  0
    1.7267    1.6158   -2.4138 N   0  3  0  0  0  0  0  0  0  0  0  0
    1.6757    2.4273   -1.7990 H   0  0  0  0  0  0  0  0  0  0  0  0
    2.4236    1.6903   -3.5108 C   0  0  0  0  0  0  0  0  0  0  0  0
    2.4871    0.6443   -4.4029 N   0  0  0  0  0  0  0  0  0  0  0  0
    1.8400   -0.1310   -4.2739 H   0  0  0  0  0  0  0  0  0  0  0  0
    2.8404    0.8225   -5.3408 H   0  0  0  0  0  0  0  0  0  0  0  0
    3.1159    2.8424   -3.7980 N   0  0  0  0  0  0  0  0  0  0  0  0
    3.2141    3.5503   -3.0728 H   0  0  0  0  0  0  0  0  0  0  0  0
    3.8122    2.8197   -4.5408 H   0  0  0  0  0  0  0  0  0  0  0  0
   -1.4184    0.9398    1.6566 C   0  0  0  0  0  0  0  0  0  0  0  0
   -2.2861    1.6285    1.1336 O   0  0  0  0  0  0  0  0  0  0  0  0
   -0.6023    1.4904    2.6282 N   0  0  0  0  0  0  0  0  0  0  0  0
    0.0110    0.8525    3.1302 H   0  0  0  0  0  0  0  0  0  0  0  0
   -0.8484    2.8078    3.2068 C   0  0  0  0  0  0  0  0  0  0  0  0
   -1.8239    2.8318    3.7046 H   0  0  0  0  0  0  0  0  0  0  0  0
   -0.0774    3.0478    3.9455 H   0  0  0  0  0  0  0  0  0  0  0  0
   -0.8322    3.5797    2.4301 H   0  0  0  0  0  0  0  0  0  0  0  0
  1  2  1  0  0  0  0
  2  3  1  0  0  0  0
  2  4  1  0  0  0  0
  2  5  1  0  0  0  0
  5  6  2  0  0  0  0
  5  7  1  0  0  0  0
  7  8  1  0  0  0  0
  7  9  1  0  0  0  0
  9 10  1  0  0  0  0
  9 11  1  0  0  0  0
  9 29  1  0  0  0  0
 11 12  1  0  0  0  0
 11 13  1  0  0  0  0
 11 14  1  0  0  0  0
 14 15  1  0  0  0  0
 14 16  1  0  0  0  0
 14 17  1  0  0  0  0
 17 18  1  0  0  0  0
 17 19  1  0  0  0  0
 17 20  1  0  0  0  0
 20 21  1  0  0  0  0
 20 22  2  0  0  0  0
 22 23  1  0  0  0  0
 22 26  1  0  0  0  0
 23 24  1  0  0  0  0
 23 25  1  0  0  0  0
 26 27  1  0  0  0  0
 26 28  1  0  0  0  0
 29 30  2  0  0  0  0
 29 31  1  0  0  0  0
 31 32  1  0  0  0  0
 31 33  1  0  0  0  0
 33 34  1  0  0  0  0
 33 35  1  0  0  0  0
 33 36  1  0  0  0  0
M  CHG  1  20   1
M  END
$$$$

  -OEChem-03222214013D

 36 35  0     1  0  0  0  0  0999 V2000
   -4.0216   -4.0792    2.0050 H   0  0  0  0  0  0  0  0  0  0  0  0
   -4.0504   -3.0734    1.5759 C   0  0  0  0  0  0  0  0  0  0  0  0
   -4.6901   -2.4445    2.1998 H   0  0  0  0  0  0  0  0  0  0  0  0
   -4.4758   -3.1311    0.5712 H   0  0  0  0  0  0  0  0  0  0  0  0
   -2.6508   -2.4917    1.5154 C   0  0  0  0  0  0  0  0  0  0  0  0
   -1.6906   -3.1642    1.8556 O   0  0  0  0  0  0  0  0  0  0  0  0
   -2.4568   -1.1980    1.0742 N   0  0  0  0  0  0  0  0  0  0  0  0
   -3.2893   -0.6403    0.8859 H   0  0  0  0  0  0  0  0  0  0  0  0
   -1.1723   -0.4867    1.1526 C   0  0  1  0  0  0  0  0  0  0  0  0
   -0.5017   -0.9732    1.8693 H   0  0  0  0  0  0  0  0  0  0  0  0
   -0.5208   -0.5518   -0.2529 C   0  0  0  0  0  0  0  0  0  0  0  0
    0.0390   -1.4894   -0.3396 H   0  0  0  0  0  0  0  0  0  0  0  0
   -1.3287   -0.5889   -0.9927 H   0  0  0  0  0  0  0  0  0  0  0  0
    0.3900    0.6319   -0.6327 C   0  0  0  0  0  0  0  0  0  0  0  0
   -0.0918    1.5849   -0.3934 H   0  0  0  0  0  0  0  0  0  0  0  0
    1.3298    0.5721   -0.0735 H   0  0  0  0  0  0  0  0  0  0  0  0
    0.6497    0.6130   -2.1381 C   0  0  0  0  0  0  0  0  0  0  0  0
    1.1893   -0.3047   -2.3983 H   0  0  0  0  0  0  0  0  0  0  0  0
   -0.3111    0.6132   -2.6651 H   0  0  0  0  0  0  0  0  0  0  0  0
    1.4353    1.7986   -2.5271 N   0  3  0  0  0  0  0  0  0  0  0  0
    1.5915    2.5059   -1.8100 H   0  0  0  0  0  0  0  0  0  0  0  0
    1.8780    2.0067   -3.7335 C   0  0  0  0  0  0  0  0  0  0  0  0
    1.6560    1.1081   -4.7523 N   0  0  0  0  0  0  0  0  0  0  0  0
    0.9914    0.3551   -4.5851 H   0  0  0  0  0  0  0  0  0  0  0  0
    1.8032    1.4120   -5.7127 H   0  0  0  0  0  0  0  0  0  0  0  0
    2.5830    3.1543   -4.0082 N   0  0  0  0  0  0  0  0  0  0  0  0
    2.8969    3.7358   -3.2335 H   0  0  0  0  0  0  0  0  0  0  0  0
    3.0912    3.2153   -4.8886 H   0  0  0  0  0  0  0  0  0  0  0  0
   -1.4250    0.9414    1.6785 C   0  0  0  0  0  0  0  0  0  0  0  0
   -2.2929    1.6326    1.1585 O   0  0  0  0  0  0  0  0  0  0  0  0
   -0.6141    1.4851    2.6585 N   0  0  0  0  0  0  0  0  0  0  0  0
    0.0030    0.8450    3.1531 H   0  0  0  0  0  0  0  0  0  0  0  0
   -0.8653    2.7958    3.2505 C   0  0  0  0  0  0  0  0  0  0  0  0
   -1.8429    2.8127    3.7445 H   0  0  0  0  0  0  0  0  0  0  0  0
   -0.0978    3.0296    3.9951 H   0  0  0  0  0  0  0  0  0  0  0  0
   -0.8474    3.5763    2.4824 H   0  0  0  0  0  0  0  0  0  0  0  0
  1  2  1  0  0  0  0
  2  3  1  0  0  0  0
  2  4  1  0  0  0  0
  2  5  1  0  0  0  0
  5  6  2  0  0  0  0
  5  7  1  0  0  0  0
  7  8  1  0  0  0  0
  7  9  1  0  0  0  0
  9 10  1  0  0  0  0
  9 11  1  0  0  0  0
  9 29  1  0  0  0  0
 11 12  1  0  0  0  0
 11 13  1  0  0  0  0
 11 14  1  0  0  0  0
 14 15  1  0  0  0  0
 14 16  1  0  0  0  0
 14 17  1  0  0  0  0
 17 18  1  0  0  0  0
 17 19  1  0  0  0  0
 17 20  1  0  0  0  0
 20 21  1  0  0  0  0
 20 22  2  0  0  0  0
 22 23  1  0  0  0  0
 22 26  1  0  0  0  0
 23 24  1  0  0  0  0
 23 25  1  0  0  0  0
 26 27  1  0  0  0  0
 26 28  1  0  0  0  0
 29 30  2  0  0  0  0
 29 31  1  0  0  0  0
 31 32  1  0  0  0  0
 31 33  1  0  0  0  0
 33 34  1  0  0  0  0
 33 35  1  0  0  0  0
 33 36  1  0  0  0  0
M  CHG  1  20   1
M  END
$$$$

  -OEChem-03222214013D

 36 35  0     1  0  0  0  0  0999 V2000
   -4.0298   -4.0707    2.0028 H   0  0  0  0  0  0  0  0  0  0  0  0
   -4.0545   -3.0647    1.5742 C   0  0  0  0  0  0  0  0  0  0  0  0
   -4.6935   -2.4343    2.1972 H   0  0  0  0  0  0  0  0  0  0  0  0
   -4.4780   -3.1204    0.5686 H   0  0  0  0  0  0  0  0  0  0  0  0
   -2.6530   -2.4876    1.5166 C   0  0  0  0  0  0  0  0  0  0  0  0
   -1.6956   -3.1636    1.8573 O   0  0  0  0  0  0  0  0  0  0  0  0
   -2.4544   -1.1932    1.0793 N   0  0  0  0  0  0  0  0  0  0  0  0
   -3.2849   -0.6315    0.8939 H   0  0  0  0  0  0  0  0  0  0  0  0
   -1.1666   -0.4875    1.1612 C   0  0  1  0  0  0  0  0  0  0  0  0
   -0.4956   -0.9772    1.8753 H   0  0  0  0  0  0  0  0  0  0  0  0
   -0.5191   -0.5508   -0.2480 C   0  0  0  0  0  0  0  0  0  0  0  0
    0.0263   -1.4956   -0.3468 H   0  0  0  0  0  0  0  0  0  0  0  0
   -1.3386   -0.5805   -0.9752 H   0  0  0  0  0  0  0  0  0  0  0  0
    0.4044    0.6216   -0.6502 C   0  0  0  0  0  0  0  0  0  0  0  0
    0.0866    1.5607   -0.1905 H   0  0  0  0  0  0  0  0  0  0  0  0
    1.4267    0.4143   -0.3159 H   0  0  0  0  0  0  0  0  0  0  0  0
    0.3545    0.8208   -2.1649 C   0  0  0  0  0  0  0  0  0  0  0  0
    0.7454   -0.0767   -2.6576 H   0  0  0  0  0  0  0  0  0  0  0  0
   -0.6888    0.9602   -2.4697 H   0  0  0  0  0  0  0  0  0  0  0  0
    1.1479    2.0033   -2.5471 N   0  3  0  0  0  0  0  0  0  0  0  0
    1.5241    2.5725   -1.7903 H   0  0  0  0  0  0  0  0  0  0  0  0
    1.3259    2.3840   -3.7792 C   0  0  0  0  0  0  0  0  0  0  0  0
    0.7999    1.6809   -4.8391 N   0  0  0  0  0  0  0  0  0  0  0  0
    0.1233    0.9483   -4.6340 H   0  0  0  0  0  0  0  0  0  0  0  0
    0.7554    2.1321   -5.7506 H   0  0  0  0  0  0  0  0  0  0  0  0
    2.0527    3.5212   -4.0401 N   0  0  0  0  0  0  0  0  0  0  0  0
    2.5831    3.9506   -3.2845 H   0  0  0  0  0  0  0  0  0  0  0  0
    2.3502    3.7014   -4.9973 H   0  0  0  0  0  0  0  0  0  0  0  0
   -1.4274    0.9369    1.6924 C   0  0  0  0  0  0  0  0  0  0  0  0
   -2.2830    1.6331    1.1582 O   0  0  0  0  0  0  0  0  0  0  0  0
   -0.6229    1.4794    2.6780 N   0  0  0  0  0  0  0  0  0  0  0  0
   -0.0091    0.8385    3.1758 H   0  0  0  0  0  0  0  0  0  0  0  0
   -0.8754    2.7904    3.2684 C   0  0  0  0  0  0  0  0  0  0  0  0
   -1.8579    2.8101    3.7522 H   0  0  0  0  0  0  0  0  0  0  0  0
   -0.1149    3.0204    4.0214 H   0  0  0  0  0  0  0  0  0  0  0  0
   -0.8466    3.5715    2.5013 H   0  0  0  0  0  0  0  0  0  0  0  0
  1  2  1  0  0  0  0
  2  3  1  0  0  0  0
  2  4  1  0  0  0  0
  2  5  1  0  0  0  0
  5  6  2  0  0  0  0
  5  7  1  0  0  0  0
  7  8  1  0  0  0  0
  7  9  1  0  0  0  0
  9 10  1  0  0  0  0
  9 11  1  0  0  0  0
  9 29  1  0  0  0  0
 11 12  1  0  0  0  0
 11 13  1  0  0  0  0
 11 14  1  0  0  0  0
 14 15  1  0  0  0  0
 14 16  1  0  0  0  0
 14 17  1  0  0  0  0
 17 18  1  0  0  0  0
 17 19  1  0  0  0  0
 17 20  1  0  0  0  0
 20 21  1  0  0  0  0
 20 22  2  0  0  0  0
 22 23  1  0  0  0  0
 22 26  1  0  0  0  0
 23 24  1  0  0  0  0
 23 25  1  0  0  0  0
 26 27  1  0  0  0  0
 26 28  1  0  0  0  0
 29 30  2  0  0  0  0
 29 31  1  0  0  0  0
 31 32  1  0  0  0  0
 31 33  1  0  0  0  0
 33 34  1  0  0  0  0
 33 35  1  0  0  0  0
 33 36  1  0  0  0  0
M  CHG  1  20   1
M  END
$$$$

  -OEChem-03222214013D

 36 35  0     1  0  0  0  0  0999 V2000
   -4.2220   -3.7130    2.1058 H   0  0  0  0  0  0  0  0  0  0  0  0
   -4.1219   -2.8374    1.4577 C   0  0  0  0  0  0  0  0  0  0  0  0
   -4.8572   -2.0894    1.7639 H   0  0  0  0  0  0  0  0  0  0  0  0
   -4.3241   -3.1385    0.4272 H   0  0  0  0  0  0  0  0  0  0  0  0
   -2.7212   -2.2660    1.5674 C   0  0  0  0  0  0  0  0  0  0  0  0
   -1.8944   -2.8033    2.2853 O   0  0  0  0  0  0  0  0  0  0  0  0
   -2.3765   -1.1278    0.8641 N   0  0  0  0  0  0  0  0  0  0  0  0
   -3.1126   -0.6669    0.3325 H   0  0  0  0  0  0  0  0  0  0  0  0
   -1.0791   -0.4453    0.9969 C   0  0  1  0  0  0  0  0  0  0  0  0
   -0.5439   -0.7576    1.9004 H   0  0  0  0  0  0  0  0  0  0  0  0
   -0.2492   -0.8396   -0.2552 C   0  0  0  0  0  0  0  0  0  0  0  0
    0.2606   -1.7873   -0.0498 H   0  0  0  0  0  0  0  0  0  0  0  0
   -0.9544   -1.0393   -1.0698 H   0  0  0  0  0  0  0  0  0  0  0  0
    0.7892    0.1928   -0.7620 C   0  0  0  0  0  0  0  0  0  0  0  0
    0.6632    1.1762   -0.3080 H   0  0  0  0  0  0  0  0  0  0  0  0
    1.7955   -0.1421   -0.4879 H   0  0  0  0  0  0  0  0  0  0  0  0
    0.6880    0.3212   -2.2841 C   0  0  0  0  0  0  0  0  0  0  0  0
    1.2587   -0.4872   -2.7553 H   0  0  0  0  0  0  0  0  0  0  0  0
   -0.3555    0.2080   -2.5981 H   0  0  0  0  0  0  0  0  0  0  0  0
    1.1850    1.6339   -2.7369 N   0  3  0  0  0  0  0  0  0  0  0  0
    2.1338    1.6652   -3.1080 H   0  0  0  0  0  0  0  0  0  0  0  0
    0.4463    2.7086   -2.7772 C   0  0  0  0  0  0  0  0  0  0  0  0
   -0.8388    2.7473   -2.2808 N   0  0  0  0  0  0  0  0  0  0  0  0
   -1.1153    2.0255   -1.6075 H   0  0  0  0  0  0  0  0  0  0  0  0
   -1.2822    3.6552   -2.1689 H   0  0  0  0  0  0  0  0  0  0  0  0
    0.9591    3.8542   -3.3374 N   0  0  0  0  0  0  0  0  0  0  0  0
    1.8175    3.7872   -3.8804 H   0  0  0  0  0  0  0  0  0  0  0  0
    0.3140    4.6099   -3.5605 H   0  0  0  0  0  0  0  0  0  0  0  0
   -1.3491    1.0704    1.1039 C   0  0  0  0  0  0  0  0  0  0  0  0
   -1.9272    1.6448    0.1817 O   0  0  0  0  0  0  0  0  0  0  0  0
   -0.6932    1.8287    2.0557 N   0  0  0  0  0  0  0  0  0  0  0  0
   -0.2676    1.3218    2.8303 H   0  0  0  0  0  0  0  0  0  0  0  0
   -0.8887    3.2670    2.2049 C   0  0  0  0  0  0  0  0  0  0  0  0
   -1.9417    3.4927    2.4055 H   0  0  0  0  0  0  0  0  0  0  0  0
   -0.2904    3.6451    3.0402 H   0  0  0  0  0  0  0  0  0  0  0  0
   -0.5811    3.7949    1.2965 H   0  0  0  0  0  0  0  0  0  0  0  0
  1  2  1  0  0  0  0
  2  3  1  0  0  0  0
  2  4  1  0  0  0  0
  2  5  1  0  0  0  0
  5  6  2  0  0  0  0
  5  7  1  0  0  0  0
  7  8  1  0  0  0  0
  7  9  1  0  0  0  0
  9 10  1  0  0  0  0
  9 11  1  0  0  0  0
  9 29  1  0  0  0  0
 11 12  1  0  0  0  0
 11 13  1  0  0  0  0
 11 14  1  0  0  0  0
 14 15  1  0  0  0  0
 14 16  1  0  0  0  0
 14 17  1  0  0  0  0
 17 18  1  0  0  0  0
 17 19  1  0  0  0  0
 17 20  1  0  0  0  0
 20 21  1  0  0  0  0
 20 22  2  0  0  0  0
 22 23  1  0  0  0  0
 22 26  1  0  0  0  0
 23 24  1  0  0  0  0
 23 25  1  0  0  0  0
 26 27  1  0  0  0  0
 26 28  1  0  0  0  0
 29 30  2  0  0  0  0
 29 31  1  0  0  0  0
 31 32  1  0  0  0  0
 31 33  1  0  0  0  0
 33 34  1  0  0  0  0
 33 35  1  0  0  0  0
 33 36  1  0  0  0  0
M  CHG  1  20   1
M  END
$$$$

  -OEChem-03222214013D

 36 35  0     1  0  0  0  0  0999 V2000
   -4.0815   -3.8238    2.2427 H   0  0  0  0  0  0  0  0  0  0  0  0
   -4.0521   -2.9260    1.6183 C   0  0  0  0  0  0  0  0  0  0  0  0
   -4.7928   -2.2148    1.9919 H   0  0  0  0  0  0  0  0  0  0  0  0
   -4.3067   -3.2035    0.5927 H   0  0  0  0  0  0  0  0  0  0  0  0
   -2.6682   -2.3065    1.6625 C   0  0  0  0  0  0  0  0  0  0  0  0
   -1.7917   -2.8116    2.3440 O   0  0  0  0  0  0  0  0  0  0  0  0
   -2.3974   -1.1574    0.9449 N   0  0  0  0  0  0  0  0  0  0  0  0
   -3.1717   -0.7271    0.4427 H   0  0  0  0  0  0  0  0  0  0  0  0
   -1.1178   -0.4331    1.0067 C   0  0  1  0  0  0  0  0  0  0  0  0
   -0.5253   -0.7305    1.8793 H   0  0  0  0  0  0  0  0  0  0  0  0
   -0.3445   -0.8052   -0.2869 C   0  0  0  0  0  0  0  0  0  0  0  0
    0.2222   -1.7208   -0.0849 H   0  0  0  0  0  0  0  0  0  0  0  0
   -1.0684   -1.0603   -1.0696 H   0  0  0  0  0  0  0  0  0  0  0  0
    0.6258    0.2669   -0.8395 C   0  0  0  0  0  0  0  0  0  0  0  0
    0.6922    1.1469   -0.1964 H   0  0  0  0  0  0  0  0  0  0  0  0
    1.6358   -0.1554   -0.8842 H   0  0  0  0  0  0  0  0  0  0  0  0
    0.1957    0.6641   -2.2527 C   0  0  0  0  0  0  0  0  0  0  0  0
    0.5022   -0.1155   -2.9593 H   0  0  0  0  0  0  0  0  0  0  0  0
   -0.8971    0.7311   -2.2961 H   0  0  0  0  0  0  0  0  0  0  0  0
    0.7834    1.9609   -2.6352 N   0  3  0  0  0  0  0  0  0  0  0  0
    1.7096    1.9419   -3.0599 H   0  0  0  0  0  0  0  0  0  0  0  0
    0.1488    3.0952   -2.5326 C   0  0  0  0  0  0  0  0  0  0  0  0
   -1.0989    3.1968   -1.9584 N   0  0  0  0  0  0  0  0  0  0  0  0
   -1.4180    2.4255   -1.3614 H   0  0  0  0  0  0  0  0  0  0  0  0
   -1.4552    4.1219   -1.7345 H   0  0  0  0  0  0  0  0  0  0  0  0
    0.7365    4.2397   -3.0161 N   0  0  0  0  0  0  0  0  0  0  0  0
    1.5550    4.1497   -3.6145 H   0  0  0  0  0  0  0  0  0  0  0  0
    0.1535    5.0663   -3.1315 H   0  0  0  0  0  0  0  0  0  0  0  0
   -1.4184    1.0764    1.1323 C   0  0  0  0  0  0  0  0  0  0  0  0
   -2.0706    1.6420    0.2561 O   0  0  0  0  0  0  0  0  0  0  0  0
   -0.7278    1.8492    2.0480 N   0  0  0  0  0  0  0  0  0  0  0  0
   -0.2437    1.3492    2.7922 H   0  0  0  0  0  0  0  0  0  0  0  0
   -0.9585    3.2796    2.2239 C   0  0  0  0  0  0  0  0  0  0  0  0
   -2.0045    3.4708    2.4875 H   0  0  0  0  0  0  0  0  0  0  0  0
   -0.3245    3.6687    3.0272 H   0  0  0  0  0  0  0  0  0  0  0  0
   -0.7205    3.8252    1.3053 H   0  0  0  0  0  0  0  0  0  0  0  0
  1  2  1  0  0  0  0
  2  3  1  0  0  0  0
  2  4  1  0  0  0  0
  2  5  1  0  0  0  0
  5  6  2  0  0  0  0
  5  7  1  0  0  0  0
  7  8  1  0  0  0  0
  7  9  1  0  0  0  0
  9 10  1  0  0  0  0
  9 11  1  0  0  0  0
  9 29  1  0  0  0  0
 11 12  1  0  0  0  0
 11 13  1  0  0  0  0
 11 14  1  0  0  0  0
 14 15  1  0  0  0  0
 14 16  1  0  0  0  0
 14 17  1  0  0  0  0
 17 18  1  0  0  0  0
 17 19  1  0  0  0  0
 17 20  1  0  0  0  0
 20 21  1  0  0  0  0
 20 22  2  0  0  0  0
 22 23  1  0  0  0  0
 22 26  1  0  0  0  0
 23 24  1  0  0  0  0
 23 25  1  0  0  0  0
 26 27  1  0  0  0  0
 26 28  1  0  0  0  0
 29 30  2  0  0  0  0
 29 31  1  0  0  0  0
 31 32  1  0  0  0  0
 31 33  1  0  0  0  0
 33 34  1  0  0  0  0
 33 35  1  0  0  0  0
 33 36  1  0  0  0  0
M  CHG  1  20   1
M  END
$$$$

  -OEChem-03222214013D

 36 35  0     1  0  0  0  0  0999 V2000
   -4.0333   -3.8904    2.2424 H   0  0  0  0  0  0  0  0  0  0  0  0
   -4.0386   -2.9731    1.6464 C   0  0  0  0  0  0  0  0  0  0  0  0
   -4.7831   -2.2894    2.0614 H   0  0  0  0  0  0  0  0  0  0  0  0
   -4.3143   -3.2237    0.6193 H   0  0  0  0  0  0  0  0  0  0  0  0
   -2.6666   -2.3272    1.6739 C   0  0  0  0  0  0  0  0  0  0  0  0
   -1.7638   -2.8330    2.3198 O   0  0  0  0  0  0  0  0  0  0  0  0
   -2.4348   -1.1571    0.9768 N   0  0  0  0  0  0  0  0  0  0  0  0
   -3.2282   -0.7306    0.5020 H   0  0  0  0  0  0  0  0  0  0  0  0
   -1.1643   -0.4168    1.0143 C   0  0  1  0  0  0  0  0  0  0  0  0
   -0.5503   -0.7265    1.8677 H   0  0  0  0  0  0  0  0  0  0  0  0
   -0.4125   -0.7661   -0.2967 C   0  0  0  0  0  0  0  0  0  0  0  0
    0.1830   -1.6645   -0.1004 H   0  0  0  0  0  0  0  0  0  0  0  0
   -1.1348   -1.0385   -1.0751 H   0  0  0  0  0  0  0  0  0  0  0  0
    0.5223    0.3331   -0.8451 C   0  0  0  0  0  0  0  0  0  0  0  0
    0.7866    1.0643   -0.0761 H   0  0  0  0  0  0  0  0  0  0  0  0
    1.4604   -0.1276   -1.1733 H   0  0  0  0  0  0  0  0  0  0  0  0
   -0.1373    1.0012   -2.0536 C   0  0  0  0  0  0  0  0  0  0  0  0
   -0.0630    0.3357   -2.9210 H   0  0  0  0  0  0  0  0  0  0  0  0
   -1.2029    1.1467   -1.8476 H   0  0  0  0  0  0  0  0  0  0  0  0
    0.4998    2.2968   -2.3532 N   0  3  0  0  0  0  0  0  0  0  0  0
    1.4242    2.2690   -2.7809 H   0  0  0  0  0  0  0  0  0  0  0  0
   -0.0879    3.4470   -2.1763 C   0  0  0  0  0  0  0  0  0  0  0  0
   -1.3329    3.5618   -1.6006 N   0  0  0  0  0  0  0  0  0  0  0  0
   -1.6840    2.7604   -1.0638 H   0  0  0  0  0  0  0  0  0  0  0  0
   -1.6508    4.4824   -1.3103 H   0  0  0  0  0  0  0  0  0  0  0  0
    0.5482    4.5963   -2.5812 N   0  0  0  0  0  0  0  0  0  0  0  0
    1.3644    4.5128   -3.1837 H   0  0  0  0  0  0  0  0  0  0  0  0
   -0.0005    5.4519   -2.6421 H   0  0  0  0  0  0  0  0  0  0  0  0
   -1.4565    1.0895    1.1869 C   0  0  0  0  0  0  0  0  0  0  0  0
   -2.1777    1.6765    0.3827 O   0  0  0  0  0  0  0  0  0  0  0  0
   -0.7306    1.8359    2.0969 N   0  0  0  0  0  0  0  0  0  0  0  0
   -0.2020    1.3122    2.7931 H   0  0  0  0  0  0  0  0  0  0  0  0
   -0.9858    3.2487    2.3569 C   0  0  0  0  0  0  0  0  0  0  0  0
   -2.0278    3.4018    2.6586 H   0  0  0  0  0  0  0  0  0  0  0  0
   -0.3382    3.6073    3.1638 H   0  0  0  0  0  0  0  0  0  0  0  0
   -0.7845    3.8480    1.4636 H   0  0  0  0  0  0  0  0  0  0  0  0
  1  2  1  0  0  0  0
  2  3  1  0  0  0  0
  2  4  1  0  0  0  0
  2  5  1  0  0  0  0
  5  6  2  0  0  0  0
  5  7  1  0  0  0  0
  7  8  1  0  0  0  0
  7  9  1  0  0  0  0
  9 10  1  0  0  0  0
  9 11  1  0  0  0  0
  9 29  1  0  0  0  0
 11 12  1  0  0  0  0
 11 13  1  0  0  0  0
 11 14  1  0  0  0  0
 14 15  1  0  0  0  0
 14 16  1  0  0  0  0
 14 17  1  0  0  0  0
 17 18  1  0  0  0  0
 17 19  1  0  0  0  0
 17 20  1  0  0  0  0
 20 21  1  0  0  0  0
 20 22  2  0  0  0  0
 22 23  1  0  0  0  0
 22 26  1  0  0  0  0
 23 24  1  0  0  0  0
 23 25  1  0  0  0  0
 26 27  1  0  0  0  0
 26 28  1  0  0  0  0
 29 30  2  0  0  0  0
 29 31  1  0  0  0  0
 31 32  1  0  0  0  0
 31 33  1  0  0  0  0
 33 34  1  0  0  0  0
 33 35  1  0  0  0  0
 33 36  1  0  0  0  0
M  CHG  1  20   1
M  END
$$$$

  -OEChem-03222214013D

 36 35  0     1  0  0  0  0  0999 V2000
   -4.0031   -3.9374    2.1999 H   0  0  0  0  0  0  0  0  0  0  0  0
   -4.0415   -2.9855    1.6625 C   0  0  0  0  0  0  0  0  0  0  0  0
   -4.7651   -2.3324    2.1558 H   0  0  0  0  0  0  0  0  0  0  0  0
   -4.3689   -3.1746    0.6374 H   0  0  0  0  0  0  0  0  0  0  0  0
   -2.6722   -2.3339    1.6594 C   0  0  0  0  0  0  0  0  0  0  0  0
   -1.7386   -2.8663    2.2366 O   0  0  0  0  0  0  0  0  0  0  0  0
   -2.4770   -1.1316    1.0067 N   0  0  0  0  0  0  0  0  0  0  0  0
   -3.2954   -0.6856    0.5965 H   0  0  0  0  0  0  0  0  0  0  0  0
   -1.2111   -0.3827    1.0221 C   0  0  1  0  0  0  0  0  0  0  0  0
   -0.5856   -0.7198    1.8563 H   0  0  0  0  0  0  0  0  0  0  0  0
   -0.4602   -0.7220   -0.2933 C   0  0  0  0  0  0  0  0  0  0  0  0
    0.1470   -1.6133   -0.1004 H   0  0  0  0  0  0  0  0  0  0  0  0
   -1.1816   -0.9979   -1.0710 H   0  0  0  0  0  0  0  0  0  0  0  0
    0.4556    0.3842   -0.8496 C   0  0  0  0  0  0  0  0  0  0  0  0
    0.9000    0.9586   -0.0303 H   0  0  0  0  0  0  0  0  0  0  0  0
    1.2798   -0.0746   -1.4064 H   0  0  0  0  0  0  0  0  0  0  0  0
   -0.3340    1.2867   -1.8032 C   0  0  0  0  0  0  0  0  0  0  0  0
   -0.4218    0.7869   -2.7744 H   0  0  0  0  0  0  0  0  0  0  0  0
   -1.3495    1.4235   -1.4238 H   0  0  0  0  0  0  0  0  0  0  0  0
    0.3292    2.5926   -1.9700 N   0  3  0  0  0  0  0  0  0  0  0  0
    1.2701    2.5854   -2.3607 H   0  0  0  0  0  0  0  0  0  0  0  0
   -0.2592    3.7336   -1.7443 C   0  0  0  0  0  0  0  0  0  0  0  0
   -1.5291    3.8224   -1.2211 N   0  0  0  0  0  0  0  0  0  0  0  0
   -1.8994    2.9936   -0.7421 H   0  0  0  0  0  0  0  0  0  0  0  0
   -1.8518    4.7261   -0.8865 H   0  0  0  0  0  0  0  0  0  0  0  0
    0.4021    4.9007   -2.0434 N   0  0  0  0  0  0  0  0  0  0  0  0
    1.2464    4.8476   -2.6095 H   0  0  0  0  0  0  0  0  0  0  0  0
   -0.1403    5.7616   -2.0818 H   0  0  0  0  0  0  0  0  0  0  0  0
   -1.4711    1.1189    1.2727 C   0  0  0  0  0  0  0  0  0  0  0  0
   -2.2899    1.7387    0.5982 O   0  0  0  0  0  0  0  0  0  0  0  0
   -0.6904    1.8140    2.1783 N   0  0  0  0  0  0  0  0  0  0  0  0
   -0.1065    1.2520    2.7960 H   0  0  0  0  0  0  0  0  0  0  0  0
   -0.9522    3.1964    2.5655 C   0  0  0  0  0  0  0  0  0  0  0  0
   -1.9660    3.2975    2.9681 H   0  0  0  0  0  0  0  0  0  0  0  0
   -0.2430    3.5126    3.3372 H   0  0  0  0  0  0  0  0  0  0  0  0
   -0.8445    3.8657    1.7067 H   0  0  0  0  0  0  0  0  0  0  0  0
  1  2  1  0  0  0  0
  2  3  1  0  0  0  0
  2  4  1  0  0  0  0
  2  5  1  0  0  0  0
  5  6  2  0  0  0  0
  5  7  1  0  0  0  0
  7  8  1  0  0  0  0
  7  9  1  0  0  0  0
  9 10  1  0  0  0  0
  9 11  1  0  0  0  0
  9 29  1  0  0  0  0
 11 12  1  0  0  0  0
 11 13  1  0  0  0  0
 11 14  1  0  0  0  0
 14 15  1  0  0  0  0
 14 16  1  0  0  0  0
 14 17  1  0  0  0  0
 17 18  1  0  0  0  0
 17 19  1  0  0  0  0
 17 20  1  0  0  0  0
 20 21  1  0  0  0  0
 20 22  2  0  0  0  0
 22 23  1  0  0  0  0
 22 26  1  0  0  0  0
 23 24  1  0  0  0  0
 23 25  1  0  0  0  0
 26 27  1  0  0  0  0
 26 28  1  0  0  0  0
 29 30  2  0  0  0  0
 29 31  1  0  0  0  0
 31 32  1  0  0  0  0
 31 33  1  0  0  0  0
 33 34  1  0  0  0  0
 33 35  1  0  0  0  0
 33 36  1  0  0  0  0
M  CHG  1  20   1
M  END
$$$$

  -OEChem-03222214013D

 36 35  0     1  0  0  0  0  0999 V2000
   -3.9502   -3.9310    2.2775 H   0  0  0  0  0  0  0  0  0  0  0  0
   -4.0191   -2.9724    1.7551 C   0  0  0  0  0  0  0  0  0  0  0  0
   -4.7078   -2.3237    2.3017 H   0  0  0  0  0  0  0  0  0  0  0  0
   -4.4118   -3.1474    0.7507 H   0  0  0  0  0  0  0  0  0  0  0  0
   -2.6501   -2.3252    1.6721 C   0  0  0  0  0  0  0  0  0  0  0  0
   -1.6762   -2.8870    2.1458 O   0  0  0  0  0  0  0  0  0  0  0  0
   -2.5007   -1.0934    1.0641 N   0  0  0  0  0  0  0  0  0  0  0  0
   -3.3479   -0.6260    0.7466 H   0  0  0  0  0  0  0  0  0  0  0  0
   -1.2386   -0.3391    1.0274 C   0  0  1  0  0  0  0  0  0  0  0  0
   -0.5877   -0.7011    1.8310 H   0  0  0  0  0  0  0  0  0  0  0  0
   -0.5140   -0.6778   -0.3053 C   0  0  0  0  0  0  0  0  0  0  0  0
    0.0955   -1.5712   -0.1292 H   0  0  0  0  0  0  0  0  0  0  0  0
   -1.2611   -0.9517   -1.0587 H   0  0  0  0  0  0  0  0  0  0  0  0
    0.3842    0.4121   -0.9208 C   0  0  0  0  0  0  0  0  0  0  0  0
    1.0255    0.8254   -0.1350 H   0  0  0  0  0  0  0  0  0  0  0  0
    1.0387   -0.0388   -1.6747 H   0  0  0  0  0  0  0  0  0  0  0  0
   -0.4410    1.5224   -1.5832 C   0  0  0  0  0  0  0  0  0  0  0  0
   -0.6215    1.2455   -2.6278 H   0  0  0  0  0  0  0  0  0  0  0  0
   -1.4192    1.5919   -1.1076 H   0  0  0  0  0  0  0  0  0  0  0  0
    0.2531    2.8228   -1.5299 N   0  3  0  0  0  0  0  0  0  0  0  0
    1.2220    2.8423   -1.8442 H   0  0  0  0  0  0  0  0  0  0  0  0
   -0.3442    3.9440   -1.2372 C   0  0  0  0  0  0  0  0  0  0  0  0
   -1.6563    3.9972   -0.8254 N   0  0  0  0  0  0  0  0  0  0  0  0
   -2.0566    3.1340   -0.4410 H   0  0  0  0  0  0  0  0  0  0  0  0
   -2.0026    4.8698   -0.4365 H   0  0  0  0  0  0  0  0  0  0  0  0
    0.3494    5.1254   -1.3489 N   0  0  0  0  0  0  0  0  0  0  0  0
    1.2425    5.1199   -1.8373 H   0  0  0  0  0  0  0  0  0  0  0  0
   -0.1804    5.9950   -1.3397 H   0  0  0  0  0  0  0  0  0  0  0  0
   -1.4592    1.1514    1.3604 C   0  0  0  0  0  0  0  0  0  0  0  0
   -2.3751    1.7886    0.8469 O   0  0  0  0  0  0  0  0  0  0  0  0
   -0.6044    1.7954    2.2367 N   0  0  0  0  0  0  0  0  0  0  0  0
    0.0428    1.1987    2.7500 H   0  0  0  0  0  0  0  0  0  0  0  0
   -0.8770    3.1202    2.7849 C   0  0  0  0  0  0  0  0  0  0  0  0
   -1.8338    3.1252    3.3185 H   0  0  0  0  0  0  0  0  0  0  0  0
   -0.0890    3.4065    3.4890 H   0  0  0  0  0  0  0  0  0  0  0  0
   -0.9132    3.8697    1.9889 H   0  0  0  0  0  0  0  0  0  0  0  0
  1  2  1  0  0  0  0
  2  3  1  0  0  0  0
  2  4  1  0  0  0  0
  2  5  1  0  0  0  0
  5  6  2  0  0  0  0
  5  7  1  0  0  0  0
  7  8  1  0  0  0  0
  7  9  1  0  0  0  0
  9 10  1  0  0  0  0
  9 11  1  0  0  0  0
  9 29  1  0  0  0  0
 11 12  1  0  0  0  0
 11 13  1  0  0  0  0
 11 14  1  0  0  0  0
 14 15  1  0  0  0  0
 14 16  1  0  0  0  0
 14 17  1  0  0  0  0
 17 18  1  0  0  0  0
 17 19  1  0  0  0  0
 17 20  1  0  0  0  0
 20 21  1  0  0  0  0
 20 22  2  0  0  0  0
 22 23  1  0  0  0  0
 22 26  1  0  0  0  0
 23 24  1  0  0  0  0
 23 25  1  0  0  0  0
 26 27  1  0  0  0  0
 26 28  1  0  0  0  0
 29 30  2  0  0  0  0
 29 31  1  0  0  0  0
 31 32  1  0  0  0  0
 31 33  1  0  0  0  0
 33 34  1  0  0  0  0
 33 35  1  0  0  0  0
 33 36  1  0  0  0  0
M  CHG  1  20   1
M  END
$$$$

  -OEChem-03222214013D

 36 35  0     1  0  0  0  0  0999 V2000
   -3.9590   -4.2370    1.6186 H   0  0  0  0  0  0  0  0  0  0  0  0
   -4.0298   -3.1785    1.3518 C   0  0  0  0  0  0  0  0  0  0  0  0
   -4.7164   -2.6868    2.0448 H   0  0  0  0  0  0  0  0  0  0  0  0
   -4.4259   -3.0986    0.3368 H   0  0  0  0  0  0  0  0  0  0  0  0
   -2.6613   -2.5293    1.4286 C   0  0  0  0  0  0  0  0  0  0  0  0
   -1.6895   -3.1858    1.7652 O   0  0  0  0  0  0  0  0  0  0  0  0
   -2.5082   -1.1916    1.1199 N   0  0  0  0  0  0  0  0  0  0  0  0
   -3.3535   -0.6572    0.9252 H   0  0  0  0  0  0  0  0  0  0  0  0
   -1.2472   -0.4505    1.2766 C   0  0  1  0  0  0  0  0  0  0  0  0
   -0.5834   -0.9797    1.9689 H   0  0  0  0  0  0  0  0  0  0  0  0
   -0.5499   -0.4341   -0.1161 C   0  0  0  0  0  0  0  0  0  0  0  0
    0.0321   -1.3582   -0.2020 H   0  0  0  0  0  0  0  0  0  0  0  0
   -1.3309   -0.4836   -0.8833 H   0  0  0  0  0  0  0  0  0  0  0  0
    0.3623    0.7505   -0.5094 C   0  0  0  0  0  0  0  0  0  0  0  0
    1.2143    0.8007    0.1769 H   0  0  0  0  0  0  0  0  0  0  0  0
    0.7551    0.5471   -1.5114 H   0  0  0  0  0  0  0  0  0  0  0  0
   -0.3629    2.0953   -0.5187 C   0  0  0  0  0  0  0  0  0  0  0  0
   -1.3686    1.9434   -0.9272 H   0  0  0  0  0  0  0  0  0  0  0  0
   -0.4590    2.4579    0.5087 H   0  0  0  0  0  0  0  0  0  0  0  0
    0.3363    3.1178   -1.3122 N   0  3  0  0  0  0  0  0  0  0  0  0
    1.2308    2.8685   -1.7319 H   0  0  0  0  0  0  0  0  0  0  0  0
   -0.1501    4.3160   -1.4638 C   0  0  0  0  0  0  0  0  0  0  0  0
   -1.3462    4.6812   -0.8846 N   0  0  0  0  0  0  0  0  0  0  0  0
   -1.7794    4.0307   -0.2275 H   0  0  0  0  0  0  0  0  0  0  0  0
   -1.5819    5.6683   -0.8118 H   0  0  0  0  0  0  0  0  0  0  0  0
    0.5354    5.2441   -2.2105 N   0  0  0  0  0  0  0  0  0  0  0  0
    1.3094    4.9266   -2.7907 H   0  0  0  0  0  0  0  0  0  0  0  0
    0.0467    6.0922   -2.4918 H   0  0  0  0  0  0  0  0  0  0  0  0
   -1.5401    0.9104    1.9409 C   0  0  0  0  0  0  0  0  0  0  0  0
   -2.4289    1.6386    1.5054 O   0  0  0  0  0  0  0  0  0  0  0  0
   -0.7393    1.3669    2.9718 N   0  0  0  0  0  0  0  0  0  0  0  0
   -0.1009    0.6905    3.3865 H   0  0  0  0  0  0  0  0  0  0  0  0
   -1.0302    2.5823    3.7255 C   0  0  0  0  0  0  0  0  0  0  0  0
   -1.9990    2.4986    4.2297 H   0  0  0  0  0  0  0  0  0  0  0  0
   -0.2595    2.7503    4.4846 H   0  0  0  0  0  0  0  0  0  0  0  0
   -1.0528    3.4526    3.0619 H   0  0  0  0  0  0  0  0  0  0  0  0
  1  2  1  0  0  0  0
  2  3  1  0  0  0  0
  2  4  1  0  0  0  0
  2  5  1  0  0  0  0
  5  6  2  0  0  0  0
  5  7  1  0  0  0  0
  7  8  1  0  0  0  0
  7  9  1  0  0  0  0
  9 10  1  0  0  0  0
  9 11  1  0  0  0  0
  9 29  1  0  0  0  0
 11 12  1  0  0  0  0
 11 13  1  0  0  0  0
 11 14  1  0  0  0  0
 14 15  1  0  0  0  0
 14 16  1  0  0  0  0
 14 17  1  0  0  0  0
 17 18  1  0  0  0  0
 17 19  1  0  0  0  0
 17 20  1  0  0  0  0
 20 21  1  0  0  0  0
 20 22  2  0  0  0  0
 22 23  1  0  0  0  0
 22 26  1  0  0  0  0
 23 24  1  0  0  0  0
 23 25  1  0  0  0  0
 26 27  1  0  0  0  0
 26 28  1  0  0  0  0
 29 30  2  0  0  0  0
 29 31  1  0  0  0  0
 31 32  1  0  0  0  0
 31 33  1  0  0  0  0
 33 34  1  0  0  0  0
 33 35  1  0  0  0  0
 33 36  1  0  0  0  0
M  CHG  1  20   1
M  END
$$$$

  -OEChem-03222214013D

 36 35  0     1  0  0  0  0  0999 V2000
   -4.0612   -4.1749    1.4492 H   0  0  0  0  0  0  0  0  0  0  0  0
   -4.1011   -3.0988    1.2569 C   0  0  0  0  0  0  0  0  0  0  0  0
   -4.7685   -2.6360    1.9877 H   0  0  0  0  0  0  0  0  0  0  0  0
   -4.5005   -2.9363    0.2530 H   0  0  0  0  0  0  0  0  0  0  0  0
   -2.7132   -2.4970    1.3671 C   0  0  0  0  0  0  0  0  0  0  0  0
   -1.7593   -3.2014    1.6547 O   0  0  0  0  0  0  0  0  0  0  0  0
   -2.5225   -1.1472    1.1435 N   0  0  0  0  0  0  0  0  0  0  0  0
   -3.3530   -0.5778    0.9878 H   0  0  0  0  0  0  0  0  0  0  0  0
   -1.2392   -0.4538    1.3370 C   0  0  1  0  0  0  0  0  0  0  0  0
   -0.5878   -1.0412    1.9936 H   0  0  0  0  0  0  0  0  0  0  0  0
   -0.5490   -0.3917   -0.0631 C   0  0  0  0  0  0  0  0  0  0  0  0
   -0.0198   -1.3391   -0.2133 H   0  0  0  0  0  0  0  0  0  0  0  0
   -1.3501   -0.3616   -0.8105 H   0  0  0  0  0  0  0  0  0  0  0  0
    0.4084    0.7628   -0.4539 C   0  0  0  0  0  0  0  0  0  0  0  0
    1.3751    0.6020    0.0352 H   0  0  0  0  0  0  0  0  0  0  0  0
    0.5734    0.7060   -1.5353 H   0  0  0  0  0  0  0  0  0  0  0  0
   -0.0928    2.1563   -0.0908 C   0  0  0  0  0  0  0  0  0  0  0  0
   -1.1728    2.1787   -0.2733 H   0  0  0  0  0  0  0  0  0  0  0  0
    0.0829    2.3370    0.9748 H   0  0  0  0  0  0  0  0  0  0  0  0
    0.5429    3.2274   -0.8737 N   0  3  0  0  0  0  0  0  0  0  0  0
    1.4605    3.0446   -1.2777 H   0  0  0  0  0  0  0  0  0  0  0  0
   -0.0079    4.4012   -0.9968 C   0  0  0  0  0  0  0  0  0  0  0  0
   -1.2269    4.6847   -0.4183 N   0  0  0  0  0  0  0  0  0  0  0  0
   -1.6354    3.9915    0.2114 H   0  0  0  0  0  0  0  0  0  0  0  0
   -1.5208    5.6541   -0.3248 H   0  0  0  0  0  0  0  0  0  0  0  0
    0.6309    5.3864   -1.7111 N   0  0  0  0  0  0  0  0  0  0  0  0
    1.4249    5.1298   -2.2942 H   0  0  0  0  0  0  0  0  0  0  0  0
    0.1003    6.2169   -1.9675 H   0  0  0  0  0  0  0  0  0  0  0  0
   -1.5028    0.8675    2.0902 C   0  0  0  0  0  0  0  0  0  0  0  0
   -2.3596    1.6541    1.6932 O   0  0  0  0  0  0  0  0  0  0  0  0
   -0.6894    1.2371    3.1461 N   0  0  0  0  0  0  0  0  0  0  0  0
   -0.0760    0.5157    3.5209 H   0  0  0  0  0  0  0  0  0  0  0  0
   -0.9490    2.4097    3.9757 C   0  0  0  0  0  0  0  0  0  0  0  0
   -1.9131    2.3122    4.4867 H   0  0  0  0  0  0  0  0  0  0  0  0
   -0.1661    2.5179    4.7331 H   0  0  0  0  0  0  0  0  0  0  0  0
   -0.9642    3.3194    3.3669 H   0  0  0  0  0  0  0  0  0  0  0  0
  1  2  1  0  0  0  0
  2  3  1  0  0  0  0
  2  4  1  0  0  0  0
  2  5  1  0  0  0  0
  5  6  2  0  0  0  0
  5  7  1  0  0  0  0
  7  8  1  0  0  0  0
  7  9  1  0  0  0  0
  9 10  1  0  0  0  0
  9 11  1  0  0  0  0
  9 29  1  0  0  0  0
 11 12  1  0  0  0  0
 11 13  1  0  0  0  0
 11 14  1  0  0  0  0
 14 15  1  0  0  0  0
 14 16  1  0  0  0  0
 14 17  1  0  0  0  0
 17 18  1  0  0  0  0
 17 19  1  0  0  0  0
 17 20  1  0  0  0  0
 20 21  1  0  0  0  0
 20 22  2  0  0  0  0
 22 23  1  0  0  0  0
 22 26  1  0  0  0  0
 23 24  1  0  0  0  0
 23 25  1  0  0  0  0
 26 27  1  0  0  0  0
 26 28  1  0  0  0  0
 29 30  2  0  0  0  0
 29 31  1  0  0  0  0
 31 32  1  0  0  0  0
 31 33  1  0  0  0  0
 33 34  1  0  0  0  0
 33 35  1  0  0  0  0
 33 36  1  0  0  0  0
M  CHG  1  20   1
M  END
$$$$

  -OEChem-03222214013D

 36 35  0     1  0  0  0  0  0999 V2000
   -4.0561   -4.2168    1.4927 H   0  0  0  0  0  0  0  0  0  0  0  0
   -4.1005   -3.1429    1.2900 C   0  0  0  0  0  0  0  0  0  0  0  0
   -4.7665   -2.6753    2.0192 H   0  0  0  0  0  0  0  0  0  0  0  0
   -4.5050   -2.9916    0.2865 H   0  0  0  0  0  0  0  0  0  0  0  0
   -2.7140   -2.5359    1.3882 C   0  0  0  0  0  0  0  0  0  0  0  0
   -1.7519   -3.2405    1.6470 O   0  0  0  0  0  0  0  0  0  0  0  0
   -2.5336   -1.1803    1.1925 N   0  0  0  0  0  0  0  0  0  0  0  0
   -3.3673   -0.6126    1.0478 H   0  0  0  0  0  0  0  0  0  0  0  0
   -1.2473   -0.4867    1.3677 C   0  0  1  0  0  0  0  0  0  0  0  0
   -0.5731   -1.0851    1.9904 H   0  0  0  0  0  0  0  0  0  0  0  0
   -0.6039   -0.3929   -0.0554 C   0  0  0  0  0  0  0  0  0  0  0  0
   -0.0947   -1.3431   -0.2512 H   0  0  0  0  0  0  0  0  0  0  0  0
   -1.4379   -0.3400   -0.7645 H   0  0  0  0  0  0  0  0  0  0  0  0
    0.3439    0.7595   -0.4890 C   0  0  0  0  0  0  0  0  0  0  0  0
    1.3722    0.4551   -0.2654 H   0  0  0  0  0  0  0  0  0  0  0  0
    0.2651    0.8652   -1.5768 H   0  0  0  0  0  0  0  0  0  0  0  0
    0.1088    2.1141    0.1672 C   0  0  0  0  0  0  0  0  0  0  0  0
   -0.9688    2.3009    0.1583 H   0  0  0  0  0  0  0  0  0  0  0  0
    0.4531    2.0802    1.2060 H   0  0  0  0  0  0  0  0  0  0  0  0
    0.7758    3.2198   -0.5372 N   0  3  0  0  0  0  0  0  0  0  0  0
    1.6012    3.0024   -1.0938 H   0  0  0  0  0  0  0  0  0  0  0  0
    0.3382    4.4444   -0.4611 C   0  0  0  0  0  0  0  0  0  0  0  0
   -0.7786    4.7653    0.2818 N   0  0  0  0  0  0  0  0  0  0  0  0
   -1.3431    3.9977    0.6503 H   0  0  0  0  0  0  0  0  0  0  0  0
   -1.2400    5.6564    0.1132 H   0  0  0  0  0  0  0  0  0  0  0  0
    0.9947    5.4478   -1.1330 N   0  0  0  0  0  0  0  0  0  0  0  0
    1.9110    5.2525   -1.5313 H   0  0  0  0  0  0  0  0  0  0  0  0
    0.7708    6.4137   -0.9004 H   0  0  0  0  0  0  0  0  0  0  0  0
   -1.5063    0.8125    2.1607 C   0  0  0  0  0  0  0  0  0  0  0  0
   -2.3603    1.6136    1.7897 O   0  0  0  0  0  0  0  0  0  0  0  0
   -0.6712    1.1627    3.2070 N   0  0  0  0  0  0  0  0  0  0  0  0
   -0.0603    0.4301    3.5639 H   0  0  0  0  0  0  0  0  0  0  0  0
   -0.9068    2.3272    4.0551 C   0  0  0  0  0  0  0  0  0  0  0  0
   -1.8641    2.2333    4.5795 H   0  0  0  0  0  0  0  0  0  0  0  0
   -0.1115    2.4179    4.8018 H   0  0  0  0  0  0  0  0  0  0  0  0
   -0.9218    3.2444    3.4578 H   0  0  0  0  0  0  0  0  0  0  0  0
  1  2  1  0  0  0  0
  2  3  1  0  0  0  0
  2  4  1  0  0  0  0
  2  5  1  0  0  0  0
  5  6  2  0  0  0  0
  5  7  1  0  0  0  0
  7  8  1  0  0  0  0
  7  9  1  0  0  0  0
  9 10  1  0  0  0  0
  9 11  1  0  0  0  0
  9 29  1  0  0  0  0
 11 12  1  0  0  0  0
 11 13  1  0  0  0  0
 11 14  1  0  0  0  0
 14 15  1  0  0  0  0
 14 16  1  0  0  0  0
 14 17  1  0  0  0  0
 17 18  1  0  0  0  0
 17 19  1  0  0  0  0
 17 20  1  0  0  0  0
 20 21  1  0  0  0  0
 20 22  2  0  0  0  0
 22 23  1  0  0  0  0
 22 26  1  0  0  0  0
 23 24  1  0  0  0  0
 23 25  1  0  0  0  0
 26 27  1  0  0  0  0
 26 28  1  0  0  0  0
 29 30  2  0  0  0  0
 29 31  1  0  0  0  0
 31 32  1  0  0  0  0
 31 33  1  0  0  0  0
 33 34  1  0  0  0  0
 33 35  1  0  0  0  0
 33 36  1  0  0  0  0
M  CHG  1  20   1
M  END
$$$$

  -OEChem-03222214013D

 36 35  0     1  0  0  0  0  0999 V2000
   -4.4255   -3.7495    1.1495 H   0  0  0  0  0  0  0  0  0  0  0  0
   -4.3066   -2.6706    1.0136 C   0  0  0  0  0  0  0  0  0  0  0  0
   -4.9668   -2.1539    1.7143 H   0  0  0  0  0  0  0  0  0  0  0  0
   -4.5941   -2.4117   -0.0081 H   0  0  0  0  0  0  0  0  0  0  0  0
   -2.8654   -2.2710    1.2650 C   0  0  0  0  0  0  0  0  0  0  0  0
   -2.0396   -3.1153    1.5703 O   0  0  0  0  0  0  0  0  0  0  0  0
   -2.4801   -0.9483    1.1604 N   0  0  0  0  0  0  0  0  0  0  0  0
   -3.2086   -0.2606    0.9761 H   0  0  0  0  0  0  0  0  0  0  0  0
   -1.1269   -0.4620    1.4785 C   0  0  1  0  0  0  0  0  0  0  0  0
   -0.5757   -1.1781    2.0980 H   0  0  0  0  0  0  0  0  0  0  0  0
   -0.3941   -0.3234    0.1069 C   0  0  0  0  0  0  0  0  0  0  0  0
   -0.0181   -1.3191   -0.1544 H   0  0  0  0  0  0  0  0  0  0  0  0
   -1.1727   -0.0918   -0.6293 H   0  0  0  0  0  0  0  0  0  0  0  0
    0.7357    0.7044   -0.2067 C   0  0  0  0  0  0  0  0  0  0  0  0
    1.6744    0.1413   -0.2521 H   0  0  0  0  0  0  0  0  0  0  0  0
    0.5501    1.0669   -1.2241 H   0  0  0  0  0  0  0  0  0  0  0  0
    1.0084    1.9117    0.7067 C   0  0  0  0  0  0  0  0  0  0  0  0
    0.1882    2.1099    1.3838 H   0  0  0  0  0  0  0  0  0  0  0  0
    1.8878    1.6986    1.3248 H   0  0  0  0  0  0  0  0  0  0  0  0
    1.2317    3.1284   -0.0951 N   0  3  0  0  0  0  0  0  0  0  0  0
    2.1215    3.2064   -0.5855 H   0  0  0  0  0  0  0  0  0  0  0  0
    0.3502    4.0835   -0.2050 C   0  0  0  0  0  0  0  0  0  0  0  0
   -0.8780    4.0382    0.4189 N   0  0  0  0  0  0  0  0  0  0  0  0
   -1.1701    3.1665    0.8748 H   0  0  0  0  0  0  0  0  0  0  0  0
   -1.6096    4.6757    0.1157 H   0  0  0  0  0  0  0  0  0  0  0  0
    0.6453    5.1845   -0.9729 N   0  0  0  0  0  0  0  0  0  0  0  0
    1.6048    5.3209   -1.2842 H   0  0  0  0  0  0  0  0  0  0  0  0
    0.0512    6.0068   -0.8836 H   0  0  0  0  0  0  0  0  0  0  0  0
   -1.3150    0.8150    2.3151 C   0  0  0  0  0  0  0  0  0  0  0  0
   -1.9679    1.7520    1.8572 O   0  0  0  0  0  0  0  0  0  0  0  0
   -0.5646    1.0180    3.4586 N   0  0  0  0  0  0  0  0  0  0  0  0
   -0.1062    0.1979    3.8531 H   0  0  0  0  0  0  0  0  0  0  0  0
   -0.7182    2.1915    4.3137 C   0  0  0  0  0  0  0  0  0  0  0  0
   -1.7319    2.2348    4.7269 H   0  0  0  0  0  0  0  0  0  0  0  0
   -0.5287    3.1104    3.7493 H   0  0  0  0  0  0  0  0  0  0  0  0
   -0.0081    2.1492    5.1458 H   0  0  0  0  0  0  0  0  0  0  0  0
  1  2  1  0  0  0  0
  2  3  1  0  0  0  0
  2  4  1  0  0  0  0
  2  5  1  0  0  0  0
  5  6  2  0  0  0  0
  5  7  1  0  0  0  0
  7  8  1  0  0  0  0
  7  9  1  0  0  0  0
  9 10  1  0  0  0  0
  9 11  1  0  0  0  0
  9 29  1  0  0  0  0
 11 12  1  0  0  0  0
 11 13  1  0  0  0  0
 11 14  1  0  0  0  0
 14 15  1  0  0  0  0
 14 16  1  0  0  0  0
 14 17  1  0  0  0  0
 17 18  1  0  0  0  0
 17 19  1  0  0  0  0
 17 20  1  0  0  0  0
 20 21  1  0  0  0  0
 20 22  2  0  0  0  0
 22 23  1  0  0  0  0
 22 26  1  0  0  0  0
 23 24  1  0  0  0  0
 23 25  1  0  0  0  0
 26 27  1  0  0  0  0
 26 28  1  0  0  0  0
 29 30  2  0  0  0  0
 29 31  1  0  0  0  0
 31 32  1  0  0  0  0
 31 33  1  0  0  0  0
 33 34  1  0  0  0  0
 33 35  1  0  0  0  0
 33 36  1  0  0  0  0
M  CHG  1  20   1
M  END
$$$$

  -OEChem-03222214013D

 36 35  0     1  0  0  0  0  0999 V2000
   -4.5222   -3.7107    0.8660 H   0  0  0  0  0  0  0  0  0  0  0  0
   -4.3738   -2.6314    0.7669 C   0  0  0  0  0  0  0  0  0  0  0  0
   -5.0878   -2.1179    1.4152 H   0  0  0  0  0  0  0  0  0  0  0  0
   -4.5611   -2.3458   -0.2710 H   0  0  0  0  0  0  0  0  0  0  0  0
   -2.9564   -2.2628    1.1605 C   0  0  0  0  0  0  0  0  0  0  0  0
   -2.1892   -3.1204    1.5659 O   0  0  0  0  0  0  0  0  0  0  0  0
   -2.5260   -0.9532    1.0690 N   0  0  0  0  0  0  0  0  0  0  0  0
   -3.2058   -0.2538    0.7748 H   0  0  0  0  0  0  0  0  0  0  0  0
   -1.1885   -0.4985    1.4844 C   0  0  1  0  0  0  0  0  0  0  0  0
   -0.6950   -1.2222    2.1428 H   0  0  0  0  0  0  0  0  0  0  0  0
   -0.3802   -0.3899    0.1526 C   0  0  0  0  0  0  0  0  0  0  0  0
    0.0056   -1.3948   -0.0522 H   0  0  0  0  0  0  0  0  0  0  0  0
   -1.1013   -0.1769   -0.6454 H   0  0  0  0  0  0  0  0  0  0  0  0
    0.7870    0.6110   -0.0961 C   0  0  0  0  0  0  0  0  0  0  0  0
    1.6678    0.0318   -0.3946 H   0  0  0  0  0  0  0  0  0  0  0  0
    0.4950    1.2005   -0.9725 H   0  0  0  0  0  0  0  0  0  0  0  0
    1.2333    1.5898    0.9999 C   0  0  0  0  0  0  0  0  0  0  0  0
    0.4145    1.8764    1.6481 H   0  0  0  0  0  0  0  0  0  0  0  0
    1.9928    1.1105    1.6277 H   0  0  0  0  0  0  0  0  0  0  0  0
    1.7608    2.8252    0.3944 N   0  3  0  0  0  0  0  0  0  0  0  0
    2.7219    2.8081    0.0551 H   0  0  0  0  0  0  0  0  0  0  0  0
    1.0461    3.9088    0.2640 C   0  0  0  0  0  0  0  0  0  0  0  0
   -0.2671    3.9852    0.6792 N   0  0  0  0  0  0  0  0  0  0  0  0
   -0.7433    3.1279    0.9820 H   0  0  0  0  0  0  0  0  0  0  0  0
   -0.8474    4.7511    0.3470 H   0  0  0  0  0  0  0  0  0  0  0  0
    1.6103    5.0217   -0.3124 N   0  0  0  0  0  0  0  0  0  0  0  0
    2.6189    5.0443   -0.4477 H   0  0  0  0  0  0  0  0  0  0  0  0
    1.1205    5.9102   -0.2250 H   0  0  0  0  0  0  0  0  0  0  0  0
   -1.3950    0.7979    2.2889 C   0  0  0  0  0  0  0  0  0  0  0  0
   -1.8923    1.7812    1.7425 O   0  0  0  0  0  0  0  0  0  0  0  0
   -0.7205    0.9825    3.4832 N   0  0  0  0  0  0  0  0  0  0  0  0
   -0.3760    0.1397    3.9410 H   0  0  0  0  0  0  0  0  0  0  0  0
   -0.8500    2.1903    4.2933 C   0  0  0  0  0  0  0  0  0  0  0  0
   -1.8964    2.3559    4.5720 H   0  0  0  0  0  0  0  0  0  0  0  0
   -0.2603    2.0944    5.2108 H   0  0  0  0  0  0  0  0  0  0  0  0
   -0.4890    3.0659    3.7443 H   0  0  0  0  0  0  0  0  0  0  0  0
  1  2  1  0  0  0  0
  2  3  1  0  0  0  0
  2  4  1  0  0  0  0
  2  5  1  0  0  0  0
  5  6  2  0  0  0  0
  5  7  1  0  0  0  0
  7  8  1  0  0  0  0
  7  9  1  0  0  0  0
  9 10  1  0  0  0  0
  9 11  1  0  0  0  0
  9 29  1  0  0  0  0
 11 12  1  0  0  0  0
 11 13  1  0  0  0  0
 11 14  1  0  0  0  0
 14 15  1  0  0  0  0
 14 16  1  0  0  0  0
 14 17  1  0  0  0  0
 17 18  1  0  0  0  0
 17 19  1  0  0  0  0
 17 20  1  0  0  0  0
 20 21  1  0  0  0  0
 20 22  2  0  0  0  0
 22 23  1  0  0  0  0
 22 26  1  0  0  0  0
 23 24  1  0  0  0  0
 23 25  1  0  0  0  0
 26 27  1  0  0  0  0
 26 28  1  0  0  0  0
 29 30  2  0  0  0  0
 29 31  1  0  0  0  0
 31 32  1  0  0  0  0
 31 33  1  0  0  0  0
 33 34  1  0  0  0  0
 33 35  1  0  0  0  0
 33 36  1  0  0  0  0
M  CHG  1  20   1
M  END
$$$$

  -OEChem-03222214013D

 36 35  0     1  0  0  0  0  0999 V2000
   -4.5508   -3.6775    0.8632 H   0  0  0  0  0  0  0  0  0  0  0  0
   -4.3757   -2.6052    0.7363 C   0  0  0  0  0  0  0  0  0  0  0  0
   -5.1115   -2.0566    1.3292 H   0  0  0  0  0  0  0  0  0  0  0  0
   -4.5036   -2.3516   -0.3187 H   0  0  0  0  0  0  0  0  0  0  0  0
   -2.9732   -2.2486    1.1896 C   0  0  0  0  0  0  0  0  0  0  0  0
   -2.2463   -3.1026    1.6696 O   0  0  0  0  0  0  0  0  0  0  0  0
   -2.5112   -0.9524    1.0674 N   0  0  0  0  0  0  0  0  0  0  0  0
   -3.1543   -0.2576    0.6919 H   0  0  0  0  0  0  0  0  0  0  0  0
   -1.1790   -0.5081    1.5089 C   0  0  1  0  0  0  0  0  0  0  0  0
   -0.7145   -1.2216    2.1986 H   0  0  0  0  0  0  0  0  0  0  0  0
   -0.3537   -0.4660    0.1825 C   0  0  0  0  0  0  0  0  0  0  0  0
    0.0376   -1.4804    0.0469 H   0  0  0  0  0  0  0  0  0  0  0  0
   -1.0462   -0.2961   -0.6506 H   0  0  0  0  0  0  0  0  0  0  0  0
    0.8271    0.5114   -0.0647 C   0  0  0  0  0  0  0  0  0  0  0  0
    1.6177   -0.0290   -0.5970 H   0  0  0  0  0  0  0  0  0  0  0  0
    0.4465    1.2689   -0.7583 H   0  0  0  0  0  0  0  0  0  0  0  0
    1.4598    1.2486    1.1212 C   0  0  0  0  0  0  0  0  0  0  0  0
    0.7128    1.5729    1.8358 H   0  0  0  0  0  0  0  0  0  0  0  0
    2.1452    0.5737    1.6455 H   0  0  0  0  0  0  0  0  0  0  0  0
    2.1681    2.4546    0.6568 N   0  3  0  0  0  0  0  0  0  0  0  0
    3.1756    2.3815    0.5203 H   0  0  0  0  0  0  0  0  0  0  0  0
    1.5766    3.6077    0.5039 C   0  0  0  0  0  0  0  0  0  0  0  0
    0.2205    3.7750    0.6951 N   0  0  0  0  0  0  0  0  0  0  0  0
   -0.3501    2.9902    1.0291 H   0  0  0  0  0  0  0  0  0  0  0  0
   -0.1789    4.7094    0.7299 H   0  0  0  0  0  0  0  0  0  0  0  0
    2.3200    4.7025    0.1319 N   0  0  0  0  0  0  0  0  0  0  0  0
    3.2752    4.5616   -0.1908 H   0  0  0  0  0  0  0  0  0  0  0  0
    1.8288    5.5396   -0.1760 H   0  0  0  0  0  0  0  0  0  0  0  0
   -1.3576    0.8231    2.2662 C   0  0  0  0  0  0  0  0  0  0  0  0
   -1.7466    1.8199    1.6628 O   0  0  0  0  0  0  0  0  0  0  0  0
   -0.7021    1.0186    3.4704 N   0  0  0  0  0  0  0  0  0  0  0  0
   -0.4352    0.1745    3.9753 H   0  0  0  0  0  0  0  0  0  0  0  0
   -0.7932    2.2599    4.2337 C   0  0  0  0  0  0  0  0  0  0  0  0
   -1.8402    2.5078    4.4403 H   0  0  0  0  0  0  0  0  0  0  0  0
   -0.2701    2.1543    5.1897 H   0  0  0  0  0  0  0  0  0  0  0  0
   -0.3364    3.0883    3.6831 H   0  0  0  0  0  0  0  0  0  0  0  0
  1  2  1  0  0  0  0
  2  3  1  0  0  0  0
  2  4  1  0  0  0  0
  2  5  1  0  0  0  0
  5  6  2  0  0  0  0
  5  7  1  0  0  0  0
  7  8  1  0  0  0  0
  7  9  1  0  0  0  0
  9 10  1  0  0  0  0
  9 11  1  0  0  0  0
  9 29  1  0  0  0  0
 11 12  1  0  0  0  0
 11 13  1  0  0  0  0
 11 14  1  0  0  0  0
 14 15  1  0  0  0  0
 14 16  1  0  0  0  0
 14 17  1  0  0  0  0
 17 18  1  0  0  0  0
 17 19  1  0  0  0  0
 17 20  1  0  0  0  0
 20 21  1  0  0  0  0
 20 22  2  0  0  0  0
 22 23  1  0  0  0  0
 22 26  1  0  0  0  0
 23 24  1  0  0  0  0
 23 25  1  0  0  0  0
 26 27  1  0  0  0  0
 26 28  1  0  0  0  0
 29 30  2  0  0  0  0
 29 31  1  0  0  0  0
 31 32  1  0  0  0  0
 31 33  1  0  0  0  0
 33 34  1  0  0  0  0
 33 35  1  0  0  0  0
 33 36  1  0  0  0  0
M  CHG  1  20   1
M  END
$$$$

  -OEChem-03222214013D

 36 35  0     1  0  0  0  0  0999 V2000
   -4.5943   -3.6262    1.0108 H   0  0  0  0  0  0  0  0  0  0  0  0
   -4.3959   -2.5652    0.8344 C   0  0  0  0  0  0  0  0  0  0  0  0
   -5.1051   -1.9732    1.4177 H   0  0  0  0  0  0  0  0  0  0  0  0
   -4.5403   -2.3536   -0.2277 H   0  0  0  0  0  0  0  0  0  0  0  0
   -2.9760   -2.2260    1.2449 C   0  0  0  0  0  0  0  0  0  0  0  0
   -2.2601   -3.0787    1.7438 O   0  0  0  0  0  0  0  0  0  0  0  0
   -2.4862   -0.9463    1.0672 N   0  0  0  0  0  0  0  0  0  0  0  0
   -3.1178   -0.2513    0.6730 H   0  0  0  0  0  0  0  0  0  0  0  0
   -1.1326   -0.5228    1.4610 C   0  0  1  0  0  0  0  0  0  0  0  0
   -0.6612   -1.2313    2.1511 H   0  0  0  0  0  0  0  0  0  0  0  0
   -0.3652   -0.5326    0.1018 C   0  0  0  0  0  0  0  0  0  0  0  0
    0.0078   -1.5551   -0.0261 H   0  0  0  0  0  0  0  0  0  0  0  0
   -1.0774   -0.3606   -0.7141 H   0  0  0  0  0  0  0  0  0  0  0  0
    0.8149    0.4245   -0.1753 C   0  0  0  0  0  0  0  0  0  0  0  0
    1.4618   -0.0287   -0.9344 H   0  0  0  0  0  0  0  0  0  0  0  0
    0.3781    1.3213   -0.6270 H   0  0  0  0  0  0  0  0  0  0  0  0
    1.6765    0.8661    1.0103 C   0  0  0  0  0  0  0  0  0  0  0  0
    1.0695    1.1355    1.8682 H   0  0  0  0  0  0  0  0  0  0  0  0
    2.3242    0.0371    1.3167 H   0  0  0  0  0  0  0  0  0  0  0  0
    2.4858    2.0375    0.6273 N   0  3  0  0  0  0  0  0  0  0  0  0
    3.4393    1.8594    0.3141 H   0  0  0  0  0  0  0  0  0  0  0  0
    2.0415    3.2637    0.6624 C   0  0  0  0  0  0  0  0  0  0  0  0
    0.7539    3.5798    1.0419 N   0  0  0  0  0  0  0  0  0  0  0  0
    0.0731    2.8217    1.1620 H   0  0  0  0  0  0  0  0  0  0  0  0
    0.3870    4.4993    0.8094 H   0  0  0  0  0  0  0  0  0  0  0  0
    2.8791    4.2904    0.2977 N   0  0  0  0  0  0  0  0  0  0  0  0
    3.8734    4.0979    0.1947 H   0  0  0  0  0  0  0  0  0  0  0  0
    2.5971    5.2444    0.5149 H   0  0  0  0  0  0  0  0  0  0  0  0
   -1.2374    0.8394    2.1810 C   0  0  0  0  0  0  0  0  0  0  0  0
   -1.5840    1.8359    1.5538 O   0  0  0  0  0  0  0  0  0  0  0  0
   -0.5394    1.0486    3.3591 N   0  0  0  0  0  0  0  0  0  0  0  0
   -0.2978    0.2053    3.8779 H   0  0  0  0  0  0  0  0  0  0  0  0
   -0.6403    2.2885    4.1254 C   0  0  0  0  0  0  0  0  0  0  0  0
   -1.6901    2.5490    4.3006 H   0  0  0  0  0  0  0  0  0  0  0  0
   -0.1508    2.1707    5.0975 H   0  0  0  0  0  0  0  0  0  0  0  0
   -0.1569    3.1159    3.5985 H   0  0  0  0  0  0  0  0  0  0  0  0
  1  2  1  0  0  0  0
  2  3  1  0  0  0  0
  2  4  1  0  0  0  0
  2  5  1  0  0  0  0
  5  6  2  0  0  0  0
  5  7  1  0  0  0  0
  7  8  1  0  0  0  0
  7  9  1  0  0  0  0
  9 10  1  0  0  0  0
  9 11  1  0  0  0  0
  9 29  1  0  0  0  0
 11 12  1  0  0  0  0
 11 13  1  0  0  0  0
 11 14  1  0  0  0  0
 14 15  1  0  0  0  0
 14 16  1  0  0  0  0
 14 17  1  0  0  0  0
 17 18  1  0  0  0  0
 17 19  1  0  0  0  0
 17 20  1  0  0  0  0
 20 21  1  0  0  0  0
 20 22  2  0  0  0  0
 22 23  1  0  0  0  0
 22 26  1  0  0  0  0
 23 24  1  0  0  0  0
 23 25  1  0  0  0  0
 26 27  1  0  0  0  0
 26 28  1  0  0  0  0
 29 30  2  0  0  0  0
 29 31  1  0  0  0  0
 31 32  1  0  0  0  0
 31 33  1  0  0  0  0
 33 34  1  0  0  0  0
 33 35  1  0  0  0  0
 33 36  1  0  0  0  0
M  CHG  1  20   1
M  END
$$$$

  -OEChem-03222214013D

 36 35  0     1  0  0  0  0  0999 V2000
   -4.1041   -4.1775    1.7098 H   0  0  0  0  0  0  0  0  0  0  0  0
   -4.1006   -3.1568    1.3169 C   0  0  0  0  0  0  0  0  0  0  0  0
   -4.8641   -2.5762    1.8403 H   0  0  0  0  0  0  0  0  0  0  0  0
   -4.3435   -3.1894    0.2521 H   0  0  0  0  0  0  0  0  0  0  0  0
   -2.7370   -2.5244    1.5191 C   0  0  0  0  0  0  0  0  0  0  0  0
   -1.8342   -3.1590    2.0417 O   0  0  0  0  0  0  0  0  0  0  0  0
   -2.5092   -1.2220    1.1216 N   0  0  0  0  0  0  0  0  0  0  0  0
   -3.2984   -0.6960    0.7471 H   0  0  0  0  0  0  0  0  0  0  0  0
   -1.2450   -0.5037    1.3401 C   0  0  1  0  0  0  0  0  0  0  0  0
   -0.6130   -0.9967    2.0860 H   0  0  0  0  0  0  0  0  0  0  0  0
   -0.5416   -0.5246   -0.0461 C   0  0  0  0  0  0  0  0  0  0  0  0
    0.0222   -1.4616   -0.1042 H   0  0  0  0  0  0  0  0  0  0  0  0
   -1.3050   -0.5682   -0.8316 H   0  0  0  0  0  0  0  0  0  0  0  0
    0.4014    0.6312   -0.4355 C   0  0  0  0  0  0  0  0  0  0  0  0
    0.9533    0.3330   -1.3335 H   0  0  0  0  0  0  0  0  0  0  0  0
   -0.2167    1.4968   -0.7013 H   0  0  0  0  0  0  0  0  0  0  0  0
    1.3888    1.0589    0.6510 C   0  0  0  0  0  0  0  0  0  0  0  0
    0.8509    1.4205    1.5279 H   0  0  0  0  0  0  0  0  0  0  0  0
    1.9972    0.1957    0.9430 H   0  0  0  0  0  0  0  0  0  0  0  0
    2.2459    2.1361    0.1219 N   0  3  0  0  0  0  0  0  0  0  0  0
    2.1068    2.3986   -0.8532 H   0  0  0  0  0  0  0  0  0  0  0  0
    3.1246    2.7808    0.8332 C   0  0  0  0  0  0  0  0  0  0  0  0
    3.3625    2.4669    2.1518 N   0  0  0  0  0  0  0  0  0  0  0  0
    2.9698    1.5981    2.5072 H   0  0  0  0  0  0  0  0  0  0  0  0
    4.2126    2.8193    2.5874 H   0  0  0  0  0  0  0  0  0  0  0  0
    3.8437    3.8021    0.2594 N   0  0  0  0  0  0  0  0  0  0  0  0
    3.5537    4.1533   -0.6515 H   0  0  0  0  0  0  0  0  0  0  0  0
    4.3667    4.4298    0.8674 H   0  0  0  0  0  0  0  0  0  0  0  0
   -1.5964    0.9066    1.8611 C   0  0  0  0  0  0  0  0  0  0  0  0
   -2.3465    1.6229    1.2109 O   0  0  0  0  0  0  0  0  0  0  0  0
   -0.9132    1.4497    2.9370 N   0  0  0  0  0  0  0  0  0  0  0  0
   -0.4816    0.7766    3.5661 H   0  0  0  0  0  0  0  0  0  0  0  0
   -1.2584    2.7593    3.4842 C   0  0  0  0  0  0  0  0  0  0  0  0
   -2.2983    2.7689    3.8292 H   0  0  0  0  0  0  0  0  0  0  0  0
   -0.6106    3.0000    4.3328 H   0  0  0  0  0  0  0  0  0  0  0  0
   -1.1352    3.5399    2.7259 H   0  0  0  0  0  0  0  0  0  0  0  0
  1  2  1  0  0  0  0
  2  3  1  0  0  0  0
  2  4  1  0  0  0  0
  2  5  1  0  0  0  0
  5  6  2  0  0  0  0
  5  7  1  0  0  0  0
  7  8  1  0  0  0  0
  7  9  1  0  0  0  0
  9 10  1  0  0  0  0
  9 11  1  0  0  0  0
  9 29  1  0  0  0  0
 11 12  1  0  0  0  0
 11 13  1  0  0  0  0
 11 14  1  0  0  0  0
 14 15  1  0  0  0  0
 14 16  1  0  0  0  0
 14 17  1  0  0  0  0
 17 18  1  0  0  0  0
 17 19  1  0  0  0  0
 17 20  1  0  0  0  0
 20 21  1  0  0  0  0
 20 22  2  0  0  0  0
 22 23  1  0  0  0  0
 22 26  1  0  0  0  0
 23 24  1  0  0  0  0
 23 25  1  0  0  0  0
 26 27  1  0  0  0  0
 26 28  1  0  0  0  0
 29 30  2  0  0  0  0
 29 31  1  0  0  0  0
 31 32  1  0  0  0  0
 31 33  1  0  0  0  0
 33 34  1  0  0  0  0
 33 35  1  0  0  0  0
 33 36  1  0  0  0  0
M  CHG  1  20   1
M  END
$$$$

  -OEChem-03222214013D

 36 35  0     1  0  0  0  0  0999 V2000
   -3.9416   -4.2101    1.8505 H   0  0  0  0  0  0  0  0  0  0  0  0
   -3.9811   -3.2078    1.4148 C   0  0  0  0  0  0  0  0  0  0  0  0
   -4.7742   -2.6409    1.9082 H   0  0  0  0  0  0  0  0  0  0  0  0
   -4.2127   -3.2957    0.3507 H   0  0  0  0  0  0  0  0  0  0  0  0
   -2.6498   -2.5059    1.5991 C   0  0  0  0  0  0  0  0  0  0  0  0
   -1.7367   -3.0607    2.1910 O   0  0  0  0  0  0  0  0  0  0  0  0
   -2.4626   -1.2314    1.1026 N   0  0  0  0  0  0  0  0  0  0  0  0
   -3.2647   -0.7666    0.6773 H   0  0  0  0  0  0  0  0  0  0  0  0
   -1.2462   -0.4364    1.3197 C   0  0  1  0  0  0  0  0  0  0  0  0
   -0.6477   -0.8363    2.1448 H   0  0  0  0  0  0  0  0  0  0  0  0
   -0.4331   -0.5307    0.0011 C   0  0  0  0  0  0  0  0  0  0  0  0
    0.1781   -1.4389    0.0389 H   0  0  0  0  0  0  0  0  0  0  0  0
   -1.1329   -0.6530   -0.8336 H   0  0  0  0  0  0  0  0  0  0  0  0
    0.4590    0.6706   -0.3545 C   0  0  0  0  0  0  0  0  0  0  0  0
    0.9553    0.4651   -1.3092 H   0  0  0  0  0  0  0  0  0  0  0  0
   -0.1621    1.5620   -0.4975 H   0  0  0  0  0  0  0  0  0  0  0  0
    1.5162    0.9310    0.7178 C   0  0  0  0  0  0  0  0  0  0  0  0
    1.0324    1.1274    1.6788 H   0  0  0  0  0  0  0  0  0  0  0  0
    2.1376    0.0363    0.8249 H   0  0  0  0  0  0  0  0  0  0  0  0
    2.3325    2.0952    0.3273 N   0  3  0  0  0  0  0  0  0  0  0  0
    1.8480    2.8530   -0.1533 H   0  0  0  0  0  0  0  0  0  0  0  0
    3.6021    2.2193    0.5890 C   0  0  0  0  0  0  0  0  0  0  0  0
    4.3128    1.2384    1.2431 N   0  0  0  0  0  0  0  0  0  0  0  0
    3.8682    0.3316    1.3695 H   0  0  0  0  0  0  0  0  0  0  0  0
    5.3298    1.2712    1.2120 H   0  0  0  0  0  0  0  0  0  0  0  0
    4.2635    3.3611    0.2042 N   0  0  0  0  0  0  0  0  0  0  0  0
    3.7209    4.1554   -0.1304 H   0  0  0  0  0  0  0  0  0  0  0  0
    5.1885    3.5420    0.5903 H   0  0  0  0  0  0  0  0  0  0  0  0
   -1.6648    0.9999    1.7025 C   0  0  0  0  0  0  0  0  0  0  0  0
   -2.4502    1.6135    0.9916 O   0  0  0  0  0  0  0  0  0  0  0  0
   -1.0497    1.6564    2.7548 N   0  0  0  0  0  0  0  0  0  0  0  0
   -0.5733    1.0648    3.4312 H   0  0  0  0  0  0  0  0  0  0  0  0
   -1.4881    2.9758    3.2022 C   0  0  0  0  0  0  0  0  0  0  0  0
   -2.5297    2.9393    3.5400 H   0  0  0  0  0  0  0  0  0  0  0  0
   -0.8671    3.3215    4.0345 H   0  0  0  0  0  0  0  0  0  0  0  0
   -1.4102    3.7055    2.3892 H   0  0  0  0  0  0  0  0  0  0  0  0
  1  2  1  0  0  0  0
  2  3  1  0  0  0  0
  2  4  1  0  0  0  0
  2  5  1  0  0  0  0
  5  6  2  0  0  0  0
  5  7  1  0  0  0  0
  7  8  1  0  0  0  0
  7  9  1  0  0  0  0
  9 10  1  0  0  0  0
  9 11  1  0  0  0  0
  9 29  1  0  0  0  0
 11 12  1  0  0  0  0
 11 13  1  0  0  0  0
 11 14  1  0  0  0  0
 14 15  1  0  0  0  0
 14 16  1  0  0  0  0
 14 17  1  0  0  0  0
 17 18  1  0  0  0  0
 17 19  1  0  0  0  0
 17 20  1  0  0  0  0
 20 21  1  0  0  0  0
 20 22  2  0  0  0  0
 22 23  1  0  0  0  0
 22 26  1  0  0  0  0
 23 24  1  0  0  0  0
 23 25  1  0  0  0  0
 26 27  1  0  0  0  0
 26 28  1  0  0  0  0
 29 30  2  0  0  0  0
 29 31  1  0  0  0  0
 31 32  1  0  0  0  0
 31 33  1  0  0  0  0
 33 34  1  0  0  0  0
 33 35  1  0  0  0  0
 33 36  1  0  0  0  0
M  CHG  1  20   1
M  END
$$$$

  -OEChem-03222214013D

 36 35  0     1  0  0  0  0  0999 V2000
   -3.9280   -4.2061    1.8621 H   0  0  0  0  0  0  0  0  0  0  0  0
   -3.9889   -3.1857    1.4729 C   0  0  0  0  0  0  0  0  0  0  0  0
   -4.7356   -2.6336    2.0488 H   0  0  0  0  0  0  0  0  0  0  0  0
   -4.3027   -3.2265    0.4272 H   0  0  0  0  0  0  0  0  0  0  0  0
   -2.6390   -2.5030    1.5839 C   0  0  0  0  0  0  0  0  0  0  0  0
   -1.6955   -3.0826    2.0997 O   0  0  0  0  0  0  0  0  0  0  0  0
   -2.4668   -1.2210    1.1012 N   0  0  0  0  0  0  0  0  0  0  0  0
   -3.2891   -0.7380    0.7399 H   0  0  0  0  0  0  0  0  0  0  0  0
   -1.2318   -0.4409    1.2606 C   0  0  1  0  0  0  0  0  0  0  0  0
   -0.6061   -0.8631    2.0537 H   0  0  0  0  0  0  0  0  0  0  0  0
   -0.4620   -0.5381   -0.0824 C   0  0  0  0  0  0  0  0  0  0  0  0
    0.1339   -1.4572   -0.0848 H   0  0  0  0  0  0  0  0  0  0  0  0
   -1.1986   -0.6357   -0.8882 H   0  0  0  0  0  0  0  0  0  0  0  0
    0.4238    0.6645   -0.4537 C   0  0  0  0  0  0  0  0  0  0  0  0
    0.6994    0.5691   -1.5098 H   0  0  0  0  0  0  0  0  0  0  0  0
   -0.1211    1.6086   -0.3530 H   0  0  0  0  0  0  0  0  0  0  0  0
    1.6994    0.6734    0.3854 C   0  0  0  0  0  0  0  0  0  0  0  0
    1.4364    0.7753    1.4439 H   0  0  0  0  0  0  0  0  0  0  0  0
    2.2231   -0.2786    0.2471 H   0  0  0  0  0  0  0  0  0  0  0  0
    2.5539    1.7999   -0.0316 N   0  3  0  0  0  0  0  0  0  0  0  0
    2.0992    2.5616   -0.5342 H   0  0  0  0  0  0  0  0  0  0  0  0
    3.8293    1.8749    0.2175 C   0  0  0  0  0  0  0  0  0  0  0  0
    4.4986    0.8794    0.8926 N   0  0  0  0  0  0  0  0  0  0  0  0
    4.0114    0.0001    1.0523 H   0  0  0  0  0  0  0  0  0  0  0  0
    5.5160    0.8639    0.8577 H   0  0  0  0  0  0  0  0  0  0  0  0
    4.5373    2.9754   -0.2032 N   0  0  0  0  0  0  0  0  0  0  0  0
    4.0283    3.7843   -0.5550 H   0  0  0  0  0  0  0  0  0  0  0  0
    5.4758    3.1223    0.1639 H   0  0  0  0  0  0  0  0  0  0  0  0
   -1.5875    0.9966    1.6932 C   0  0  0  0  0  0  0  0  0  0  0  0
   -2.4130    1.6374    1.0559 O   0  0  0  0  0  0  0  0  0  0  0  0
   -0.8862    1.6136    2.7149 N   0  0  0  0  0  0  0  0  0  0  0  0
   -0.3659    1.0001    3.3368 H   0  0  0  0  0  0  0  0  0  0  0  0
   -1.2492    2.9377    3.2127 C   0  0  0  0  0  0  0  0  0  0  0  0
   -2.2635    2.9270    3.6264 H   0  0  0  0  0  0  0  0  0  0  0  0
   -0.5574    3.2509    4.0009 H   0  0  0  0  0  0  0  0  0  0  0  0
   -1.2085    3.6780    2.4065 H   0  0  0  0  0  0  0  0  0  0  0  0
  1  2  1  0  0  0  0
  2  3  1  0  0  0  0
  2  4  1  0  0  0  0
  2  5  1  0  0  0  0
  5  6  2  0  0  0  0
  5  7  1  0  0  0  0
  7  8  1  0  0  0  0
  7  9  1  0  0  0  0
  9 10  1  0  0  0  0
  9 11  1  0  0  0  0
  9 29  1  0  0  0  0
 11 12  1  0  0  0  0
 11 13  1  0  0  0  0
 11 14  1  0  0  0  0
 14 15  1  0  0  0  0
 14 16  1  0  0  0  0
 14 17  1  0  0  0  0
 17 18  1  0  0  0  0
 17 19  1  0  0  0  0
 17 20  1  0  0  0  0
 20 21  1  0  0  0  0
 20 22  2  0  0  0  0
 22 23  1  0  0  0  0
 22 26  1  0  0  0  0
 23 24  1  0  0  0  0
 23 25  1  0  0  0  0
 26 27  1  0  0  0  0
 26 28  1  0  0  0  0
 29 30  2  0  0  0  0
 29 31  1  0  0  0  0
 31 32  1  0  0  0  0
 31 33  1  0  0  0  0
 33 34  1  0  0  0  0
 33 35  1  0  0  0  0
 33 36  1  0  0  0  0
M  CHG  1  20   1
M  END
$$$$

  -OEChem-03222214013D

 36 35  0     1  0  0  0  0  0999 V2000
   -3.9076   -4.1851    1.8931 H   0  0  0  0  0  0  0  0  0  0  0  0
   -3.9649   -3.1741    1.4797 C   0  0  0  0  0  0  0  0  0  0  0  0
   -4.7095   -2.6060    2.0424 H   0  0  0  0  0  0  0  0  0  0  0  0
   -4.2784   -3.2389    0.4351 H   0  0  0  0  0  0  0  0  0  0  0  0
   -2.6128   -2.4940    1.5746 C   0  0  0  0  0  0  0  0  0  0  0  0
   -1.6598   -3.0835    2.0607 O   0  0  0  0  0  0  0  0  0  0  0  0
   -2.4478   -1.2063    1.1051 N   0  0  0  0  0  0  0  0  0  0  0  0
   -3.2773   -0.7141    0.7737 H   0  0  0  0  0  0  0  0  0  0  0  0
   -1.2097   -0.4293    1.2580 C   0  0  1  0  0  0  0  0  0  0  0  0
   -0.5728   -0.8583    2.0386 H   0  0  0  0  0  0  0  0  0  0  0  0
   -0.4585   -0.5164   -0.0967 C   0  0  0  0  0  0  0  0  0  0  0  0
    0.1180   -1.4473   -0.1271 H   0  0  0  0  0  0  0  0  0  0  0  0
   -1.2162   -0.5928   -0.8854 H   0  0  0  0  0  0  0  0  0  0  0  0
    0.4319    0.6805   -0.4857 C   0  0  0  0  0  0  0  0  0  0  0  0
    0.4771    0.7242   -1.5797 H   0  0  0  0  0  0  0  0  0  0  0  0
    0.0198    1.6369   -0.1516 H   0  0  0  0  0  0  0  0  0  0  0  0
    1.8481    0.4716    0.0448 C   0  0  0  0  0  0  0  0  0  0  0  0
    1.8215    0.4299    1.1393 H   0  0  0  0  0  0  0  0  0  0  0  0
    2.2302   -0.4843   -0.3297 H   0  0  0  0  0  0  0  0  0  0  0  0
    2.7145    1.5787   -0.3987 N   0  3  0  0  0  0  0  0  0  0  0  0
    2.2514    2.4073   -0.7712 H   0  0  0  0  0  0  0  0  0  0  0  0
    4.0148    1.5479   -0.3379 C   0  0  0  0  0  0  0  0  0  0  0  0
    4.6936    0.4534    0.1485 N   0  0  0  0  0  0  0  0  0  0  0  0
    4.1659   -0.4011    0.3152 H   0  0  0  0  0  0  0  0  0  0  0  0
    5.6905    0.3717   -0.0409 H   0  0  0  0  0  0  0  0  0  0  0  0
    4.7403    2.6323   -0.7711 N   0  0  0  0  0  0  0  0  0  0  0  0
    4.2520    3.5032   -0.9713 H   0  0  0  0  0  0  0  0  0  0  0  0
    5.7305    2.6816   -0.5376 H   0  0  0  0  0  0  0  0  0  0  0  0
   -1.5700    1.0002    1.7133 C   0  0  0  0  0  0  0  0  0  0  0  0
   -2.4155    1.6376    1.0989 O   0  0  0  0  0  0  0  0  0  0  0  0
   -0.8640    1.6117    2.7347 N   0  0  0  0  0  0  0  0  0  0  0  0
   -0.3023    1.0038    3.3253 H   0  0  0  0  0  0  0  0  0  0  0  0
   -1.2382    2.9212    3.2619 C   0  0  0  0  0  0  0  0  0  0  0  0
   -2.2626    2.9004    3.6497 H   0  0  0  0  0  0  0  0  0  0  0  0
   -0.5669    3.2099    4.0766 H   0  0  0  0  0  0  0  0  0  0  0  0
   -1.1759    3.6843    2.4788 H   0  0  0  0  0  0  0  0  0  0  0  0
  1  2  1  0  0  0  0
  2  3  1  0  0  0  0
  2  4  1  0  0  0  0
  2  5  1  0  0  0  0
  5  6  2  0  0  0  0
  5  7  1  0  0  0  0
  7  8  1  0  0  0  0
  7  9  1  0  0  0  0
  9 10  1  0  0  0  0
  9 11  1  0  0  0  0
  9 29  1  0  0  0  0
 11 12  1  0  0  0  0
 11 13  1  0  0  0  0
 11 14  1  0  0  0  0
 14 15  1  0  0  0  0
 14 16  1  0  0  0  0
 14 17  1  0  0  0  0
 17 18  1  0  0  0  0
 17 19  1  0  0  0  0
 17 20  1  0  0  0  0
 20 21  1  0  0  0  0
 20 22  2  0  0  0  0
 22 23  1  0  0  0  0
 22 26  1  0  0  0  0
 23 24  1  0  0  0  0
 23 25  1  0  0  0  0
 26 27  1  0  0  0  0
 26 28  1  0  0  0  0
 29 30  2  0  0  0  0
 29 31  1  0  0  0  0
 31 32  1  0  0  0  0
 31 33  1  0  0  0  0
 33 34  1  0  0  0  0
 33 35  1  0  0  0  0
 33 36  1  0  0  0  0
M  CHG  1  20   1
M  END
$$$$

  -OEChem-03222214013D

 36 35  0     1  0  0  0  0  0999 V2000
   -3.9583   -4.1209    1.9993 H   0  0  0  0  0  0  0  0  0  0  0  0
   -4.0012   -3.1156    1.5709 C   0  0  0  0  0  0  0  0  0  0  0  0
   -4.6877   -2.5090    2.1664 H   0  0  0  0  0  0  0  0  0  0  0  0
   -4.3793   -3.1842    0.5481 H   0  0  0  0  0  0  0  0  0  0  0  0
   -2.6205   -2.4883    1.5718 C   0  0  0  0  0  0  0  0  0  0  0  0
   -1.6553   -3.1209    1.9721 O   0  0  0  0  0  0  0  0  0  0  0  0
   -2.4454   -1.1974    1.1154 N   0  0  0  0  0  0  0  0  0  0  0  0
   -3.2801   -0.6708    0.8582 H   0  0  0  0  0  0  0  0  0  0  0  0
   -1.1754   -0.4624    1.1976 C   0  0  1  0  0  0  0  0  0  0  0  0
   -0.4982   -0.9246    1.9232 H   0  0  0  0  0  0  0  0  0  0  0  0
   -0.5248   -0.5392   -0.2096 C   0  0  0  0  0  0  0  0  0  0  0  0
    0.0122   -1.4899   -0.2993 H   0  0  0  0  0  0  0  0  0  0  0  0
   -1.3391   -0.5747   -0.9428 H   0  0  0  0  0  0  0  0  0  0  0  0
    0.3780    0.6380   -0.6426 C   0  0  0  0  0  0  0  0  0  0  0  0
    0.1371    0.8901   -1.6814 H   0  0  0  0  0  0  0  0  0  0  0  0
    0.2087    1.5417   -0.0525 H   0  0  0  0  0  0  0  0  0  0  0  0
    1.8471    0.2275   -0.5682 C   0  0  0  0  0  0  0  0  0  0  0  0
    2.0810   -0.0785    0.4575 H   0  0  0  0  0  0  0  0  0  0  0  0
    2.0154   -0.6269   -1.2337 H   0  0  0  0  0  0  0  0  0  0  0  0
    2.7003    1.3613   -0.9682 N   0  3  0  0  0  0  0  0  0  0  0  0
    2.2336    2.1678   -1.3823 H   0  0  0  0  0  0  0  0  0  0  0  0
    3.9948    1.3744   -0.8322 C   0  0  0  0  0  0  0  0  0  0  0  0
    4.6807    0.2995   -0.3140 N   0  0  0  0  0  0  0  0  0  0  0  0
    4.1748   -0.5773   -0.2043 H   0  0  0  0  0  0  0  0  0  0  0  0
    5.6889    0.2547   -0.4490 H   0  0  0  0  0  0  0  0  0  0  0  0
    4.7057    2.4867   -1.2147 N   0  0  0  0  0  0  0  0  0  0  0  0
    4.1980    3.3442   -1.4242 H   0  0  0  0  0  0  0  0  0  0  0  0
    5.6768    2.5678   -0.9187 H   0  0  0  0  0  0  0  0  0  0  0  0
   -1.4715    0.9651    1.7024 C   0  0  0  0  0  0  0  0  0  0  0  0
   -2.3298    1.6389    1.1474 O   0  0  0  0  0  0  0  0  0  0  0  0
   -0.6860    1.5384    2.6870 N   0  0  0  0  0  0  0  0  0  0  0  0
   -0.0994    0.9078    3.2274 H   0  0  0  0  0  0  0  0  0  0  0  0
   -0.9755    2.8553    3.2476 C   0  0  0  0  0  0  0  0  0  0  0  0
   -1.9649    2.8632    3.7179 H   0  0  0  0  0  0  0  0  0  0  0  0
   -0.2306    3.1182    4.0052 H   0  0  0  0  0  0  0  0  0  0  0  0
   -0.9543    3.6212    2.4650 H   0  0  0  0  0  0  0  0  0  0  0  0
  1  2  1  0  0  0  0
  2  3  1  0  0  0  0
  2  4  1  0  0  0  0
  2  5  1  0  0  0  0
  5  6  2  0  0  0  0
  5  7  1  0  0  0  0
  7  8  1  0  0  0  0
  7  9  1  0  0  0  0
  9 10  1  0  0  0  0
  9 11  1  0  0  0  0
  9 29  1  0  0  0  0
 11 12  1  0  0  0  0
 11 13  1  0  0  0  0
 11 14  1  0  0  0  0
 14 15  1  0  0  0  0
 14 16  1  0  0  0  0
 14 17  1  0  0  0  0
 17 18  1  0  0  0  0
 17 19  1  0  0  0  0
 17 20  1  0  0  0  0
 20 21  1  0  0  0  0
 20 22  2  0  0  0  0
 22 23  1  0  0  0  0
 22 26  1  0  0  0  0
 23 24  1  0  0  0  0
 23 25  1  0  0  0  0
 26 27  1  0  0  0  0
 26 28  1  0  0  0  0
 29 30  2  0  0  0  0
 29 31  1  0  0  0  0
 31 32  1  0  0  0  0
 31 33  1  0  0  0  0
 33 34  1  0  0  0  0
 33 35  1  0  0  0  0
 33 36  1  0  0  0  0
M  CHG  1  20   1
M  END
$$$$

  -OEChem-03222214013D

 36 35  0     1  0  0  0  0  0999 V2000
   -3.9574   -4.1193    1.9971 H   0  0  0  0  0  0  0  0  0  0  0  0
   -3.9986   -3.1144    1.5673 C   0  0  0  0  0  0  0  0  0  0  0  0
   -4.6788   -2.5038    2.1663 H   0  0  0  0  0  0  0  0  0  0  0  0
   -4.3836   -3.1830    0.5470 H   0  0  0  0  0  0  0  0  0  0  0  0
   -2.6148   -2.4939    1.5585 C   0  0  0  0  0  0  0  0  0  0  0  0
   -1.6498   -3.1339    1.9466 O   0  0  0  0  0  0  0  0  0  0  0  0
   -2.4369   -1.2015    1.1077 N   0  0  0  0  0  0  0  0  0  0  0  0
   -3.2714   -0.6685    0.8639 H   0  0  0  0  0  0  0  0  0  0  0  0
   -1.1654   -0.4696    1.1947 C   0  0  1  0  0  0  0  0  0  0  0  0
   -0.4852   -0.9364    1.9150 H   0  0  0  0  0  0  0  0  0  0  0  0
   -0.5247   -0.5275   -0.2173 C   0  0  0  0  0  0  0  0  0  0  0  0
    0.0230   -1.4726   -0.2999 H   0  0  0  0  0  0  0  0  0  0  0  0
   -1.3328   -0.5733   -0.9567 H   0  0  0  0  0  0  0  0  0  0  0  0
    0.3774    0.6577   -0.6340 C   0  0  0  0  0  0  0  0  0  0  0  0
   -0.0520    1.1317   -1.5239 H   0  0  0  0  0  0  0  0  0  0  0  0
    0.4392    1.4233    0.1429 H   0  0  0  0  0  0  0  0  0  0  0  0
    1.7904    0.1635   -0.9395 C   0  0  0  0  0  0  0  0  0  0  0  0
    2.2021   -0.3160   -0.0445 H   0  0  0  0  0  0  0  0  0  0  0  0
    1.7444   -0.5805   -1.7430 H   0  0  0  0  0  0  0  0  0  0  0  0
    2.6379    1.2993   -1.3469 N   0  3  0  0  0  0  0  0  0  0  0  0
    2.1653    2.1798   -1.5490 H   0  0  0  0  0  0  0  0  0  0  0  0
    3.9300    1.2235   -1.4853 C   0  0  0  0  0  0  0  0  0  0  0  0
    4.6161    0.0509   -1.2634 N   0  0  0  0  0  0  0  0  0  0  0  0
    4.0736   -0.8036   -1.1530 H   0  0  0  0  0  0  0  0  0  0  0  0
    5.5698   -0.0299   -1.6106 H   0  0  0  0  0  0  0  0  0  0  0  0
    4.6375    2.3388   -1.8660 N   0  0  0  0  0  0  0  0  0  0  0  0
    4.1698    3.2434   -1.8574 H   0  0  0  0  0  0  0  0  0  0  0  0
    5.6521    2.3251   -1.7789 H   0  0  0  0  0  0  0  0  0  0  0  0
   -1.4677    0.9550    1.7058 C   0  0  0  0  0  0  0  0  0  0  0  0
   -2.3244    1.6295    1.1487 O   0  0  0  0  0  0  0  0  0  0  0  0
   -0.6875    1.5265    2.6954 N   0  0  0  0  0  0  0  0  0  0  0  0
   -0.0925    0.8985    3.2298 H   0  0  0  0  0  0  0  0  0  0  0  0
   -0.9712    2.8456    3.2531 C   0  0  0  0  0  0  0  0  0  0  0  0
   -1.9635    2.8612    3.7169 H   0  0  0  0  0  0  0  0  0  0  0  0
   -0.2290    3.1032    4.0151 H   0  0  0  0  0  0  0  0  0  0  0  0
   -0.9388    3.6105    2.4699 H   0  0  0  0  0  0  0  0  0  0  0  0
  1  2  1  0  0  0  0
  2  3  1  0  0  0  0
  2  4  1  0  0  0  0
  2  5  1  0  0  0  0
  5  6  2  0  0  0  0
  5  7  1  0  0  0  0
  7  8  1  0  0  0  0
  7  9  1  0  0  0  0
  9 10  1  0  0  0  0
  9 11  1  0  0  0  0
  9 29  1  0  0  0  0
 11 12  1  0  0  0  0
 11 13  1  0  0  0  0
 11 14  1  0  0  0  0
 14 15  1  0  0  0  0
 14 16  1  0  0  0  0
 14 17  1  0  0  0  0
 17 18  1  0  0  0  0
 17 19  1  0  0  0  0
 17 20  1  0  0  0  0
 20 21  1  0  0  0  0
 20 22  2  0  0  0  0
 22 23  1  0  0  0  0
 22 26  1  0  0  0  0
 23 24  1  0  0  0  0
 23 25  1  0  0  0  0
 26 27  1  0  0  0  0
 26 28  1  0  0  0  0
 29 30  2  0  0  0  0
 29 31  1  0  0  0  0
 31 32  1  0  0  0  0
 31 33  1  0  0  0  0
 33 34  1  0  0  0  0
 33 35  1  0  0  0  0
 33 36  1  0  0  0  0
M  CHG  1  20   1
M  END
$$$$

  -OEChem-03222214013D

 36 35  0     1  0  0  0  0  0999 V2000
   -3.9757   -4.1152    1.9777 H   0  0  0  0  0  0  0  0  0  0  0  0
   -4.0109   -3.1046    1.5614 C   0  0  0  0  0  0  0  0  0  0  0  0
   -4.6810   -2.4960    2.1732 H   0  0  0  0  0  0  0  0  0  0  0  0
   -4.4038   -3.1564    0.5433 H   0  0  0  0  0  0  0  0  0  0  0  0
   -2.6222   -2.4960    1.5505 C   0  0  0  0  0  0  0  0  0  0  0  0
   -1.6618   -3.1446    1.9361 O   0  0  0  0  0  0  0  0  0  0  0  0
   -2.4353   -1.2059    1.0967 N   0  0  0  0  0  0  0  0  0  0  0  0
   -3.2669   -0.6665    0.8562 H   0  0  0  0  0  0  0  0  0  0  0  0
   -1.1595   -0.4822    1.1861 C   0  0  1  0  0  0  0  0  0  0  0  0
   -0.4815   -0.9538    1.9055 H   0  0  0  0  0  0  0  0  0  0  0  0
   -0.5242   -0.5354   -0.2263 C   0  0  0  0  0  0  0  0  0  0  0  0
    0.0396   -1.4725   -0.2909 H   0  0  0  0  0  0  0  0  0  0  0  0
   -1.3192   -0.5940   -0.9786 H   0  0  0  0  0  0  0  0  0  0  0  0
    0.3776    0.6553   -0.6144 C   0  0  0  0  0  0  0  0  0  0  0  0
   -0.1749    1.3236   -1.2845 H   0  0  0  0  0  0  0  0  0  0  0  0
    0.6688    1.2327    0.2675 H   0  0  0  0  0  0  0  0  0  0  0  0
    1.6594    0.1525   -1.2762 C   0  0  0  0  0  0  0  0  0  0  0  0
    2.2073   -0.4769   -0.5660 H   0  0  0  0  0  0  0  0  0  0  0  0
    1.3961   -0.4558   -2.1490 H   0  0  0  0  0  0  0  0  0  0  0  0
    2.4888    1.2987   -1.6906 N   0  3  0  0  0  0  0  0  0  0  0  0
    2.0545    2.2205   -1.6564 H   0  0  0  0  0  0  0  0  0  0  0  0
    3.7130    1.1861   -2.1186 C   0  0  0  0  0  0  0  0  0  0  0  0
    4.3364   -0.0367   -2.2216 N   0  0  0  0  0  0  0  0  0  0  0  0
    3.7617   -0.8720   -2.1287 H   0  0  0  0  0  0  0  0  0  0  0  0
    5.1919   -0.1037   -2.7693 H   0  0  0  0  0  0  0  0  0  0  0  0
    4.4104    2.3133   -2.4819 N   0  0  0  0  0  0  0  0  0  0  0  0
    4.0207    3.2265   -2.2557 H   0  0  0  0  0  0  0  0  0  0  0  0
    5.4181    2.2419   -2.6110 H   0  0  0  0  0  0  0  0  0  0  0  0
   -1.4492    0.9472    1.6923 C   0  0  0  0  0  0  0  0  0  0  0  0
   -2.3015    1.6263    1.1338 O   0  0  0  0  0  0  0  0  0  0  0  0
   -0.6661    1.5144    2.6821 N   0  0  0  0  0  0  0  0  0  0  0  0
   -0.0748    0.8829    3.2169 H   0  0  0  0  0  0  0  0  0  0  0  0
   -0.9384    2.8370    3.2367 C   0  0  0  0  0  0  0  0  0  0  0  0
   -1.9261    2.8589    3.7100 H   0  0  0  0  0  0  0  0  0  0  0  0
   -0.1876    3.0944    3.9905 H   0  0  0  0  0  0  0  0  0  0  0  0
   -0.9099    3.5985    2.4500 H   0  0  0  0  0  0  0  0  0  0  0  0
  1  2  1  0  0  0  0
  2  3  1  0  0  0  0
  2  4  1  0  0  0  0
  2  5  1  0  0  0  0
  5  6  2  0  0  0  0
  5  7  1  0  0  0  0
  7  8  1  0  0  0  0
  7  9  1  0  0  0  0
  9 10  1  0  0  0  0
  9 11  1  0  0  0  0
  9 29  1  0  0  0  0
 11 12  1  0  0  0  0
 11 13  1  0  0  0  0
 11 14  1  0  0  0  0
 14 15  1  0  0  0  0
 14 16  1  0  0  0  0
 14 17  1  0  0  0  0
 17 18  1  0  0  0  0
 17 19  1  0  0  0  0
 17 20  1  0  0  0  0
 20 21  1  0  0  0  0
 20 22  2  0  0  0  0
 22 23  1  0  0  0  0
 22 26  1  0  0  0  0
 23 24  1  0  0  0  0
 23 25  1  0  0  0  0
 26 27  1  0  0  0  0
 26 28  1  0  0  0  0
 29 30  2  0  0  0  0
 29 31  1  0  0  0  0
 31 32  1  0  0  0  0
 31 33  1  0  0  0  0
 33 34  1  0  0  0  0
 33 35  1  0  0  0  0
 33 36  1  0  0  0  0
M  CHG  1  20   1
M  END
$$$$

  -OEChem-03222214013D

 36 35  0     1  0  0  0  0  0999 V2000
   -4.0020   -4.1031    1.9981 H   0  0  0  0  0  0  0  0  0  0  0  0
   -4.0327   -3.0944    1.5765 C   0  0  0  0  0  0  0  0  0  0  0  0
   -4.6931   -2.4771    2.1903 H   0  0  0  0  0  0  0  0  0  0  0  0
   -4.4346   -3.1491    0.5620 H   0  0  0  0  0  0  0  0  0  0  0  0
   -2.6388   -2.4974    1.5508 C   0  0  0  0  0  0  0  0  0  0  0  0
   -1.6817   -3.1529    1.9317 O   0  0  0  0  0  0  0  0  0  0  0  0
   -2.4434   -1.2117    1.0884 N   0  0  0  0  0  0  0  0  0  0  0  0
   -3.2726   -0.6654    0.8563 H   0  0  0  0  0  0  0  0  0  0  0  0
   -1.1617   -0.4972    1.1666 C   0  0  1  0  0  0  0  0  0  0  0  0
   -0.4845   -0.9722    1.8844 H   0  0  0  0  0  0  0  0  0  0  0  0
   -0.5300   -0.5566   -0.2454 C   0  0  0  0  0  0  0  0  0  0  0  0
    0.0434   -1.4882   -0.3045 H   0  0  0  0  0  0  0  0  0  0  0  0
   -1.3203   -0.6174   -1.0024 H   0  0  0  0  0  0  0  0  0  0  0  0
    0.3703    0.6381   -0.6096 C   0  0  0  0  0  0  0  0  0  0  0  0
   -0.2418    1.4394   -1.0399 H   0  0  0  0  0  0  0  0  0  0  0  0
    0.8618    1.0288    0.2874 H   0  0  0  0  0  0  0  0  0  0  0  0
    1.4606    0.1949   -1.5832 C   0  0  0  0  0  0  0  0  0  0  0  0
    2.0884   -0.5625   -1.1006 H   0  0  0  0  0  0  0  0  0  0  0  0
    0.9899   -0.2544   -2.4650 H   0  0  0  0  0  0  0  0  0  0  0  0
    2.2743    1.3577   -1.9826 N   0  3  0  0  0  0  0  0  0  0  0  0
    1.9239    2.2788   -1.7215 H   0  0  0  0  0  0  0  0  0  0  0  0
    3.3719    1.2665   -2.6766 C   0  0  0  0  0  0  0  0  0  0  0  0
    3.8673    0.0517   -3.0934 N   0  0  0  0  0  0  0  0  0  0  0  0
    3.2663   -0.7645   -2.9973 H   0  0  0  0  0  0  0  0  0  0  0  0
    4.5788    0.0385   -3.8213 H   0  0  0  0  0  0  0  0  0  0  0  0
    4.0601    2.4085   -3.0105 N   0  0  0  0  0  0  0  0  0  0  0  0
    3.7974    3.2874   -2.5684 H   0  0  0  0  0  0  0  0  0  0  0  0
    5.0098    2.3182   -3.3669 H   0  0  0  0  0  0  0  0  0  0  0  0
   -1.4257    0.9399    1.6647 C   0  0  0  0  0  0  0  0  0  0  0  0
   -2.2769    1.6257    1.1122 O   0  0  0  0  0  0  0  0  0  0  0  0
   -0.6267    1.5024    2.6442 N   0  0  0  0  0  0  0  0  0  0  0  0
   -0.0340    0.8670    3.1730 H   0  0  0  0  0  0  0  0  0  0  0  0
   -0.8860    2.8261    3.2026 C   0  0  0  0  0  0  0  0  0  0  0  0
   -1.8707    2.8542    3.6818 H   0  0  0  0  0  0  0  0  0  0  0  0
   -0.1294    3.0768    3.9527 H   0  0  0  0  0  0  0  0  0  0  0  0
   -0.8567    3.5890    2.4173 H   0  0  0  0  0  0  0  0  0  0  0  0
  1  2  1  0  0  0  0
  2  3  1  0  0  0  0
  2  4  1  0  0  0  0
  2  5  1  0  0  0  0
  5  6  2  0  0  0  0
  5  7  1  0  0  0  0
  7  8  1  0  0  0  0
  7  9  1  0  0  0  0
  9 10  1  0  0  0  0
  9 11  1  0  0  0  0
  9 29  1  0  0  0  0
 11 12  1  0  0  0  0
 11 13  1  0  0  0  0
 11 14  1  0  0  0  0
 14 15  1  0  0  0  0
 14 16  1  0  0  0  0
 14 17  1  0  0  0  0
 17 18  1  0  0  0  0
 17 19  1  0  0  0  0
 17 20  1  0  0  0  0
 20 21  1  0  0  0  0
 20 22  2  0  0  0  0
 22 23  1  0  0  0  0
 22 26  1  0  0  0  0
 23 24  1  0  0  0  0
 23 25  1  0  0  0  0
 26 27  1  0  0  0  0
 26 28  1  0  0  0  0
 29 30  2  0  0  0  0
 29 31  1  0  0  0  0
 31 32  1  0  0  0  0
 31 33  1  0  0  0  0
 33 34  1  0  0  0  0
 33 35  1  0  0  0  0
 33 36  1  0  0  0  0
M  CHG  1  20   1
M  END
$$$$

  -OEChem-03222214013D

 36 35  0     1  0  0  0  0  0999 V2000
   -4.0174   -4.0932    2.0157 H   0  0  0  0  0  0  0  0  0  0  0  0
   -4.0464   -3.0875    1.5864 C   0  0  0  0  0  0  0  0  0  0  0  0
   -4.6974   -2.4616    2.2016 H   0  0  0  0  0  0  0  0  0  0  0  0
   -4.4585   -3.1470    0.5764 H   0  0  0  0  0  0  0  0  0  0  0  0
   -2.6495   -2.4984    1.5433 C   0  0  0  0  0  0  0  0  0  0  0  0
   -1.6918   -3.1591    1.9133 O   0  0  0  0  0  0  0  0  0  0  0  0
   -2.4534   -1.2128    1.0804 N   0  0  0  0  0  0  0  0  0  0  0  0
   -3.2835   -0.6625    0.8608 H   0  0  0  0  0  0  0  0  0  0  0  0
   -1.1698   -0.5006    1.1521 C   0  0  1  0  0  0  0  0  0  0  0  0
   -0.4953   -0.9783    1.8713 H   0  0  0  0  0  0  0  0  0  0  0  0
   -0.5326   -0.5694   -0.2568 C   0  0  0  0  0  0  0  0  0  0  0  0
    0.0449   -1.4984   -0.3158 H   0  0  0  0  0  0  0  0  0  0  0  0
   -1.3229   -0.6284   -1.0138 H   0  0  0  0  0  0  0  0  0  0  0  0
    0.3660    0.6252   -0.6136 C   0  0  0  0  0  0  0  0  0  0  0  0
   -0.2560    1.5046   -0.8171 H   0  0  0  0  0  0  0  0  0  0  0  0
    1.0277    0.8577    0.2280 H   0  0  0  0  0  0  0  0  0  0  0  0
    1.2165    0.2873   -1.8361 C   0  0  0  0  0  0  0  0  0  0  0  0
    1.8728   -0.5568   -1.5965 H   0  0  0  0  0  0  0  0  0  0  0  0
    0.5561   -0.0081   -2.6592 H   0  0  0  0  0  0  0  0  0  0  0  0
    2.0146    1.4635   -2.2276 N   0  3  0  0  0  0  0  0  0  0  0  0
    1.7938    2.3459   -1.7673 H   0  0  0  0  0  0  0  0  0  0  0  0
    2.9338    1.4387   -3.1491 C   0  0  0  0  0  0  0  0  0  0  0  0
    3.2428    0.2861   -3.8350 N   0  0  0  0  0  0  0  0  0  0  0  0
    2.6202   -0.5121   -3.7265 H   0  0  0  0  0  0  0  0  0  0  0  0
    3.7804    0.3600   -4.6964 H   0  0  0  0  0  0  0  0  0  0  0  0
    3.6167    2.5913   -3.4561 N   0  0  0  0  0  0  0  0  0  0  0  0
    3.5172    3.3989   -2.8439 H   0  0  0  0  0  0  0  0  0  0  0  0
    4.4601    2.5216   -4.0229 H   0  0  0  0  0  0  0  0  0  0  0  0
   -1.4165    0.9391    1.6513 C   0  0  0  0  0  0  0  0  0  0  0  0
   -2.2739    1.6284    1.1125 O   0  0  0  0  0  0  0  0  0  0  0  0
   -0.6050    1.4954    2.6239 N   0  0  0  0  0  0  0  0  0  0  0  0
   -0.0059    0.8570    3.1418 H   0  0  0  0  0  0  0  0  0  0  0  0
   -0.8513    2.8186    3.1893 C   0  0  0  0  0  0  0  0  0  0  0  0
   -1.8295    2.8494    3.6813 H   0  0  0  0  0  0  0  0  0  0  0  0
   -0.0839    3.0639    3.9301 H   0  0  0  0  0  0  0  0  0  0  0  0
   -0.8290    3.5833    2.4056 H   0  0  0  0  0  0  0  0  0  0  0  0
  1  2  1  0  0  0  0
  2  3  1  0  0  0  0
  2  4  1  0  0  0  0
  2  5  1  0  0  0  0
  5  6  2  0  0  0  0
  5  7  1  0  0  0  0
  7  8  1  0  0  0  0
  7  9  1  0  0  0  0
  9 10  1  0  0  0  0
  9 11  1  0  0  0  0
  9 29  1  0  0  0  0
 11 12  1  0  0  0  0
 11 13  1  0  0  0  0
 11 14  1  0  0  0  0
 14 15  1  0  0  0  0
 14 16  1  0  0  0  0
 14 17  1  0  0  0  0
 17 18  1  0  0  0  0
 17 19  1  0  0  0  0
 17 20  1  0  0  0  0
 20 21  1  0  0  0  0
 20 22  2  0  0  0  0
 22 23  1  0  0  0  0
 22 26  1  0  0  0  0
 23 24  1  0  0  0  0
 23 25  1  0  0  0  0
 26 27  1  0  0  0  0
 26 28  1  0  0  0  0
 29 30  2  0  0  0  0
 29 31  1  0  0  0  0
 31 32  1  0  0  0  0
 31 33  1  0  0  0  0
 33 34  1  0  0  0  0
 33 35  1  0  0  0  0
 33 36  1  0  0  0  0
M  CHG  1  20   1
M  END
$$$$

  -OEChem-03222214013D

 36 35  0     1  0  0  0  0  0999 V2000
   -4.0270   -4.0922    2.0110 H   0  0  0  0  0  0  0  0  0  0  0  0
   -4.0503   -3.0879    1.5787 C   0  0  0  0  0  0  0  0  0  0  0  0
   -4.7042   -2.4589    2.1875 H   0  0  0  0  0  0  0  0  0  0  0  0
   -4.4547   -3.1498    0.5656 H   0  0  0  0  0  0  0  0  0  0  0  0
   -2.6516   -2.5024    1.5443 C   0  0  0  0  0  0  0  0  0  0  0  0
   -1.6989   -3.1624    1.9281 O   0  0  0  0  0  0  0  0  0  0  0  0
   -2.4482   -1.2209    1.0729 N   0  0  0  0  0  0  0  0  0  0  0  0
   -3.2748   -0.6719    0.8386 H   0  0  0  0  0  0  0  0  0  0  0  0
   -1.1654   -0.5089    1.1539 C   0  0  1  0  0  0  0  0  0  0  0  0
   -0.4967   -0.9884    1.8766 H   0  0  0  0  0  0  0  0  0  0  0  0
   -0.5264   -0.5800   -0.2493 C   0  0  0  0  0  0  0  0  0  0  0  0
   -0.1779   -1.6045   -0.4204 H   0  0  0  0  0  0  0  0  0  0  0  0
   -1.2979   -0.3644   -0.9974 H   0  0  0  0  0  0  0  0  0  0  0  0
    0.6355    0.4024   -0.4633 C   0  0  0  0  0  0  0  0  0  0  0  0
    0.2861    1.4327   -0.3334 H   0  0  0  0  0  0  0  0  0  0  0  0
    1.4247    0.2093    0.2715 H   0  0  0  0  0  0  0  0  0  0  0  0
    1.1819    0.2374   -1.8799 C   0  0  0  0  0  0  0  0  0  0  0  0
    1.5763   -0.7785   -1.9954 H   0  0  0  0  0  0  0  0  0  0  0  0
    0.3637    0.3757   -2.5957 H   0  0  0  0  0  0  0  0  0  0  0  0
    2.2428    1.2302   -2.1307 N   0  3  0  0  0  0  0  0  0  0  0  0
    2.3783    1.9526   -1.4247 H   0  0  0  0  0  0  0  0  0  0  0  0
    2.9644    1.2554   -3.2140 C   0  0  0  0  0  0  0  0  0  0  0  0
    2.7932    0.3331   -4.2211 N   0  0  0  0  0  0  0  0  0  0  0  0
    1.9743   -0.2704   -4.1786 H   0  0  0  0  0  0  0  0  0  0  0  0
    3.1996    0.5256   -5.1343 H   0  0  0  0  0  0  0  0  0  0  0  0
    3.9230    2.2283   -3.3688 N   0  0  0  0  0  0  0  0  0  0  0  0
    4.1747    2.8023   -2.5663 H   0  0  0  0  0  0  0  0  0  0  0  0
    4.6081    2.1224   -4.1149 H   0  0  0  0  0  0  0  0  0  0  0  0
   -1.4053    0.9356    1.6366 C   0  0  0  0  0  0  0  0  0  0  0  0
   -2.2447    1.6279    1.0750 O   0  0  0  0  0  0  0  0  0  0  0  0
   -0.5988    1.4946    2.6118 N   0  0  0  0  0  0  0  0  0  0  0  0
   -0.0145    0.8560    3.1462 H   0  0  0  0  0  0  0  0  0  0  0  0
   -0.8370    2.8279    3.1564 C   0  0  0  0  0  0  0  0  0  0  0  0
   -1.8215    2.8769    3.6343 H   0  0  0  0  0  0  0  0  0  0  0  0
   -0.0770    3.0737    3.9046 H   0  0  0  0  0  0  0  0  0  0  0  0
   -0.7947    3.5821    2.3634 H   0  0  0  0  0  0  0  0  0  0  0  0
  1  2  1  0  0  0  0
  2  3  1  0  0  0  0
  2  4  1  0  0  0  0
  2  5  1  0  0  0  0
  5  6  2  0  0  0  0
  5  7  1  0  0  0  0
  7  8  1  0  0  0  0
  7  9  1  0  0  0  0
  9 10  1  0  0  0  0
  9 11  1  0  0  0  0
  9 29  1  0  0  0  0
 11 12  1  0  0  0  0
 11 13  1  0  0  0  0
 11 14  1  0  0  0  0
 14 15  1  0  0  0  0
 14 16  1  0  0  0  0
 14 17  1  0  0  0  0
 17 18  1  0  0  0  0
 17 19  1  0  0  0  0
 17 20  1  0  0  0  0
 20 21  1  0  0  0  0
 20 22  2  0  0  0  0
 22 23  1  0  0  0  0
 22 26  1  0  0  0  0
 23 24  1  0  0  0  0
 23 25  1  0  0  0  0
 26 27  1  0  0  0  0
 26 28  1  0  0  0  0
 29 30  2  0  0  0  0
 29 31  1  0  0  0  0
 31 32  1  0  0  0  0
 31 33  1  0  0  0  0
 33 34  1  0  0  0  0
 33 35  1  0  0  0  0
 33 36  1  0  0  0  0
M  CHG  1  20   1
M  END
$$$$

  -OEChem-03222214013D

 36 35  0     1  0  0  0  0  0999 V2000
   -4.0336   -4.0845    2.0005 H   0  0  0  0  0  0  0  0  0  0  0  0
   -4.0519   -3.0809    1.5662 C   0  0  0  0  0  0  0  0  0  0  0  0
   -4.7073   -2.4490    2.1706 H   0  0  0  0  0  0  0  0  0  0  0  0
   -4.4515   -3.1435    0.5513 H   0  0  0  0  0  0  0  0  0  0  0  0
   -2.6515   -2.4999    1.5374 C   0  0  0  0  0  0  0  0  0  0  0  0
   -1.7020   -3.1635    1.9221 O   0  0  0  0  0  0  0  0  0  0  0  0
   -2.4449   -1.2164    1.0734 N   0  0  0  0  0  0  0  0  0  0  0  0
   -3.2706   -0.6658    0.8400 H   0  0  0  0  0  0  0  0  0  0  0  0
   -1.1616   -0.5058    1.1625 C   0  0  1  0  0  0  0  0  0  0  0  0
   -0.4952   -0.9875    1.8863 H   0  0  0  0  0  0  0  0  0  0  0  0
   -0.5175   -0.5755   -0.2402 C   0  0  0  0  0  0  0  0  0  0  0  0
   -0.1815   -1.6014   -0.4269 H   0  0  0  0  0  0  0  0  0  0  0  0
   -1.2971   -0.3464   -0.9757 H   0  0  0  0  0  0  0  0  0  0  0  0
    0.6517    0.3989   -0.4711 C   0  0  0  0  0  0  0  0  0  0  0  0
    0.3966    1.4014   -0.1140 H   0  0  0  0  0  0  0  0  0  0  0  0
    1.5352    0.0544    0.0772 H   0  0  0  0  0  0  0  0  0  0  0  0
    0.9435    0.4919   -1.9679 C   0  0  0  0  0  0  0  0  0  0  0  0
    1.2507   -0.4938   -2.3352 H   0  0  0  0  0  0  0  0  0  0  0  0
    0.0269    0.7885   -2.4904 H   0  0  0  0  0  0  0  0  0  0  0  0
    2.0053    1.4841   -2.2166 N   0  3  0  0  0  0  0  0  0  0  0  0
    2.3173    2.0380   -1.4202 H   0  0  0  0  0  0  0  0  0  0  0  0
    2.5130    1.7163   -3.3929 C   0  0  0  0  0  0  0  0  0  0  0  0
    2.0988    1.0277   -4.5104 N   0  0  0  0  0  0  0  0  0  0  0  0
    1.2643    0.4497   -4.4312 H   0  0  0  0  0  0  0  0  0  0  0  0
    2.3442    1.3919   -5.4289 H   0  0  0  0  0  0  0  0  0  0  0  0
    3.4865    2.6763   -3.5352 N   0  0  0  0  0  0  0  0  0  0  0  0
    3.9169    3.0683   -2.6999 H   0  0  0  0  0  0  0  0  0  0  0  0
    4.0127    2.7118   -4.4064 H   0  0  0  0  0  0  0  0  0  0  0  0
   -1.4114    0.9350    1.6522 C   0  0  0  0  0  0  0  0  0  0  0  0
   -2.2429    1.6304    1.0819 O   0  0  0  0  0  0  0  0  0  0  0  0
   -0.6125    1.4917    2.6349 N   0  0  0  0  0  0  0  0  0  0  0  0
   -0.0310    0.8517    3.1709 H   0  0  0  0  0  0  0  0  0  0  0  0
   -0.8510    2.8252    3.1783 C   0  0  0  0  0  0  0  0  0  0  0  0
   -1.8370    2.8753    3.6525 H   0  0  0  0  0  0  0  0  0  0  0  0
   -0.0933    3.0704    3.9289 H   0  0  0  0  0  0  0  0  0  0  0  0
   -0.8047    3.5787    2.3850 H   0  0  0  0  0  0  0  0  0  0  0  0
  1  2  1  0  0  0  0
  2  3  1  0  0  0  0
  2  4  1  0  0  0  0
  2  5  1  0  0  0  0
  5  6  2  0  0  0  0
  5  7  1  0  0  0  0
  7  8  1  0  0  0  0
  7  9  1  0  0  0  0
  9 10  1  0  0  0  0
  9 11  1  0  0  0  0
  9 29  1  0  0  0  0
 11 12  1  0  0  0  0
 11 13  1  0  0  0  0
 11 14  1  0  0  0  0
 14 15  1  0  0  0  0
 14 16  1  0  0  0  0
 14 17  1  0  0  0  0
 17 18  1  0  0  0  0
 17 19  1  0  0  0  0
 17 20  1  0  0  0  0
 20 21  1  0  0  0  0
 20 22  2  0  0  0  0
 22 23  1  0  0  0  0
 22 26  1  0  0  0  0
 23 24  1  0  0  0  0
 23 25  1  0  0  0  0
 26 27  1  0  0  0  0
 26 28  1  0  0  0  0
 29 30  2  0  0  0  0
 29 31  1  0  0  0  0
 31 32  1  0  0  0  0
 31 33  1  0  0  0  0
 33 34  1  0  0  0  0
 33 35  1  0  0  0  0
 33 36  1  0  0  0  0
M  CHG  1  20   1
M  END
$$$$

  -OEChem-03222214013D

 36 35  0     1  0  0  0  0  0999 V2000
   -4.0406   -4.0772    1.9946 H   0  0  0  0  0  0  0  0  0  0  0  0
   -4.0540   -3.0718    1.5636 C   0  0  0  0  0  0  0  0  0  0  0  0
   -4.7074   -2.4393    2.1693 H   0  0  0  0  0  0  0  0  0  0  0  0
   -4.4529   -3.1292    0.5481 H   0  0  0  0  0  0  0  0  0  0  0  0
   -2.6513   -2.4954    1.5386 C   0  0  0  0  0  0  0  0  0  0  0  0
   -1.7059   -3.1608    1.9301 O   0  0  0  0  0  0  0  0  0  0  0  0
   -2.4388   -1.2124    1.0752 N   0  0  0  0  0  0  0  0  0  0  0  0
   -3.2616   -0.6596    0.8371 H   0  0  0  0  0  0  0  0  0  0  0  0
   -1.1532   -0.5061    1.1694 C   0  0  1  0  0  0  0  0  0  0  0  0
   -0.4874   -0.9889    1.8930 H   0  0  0  0  0  0  0  0  0  0  0  0
   -0.5130   -0.5760   -0.2362 C   0  0  0  0  0  0  0  0  0  0  0  0
   -0.1876   -1.6033   -0.4326 H   0  0  0  0  0  0  0  0  0  0  0  0
   -1.3024   -0.3434   -0.9602 H   0  0  0  0  0  0  0  0  0  0  0  0
    0.6644    0.3894   -0.4858 C   0  0  0  0  0  0  0  0  0  0  0  0
    0.5523    1.3113    0.0907 H   0  0  0  0  0  0  0  0  0  0  0  0
    1.6011   -0.0865   -0.1759 H   0  0  0  0  0  0  0  0  0  0  0  0
    0.7075    0.7663   -1.9663 C   0  0  0  0  0  0  0  0  0  0  0  0
    0.8800   -0.1381   -2.5606 H   0  0  0  0  0  0  0  0  0  0  0  0
   -0.2621    1.1902   -2.2514 H   0  0  0  0  0  0  0  0  0  0  0  0
    1.7761    1.7517   -2.2140 N   0  3  0  0  0  0  0  0  0  0  0  0
    2.2754    2.1097   -1.4011 H   0  0  0  0  0  0  0  0  0  0  0  0
    2.0671    2.2137   -3.3961 C   0  0  0  0  0  0  0  0  0  0  0  0
    1.3978    1.7944   -4.5235 N   0  0  0  0  0  0  0  0  0  0  0  0
    0.5528    1.2412   -4.3955 H   0  0  0  0  0  0  0  0  0  0  0  0
    1.4862    2.3426   -5.3767 H   0  0  0  0  0  0  0  0  0  0  0  0
    3.0651    3.1489   -3.5340 N   0  0  0  0  0  0  0  0  0  0  0  0
    3.6756    3.3372   -2.7413 H   0  0  0  0  0  0  0  0  0  0  0  0
    3.4175    3.3511   -4.4679 H   0  0  0  0  0  0  0  0  0  0  0  0
   -1.4115    0.9336    1.6585 C   0  0  0  0  0  0  0  0  0  0  0  0
   -2.2318    1.6307    1.0738 O   0  0  0  0  0  0  0  0  0  0  0  0
   -0.6214    1.4926    2.6471 N   0  0  0  0  0  0  0  0  0  0  0  0
   -0.0449    0.8530    3.1892 H   0  0  0  0  0  0  0  0  0  0  0  0
   -0.8721    2.8229    3.1937 C   0  0  0  0  0  0  0  0  0  0  0  0
   -1.8653    2.8673    3.6537 H   0  0  0  0  0  0  0  0  0  0  0  0
   -0.1265    3.0662    3.9573 H   0  0  0  0  0  0  0  0  0  0  0  0
   -0.8166    3.5813    2.4055 H   0  0  0  0  0  0  0  0  0  0  0  0
  1  2  1  0  0  0  0
  2  3  1  0  0  0  0
  2  4  1  0  0  0  0
  2  5  1  0  0  0  0
  5  6  2  0  0  0  0
  5  7  1  0  0  0  0
  7  8  1  0  0  0  0
  7  9  1  0  0  0  0
  9 10  1  0  0  0  0
  9 11  1  0  0  0  0
  9 29  1  0  0  0  0
 11 12  1  0  0  0  0
 11 13  1  0  0  0  0
 11 14  1  0  0  0  0
 14 15  1  0  0  0  0
 14 16  1  0  0  0  0
 14 17  1  0  0  0  0
 17 18  1  0  0  0  0
 17 19  1  0  0  0  0
 17 20  1  0  0  0  0
 20 21  1  0  0  0  0
 20 22  2  0  0  0  0
 22 23  1  0  0  0  0
 22 26  1  0  0  0  0
 23 24  1  0  0  0  0
 23 25  1  0  0  0  0
 26 27  1  0  0  0  0
 26 28  1  0  0  0  0
 29 30  2  0  0  0  0
 29 31  1  0  0  0  0
 31 32  1  0  0  0  0
 31 33  1  0  0  0  0
 33 34  1  0  0  0  0
 33 35  1  0  0  0  0
 33 36  1  0  0  0  0
M  CHG  1  20   1
M  END
$$$$

  -OEChem-03222214013D

 36 35  0     1  0  0  0  0  0999 V2000
   -4.2555   -3.5844    2.2877 H   0  0  0  0  0  0  0  0  0  0  0  0
   -4.1371   -2.7357    1.6078 C   0  0  0  0  0  0  0  0  0  0  0  0
   -4.8461   -1.9555    1.8948 H   0  0  0  0  0  0  0  0  0  0  0  0
   -4.3601   -3.0665    0.5907 H   0  0  0  0  0  0  0  0  0  0  0  0
   -2.7188   -2.2034    1.6814 C   0  0  0  0  0  0  0  0  0  0  0  0
   -1.8969   -2.7451    2.4018 O   0  0  0  0  0  0  0  0  0  0  0  0
   -2.3520   -1.0974    0.9391 N   0  0  0  0  0  0  0  0  0  0  0  0
   -3.0775   -0.6427    0.3882 H   0  0  0  0  0  0  0  0  0  0  0  0
   -1.0226   -0.4710    0.9993 C   0  0  1  0  0  0  0  0  0  0  0  0
   -0.4529   -0.8070    1.8727 H   0  0  0  0  0  0  0  0  0  0  0  0
   -0.2993   -0.9126   -0.2943 C   0  0  0  0  0  0  0  0  0  0  0  0
   -0.0384   -1.9733   -0.2084 H   0  0  0  0  0  0  0  0  0  0  0  0
   -1.0149   -0.8302   -1.1201 H   0  0  0  0  0  0  0  0  0  0  0  0
    0.9732   -0.1092   -0.6471 C   0  0  0  0  0  0  0  0  0  0  0  0
    1.0541    0.8059   -0.0573 H   0  0  0  0  0  0  0  0  0  0  0  0
    1.8616   -0.7071   -0.4153 H   0  0  0  0  0  0  0  0  0  0  0  0
    0.9585    0.2413   -2.1378 C   0  0  0  0  0  0  0  0  0  0  0  0
    1.4078   -0.5791   -2.7085 H   0  0  0  0  0  0  0  0  0  0  0  0
   -0.0749    0.3492   -2.4851 H   0  0  0  0  0  0  0  0  0  0  0  0
    1.6830    1.5005   -2.3902 N   0  3  0  0  0  0  0  0  0  0  0  0
    2.6639    1.4247   -2.6566 H   0  0  0  0  0  0  0  0  0  0  0  0
    1.1096    2.6719   -2.3833 C   0  0  0  0  0  0  0  0  0  0  0  0
   -0.2085    2.8529   -2.0249 N   0  0  0  0  0  0  0  0  0  0  0  0
   -0.6639    2.1182   -1.4734 H   0  0  0  0  0  0  0  0  0  0  0  0
   -0.5402    3.8011   -1.8696 H   0  0  0  0  0  0  0  0  0  0  0  0
    1.8385    3.7774   -2.7512 N   0  0  0  0  0  0  0  0  0  0  0  0
    2.7389    3.6360   -3.2046 H   0  0  0  0  0  0  0  0  0  0  0  0
    1.3344    4.6382   -2.9557 H   0  0  0  0  0  0  0  0  0  0  0  0
   -1.1766    1.0627    1.0833 C   0  0  0  0  0  0  0  0  0  0  0  0
   -1.7048    1.6681    0.1528 O   0  0  0  0  0  0  0  0  0  0  0  0
   -0.4209    1.7830    1.9904 N   0  0  0  0  0  0  0  0  0  0  0  0
   -0.0354    1.2590    2.7745 H   0  0  0  0  0  0  0  0  0  0  0  0
   -0.4956    3.2350    2.1140 C   0  0  0  0  0  0  0  0  0  0  0  0
   -1.5190    3.5485    2.3469 H   0  0  0  0  0  0  0  0  0  0  0  0
    0.1614    3.5798    2.9188 H   0  0  0  0  0  0  0  0  0  0  0  0
   -0.1813    3.7189    1.1840 H   0  0  0  0  0  0  0  0  0  0  0  0
  1  2  1  0  0  0  0
  2  3  1  0  0  0  0
  2  4  1  0  0  0  0
  2  5  1  0  0  0  0
  5  6  2  0  0  0  0
  5  7  1  0  0  0  0
  7  8  1  0  0  0  0
  7  9  1  0  0  0  0
  9 10  1  0  0  0  0
  9 11  1  0  0  0  0
  9 29  1  0  0  0  0
 11 12  1  0  0  0  0
 11 13  1  0  0  0  0
 11 14  1  0  0  0  0
 14 15  1  0  0  0  0
 14 16  1  0  0  0  0
 14 17  1  0  0  0  0
 17 18  1  0  0  0  0
 17 19  1  0  0  0  0
 17 20  1  0  0  0  0
 20 21  1  0  0  0  0
 20 22  2  0  0  0  0
 22 23  1  0  0  0  0
 22 26  1  0  0  0  0
 23 24  1  0  0  0  0
 23 25  1  0  0  0  0
 26 27  1  0  0  0  0
 26 28  1  0  0  0  0
 29 30  2  0  0  0  0
 29 31  1  0  0  0  0
 31 32  1  0  0  0  0
 31 33  1  0  0  0  0
 33 34  1  0  0  0  0
 33 35  1  0  0  0  0
 33 36  1  0  0  0  0
M  CHG  1  20   1
M  END
$$$$

  -OEChem-03222214013D

 36 35  0     1  0  0  0  0  0999 V2000
   -4.1627   -3.6653    2.3433 H   0  0  0  0  0  0  0  0  0  0  0  0
   -4.0894   -2.8010    1.6769 C   0  0  0  0  0  0  0  0  0  0  0  0
   -4.8176   -2.0508    1.9942 H   0  0  0  0  0  0  0  0  0  0  0  0
   -4.3252   -3.1216    0.6593 H   0  0  0  0  0  0  0  0  0  0  0  0
   -2.6885   -2.2219    1.7276 C   0  0  0  0  0  0  0  0  0  0  0  0
   -1.8332   -2.7431    2.4240 O   0  0  0  0  0  0  0  0  0  0  0  0
   -2.3749   -1.0978    0.9883 N   0  0  0  0  0  0  0  0  0  0  0  0
   -3.1263   -0.6634    0.4561 H   0  0  0  0  0  0  0  0  0  0  0  0
   -1.0596   -0.4403    1.0048 C   0  0  1  0  0  0  0  0  0  0  0  0
   -0.4530   -0.7751    1.8536 H   0  0  0  0  0  0  0  0  0  0  0  0
   -0.3732   -0.8618   -0.3143 C   0  0  0  0  0  0  0  0  0  0  0  0
   -0.0691   -1.9103   -0.2199 H   0  0  0  0  0  0  0  0  0  0  0  0
   -1.1105   -0.8225   -1.1244 H   0  0  0  0  0  0  0  0  0  0  0  0
    0.8631   -0.0209   -0.6994 C   0  0  0  0  0  0  0  0  0  0  0  0
    1.0980    0.7274    0.0619 H   0  0  0  0  0  0  0  0  0  0  0  0
    1.7395   -0.6736   -0.7764 H   0  0  0  0  0  0  0  0  0  0  0  0
    0.6120    0.6454   -2.0549 C   0  0  0  0  0  0  0  0  0  0  0  0
    0.8673   -0.0572   -2.8564 H   0  0  0  0  0  0  0  0  0  0  0  0
   -0.4540    0.8770   -2.1555 H   0  0  0  0  0  0  0  0  0  0  0  0
    1.3980    1.8849   -2.1916 N   0  3  0  0  0  0  0  0  0  0  0  0
    2.3760    1.7854   -2.4600 H   0  0  0  0  0  0  0  0  0  0  0  0
    0.8811    3.0771   -2.0835 C   0  0  0  0  0  0  0  0  0  0  0  0
   -0.4309    3.2865   -1.7215 N   0  0  0  0  0  0  0  0  0  0  0  0
   -0.9214    2.5247   -1.2396 H   0  0  0  0  0  0  0  0  0  0  0  0
   -0.7247    4.2316   -1.4917 H   0  0  0  0  0  0  0  0  0  0  0  0
    1.6647    4.1753   -2.3463 N   0  0  0  0  0  0  0  0  0  0  0  0
    2.5643    4.0329   -2.8008 H   0  0  0  0  0  0  0  0  0  0  0  0
    1.2030    5.0729   -2.4796 H   0  0  0  0  0  0  0  0  0  0  0  0
   -1.2286    1.0903    1.1163 C   0  0  0  0  0  0  0  0  0  0  0  0
   -1.8233    1.7059    0.2344 O   0  0  0  0  0  0  0  0  0  0  0  0
   -0.4450    1.8075    2.0026 N   0  0  0  0  0  0  0  0  0  0  0  0
   -0.0097    1.2707    2.7515 H   0  0  0  0  0  0  0  0  0  0  0  0
   -0.5709    3.2493    2.1905 C   0  0  0  0  0  0  0  0  0  0  0  0
   -1.5907    3.5093    2.4951 H   0  0  0  0  0  0  0  0  0  0  0  0
    0.1184    3.5897    2.9700 H   0  0  0  0  0  0  0  0  0  0  0  0
   -0.3323    3.7831    1.2656 H   0  0  0  0  0  0  0  0  0  0  0  0
  1  2  1  0  0  0  0
  2  3  1  0  0  0  0
  2  4  1  0  0  0  0
  2  5  1  0  0  0  0
  5  6  2  0  0  0  0
  5  7  1  0  0  0  0
  7  8  1  0  0  0  0
  7  9  1  0  0  0  0
  9 10  1  0  0  0  0
  9 11  1  0  0  0  0
  9 29  1  0  0  0  0
 11 12  1  0  0  0  0
 11 13  1  0  0  0  0
 11 14  1  0  0  0  0
 14 15  1  0  0  0  0
 14 16  1  0  0  0  0
 14 17  1  0  0  0  0
 17 18  1  0  0  0  0
 17 19  1  0  0  0  0
 17 20  1  0  0  0  0
 20 21  1  0  0  0  0
 20 22  2  0  0  0  0
 22 23  1  0  0  0  0
 22 26  1  0  0  0  0
 23 24  1  0  0  0  0
 23 25  1  0  0  0  0
 26 27  1  0  0  0  0
 26 28  1  0  0  0  0
 29 30  2  0  0  0  0
 29 31  1  0  0  0  0
 31 32  1  0  0  0  0
 31 33  1  0  0  0  0
 33 34  1  0  0  0  0
 33 35  1  0  0  0  0
 33 36  1  0  0  0  0
M  CHG  1  20   1
M  END
$$$$

  -OEChem-03222214013D

 36 35  0     1  0  0  0  0  0999 V2000
   -4.1303   -3.7203    2.3188 H   0  0  0  0  0  0  0  0  0  0  0  0
   -4.0883   -2.8291    1.6859 C   0  0  0  0  0  0  0  0  0  0  0  0
   -4.8158   -2.1022    2.0548 H   0  0  0  0  0  0  0  0  0  0  0  0
   -4.3500   -3.1119    0.6635 H   0  0  0  0  0  0  0  0  0  0  0  0
   -2.6943   -2.2329    1.7186 C   0  0  0  0  0  0  0  0  0  0  0  0
   -1.8163   -2.7630    2.3792 O   0  0  0  0  0  0  0  0  0  0  0  0
   -2.4127   -1.0842    1.0041 N   0  0  0  0  0  0  0  0  0  0  0  0
   -3.1809   -0.6471    0.4986 H   0  0  0  0  0  0  0  0  0  0  0  0
   -1.1056   -0.4110    1.0085 C   0  0  1  0  0  0  0  0  0  0  0  0
   -0.4883   -0.7592    1.8440 H   0  0  0  0  0  0  0  0  0  0  0  0
   -0.4215   -0.8151   -0.3171 C   0  0  0  0  0  0  0  0  0  0  0  0
   -0.0898   -1.8544   -0.2149 H   0  0  0  0  0  0  0  0  0  0  0  0
   -1.1535   -0.7985   -1.1330 H   0  0  0  0  0  0  0  0  0  0  0  0
    0.7943    0.0532   -0.6926 C   0  0  0  0  0  0  0  0  0  0  0  0
    1.1723    0.5995    0.1770 H   0  0  0  0  0  0  0  0  0  0  0  0
    1.6085   -0.5887   -1.0465 H   0  0  0  0  0  0  0  0  0  0  0  0
    0.3885    1.0035   -1.8224 C   0  0  0  0  0  0  0  0  0  0  0  0
    0.4883    0.4843   -2.7822 H   0  0  0  0  0  0  0  0  0  0  0  0
   -0.6680    1.2656   -1.7055 H   0  0  0  0  0  0  0  0  0  0  0  0
    1.2117    2.2265   -1.8193 N   0  3  0  0  0  0  0  0  0  0  0  0
    2.2040    2.1170   -2.0227 H   0  0  0  0  0  0  0  0  0  0  0  0
    0.7138    3.4236   -1.6836 C   0  0  0  0  0  0  0  0  0  0  0  0
   -0.6172    3.6435   -1.4084 N   0  0  0  0  0  0  0  0  0  0  0  0
   -1.1451    2.8672   -0.9932 H   0  0  0  0  0  0  0  0  0  0  0  0
   -0.9082    4.5820   -1.1494 H   0  0  0  0  0  0  0  0  0  0  0  0
    1.5369    4.5149   -1.8280 N   0  0  0  0  0  0  0  0  0  0  0  0
    2.4657    4.3732   -2.2199 H   0  0  0  0  0  0  0  0  0  0  0  0
    1.1041    5.4280   -1.9538 H   0  0  0  0  0  0  0  0  0  0  0  0
   -1.2672    1.1168    1.1668 C   0  0  0  0  0  0  0  0  0  0  0  0
   -1.9200    1.7638    0.3512 O   0  0  0  0  0  0  0  0  0  0  0  0
   -0.4563    1.8021    2.0544 N   0  0  0  0  0  0  0  0  0  0  0  0
    0.0118    1.2324    2.7579 H   0  0  0  0  0  0  0  0  0  0  0  0
   -0.6105    3.2255    2.3381 C   0  0  0  0  0  0  0  0  0  0  0  0
   -1.6314    3.4432    2.6707 H   0  0  0  0  0  0  0  0  0  0  0  0
    0.0801    3.5284    3.1319 H   0  0  0  0  0  0  0  0  0  0  0  0
   -0.3937    3.8249    1.4492 H   0  0  0  0  0  0  0  0  0  0  0  0
  1  2  1  0  0  0  0
  2  3  1  0  0  0  0
  2  4  1  0  0  0  0
  2  5  1  0  0  0  0
  5  6  2  0  0  0  0
  5  7  1  0  0  0  0
  7  8  1  0  0  0  0
  7  9  1  0  0  0  0
  9 10  1  0  0  0  0
  9 11  1  0  0  0  0
  9 29  1  0  0  0  0
 11 12  1  0  0  0  0
 11 13  1  0  0  0  0
 11 14  1  0  0  0  0
 14 15  1  0  0  0  0
 14 16  1  0  0  0  0
 14 17  1  0  0  0  0
 17 18  1  0  0  0  0
 17 19  1  0  0  0  0
 17 20  1  0  0  0  0
 20 21  1  0  0  0  0
 20 22  2  0  0  0  0
 22 23  1  0  0  0  0
 22 26  1  0  0  0  0
 23 24  1  0  0  0  0
 23 25  1  0  0  0  0
 26 27  1  0  0  0  0
 26 28  1  0  0  0  0
 29 30  2  0  0  0  0
 29 31  1  0  0  0  0
 31 32  1  0  0  0  0
 31 33  1  0  0  0  0
 33 34  1  0  0  0  0
 33 35  1  0  0  0  0
 33 36  1  0  0  0  0
M  CHG  1  20   1
M  END
$$$$

  -OEChem-03222214013D

 36 35  0     1  0  0  0  0  0999 V2000
   -4.0882   -3.7478    2.2930 H   0  0  0  0  0  0  0  0  0  0  0  0
   -4.0801   -2.8181    1.7168 C   0  0  0  0  0  0  0  0  0  0  0  0
   -4.7844   -2.1175    2.1715 H   0  0  0  0  0  0  0  0  0  0  0  0
   -4.3998   -3.0357    0.6950 H   0  0  0  0  0  0  0  0  0  0  0  0
   -2.6854   -2.2225    1.7091 C   0  0  0  0  0  0  0  0  0  0  0  0
   -1.7748   -2.7867    2.2930 O   0  0  0  0  0  0  0  0  0  0  0  0
   -2.4391   -1.0383    1.0409 N   0  0  0  0  0  0  0  0  0  0  0  0
   -3.2336   -0.5735    0.6050 H   0  0  0  0  0  0  0  0  0  0  0  0
   -1.1344   -0.3607    1.0151 C   0  0  1  0  0  0  0  0  0  0  0  0
   -0.5024   -0.7366    1.8274 H   0  0  0  0  0  0  0  0  0  0  0  0
   -0.4669   -0.7619   -0.3225 C   0  0  0  0  0  0  0  0  0  0  0  0
   -0.1304   -1.8001   -0.2229 H   0  0  0  0  0  0  0  0  0  0  0  0
   -1.2106   -0.7457   -1.1275 H   0  0  0  0  0  0  0  0  0  0  0  0
    0.7364    0.1029   -0.7349 C   0  0  0  0  0  0  0  0  0  0  0  0
    1.2732    0.4458    0.1558 H   0  0  0  0  0  0  0  0  0  0  0  0
    1.4354   -0.4953   -1.3296 H   0  0  0  0  0  0  0  0  0  0  0  0
    0.2462    1.2810   -1.5837 C   0  0  0  0  0  0  0  0  0  0  0  0
    0.2446    0.9811   -2.6376 H   0  0  0  0  0  0  0  0  0  0  0  0
   -0.7890    1.5085   -1.3175 H   0  0  0  0  0  0  0  0  0  0  0  0
    1.0882    2.4774   -1.4064 N   0  3  0  0  0  0  0  0  0  0  0  0
    2.0902    2.3657   -1.5534 H   0  0  0  0  0  0  0  0  0  0  0  0
    0.5966    3.6705   -1.2210 C   0  0  0  0  0  0  0  0  0  0  0  0
   -0.7498    3.8924   -1.0346 N   0  0  0  0  0  0  0  0  0  0  0  0
   -1.3090    3.0980   -0.7034 H   0  0  0  0  0  0  0  0  0  0  0  0
   -1.0474    4.8149   -0.7292 H   0  0  0  0  0  0  0  0  0  0  0  0
    1.4415    4.7548   -1.2220 N   0  0  0  0  0  0  0  0  0  0  0  0
    2.3958    4.6257   -1.5523 H   0  0  0  0  0  0  0  0  0  0  0  0
    1.0311    5.6825   -1.3103 H   0  0  0  0  0  0  0  0  0  0  0  0
   -1.2706    1.1580    1.2554 C   0  0  0  0  0  0  0  0  0  0  0  0
   -2.0204    1.8460    0.5675 O   0  0  0  0  0  0  0  0  0  0  0  0
   -0.4059    1.7884    2.1331 N   0  0  0  0  0  0  0  0  0  0  0  0
    0.1243    1.1706    2.7461 H   0  0  0  0  0  0  0  0  0  0  0  0
   -0.6020    3.1627    2.5847 C   0  0  0  0  0  0  0  0  0  0  0  0
   -1.5990    3.2849    3.0223 H   0  0  0  0  0  0  0  0  0  0  0  0
    0.1404    3.4180    3.3480 H   0  0  0  0  0  0  0  0  0  0  0  0
   -0.4939    3.8663    1.7549 H   0  0  0  0  0  0  0  0  0  0  0  0
  1  2  1  0  0  0  0
  2  3  1  0  0  0  0
  2  4  1  0  0  0  0
  2  5  1  0  0  0  0
  5  6  2  0  0  0  0
  5  7  1  0  0  0  0
  7  8  1  0  0  0  0
  7  9  1  0  0  0  0
  9 10  1  0  0  0  0
  9 11  1  0  0  0  0
  9 29  1  0  0  0  0
 11 12  1  0  0  0  0
 11 13  1  0  0  0  0
 11 14  1  0  0  0  0
 14 15  1  0  0  0  0
 14 16  1  0  0  0  0
 14 17  1  0  0  0  0
 17 18  1  0  0  0  0
 17 19  1  0  0  0  0
 17 20  1  0  0  0  0
 20 21  1  0  0  0  0
 20 22  2  0  0  0  0
 22 23  1  0  0  0  0
 22 26  1  0  0  0  0
 23 24  1  0  0  0  0
 23 25  1  0  0  0  0
 26 27  1  0  0  0  0
 26 28  1  0  0  0  0
 29 30  2  0  0  0  0
 29 31  1  0  0  0  0
 31 32  1  0  0  0  0
 31 33  1  0  0  0  0
 33 34  1  0  0  0  0
 33 35  1  0  0  0  0
 33 36  1  0  0  0  0
M  CHG  1  20   1
M  END
$$$$

  -OEChem-03222214013D

 36 35  0     1  0  0  0  0  0999 V2000
   -3.9244   -4.2127    1.8991 H   0  0  0  0  0  0  0  0  0  0  0  0
   -3.9949   -3.1917    1.5127 C   0  0  0  0  0  0  0  0  0  0  0  0
   -4.7113   -2.6346    2.1213 H   0  0  0  0  0  0  0  0  0  0  0  0
   -4.3543   -3.2306    0.4817 H   0  0  0  0  0  0  0  0  0  0  0  0
   -2.6363   -2.5197    1.5644 C   0  0  0  0  0  0  0  0  0  0  0  0
   -1.6721   -3.1189    2.0121 O   0  0  0  0  0  0  0  0  0  0  0  0
   -2.4850   -1.2238    1.1112 N   0  0  0  0  0  0  0  0  0  0  0  0
   -3.3244   -0.7330    0.8071 H   0  0  0  0  0  0  0  0  0  0  0  0
   -1.2350   -0.4564    1.2090 C   0  0  1  0  0  0  0  0  0  0  0  0
   -0.5636   -0.9099    1.9466 H   0  0  0  0  0  0  0  0  0  0  0  0
   -0.5543   -0.5473   -0.1810 C   0  0  0  0  0  0  0  0  0  0  0  0
   -0.1594   -1.5640   -0.2862 H   0  0  0  0  0  0  0  0  0  0  0  0
   -1.3172   -0.4196   -0.9571 H   0  0  0  0  0  0  0  0  0  0  0  0
    0.5879    0.4473   -0.4745 C   0  0  0  0  0  0  0  0  0  0  0  0
    1.2900    0.4641    0.3659 H   0  0  0  0  0  0  0  0  0  0  0  0
    1.1314    0.0895   -1.3557 H   0  0  0  0  0  0  0  0  0  0  0  0
    0.0652    1.8586   -0.7561 C   0  0  0  0  0  0  0  0  0  0  0  0
   -0.7145    1.7994   -1.5240 H   0  0  0  0  0  0  0  0  0  0  0  0
   -0.3788    2.2715    0.1514 H   0  0  0  0  0  0  0  0  0  0  0  0
    1.1355    2.7640   -1.2039 N   0  3  0  0  0  0  0  0  0  0  0  0
    2.0273    2.3493   -1.4704 H   0  0  0  0  0  0  0  0  0  0  0  0
    0.9668    4.0532   -1.2751 C   0  0  0  0  0  0  0  0  0  0  0  0
   -0.2275    4.6422   -0.9198 N   0  0  0  0  0  0  0  0  0  0  0  0
   -0.9403    4.0603   -0.4783 H   0  0  0  0  0  0  0  0  0  0  0  0
   -0.2620    5.6479   -0.7691 H   0  0  0  0  0  0  0  0  0  0  0  0
    1.9955    4.8540   -1.7099 N   0  0  0  0  0  0  0  0  0  0  0  0
    2.8019    4.4161   -2.1511 H   0  0  0  0  0  0  0  0  0  0  0  0
    1.7855    5.8202   -1.9535 H   0  0  0  0  0  0  0  0  0  0  0  0
   -1.5359    0.9702    1.7086 C   0  0  0  0  0  0  0  0  0  0  0  0
   -2.3633    1.6695    1.1323 O   0  0  0  0  0  0  0  0  0  0  0  0
   -0.7497    1.5376    2.6954 N   0  0  0  0  0  0  0  0  0  0  0  0
   -0.1660    0.8960    3.2288 H   0  0  0  0  0  0  0  0  0  0  0  0
   -1.0417    2.8402    3.2857 C   0  0  0  0  0  0  0  0  0  0  0  0
   -2.0188    2.8264    3.7810 H   0  0  0  0  0  0  0  0  0  0  0  0
   -0.2809    3.0968    4.0297 H   0  0  0  0  0  0  0  0  0  0  0  0
   -1.0482    3.6212    2.5186 H   0  0  0  0  0  0  0  0  0  0  0  0
  1  2  1  0  0  0  0
  2  3  1  0  0  0  0
  2  4  1  0  0  0  0
  2  5  1  0  0  0  0
  5  6  2  0  0  0  0
  5  7  1  0  0  0  0
  7  8  1  0  0  0  0
  7  9  1  0  0  0  0
  9 10  1  0  0  0  0
  9 11  1  0  0  0  0
  9 29  1  0  0  0  0
 11 12  1  0  0  0  0
 11 13  1  0  0  0  0
 11 14  1  0  0  0  0
 14 15  1  0  0  0  0
 14 16  1  0  0  0  0
 14 17  1  0  0  0  0
 17 18  1  0  0  0  0
 17 19  1  0  0  0  0
 17 20  1  0  0  0  0
 20 21  1  0  0  0  0
 20 22  2  0  0  0  0
 22 23  1  0  0  0  0
 22 26  1  0  0  0  0
 23 24  1  0  0  0  0
 23 25  1  0  0  0  0
 26 27  1  0  0  0  0
 26 28  1  0  0  0  0
 29 30  2  0  0  0  0
 29 31  1  0  0  0  0
 31 32  1  0  0  0  0
 31 33  1  0  0  0  0
 33 34  1  0  0  0  0
 33 35  1  0  0  0  0
 33 36  1  0  0  0  0
M  CHG  1  20   1
M  END
$$$$

  -OEChem-03222214013D

 36 35  0     1  0  0  0  0  0999 V2000
   -4.0542   -4.1672    1.5434 H   0  0  0  0  0  0  0  0  0  0  0  0
   -4.0758   -3.1139    1.2496 C   0  0  0  0  0  0  0  0  0  0  0  0
   -4.8101   -2.5919    1.8678 H   0  0  0  0  0  0  0  0  0  0  0  0
   -4.3777   -3.0481    0.2017 H   0  0  0  0  0  0  0  0  0  0  0  0
   -2.7042   -2.4938    1.4349 C   0  0  0  0  0  0  0  0  0  0  0  0
   -1.7823   -3.1629    1.8725 O   0  0  0  0  0  0  0  0  0  0  0  0
   -2.4912   -1.1677    1.1117 N   0  0  0  0  0  0  0  0  0  0  0  0
   -3.2976   -0.6223    0.8116 H   0  0  0  0  0  0  0  0  0  0  0  0
   -1.2199   -0.4607    1.3277 C   0  0  1  0  0  0  0  0  0  0  0  0
   -0.5882   -1.0013    2.0409 H   0  0  0  0  0  0  0  0  0  0  0  0
   -0.5053   -0.4594   -0.0525 C   0  0  0  0  0  0  0  0  0  0  0  0
   -0.1673   -1.4823   -0.2516 H   0  0  0  0  0  0  0  0  0  0  0  0
   -1.2513   -0.2158   -0.8174 H   0  0  0  0  0  0  0  0  0  0  0  0
    0.6897    0.4926   -0.2784 C   0  0  0  0  0  0  0  0  0  0  0  0
    1.5000    0.2361    0.4124 H   0  0  0  0  0  0  0  0  0  0  0  0
    1.0570    0.3276   -1.2970 H   0  0  0  0  0  0  0  0  0  0  0  0
    0.3198    1.9651   -0.1063 C   0  0  0  0  0  0  0  0  0  0  0  0
   -0.6935    2.1092   -0.4985 H   0  0  0  0  0  0  0  0  0  0  0  0
    0.3141    2.2137    0.9595 H   0  0  0  0  0  0  0  0  0  0  0  0
    1.2405    2.8723   -0.8089 N   0  3  0  0  0  0  0  0  0  0  0  0
    2.0858    2.4740   -1.2156 H   0  0  0  0  0  0  0  0  0  0  0  0
    0.9812    4.1408   -0.9463 C   0  0  0  0  0  0  0  0  0  0  0  0
   -0.1639    4.6990   -0.4196 N   0  0  0  0  0  0  0  0  0  0  0  0
   -0.8738    4.0670   -0.0468 H   0  0  0  0  0  0  0  0  0  0  0  0
   -0.4649    5.6112   -0.7553 H   0  0  0  0  0  0  0  0  0  0  0  0
    1.8579    4.9482   -1.6306 N   0  0  0  0  0  0  0  0  0  0  0  0
    2.7777    4.5826   -1.8692 H   0  0  0  0  0  0  0  0  0  0  0  0
    1.7485    5.9579   -1.5552 H   0  0  0  0  0  0  0  0  0  0  0  0
   -1.5114    0.9207    1.9489 C   0  0  0  0  0  0  0  0  0  0  0  0
   -2.2681    1.7059    1.3847 O   0  0  0  0  0  0  0  0  0  0  0  0
   -0.7578    1.3709    3.0187 N   0  0  0  0  0  0  0  0  0  0  0  0
   -0.2275    0.6640    3.5251 H   0  0  0  0  0  0  0  0  0  0  0  0
   -1.0315    2.6328    3.6996 C   0  0  0  0  0  0  0  0  0  0  0  0
   -2.0470    2.6338    4.1106 H   0  0  0  0  0  0  0  0  0  0  0  0
   -0.3260    2.7794    4.5237 H   0  0  0  0  0  0  0  0  0  0  0  0
   -0.9312    3.4756    3.0082 H   0  0  0  0  0  0  0  0  0  0  0  0
  1  2  1  0  0  0  0
  2  3  1  0  0  0  0
  2  4  1  0  0  0  0
  2  5  1  0  0  0  0
  5  6  2  0  0  0  0
  5  7  1  0  0  0  0
  7  8  1  0  0  0  0
  7  9  1  0  0  0  0
  9 10  1  0  0  0  0
  9 11  1  0  0  0  0
  9 29  1  0  0  0  0
 11 12  1  0  0  0  0
 11 13  1  0  0  0  0
 11 14  1  0  0  0  0
 14 15  1  0  0  0  0
 14 16  1  0  0  0  0
 14 17  1  0  0  0  0
 17 18  1  0  0  0  0
 17 19  1  0  0  0  0
 17 20  1  0  0  0  0
 20 21  1  0  0  0  0
 20 22  2  0  0  0  0
 22 23  1  0  0  0  0
 22 26  1  0  0  0  0
 23 24  1  0  0  0  0
 23 25  1  0  0  0  0
 26 27  1  0  0  0  0
 26 28  1  0  0  0  0
 29 30  2  0  0  0  0
 29 31  1  0  0  0  0
 31 32  1  0  0  0  0
 31 33  1  0  0  0  0
 33 34  1  0  0  0  0
 33 35  1  0  0  0  0
 33 36  1  0  0  0  0
M  CHG  1  20   1
M  END
$$$$

  -OEChem-03222214013D

 36 35  0     1  0  0  0  0  0999 V2000
   -4.1313   -4.1315    1.4364 H   0  0  0  0  0  0  0  0  0  0  0  0
   -4.1267   -3.0701    1.1729 C   0  0  0  0  0  0  0  0  0  0  0  0
   -4.8491   -2.5488    1.8055 H   0  0  0  0  0  0  0  0  0  0  0  0
   -4.4249   -2.9668    0.1271 H   0  0  0  0  0  0  0  0  0  0  0  0
   -2.7415   -2.4881    1.3779 C   0  0  0  0  0  0  0  0  0  0  0  0
   -1.8308   -3.1962    1.7757 O   0  0  0  0  0  0  0  0  0  0  0  0
   -2.5059   -1.1505    1.1259 N   0  0  0  0  0  0  0  0  0  0  0  0
   -3.3020   -0.5768    0.8513 H   0  0  0  0  0  0  0  0  0  0  0  0
   -1.2232   -0.4783    1.3832 C   0  0  1  0  0  0  0  0  0  0  0  0
   -0.6032   -1.0641    2.0705 H   0  0  0  0  0  0  0  0  0  0  0  0
   -0.5088   -0.4294   -0.0002 C   0  0  0  0  0  0  0  0  0  0  0  0
   -0.2139   -1.4519   -0.2611 H   0  0  0  0  0  0  0  0  0  0  0  0
   -1.2605   -0.1196   -0.7353 H   0  0  0  0  0  0  0  0  0  0  0  0
    0.7120    0.4940   -0.2327 C   0  0  0  0  0  0  0  0  0  0  0  0
    1.5930    0.0404    0.2341 H   0  0  0  0  0  0  0  0  0  0  0  0
    0.8961    0.5348   -1.3120 H   0  0  0  0  0  0  0  0  0  0  0  0
    0.5509    1.9110    0.3092 C   0  0  0  0  0  0  0  0  0  0  0  0
   -0.4828    2.2213    0.1271 H   0  0  0  0  0  0  0  0  0  0  0  0
    0.7275    1.9092    1.3895 H   0  0  0  0  0  0  0  0  0  0  0  0
    1.4578    2.8730   -0.3371 N   0  3  0  0  0  0  0  0  0  0  0  0
    2.3488    2.5243   -0.6877 H   0  0  0  0  0  0  0  0  0  0  0  0
    1.1609    4.1362   -0.4497 C   0  0  0  0  0  0  0  0  0  0  0  0
   -0.0338    4.6426    0.0164 N   0  0  0  0  0  0  0  0  0  0  0  0
   -0.7490    3.9788    0.3174 H   0  0  0  0  0  0  0  0  0  0  0  0
   -0.3399    5.5562   -0.3109 H   0  0  0  0  0  0  0  0  0  0  0  0
    2.0533    4.9949   -1.0455 N   0  0  0  0  0  0  0  0  0  0  0  0
    2.9995    4.6676   -1.2301 H   0  0  0  0  0  0  0  0  0  0  0  0
    1.9056    5.9971   -0.9407 H   0  0  0  0  0  0  0  0  0  0  0  0
   -1.5106    0.8706    2.0761 C   0  0  0  0  0  0  0  0  0  0  0  0
   -2.2453    1.6965    1.5422 O   0  0  0  0  0  0  0  0  0  0  0  0
   -0.7632    1.2565    3.1753 N   0  0  0  0  0  0  0  0  0  0  0  0
   -0.2497    0.5181    3.6533 H   0  0  0  0  0  0  0  0  0  0  0  0
   -1.0181    2.4926    3.9087 C   0  0  0  0  0  0  0  0  0  0  0  0
   -2.0415    2.5024    4.2992 H   0  0  0  0  0  0  0  0  0  0  0  0
   -0.3261    2.5827    4.7524 H   0  0  0  0  0  0  0  0  0  0  0  0
   -0.8827    3.3631    3.2588 H   0  0  0  0  0  0  0  0  0  0  0  0
  1  2  1  0  0  0  0
  2  3  1  0  0  0  0
  2  4  1  0  0  0  0
  2  5  1  0  0  0  0
  5  6  2  0  0  0  0
  5  7  1  0  0  0  0
  7  8  1  0  0  0  0
  7  9  1  0  0  0  0
  9 10  1  0  0  0  0
  9 11  1  0  0  0  0
  9 29  1  0  0  0  0
 11 12  1  0  0  0  0
 11 13  1  0  0  0  0
 11 14  1  0  0  0  0
 14 15  1  0  0  0  0
 14 16  1  0  0  0  0
 14 17  1  0  0  0  0
 17 18  1  0  0  0  0
 17 19  1  0  0  0  0
 17 20  1  0  0  0  0
 20 21  1  0  0  0  0
 20 22  2  0  0  0  0
 22 23  1  0  0  0  0
 22 26  1  0  0  0  0
 23 24  1  0  0  0  0
 23 25  1  0  0  0  0
 26 27  1  0  0  0  0
 26 28  1  0  0  0  0
 29 30  2  0  0  0  0
 29 31  1  0  0  0  0
 31 32  1  0  0  0  0
 31 33  1  0  0  0  0
 33 34  1  0  0  0  0
 33 35  1  0  0  0  0
 33 36  1  0  0  0  0
M  CHG  1  20   1
M  END
$$$$

  -OEChem-03222214013D

 36 35  0     1  0  0  0  0  0999 V2000
   -4.4902   -3.5963    0.7015 H   0  0  0  0  0  0  0  0  0  0  0  0
   -4.2887   -2.5365    0.5205 C   0  0  0  0  0  0  0  0  0  0  0  0
   -5.0689   -1.9433    1.0035 H   0  0  0  0  0  0  0  0  0  0  0  0
   -4.3140   -2.3540   -0.5565 H   0  0  0  0  0  0  0  0  0  0  0  0
   -2.9298   -2.1622    1.0801 C   0  0  0  0  0  0  0  0  0  0  0  0
   -2.2477   -2.9986    1.6485 O   0  0  0  0  0  0  0  0  0  0  0  0
   -2.4565   -0.8708    0.9512 N   0  0  0  0  0  0  0  0  0  0  0  0
   -3.0758   -0.1855    0.5222 H   0  0  0  0  0  0  0  0  0  0  0  0
   -1.1819   -0.4017    1.5183 C   0  0  1  0  0  0  0  0  0  0  0  0
   -0.8111   -1.0830    2.2920 H   0  0  0  0  0  0  0  0  0  0  0  0
   -0.1900   -0.4188    0.3194 C   0  0  0  0  0  0  0  0  0  0  0  0
   -0.0109   -1.4674    0.0559 H   0  0  0  0  0  0  0  0  0  0  0  0
   -0.7282    0.0277   -0.5245 H   0  0  0  0  0  0  0  0  0  0  0  0
    1.1864    0.3011    0.3383 C   0  0  0  0  0  0  0  0  0  0  0  0
    1.9097   -0.4245    0.7266 H   0  0  0  0  0  0  0  0  0  0  0  0
    1.4706    0.4876   -0.7034 H   0  0  0  0  0  0  0  0  0  0  0  0
    1.3912    1.5803    1.1678 C   0  0  0  0  0  0  0  0  0  0  0  0
    0.4766    1.9100    1.6467 H   0  0  0  0  0  0  0  0  0  0  0  0
    2.1142    1.3749    1.9652 H   0  0  0  0  0  0  0  0  0  0  0  0
    1.8916    2.6713    0.3096 N   0  3  0  0  0  0  0  0  0  0  0  0
    2.8613    2.6077    0.0025 H   0  0  0  0  0  0  0  0  0  0  0  0
    1.1675    3.6842   -0.0788 C   0  0  0  0  0  0  0  0  0  0  0  0
   -0.1533    3.8407    0.2764 N   0  0  0  0  0  0  0  0  0  0  0  0
   -0.6397    3.0556    0.7220 H   0  0  0  0  0  0  0  0  0  0  0  0
   -0.7236    4.5085   -0.2355 H   0  0  0  0  0  0  0  0  0  0  0  0
    1.7369    4.6455   -0.8793 N   0  0  0  0  0  0  0  0  0  0  0  0
    2.7478    4.6488   -0.9986 H   0  0  0  0  0  0  0  0  0  0  0  0
    1.2375    5.5234   -1.0085 H   0  0  0  0  0  0  0  0  0  0  0  0
   -1.4433    0.9578    2.1870 C   0  0  0  0  0  0  0  0  0  0  0  0
   -1.8659    1.8929    1.5116 O   0  0  0  0  0  0  0  0  0  0  0  0
   -0.9303    1.2249    3.4433 N   0  0  0  0  0  0  0  0  0  0  0  0
   -0.6582    0.4177    4.0024 H   0  0  0  0  0  0  0  0  0  0  0  0
   -1.1416    2.4925    4.1363 C   0  0  0  0  0  0  0  0  0  0  0  0
   -0.7133    3.3231    3.5659 H   0  0  0  0  0  0  0  0  0  0  0  0
   -0.6615    2.4699    5.1200 H   0  0  0  0  0  0  0  0  0  0  0  0
   -2.2117    2.6784    4.2792 H   0  0  0  0  0  0  0  0  0  0  0  0
  1  2  1  0  0  0  0
  2  3  1  0  0  0  0
  2  4  1  0  0  0  0
  2  5  1  0  0  0  0
  5  6  2  0  0  0  0
  5  7  1  0  0  0  0
  7  8  1  0  0  0  0
  7  9  1  0  0  0  0
  9 10  1  0  0  0  0
  9 11  1  0  0  0  0
  9 29  1  0  0  0  0
 11 12  1  0  0  0  0
 11 13  1  0  0  0  0
 11 14  1  0  0  0  0
 14 15  1  0  0  0  0
 14 16  1  0  0  0  0
 14 17  1  0  0  0  0
 17 18  1  0  0  0  0
 17 19  1  0  0  0  0
 17 20  1  0  0  0  0
 20 21  1  0  0  0  0
 20 22  2  0  0  0  0
 22 23  1  0  0  0  0
 22 26  1  0  0  0  0
 23 24  1  0  0  0  0
 23 25  1  0  0  0  0
 26 27  1  0  0  0  0
 26 28  1  0  0  0  0
 29 30  2  0  0  0  0
 29 31  1  0  0  0  0
 31 32  1  0  0  0  0
 31 33  1  0  0  0  0
 33 34  1  0  0  0  0
 33 35  1  0  0  0  0
 33 36  1  0  0  0  0
M  CHG  1  20   1
M  END
$$$$

  -OEChem-03222214013D

 36 35  0     1  0  0  0  0  0999 V2000
   -4.4959   -3.6793    0.7416 H   0  0  0  0  0  0  0  0  0  0  0  0
   -4.3142   -2.6102    0.5987 C   0  0  0  0  0  0  0  0  0  0  0  0
   -5.0864   -2.0488    1.1300 H   0  0  0  0  0  0  0  0  0  0  0  0
   -4.3759   -2.3838   -0.4682 H   0  0  0  0  0  0  0  0  0  0  0  0
   -2.9431   -2.2387    1.1299 C   0  0  0  0  0  0  0  0  0  0  0  0
   -2.2450   -3.0803    1.6708 O   0  0  0  0  0  0  0  0  0  0  0  0
   -2.4772   -0.9437    1.0087 N   0  0  0  0  0  0  0  0  0  0  0  0
   -3.1016   -0.2577    0.5880 H   0  0  0  0  0  0  0  0  0  0  0  0
   -1.1798   -0.4833    1.5298 C   0  0  1  0  0  0  0  0  0  0  0  0
   -0.7568   -1.1829    2.2592 H   0  0  0  0  0  0  0  0  0  0  0  0
   -0.2727   -0.4473    0.2639 C   0  0  0  0  0  0  0  0  0  0  0  0
   -0.1044   -1.4857   -0.0439 H   0  0  0  0  0  0  0  0  0  0  0  0
   -0.8721    0.0162   -0.5286 H   0  0  0  0  0  0  0  0  0  0  0  0
    1.0987    0.2819    0.2060 C   0  0  0  0  0  0  0  0  0  0  0  0
    1.8805   -0.4855    0.2123 H   0  0  0  0  0  0  0  0  0  0  0  0
    1.1543    0.7687   -0.7739 H   0  0  0  0  0  0  0  0  0  0  0  0
    1.4746    1.2973    1.2936 C   0  0  0  0  0  0  0  0  0  0  0  0
    0.5999    1.6752    1.8084 H   0  0  0  0  0  0  0  0  0  0  0  0
    2.1099    0.8106    2.0421 H   0  0  0  0  0  0  0  0  0  0  0  0
    2.1661    2.4548    0.6986 N   0  3  0  0  0  0  0  0  0  0  0  0
    3.1596    2.3523    0.4948 H   0  0  0  0  0  0  0  0  0  0  0  0
    1.5598    3.5739    0.4121 C   0  0  0  0  0  0  0  0  0  0  0  0
    0.2135    3.7701    0.6377 N   0  0  0  0  0  0  0  0  0  0  0  0
   -0.3674    2.9722    0.9185 H   0  0  0  0  0  0  0  0  0  0  0  0
   -0.2539    4.5563    0.1937 H   0  0  0  0  0  0  0  0  0  0  0  0
    2.2805    4.6052   -0.1408 N   0  0  0  0  0  0  0  0  0  0  0  0
    3.2969    4.5504   -0.1329 H   0  0  0  0  0  0  0  0  0  0  0  0
    1.8527    5.5287   -0.1744 H   0  0  0  0  0  0  0  0  0  0  0  0
   -1.4157    0.8634    2.2396 C   0  0  0  0  0  0  0  0  0  0  0  0
   -1.7759    1.8365    1.5813 O   0  0  0  0  0  0  0  0  0  0  0  0
   -0.8472    1.0957    3.4802 N   0  0  0  0  0  0  0  0  0  0  0  0
   -0.6081    0.2699    4.0275 H   0  0  0  0  0  0  0  0  0  0  0  0
   -0.9716    2.3666    4.1881 C   0  0  0  0  0  0  0  0  0  0  0  0
   -2.0260    2.6158    4.3498 H   0  0  0  0  0  0  0  0  0  0  0  0
   -0.4790    2.3051    5.1636 H   0  0  0  0  0  0  0  0  0  0  0  0
   -0.5022    3.1749    3.6184 H   0  0  0  0  0  0  0  0  0  0  0  0
  1  2  1  0  0  0  0
  2  3  1  0  0  0  0
  2  4  1  0  0  0  0
  2  5  1  0  0  0  0
  5  6  2  0  0  0  0
  5  7  1  0  0  0  0
  7  8  1  0  0  0  0
  7  9  1  0  0  0  0
  9 10  1  0  0  0  0
  9 11  1  0  0  0  0
  9 29  1  0  0  0  0
 11 12  1  0  0  0  0
 11 13  1  0  0  0  0
 11 14  1  0  0  0  0
 14 15  1  0  0  0  0
 14 16  1  0  0  0  0
 14 17  1  0  0  0  0
 17 18  1  0  0  0  0
 17 19  1  0  0  0  0
 17 20  1  0  0  0  0
 20 21  1  0  0  0  0
 20 22  2  0  0  0  0
 22 23  1  0  0  0  0
 22 26  1  0  0  0  0
 23 24  1  0  0  0  0
 23 25  1  0  0  0  0
 26 27  1  0  0  0  0
 26 28  1  0  0  0  0
 29 30  2  0  0  0  0
 29 31  1  0  0  0  0
 31 32  1  0  0  0  0
 31 33  1  0  0  0  0
 33 34  1  0  0  0  0
 33 35  1  0  0  0  0
 33 36  1  0  0  0  0
M  CHG  1  20   1
M  END
$$$$

  -OEChem-03222214013D

 36 35  0     1  0  0  0  0  0999 V2000
   -4.5509   -3.6539    0.7676 H   0  0  0  0  0  0  0  0  0  0  0  0
   -4.3469   -2.5908    0.6107 C   0  0  0  0  0  0  0  0  0  0  0  0
   -5.1181   -2.0064    1.1183 H   0  0  0  0  0  0  0  0  0  0  0  0
   -4.3855   -2.3814   -0.4610 H   0  0  0  0  0  0  0  0  0  0  0  0
   -2.9796   -2.2355    1.1623 C   0  0  0  0  0  0  0  0  0  0  0  0
   -2.3162   -3.0751    1.7481 O   0  0  0  0  0  0  0  0  0  0  0  0
   -2.4813   -0.9552    1.0163 N   0  0  0  0  0  0  0  0  0  0  0  0
   -3.0729   -0.2713    0.5474 H   0  0  0  0  0  0  0  0  0  0  0  0
   -1.1793   -0.5142    1.5430 C   0  0  1  0  0  0  0  0  0  0  0  0
   -0.7701   -1.2111    2.2827 H   0  0  0  0  0  0  0  0  0  0  0  0
   -0.2886   -0.5210    0.2637 C   0  0  0  0  0  0  0  0  0  0  0  0
   -0.1323   -1.5729   -0.0014 H   0  0  0  0  0  0  0  0  0  0  0  0
   -0.8826   -0.0836   -0.5476 H   0  0  0  0  0  0  0  0  0  0  0  0
    1.0943    0.1777    0.1831 C   0  0  0  0  0  0  0  0  0  0  0  0
    1.8407   -0.5701   -0.1068 H   0  0  0  0  0  0  0  0  0  0  0  0
    1.0311    0.8887   -0.6481 H   0  0  0  0  0  0  0  0  0  0  0  0
    1.6302    0.9170    1.4126 C   0  0  0  0  0  0  0  0  0  0  0  0
    0.8250    1.3266    2.0092 H   0  0  0  0  0  0  0  0  0  0  0  0
    2.1886    0.2194    2.0468 H   0  0  0  0  0  0  0  0  0  0  0  0
    2.4811    2.0444    0.9933 N   0  3  0  0  0  0  0  0  0  0  0  0
    3.4721    1.8549    0.8483 H   0  0  0  0  0  0  0  0  0  0  0  0
    2.0146    3.2457    0.7887 C   0  0  0  0  0  0  0  0  0  0  0  0
    0.6793    3.5606    0.9353 N   0  0  0  0  0  0  0  0  0  0  0  0
    0.0018    2.8056    1.0887 H   0  0  0  0  0  0  0  0  0  0  0  0
    0.3296    4.4266    0.5329 H   0  0  0  0  0  0  0  0  0  0  0  0
    2.8763    4.2437    0.4012 N   0  0  0  0  0  0  0  0  0  0  0  0
    3.8785    4.0790    0.4701 H   0  0  0  0  0  0  0  0  0  0  0  0
    2.5473    5.2066    0.4385 H   0  0  0  0  0  0  0  0  0  0  0  0
   -1.3777    0.8568    2.2227 C   0  0  0  0  0  0  0  0  0  0  0  0
   -1.6462    1.8359    1.5319 O   0  0  0  0  0  0  0  0  0  0  0  0
   -0.8132    1.0949    3.4651 N   0  0  0  0  0  0  0  0  0  0  0  0
   -0.6390    0.2700    4.0378 H   0  0  0  0  0  0  0  0  0  0  0  0
   -0.9263    2.3776    4.1547 C   0  0  0  0  0  0  0  0  0  0  0  0
   -1.9770    2.6752    4.2440 H   0  0  0  0  0  0  0  0  0  0  0  0
   -0.5039    2.3028    5.1619 H   0  0  0  0  0  0  0  0  0  0  0  0
   -0.3840    3.1594    3.6141 H   0  0  0  0  0  0  0  0  0  0  0  0
  1  2  1  0  0  0  0
  2  3  1  0  0  0  0
  2  4  1  0  0  0  0
  2  5  1  0  0  0  0
  5  6  2  0  0  0  0
  5  7  1  0  0  0  0
  7  8  1  0  0  0  0
  7  9  1  0  0  0  0
  9 10  1  0  0  0  0
  9 11  1  0  0  0  0
  9 29  1  0  0  0  0
 11 12  1  0  0  0  0
 11 13  1  0  0  0  0
 11 14  1  0  0  0  0
 14 15  1  0  0  0  0
 14 16  1  0  0  0  0
 14 17  1  0  0  0  0
 17 18  1  0  0  0  0
 17 19  1  0  0  0  0
 17 20  1  0  0  0  0
 20 21  1  0  0  0  0
 20 22  2  0  0  0  0
 22 23  1  0  0  0  0
 22 26  1  0  0  0  0
 23 24  1  0  0  0  0
 23 25  1  0  0  0  0
 26 27  1  0  0  0  0
 26 28  1  0  0  0  0
 29 30  2  0  0  0  0
 29 31  1  0  0  0  0
 31 32  1  0  0  0  0
 31 33  1  0  0  0  0
 33 34  1  0  0  0  0
 33 35  1  0  0  0  0
 33 36  1  0  0  0  0
M  CHG  1  20   1
M  END
$$$$

  -OEChem-03222214013D

 36 35  0     1  0  0  0  0  0999 V2000
   -4.6197   -3.5970    0.9152 H   0  0  0  0  0  0  0  0  0  0  0  0
   -4.3862   -2.5466    0.7190 C   0  0  0  0  0  0  0  0  0  0  0  0
   -5.1280   -1.9219    1.2221 H   0  0  0  0  0  0  0  0  0  0  0  0
   -4.4405   -2.3709   -0.3580 H   0  0  0  0  0  0  0  0  0  0  0  0
   -2.9971   -2.2171    1.2307 C   0  0  0  0  0  0  0  0  0  0  0  0
   -2.3390   -3.0633    1.8135 O   0  0  0  0  0  0  0  0  0  0  0  0
   -2.4692   -0.9537    1.0468 N   0  0  0  0  0  0  0  0  0  0  0  0
   -3.0522   -0.2644    0.5751 H   0  0  0  0  0  0  0  0  0  0  0  0
   -1.1394   -0.5410    1.5231 C   0  0  1  0  0  0  0  0  0  0  0  0
   -0.7177   -1.2416    2.2521 H   0  0  0  0  0  0  0  0  0  0  0  0
   -0.3129   -0.5837    0.2034 C   0  0  0  0  0  0  0  0  0  0  0  0
   -0.1768   -1.6448   -0.0359 H   0  0  0  0  0  0  0  0  0  0  0  0
   -0.9251   -0.1599   -0.6018 H   0  0  0  0  0  0  0  0  0  0  0  0
    1.0747    0.0856    0.0793 C   0  0  0  0  0  0  0  0  0  0  0  0
    1.7339   -0.5741   -0.4957 H   0  0  0  0  0  0  0  0  0  0  0  0
    0.9241    0.9832   -0.5300 H   0  0  0  0  0  0  0  0  0  0  0  0
    1.7951    0.4957    1.3655 C   0  0  0  0  0  0  0  0  0  0  0  0
    1.0955    0.8405    2.1179 H   0  0  0  0  0  0  0  0  0  0  0  0
    2.3179   -0.3728    1.7815 H   0  0  0  0  0  0  0  0  0  0  0  0
    2.7456    1.5870    1.0831 N   0  3  0  0  0  0  0  0  0  0  0  0
    3.7174    1.3254    0.9214 H   0  0  0  0  0  0  0  0  0  0  0  0
    2.4011    2.8441    1.0204 C   0  0  0  0  0  0  0  0  0  0  0  0
    1.1014    3.2720    1.1950 N   0  0  0  0  0  0  0  0  0  0  0  0
    0.3500    2.5764    1.2498 H   0  0  0  0  0  0  0  0  0  0  0  0
    0.8466    4.2086    0.8910 H   0  0  0  0  0  0  0  0  0  0  0  0
    3.3629    3.7899    0.7566 N   0  0  0  0  0  0  0  0  0  0  0  0
    4.3432    3.5187    0.8023 H   0  0  0  0  0  0  0  0  0  0  0  0
    3.1306    4.7707    0.9026 H   0  0  0  0  0  0  0  0  0  0  0  0
   -1.2609    0.8477    2.1899 C   0  0  0  0  0  0  0  0  0  0  0  0
   -1.5063    1.8286    1.4954 O   0  0  0  0  0  0  0  0  0  0  0  0
   -0.6447    1.0882    3.4073 N   0  0  0  0  0  0  0  0  0  0  0  0
   -0.4877    0.2614    3.9824 H   0  0  0  0  0  0  0  0  0  0  0  0
   -0.7689    2.3632    4.1112 C   0  0  0  0  0  0  0  0  0  0  0  0
   -1.8235    2.6077    4.2787 H   0  0  0  0  0  0  0  0  0  0  0  0
   -0.2706    2.3068    5.0843 H   0  0  0  0  0  0  0  0  0  0  0  0
   -0.3092    3.1750    3.5403 H   0  0  0  0  0  0  0  0  0  0  0  0
  1  2  1  0  0  0  0
  2  3  1  0  0  0  0
  2  4  1  0  0  0  0
  2  5  1  0  0  0  0
  5  6  2  0  0  0  0
  5  7  1  0  0  0  0
  7  8  1  0  0  0  0
  7  9  1  0  0  0  0
  9 10  1  0  0  0  0
  9 11  1  0  0  0  0
  9 29  1  0  0  0  0
 11 12  1  0  0  0  0
 11 13  1  0  0  0  0
 11 14  1  0  0  0  0
 14 15  1  0  0  0  0
 14 16  1  0  0  0  0
 14 17  1  0  0  0  0
 17 18  1  0  0  0  0
 17 19  1  0  0  0  0
 17 20  1  0  0  0  0
 20 21  1  0  0  0  0
 20 22  2  0  0  0  0
 22 23  1  0  0  0  0
 22 26  1  0  0  0  0
 23 24  1  0  0  0  0
 23 25  1  0  0  0  0
 26 27  1  0  0  0  0
 26 28  1  0  0  0  0
 29 30  2  0  0  0  0
 29 31  1  0  0  0  0
 31 32  1  0  0  0  0
 31 33  1  0  0  0  0
 33 34  1  0  0  0  0
 33 35  1  0  0  0  0
 33 36  1  0  0  0  0
M  CHG  1  20   1
M  END
$$$$

  -OEChem-03222214013D

 36 35  0     1  0  0  0  0  0999 V2000
   -4.0972   -4.2005    1.6750 H   0  0  0  0  0  0  0  0  0  0  0  0
   -4.0897   -3.1868    1.2645 C   0  0  0  0  0  0  0  0  0  0  0  0
   -4.8831   -2.6080    1.7435 H   0  0  0  0  0  0  0  0  0  0  0  0
   -4.2845   -3.2405    0.1908 H   0  0  0  0  0  0  0  0  0  0  0  0
   -2.7449   -2.5322    1.5150 C   0  0  0  0  0  0  0  0  0  0  0  0
   -1.8582   -3.1439    2.0904 O   0  0  0  0  0  0  0  0  0  0  0  0
   -2.5165   -1.2342    1.1045 N   0  0  0  0  0  0  0  0  0  0  0  0
   -3.2937   -0.7263    0.6826 H   0  0  0  0  0  0  0  0  0  0  0  0
   -1.2706   -0.4981    1.3605 C   0  0  1  0  0  0  0  0  0  0  0  0
   -0.6530   -0.9791    2.1259 H   0  0  0  0  0  0  0  0  0  0  0  0
   -0.5426   -0.5117   -0.0082 C   0  0  0  0  0  0  0  0  0  0  0  0
   -0.1796   -1.5341   -0.1603 H   0  0  0  0  0  0  0  0  0  0  0  0
   -1.2752   -0.3146   -0.7997 H   0  0  0  0  0  0  0  0  0  0  0  0
    0.6422    0.4462   -0.2511 C   0  0  0  0  0  0  0  0  0  0  0  0
    1.2897   -0.0027   -1.0124 H   0  0  0  0  0  0  0  0  0  0  0  0
    0.2397    1.3766   -0.6687 H   0  0  0  0  0  0  0  0  0  0  0  0
    1.4698    0.8089    0.9820 C   0  0  0  0  0  0  0  0  0  0  0  0
    0.8646    1.3972    1.6736 H   0  0  0  0  0  0  0  0  0  0  0  0
    1.7925   -0.1103    1.4832 H   0  0  0  0  0  0  0  0  0  0  0  0
    2.6407    1.6002    0.5602 N   0  3  0  0  0  0  0  0  0  0  0  0
    2.7867    1.7092   -0.4427 H   0  0  0  0  0  0  0  0  0  0  0  0
    3.4649    2.1753    1.3871 C   0  0  0  0  0  0  0  0  0  0  0  0
    3.3304    2.0501    2.7509 N   0  0  0  0  0  0  0  0  0  0  0  0
    2.6831    1.3462    3.0982 H   0  0  0  0  0  0  0  0  0  0  0  0
    4.1193    2.3058    3.3414 H   0  0  0  0  0  0  0  0  0  0  0  0
    4.5037    2.9280    0.8937 N   0  0  0  0  0  0  0  0  0  0  0  0
    4.5048    3.1718   -0.0951 H   0  0  0  0  0  0  0  0  0  0  0  0
    5.0093    3.5370    1.5345 H   0  0  0  0  0  0  0  0  0  0  0  0
   -1.6509    0.9181    1.8439 C   0  0  0  0  0  0  0  0  0  0  0  0
   -2.3787    1.6166    1.1514 O   0  0  0  0  0  0  0  0  0  0  0  0
   -1.0145    1.4858    2.9356 N   0  0  0  0  0  0  0  0  0  0  0  0
   -0.6299    0.8250    3.6059 H   0  0  0  0  0  0  0  0  0  0  0  0
   -1.3813    2.8104    3.4314 C   0  0  0  0  0  0  0  0  0  0  0  0
   -2.4355    2.8308    3.7295 H   0  0  0  0  0  0  0  0  0  0  0  0
   -0.7711    3.0742    4.3005 H   0  0  0  0  0  0  0  0  0  0  0  0
   -1.2231    3.5694    2.6576 H   0  0  0  0  0  0  0  0  0  0  0  0
  1  2  1  0  0  0  0
  2  3  1  0  0  0  0
  2  4  1  0  0  0  0
  2  5  1  0  0  0  0
  5  6  2  0  0  0  0
  5  7  1  0  0  0  0
  7  8  1  0  0  0  0
  7  9  1  0  0  0  0
  9 10  1  0  0  0  0
  9 11  1  0  0  0  0
  9 29  1  0  0  0  0
 11 12  1  0  0  0  0
 11 13  1  0  0  0  0
 11 14  1  0  0  0  0
 14 15  1  0  0  0  0
 14 16  1  0  0  0  0
 14 17  1  0  0  0  0
 17 18  1  0  0  0  0
 17 19  1  0  0  0  0
 17 20  1  0  0  0  0
 20 21  1  0  0  0  0
 20 22  2  0  0  0  0
 22 23  1  0  0  0  0
 22 26  1  0  0  0  0
 23 24  1  0  0  0  0
 23 25  1  0  0  0  0
 26 27  1  0  0  0  0
 26 28  1  0  0  0  0
 29 30  2  0  0  0  0
 29 31  1  0  0  0  0
 31 32  1  0  0  0  0
 31 33  1  0  0  0  0
 33 34  1  0  0  0  0
 33 35  1  0  0  0  0
 33 36  1  0  0  0  0
M  CHG  1  20   1
M  END
$$$$

  -OEChem-03222214013D

 36 35  0     1  0  0  0  0  0999 V2000
   -3.7849   -4.2559    1.9305 H   0  0  0  0  0  0  0  0  0  0  0  0
   -3.8283   -3.2896    1.4201 C   0  0  0  0  0  0  0  0  0  0  0  0
   -4.7030   -2.7414    1.7784 H   0  0  0  0  0  0  0  0  0  0  0  0
   -3.9304   -3.4638    0.3463 H   0  0  0  0  0  0  0  0  0  0  0  0
   -2.5671   -2.4957    1.7009 C   0  0  0  0  0  0  0  0  0  0  0  0
   -1.7077   -2.9457    2.4434 O   0  0  0  0  0  0  0  0  0  0  0  0
   -2.3762   -1.2597    1.1163 N   0  0  0  0  0  0  0  0  0  0  0  0
   -3.1384   -0.8780    0.5560 H   0  0  0  0  0  0  0  0  0  0  0  0
   -1.2483   -0.3723    1.4296 C   0  0  1  0  0  0  0  0  0  0  0  0
   -0.7428   -0.6692    2.3542 H   0  0  0  0  0  0  0  0  0  0  0  0
   -0.2838   -0.5029    0.2272 C   0  0  0  0  0  0  0  0  0  0  0  0
    0.1887   -1.4893    0.2871 H   0  0  0  0  0  0  0  0  0  0  0  0
   -0.8678   -0.4816   -0.7003 H   0  0  0  0  0  0  0  0  0  0  0  0
    0.8186    0.5618    0.0963 C   0  0  0  0  0  0  0  0  0  0  0  0
    1.5426    0.2221   -0.6518 H   0  0  0  0  0  0  0  0  0  0  0  0
    0.3714    1.4898   -0.2787 H   0  0  0  0  0  0  0  0  0  0  0  0
    1.5283    0.8547    1.4197 C   0  0  0  0  0  0  0  0  0  0  0  0
    0.8352    1.3364    2.1139 H   0  0  0  0  0  0  0  0  0  0  0  0
    1.8535   -0.0835    1.8811 H   0  0  0  0  0  0  0  0  0  0  0  0
    2.6786    1.7476    1.1845 N   0  3  0  0  0  0  0  0  0  0  0  0
    2.4702    2.7368    1.0489 H   0  0  0  0  0  0  0  0  0  0  0  0
    3.9181    1.3484    1.1412 C   0  0  0  0  0  0  0  0  0  0  0  0
    4.2639    0.0233    1.2821 N   0  0  0  0  0  0  0  0  0  0  0  0
    3.5197   -0.6705    1.2458 H   0  0  0  0  0  0  0  0  0  0  0  0
    5.2026   -0.2682    1.0166 H   0  0  0  0  0  0  0  0  0  0  0  0
    4.9189    2.2693    0.9421 N   0  0  0  0  0  0  0  0  0  0  0  0
    4.6954    3.2601    1.0144 H   0  0  0  0  0  0  0  0  0  0  0  0
    5.8824    1.9844    1.1090 H   0  0  0  0  0  0  0  0  0  0  0  0
   -1.7900    1.0626    1.6105 C   0  0  0  0  0  0  0  0  0  0  0  0
   -2.4806    1.5591    0.7308 O   0  0  0  0  0  0  0  0  0  0  0  0
   -1.3770    1.8514    2.6708 N   0  0  0  0  0  0  0  0  0  0  0  0
   -0.9875    1.3594    3.4710 H   0  0  0  0  0  0  0  0  0  0  0  0
   -1.9166    3.1900    2.8954 C   0  0  0  0  0  0  0  0  0  0  0  0
   -2.9949    3.1429    3.0833 H   0  0  0  0  0  0  0  0  0  0  0  0
   -1.4344    3.6543    3.7612 H   0  0  0  0  0  0  0  0  0  0  0  0
   -1.7419    3.8283    2.0226 H   0  0  0  0  0  0  0  0  0  0  0  0
  1  2  1  0  0  0  0
  2  3  1  0  0  0  0
  2  4  1  0  0  0  0
  2  5  1  0  0  0  0
  5  6  2  0  0  0  0
  5  7  1  0  0  0  0
  7  8  1  0  0  0  0
  7  9  1  0  0  0  0
  9 10  1  0  0  0  0
  9 11  1  0  0  0  0
  9 29  1  0  0  0  0
 11 12  1  0  0  0  0
 11 13  1  0  0  0  0
 11 14  1  0  0  0  0
 14 15  1  0  0  0  0
 14 16  1  0  0  0  0
 14 17  1  0  0  0  0
 17 18  1  0  0  0  0
 17 19  1  0  0  0  0
 17 20  1  0  0  0  0
 20 21  1  0  0  0  0
 20 22  2  0  0  0  0
 22 23  1  0  0  0  0
 22 26  1  0  0  0  0
 23 24  1  0  0  0  0
 23 25  1  0  0  0  0
 26 27  1  0  0  0  0
 26 28  1  0  0  0  0
 29 30  2  0  0  0  0
 29 31  1  0  0  0  0
 31 32  1  0  0  0  0
 31 33  1  0  0  0  0
 33 34  1  0  0  0  0
 33 35  1  0  0  0  0
 33 36  1  0  0  0  0
M  CHG  1  20   1
M  END
$$$$

  -OEChem-03222214013D

 36 35  0     1  0  0  0  0  0999 V2000
   -3.9409   -4.1823    1.9531 H   0  0  0  0  0  0  0  0  0  0  0  0
   -3.9801   -3.1904    1.4938 C   0  0  0  0  0  0  0  0  0  0  0  0
   -4.7621   -2.6059    1.9847 H   0  0  0  0  0  0  0  0  0  0  0  0
   -4.2283   -3.3026    0.4356 H   0  0  0  0  0  0  0  0  0  0  0  0
   -2.6417   -2.4931    1.6410 C   0  0  0  0  0  0  0  0  0  0  0  0
   -1.7211   -3.0407    2.2290 O   0  0  0  0  0  0  0  0  0  0  0  0
   -2.4528   -1.2344    1.1068 N   0  0  0  0  0  0  0  0  0  0  0  0
   -3.2569   -0.7766    0.6780 H   0  0  0  0  0  0  0  0  0  0  0  0
   -1.2288   -0.4427    1.2828 C   0  0  1  0  0  0  0  0  0  0  0  0
   -0.6186   -0.8365    2.1019 H   0  0  0  0  0  0  0  0  0  0  0  0
   -0.4491   -0.5602   -0.0462 C   0  0  0  0  0  0  0  0  0  0  0  0
   -0.0434   -1.5747   -0.1237 H   0  0  0  0  0  0  0  0  0  0  0  0
   -1.1523   -0.4283   -0.8766 H   0  0  0  0  0  0  0  0  0  0  0  0
    0.6850    0.4583   -0.2404 C   0  0  0  0  0  0  0  0  0  0  0  0
    1.1501    0.2769   -1.2156 H   0  0  0  0  0  0  0  0  0  0  0  0
    0.2772    1.4752   -0.2570 H   0  0  0  0  0  0  0  0  0  0  0  0
    1.7382    0.3280    0.8593 C   0  0  0  0  0  0  0  0  0  0  0  0
    1.2854    0.5559    1.8300 H   0  0  0  0  0  0  0  0  0  0  0  0
    2.0982   -0.7060    0.8813 H   0  0  0  0  0  0  0  0  0  0  0  0
    2.8505    1.2587    0.5938 N   0  3  0  0  0  0  0  0  0  0  0  0
    2.6280    2.1057    0.0716 H   0  0  0  0  0  0  0  0  0  0  0  0
    4.0734    1.0643    0.9967 C   0  0  0  0  0  0  0  0  0  0  0  0
    4.4383   -0.0585    1.7047 N   0  0  0  0  0  0  0  0  0  0  0  0
    3.7682   -0.8220    1.7690 H   0  0  0  0  0  0  0  0  0  0  0  0
    5.4278   -0.2824    1.7897 H   0  0  0  0  0  0  0  0  0  0  0  0
    5.0374    2.0015    0.7109 N   0  0  0  0  0  0  0  0  0  0  0  0
    4.7518    2.9049    0.3373 H   0  0  0  0  0  0  0  0  0  0  0  0
    5.9327    1.9438    1.1931 H   0  0  0  0  0  0  0  0  0  0  0  0
   -1.6003    1.0132    1.6324 C   0  0  0  0  0  0  0  0  0  0  0  0
   -2.3789    1.6270    0.9156 O   0  0  0  0  0  0  0  0  0  0  0  0
   -0.9447    1.6806    2.6529 N   0  0  0  0  0  0  0  0  0  0  0  0
   -0.4792    1.0975    3.3431 H   0  0  0  0  0  0  0  0  0  0  0  0
   -1.3165    3.0361    3.0500 C   0  0  0  0  0  0  0  0  0  0  0  0
   -2.3542    3.0622    3.4002 H   0  0  0  0  0  0  0  0  0  0  0  0
   -0.6692    3.3873    3.8595 H   0  0  0  0  0  0  0  0  0  0  0  0
   -1.2154    3.7270    2.2060 H   0  0  0  0  0  0  0  0  0  0  0  0
  1  2  1  0  0  0  0
  2  3  1  0  0  0  0
  2  4  1  0  0  0  0
  2  5  1  0  0  0  0
  5  6  2  0  0  0  0
  5  7  1  0  0  0  0
  7  8  1  0  0  0  0
  7  9  1  0  0  0  0
  9 10  1  0  0  0  0
  9 11  1  0  0  0  0
  9 29  1  0  0  0  0
 11 12  1  0  0  0  0
 11 13  1  0  0  0  0
 11 14  1  0  0  0  0
 14 15  1  0  0  0  0
 14 16  1  0  0  0  0
 14 17  1  0  0  0  0
 17 18  1  0  0  0  0
 17 19  1  0  0  0  0
 17 20  1  0  0  0  0
 20 21  1  0  0  0  0
 20 22  2  0  0  0  0
 22 23  1  0  0  0  0
 22 26  1  0  0  0  0
 23 24  1  0  0  0  0
 23 25  1  0  0  0  0
 26 27  1  0  0  0  0
 26 28  1  0  0  0  0
 29 30  2  0  0  0  0
 29 31  1  0  0  0  0
 31 32  1  0  0  0  0
 31 33  1  0  0  0  0
 33 34  1  0  0  0  0
 33 35  1  0  0  0  0
 33 36  1  0  0  0  0
M  CHG  1  20   1
M  END
$$$$

  -OEChem-03222214013D

 36 35  0     1  0  0  0  0  0999 V2000
   -3.9154   -4.1857    1.9056 H   0  0  0  0  0  0  0  0  0  0  0  0
   -3.9739   -3.1650    1.5174 C   0  0  0  0  0  0  0  0  0  0  0  0
   -4.7099   -2.6073    2.1016 H   0  0  0  0  0  0  0  0  0  0  0  0
   -4.2996   -3.2039    0.4751 H   0  0  0  0  0  0  0  0  0  0  0  0
   -2.6189   -2.4909    1.6129 C   0  0  0  0  0  0  0  0  0  0  0  0
   -1.6773   -3.0668    2.1374 O   0  0  0  0  0  0  0  0  0  0  0  0
   -2.4384   -1.2213    1.1024 N   0  0  0  0  0  0  0  0  0  0  0  0
   -3.2580   -0.7390    0.7336 H   0  0  0  0  0  0  0  0  0  0  0  0
   -1.2005   -0.4457    1.2502 C   0  0  1  0  0  0  0  0  0  0  0  0
   -0.5680   -0.8609    2.0410 H   0  0  0  0  0  0  0  0  0  0  0  0
   -0.4614   -0.5508   -0.1028 C   0  0  0  0  0  0  0  0  0  0  0  0
   -0.0822   -1.5711   -0.2278 H   0  0  0  0  0  0  0  0  0  0  0  0
   -1.1935   -0.3796   -0.9007 H   0  0  0  0  0  0  0  0  0  0  0  0
    0.6777    0.4597   -0.3134 C   0  0  0  0  0  0  0  0  0  0  0  0
    0.9480    0.4512   -1.3751 H   0  0  0  0  0  0  0  0  0  0  0  0
    0.3586    1.4785   -0.0706 H   0  0  0  0  0  0  0  0  0  0  0  0
    1.8973    0.0549    0.5126 C   0  0  0  0  0  0  0  0  0  0  0  0
    1.6473    0.1094    1.5778 H   0  0  0  0  0  0  0  0  0  0  0  0
    2.1601   -0.9807    0.2704 H   0  0  0  0  0  0  0  0  0  0  0  0
    3.0279    0.9514    0.2106 N   0  3  0  0  0  0  0  0  0  0  0  0
    2.8144    1.8124   -0.2919 H   0  0  0  0  0  0  0  0  0  0  0  0
    4.2609    0.6959    0.5425 C   0  0  0  0  0  0  0  0  0  0  0  0
    4.6098   -0.4538    1.2149 N   0  0  0  0  0  0  0  0  0  0  0  0
    3.9073   -1.1848    1.3078 H   0  0  0  0  0  0  0  0  0  0  0  0
    5.5905   -0.7259    1.2430 H   0  0  0  0  0  0  0  0  0  0  0  0
    5.2507    1.5923    0.2164 N   0  0  0  0  0  0  0  0  0  0  0  0
    4.9880    2.5136   -0.1286 H   0  0  0  0  0  0  0  0  0  0  0  0
    6.1671    1.4857    0.6476 H   0  0  0  0  0  0  0  0  0  0  0  0
   -1.5500    1.0027    1.6491 C   0  0  0  0  0  0  0  0  0  0  0  0
   -2.3735    1.6280    0.9951 O   0  0  0  0  0  0  0  0  0  0  0  0
   -0.8531    1.6425    2.6595 N   0  0  0  0  0  0  0  0  0  0  0  0
   -0.3253    1.0479    3.2925 H   0  0  0  0  0  0  0  0  0  0  0  0
   -1.2155    2.9797    3.1224 C   0  0  0  0  0  0  0  0  0  0  0  0
   -2.2376    2.9854    3.5167 H   0  0  0  0  0  0  0  0  0  0  0  0
   -0.5368    3.3048    3.9170 H   0  0  0  0  0  0  0  0  0  0  0  0
   -1.1538    3.7026    2.3019 H   0  0  0  0  0  0  0  0  0  0  0  0
  1  2  1  0  0  0  0
  2  3  1  0  0  0  0
  2  4  1  0  0  0  0
  2  5  1  0  0  0  0
  5  6  2  0  0  0  0
  5  7  1  0  0  0  0
  7  8  1  0  0  0  0
  7  9  1  0  0  0  0
  9 10  1  0  0  0  0
  9 11  1  0  0  0  0
  9 29  1  0  0  0  0
 11 12  1  0  0  0  0
 11 13  1  0  0  0  0
 11 14  1  0  0  0  0
 14 15  1  0  0  0  0
 14 16  1  0  0  0  0
 14 17  1  0  0  0  0
 17 18  1  0  0  0  0
 17 19  1  0  0  0  0
 17 20  1  0  0  0  0
 20 21  1  0  0  0  0
 20 22  2  0  0  0  0
 22 23  1  0  0  0  0
 22 26  1  0  0  0  0
 23 24  1  0  0  0  0
 23 25  1  0  0  0  0
 26 27  1  0  0  0  0
 26 28  1  0  0  0  0
 29 30  2  0  0  0  0
 29 31  1  0  0  0  0
 31 32  1  0  0  0  0
 31 33  1  0  0  0  0
 33 34  1  0  0  0  0
 33 35  1  0  0  0  0
 33 36  1  0  0  0  0
M  CHG  1  20   1
M  END
$$$$

  -OEChem-03222214013D

 36 35  0     1  0  0  0  0  0999 V2000
   -3.9392   -4.1593    1.9121 H   0  0  0  0  0  0  0  0  0  0  0  0
   -3.9898   -3.1359    1.5298 C   0  0  0  0  0  0  0  0  0  0  0  0
   -4.6982   -2.5674    2.1374 H   0  0  0  0  0  0  0  0  0  0  0  0
   -4.3462   -3.1634    0.4972 H   0  0  0  0  0  0  0  0  0  0  0  0
   -2.6198   -2.4885    1.5890 C   0  0  0  0  0  0  0  0  0  0  0  0
   -1.6690   -3.0972    2.0567 O   0  0  0  0  0  0  0  0  0  0  0  0
   -2.4350   -1.2099    1.1030 N   0  0  0  0  0  0  0  0  0  0  0  0
   -3.2603   -0.7009    0.7858 H   0  0  0  0  0  0  0  0  0  0  0  0
   -1.1787   -0.4593    1.2257 C   0  0  1  0  0  0  0  0  0  0  0  0
   -0.5265   -0.9018    1.9855 H   0  0  0  0  0  0  0  0  0  0  0  0
   -0.4869   -0.5493   -0.1534 C   0  0  0  0  0  0  0  0  0  0  0  0
   -0.1456   -1.5768   -0.3209 H   0  0  0  0  0  0  0  0  0  0  0  0
   -1.2467   -0.3394   -0.9152 H   0  0  0  0  0  0  0  0  0  0  0  0
    0.6668    0.4422   -0.3924 C   0  0  0  0  0  0  0  0  0  0  0  0
    0.7259    0.6405   -1.4683 H   0  0  0  0  0  0  0  0  0  0  0  0
    0.4961    1.4036    0.1010 H   0  0  0  0  0  0  0  0  0  0  0  0
    1.9853   -0.1813    0.0612 C   0  0  0  0  0  0  0  0  0  0  0  0
    1.9421   -0.3688    1.1398 H   0  0  0  0  0  0  0  0  0  0  0  0
    2.1206   -1.1398   -0.4521 H   0  0  0  0  0  0  0  0  0  0  0  0
    3.1067    0.7223   -0.2536 N   0  3  0  0  0  0  0  0  0  0  0  0
    2.8790    1.6016   -0.7167 H   0  0  0  0  0  0  0  0  0  0  0  0
    4.3514    0.4409    0.0044 C   0  0  0  0  0  0  0  0  0  0  0  0
    4.7188   -0.7429    0.6034 N   0  0  0  0  0  0  0  0  0  0  0  0
    4.0142   -1.4732    0.6868 H   0  0  0  0  0  0  0  0  0  0  0  0
    5.6968   -1.0236    0.5717 H   0  0  0  0  0  0  0  0  0  0  0  0
    5.3341    1.3425   -0.3288 N   0  0  0  0  0  0  0  0  0  0  0  0
    5.0646    2.2807   -0.6186 H   0  0  0  0  0  0  0  0  0  0  0  0
    6.2688    1.2090    0.0531 H   0  0  0  0  0  0  0  0  0  0  0  0
   -1.4971    0.9826    1.6716 C   0  0  0  0  0  0  0  0  0  0  0  0
   -2.3389    1.6313    1.0650 O   0  0  0  0  0  0  0  0  0  0  0  0
   -0.7591    1.5889    2.6734 N   0  0  0  0  0  0  0  0  0  0  0  0
   -0.2011    0.9769    3.2627 H   0  0  0  0  0  0  0  0  0  0  0  0
   -1.0828    2.9197    3.1801 C   0  0  0  0  0  0  0  0  0  0  0  0
   -2.0844    2.9282    3.6237 H   0  0  0  0  0  0  0  0  0  0  0  0
   -0.3624    3.2209    3.9470 H   0  0  0  0  0  0  0  0  0  0  0  0
   -1.0522    3.6586    2.3720 H   0  0  0  0  0  0  0  0  0  0  0  0
  1  2  1  0  0  0  0
  2  3  1  0  0  0  0
  2  4  1  0  0  0  0
  2  5  1  0  0  0  0
  5  6  2  0  0  0  0
  5  7  1  0  0  0  0
  7  8  1  0  0  0  0
  7  9  1  0  0  0  0
  9 10  1  0  0  0  0
  9 11  1  0  0  0  0
  9 29  1  0  0  0  0
 11 12  1  0  0  0  0
 11 13  1  0  0  0  0
 11 14  1  0  0  0  0
 14 15  1  0  0  0  0
 14 16  1  0  0  0  0
 14 17  1  0  0  0  0
 17 18  1  0  0  0  0
 17 19  1  0  0  0  0
 17 20  1  0  0  0  0
 20 21  1  0  0  0  0
 20 22  2  0  0  0  0
 22 23  1  0  0  0  0
 22 26  1  0  0  0  0
 23 24  1  0  0  0  0
 23 25  1  0  0  0  0
 26 27  1  0  0  0  0
 26 28  1  0  0  0  0
 29 30  2  0  0  0  0
 29 31  1  0  0  0  0
 31 32  1  0  0  0  0
 31 33  1  0  0  0  0
 33 34  1  0  0  0  0
 33 35  1  0  0  0  0
 33 36  1  0  0  0  0
M  CHG  1  20   1
M  END
$$$$

  -OEChem-03222214013D

 36 35  0     1  0  0  0  0  0999 V2000
   -3.9586   -4.1203    2.0066 H   0  0  0  0  0  0  0  0  0  0  0  0
   -3.9970   -3.1165    1.5736 C   0  0  0  0  0  0  0  0  0  0  0  0
   -4.6811   -2.5044    2.1663 H   0  0  0  0  0  0  0  0  0  0  0  0
   -4.3759   -3.1882    0.5512 H   0  0  0  0  0  0  0  0  0  0  0  0
   -2.6135   -2.4953    1.5720 C   0  0  0  0  0  0  0  0  0  0  0  0
   -1.6524   -3.1288    1.9818 O   0  0  0  0  0  0  0  0  0  0  0  0
   -2.4287   -1.2115    1.0998 N   0  0  0  0  0  0  0  0  0  0  0  0
   -3.2593   -0.6826    0.8334 H   0  0  0  0  0  0  0  0  0  0  0  0
   -1.1591   -0.4786    1.1943 C   0  0  1  0  0  0  0  0  0  0  0  0
   -0.4868   -0.9410    1.9242 H   0  0  0  0  0  0  0  0  0  0  0  0
   -0.5157   -0.5509   -0.2093 C   0  0  0  0  0  0  0  0  0  0  0  0
   -0.1985   -1.5815   -0.4037 H   0  0  0  0  0  0  0  0  0  0  0  0
   -1.2979   -0.3193   -0.9417 H   0  0  0  0  0  0  0  0  0  0  0  0
    0.6444    0.4310   -0.4721 C   0  0  0  0  0  0  0  0  0  0  0  0
    0.5077    0.8698   -1.4669 H   0  0  0  0  0  0  0  0  0  0  0  0
    0.6594    1.2561    0.2448 H   0  0  0  0  0  0  0  0  0  0  0  0
    1.9744   -0.3188   -0.4391 C   0  0  0  0  0  0  0  0  0  0  0  0
    2.0989   -0.7794    0.5472 H   0  0  0  0  0  0  0  0  0  0  0  0
    1.9565   -1.1133   -1.1938 H   0  0  0  0  0  0  0  0  0  0  0  0
    3.0847    0.6120   -0.7101 N   0  3  0  0  0  0  0  0  0  0  0  0
    2.8389    1.5443   -1.0416 H   0  0  0  0  0  0  0  0  0  0  0  0
    4.3395    0.2921   -0.5781 C   0  0  0  0  0  0  0  0  0  0  0  0
    4.7286   -0.9648   -0.1738 N   0  0  0  0  0  0  0  0  0  0  0  0
    4.0196   -1.6951   -0.1456 H   0  0  0  0  0  0  0  0  0  0  0  0
    5.6972   -1.2447   -0.3150 H   0  0  0  0  0  0  0  0  0  0  0  0
    5.3099    1.2269   -0.8494 N   0  0  0  0  0  0  0  0  0  0  0  0
    5.0337    2.1989   -0.9763 H   0  0  0  0  0  0  0  0  0  0  0  0
    6.2655    1.0362   -0.5530 H   0  0  0  0  0  0  0  0  0  0  0  0
   -1.4491    0.9597    1.6727 C   0  0  0  0  0  0  0  0  0  0  0  0
   -2.2996    1.6272    1.0993 O   0  0  0  0  0  0  0  0  0  0  0  0
   -0.6757    1.5440    2.6607 N   0  0  0  0  0  0  0  0  0  0  0  0
   -0.1000    0.9206    3.2205 H   0  0  0  0  0  0  0  0  0  0  0  0
   -0.9599    2.8756    3.1878 C   0  0  0  0  0  0  0  0  0  0  0  0
   -1.9546    2.9022    3.6458 H   0  0  0  0  0  0  0  0  0  0  0  0
   -0.2218    3.1495    3.9479 H   0  0  0  0  0  0  0  0  0  0  0  0
   -0.9226    3.6230    2.3878 H   0  0  0  0  0  0  0  0  0  0  0  0
  1  2  1  0  0  0  0
  2  3  1  0  0  0  0
  2  4  1  0  0  0  0
  2  5  1  0  0  0  0
  5  6  2  0  0  0  0
  5  7  1  0  0  0  0
  7  8  1  0  0  0  0
  7  9  1  0  0  0  0
  9 10  1  0  0  0  0
  9 11  1  0  0  0  0
  9 29  1  0  0  0  0
 11 12  1  0  0  0  0
 11 13  1  0  0  0  0
 11 14  1  0  0  0  0
 14 15  1  0  0  0  0
 14 16  1  0  0  0  0
 14 17  1  0  0  0  0
 17 18  1  0  0  0  0
 17 19  1  0  0  0  0
 17 20  1  0  0  0  0
 20 21  1  0  0  0  0
 20 22  2  0  0  0  0
 22 23  1  0  0  0  0
 22 26  1  0  0  0  0
 23 24  1  0  0  0  0
 23 25  1  0  0  0  0
 26 27  1  0  0  0  0
 26 28  1  0  0  0  0
 29 30  2  0  0  0  0
 29 31  1  0  0  0  0
 31 32  1  0  0  0  0
 31 33  1  0  0  0  0
 33 34  1  0  0  0  0
 33 35  1  0  0  0  0
 33 36  1  0  0  0  0
M  CHG  1  20   1
M  END
$$$$

  -OEChem-03222214013D

 36 35  0     1  0  0  0  0  0999 V2000
   -3.9802   -4.1102    2.0099 H   0  0  0  0  0  0  0  0  0  0  0  0
   -4.0103   -3.1079    1.5732 C   0  0  0  0  0  0  0  0  0  0  0  0
   -4.6843   -2.4861    2.1676 H   0  0  0  0  0  0  0  0  0  0  0  0
   -4.3960   -3.1794    0.5534 H   0  0  0  0  0  0  0  0  0  0  0  0
   -2.6204   -2.5014    1.5610 C   0  0  0  0  0  0  0  0  0  0  0  0
   -1.6625   -3.1457    1.9609 O   0  0  0  0  0  0  0  0  0  0  0  0
   -2.4278   -1.2182    1.0906 N   0  0  0  0  0  0  0  0  0  0  0  0
   -3.2567   -0.6818    0.8338 H   0  0  0  0  0  0  0  0  0  0  0  0
   -1.1544   -0.4920    1.1876 C   0  0  1  0  0  0  0  0  0  0  0  0
   -0.4814   -0.9600    1.9139 H   0  0  0  0  0  0  0  0  0  0  0  0
   -0.5159   -0.5510   -0.2176 C   0  0  0  0  0  0  0  0  0  0  0  0
   -0.1912   -1.5809   -0.4029 H   0  0  0  0  0  0  0  0  0  0  0  0
   -1.2931   -0.3268   -0.9575 H   0  0  0  0  0  0  0  0  0  0  0  0
    0.6472    0.4340   -0.4610 C   0  0  0  0  0  0  0  0  0  0  0  0
    0.3767    1.1062   -1.2832 H   0  0  0  0  0  0  0  0  0  0  0  0
    0.8410    1.0524    0.4198 H   0  0  0  0  0  0  0  0  0  0  0  0
    1.9205   -0.3344   -0.8114 C   0  0  0  0  0  0  0  0  0  0  0  0
    2.1832   -0.9909    0.0257 H   0  0  0  0  0  0  0  0  0  0  0  0
    1.7293   -0.9561   -1.6933 H   0  0  0  0  0  0  0  0  0  0  0  0
    3.0208    0.6078   -1.0866 N   0  3  0  0  0  0  0  0  0  0  0  0
    2.7733    1.5909   -1.1945 H   0  0  0  0  0  0  0  0  0  0  0  0
    4.2607    0.2416   -1.2401 C   0  0  0  0  0  0  0  0  0  0  0  0
    4.6435   -1.0775   -1.1480 N   0  0  0  0  0  0  0  0  0  0  0  0
    3.9118   -1.7850   -1.1174 H   0  0  0  0  0  0  0  0  0  0  0  0
    5.5562   -1.3483   -1.5086 H   0  0  0  0  0  0  0  0  0  0  0  0
    5.2207    1.1892   -1.5051 N   0  0  0  0  0  0  0  0  0  0  0  0
    4.9824    2.1735   -1.3978 H   0  0  0  0  0  0  0  0  0  0  0  0
    6.2009    0.9239   -1.4275 H   0  0  0  0  0  0  0  0  0  0  0  0
   -1.4403    0.9472    1.6675 C   0  0  0  0  0  0  0  0  0  0  0  0
   -2.2910    1.6168    1.0962 O   0  0  0  0  0  0  0  0  0  0  0  0
   -0.6668    1.5278    2.6576 N   0  0  0  0  0  0  0  0  0  0  0  0
   -0.0853    0.9039    3.2110 H   0  0  0  0  0  0  0  0  0  0  0  0
   -0.9428    2.8607    3.1860 C   0  0  0  0  0  0  0  0  0  0  0  0
   -1.9386    2.8949    3.6413 H   0  0  0  0  0  0  0  0  0  0  0  0
   -0.2044    3.1271    3.9486 H   0  0  0  0  0  0  0  0  0  0  0  0
   -0.8971    3.6094    2.3877 H   0  0  0  0  0  0  0  0  0  0  0  0
  1  2  1  0  0  0  0
  2  3  1  0  0  0  0
  2  4  1  0  0  0  0
  2  5  1  0  0  0  0
  5  6  2  0  0  0  0
  5  7  1  0  0  0  0
  7  8  1  0  0  0  0
  7  9  1  0  0  0  0
  9 10  1  0  0  0  0
  9 11  1  0  0  0  0
  9 29  1  0  0  0  0
 11 12  1  0  0  0  0
 11 13  1  0  0  0  0
 11 14  1  0  0  0  0
 14 15  1  0  0  0  0
 14 16  1  0  0  0  0
 14 17  1  0  0  0  0
 17 18  1  0  0  0  0
 17 19  1  0  0  0  0
 17 20  1  0  0  0  0
 20 21  1  0  0  0  0
 20 22  2  0  0  0  0
 22 23  1  0  0  0  0
 22 26  1  0  0  0  0
 23 24  1  0  0  0  0
 23 25  1  0  0  0  0
 26 27  1  0  0  0  0
 26 28  1  0  0  0  0
 29 30  2  0  0  0  0
 29 31  1  0  0  0  0
 31 32  1  0  0  0  0
 31 33  1  0  0  0  0
 33 34  1  0  0  0  0
 33 35  1  0  0  0  0
 33 36  1  0  0  0  0
M  CHG  1  20   1
M  END
$$$$

  -OEChem-03222214013D

 36 35  0     1  0  0  0  0  0999 V2000
   -4.0029   -4.1081    2.0011 H   0  0  0  0  0  0  0  0  0  0  0  0
   -4.0290   -3.1023    1.5723 C   0  0  0  0  0  0  0  0  0  0  0  0
   -4.6995   -2.4822    2.1722 H   0  0  0  0  0  0  0  0  0  0  0  0
   -4.4159   -3.1646    0.5523 H   0  0  0  0  0  0  0  0  0  0  0  0
   -2.6362   -2.5025    1.5631 C   0  0  0  0  0  0  0  0  0  0  0  0
   -1.6826   -3.1524    1.9634 O   0  0  0  0  0  0  0  0  0  0  0  0
   -2.4359   -1.2224    1.0874 N   0  0  0  0  0  0  0  0  0  0  0  0
   -3.2619   -0.6814    0.8322 H   0  0  0  0  0  0  0  0  0  0  0  0
   -1.1577   -0.5042    1.1771 C   0  0  1  0  0  0  0  0  0  0  0  0
   -0.4851   -0.9767    1.9007 H   0  0  0  0  0  0  0  0  0  0  0  0
   -0.5260   -0.5666   -0.2293 C   0  0  0  0  0  0  0  0  0  0  0  0
   -0.1861   -1.5956   -0.3913 H   0  0  0  0  0  0  0  0  0  0  0  0
   -1.2954   -0.3604   -0.9823 H   0  0  0  0  0  0  0  0  0  0  0  0
    0.6368    0.4186   -0.4557 C   0  0  0  0  0  0  0  0  0  0  0  0
    0.2795    1.2690   -1.0478 H   0  0  0  0  0  0  0  0  0  0  0  0
    1.0057    0.8055    0.4994 H   0  0  0  0  0  0  0  0  0  0  0  0
    1.7954   -0.2863   -1.1594 C   0  0  0  0  0  0  0  0  0  0  0  0
    2.1580   -1.1023   -0.5241 H   0  0  0  0  0  0  0  0  0  0  0  0
    1.4332   -0.7141   -2.1010 H   0  0  0  0  0  0  0  0  0  0  0  0
    2.8804    0.6755   -1.4267 N   0  3  0  0  0  0  0  0  0  0  0  0
    2.6686    1.6630   -1.2887 H   0  0  0  0  0  0  0  0  0  0  0  0
    4.0574    0.3312   -1.8635 C   0  0  0  0  0  0  0  0  0  0  0  0
    4.3845   -0.9831   -2.1093 N   0  0  0  0  0  0  0  0  0  0  0  0
    3.6319   -1.6689   -2.1074 H   0  0  0  0  0  0  0  0  0  0  0  0
    5.2138   -1.1845   -2.6644 H   0  0  0  0  0  0  0  0  0  0  0  0
    5.0057    1.2994   -2.0926 N   0  0  0  0  0  0  0  0  0  0  0  0
    4.8333    2.2458   -1.7586 H   0  0  0  0  0  0  0  0  0  0  0  0
    5.9721    1.0108   -2.2348 H   0  0  0  0  0  0  0  0  0  0  0  0
   -1.4184    0.9411    1.6515 C   0  0  0  0  0  0  0  0  0  0  0  0
   -2.2602    1.6216    1.0799 O   0  0  0  0  0  0  0  0  0  0  0  0
   -0.6297    1.5139    2.6338 N   0  0  0  0  0  0  0  0  0  0  0  0
   -0.0573    0.8821    3.1881 H   0  0  0  0  0  0  0  0  0  0  0  0
   -0.8856    2.8511    3.1612 C   0  0  0  0  0  0  0  0  0  0  0  0
   -1.8751    2.8959    3.6291 H   0  0  0  0  0  0  0  0  0  0  0  0
   -0.1349    3.1131    3.9134 H   0  0  0  0  0  0  0  0  0  0  0  0
   -0.8431    3.5965    2.3598 H   0  0  0  0  0  0  0  0  0  0  0  0
  1  2  1  0  0  0  0
  2  3  1  0  0  0  0
  2  4  1  0  0  0  0
  2  5  1  0  0  0  0
  5  6  2  0  0  0  0
  5  7  1  0  0  0  0
  7  8  1  0  0  0  0
  7  9  1  0  0  0  0
  9 10  1  0  0  0  0
  9 11  1  0  0  0  0
  9 29  1  0  0  0  0
 11 12  1  0  0  0  0
 11 13  1  0  0  0  0
 11 14  1  0  0  0  0
 14 15  1  0  0  0  0
 14 16  1  0  0  0  0
 14 17  1  0  0  0  0
 17 18  1  0  0  0  0
 17 19  1  0  0  0  0
 17 20  1  0  0  0  0
 20 21  1  0  0  0  0
 20 22  2  0  0  0  0
 22 23  1  0  0  0  0
 22 26  1  0  0  0  0
 23 24  1  0  0  0  0
 23 25  1  0  0  0  0
 26 27  1  0  0  0  0
 26 28  1  0  0  0  0
 29 30  2  0  0  0  0
 29 31  1  0  0  0  0
 31 32  1  0  0  0  0
 31 33  1  0  0  0  0
 33 34  1  0  0  0  0
 33 35  1  0  0  0  0
 33 36  1  0  0  0  0
M  CHG  1  20   1
M  END
$$$$

  -OEChem-03222214013D

 36 35  0     1  0  0  0  0  0999 V2000
   -4.0240   -4.0997    2.0196 H   0  0  0  0  0  0  0  0  0  0  0  0
   -4.0474   -3.0965    1.5849 C   0  0  0  0  0  0  0  0  0  0  0  0
   -4.7094   -2.4689    2.1862 H   0  0  0  0  0  0  0  0  0  0  0  0
   -4.4423   -3.1620    0.5684 H   0  0  0  0  0  0  0  0  0  0  0  0
   -2.6510   -2.5056    1.5622 C   0  0  0  0  0  0  0  0  0  0  0  0
   -1.6992   -3.1603    1.9581 O   0  0  0  0  0  0  0  0  0  0  0  0
   -2.4460   -1.2280    1.0817 N   0  0  0  0  0  0  0  0  0  0  0  0
   -3.2714   -0.6823    0.8345 H   0  0  0  0  0  0  0  0  0  0  0  0
   -1.1635   -0.5159    1.1611 C   0  0  1  0  0  0  0  0  0  0  0  0
   -0.4914   -0.9927    1.8826 H   0  0  0  0  0  0  0  0  0  0  0  0
   -0.5344   -0.5817   -0.2453 C   0  0  0  0  0  0  0  0  0  0  0  0
   -0.1844   -1.6085   -0.3993 H   0  0  0  0  0  0  0  0  0  0  0  0
   -1.2996   -0.3798   -1.0035 H   0  0  0  0  0  0  0  0  0  0  0  0
    0.6264    0.4044   -0.4548 C   0  0  0  0  0  0  0  0  0  0  0  0
    0.2298    1.3672   -0.7975 H   0  0  0  0  0  0  0  0  0  0  0  0
    1.1528    0.5699    0.4911 H   0  0  0  0  0  0  0  0  0  0  0  0
    1.6210   -0.1662   -1.4635 C   0  0  0  0  0  0  0  0  0  0  0  0
    2.0402   -1.0973   -1.0655 H   0  0  0  0  0  0  0  0  0  0  0  0
    1.0927   -0.3930   -2.3965 H   0  0  0  0  0  0  0  0  0  0  0  0
    2.6945    0.8118   -1.7178 N   0  3  0  0  0  0  0  0  0  0  0  0
    2.5597    1.7535   -1.3514 H   0  0  0  0  0  0  0  0  0  0  0  0
    3.7602    0.5469   -2.4172 C   0  0  0  0  0  0  0  0  0  0  0  0
    3.9729   -0.6932   -2.9754 N   0  0  0  0  0  0  0  0  0  0  0  0
    3.1984   -1.3539   -2.9750 H   0  0  0  0  0  0  0  0  0  0  0  0
    4.6827   -0.7885   -3.6990 H   0  0  0  0  0  0  0  0  0  0  0  0
    4.7033    1.5273   -2.6133 N   0  0  0  0  0  0  0  0  0  0  0  0
    4.6398    2.3857   -2.0695 H   0  0  0  0  0  0  0  0  0  0  0  0
    5.6150    1.2600   -2.9801 H   0  0  0  0  0  0  0  0  0  0  0  0
   -1.4034    0.9334    1.6321 C   0  0  0  0  0  0  0  0  0  0  0  0
   -2.2411    1.6219    1.0638 O   0  0  0  0  0  0  0  0  0  0  0  0
   -0.5995    1.4998    2.6056 N   0  0  0  0  0  0  0  0  0  0  0  0
   -0.0285    0.8631    3.1558 H   0  0  0  0  0  0  0  0  0  0  0  0
   -0.8370    2.8401    3.1335 C   0  0  0  0  0  0  0  0  0  0  0  0
   -1.8223    2.8960    3.6088 H   0  0  0  0  0  0  0  0  0  0  0  0
   -0.0776    3.0945    3.8796 H   0  0  0  0  0  0  0  0  0  0  0  0
   -0.7930    3.5842    2.3311 H   0  0  0  0  0  0  0  0  0  0  0  0
  1  2  1  0  0  0  0
  2  3  1  0  0  0  0
  2  4  1  0  0  0  0
  2  5  1  0  0  0  0
  5  6  2  0  0  0  0
  5  7  1  0  0  0  0
  7  8  1  0  0  0  0
  7  9  1  0  0  0  0
  9 10  1  0  0  0  0
  9 11  1  0  0  0  0
  9 29  1  0  0  0  0
 11 12  1  0  0  0  0
 11 13  1  0  0  0  0
 11 14  1  0  0  0  0
 14 15  1  0  0  0  0
 14 16  1  0  0  0  0
 14 17  1  0  0  0  0
 17 18  1  0  0  0  0
 17 19  1  0  0  0  0
 17 20  1  0  0  0  0
 20 21  1  0  0  0  0
 20 22  2  0  0  0  0
 22 23  1  0  0  0  0
 22 26  1  0  0  0  0
 23 24  1  0  0  0  0
 23 25  1  0  0  0  0
 26 27  1  0  0  0  0
 26 28  1  0  0  0  0
 29 30  2  0  0  0  0
 29 31  1  0  0  0  0
 31 32  1  0  0  0  0
 31 33  1  0  0  0  0
 33 34  1  0  0  0  0
 33 35  1  0  0  0  0
 33 36  1  0  0  0  0
M  CHG  1  20   1
M  END
$$$$

  -OEChem-03222214013D

 36 35  0     1  0  0  0  0  0999 V2000
   -4.0314   -4.0960    2.0258 H   0  0  0  0  0  0  0  0  0  0  0  0
   -4.0533   -3.0943    1.5873 C   0  0  0  0  0  0  0  0  0  0  0  0
   -4.7120   -2.4626    2.1883 H   0  0  0  0  0  0  0  0  0  0  0  0
   -4.4518   -3.1631    0.5723 H   0  0  0  0  0  0  0  0  0  0  0  0
   -2.6554   -2.5064    1.5571 C   0  0  0  0  0  0  0  0  0  0  0  0
   -1.7033   -3.1630    1.9486 O   0  0  0  0  0  0  0  0  0  0  0  0
   -2.4514   -1.2282    1.0777 N   0  0  0  0  0  0  0  0  0  0  0  0
   -3.2772   -0.6823    0.8331 H   0  0  0  0  0  0  0  0  0  0  0  0
   -1.1686   -0.5163    1.1527 C   0  0  1  0  0  0  0  0  0  0  0  0
   -0.4979   -0.9934    1.8754 H   0  0  0  0  0  0  0  0  0  0  0  0
   -0.5359   -0.5881   -0.2519 C   0  0  0  0  0  0  0  0  0  0  0  0
   -0.1823   -1.6131   -0.4096 H   0  0  0  0  0  0  0  0  0  0  0  0
   -1.3017   -0.3832   -1.0085 H   0  0  0  0  0  0  0  0  0  0  0  0
    0.6229    0.3985   -0.4580 C   0  0  0  0  0  0  0  0  0  0  0  0
    0.2265    1.4152   -0.5631 H   0  0  0  0  0  0  0  0  0  0  0  0
    1.2886    0.3765    0.4119 H   0  0  0  0  0  0  0  0  0  0  0  0
    1.4117    0.0101   -1.7068 C   0  0  0  0  0  0  0  0  0  0  0  0
    1.8451   -0.9862   -1.5637 H   0  0  0  0  0  0  0  0  0  0  0  0
    0.7277   -0.0286   -2.5620 H   0  0  0  0  0  0  0  0  0  0  0  0
    2.4748    1.0005   -1.9566 N   0  3  0  0  0  0  0  0  0  0  0  0
    2.4559    1.8517   -1.3963 H   0  0  0  0  0  0  0  0  0  0  0  0
    3.3871    0.8626   -2.8751 C   0  0  0  0  0  0  0  0  0  0  0  0
    3.4311   -0.2431   -3.6935 N   0  0  0  0  0  0  0  0  0  0  0  0
    2.6336   -0.8759   -3.6808 H   0  0  0  0  0  0  0  0  0  0  0  0
    3.9965   -0.2028   -4.5391 H   0  0  0  0  0  0  0  0  0  0  0  0
    4.3338    1.8449   -3.0434 N   0  0  0  0  0  0  0  0  0  0  0  0
    4.4144    2.5755   -2.3389 H   0  0  0  0  0  0  0  0  0  0  0  0
    5.1510    1.6407   -3.6159 H   0  0  0  0  0  0  0  0  0  0  0  0
   -1.4006    0.9331    1.6261 C   0  0  0  0  0  0  0  0  0  0  0  0
   -2.2383    1.6256    1.0626 O   0  0  0  0  0  0  0  0  0  0  0  0
   -0.5886    1.4944    2.5956 N   0  0  0  0  0  0  0  0  0  0  0  0
   -0.0107    0.8556    3.1364 H   0  0  0  0  0  0  0  0  0  0  0  0
   -0.8158    2.8348    3.1276 C   0  0  0  0  0  0  0  0  0  0  0  0
   -1.7968    2.8944    3.6115 H   0  0  0  0  0  0  0  0  0  0  0  0
   -0.0495    3.0850    3.8678 H   0  0  0  0  0  0  0  0  0  0  0  0
   -0.7748    3.5800    2.3260 H   0  0  0  0  0  0  0  0  0  0  0  0
  1  2  1  0  0  0  0
  2  3  1  0  0  0  0
  2  4  1  0  0  0  0
  2  5  1  0  0  0  0
  5  6  2  0  0  0  0
  5  7  1  0  0  0  0
  7  8  1  0  0  0  0
  7  9  1  0  0  0  0
  9 10  1  0  0  0  0
  9 11  1  0  0  0  0
  9 29  1  0  0  0  0
 11 12  1  0  0  0  0
 11 13  1  0  0  0  0
 11 14  1  0  0  0  0
 14 15  1  0  0  0  0
 14 16  1  0  0  0  0
 14 17  1  0  0  0  0
 17 18  1  0  0  0  0
 17 19  1  0  0  0  0
 17 20  1  0  0  0  0
 20 21  1  0  0  0  0
 20 22  2  0  0  0  0
 22 23  1  0  0  0  0
 22 26  1  0  0  0  0
 23 24  1  0  0  0  0
 23 25  1  0  0  0  0
 26 27  1  0  0  0  0
 26 28  1  0  0  0  0
 29 30  2  0  0  0  0
 29 31  1  0  0  0  0
 31 32  1  0  0  0  0
 31 33  1  0  0  0  0
 33 34  1  0  0  0  0
 33 35  1  0  0  0  0
 33 36  1  0  0  0  0
M  CHG  1  20   1
M  END
$$$$
