
  -OEChem-05262214473D

 49 49  0     1  0  0  0  0  0999 V2000
   -1.5619    0.5658    3.7981 C   0  0  0  0  0  0  0  0  0  0  0  0
   -0.6145   -0.0489    3.3224 O   0  0  0  0  0  0  0  0  0  0  0  0
   -1.9938    0.2834    5.1988 C   0  0  0  0  0  0  0  0  0  0  0  0
   -2.7535   -0.5129    5.2522 H   0  0  0  0  0  0  0  0  0  0  0  0
   -1.1626   -0.0642    5.8331 H   0  0  0  0  0  0  0  0  0  0  0  0
   -2.4318    1.1383    5.7384 H   0  0  0  0  0  0  0  0  0  0  0  0
   -2.3116    1.5383    3.1570 N   0  0  0  0  0  0  0  0  0  0  0  0
   -2.0648    1.9643    1.8046 C   0  0  2  0  0  0  0  0  0  0  0  0
   -0.7298    1.3789    1.3634 C   0  0  0  0  0  0  0  0  0  0  0  0
    0.1423    1.0262    2.1547 O   0  0  0  0  0  0  0  0  0  0  0  0
   -2.0560    3.4811    1.6952 C   0  0  0  0  0  0  0  0  0  0  0  0
   -3.0767    1.9741    3.6688 H   0  0  0  0  0  0  0  0  0  0  0  0
   -2.8689    1.5458    1.1895 H   0  0  0  0  0  0  0  0  0  0  0  0
   -1.2569    3.9183    2.3049 H   0  0  0  0  0  0  0  0  0  0  0  0
   -1.8965    3.8033    0.6609 H   0  0  0  0  0  0  0  0  0  0  0  0
   -3.0062    3.9023    2.0409 H   0  0  0  0  0  0  0  0  0  0  0  0
   -0.6071    1.3358   -0.0200 N   0  0  0  0  0  0  0  0  0  0  0  0
    0.5702    0.8350   -0.6836 C   0  0  2  0  0  0  0  0  0  0  0  0
    0.3256    0.9504   -2.1840 C   0  0  0  0  0  0  0  0  0  0  0  0
   -0.6981    1.4370   -2.6596 O   0  0  0  0  0  0  0  0  0  0  0  0
    0.8749   -0.6185   -0.3036 C   0  0  0  0  0  0  0  0  0  0  0  0
    1.2084   -0.7816    1.1593 C   0  0  0  0  0  0  0  0  0  0  0  0
    2.4093   -0.4031    1.6902 N   0  0  0  0  0  0  0  0  0  0  0  0
    0.4971   -1.2867    2.2220 C   0  0  0  0  0  0  0  0  0  0  0  0
    2.3752   -0.6902    3.0265 C   0  0  0  0  0  0  0  0  0  0  0  0
    1.2289   -1.2267    3.3815 N   0  0  0  0  0  0  0  0  0  0  0  0
   -1.3903    1.6325   -0.5973 H   0  0  0  0  0  0  0  0  0  0  0  0
    1.3945    1.5008   -0.4022 H   0  0  0  0  0  0  0  0  0  0  0  0
    1.6999   -1.0069   -0.9161 H   0  0  0  0  0  0  0  0  0  0  0  0
    0.0167   -1.2634   -0.5345 H   0  0  0  0  0  0  0  0  0  0  0  0
    3.1837    0.0122    1.1891 H   0  0  0  0  0  0  0  0  0  0  0  0
   -0.5051   -1.6911    2.2137 H   0  0  0  0  0  0  0  0  0  0  0  0
    3.2118   -0.4852    3.6793 H   0  0  0  0  0  0  0  0  0  0  0  0
    1.4067    0.4914   -2.9235 N   0  0  0  0  0  0  0  0  0  0  0  0
    1.4450    0.5093   -4.3681 C   0  0  2  0  0  0  0  0  0  0  0  0
    0.1586   -0.1247   -4.8806 C   0  0  0  0  0  0  0  0  0  0  0  0
   -0.5217   -0.8981   -4.2096 O   0  0  0  0  0  0  0  0  0  0  0  0
    2.6639   -0.2293   -4.8986 C   0  0  0  0  0  0  0  0  0  0  0  0
    2.2116    0.1243   -2.4242 H   0  0  0  0  0  0  0  0  0  0  0  0
    1.4798    1.5617   -4.6705 H   0  0  0  0  0  0  0  0  0  0  0  0
    2.6466   -1.2854   -4.6057 H   0  0  0  0  0  0  0  0  0  0  0  0
    2.7067   -0.1903   -5.9921 H   0  0  0  0  0  0  0  0  0  0  0  0
    3.5872    0.2096   -4.5053 H   0  0  0  0  0  0  0  0  0  0  0  0
   -0.1175    0.2407   -6.1907 N   0  0  0  0  0  0  0  0  0  0  0  0
   -1.2763   -0.2398   -6.9064 C   0  0  0  0  0  0  0  0  0  0  0  0
    0.4914    0.9018   -6.6640 H   0  0  0  0  0  0  0  0  0  0  0  0
   -1.0111   -1.1484   -7.4668 H   0  0  0  0  0  0  0  0  0  0  0  0
   -2.0790   -0.4716   -6.1909 H   0  0  0  0  0  0  0  0  0  0  0  0
   -1.6219    0.5350   -7.6067 H   0  0  0  0  0  0  0  0  0  0  0  0
 22 24  2  0  0  0  0
 24 26  1  0  0  0  0
 25 26  2  0  0  0  0
 23 25  1  0  0  0  0
 21 22  1  0  0  0  0
 22 23  1  0  0  0  0
  1  3  1  0  0  0  0
  1  7  1  0  0  0  0
  1  2  2  0  0  0  0
 35 36  1  0  0  0  0
 36 44  1  0  0  0  0
 36 37  2  0  0  0  0
  8  9  1  0  0  0  0
  9 17  1  0  0  0  0
  9 10  2  0  0  0  0
 18 19  1  0  0  0  0
 19 34  1  0  0  0  0
 19 20  2  0  0  0  0
 35 38  1  0  0  0  0
  8 11  1  0  0  0  0
 44 45  1  0  0  0  0
 18 21  1  0  0  0  0
 34 35  1  0  0  0  0
  7  8  1  0  0  0  0
 17 18  1  0  0  0  0
 24 32  1  0  0  0  0
 25 33  1  0  0  0  0
  3  4  1  0  0  0  0
  3  5  1  0  0  0  0
  3  6  1  0  0  0  0
 38 41  1  0  0  0  0
 38 42  1  0  0  0  0
 38 43  1  0  0  0  0
 11 14  1  0  0  0  0
 11 15  1  0  0  0  0
 11 16  1  0  0  0  0
 45 47  1  0  0  0  0
 45 48  1  0  0  0  0
 45 49  1  0  0  0  0
 21 29  1  0  0  0  0
 21 30  1  0  0  0  0
 35 40  1  0  0  0  0
  8 13  1  0  0  0  0
 18 28  1  0  0  0  0
 23 31  1  0  0  0  0
 44 46  1  0  0  0  0
  7 12  1  0  0  0  0
 34 39  1  0  0  0  0
 17 27  1  0  0  0  0
M  END
$$$$

  -OEChem-05262214473D

 49 49  0     1  0  0  0  0  0999 V2000
   -1.5619    0.5658    3.7981 C   0  0  0  0  0  0  0  0  0  0  0  0
   -0.6145   -0.0489    3.3224 O   0  0  0  0  0  0  0  0  0  0  0  0
   -1.9938    0.2834    5.1988 C   0  0  0  0  0  0  0  0  0  0  0  0
   -2.7535   -0.5129    5.2522 H   0  0  0  0  0  0  0  0  0  0  0  0
   -1.1626   -0.0642    5.8331 H   0  0  0  0  0  0  0  0  0  0  0  0
   -2.4318    1.1383    5.7384 H   0  0  0  0  0  0  0  0  0  0  0  0
   -2.3116    1.5383    3.1570 N   0  0  0  0  0  0  0  0  0  0  0  0
   -2.0648    1.9643    1.8046 C   0  0  2  0  0  0  0  0  0  0  0  0
   -0.7298    1.3789    1.3634 C   0  0  0  0  0  0  0  0  0  0  0  0
    0.1423    1.0262    2.1547 O   0  0  0  0  0  0  0  0  0  0  0  0
   -2.0560    3.4811    1.6952 C   0  0  0  0  0  0  0  0  0  0  0  0
   -3.0767    1.9741    3.6688 H   0  0  0  0  0  0  0  0  0  0  0  0
   -2.8689    1.5458    1.1895 H   0  0  0  0  0  0  0  0  0  0  0  0
   -1.2569    3.9183    2.3049 H   0  0  0  0  0  0  0  0  0  0  0  0
   -1.8965    3.8033    0.6609 H   0  0  0  0  0  0  0  0  0  0  0  0
   -3.0062    3.9023    2.0409 H   0  0  0  0  0  0  0  0  0  0  0  0
   -0.6071    1.3358   -0.0200 N   0  0  0  0  0  0  0  0  0  0  0  0
    0.5702    0.8350   -0.6836 C   0  0  2  0  0  0  0  0  0  0  0  0
    0.3256    0.9504   -2.1840 C   0  0  0  0  0  0  0  0  0  0  0  0
   -0.5522    1.6632   -2.6660 O   0  0  0  0  0  0  0  0  0  0  0  0
    0.8749   -0.6185   -0.3036 C   0  0  0  0  0  0  0  0  0  0  0  0
    1.2084   -0.7816    1.1593 C   0  0  0  0  0  0  0  0  0  0  0  0
    2.4093   -0.4031    1.6902 N   0  0  0  0  0  0  0  0  0  0  0  0
    0.4971   -1.2867    2.2220 C   0  0  0  0  0  0  0  0  0  0  0  0
    2.3752   -0.6902    3.0265 C   0  0  0  0  0  0  0  0  0  0  0  0
    1.2289   -1.2267    3.3815 N   0  0  0  0  0  0  0  0  0  0  0  0
   -1.3903    1.6325   -0.5973 H   0  0  0  0  0  0  0  0  0  0  0  0
    1.3945    1.5008   -0.4022 H   0  0  0  0  0  0  0  0  0  0  0  0
    1.6999   -1.0069   -0.9161 H   0  0  0  0  0  0  0  0  0  0  0  0
    0.0167   -1.2634   -0.5345 H   0  0  0  0  0  0  0  0  0  0  0  0
    3.1837    0.0122    1.1891 H   0  0  0  0  0  0  0  0  0  0  0  0
   -0.5051   -1.6911    2.2137 H   0  0  0  0  0  0  0  0  0  0  0  0
    3.2118   -0.4852    3.6793 H   0  0  0  0  0  0  0  0  0  0  0  0
    1.2356    0.2022   -2.9178 N   0  0  0  0  0  0  0  0  0  0  0  0
    1.2412    0.1535   -4.3623 C   0  0  2  0  0  0  0  0  0  0  0  0
   -0.1766   -0.1509   -4.8280 C   0  0  0  0  0  0  0  0  0  0  0  0
   -1.0142   -0.6983   -4.1139 O   0  0  0  0  0  0  0  0  0  0  0  0
    2.2186   -0.8917   -4.8769 C   0  0  0  0  0  0  0  0  0  0  0  0
    1.9329   -0.3382   -2.4144 H   0  0  0  0  0  0  0  0  0  0  0  0
    1.5349    1.1495   -4.7112 H   0  0  0  0  0  0  0  0  0  0  0  0
    1.9405   -1.8962   -4.5375 H   0  0  0  0  0  0  0  0  0  0  0  0
    2.2425   -0.9076   -5.9716 H   0  0  0  0  0  0  0  0  0  0  0  0
    3.2326   -0.6879   -4.5165 H   0  0  0  0  0  0  0  0  0  0  0  0
   -0.3833    0.2216   -6.1489 N   0  0  0  0  0  0  0  0  0  0  0  0
   -1.6437    0.0251   -6.8262 C   0  0  0  0  0  0  0  0  0  0  0  0
    0.3617    0.6865   -6.6594 H   0  0  0  0  0  0  0  0  0  0  0  0
   -1.6323   -0.9422   -7.3497 H   0  0  0  0  0  0  0  0  0  0  0  0
   -2.4608    0.0338   -6.0898 H   0  0  0  0  0  0  0  0  0  0  0  0
   -1.7982    0.8345   -7.5549 H   0  0  0  0  0  0  0  0  0  0  0  0
 22 24  2  0  0  0  0
 24 26  1  0  0  0  0
 25 26  2  0  0  0  0
 23 25  1  0  0  0  0
 21 22  1  0  0  0  0
 22 23  1  0  0  0  0
  1  3  1  0  0  0  0
  1  7  1  0  0  0  0
  1  2  2  0  0  0  0
 35 36  1  0  0  0  0
 36 44  1  0  0  0  0
 36 37  2  0  0  0  0
  8  9  1  0  0  0  0
  9 17  1  0  0  0  0
  9 10  2  0  0  0  0
 18 19  1  0  0  0  0
 19 34  1  0  0  0  0
 19 20  2  0  0  0  0
 35 38  1  0  0  0  0
  8 11  1  0  0  0  0
 44 45  1  0  0  0  0
 18 21  1  0  0  0  0
 34 35  1  0  0  0  0
  7  8  1  0  0  0  0
 17 18  1  0  0  0  0
 24 32  1  0  0  0  0
 25 33  1  0  0  0  0
  3  4  1  0  0  0  0
  3  5  1  0  0  0  0
  3  6  1  0  0  0  0
 38 41  1  0  0  0  0
 38 42  1  0  0  0  0
 38 43  1  0  0  0  0
 11 14  1  0  0  0  0
 11 15  1  0  0  0  0
 11 16  1  0  0  0  0
 45 47  1  0  0  0  0
 45 48  1  0  0  0  0
 45 49  1  0  0  0  0
 21 29  1  0  0  0  0
 21 30  1  0  0  0  0
 35 40  1  0  0  0  0
  8 13  1  0  0  0  0
 18 28  1  0  0  0  0
 23 31  1  0  0  0  0
 44 46  1  0  0  0  0
  7 12  1  0  0  0  0
 34 39  1  0  0  0  0
 17 27  1  0  0  0  0
M  END
$$$$

  -OEChem-05262214473D

 49 49  0     1  0  0  0  0  0999 V2000
   -1.5619    0.5658    3.7981 C   0  0  0  0  0  0  0  0  0  0  0  0
   -0.6145   -0.0489    3.3224 O   0  0  0  0  0  0  0  0  0  0  0  0
   -1.9938    0.2834    5.1988 C   0  0  0  0  0  0  0  0  0  0  0  0
   -2.7535   -0.5129    5.2522 H   0  0  0  0  0  0  0  0  0  0  0  0
   -1.1626   -0.0642    5.8331 H   0  0  0  0  0  0  0  0  0  0  0  0
   -2.4318    1.1383    5.7384 H   0  0  0  0  0  0  0  0  0  0  0  0
   -2.3116    1.5383    3.1570 N   0  0  0  0  0  0  0  0  0  0  0  0
   -2.0648    1.9643    1.8046 C   0  0  2  0  0  0  0  0  0  0  0  0
   -0.7298    1.3789    1.3634 C   0  0  0  0  0  0  0  0  0  0  0  0
    0.1423    1.0262    2.1547 O   0  0  0  0  0  0  0  0  0  0  0  0
   -2.0560    3.4811    1.6952 C   0  0  0  0  0  0  0  0  0  0  0  0
   -3.0767    1.9741    3.6688 H   0  0  0  0  0  0  0  0  0  0  0  0
   -2.8689    1.5458    1.1895 H   0  0  0  0  0  0  0  0  0  0  0  0
   -1.2569    3.9183    2.3049 H   0  0  0  0  0  0  0  0  0  0  0  0
   -1.8965    3.8033    0.6609 H   0  0  0  0  0  0  0  0  0  0  0  0
   -3.0062    3.9023    2.0409 H   0  0  0  0  0  0  0  0  0  0  0  0
   -0.6071    1.3358   -0.0200 N   0  0  0  0  0  0  0  0  0  0  0  0
    0.5702    0.8350   -0.6836 C   0  0  2  0  0  0  0  0  0  0  0  0
    0.3256    0.9504   -2.1840 C   0  0  0  0  0  0  0  0  0  0  0  0
   -0.3538    1.8442   -2.6844 O   0  0  0  0  0  0  0  0  0  0  0  0
    0.8749   -0.6185   -0.3036 C   0  0  0  0  0  0  0  0  0  0  0  0
    1.2084   -0.7816    1.1593 C   0  0  0  0  0  0  0  0  0  0  0  0
    2.4093   -0.4031    1.6902 N   0  0  0  0  0  0  0  0  0  0  0  0
    0.4971   -1.2867    2.2220 C   0  0  0  0  0  0  0  0  0  0  0  0
    2.3752   -0.6902    3.0265 C   0  0  0  0  0  0  0  0  0  0  0  0
    1.2289   -1.2267    3.3815 N   0  0  0  0  0  0  0  0  0  0  0  0
   -1.3903    1.6325   -0.5973 H   0  0  0  0  0  0  0  0  0  0  0  0
    1.3945    1.5008   -0.4022 H   0  0  0  0  0  0  0  0  0  0  0  0
    1.6999   -1.0069   -0.9161 H   0  0  0  0  0  0  0  0  0  0  0  0
    0.0167   -1.2634   -0.5345 H   0  0  0  0  0  0  0  0  0  0  0  0
    3.1837    0.0122    1.1891 H   0  0  0  0  0  0  0  0  0  0  0  0
   -0.5051   -1.6911    2.2137 H   0  0  0  0  0  0  0  0  0  0  0  0
    3.2118   -0.4852    3.6793 H   0  0  0  0  0  0  0  0  0  0  0  0
    0.9969   -0.0332   -2.8970 N   0  0  0  0  0  0  0  0  0  0  0  0
    0.9538   -0.1380   -4.3378 C   0  0  2  0  0  0  0  0  0  0  0  0
   -0.5059   -0.0885   -4.7695 C   0  0  0  0  0  0  0  0  0  0  0  0
   -1.4371   -0.3758   -4.0202 O   0  0  0  0  0  0  0  0  0  0  0  0
    1.6200   -1.4173   -4.8198 C   0  0  0  0  0  0  0  0  0  0  0  0
    1.5461   -0.7136   -2.3802 H   0  0  0  0  0  0  0  0  0  0  0  0
    1.4823    0.7357   -4.7344 H   0  0  0  0  0  0  0  0  0  0  0  0
    1.1043   -2.3035   -4.4325 H   0  0  0  0  0  0  0  0  0  0  0  0
    1.6119   -1.4814   -5.9129 H   0  0  0  0  0  0  0  0  0  0  0  0
    2.6613   -1.4651   -4.4831 H   0  0  0  0  0  0  0  0  0  0  0  0
   -0.6440    0.2725   -6.1024 N   0  0  0  0  0  0  0  0  0  0  0  0
   -1.9295    0.3779   -6.7525 C   0  0  0  0  0  0  0  0  0  0  0  0
    0.1817    0.5117   -6.6435 H   0  0  0  0  0  0  0  0  0  0  0  0
   -2.1776   -0.5800   -7.2330 H   0  0  0  0  0  0  0  0  0  0  0  0
   -2.6988    0.6234   -6.0056 H   0  0  0  0  0  0  0  0  0  0  0  0
   -1.8912    1.1708   -7.5139 H   0  0  0  0  0  0  0  0  0  0  0  0
 22 24  2  0  0  0  0
 24 26  1  0  0  0  0
 25 26  2  0  0  0  0
 23 25  1  0  0  0  0
 21 22  1  0  0  0  0
 22 23  1  0  0  0  0
  1  3  1  0  0  0  0
  1  7  1  0  0  0  0
  1  2  2  0  0  0  0
 35 36  1  0  0  0  0
 36 44  1  0  0  0  0
 36 37  2  0  0  0  0
  8  9  1  0  0  0  0
  9 17  1  0  0  0  0
  9 10  2  0  0  0  0
 18 19  1  0  0  0  0
 19 34  1  0  0  0  0
 19 20  2  0  0  0  0
 35 38  1  0  0  0  0
  8 11  1  0  0  0  0
 44 45  1  0  0  0  0
 18 21  1  0  0  0  0
 34 35  1  0  0  0  0
  7  8  1  0  0  0  0
 17 18  1  0  0  0  0
 24 32  1  0  0  0  0
 25 33  1  0  0  0  0
  3  4  1  0  0  0  0
  3  5  1  0  0  0  0
  3  6  1  0  0  0  0
 38 41  1  0  0  0  0
 38 42  1  0  0  0  0
 38 43  1  0  0  0  0
 11 14  1  0  0  0  0
 11 15  1  0  0  0  0
 11 16  1  0  0  0  0
 45 47  1  0  0  0  0
 45 48  1  0  0  0  0
 45 49  1  0  0  0  0
 21 29  1  0  0  0  0
 21 30  1  0  0  0  0
 35 40  1  0  0  0  0
  8 13  1  0  0  0  0
 18 28  1  0  0  0  0
 23 31  1  0  0  0  0
 44 46  1  0  0  0  0
  7 12  1  0  0  0  0
 34 39  1  0  0  0  0
 17 27  1  0  0  0  0
M  END
$$$$

  -OEChem-05262214473D

 49 49  0     1  0  0  0  0  0999 V2000
   -1.5619    0.5658    3.7981 C   0  0  0  0  0  0  0  0  0  0  0  0
   -0.6145   -0.0489    3.3224 O   0  0  0  0  0  0  0  0  0  0  0  0
   -1.9938    0.2834    5.1988 C   0  0  0  0  0  0  0  0  0  0  0  0
   -2.7535   -0.5129    5.2522 H   0  0  0  0  0  0  0  0  0  0  0  0
   -1.1626   -0.0642    5.8331 H   0  0  0  0  0  0  0  0  0  0  0  0
   -2.4318    1.1383    5.7384 H   0  0  0  0  0  0  0  0  0  0  0  0
   -2.3116    1.5383    3.1570 N   0  0  0  0  0  0  0  0  0  0  0  0
   -2.0648    1.9643    1.8046 C   0  0  2  0  0  0  0  0  0  0  0  0
   -0.7298    1.3789    1.3634 C   0  0  0  0  0  0  0  0  0  0  0  0
    0.1423    1.0262    2.1547 O   0  0  0  0  0  0  0  0  0  0  0  0
   -2.0560    3.4811    1.6952 C   0  0  0  0  0  0  0  0  0  0  0  0
   -3.0767    1.9741    3.6688 H   0  0  0  0  0  0  0  0  0  0  0  0
   -2.8689    1.5458    1.1895 H   0  0  0  0  0  0  0  0  0  0  0  0
   -1.2569    3.9183    2.3049 H   0  0  0  0  0  0  0  0  0  0  0  0
   -1.8965    3.8033    0.6609 H   0  0  0  0  0  0  0  0  0  0  0  0
   -3.0062    3.9023    2.0409 H   0  0  0  0  0  0  0  0  0  0  0  0
   -0.6071    1.3358   -0.0200 N   0  0  0  0  0  0  0  0  0  0  0  0
    0.5702    0.8350   -0.6836 C   0  0  2  0  0  0  0  0  0  0  0  0
    0.3256    0.9504   -2.1840 C   0  0  0  0  0  0  0  0  0  0  0  0
   -0.1165    1.9677   -2.7136 O   0  0  0  0  0  0  0  0  0  0  0  0
    0.8749   -0.6185   -0.3036 C   0  0  0  0  0  0  0  0  0  0  0  0
    1.2084   -0.7816    1.1593 C   0  0  0  0  0  0  0  0  0  0  0  0
    2.4093   -0.4031    1.6902 N   0  0  0  0  0  0  0  0  0  0  0  0
    0.4971   -1.2867    2.2220 C   0  0  0  0  0  0  0  0  0  0  0  0
    2.3752   -0.6902    3.0265 C   0  0  0  0  0  0  0  0  0  0  0  0
    1.2289   -1.2267    3.3815 N   0  0  0  0  0  0  0  0  0  0  0  0
   -1.3903    1.6325   -0.5973 H   0  0  0  0  0  0  0  0  0  0  0  0
    1.3945    1.5008   -0.4022 H   0  0  0  0  0  0  0  0  0  0  0  0
    1.6999   -1.0069   -0.9161 H   0  0  0  0  0  0  0  0  0  0  0  0
    0.0167   -1.2634   -0.5345 H   0  0  0  0  0  0  0  0  0  0  0  0
    3.1837    0.0122    1.1891 H   0  0  0  0  0  0  0  0  0  0  0  0
   -0.5051   -1.6911    2.2137 H   0  0  0  0  0  0  0  0  0  0  0  0
    3.2118   -0.4852    3.6793 H   0  0  0  0  0  0  0  0  0  0  0  0
    0.7067   -0.1990   -2.8624 N   0  0  0  0  0  0  0  0  0  0  0  0
    0.6024   -0.3454   -4.2965 C   0  0  2  0  0  0  0  0  0  0  0  0
   -0.8071    0.0580   -4.7091 C   0  0  0  0  0  0  0  0  0  0  0  0
   -1.7617    0.0472   -3.9348 O   0  0  0  0  0  0  0  0  0  0  0  0
    0.9092   -1.7701   -4.7310 C   0  0  0  0  0  0  0  0  0  0  0  0
    1.0775   -0.9763   -2.3240 H   0  0  0  0  0  0  0  0  0  0  0  0
    1.3256    0.3484   -4.7387 H   0  0  0  0  0  0  0  0  0  0  0  0
    0.1949   -2.4797   -4.2978 H   0  0  0  0  0  0  0  0  0  0  0  0
    0.8577   -1.8726   -5.8200 H   0  0  0  0  0  0  0  0  0  0  0  0
    1.9121   -2.0688   -4.4074 H   0  0  0  0  0  0  0  0  0  0  0  0
   -0.8820    0.3901   -6.0546 N   0  0  0  0  0  0  0  0  0  0  0  0
   -2.1142    0.7945   -6.6903 C   0  0  0  0  0  0  0  0  0  0  0  0
   -0.0364    0.3894   -6.6173 H   0  0  0  0  0  0  0  0  0  0  0  0
   -2.6097   -0.0864   -7.1246 H   0  0  0  0  0  0  0  0  0  0  0  0
   -2.7770    1.2571   -5.9442 H   0  0  0  0  0  0  0  0  0  0  0  0
   -1.8946    1.5211   -7.4864 H   0  0  0  0  0  0  0  0  0  0  0  0
 22 24  2  0  0  0  0
 24 26  1  0  0  0  0
 25 26  2  0  0  0  0
 23 25  1  0  0  0  0
 21 22  1  0  0  0  0
 22 23  1  0  0  0  0
  1  3  1  0  0  0  0
  1  7  1  0  0  0  0
  1  2  2  0  0  0  0
 35 36  1  0  0  0  0
 36 44  1  0  0  0  0
 36 37  2  0  0  0  0
  8  9  1  0  0  0  0
  9 17  1  0  0  0  0
  9 10  2  0  0  0  0
 18 19  1  0  0  0  0
 19 34  1  0  0  0  0
 19 20  2  0  0  0  0
 35 38  1  0  0  0  0
  8 11  1  0  0  0  0
 44 45  1  0  0  0  0
 18 21  1  0  0  0  0
 34 35  1  0  0  0  0
  7  8  1  0  0  0  0
 17 18  1  0  0  0  0
 24 32  1  0  0  0  0
 25 33  1  0  0  0  0
  3  4  1  0  0  0  0
  3  5  1  0  0  0  0
  3  6  1  0  0  0  0
 38 41  1  0  0  0  0
 38 42  1  0  0  0  0
 38 43  1  0  0  0  0
 11 14  1  0  0  0  0
 11 15  1  0  0  0  0
 11 16  1  0  0  0  0
 45 47  1  0  0  0  0
 45 48  1  0  0  0  0
 45 49  1  0  0  0  0
 21 29  1  0  0  0  0
 21 30  1  0  0  0  0
 35 40  1  0  0  0  0
  8 13  1  0  0  0  0
 18 28  1  0  0  0  0
 23 31  1  0  0  0  0
 44 46  1  0  0  0  0
  7 12  1  0  0  0  0
 34 39  1  0  0  0  0
 17 27  1  0  0  0  0
M  END
$$$$

  -OEChem-05262214473D

 49 49  0     1  0  0  0  0  0999 V2000
   -1.5619    0.5658    3.7981 C   0  0  0  0  0  0  0  0  0  0  0  0
   -0.6145   -0.0489    3.3224 O   0  0  0  0  0  0  0  0  0  0  0  0
   -1.9938    0.2834    5.1988 C   0  0  0  0  0  0  0  0  0  0  0  0
   -2.7535   -0.5129    5.2522 H   0  0  0  0  0  0  0  0  0  0  0  0
   -1.1626   -0.0642    5.8331 H   0  0  0  0  0  0  0  0  0  0  0  0
   -2.4318    1.1383    5.7384 H   0  0  0  0  0  0  0  0  0  0  0  0
   -2.3116    1.5383    3.1570 N   0  0  0  0  0  0  0  0  0  0  0  0
   -2.0648    1.9643    1.8046 C   0  0  2  0  0  0  0  0  0  0  0  0
   -0.7298    1.3789    1.3634 C   0  0  0  0  0  0  0  0  0  0  0  0
    0.1423    1.0262    2.1547 O   0  0  0  0  0  0  0  0  0  0  0  0
   -2.0560    3.4811    1.6952 C   0  0  0  0  0  0  0  0  0  0  0  0
   -3.0767    1.9741    3.6688 H   0  0  0  0  0  0  0  0  0  0  0  0
   -2.8689    1.5458    1.1895 H   0  0  0  0  0  0  0  0  0  0  0  0
   -1.2569    3.9183    2.3049 H   0  0  0  0  0  0  0  0  0  0  0  0
   -1.8965    3.8033    0.6609 H   0  0  0  0  0  0  0  0  0  0  0  0
   -3.0062    3.9023    2.0409 H   0  0  0  0  0  0  0  0  0  0  0  0
   -0.6071    1.3358   -0.0200 N   0  0  0  0  0  0  0  0  0  0  0  0
    0.5702    0.8350   -0.6836 C   0  0  2  0  0  0  0  0  0  0  0  0
    0.3256    0.9504   -2.1840 C   0  0  0  0  0  0  0  0  0  0  0  0
    0.1437    2.0254   -2.7516 O   0  0  0  0  0  0  0  0  0  0  0  0
    0.8749   -0.6185   -0.3036 C   0  0  0  0  0  0  0  0  0  0  0  0
    1.2084   -0.7816    1.1593 C   0  0  0  0  0  0  0  0  0  0  0  0
    2.4093   -0.4031    1.6902 N   0  0  0  0  0  0  0  0  0  0  0  0
    0.4971   -1.2867    2.2220 C   0  0  0  0  0  0  0  0  0  0  0  0
    2.3752   -0.6902    3.0265 C   0  0  0  0  0  0  0  0  0  0  0  0
    1.2289   -1.2267    3.3815 N   0  0  0  0  0  0  0  0  0  0  0  0
   -1.3903    1.6325   -0.5973 H   0  0  0  0  0  0  0  0  0  0  0  0
    1.3945    1.5008   -0.4022 H   0  0  0  0  0  0  0  0  0  0  0  0
    1.6999   -1.0069   -0.9161 H   0  0  0  0  0  0  0  0  0  0  0  0
    0.0167   -1.2634   -0.5345 H   0  0  0  0  0  0  0  0  0  0  0  0
    3.1837    0.0122    1.1891 H   0  0  0  0  0  0  0  0  0  0  0  0
   -0.5051   -1.6911    2.2137 H   0  0  0  0  0  0  0  0  0  0  0  0
    3.2118   -0.4852    3.6793 H   0  0  0  0  0  0  0  0  0  0  0  0
    0.3848   -0.2837   -2.8165 N   0  0  0  0  0  0  0  0  0  0  0  0
    0.2109   -0.4545   -4.2411 C   0  0  2  0  0  0  0  0  0  0  0  0
   -1.0594    0.2787   -4.6510 C   0  0  0  0  0  0  0  0  0  0  0  0
   -1.9658    0.5421   -3.8635 O   0  0  0  0  0  0  0  0  0  0  0  0
    0.1344   -1.9261   -4.6167 C   0  0  0  0  0  0  0  0  0  0  0  0
    0.5591   -1.1083   -2.2496 H   0  0  0  0  0  0  0  0  0  0  0  0
    1.0756    0.0141   -4.7236 H   0  0  0  0  0  0  0  0  0  0  0  0
   -0.7258   -2.4125   -4.1425 H   0  0  0  0  0  0  0  0  0  0  0  0
    0.0314   -2.0545   -5.6992 H   0  0  0  0  0  0  0  0  0  0  0  0
    1.0362   -2.4580   -4.2945 H   0  0  0  0  0  0  0  0  0  0  0  0
   -1.0811    0.5662   -6.0086 N   0  0  0  0  0  0  0  0  0  0  0  0
   -2.1854    1.2465   -6.6440 C   0  0  0  0  0  0  0  0  0  0  0  0
   -0.2777    0.3279   -6.5827 H   0  0  0  0  0  0  0  0  0  0  0  0
   -2.8992    0.5050   -7.0319 H   0  0  0  0  0  0  0  0  0  0  0  0
   -2.6898    1.8917   -5.9096 H   0  0  0  0  0  0  0  0  0  0  0  0
   -1.8081    1.8615   -7.4743 H   0  0  0  0  0  0  0  0  0  0  0  0
 22 24  2  0  0  0  0
 24 26  1  0  0  0  0
 25 26  2  0  0  0  0
 23 25  1  0  0  0  0
 21 22  1  0  0  0  0
 22 23  1  0  0  0  0
  1  3  1  0  0  0  0
  1  7  1  0  0  0  0
  1  2  2  0  0  0  0
 35 36  1  0  0  0  0
 36 44  1  0  0  0  0
 36 37  2  0  0  0  0
  8  9  1  0  0  0  0
  9 17  1  0  0  0  0
  9 10  2  0  0  0  0
 18 19  1  0  0  0  0
 19 34  1  0  0  0  0
 19 20  2  0  0  0  0
 35 38  1  0  0  0  0
  8 11  1  0  0  0  0
 44 45  1  0  0  0  0
 18 21  1  0  0  0  0
 34 35  1  0  0  0  0
  7  8  1  0  0  0  0
 17 18  1  0  0  0  0
 24 32  1  0  0  0  0
 25 33  1  0  0  0  0
  3  4  1  0  0  0  0
  3  5  1  0  0  0  0
  3  6  1  0  0  0  0
 38 41  1  0  0  0  0
 38 42  1  0  0  0  0
 38 43  1  0  0  0  0
 11 14  1  0  0  0  0
 11 15  1  0  0  0  0
 11 16  1  0  0  0  0
 45 47  1  0  0  0  0
 45 48  1  0  0  0  0
 45 49  1  0  0  0  0
 21 29  1  0  0  0  0
 21 30  1  0  0  0  0
 35 40  1  0  0  0  0
  8 13  1  0  0  0  0
 18 28  1  0  0  0  0
 23 31  1  0  0  0  0
 44 46  1  0  0  0  0
  7 12  1  0  0  0  0
 34 39  1  0  0  0  0
 17 27  1  0  0  0  0
M  END
$$$$

  -OEChem-05262214473D

 49 49  0     1  0  0  0  0  0999 V2000
   -1.5619    0.5658    3.7981 C   0  0  0  0  0  0  0  0  0  0  0  0
   -0.6145   -0.0489    3.3224 O   0  0  0  0  0  0  0  0  0  0  0  0
   -1.9938    0.2834    5.1988 C   0  0  0  0  0  0  0  0  0  0  0  0
   -2.7535   -0.5129    5.2522 H   0  0  0  0  0  0  0  0  0  0  0  0
   -1.1626   -0.0642    5.8331 H   0  0  0  0  0  0  0  0  0  0  0  0
   -2.4318    1.1383    5.7384 H   0  0  0  0  0  0  0  0  0  0  0  0
   -2.3116    1.5383    3.1570 N   0  0  0  0  0  0  0  0  0  0  0  0
   -2.0648    1.9643    1.8046 C   0  0  2  0  0  0  0  0  0  0  0  0
   -0.7298    1.3789    1.3634 C   0  0  0  0  0  0  0  0  0  0  0  0
    0.1423    1.0262    2.1547 O   0  0  0  0  0  0  0  0  0  0  0  0
   -2.0560    3.4811    1.6952 C   0  0  0  0  0  0  0  0  0  0  0  0
   -3.0767    1.9741    3.6688 H   0  0  0  0  0  0  0  0  0  0  0  0
   -2.8689    1.5458    1.1895 H   0  0  0  0  0  0  0  0  0  0  0  0
   -1.2569    3.9183    2.3049 H   0  0  0  0  0  0  0  0  0  0  0  0
   -1.8965    3.8033    0.6609 H   0  0  0  0  0  0  0  0  0  0  0  0
   -3.0062    3.9023    2.0409 H   0  0  0  0  0  0  0  0  0  0  0  0
   -0.6071    1.3358   -0.0200 N   0  0  0  0  0  0  0  0  0  0  0  0
    0.5702    0.8350   -0.6836 C   0  0  2  0  0  0  0  0  0  0  0  0
    0.3256    0.9504   -2.1840 C   0  0  0  0  0  0  0  0  0  0  0  0
    0.4089    2.0132   -2.7958 O   0  0  0  0  0  0  0  0  0  0  0  0
    0.8749   -0.6185   -0.3036 C   0  0  0  0  0  0  0  0  0  0  0  0
    1.2084   -0.7816    1.1593 C   0  0  0  0  0  0  0  0  0  0  0  0
    2.4093   -0.4031    1.6902 N   0  0  0  0  0  0  0  0  0  0  0  0
    0.4971   -1.2867    2.2220 C   0  0  0  0  0  0  0  0  0  0  0  0
    2.3752   -0.6902    3.0265 C   0  0  0  0  0  0  0  0  0  0  0  0
    1.2289   -1.2267    3.3815 N   0  0  0  0  0  0  0  0  0  0  0  0
   -1.3903    1.6325   -0.5973 H   0  0  0  0  0  0  0  0  0  0  0  0
    1.3945    1.5008   -0.4022 H   0  0  0  0  0  0  0  0  0  0  0  0
    1.6999   -1.0069   -0.9161 H   0  0  0  0  0  0  0  0  0  0  0  0
    0.0167   -1.2634   -0.5345 H   0  0  0  0  0  0  0  0  0  0  0  0
    3.1837    0.0122    1.1891 H   0  0  0  0  0  0  0  0  0  0  0  0
   -0.5051   -1.6911    2.2137 H   0  0  0  0  0  0  0  0  0  0  0  0
    3.2118   -0.4852    3.6793 H   0  0  0  0  0  0  0  0  0  0  0  0
    0.0532   -0.2817   -2.7623 N   0  0  0  0  0  0  0  0  0  0  0  0
   -0.1938   -0.4578   -4.1753 C   0  0  2  0  0  0  0  0  0  0  0  0
   -1.2458    0.5586   -4.5991 C   0  0  0  0  0  0  0  0  0  0  0  0
   -2.0355    1.0750   -3.8111 O   0  0  0  0  0  0  0  0  0  0  0  0
   -0.6514   -1.8747   -4.4846 C   0  0  0  0  0  0  0  0  0  0  0  0
    0.0262   -1.1007   -2.1621 H   0  0  0  0  0  0  0  0  0  0  0  0
    0.7492   -0.2446   -4.6903 H   0  0  0  0  0  0  0  0  0  0  0  0
   -1.5950   -2.1067   -3.9773 H   0  0  0  0  0  0  0  0  0  0  0  0
   -0.8107   -2.0147   -5.5589 H   0  0  0  0  0  0  0  0  0  0  0  0
    0.0932   -2.6061   -4.1521 H   0  0  0  0  0  0  0  0  0  0  0  0
   -1.2275    0.7890   -5.9676 N   0  0  0  0  0  0  0  0  0  0  0  0
   -2.1380    1.7032   -6.6166 C   0  0  0  0  0  0  0  0  0  0  0  0
   -0.5258    0.3314   -6.5420 H   0  0  0  0  0  0  0  0  0  0  0  0
   -3.0265    1.1538   -6.9613 H   0  0  0  0  0  0  0  0  0  0  0  0
   -2.4433    2.4838   -5.9043 H   0  0  0  0  0  0  0  0  0  0  0  0
   -1.6377    2.1687   -7.4785 H   0  0  0  0  0  0  0  0  0  0  0  0
 22 24  2  0  0  0  0
 24 26  1  0  0  0  0
 25 26  2  0  0  0  0
 23 25  1  0  0  0  0
 21 22  1  0  0  0  0
 22 23  1  0  0  0  0
  1  3  1  0  0  0  0
  1  7  1  0  0  0  0
  1  2  2  0  0  0  0
 35 36  1  0  0  0  0
 36 44  1  0  0  0  0
 36 37  2  0  0  0  0
  8  9  1  0  0  0  0
  9 17  1  0  0  0  0
  9 10  2  0  0  0  0
 18 19  1  0  0  0  0
 19 34  1  0  0  0  0
 19 20  2  0  0  0  0
 35 38  1  0  0  0  0
  8 11  1  0  0  0  0
 44 45  1  0  0  0  0
 18 21  1  0  0  0  0
 34 35  1  0  0  0  0
  7  8  1  0  0  0  0
 17 18  1  0  0  0  0
 24 32  1  0  0  0  0
 25 33  1  0  0  0  0
  3  4  1  0  0  0  0
  3  5  1  0  0  0  0
  3  6  1  0  0  0  0
 38 41  1  0  0  0  0
 38 42  1  0  0  0  0
 38 43  1  0  0  0  0
 11 14  1  0  0  0  0
 11 15  1  0  0  0  0
 11 16  1  0  0  0  0
 45 47  1  0  0  0  0
 45 48  1  0  0  0  0
 45 49  1  0  0  0  0
 21 29  1  0  0  0  0
 21 30  1  0  0  0  0
 35 40  1  0  0  0  0
  8 13  1  0  0  0  0
 18 28  1  0  0  0  0
 23 31  1  0  0  0  0
 44 46  1  0  0  0  0
  7 12  1  0  0  0  0
 34 39  1  0  0  0  0
 17 27  1  0  0  0  0
M  END
$$$$

  -OEChem-05262214473D

 49 49  0     1  0  0  0  0  0999 V2000
   -1.5619    0.5658    3.7981 C   0  0  0  0  0  0  0  0  0  0  0  0
   -0.6145   -0.0489    3.3224 O   0  0  0  0  0  0  0  0  0  0  0  0
   -1.9938    0.2834    5.1988 C   0  0  0  0  0  0  0  0  0  0  0  0
   -2.7535   -0.5129    5.2522 H   0  0  0  0  0  0  0  0  0  0  0  0
   -1.1626   -0.0642    5.8331 H   0  0  0  0  0  0  0  0  0  0  0  0
   -2.4318    1.1383    5.7384 H   0  0  0  0  0  0  0  0  0  0  0  0
   -2.3116    1.5383    3.1570 N   0  0  0  0  0  0  0  0  0  0  0  0
   -2.0648    1.9643    1.8046 C   0  0  2  0  0  0  0  0  0  0  0  0
   -0.7298    1.3789    1.3634 C   0  0  0  0  0  0  0  0  0  0  0  0
    0.1423    1.0262    2.1547 O   0  0  0  0  0  0  0  0  0  0  0  0
   -2.0560    3.4811    1.6952 C   0  0  0  0  0  0  0  0  0  0  0  0
   -3.0767    1.9741    3.6688 H   0  0  0  0  0  0  0  0  0  0  0  0
   -2.8689    1.5458    1.1895 H   0  0  0  0  0  0  0  0  0  0  0  0
   -1.2569    3.9183    2.3049 H   0  0  0  0  0  0  0  0  0  0  0  0
   -1.8965    3.8033    0.6609 H   0  0  0  0  0  0  0  0  0  0  0  0
   -3.0062    3.9023    2.0409 H   0  0  0  0  0  0  0  0  0  0  0  0
   -0.6071    1.3358   -0.0200 N   0  0  0  0  0  0  0  0  0  0  0  0
    0.5702    0.8350   -0.6836 C   0  0  2  0  0  0  0  0  0  0  0  0
    0.3256    0.9504   -2.1840 C   0  0  0  0  0  0  0  0  0  0  0  0
    0.6612    1.9321   -2.8431 O   0  0  0  0  0  0  0  0  0  0  0  0
    0.8749   -0.6185   -0.3036 C   0  0  0  0  0  0  0  0  0  0  0  0
    1.2084   -0.7816    1.1593 C   0  0  0  0  0  0  0  0  0  0  0  0
    2.4093   -0.4031    1.6902 N   0  0  0  0  0  0  0  0  0  0  0  0
    0.4971   -1.2867    2.2220 C   0  0  0  0  0  0  0  0  0  0  0  0
    2.3752   -0.6902    3.0265 C   0  0  0  0  0  0  0  0  0  0  0  0
    1.2289   -1.2267    3.3815 N   0  0  0  0  0  0  0  0  0  0  0  0
   -1.3903    1.6325   -0.5973 H   0  0  0  0  0  0  0  0  0  0  0  0
    1.3945    1.5008   -0.4022 H   0  0  0  0  0  0  0  0  0  0  0  0
    1.6999   -1.0069   -0.9161 H   0  0  0  0  0  0  0  0  0  0  0  0
    0.0167   -1.2634   -0.5345 H   0  0  0  0  0  0  0  0  0  0  0  0
    3.1837    0.0122    1.1891 H   0  0  0  0  0  0  0  0  0  0  0  0
   -0.5051   -1.6911    2.2137 H   0  0  0  0  0  0  0  0  0  0  0  0
    3.2118   -0.4852    3.6793 H   0  0  0  0  0  0  0  0  0  0  0  0
   -0.2655   -0.1930   -2.7035 N   0  0  0  0  0  0  0  0  0  0  0  0
   -0.5844   -0.3552   -4.1038 C   0  0  2  0  0  0  0  0  0  0  0  0
   -1.3536    0.8787   -4.5569 C   0  0  0  0  0  0  0  0  0  0  0  0
   -1.9660    1.6097   -3.7813 O   0  0  0  0  0  0  0  0  0  0  0  0
   -1.3949   -1.6195   -4.3438 C   0  0  0  0  0  0  0  0  0  0  0  0
   -0.4849   -0.9540   -2.0675 H   0  0  0  0  0  0  0  0  0  0  0  0
    0.3687   -0.4099   -4.6409 H   0  0  0  0  0  0  0  0  0  0  0  0
   -2.3534   -1.5831   -3.8134 H   0  0  0  0  0  0  0  0  0  0  0  0
   -1.6112   -1.7559   -5.4085 H   0  0  0  0  0  0  0  0  0  0  0  0
   -0.8527   -2.5030   -3.9900 H   0  0  0  0  0  0  0  0  0  0  0  0
   -1.3115    1.0432   -5.9344 N   0  0  0  0  0  0  0  0  0  0  0  0
   -1.9754    2.1334   -6.6100 C   0  0  0  0  0  0  0  0  0  0  0  0
   -0.7637    0.3996   -6.4979 H   0  0  0  0  0  0  0  0  0  0  0  0
   -2.9827    1.8158   -6.9175 H   0  0  0  0  0  0  0  0  0  0  0  0
   -2.0543    2.9933   -5.9285 H   0  0  0  0  0  0  0  0  0  0  0  0
   -1.3948    2.4219   -7.4986 H   0  0  0  0  0  0  0  0  0  0  0  0
 22 24  2  0  0  0  0
 24 26  1  0  0  0  0
 25 26  2  0  0  0  0
 23 25  1  0  0  0  0
 21 22  1  0  0  0  0
 22 23  1  0  0  0  0
  1  3  1  0  0  0  0
  1  7  1  0  0  0  0
  1  2  2  0  0  0  0
 35 36  1  0  0  0  0
 36 44  1  0  0  0  0
 36 37  2  0  0  0  0
  8  9  1  0  0  0  0
  9 17  1  0  0  0  0
  9 10  2  0  0  0  0
 18 19  1  0  0  0  0
 19 34  1  0  0  0  0
 19 20  2  0  0  0  0
 35 38  1  0  0  0  0
  8 11  1  0  0  0  0
 44 45  1  0  0  0  0
 18 21  1  0  0  0  0
 34 35  1  0  0  0  0
  7  8  1  0  0  0  0
 17 18  1  0  0  0  0
 24 32  1  0  0  0  0
 25 33  1  0  0  0  0
  3  4  1  0  0  0  0
  3  5  1  0  0  0  0
  3  6  1  0  0  0  0
 38 41  1  0  0  0  0
 38 42  1  0  0  0  0
 38 43  1  0  0  0  0
 11 14  1  0  0  0  0
 11 15  1  0  0  0  0
 11 16  1  0  0  0  0
 45 47  1  0  0  0  0
 45 48  1  0  0  0  0
 45 49  1  0  0  0  0
 21 29  1  0  0  0  0
 21 30  1  0  0  0  0
 35 40  1  0  0  0  0
  8 13  1  0  0  0  0
 18 28  1  0  0  0  0
 23 31  1  0  0  0  0
 44 46  1  0  0  0  0
  7 12  1  0  0  0  0
 34 39  1  0  0  0  0
 17 27  1  0  0  0  0
M  END
$$$$

  -OEChem-05262214473D

 49 49  0     1  0  0  0  0  0999 V2000
   -1.5619    0.5658    3.7981 C   0  0  0  0  0  0  0  0  0  0  0  0
   -0.6145   -0.0489    3.3224 O   0  0  0  0  0  0  0  0  0  0  0  0
   -1.9938    0.2834    5.1988 C   0  0  0  0  0  0  0  0  0  0  0  0
   -2.7535   -0.5129    5.2522 H   0  0  0  0  0  0  0  0  0  0  0  0
   -1.1626   -0.0642    5.8331 H   0  0  0  0  0  0  0  0  0  0  0  0
   -2.4318    1.1383    5.7384 H   0  0  0  0  0  0  0  0  0  0  0  0
   -2.3116    1.5383    3.1570 N   0  0  0  0  0  0  0  0  0  0  0  0
   -2.0648    1.9643    1.8046 C   0  0  2  0  0  0  0  0  0  0  0  0
   -0.7298    1.3789    1.3634 C   0  0  0  0  0  0  0  0  0  0  0  0
    0.1423    1.0262    2.1547 O   0  0  0  0  0  0  0  0  0  0  0  0
   -2.0560    3.4811    1.6952 C   0  0  0  0  0  0  0  0  0  0  0  0
   -3.0767    1.9741    3.6688 H   0  0  0  0  0  0  0  0  0  0  0  0
   -2.8689    1.5458    1.1895 H   0  0  0  0  0  0  0  0  0  0  0  0
   -1.2569    3.9183    2.3049 H   0  0  0  0  0  0  0  0  0  0  0  0
   -1.8965    3.8033    0.6609 H   0  0  0  0  0  0  0  0  0  0  0  0
   -3.0062    3.9023    2.0409 H   0  0  0  0  0  0  0  0  0  0  0  0
   -0.6071    1.3358   -0.0200 N   0  0  0  0  0  0  0  0  0  0  0  0
    0.5702    0.8350   -0.6836 C   0  0  2  0  0  0  0  0  0  0  0  0
    0.3256    0.9504   -2.1840 C   0  0  0  0  0  0  0  0  0  0  0  0
    0.8832    1.7875   -2.8905 O   0  0  0  0  0  0  0  0  0  0  0  0
    0.8749   -0.6185   -0.3036 C   0  0  0  0  0  0  0  0  0  0  0  0
    1.2084   -0.7816    1.1593 C   0  0  0  0  0  0  0  0  0  0  0  0
    2.4093   -0.4031    1.6902 N   0  0  0  0  0  0  0  0  0  0  0  0
    0.4971   -1.2867    2.2220 C   0  0  0  0  0  0  0  0  0  0  0  0
    2.3752   -0.6902    3.0265 C   0  0  0  0  0  0  0  0  0  0  0  0
    1.2289   -1.2267    3.3815 N   0  0  0  0  0  0  0  0  0  0  0  0
   -1.3903    1.6325   -0.5973 H   0  0  0  0  0  0  0  0  0  0  0  0
    1.3945    1.5008   -0.4022 H   0  0  0  0  0  0  0  0  0  0  0  0
    1.6999   -1.0069   -0.9161 H   0  0  0  0  0  0  0  0  0  0  0  0
    0.0167   -1.2634   -0.5345 H   0  0  0  0  0  0  0  0  0  0  0  0
    3.1837    0.0122    1.1891 H   0  0  0  0  0  0  0  0  0  0  0  0
   -0.5051   -1.6911    2.2137 H   0  0  0  0  0  0  0  0  0  0  0  0
    3.2118   -0.4852    3.6793 H   0  0  0  0  0  0  0  0  0  0  0  0
   -0.5496   -0.0237   -2.6442 N   0  0  0  0  0  0  0  0  0  0  0  0
   -0.9341   -0.1537   -4.0312 C   0  0  2  0  0  0  0  0  0  0  0  0
   -1.3753    1.2170   -4.5274 C   0  0  0  0  0  0  0  0  0  0  0  0
   -1.7621    2.1097   -3.7761 O   0  0  0  0  0  0  0  0  0  0  0  0
   -2.0452   -1.1777   -4.2038 C   0  0  0  0  0  0  0  0  0  0  0  0
   -0.9394   -0.6782   -1.9722 H   0  0  0  0  0  0  0  0  0  0  0  0
   -0.0400   -0.4706   -4.5790 H   0  0  0  0  0  0  0  0  0  0  0  0
   -2.9494   -0.8773   -3.6620 H   0  0  0  0  0  0  0  0  0  0  0  0
   -2.3156   -1.2958   -5.2583 H   0  0  0  0  0  0  0  0  0  0  0  0
   -1.7368   -2.1559   -3.8192 H   0  0  0  0  0  0  0  0  0  0  0  0
   -1.3271    1.3114   -5.9112 N   0  0  0  0  0  0  0  0  0  0  0  0
   -1.7087    2.5078   -6.6247 C   0  0  0  0  0  0  0  0  0  0  0  0
   -0.9753    0.5280   -6.4536 H   0  0  0  0  0  0  0  0  0  0  0  0
   -2.7710    2.4460   -6.9036 H   0  0  0  0  0  0  0  0  0  0  0  0
   -1.5493    3.3852   -5.9807 H   0  0  0  0  0  0  0  0  0  0  0  0
   -1.0962    2.6037   -7.5334 H   0  0  0  0  0  0  0  0  0  0  0  0
 22 24  2  0  0  0  0
 24 26  1  0  0  0  0
 25 26  2  0  0  0  0
 23 25  1  0  0  0  0
 21 22  1  0  0  0  0
 22 23  1  0  0  0  0
  1  3  1  0  0  0  0
  1  7  1  0  0  0  0
  1  2  2  0  0  0  0
 35 36  1  0  0  0  0
 36 44  1  0  0  0  0
 36 37  2  0  0  0  0
  8  9  1  0  0  0  0
  9 17  1  0  0  0  0
  9 10  2  0  0  0  0
 18 19  1  0  0  0  0
 19 34  1  0  0  0  0
 19 20  2  0  0  0  0
 35 38  1  0  0  0  0
  8 11  1  0  0  0  0
 44 45  1  0  0  0  0
 18 21  1  0  0  0  0
 34 35  1  0  0  0  0
  7  8  1  0  0  0  0
 17 18  1  0  0  0  0
 24 32  1  0  0  0  0
 25 33  1  0  0  0  0
  3  4  1  0  0  0  0
  3  5  1  0  0  0  0
  3  6  1  0  0  0  0
 38 41  1  0  0  0  0
 38 42  1  0  0  0  0
 38 43  1  0  0  0  0
 11 14  1  0  0  0  0
 11 15  1  0  0  0  0
 11 16  1  0  0  0  0
 45 47  1  0  0  0  0
 45 48  1  0  0  0  0
 45 49  1  0  0  0  0
 21 29  1  0  0  0  0
 21 30  1  0  0  0  0
 35 40  1  0  0  0  0
  8 13  1  0  0  0  0
 18 28  1  0  0  0  0
 23 31  1  0  0  0  0
 44 46  1  0  0  0  0
  7 12  1  0  0  0  0
 34 39  1  0  0  0  0
 17 27  1  0  0  0  0
M  END
$$$$

  -OEChem-05262214473D

 49 49  0     1  0  0  0  0  0999 V2000
   -1.5619    0.5658    3.7981 C   0  0  0  0  0  0  0  0  0  0  0  0
   -0.6145   -0.0489    3.3224 O   0  0  0  0  0  0  0  0  0  0  0  0
   -1.9938    0.2834    5.1988 C   0  0  0  0  0  0  0  0  0  0  0  0
   -2.7535   -0.5129    5.2522 H   0  0  0  0  0  0  0  0  0  0  0  0
   -1.1626   -0.0642    5.8331 H   0  0  0  0  0  0  0  0  0  0  0  0
   -2.4318    1.1383    5.7384 H   0  0  0  0  0  0  0  0  0  0  0  0
   -2.3116    1.5383    3.1570 N   0  0  0  0  0  0  0  0  0  0  0  0
   -2.0648    1.9643    1.8046 C   0  0  2  0  0  0  0  0  0  0  0  0
   -0.7298    1.3789    1.3634 C   0  0  0  0  0  0  0  0  0  0  0  0
    0.1423    1.0262    2.1547 O   0  0  0  0  0  0  0  0  0  0  0  0
   -2.0560    3.4811    1.6952 C   0  0  0  0  0  0  0  0  0  0  0  0
   -3.0767    1.9741    3.6688 H   0  0  0  0  0  0  0  0  0  0  0  0
   -2.8689    1.5458    1.1895 H   0  0  0  0  0  0  0  0  0  0  0  0
   -1.2569    3.9183    2.3049 H   0  0  0  0  0  0  0  0  0  0  0  0
   -1.8965    3.8033    0.6609 H   0  0  0  0  0  0  0  0  0  0  0  0
   -3.0062    3.9023    2.0409 H   0  0  0  0  0  0  0  0  0  0  0  0
   -0.6071    1.3358   -0.0200 N   0  0  0  0  0  0  0  0  0  0  0  0
    0.5702    0.8350   -0.6836 C   0  0  2  0  0  0  0  0  0  0  0  0
    0.3256    0.9504   -2.1840 C   0  0  0  0  0  0  0  0  0  0  0  0
    1.0600    1.5893   -2.9345 O   0  0  0  0  0  0  0  0  0  0  0  0
    0.8749   -0.6185   -0.3036 C   0  0  0  0  0  0  0  0  0  0  0  0
    1.2084   -0.7816    1.1593 C   0  0  0  0  0  0  0  0  0  0  0  0
    2.4093   -0.4031    1.6902 N   0  0  0  0  0  0  0  0  0  0  0  0
    0.4971   -1.2867    2.2220 C   0  0  0  0  0  0  0  0  0  0  0  0
    2.3752   -0.6902    3.0265 C   0  0  0  0  0  0  0  0  0  0  0  0
    1.2289   -1.2267    3.3815 N   0  0  0  0  0  0  0  0  0  0  0  0
   -1.3903    1.6325   -0.5973 H   0  0  0  0  0  0  0  0  0  0  0  0
    1.3945    1.5008   -0.4022 H   0  0  0  0  0  0  0  0  0  0  0  0
    1.6999   -1.0069   -0.9161 H   0  0  0  0  0  0  0  0  0  0  0  0
    0.0167   -1.2634   -0.5345 H   0  0  0  0  0  0  0  0  0  0  0  0
    3.1837    0.0122    1.1891 H   0  0  0  0  0  0  0  0  0  0  0  0
   -0.5051   -1.6911    2.2137 H   0  0  0  0  0  0  0  0  0  0  0  0
    3.2118   -0.4852    3.6793 H   0  0  0  0  0  0  0  0  0  0  0  0
   -0.7797    0.2146   -2.5883 N   0  0  0  0  0  0  0  0  0  0  0  0
   -1.2192    0.1331   -3.9627 C   0  0  2  0  0  0  0  0  0  0  0  0
   -1.3095    1.5505   -4.5125 C   0  0  0  0  0  0  0  0  0  0  0  0
   -1.4378    2.5410   -3.7959 O   0  0  0  0  0  0  0  0  0  0  0  0
   -2.5581   -0.5795   -4.0742 C   0  0  0  0  0  0  0  0  0  0  0  0
   -1.3062   -0.2920   -1.8827 H   0  0  0  0  0  0  0  0  0  0  0  0
   -0.4490   -0.4226   -4.5086 H   0  0  0  0  0  0  0  0  0  0  0  0
   -3.3424   -0.0375   -3.5333 H   0  0  0  0  0  0  0  0  0  0  0  0
   -2.8759   -0.6657   -5.1185 H   0  0  0  0  0  0  0  0  0  0  0  0
   -2.4991   -1.5882   -3.6513 H   0  0  0  0  0  0  0  0  0  0  0  0
   -1.2735    1.5755   -5.8996 N   0  0  0  0  0  0  0  0  0  0  0  0
   -1.3560    2.8009   -6.6597 C   0  0  0  0  0  0  0  0  0  0  0  0
   -1.1461    0.7077   -6.4119 H   0  0  0  0  0  0  0  0  0  0  0  0
   -2.4056    3.0013   -6.9205 H   0  0  0  0  0  0  0  0  0  0  0  0
   -0.9626    3.6330   -6.0573 H   0  0  0  0  0  0  0  0  0  0  0  0
   -0.7620    2.7019   -7.5803 H   0  0  0  0  0  0  0  0  0  0  0  0
 22 24  2  0  0  0  0
 24 26  1  0  0  0  0
 25 26  2  0  0  0  0
 23 25  1  0  0  0  0
 21 22  1  0  0  0  0
 22 23  1  0  0  0  0
  1  3  1  0  0  0  0
  1  7  1  0  0  0  0
  1  2  2  0  0  0  0
 35 36  1  0  0  0  0
 36 44  1  0  0  0  0
 36 37  2  0  0  0  0
  8  9  1  0  0  0  0
  9 17  1  0  0  0  0
  9 10  2  0  0  0  0
 18 19  1  0  0  0  0
 19 34  1  0  0  0  0
 19 20  2  0  0  0  0
 35 38  1  0  0  0  0
  8 11  1  0  0  0  0
 44 45  1  0  0  0  0
 18 21  1  0  0  0  0
 34 35  1  0  0  0  0
  7  8  1  0  0  0  0
 17 18  1  0  0  0  0
 24 32  1  0  0  0  0
 25 33  1  0  0  0  0
  3  4  1  0  0  0  0
  3  5  1  0  0  0  0
  3  6  1  0  0  0  0
 38 41  1  0  0  0  0
 38 42  1  0  0  0  0
 38 43  1  0  0  0  0
 11 14  1  0  0  0  0
 11 15  1  0  0  0  0
 11 16  1  0  0  0  0
 45 47  1  0  0  0  0
 45 48  1  0  0  0  0
 45 49  1  0  0  0  0
 21 29  1  0  0  0  0
 21 30  1  0  0  0  0
 35 40  1  0  0  0  0
  8 13  1  0  0  0  0
 18 28  1  0  0  0  0
 23 31  1  0  0  0  0
 44 46  1  0  0  0  0
  7 12  1  0  0  0  0
 34 39  1  0  0  0  0
 17 27  1  0  0  0  0
M  END
$$$$

  -OEChem-05262214473D

 49 49  0     1  0  0  0  0  0999 V2000
   -1.5619    0.5658    3.7981 C   0  0  0  0  0  0  0  0  0  0  0  0
   -0.6145   -0.0489    3.3224 O   0  0  0  0  0  0  0  0  0  0  0  0
   -1.9938    0.2834    5.1988 C   0  0  0  0  0  0  0  0  0  0  0  0
   -2.7535   -0.5129    5.2522 H   0  0  0  0  0  0  0  0  0  0  0  0
   -1.1626   -0.0642    5.8331 H   0  0  0  0  0  0  0  0  0  0  0  0
   -2.4318    1.1383    5.7384 H   0  0  0  0  0  0  0  0  0  0  0  0
   -2.3116    1.5383    3.1570 N   0  0  0  0  0  0  0  0  0  0  0  0
   -2.0648    1.9643    1.8046 C   0  0  2  0  0  0  0  0  0  0  0  0
   -0.7298    1.3789    1.3634 C   0  0  0  0  0  0  0  0  0  0  0  0
    0.1423    1.0262    2.1547 O   0  0  0  0  0  0  0  0  0  0  0  0
   -2.0560    3.4811    1.6952 C   0  0  0  0  0  0  0  0  0  0  0  0
   -3.0767    1.9741    3.6688 H   0  0  0  0  0  0  0  0  0  0  0  0
   -2.8689    1.5458    1.1895 H   0  0  0  0  0  0  0  0  0  0  0  0
   -1.2569    3.9183    2.3049 H   0  0  0  0  0  0  0  0  0  0  0  0
   -1.8965    3.8033    0.6609 H   0  0  0  0  0  0  0  0  0  0  0  0
   -3.0062    3.9023    2.0409 H   0  0  0  0  0  0  0  0  0  0  0  0
   -0.6071    1.3358   -0.0200 N   0  0  0  0  0  0  0  0  0  0  0  0
    0.5702    0.8350   -0.6836 C   0  0  2  0  0  0  0  0  0  0  0  0
    0.3256    0.9504   -2.1840 C   0  0  0  0  0  0  0  0  0  0  0  0
    1.1793    1.3510   -2.9723 O   0  0  0  0  0  0  0  0  0  0  0  0
    0.8749   -0.6185   -0.3036 C   0  0  0  0  0  0  0  0  0  0  0  0
    1.2084   -0.7816    1.1593 C   0  0  0  0  0  0  0  0  0  0  0  0
    2.4093   -0.4031    1.6902 N   0  0  0  0  0  0  0  0  0  0  0  0
    0.4971   -1.2867    2.2220 C   0  0  0  0  0  0  0  0  0  0  0  0
    2.3752   -0.6902    3.0265 C   0  0  0  0  0  0  0  0  0  0  0  0
    1.2289   -1.2267    3.3815 N   0  0  0  0  0  0  0  0  0  0  0  0
   -1.3903    1.6325   -0.5973 H   0  0  0  0  0  0  0  0  0  0  0  0
    1.3945    1.5008   -0.4022 H   0  0  0  0  0  0  0  0  0  0  0  0
    1.6999   -1.0069   -0.9161 H   0  0  0  0  0  0  0  0  0  0  0  0
    0.0167   -1.2634   -0.5345 H   0  0  0  0  0  0  0  0  0  0  0  0
    3.1837    0.0122    1.1891 H   0  0  0  0  0  0  0  0  0  0  0  0
   -0.5051   -1.6911    2.2137 H   0  0  0  0  0  0  0  0  0  0  0  0
    3.2118   -0.4852    3.6793 H   0  0  0  0  0  0  0  0  0  0  0  0
   -0.9402    0.5058   -2.5398 N   0  0  0  0  0  0  0  0  0  0  0  0
   -1.4202    0.4855   -3.9029 C   0  0  2  0  0  0  0  0  0  0  0  0
   -1.1608    1.8565   -4.5132 C   0  0  0  0  0  0  0  0  0  0  0  0
   -1.0149    2.8741   -3.8392 O   0  0  0  0  0  0  0  0  0  0  0  0
   -2.8986    0.1343   -3.9638 C   0  0  0  0  0  0  0  0  0  0  0  0
   -1.5605    0.1781   -1.8051 H   0  0  0  0  0  0  0  0  0  0  0  0
   -0.8304   -0.2691   -4.4346 H   0  0  0  0  0  0  0  0  0  0  0  0
   -3.5055    0.8792   -3.4363 H   0  0  0  0  0  0  0  0  0  0  0  0
   -3.2538    0.0914   -4.9987 H   0  0  0  0  0  0  0  0  0  0  0  0
   -3.0875   -0.8388   -3.4977 H   0  0  0  0  0  0  0  0  0  0  0  0
   -1.1542    1.8174   -5.9005 N   0  0  0  0  0  0  0  0  0  0  0  0
   -0.9413    2.9927   -6.7126 C   0  0  0  0  0  0  0  0  0  0  0  0
   -1.2645    0.9266   -6.3758 H   0  0  0  0  0  0  0  0  0  0  0  0
   -1.9117    3.4439   -6.9670 H   0  0  0  0  0  0  0  0  0  0  0  0
   -0.3344    3.7198   -6.1531 H   0  0  0  0  0  0  0  0  0  0  0  0
   -0.4152    2.7096   -7.6362 H   0  0  0  0  0  0  0  0  0  0  0  0
 22 24  2  0  0  0  0
 24 26  1  0  0  0  0
 25 26  2  0  0  0  0
 23 25  1  0  0  0  0
 21 22  1  0  0  0  0
 22 23  1  0  0  0  0
  1  3  1  0  0  0  0
  1  7  1  0  0  0  0
  1  2  2  0  0  0  0
 35 36  1  0  0  0  0
 36 44  1  0  0  0  0
 36 37  2  0  0  0  0
  8  9  1  0  0  0  0
  9 17  1  0  0  0  0
  9 10  2  0  0  0  0
 18 19  1  0  0  0  0
 19 34  1  0  0  0  0
 19 20  2  0  0  0  0
 35 38  1  0  0  0  0
  8 11  1  0  0  0  0
 44 45  1  0  0  0  0
 18 21  1  0  0  0  0
 34 35  1  0  0  0  0
  7  8  1  0  0  0  0
 17 18  1  0  0  0  0
 24 32  1  0  0  0  0
 25 33  1  0  0  0  0
  3  4  1  0  0  0  0
  3  5  1  0  0  0  0
  3  6  1  0  0  0  0
 38 41  1  0  0  0  0
 38 42  1  0  0  0  0
 38 43  1  0  0  0  0
 11 14  1  0  0  0  0
 11 15  1  0  0  0  0
 11 16  1  0  0  0  0
 45 47  1  0  0  0  0
 45 48  1  0  0  0  0
 45 49  1  0  0  0  0
 21 29  1  0  0  0  0
 21 30  1  0  0  0  0
 35 40  1  0  0  0  0
  8 13  1  0  0  0  0
 18 28  1  0  0  0  0
 23 31  1  0  0  0  0
 44 46  1  0  0  0  0
  7 12  1  0  0  0  0
 34 39  1  0  0  0  0
 17 27  1  0  0  0  0
M  END
$$$$

  -OEChem-05262214473D

 49 49  0     1  0  0  0  0  0999 V2000
   -1.5619    0.5658    3.7981 C   0  0  0  0  0  0  0  0  0  0  0  0
   -0.6145   -0.0489    3.3224 O   0  0  0  0  0  0  0  0  0  0  0  0
   -1.9938    0.2834    5.1988 C   0  0  0  0  0  0  0  0  0  0  0  0
   -2.7535   -0.5129    5.2522 H   0  0  0  0  0  0  0  0  0  0  0  0
   -1.1626   -0.0642    5.8331 H   0  0  0  0  0  0  0  0  0  0  0  0
   -2.4318    1.1383    5.7384 H   0  0  0  0  0  0  0  0  0  0  0  0
   -2.3116    1.5383    3.1570 N   0  0  0  0  0  0  0  0  0  0  0  0
   -2.0648    1.9643    1.8046 C   0  0  2  0  0  0  0  0  0  0  0  0
   -0.7298    1.3789    1.3634 C   0  0  0  0  0  0  0  0  0  0  0  0
    0.1423    1.0262    2.1547 O   0  0  0  0  0  0  0  0  0  0  0  0
   -2.0560    3.4811    1.6952 C   0  0  0  0  0  0  0  0  0  0  0  0
   -3.0767    1.9741    3.6688 H   0  0  0  0  0  0  0  0  0  0  0  0
   -2.8689    1.5458    1.1895 H   0  0  0  0  0  0  0  0  0  0  0  0
   -1.2569    3.9183    2.3049 H   0  0  0  0  0  0  0  0  0  0  0  0
   -1.8965    3.8033    0.6609 H   0  0  0  0  0  0  0  0  0  0  0  0
   -3.0062    3.9023    2.0409 H   0  0  0  0  0  0  0  0  0  0  0  0
   -0.6071    1.3358   -0.0200 N   0  0  0  0  0  0  0  0  0  0  0  0
    0.5702    0.8350   -0.6836 C   0  0  2  0  0  0  0  0  0  0  0  0
    0.3256    0.9504   -2.1840 C   0  0  0  0  0  0  0  0  0  0  0  0
    1.2332    1.0889   -3.0012 O   0  0  0  0  0  0  0  0  0  0  0  0
    0.8749   -0.6185   -0.3036 C   0  0  0  0  0  0  0  0  0  0  0  0
    1.2084   -0.7816    1.1593 C   0  0  0  0  0  0  0  0  0  0  0  0
    2.4093   -0.4031    1.6902 N   0  0  0  0  0  0  0  0  0  0  0  0
    0.4971   -1.2867    2.2220 C   0  0  0  0  0  0  0  0  0  0  0  0
    2.3752   -0.6902    3.0265 C   0  0  0  0  0  0  0  0  0  0  0  0
    1.2289   -1.2267    3.3815 N   0  0  0  0  0  0  0  0  0  0  0  0
   -1.3903    1.6325   -0.5973 H   0  0  0  0  0  0  0  0  0  0  0  0
    1.3945    1.5008   -0.4022 H   0  0  0  0  0  0  0  0  0  0  0  0
    1.6999   -1.0069   -0.9161 H   0  0  0  0  0  0  0  0  0  0  0  0
    0.0167   -1.2634   -0.5345 H   0  0  0  0  0  0  0  0  0  0  0  0
    3.1837    0.0122    1.1891 H   0  0  0  0  0  0  0  0  0  0  0  0
   -0.5051   -1.6911    2.2137 H   0  0  0  0  0  0  0  0  0  0  0  0
    3.2118   -0.4852    3.6793 H   0  0  0  0  0  0  0  0  0  0  0  0
   -1.0201    0.8299   -2.5018 N   0  0  0  0  0  0  0  0  0  0  0  0
   -1.5233    0.8796   -3.8557 C   0  0  2  0  0  0  0  0  0  0  0  0
   -0.9391    2.1142   -4.5295 C   0  0  0  0  0  0  0  0  0  0  0  0
   -0.5225    3.0864   -3.9031 O   0  0  0  0  0  0  0  0  0  0  0  0
   -3.0435    0.9151   -3.8801 C   0  0  0  0  0  0  0  0  0  0  0  0
   -1.6848    0.7002   -1.7447 H   0  0  0  0  0  0  0  0  0  0  0  0
   -1.1584   -0.0206   -4.3621 H   0  0  0  0  0  0  0  0  0  0  0  0
   -3.4277    1.8102   -3.3774 H   0  0  0  0  0  0  0  0  0  0  0  0
   -3.4237    0.9240   -4.9070 H   0  0  0  0  0  0  0  0  0  0  0  0
   -3.4620    0.0414   -3.3690 H   0  0  0  0  0  0  0  0  0  0  0  0
   -0.9773    2.0207   -5.9137 N   0  0  0  0  0  0  0  0  0  0  0  0
   -0.4929    3.0701   -6.7797 C   0  0  0  0  0  0  0  0  0  0  0  0
   -1.3224    1.1696   -6.3477 H   0  0  0  0  0  0  0  0  0  0  0  0
   -1.3227    3.7437   -7.0400 H   0  0  0  0  0  0  0  0  0  0  0  0
    0.2927    3.6396   -6.2615 H   0  0  0  0  0  0  0  0  0  0  0  0
   -0.0794    2.6264   -7.6974 H   0  0  0  0  0  0  0  0  0  0  0  0
 22 24  2  0  0  0  0
 24 26  1  0  0  0  0
 25 26  2  0  0  0  0
 23 25  1  0  0  0  0
 21 22  1  0  0  0  0
 22 23  1  0  0  0  0
  1  3  1  0  0  0  0
  1  7  1  0  0  0  0
  1  2  2  0  0  0  0
 35 36  1  0  0  0  0
 36 44  1  0  0  0  0
 36 37  2  0  0  0  0
  8  9  1  0  0  0  0
  9 17  1  0  0  0  0
  9 10  2  0  0  0  0
 18 19  1  0  0  0  0
 19 34  1  0  0  0  0
 19 20  2  0  0  0  0
 35 38  1  0  0  0  0
  8 11  1  0  0  0  0
 44 45  1  0  0  0  0
 18 21  1  0  0  0  0
 34 35  1  0  0  0  0
  7  8  1  0  0  0  0
 17 18  1  0  0  0  0
 24 32  1  0  0  0  0
 25 33  1  0  0  0  0
  3  4  1  0  0  0  0
  3  5  1  0  0  0  0
  3  6  1  0  0  0  0
 38 41  1  0  0  0  0
 38 42  1  0  0  0  0
 38 43  1  0  0  0  0
 11 14  1  0  0  0  0
 11 15  1  0  0  0  0
 11 16  1  0  0  0  0
 45 47  1  0  0  0  0
 45 48  1  0  0  0  0
 45 49  1  0  0  0  0
 21 29  1  0  0  0  0
 21 30  1  0  0  0  0
 35 40  1  0  0  0  0
  8 13  1  0  0  0  0
 18 28  1  0  0  0  0
 23 31  1  0  0  0  0
 44 46  1  0  0  0  0
  7 12  1  0  0  0  0
 34 39  1  0  0  0  0
 17 27  1  0  0  0  0
M  END
$$$$

  -OEChem-05262214473D

 49 49  0     1  0  0  0  0  0999 V2000
   -1.5619    0.5658    3.7981 C   0  0  0  0  0  0  0  0  0  0  0  0
   -0.6145   -0.0489    3.3224 O   0  0  0  0  0  0  0  0  0  0  0  0
   -1.9938    0.2834    5.1988 C   0  0  0  0  0  0  0  0  0  0  0  0
   -2.7535   -0.5129    5.2522 H   0  0  0  0  0  0  0  0  0  0  0  0
   -1.1626   -0.0642    5.8331 H   0  0  0  0  0  0  0  0  0  0  0  0
   -2.4318    1.1383    5.7384 H   0  0  0  0  0  0  0  0  0  0  0  0
   -2.3116    1.5383    3.1570 N   0  0  0  0  0  0  0  0  0  0  0  0
   -2.0648    1.9643    1.8046 C   0  0  2  0  0  0  0  0  0  0  0  0
   -0.7298    1.3789    1.3634 C   0  0  0  0  0  0  0  0  0  0  0  0
    0.1423    1.0262    2.1547 O   0  0  0  0  0  0  0  0  0  0  0  0
   -2.0560    3.4811    1.6952 C   0  0  0  0  0  0  0  0  0  0  0  0
   -3.0767    1.9741    3.6688 H   0  0  0  0  0  0  0  0  0  0  0  0
   -2.8689    1.5458    1.1895 H   0  0  0  0  0  0  0  0  0  0  0  0
   -1.2569    3.9183    2.3049 H   0  0  0  0  0  0  0  0  0  0  0  0
   -1.8965    3.8033    0.6609 H   0  0  0  0  0  0  0  0  0  0  0  0
   -3.0062    3.9023    2.0409 H   0  0  0  0  0  0  0  0  0  0  0  0
   -0.6071    1.3358   -0.0200 N   0  0  0  0  0  0  0  0  0  0  0  0
    0.5702    0.8350   -0.6836 C   0  0  2  0  0  0  0  0  0  0  0  0
    0.3256    0.9504   -2.1840 C   0  0  0  0  0  0  0  0  0  0  0  0
    1.2179    0.8208   -3.0193 O   0  0  0  0  0  0  0  0  0  0  0  0
    0.8749   -0.6185   -0.3036 C   0  0  0  0  0  0  0  0  0  0  0  0
    1.2084   -0.7816    1.1593 C   0  0  0  0  0  0  0  0  0  0  0  0
    2.4093   -0.4031    1.6902 N   0  0  0  0  0  0  0  0  0  0  0  0
    0.4971   -1.2867    2.2220 C   0  0  0  0  0  0  0  0  0  0  0  0
    2.3752   -0.6902    3.0265 C   0  0  0  0  0  0  0  0  0  0  0  0
    1.2289   -1.2267    3.3815 N   0  0  0  0  0  0  0  0  0  0  0  0
   -1.3903    1.6325   -0.5973 H   0  0  0  0  0  0  0  0  0  0  0  0
    1.3945    1.5008   -0.4022 H   0  0  0  0  0  0  0  0  0  0  0  0
    1.6999   -1.0069   -0.9161 H   0  0  0  0  0  0  0  0  0  0  0  0
    0.0167   -1.2634   -0.5345 H   0  0  0  0  0  0  0  0  0  0  0  0
    3.1837    0.0122    1.1891 H   0  0  0  0  0  0  0  0  0  0  0  0
   -0.5051   -1.6911    2.2137 H   0  0  0  0  0  0  0  0  0  0  0  0
    3.2118   -0.4852    3.6793 H   0  0  0  0  0  0  0  0  0  0  0  0
   -1.0140    1.1649   -2.4771 N   0  0  0  0  0  0  0  0  0  0  0  0
   -1.5217    1.2885   -3.8246 C   0  0  2  0  0  0  0  0  0  0  0  0
   -0.6597    2.3060   -4.5603 C   0  0  0  0  0  0  0  0  0  0  0  0
    0.0059    3.1634   -3.9834 O   0  0  0  0  0  0  0  0  0  0  0  0
   -2.9829    1.7097   -3.8289 C   0  0  0  0  0  0  0  0  0  0  0  0
   -1.6707    1.2387   -1.7056 H   0  0  0  0  0  0  0  0  0  0  0  0
   -1.4104    0.3059   -4.2959 H   0  0  0  0  0  0  0  0  0  0  0  0
   -3.1142    2.6921   -3.3607 H   0  0  0  0  0  0  0  0  0  0  0  0
   -3.3739    1.7752   -4.8496 H   0  0  0  0  0  0  0  0  0  0  0  0
   -3.5970    0.9923   -3.2739 H   0  0  0  0  0  0  0  0  0  0  0  0
   -0.7550    2.1714   -5.9384 N   0  0  0  0  0  0  0  0  0  0  0  0
   -0.0414    3.0279   -6.8566 C   0  0  0  0  0  0  0  0  0  0  0  0
   -1.3159    1.4203   -6.3295 H   0  0  0  0  0  0  0  0  0  0  0  0
   -0.6788    3.8803   -7.1344 H   0  0  0  0  0  0  0  0  0  0  0  0
    0.8759    3.3978   -6.3751 H   0  0  0  0  0  0  0  0  0  0  0  0
    0.2227    2.4580   -7.7596 H   0  0  0  0  0  0  0  0  0  0  0  0
 22 24  2  0  0  0  0
 24 26  1  0  0  0  0
 25 26  2  0  0  0  0
 23 25  1  0  0  0  0
 21 22  1  0  0  0  0
 22 23  1  0  0  0  0
  1  3  1  0  0  0  0
  1  7  1  0  0  0  0
  1  2  2  0  0  0  0
 35 36  1  0  0  0  0
 36 44  1  0  0  0  0
 36 37  2  0  0  0  0
  8  9  1  0  0  0  0
  9 17  1  0  0  0  0
  9 10  2  0  0  0  0
 18 19  1  0  0  0  0
 19 34  1  0  0  0  0
 19 20  2  0  0  0  0
 35 38  1  0  0  0  0
  8 11  1  0  0  0  0
 44 45  1  0  0  0  0
 18 21  1  0  0  0  0
 34 35  1  0  0  0  0
  7  8  1  0  0  0  0
 17 18  1  0  0  0  0
 24 32  1  0  0  0  0
 25 33  1  0  0  0  0
  3  4  1  0  0  0  0
  3  5  1  0  0  0  0
  3  6  1  0  0  0  0
 38 41  1  0  0  0  0
 38 42  1  0  0  0  0
 38 43  1  0  0  0  0
 11 14  1  0  0  0  0
 11 15  1  0  0  0  0
 11 16  1  0  0  0  0
 45 47  1  0  0  0  0
 45 48  1  0  0  0  0
 45 49  1  0  0  0  0
 21 29  1  0  0  0  0
 21 30  1  0  0  0  0
 35 40  1  0  0  0  0
  8 13  1  0  0  0  0
 18 28  1  0  0  0  0
 23 31  1  0  0  0  0
 44 46  1  0  0  0  0
  7 12  1  0  0  0  0
 34 39  1  0  0  0  0
 17 27  1  0  0  0  0
M  END
$$$$

  -OEChem-05262214473D

 49 49  0     1  0  0  0  0  0999 V2000
   -1.5619    0.5658    3.7981 C   0  0  0  0  0  0  0  0  0  0  0  0
   -0.6145   -0.0489    3.3224 O   0  0  0  0  0  0  0  0  0  0  0  0
   -1.9938    0.2834    5.1988 C   0  0  0  0  0  0  0  0  0  0  0  0
   -2.7535   -0.5129    5.2522 H   0  0  0  0  0  0  0  0  0  0  0  0
   -1.1626   -0.0642    5.8331 H   0  0  0  0  0  0  0  0  0  0  0  0
   -2.4318    1.1383    5.7384 H   0  0  0  0  0  0  0  0  0  0  0  0
   -2.3116    1.5383    3.1570 N   0  0  0  0  0  0  0  0  0  0  0  0
   -2.0648    1.9643    1.8046 C   0  0  2  0  0  0  0  0  0  0  0  0
   -0.7298    1.3789    1.3634 C   0  0  0  0  0  0  0  0  0  0  0  0
    0.1423    1.0262    2.1547 O   0  0  0  0  0  0  0  0  0  0  0  0
   -2.0560    3.4811    1.6952 C   0  0  0  0  0  0  0  0  0  0  0  0
   -3.0767    1.9741    3.6688 H   0  0  0  0  0  0  0  0  0  0  0  0
   -2.8689    1.5458    1.1895 H   0  0  0  0  0  0  0  0  0  0  0  0
   -1.2569    3.9183    2.3049 H   0  0  0  0  0  0  0  0  0  0  0  0
   -1.8965    3.8033    0.6609 H   0  0  0  0  0  0  0  0  0  0  0  0
   -3.0062    3.9023    2.0409 H   0  0  0  0  0  0  0  0  0  0  0  0
   -0.6071    1.3358   -0.0200 N   0  0  0  0  0  0  0  0  0  0  0  0
    0.5702    0.8350   -0.6836 C   0  0  2  0  0  0  0  0  0  0  0  0
    0.3256    0.9504   -2.1840 C   0  0  0  0  0  0  0  0  0  0  0  0
    1.1345    0.5649   -3.0254 O   0  0  0  0  0  0  0  0  0  0  0  0
    0.8749   -0.6185   -0.3036 C   0  0  0  0  0  0  0  0  0  0  0  0
    1.2084   -0.7816    1.1593 C   0  0  0  0  0  0  0  0  0  0  0  0
    2.4093   -0.4031    1.6902 N   0  0  0  0  0  0  0  0  0  0  0  0
    0.4971   -1.2867    2.2220 C   0  0  0  0  0  0  0  0  0  0  0  0
    2.3752   -0.6902    3.0265 C   0  0  0  0  0  0  0  0  0  0  0  0
    1.2289   -1.2267    3.3815 N   0  0  0  0  0  0  0  0  0  0  0  0
   -1.3903    1.6325   -0.5973 H   0  0  0  0  0  0  0  0  0  0  0  0
    1.3945    1.5008   -0.4022 H   0  0  0  0  0  0  0  0  0  0  0  0
    1.6999   -1.0069   -0.9161 H   0  0  0  0  0  0  0  0  0  0  0  0
    0.0167   -1.2634   -0.5345 H   0  0  0  0  0  0  0  0  0  0  0  0
    3.1837    0.0122    1.1891 H   0  0  0  0  0  0  0  0  0  0  0  0
   -0.5051   -1.6911    2.2137 H   0  0  0  0  0  0  0  0  0  0  0  0
    3.2118   -0.4852    3.6793 H   0  0  0  0  0  0  0  0  0  0  0  0
   -0.9223    1.4880   -2.4672 N   0  0  0  0  0  0  0  0  0  0  0  0
   -1.4153    1.6844   -3.8115 C   0  0  2  0  0  0  0  0  0  0  0  0
   -0.3416    2.4188   -4.6035 C   0  0  0  0  0  0  0  0  0  0  0  0
    0.5344    3.0998   -4.0744 O   0  0  0  0  0  0  0  0  0  0  0  0
   -2.7211    2.4640   -3.8136 C   0  0  0  0  0  0  0  0  0  0  0  0
   -1.5192    1.7569   -1.6905 H   0  0  0  0  0  0  0  0  0  0  0  0
   -1.5694    0.6883   -4.2406 H   0  0  0  0  0  0  0  0  0  0  0  0
   -2.5865    3.4648   -3.3873 H   0  0  0  0  0  0  0  0  0  0  0  0
   -3.1079    2.5872   -4.8306 H   0  0  0  0  0  0  0  0  0  0  0  0
   -3.4833    1.9491   -3.2189 H   0  0  0  0  0  0  0  0  0  0  0  0
   -0.5023    2.2593   -5.9728 N   0  0  0  0  0  0  0  0  0  0  0  0
    0.3825    2.8690   -6.9379 C   0  0  0  0  0  0  0  0  0  0  0  0
   -1.2454    1.6615   -6.3224 H   0  0  0  0  0  0  0  0  0  0  0  0
   -0.0240    3.8442   -7.2440 H   0  0  0  0  0  0  0  0  0  0  0  0
    1.3754    3.0111   -6.4863 H   0  0  0  0  0  0  0  0  0  0  0  0
    0.4703    2.2158   -7.8186 H   0  0  0  0  0  0  0  0  0  0  0  0
 22 24  2  0  0  0  0
 24 26  1  0  0  0  0
 25 26  2  0  0  0  0
 23 25  1  0  0  0  0
 21 22  1  0  0  0  0
 22 23  1  0  0  0  0
  1  3  1  0  0  0  0
  1  7  1  0  0  0  0
  1  2  2  0  0  0  0
 35 36  1  0  0  0  0
 36 44  1  0  0  0  0
 36 37  2  0  0  0  0
  8  9  1  0  0  0  0
  9 17  1  0  0  0  0
  9 10  2  0  0  0  0
 18 19  1  0  0  0  0
 19 34  1  0  0  0  0
 19 20  2  0  0  0  0
 35 38  1  0  0  0  0
  8 11  1  0  0  0  0
 44 45  1  0  0  0  0
 18 21  1  0  0  0  0
 34 35  1  0  0  0  0
  7  8  1  0  0  0  0
 17 18  1  0  0  0  0
 24 32  1  0  0  0  0
 25 33  1  0  0  0  0
  3  4  1  0  0  0  0
  3  5  1  0  0  0  0
  3  6  1  0  0  0  0
 38 41  1  0  0  0  0
 38 42  1  0  0  0  0
 38 43  1  0  0  0  0
 11 14  1  0  0  0  0
 11 15  1  0  0  0  0
 11 16  1  0  0  0  0
 45 47  1  0  0  0  0
 45 48  1  0  0  0  0
 45 49  1  0  0  0  0
 21 29  1  0  0  0  0
 21 30  1  0  0  0  0
 35 40  1  0  0  0  0
  8 13  1  0  0  0  0
 18 28  1  0  0  0  0
 23 31  1  0  0  0  0
 44 46  1  0  0  0  0
  7 12  1  0  0  0  0
 34 39  1  0  0  0  0
 17 27  1  0  0  0  0
M  END
$$$$

  -OEChem-05262214473D

 49 49  0     1  0  0  0  0  0999 V2000
   -1.5619    0.5658    3.7981 C   0  0  0  0  0  0  0  0  0  0  0  0
   -0.6145   -0.0489    3.3224 O   0  0  0  0  0  0  0  0  0  0  0  0
   -1.9938    0.2834    5.1988 C   0  0  0  0  0  0  0  0  0  0  0  0
   -2.7535   -0.5129    5.2522 H   0  0  0  0  0  0  0  0  0  0  0  0
   -1.1626   -0.0642    5.8331 H   0  0  0  0  0  0  0  0  0  0  0  0
   -2.4318    1.1383    5.7384 H   0  0  0  0  0  0  0  0  0  0  0  0
   -2.3116    1.5383    3.1570 N   0  0  0  0  0  0  0  0  0  0  0  0
   -2.0648    1.9643    1.8046 C   0  0  2  0  0  0  0  0  0  0  0  0
   -0.7298    1.3789    1.3634 C   0  0  0  0  0  0  0  0  0  0  0  0
    0.1423    1.0262    2.1547 O   0  0  0  0  0  0  0  0  0  0  0  0
   -2.0560    3.4811    1.6952 C   0  0  0  0  0  0  0  0  0  0  0  0
   -3.0767    1.9741    3.6688 H   0  0  0  0  0  0  0  0  0  0  0  0
   -2.8689    1.5458    1.1895 H   0  0  0  0  0  0  0  0  0  0  0  0
   -1.2569    3.9183    2.3049 H   0  0  0  0  0  0  0  0  0  0  0  0
   -1.8965    3.8033    0.6609 H   0  0  0  0  0  0  0  0  0  0  0  0
   -3.0062    3.9023    2.0409 H   0  0  0  0  0  0  0  0  0  0  0  0
   -0.6071    1.3358   -0.0200 N   0  0  0  0  0  0  0  0  0  0  0  0
    0.5702    0.8350   -0.6836 C   0  0  2  0  0  0  0  0  0  0  0  0
    0.3256    0.9504   -2.1840 C   0  0  0  0  0  0  0  0  0  0  0  0
    0.9886    0.3388   -3.0190 O   0  0  0  0  0  0  0  0  0  0  0  0
    0.8749   -0.6185   -0.3036 C   0  0  0  0  0  0  0  0  0  0  0  0
    1.2084   -0.7816    1.1593 C   0  0  0  0  0  0  0  0  0  0  0  0
    2.4093   -0.4031    1.6902 N   0  0  0  0  0  0  0  0  0  0  0  0
    0.4971   -1.2867    2.2220 C   0  0  0  0  0  0  0  0  0  0  0  0
    2.3752   -0.6902    3.0265 C   0  0  0  0  0  0  0  0  0  0  0  0
    1.2289   -1.2267    3.3815 N   0  0  0  0  0  0  0  0  0  0  0  0
   -1.3903    1.6325   -0.5973 H   0  0  0  0  0  0  0  0  0  0  0  0
    1.3945    1.5008   -0.4022 H   0  0  0  0  0  0  0  0  0  0  0  0
    1.6999   -1.0069   -0.9161 H   0  0  0  0  0  0  0  0  0  0  0  0
    0.0167   -1.2634   -0.5345 H   0  0  0  0  0  0  0  0  0  0  0  0
    3.1837    0.0122    1.1891 H   0  0  0  0  0  0  0  0  0  0  0  0
   -0.5051   -1.6911    2.2137 H   0  0  0  0  0  0  0  0  0  0  0  0
    3.2118   -0.4852    3.6793 H   0  0  0  0  0  0  0  0  0  0  0  0
   -0.7513    1.7771   -2.4728 N   0  0  0  0  0  0  0  0  0  0  0  0
   -1.2115    2.0402   -3.8174 C   0  0  2  0  0  0  0  0  0  0  0  0
   -0.0064    2.4449   -4.6562 C   0  0  0  0  0  0  0  0  0  0  0  0
    1.0269    2.9000   -4.1701 O   0  0  0  0  0  0  0  0  0  0  0  0
   -2.2757    3.1264   -3.8353 C   0  0  0  0  0  0  0  0  0  0  0  0
   -1.2405    2.2195   -1.7004 H   0  0  0  0  0  0  0  0  0  0  0  0
   -1.6244    1.1005   -4.1999 H   0  0  0  0  0  0  0  0  0  0  0  0
   -1.8804    4.0756   -3.4555 H   0  0  0  0  0  0  0  0  0  0  0  0
   -2.6437    3.3045   -4.8511 H   0  0  0  0  0  0  0  0  0  0  0  0
   -3.1287    2.8467   -3.2077 H   0  0  0  0  0  0  0  0  0  0  0  0
   -0.2365    2.2785   -6.0147 N   0  0  0  0  0  0  0  0  0  0  0  0
    0.7498    2.6041   -7.0181 C   0  0  0  0  0  0  0  0  0  0  0  0
   -1.1157    1.8768   -6.3270 H   0  0  0  0  0  0  0  0  0  0  0  0
    0.5973    3.6381   -7.3611 H   0  0  0  0  0  0  0  0  0  0  0  0
    1.7572    2.5057   -6.5874 H   0  0  0  0  0  0  0  0  0  0  0  0
    0.6466    1.9163   -7.8703 H   0  0  0  0  0  0  0  0  0  0  0  0
 22 24  2  0  0  0  0
 24 26  1  0  0  0  0
 25 26  2  0  0  0  0
 23 25  1  0  0  0  0
 21 22  1  0  0  0  0
 22 23  1  0  0  0  0
  1  3  1  0  0  0  0
  1  7  1  0  0  0  0
  1  2  2  0  0  0  0
 35 36  1  0  0  0  0
 36 44  1  0  0  0  0
 36 37  2  0  0  0  0
  8  9  1  0  0  0  0
  9 17  1  0  0  0  0
  9 10  2  0  0  0  0
 18 19  1  0  0  0  0
 19 34  1  0  0  0  0
 19 20  2  0  0  0  0
 35 38  1  0  0  0  0
  8 11  1  0  0  0  0
 44 45  1  0  0  0  0
 18 21  1  0  0  0  0
 34 35  1  0  0  0  0
  7  8  1  0  0  0  0
 17 18  1  0  0  0  0
 24 32  1  0  0  0  0
 25 33  1  0  0  0  0
  3  4  1  0  0  0  0
  3  5  1  0  0  0  0
  3  6  1  0  0  0  0
 38 41  1  0  0  0  0
 38 42  1  0  0  0  0
 38 43  1  0  0  0  0
 11 14  1  0  0  0  0
 11 15  1  0  0  0  0
 11 16  1  0  0  0  0
 45 47  1  0  0  0  0
 45 48  1  0  0  0  0
 45 49  1  0  0  0  0
 21 29  1  0  0  0  0
 21 30  1  0  0  0  0
 35 40  1  0  0  0  0
  8 13  1  0  0  0  0
 18 28  1  0  0  0  0
 23 31  1  0  0  0  0
 44 46  1  0  0  0  0
  7 12  1  0  0  0  0
 34 39  1  0  0  0  0
 17 27  1  0  0  0  0
M  END
$$$$

  -OEChem-05262214473D

 49 49  0     1  0  0  0  0  0999 V2000
   -1.5619    0.5658    3.7981 C   0  0  0  0  0  0  0  0  0  0  0  0
   -0.6145   -0.0489    3.3224 O   0  0  0  0  0  0  0  0  0  0  0  0
   -1.9938    0.2834    5.1988 C   0  0  0  0  0  0  0  0  0  0  0  0
   -2.7535   -0.5129    5.2522 H   0  0  0  0  0  0  0  0  0  0  0  0
   -1.1626   -0.0642    5.8331 H   0  0  0  0  0  0  0  0  0  0  0  0
   -2.4318    1.1383    5.7384 H   0  0  0  0  0  0  0  0  0  0  0  0
   -2.3116    1.5383    3.1570 N   0  0  0  0  0  0  0  0  0  0  0  0
   -2.0648    1.9643    1.8046 C   0  0  2  0  0  0  0  0  0  0  0  0
   -0.7298    1.3789    1.3634 C   0  0  0  0  0  0  0  0  0  0  0  0
    0.1423    1.0262    2.1547 O   0  0  0  0  0  0  0  0  0  0  0  0
   -2.0560    3.4811    1.6952 C   0  0  0  0  0  0  0  0  0  0  0  0
   -3.0767    1.9741    3.6688 H   0  0  0  0  0  0  0  0  0  0  0  0
   -2.8689    1.5458    1.1895 H   0  0  0  0  0  0  0  0  0  0  0  0
   -1.2569    3.9183    2.3049 H   0  0  0  0  0  0  0  0  0  0  0  0
   -1.8965    3.8033    0.6609 H   0  0  0  0  0  0  0  0  0  0  0  0
   -3.0062    3.9023    2.0409 H   0  0  0  0  0  0  0  0  0  0  0  0
   -0.6071    1.3358   -0.0200 N   0  0  0  0  0  0  0  0  0  0  0  0
    0.5702    0.8350   -0.6836 C   0  0  2  0  0  0  0  0  0  0  0  0
    0.3256    0.9504   -2.1840 C   0  0  0  0  0  0  0  0  0  0  0  0
    0.7902    0.1578   -3.0006 O   0  0  0  0  0  0  0  0  0  0  0  0
    0.8749   -0.6185   -0.3036 C   0  0  0  0  0  0  0  0  0  0  0  0
    1.2084   -0.7816    1.1593 C   0  0  0  0  0  0  0  0  0  0  0  0
    2.4093   -0.4031    1.6902 N   0  0  0  0  0  0  0  0  0  0  0  0
    0.4971   -1.2867    2.2220 C   0  0  0  0  0  0  0  0  0  0  0  0
    2.3752   -0.6902    3.0265 C   0  0  0  0  0  0  0  0  0  0  0  0
    1.2289   -1.2267    3.3815 N   0  0  0  0  0  0  0  0  0  0  0  0
   -1.3903    1.6325   -0.5973 H   0  0  0  0  0  0  0  0  0  0  0  0
    1.3945    1.5008   -0.4022 H   0  0  0  0  0  0  0  0  0  0  0  0
    1.6999   -1.0069   -0.9161 H   0  0  0  0  0  0  0  0  0  0  0  0
    0.0167   -1.2634   -0.5345 H   0  0  0  0  0  0  0  0  0  0  0  0
    3.1837    0.0122    1.1891 H   0  0  0  0  0  0  0  0  0  0  0  0
   -0.5051   -1.6911    2.2137 H   0  0  0  0  0  0  0  0  0  0  0  0
    3.2118   -0.4852    3.6793 H   0  0  0  0  0  0  0  0  0  0  0  0
   -0.5125    2.0126   -2.4937 N   0  0  0  0  0  0  0  0  0  0  0  0
   -0.9241    2.3318   -3.8418 C   0  0  2  0  0  0  0  0  0  0  0  0
    0.3230    2.3826   -4.7147 C   0  0  0  0  0  0  0  0  0  0  0  0
    1.4498    2.5776   -4.2638 O   0  0  0  0  0  0  0  0  0  0  0  0
   -1.6772    3.6520   -3.8925 C   0  0  0  0  0  0  0  0  0  0  0  0
   -0.8537    2.5949   -1.7346 H   0  0  0  0  0  0  0  0  0  0  0  0
   -1.5718    1.5143   -4.1767 H   0  0  0  0  0  0  0  0  0  0  0  0
   -1.0442    4.4829   -3.5605 H   0  0  0  0  0  0  0  0  0  0  0  0
   -2.0131    3.8783   -4.9098 H   0  0  0  0  0  0  0  0  0  0  0  0
   -2.5573    3.6238   -3.2411 H   0  0  0  0  0  0  0  0  0  0  0  0
    0.0242    2.2275   -6.0611 N   0  0  0  0  0  0  0  0  0  0  0  0
    1.0356    2.2514   -7.0919 C   0  0  0  0  0  0  0  0  0  0  0  0
   -0.9356    2.0516   -6.3429 H   0  0  0  0  0  0  0  0  0  0  0  0
    1.1425    3.2759   -7.4778 H   0  0  0  0  0  0  0  0  0  0  0  0
    1.9953    1.9161   -6.6716 H   0  0  0  0  0  0  0  0  0  0  0  0
    0.7397    1.5799   -7.9114 H   0  0  0  0  0  0  0  0  0  0  0  0
 22 24  2  0  0  0  0
 24 26  1  0  0  0  0
 25 26  2  0  0  0  0
 23 25  1  0  0  0  0
 21 22  1  0  0  0  0
 22 23  1  0  0  0  0
  1  3  1  0  0  0  0
  1  7  1  0  0  0  0
  1  2  2  0  0  0  0
 35 36  1  0  0  0  0
 36 44  1  0  0  0  0
 36 37  2  0  0  0  0
  8  9  1  0  0  0  0
  9 17  1  0  0  0  0
  9 10  2  0  0  0  0
 18 19  1  0  0  0  0
 19 34  1  0  0  0  0
 19 20  2  0  0  0  0
 35 38  1  0  0  0  0
  8 11  1  0  0  0  0
 44 45  1  0  0  0  0
 18 21  1  0  0  0  0
 34 35  1  0  0  0  0
  7  8  1  0  0  0  0
 17 18  1  0  0  0  0
 24 32  1  0  0  0  0
 25 33  1  0  0  0  0
  3  4  1  0  0  0  0
  3  5  1  0  0  0  0
  3  6  1  0  0  0  0
 38 41  1  0  0  0  0
 38 42  1  0  0  0  0
 38 43  1  0  0  0  0
 11 14  1  0  0  0  0
 11 15  1  0  0  0  0
 11 16  1  0  0  0  0
 45 47  1  0  0  0  0
 45 48  1  0  0  0  0
 45 49  1  0  0  0  0
 21 29  1  0  0  0  0
 21 30  1  0  0  0  0
 35 40  1  0  0  0  0
  8 13  1  0  0  0  0
 18 28  1  0  0  0  0
 23 31  1  0  0  0  0
 44 46  1  0  0  0  0
  7 12  1  0  0  0  0
 34 39  1  0  0  0  0
 17 27  1  0  0  0  0
M  END
$$$$

  -OEChem-05262214473D

 49 49  0     1  0  0  0  0  0999 V2000
   -1.5619    0.5658    3.7981 C   0  0  0  0  0  0  0  0  0  0  0  0
   -0.6145   -0.0489    3.3224 O   0  0  0  0  0  0  0  0  0  0  0  0
   -1.9938    0.2834    5.1988 C   0  0  0  0  0  0  0  0  0  0  0  0
   -2.7535   -0.5129    5.2522 H   0  0  0  0  0  0  0  0  0  0  0  0
   -1.1626   -0.0642    5.8331 H   0  0  0  0  0  0  0  0  0  0  0  0
   -2.4318    1.1383    5.7384 H   0  0  0  0  0  0  0  0  0  0  0  0
   -2.3116    1.5383    3.1570 N   0  0  0  0  0  0  0  0  0  0  0  0
   -2.0648    1.9643    1.8046 C   0  0  2  0  0  0  0  0  0  0  0  0
   -0.7298    1.3789    1.3634 C   0  0  0  0  0  0  0  0  0  0  0  0
    0.1423    1.0262    2.1547 O   0  0  0  0  0  0  0  0  0  0  0  0
   -2.0560    3.4811    1.6952 C   0  0  0  0  0  0  0  0  0  0  0  0
   -3.0767    1.9741    3.6688 H   0  0  0  0  0  0  0  0  0  0  0  0
   -2.8689    1.5458    1.1895 H   0  0  0  0  0  0  0  0  0  0  0  0
   -1.2569    3.9183    2.3049 H   0  0  0  0  0  0  0  0  0  0  0  0
   -1.8965    3.8033    0.6609 H   0  0  0  0  0  0  0  0  0  0  0  0
   -3.0062    3.9023    2.0409 H   0  0  0  0  0  0  0  0  0  0  0  0
   -0.6071    1.3358   -0.0200 N   0  0  0  0  0  0  0  0  0  0  0  0
    0.5702    0.8350   -0.6836 C   0  0  2  0  0  0  0  0  0  0  0  0
    0.3256    0.9504   -2.1840 C   0  0  0  0  0  0  0  0  0  0  0  0
    0.5529    0.0343   -2.9714 O   0  0  0  0  0  0  0  0  0  0  0  0
    0.8749   -0.6185   -0.3036 C   0  0  0  0  0  0  0  0  0  0  0  0
    1.2084   -0.7816    1.1593 C   0  0  0  0  0  0  0  0  0  0  0  0
    2.4093   -0.4031    1.6902 N   0  0  0  0  0  0  0  0  0  0  0  0
    0.4971   -1.2867    2.2220 C   0  0  0  0  0  0  0  0  0  0  0  0
    2.3752   -0.6902    3.0265 C   0  0  0  0  0  0  0  0  0  0  0  0
    1.2289   -1.2267    3.3815 N   0  0  0  0  0  0  0  0  0  0  0  0
   -1.3903    1.6325   -0.5973 H   0  0  0  0  0  0  0  0  0  0  0  0
    1.3945    1.5008   -0.4022 H   0  0  0  0  0  0  0  0  0  0  0  0
    1.6999   -1.0069   -0.9161 H   0  0  0  0  0  0  0  0  0  0  0  0
    0.0167   -1.2634   -0.5345 H   0  0  0  0  0  0  0  0  0  0  0  0
    3.1837    0.0122    1.1891 H   0  0  0  0  0  0  0  0  0  0  0  0
   -0.5051   -1.6911    2.2137 H   0  0  0  0  0  0  0  0  0  0  0  0
    3.2118   -0.4852    3.6793 H   0  0  0  0  0  0  0  0  0  0  0  0
   -0.2223    2.1783   -2.5282 N   0  0  0  0  0  0  0  0  0  0  0  0
   -0.5727    2.5391   -3.8832 C   0  0  2  0  0  0  0  0  0  0  0  0
    0.6241    2.2360   -4.7750 C   0  0  0  0  0  0  0  0  0  0  0  0
    1.7744    2.1546   -4.3493 O   0  0  0  0  0  0  0  0  0  0  0  0
   -0.9663    4.0048   -3.9813 C   0  0  0  0  0  0  0  0  0  0  0  0
   -0.3851    2.8575   -1.7908 H   0  0  0  0  0  0  0  0  0  0  0  0
   -1.4152    1.9015   -4.1724 H   0  0  0  0  0  0  0  0  0  0  0  0
   -0.1347    4.6591   -3.6952 H   0  0  0  0  0  0  0  0  0  0  0  0
   -1.2589    4.2695   -5.0027 H   0  0  0  0  0  0  0  0  0  0  0  0
   -1.8082    4.2275   -3.3168 H   0  0  0  0  0  0  0  0  0  0  0  0
    0.2622    2.1100   -6.1089 N   0  0  0  0  0  0  0  0  0  0  0  0
    1.2204    1.8348   -7.1540 C   0  0  0  0  0  0  0  0  0  0  0  0
   -0.7175    2.1739   -6.3691 H   0  0  0  0  0  0  0  0  0  0  0  0
    1.5746    2.7822   -7.5862 H   0  0  0  0  0  0  0  0  0  0  0  0
    2.0734    1.2824   -6.7330 H   0  0  0  0  0  0  0  0  0  0  0  0
    0.7431    1.2296   -7.9388 H   0  0  0  0  0  0  0  0  0  0  0  0
 22 24  2  0  0  0  0
 24 26  1  0  0  0  0
 25 26  2  0  0  0  0
 23 25  1  0  0  0  0
 21 22  1  0  0  0  0
 22 23  1  0  0  0  0
  1  3  1  0  0  0  0
  1  7  1  0  0  0  0
  1  2  2  0  0  0  0
 35 36  1  0  0  0  0
 36 44  1  0  0  0  0
 36 37  2  0  0  0  0
  8  9  1  0  0  0  0
  9 17  1  0  0  0  0
  9 10  2  0  0  0  0
 18 19  1  0  0  0  0
 19 34  1  0  0  0  0
 19 20  2  0  0  0  0
 35 38  1  0  0  0  0
  8 11  1  0  0  0  0
 44 45  1  0  0  0  0
 18 21  1  0  0  0  0
 34 35  1  0  0  0  0
  7  8  1  0  0  0  0
 17 18  1  0  0  0  0
 24 32  1  0  0  0  0
 25 33  1  0  0  0  0
  3  4  1  0  0  0  0
  3  5  1  0  0  0  0
  3  6  1  0  0  0  0
 38 41  1  0  0  0  0
 38 42  1  0  0  0  0
 38 43  1  0  0  0  0
 11 14  1  0  0  0  0
 11 15  1  0  0  0  0
 11 16  1  0  0  0  0
 45 47  1  0  0  0  0
 45 48  1  0  0  0  0
 45 49  1  0  0  0  0
 21 29  1  0  0  0  0
 21 30  1  0  0  0  0
 35 40  1  0  0  0  0
  8 13  1  0  0  0  0
 18 28  1  0  0  0  0
 23 31  1  0  0  0  0
 44 46  1  0  0  0  0
  7 12  1  0  0  0  0
 34 39  1  0  0  0  0
 17 27  1  0  0  0  0
M  END
$$$$

  -OEChem-05262214473D

 49 49  0     1  0  0  0  0  0999 V2000
   -1.5619    0.5658    3.7981 C   0  0  0  0  0  0  0  0  0  0  0  0
   -0.6145   -0.0489    3.3224 O   0  0  0  0  0  0  0  0  0  0  0  0
   -1.9938    0.2834    5.1988 C   0  0  0  0  0  0  0  0  0  0  0  0
   -2.7535   -0.5129    5.2522 H   0  0  0  0  0  0  0  0  0  0  0  0
   -1.1626   -0.0642    5.8331 H   0  0  0  0  0  0  0  0  0  0  0  0
   -2.4318    1.1383    5.7384 H   0  0  0  0  0  0  0  0  0  0  0  0
   -2.3116    1.5383    3.1570 N   0  0  0  0  0  0  0  0  0  0  0  0
   -2.0648    1.9643    1.8046 C   0  0  2  0  0  0  0  0  0  0  0  0
   -0.7298    1.3789    1.3634 C   0  0  0  0  0  0  0  0  0  0  0  0
    0.1423    1.0262    2.1547 O   0  0  0  0  0  0  0  0  0  0  0  0
   -2.0560    3.4811    1.6952 C   0  0  0  0  0  0  0  0  0  0  0  0
   -3.0767    1.9741    3.6688 H   0  0  0  0  0  0  0  0  0  0  0  0
   -2.8689    1.5458    1.1895 H   0  0  0  0  0  0  0  0  0  0  0  0
   -1.2569    3.9183    2.3049 H   0  0  0  0  0  0  0  0  0  0  0  0
   -1.8965    3.8033    0.6609 H   0  0  0  0  0  0  0  0  0  0  0  0
   -3.0062    3.9023    2.0409 H   0  0  0  0  0  0  0  0  0  0  0  0
   -0.6071    1.3358   -0.0200 N   0  0  0  0  0  0  0  0  0  0  0  0
    0.5702    0.8350   -0.6836 C   0  0  2  0  0  0  0  0  0  0  0  0
    0.3256    0.9504   -2.1840 C   0  0  0  0  0  0  0  0  0  0  0  0
    0.2927   -0.0234   -2.9334 O   0  0  0  0  0  0  0  0  0  0  0  0
    0.8749   -0.6185   -0.3036 C   0  0  0  0  0  0  0  0  0  0  0  0
    1.2084   -0.7816    1.1593 C   0  0  0  0  0  0  0  0  0  0  0  0
    2.4093   -0.4031    1.6902 N   0  0  0  0  0  0  0  0  0  0  0  0
    0.4971   -1.2867    2.2220 C   0  0  0  0  0  0  0  0  0  0  0  0
    2.3752   -0.6902    3.0265 C   0  0  0  0  0  0  0  0  0  0  0  0
    1.2289   -1.2267    3.3815 N   0  0  0  0  0  0  0  0  0  0  0  0
   -1.3903    1.6325   -0.5973 H   0  0  0  0  0  0  0  0  0  0  0  0
    1.3945    1.5008   -0.4022 H   0  0  0  0  0  0  0  0  0  0  0  0
    1.6999   -1.0069   -0.9161 H   0  0  0  0  0  0  0  0  0  0  0  0
    0.0167   -1.2634   -0.5345 H   0  0  0  0  0  0  0  0  0  0  0  0
    3.1837    0.0122    1.1891 H   0  0  0  0  0  0  0  0  0  0  0  0
   -0.5051   -1.6911    2.2137 H   0  0  0  0  0  0  0  0  0  0  0  0
    3.2118   -0.4852    3.6793 H   0  0  0  0  0  0  0  0  0  0  0  0
    0.0996    2.2630   -2.5742 N   0  0  0  0  0  0  0  0  0  0  0  0
   -0.1812    2.6482   -3.9386 C   0  0  2  0  0  0  0  0  0  0  0  0
    0.8765    2.0153   -4.8331 C   0  0  0  0  0  0  0  0  0  0  0  0
    1.9785    1.6597   -4.4206 O   0  0  0  0  0  0  0  0  0  0  0  0
   -0.1916    4.1608   -4.0956 C   0  0  0  0  0  0  0  0  0  0  0  0
    0.1333    2.9896   -1.8651 H   0  0  0  0  0  0  0  0  0  0  0  0
   -1.1652    2.2359   -4.1875 H   0  0  0  0  0  0  0  0  0  0  0  0
    0.7860    4.5919   -3.8505 H   0  0  0  0  0  0  0  0  0  0  0  0
   -0.4326    4.4514   -5.1234 H   0  0  0  0  0  0  0  0  0  0  0  0
   -0.9322    4.6167   -3.4297 H   0  0  0  0  0  0  0  0  0  0  0  0
    0.4613    1.9338   -6.1549 N   0  0  0  0  0  0  0  0  0  0  0  0
    1.2915    1.3827   -7.2004 C   0  0  0  0  0  0  0  0  0  0  0  0
   -0.4762    2.2354   -6.4037 H   0  0  0  0  0  0  0  0  0  0  0  0
    1.8641    2.1909   -7.6789 H   0  0  0  0  0  0  0  0  0  0  0  0
    1.9863    0.6478   -6.7676 H   0  0  0  0  0  0  0  0  0  0  0  0
    0.6566    0.8893   -7.9509 H   0  0  0  0  0  0  0  0  0  0  0  0
 22 24  2  0  0  0  0
 24 26  1  0  0  0  0
 25 26  2  0  0  0  0
 23 25  1  0  0  0  0
 21 22  1  0  0  0  0
 22 23  1  0  0  0  0
  1  3  1  0  0  0  0
  1  7  1  0  0  0  0
  1  2  2  0  0  0  0
 35 36  1  0  0  0  0
 36 44  1  0  0  0  0
 36 37  2  0  0  0  0
  8  9  1  0  0  0  0
  9 17  1  0  0  0  0
  9 10  2  0  0  0  0
 18 19  1  0  0  0  0
 19 34  1  0  0  0  0
 19 20  2  0  0  0  0
 35 38  1  0  0  0  0
  8 11  1  0  0  0  0
 44 45  1  0  0  0  0
 18 21  1  0  0  0  0
 34 35  1  0  0  0  0
  7  8  1  0  0  0  0
 17 18  1  0  0  0  0
 24 32  1  0  0  0  0
 25 33  1  0  0  0  0
  3  4  1  0  0  0  0
  3  5  1  0  0  0  0
  3  6  1  0  0  0  0
 38 41  1  0  0  0  0
 38 42  1  0  0  0  0
 38 43  1  0  0  0  0
 11 14  1  0  0  0  0
 11 15  1  0  0  0  0
 11 16  1  0  0  0  0
 45 47  1  0  0  0  0
 45 48  1  0  0  0  0
 45 49  1  0  0  0  0
 21 29  1  0  0  0  0
 21 30  1  0  0  0  0
 35 40  1  0  0  0  0
  8 13  1  0  0  0  0
 18 28  1  0  0  0  0
 23 31  1  0  0  0  0
 44 46  1  0  0  0  0
  7 12  1  0  0  0  0
 34 39  1  0  0  0  0
 17 27  1  0  0  0  0
M  END
$$$$

  -OEChem-05262214473D

 49 49  0     1  0  0  0  0  0999 V2000
   -1.5619    0.5658    3.7981 C   0  0  0  0  0  0  0  0  0  0  0  0
   -0.6145   -0.0489    3.3224 O   0  0  0  0  0  0  0  0  0  0  0  0
   -1.9938    0.2834    5.1988 C   0  0  0  0  0  0  0  0  0  0  0  0
   -2.7535   -0.5129    5.2522 H   0  0  0  0  0  0  0  0  0  0  0  0
   -1.1626   -0.0642    5.8331 H   0  0  0  0  0  0  0  0  0  0  0  0
   -2.4318    1.1383    5.7384 H   0  0  0  0  0  0  0  0  0  0  0  0
   -2.3116    1.5383    3.1570 N   0  0  0  0  0  0  0  0  0  0  0  0
   -2.0648    1.9643    1.8046 C   0  0  2  0  0  0  0  0  0  0  0  0
   -0.7298    1.3789    1.3634 C   0  0  0  0  0  0  0  0  0  0  0  0
    0.1423    1.0262    2.1547 O   0  0  0  0  0  0  0  0  0  0  0  0
   -2.0560    3.4811    1.6952 C   0  0  0  0  0  0  0  0  0  0  0  0
   -3.0767    1.9741    3.6688 H   0  0  0  0  0  0  0  0  0  0  0  0
   -2.8689    1.5458    1.1895 H   0  0  0  0  0  0  0  0  0  0  0  0
   -1.2569    3.9183    2.3049 H   0  0  0  0  0  0  0  0  0  0  0  0
   -1.8965    3.8033    0.6609 H   0  0  0  0  0  0  0  0  0  0  0  0
   -3.0062    3.9023    2.0409 H   0  0  0  0  0  0  0  0  0  0  0  0
   -0.6071    1.3358   -0.0200 N   0  0  0  0  0  0  0  0  0  0  0  0
    0.5702    0.8350   -0.6836 C   0  0  2  0  0  0  0  0  0  0  0  0
    0.3256    0.9504   -2.1840 C   0  0  0  0  0  0  0  0  0  0  0  0
    0.0275   -0.0112   -2.8892 O   0  0  0  0  0  0  0  0  0  0  0  0
    0.8749   -0.6185   -0.3036 C   0  0  0  0  0  0  0  0  0  0  0  0
    1.2084   -0.7816    1.1593 C   0  0  0  0  0  0  0  0  0  0  0  0
    2.4093   -0.4031    1.6902 N   0  0  0  0  0  0  0  0  0  0  0  0
    0.4971   -1.2867    2.2220 C   0  0  0  0  0  0  0  0  0  0  0  0
    2.3752   -0.6902    3.0265 C   0  0  0  0  0  0  0  0  0  0  0  0
    1.2289   -1.2267    3.3815 N   0  0  0  0  0  0  0  0  0  0  0  0
   -1.3903    1.6325   -0.5973 H   0  0  0  0  0  0  0  0  0  0  0  0
    1.3945    1.5008   -0.4022 H   0  0  0  0  0  0  0  0  0  0  0  0
    1.6999   -1.0069   -0.9161 H   0  0  0  0  0  0  0  0  0  0  0  0
    0.0167   -1.2634   -0.5345 H   0  0  0  0  0  0  0  0  0  0  0  0
    3.1837    0.0122    1.1891 H   0  0  0  0  0  0  0  0  0  0  0  0
   -0.5051   -1.6911    2.2137 H   0  0  0  0  0  0  0  0  0  0  0  0
    3.2118   -0.4852    3.6793 H   0  0  0  0  0  0  0  0  0  0  0  0
    0.4312    2.2610   -2.6284 N   0  0  0  0  0  0  0  0  0  0  0  0
    0.2236    2.6516   -4.0043 C   0  0  2  0  0  0  0  0  0  0  0  0
    1.0629    1.7354   -4.8850 C   0  0  0  0  0  0  0  0  0  0  0  0
    2.0482    1.1268   -4.4729 O   0  0  0  0  0  0  0  0  0  0  0  0
    0.5943    4.1094   -4.2277 C   0  0  0  0  0  0  0  0  0  0  0  0
    0.6662    2.9820   -1.9526 H   0  0  0  0  0  0  0  0  0  0  0  0
   -0.8388    2.4946   -4.2208 H   0  0  0  0  0  0  0  0  0  0  0  0
    1.6551    4.2861   -4.0157 H   0  0  0  0  0  0  0  0  0  0  0  0
    0.4095    4.4116   -5.2638 H   0  0  0  0  0  0  0  0  0  0  0  0
    0.0108    4.7648   -3.5721 H   0  0  0  0  0  0  0  0  0  0  0  0
    0.6077    1.7110   -6.1959 N   0  0  0  0  0  0  0  0  0  0  0  0
    1.2442    0.9260   -7.2277 C   0  0  0  0  0  0  0  0  0  0  0  0
   -0.2282    2.2319   -6.4444 H   0  0  0  0  0  0  0  0  0  0  0  0
    1.9914    1.5421   -7.7495 H   0  0  0  0  0  0  0  0  0  0  0  0
    1.7398    0.0557   -6.7729 H   0  0  0  0  0  0  0  0  0  0  0  0
    0.4861    0.5820   -7.9467 H   0  0  0  0  0  0  0  0  0  0  0  0
 22 24  2  0  0  0  0
 24 26  1  0  0  0  0
 25 26  2  0  0  0  0
 23 25  1  0  0  0  0
 21 22  1  0  0  0  0
 22 23  1  0  0  0  0
  1  3  1  0  0  0  0
  1  7  1  0  0  0  0
  1  2  2  0  0  0  0
 35 36  1  0  0  0  0
 36 44  1  0  0  0  0
 36 37  2  0  0  0  0
  8  9  1  0  0  0  0
  9 17  1  0  0  0  0
  9 10  2  0  0  0  0
 18 19  1  0  0  0  0
 19 34  1  0  0  0  0
 19 20  2  0  0  0  0
 35 38  1  0  0  0  0
  8 11  1  0  0  0  0
 44 45  1  0  0  0  0
 18 21  1  0  0  0  0
 34 35  1  0  0  0  0
  7  8  1  0  0  0  0
 17 18  1  0  0  0  0
 24 32  1  0  0  0  0
 25 33  1  0  0  0  0
  3  4  1  0  0  0  0
  3  5  1  0  0  0  0
  3  6  1  0  0  0  0
 38 41  1  0  0  0  0
 38 42  1  0  0  0  0
 38 43  1  0  0  0  0
 11 14  1  0  0  0  0
 11 15  1  0  0  0  0
 11 16  1  0  0  0  0
 45 47  1  0  0  0  0
 45 48  1  0  0  0  0
 45 49  1  0  0  0  0
 21 29  1  0  0  0  0
 21 30  1  0  0  0  0
 35 40  1  0  0  0  0
  8 13  1  0  0  0  0
 18 28  1  0  0  0  0
 23 31  1  0  0  0  0
 44 46  1  0  0  0  0
  7 12  1  0  0  0  0
 34 39  1  0  0  0  0
 17 27  1  0  0  0  0
M  END
$$$$

  -OEChem-05262214473D

 49 49  0     1  0  0  0  0  0999 V2000
   -1.5619    0.5658    3.7981 C   0  0  0  0  0  0  0  0  0  0  0  0
   -0.6145   -0.0489    3.3224 O   0  0  0  0  0  0  0  0  0  0  0  0
   -1.9938    0.2834    5.1988 C   0  0  0  0  0  0  0  0  0  0  0  0
   -2.7535   -0.5129    5.2522 H   0  0  0  0  0  0  0  0  0  0  0  0
   -1.1626   -0.0642    5.8331 H   0  0  0  0  0  0  0  0  0  0  0  0
   -2.4318    1.1383    5.7384 H   0  0  0  0  0  0  0  0  0  0  0  0
   -2.3116    1.5383    3.1570 N   0  0  0  0  0  0  0  0  0  0  0  0
   -2.0648    1.9643    1.8046 C   0  0  2  0  0  0  0  0  0  0  0  0
   -0.7298    1.3789    1.3634 C   0  0  0  0  0  0  0  0  0  0  0  0
    0.1423    1.0262    2.1547 O   0  0  0  0  0  0  0  0  0  0  0  0
   -2.0560    3.4811    1.6952 C   0  0  0  0  0  0  0  0  0  0  0  0
   -3.0767    1.9741    3.6688 H   0  0  0  0  0  0  0  0  0  0  0  0
   -2.8689    1.5458    1.1895 H   0  0  0  0  0  0  0  0  0  0  0  0
   -1.2569    3.9183    2.3049 H   0  0  0  0  0  0  0  0  0  0  0  0
   -1.8965    3.8033    0.6609 H   0  0  0  0  0  0  0  0  0  0  0  0
   -3.0062    3.9023    2.0409 H   0  0  0  0  0  0  0  0  0  0  0  0
   -0.6071    1.3358   -0.0200 N   0  0  0  0  0  0  0  0  0  0  0  0
    0.5702    0.8350   -0.6836 C   0  0  2  0  0  0  0  0  0  0  0  0
    0.3256    0.9504   -2.1840 C   0  0  0  0  0  0  0  0  0  0  0  0
   -0.2248    0.0699   -2.8419 O   0  0  0  0  0  0  0  0  0  0  0  0
    0.8749   -0.6185   -0.3036 C   0  0  0  0  0  0  0  0  0  0  0  0
    1.2084   -0.7816    1.1593 C   0  0  0  0  0  0  0  0  0  0  0  0
    2.4093   -0.4031    1.6902 N   0  0  0  0  0  0  0  0  0  0  0  0
    0.4971   -1.2867    2.2220 C   0  0  0  0  0  0  0  0  0  0  0  0
    2.3752   -0.6902    3.0265 C   0  0  0  0  0  0  0  0  0  0  0  0
    1.2289   -1.2267    3.3815 N   0  0  0  0  0  0  0  0  0  0  0  0
   -1.3903    1.6325   -0.5973 H   0  0  0  0  0  0  0  0  0  0  0  0
    1.3945    1.5008   -0.4022 H   0  0  0  0  0  0  0  0  0  0  0  0
    1.6999   -1.0069   -0.9161 H   0  0  0  0  0  0  0  0  0  0  0  0
    0.0167   -1.2634   -0.5345 H   0  0  0  0  0  0  0  0  0  0  0  0
    3.1837    0.0122    1.1891 H   0  0  0  0  0  0  0  0  0  0  0  0
   -0.5051   -1.6911    2.2137 H   0  0  0  0  0  0  0  0  0  0  0  0
    3.2118   -0.4852    3.6793 H   0  0  0  0  0  0  0  0  0  0  0  0
    0.7499    2.1723   -2.6872 N   0  0  0  0  0  0  0  0  0  0  0  0
    0.6141    2.5490   -4.0759 C   0  0  2  0  0  0  0  0  0  0  0  0
    1.1706    1.4154   -4.9272 C   0  0  0  0  0  0  0  0  0  0  0  0
    1.9787    0.5921   -4.5027 O   0  0  0  0  0  0  0  0  0  0  0  0
    1.3377    3.8542   -4.3685 C   0  0  0  0  0  0  0  0  0  0  0  0
    1.1773    2.8353   -2.0472 H   0  0  0  0  0  0  0  0  0  0  0  0
   -0.4583    2.6599   -4.2701 H   0  0  0  0  0  0  0  0  0  0  0  0
    2.4135    3.7625   -4.1796 H   0  0  0  0  0  0  0  0  0  0  0  0
    1.2100    4.1528   -5.4142 H   0  0  0  0  0  0  0  0  0  0  0  0
    0.9566    4.6618   -3.7342 H   0  0  0  0  0  0  0  0  0  0  0  0
    0.6916    1.4569   -6.2291 N   0  0  0  0  0  0  0  0  0  0  0  0
    1.0816    0.4958   -7.2343 C   0  0  0  0  0  0  0  0  0  0  0  0
    0.0098    2.1636   -6.4884 H   0  0  0  0  0  0  0  0  0  0  0  0
    1.9476    0.8800   -7.7933 H   0  0  0  0  0  0  0  0  0  0  0  0
    1.3508   -0.4537   -6.7487 H   0  0  0  0  0  0  0  0  0  0  0  0
    0.2433    0.3289   -7.9266 H   0  0  0  0  0  0  0  0  0  0  0  0
 22 24  2  0  0  0  0
 24 26  1  0  0  0  0
 25 26  2  0  0  0  0
 23 25  1  0  0  0  0
 21 22  1  0  0  0  0
 22 23  1  0  0  0  0
  1  3  1  0  0  0  0
  1  7  1  0  0  0  0
  1  2  2  0  0  0  0
 35 36  1  0  0  0  0
 36 44  1  0  0  0  0
 36 37  2  0  0  0  0
  8  9  1  0  0  0  0
  9 17  1  0  0  0  0
  9 10  2  0  0  0  0
 18 19  1  0  0  0  0
 19 34  1  0  0  0  0
 19 20  2  0  0  0  0
 35 38  1  0  0  0  0
  8 11  1  0  0  0  0
 44 45  1  0  0  0  0
 18 21  1  0  0  0  0
 34 35  1  0  0  0  0
  7  8  1  0  0  0  0
 17 18  1  0  0  0  0
 24 32  1  0  0  0  0
 25 33  1  0  0  0  0
  3  4  1  0  0  0  0
  3  5  1  0  0  0  0
  3  6  1  0  0  0  0
 38 41  1  0  0  0  0
 38 42  1  0  0  0  0
 38 43  1  0  0  0  0
 11 14  1  0  0  0  0
 11 15  1  0  0  0  0
 11 16  1  0  0  0  0
 45 47  1  0  0  0  0
 45 48  1  0  0  0  0
 45 49  1  0  0  0  0
 21 29  1  0  0  0  0
 21 30  1  0  0  0  0
 35 40  1  0  0  0  0
  8 13  1  0  0  0  0
 18 28  1  0  0  0  0
 23 31  1  0  0  0  0
 44 46  1  0  0  0  0
  7 12  1  0  0  0  0
 34 39  1  0  0  0  0
 17 27  1  0  0  0  0
M  END
$$$$

  -OEChem-05262214473D

 49 49  0     1  0  0  0  0  0999 V2000
   -1.5619    0.5658    3.7981 C   0  0  0  0  0  0  0  0  0  0  0  0
   -0.6145   -0.0489    3.3224 O   0  0  0  0  0  0  0  0  0  0  0  0
   -1.9938    0.2834    5.1988 C   0  0  0  0  0  0  0  0  0  0  0  0
   -2.7535   -0.5129    5.2522 H   0  0  0  0  0  0  0  0  0  0  0  0
   -1.1626   -0.0642    5.8331 H   0  0  0  0  0  0  0  0  0  0  0  0
   -2.4318    1.1383    5.7384 H   0  0  0  0  0  0  0  0  0  0  0  0
   -2.3116    1.5383    3.1570 N   0  0  0  0  0  0  0  0  0  0  0  0
   -2.0648    1.9643    1.8046 C   0  0  2  0  0  0  0  0  0  0  0  0
   -0.7298    1.3789    1.3634 C   0  0  0  0  0  0  0  0  0  0  0  0
    0.1423    1.0262    2.1547 O   0  0  0  0  0  0  0  0  0  0  0  0
   -2.0560    3.4811    1.6952 C   0  0  0  0  0  0  0  0  0  0  0  0
   -3.0767    1.9741    3.6688 H   0  0  0  0  0  0  0  0  0  0  0  0
   -2.8689    1.5458    1.1895 H   0  0  0  0  0  0  0  0  0  0  0  0
   -1.2569    3.9183    2.3049 H   0  0  0  0  0  0  0  0  0  0  0  0
   -1.8965    3.8033    0.6609 H   0  0  0  0  0  0  0  0  0  0  0  0
   -3.0062    3.9023    2.0409 H   0  0  0  0  0  0  0  0  0  0  0  0
   -0.6071    1.3358   -0.0200 N   0  0  0  0  0  0  0  0  0  0  0  0
    0.5702    0.8350   -0.6836 C   0  0  2  0  0  0  0  0  0  0  0  0
    0.3256    0.9504   -2.1840 C   0  0  0  0  0  0  0  0  0  0  0  0
   -0.4468    0.2145   -2.7945 O   0  0  0  0  0  0  0  0  0  0  0  0
    0.8749   -0.6185   -0.3036 C   0  0  0  0  0  0  0  0  0  0  0  0
    1.2084   -0.7816    1.1593 C   0  0  0  0  0  0  0  0  0  0  0  0
    2.4093   -0.4031    1.6902 N   0  0  0  0  0  0  0  0  0  0  0  0
    0.4971   -1.2867    2.2220 C   0  0  0  0  0  0  0  0  0  0  0  0
    2.3752   -0.6902    3.0265 C   0  0  0  0  0  0  0  0  0  0  0  0
    1.2289   -1.2267    3.3815 N   0  0  0  0  0  0  0  0  0  0  0  0
   -1.3903    1.6325   -0.5973 H   0  0  0  0  0  0  0  0  0  0  0  0
    1.3945    1.5008   -0.4022 H   0  0  0  0  0  0  0  0  0  0  0  0
    1.6999   -1.0069   -0.9161 H   0  0  0  0  0  0  0  0  0  0  0  0
    0.0167   -1.2634   -0.5345 H   0  0  0  0  0  0  0  0  0  0  0  0
    3.1837    0.0122    1.1891 H   0  0  0  0  0  0  0  0  0  0  0  0
   -0.5051   -1.6911    2.2137 H   0  0  0  0  0  0  0  0  0  0  0  0
    3.2118   -0.4852    3.6793 H   0  0  0  0  0  0  0  0  0  0  0  0
    1.0340    2.0031   -2.7465 N   0  0  0  0  0  0  0  0  0  0  0  0
    0.9638    2.3475   -4.1484 C   0  0  2  0  0  0  0  0  0  0  0  0
    1.1923    1.0771   -4.9568 C   0  0  0  0  0  0  0  0  0  0  0  0
    1.7748    0.0921   -4.5079 O   0  0  0  0  0  0  0  0  0  0  0  0
    1.9880    3.4124   -4.5085 C   0  0  0  0  0  0  0  0  0  0  0  0
    1.6318    2.5594   -2.1425 H   0  0  0  0  0  0  0  0  0  0  0  0
   -0.0496    2.7206   -4.3321 H   0  0  0  0  0  0  0  0  0  0  0  0
    3.0095    3.0567   -4.3310 H   0  0  0  0  0  0  0  0  0  0  0  0
    1.9144    3.6927   -5.5644 H   0  0  0  0  0  0  0  0  0  0  0  0
    1.8408    4.3146   -3.9050 H   0  0  0  0  0  0  0  0  0  0  0  0
    0.7073    1.1886   -6.2523 N   0  0  0  0  0  0  0  0  0  0  0  0
    0.8149    0.1214   -7.2196 C   0  0  0  0  0  0  0  0  0  0  0  0
    0.2213    2.0353   -6.5328 H   0  0  0  0  0  0  0  0  0  0  0  0
    1.7359    0.2499   -7.8072 H   0  0  0  0  0  0  0  0  0  0  0  0
    0.8457   -0.8457   -6.6965 H   0  0  0  0  0  0  0  0  0  0  0  0
   -0.0554    0.1470   -7.8919 H   0  0  0  0  0  0  0  0  0  0  0  0
 22 24  2  0  0  0  0
 24 26  1  0  0  0  0
 25 26  2  0  0  0  0
 23 25  1  0  0  0  0
 21 22  1  0  0  0  0
 22 23  1  0  0  0  0
  1  3  1  0  0  0  0
  1  7  1  0  0  0  0
  1  2  2  0  0  0  0
 35 36  1  0  0  0  0
 36 44  1  0  0  0  0
 36 37  2  0  0  0  0
  8  9  1  0  0  0  0
  9 17  1  0  0  0  0
  9 10  2  0  0  0  0
 18 19  1  0  0  0  0
 19 34  1  0  0  0  0
 19 20  2  0  0  0  0
 35 38  1  0  0  0  0
  8 11  1  0  0  0  0
 44 45  1  0  0  0  0
 18 21  1  0  0  0  0
 34 35  1  0  0  0  0
  7  8  1  0  0  0  0
 17 18  1  0  0  0  0
 24 32  1  0  0  0  0
 25 33  1  0  0  0  0
  3  4  1  0  0  0  0
  3  5  1  0  0  0  0
  3  6  1  0  0  0  0
 38 41  1  0  0  0  0
 38 42  1  0  0  0  0
 38 43  1  0  0  0  0
 11 14  1  0  0  0  0
 11 15  1  0  0  0  0
 11 16  1  0  0  0  0
 45 47  1  0  0  0  0
 45 48  1  0  0  0  0
 45 49  1  0  0  0  0
 21 29  1  0  0  0  0
 21 30  1  0  0  0  0
 35 40  1  0  0  0  0
  8 13  1  0  0  0  0
 18 28  1  0  0  0  0
 23 31  1  0  0  0  0
 44 46  1  0  0  0  0
  7 12  1  0  0  0  0
 34 39  1  0  0  0  0
 17 27  1  0  0  0  0
M  END
$$$$

  -OEChem-05262214473D

 49 49  0     1  0  0  0  0  0999 V2000
   -1.5619    0.5658    3.7981 C   0  0  0  0  0  0  0  0  0  0  0  0
   -0.6145   -0.0489    3.3224 O   0  0  0  0  0  0  0  0  0  0  0  0
   -1.9938    0.2834    5.1988 C   0  0  0  0  0  0  0  0  0  0  0  0
   -2.7535   -0.5129    5.2522 H   0  0  0  0  0  0  0  0  0  0  0  0
   -1.1626   -0.0642    5.8331 H   0  0  0  0  0  0  0  0  0  0  0  0
   -2.4318    1.1383    5.7384 H   0  0  0  0  0  0  0  0  0  0  0  0
   -2.3116    1.5383    3.1570 N   0  0  0  0  0  0  0  0  0  0  0  0
   -2.0648    1.9643    1.8046 C   0  0  2  0  0  0  0  0  0  0  0  0
   -0.7298    1.3789    1.3634 C   0  0  0  0  0  0  0  0  0  0  0  0
    0.1423    1.0262    2.1547 O   0  0  0  0  0  0  0  0  0  0  0  0
   -2.0560    3.4811    1.6952 C   0  0  0  0  0  0  0  0  0  0  0  0
   -3.0767    1.9741    3.6688 H   0  0  0  0  0  0  0  0  0  0  0  0
   -2.8689    1.5458    1.1895 H   0  0  0  0  0  0  0  0  0  0  0  0
   -1.2569    3.9183    2.3049 H   0  0  0  0  0  0  0  0  0  0  0  0
   -1.8965    3.8033    0.6609 H   0  0  0  0  0  0  0  0  0  0  0  0
   -3.0062    3.9023    2.0409 H   0  0  0  0  0  0  0  0  0  0  0  0
   -0.6071    1.3358   -0.0200 N   0  0  0  0  0  0  0  0  0  0  0  0
    0.5702    0.8350   -0.6836 C   0  0  2  0  0  0  0  0  0  0  0  0
    0.3256    0.9504   -2.1840 C   0  0  0  0  0  0  0  0  0  0  0  0
   -0.6236    0.4127   -2.7505 O   0  0  0  0  0  0  0  0  0  0  0  0
    0.8749   -0.6185   -0.3036 C   0  0  0  0  0  0  0  0  0  0  0  0
    1.2084   -0.7816    1.1593 C   0  0  0  0  0  0  0  0  0  0  0  0
    2.4093   -0.4031    1.6902 N   0  0  0  0  0  0  0  0  0  0  0  0
    0.4971   -1.2867    2.2220 C   0  0  0  0  0  0  0  0  0  0  0  0
    2.3752   -0.6902    3.0265 C   0  0  0  0  0  0  0  0  0  0  0  0
    1.2289   -1.2267    3.3815 N   0  0  0  0  0  0  0  0  0  0  0  0
   -1.3903    1.6325   -0.5973 H   0  0  0  0  0  0  0  0  0  0  0  0
    1.3945    1.5008   -0.4022 H   0  0  0  0  0  0  0  0  0  0  0  0
    1.6999   -1.0069   -0.9161 H   0  0  0  0  0  0  0  0  0  0  0  0
    0.0167   -1.2634   -0.5345 H   0  0  0  0  0  0  0  0  0  0  0  0
    3.1837    0.0122    1.1891 H   0  0  0  0  0  0  0  0  0  0  0  0
   -0.5051   -1.6911    2.2137 H   0  0  0  0  0  0  0  0  0  0  0  0
    3.2118   -0.4852    3.6793 H   0  0  0  0  0  0  0  0  0  0  0  0
    1.2641    1.7647   -2.8024 N   0  0  0  0  0  0  0  0  0  0  0  0
    1.2489    2.0607   -4.2169 C   0  0  2  0  0  0  0  0  0  0  0  0
    1.1265    0.7435   -4.9717 C   0  0  0  0  0  0  0  0  0  0  0  0
    1.4504   -0.3392   -4.4882 O   0  0  0  0  0  0  0  0  0  0  0  0
    2.5009    2.8142   -4.6381 C   0  0  0  0  0  0  0  0  0  0  0  0
    1.9986    2.1733   -2.2320 H   0  0  0  0  0  0  0  0  0  0  0  0
    0.3594    2.6726   -4.4025 H   0  0  0  0  0  0  0  0  0  0  0  0
    3.4025    2.2169   -4.4597 H   0  0  0  0  0  0  0  0  0  0  0  0
    2.4747    3.0627   -5.7042 H   0  0  0  0  0  0  0  0  0  0  0  0
    2.6030    3.7469   -4.0729 H   0  0  0  0  0  0  0  0  0  0  0  0
    0.6537    0.9245   -6.2639 N   0  0  0  0  0  0  0  0  0  0  0  0
    0.4621   -0.1716   -7.1846 C   0  0  0  0  0  0  0  0  0  0  0  0
    0.3921    1.8556   -6.5745 H   0  0  0  0  0  0  0  0  0  0  0  0
    1.3705   -0.3054   -7.7903 H   0  0  0  0  0  0  0  0  0  0  0  0
    0.2591   -1.0935   -6.6199 H   0  0  0  0  0  0  0  0  0  0  0  0
   -0.3895    0.0489   -7.8450 H   0  0  0  0  0  0  0  0  0  0  0  0
 22 24  2  0  0  0  0
 24 26  1  0  0  0  0
 25 26  2  0  0  0  0
 23 25  1  0  0  0  0
 21 22  1  0  0  0  0
 22 23  1  0  0  0  0
  1  3  1  0  0  0  0
  1  7  1  0  0  0  0
  1  2  2  0  0  0  0
 35 36  1  0  0  0  0
 36 44  1  0  0  0  0
 36 37  2  0  0  0  0
  8  9  1  0  0  0  0
  9 17  1  0  0  0  0
  9 10  2  0  0  0  0
 18 19  1  0  0  0  0
 19 34  1  0  0  0  0
 19 20  2  0  0  0  0
 35 38  1  0  0  0  0
  8 11  1  0  0  0  0
 44 45  1  0  0  0  0
 18 21  1  0  0  0  0
 34 35  1  0  0  0  0
  7  8  1  0  0  0  0
 17 18  1  0  0  0  0
 24 32  1  0  0  0  0
 25 33  1  0  0  0  0
  3  4  1  0  0  0  0
  3  5  1  0  0  0  0
  3  6  1  0  0  0  0
 38 41  1  0  0  0  0
 38 42  1  0  0  0  0
 38 43  1  0  0  0  0
 11 14  1  0  0  0  0
 11 15  1  0  0  0  0
 11 16  1  0  0  0  0
 45 47  1  0  0  0  0
 45 48  1  0  0  0  0
 45 49  1  0  0  0  0
 21 29  1  0  0  0  0
 21 30  1  0  0  0  0
 35 40  1  0  0  0  0
  8 13  1  0  0  0  0
 18 28  1  0  0  0  0
 23 31  1  0  0  0  0
 44 46  1  0  0  0  0
  7 12  1  0  0  0  0
 34 39  1  0  0  0  0
 17 27  1  0  0  0  0
M  END
$$$$

  -OEChem-05262214473D

 49 49  0     1  0  0  0  0  0999 V2000
   -1.5619    0.5658    3.7981 C   0  0  0  0  0  0  0  0  0  0  0  0
   -0.6145   -0.0489    3.3224 O   0  0  0  0  0  0  0  0  0  0  0  0
   -1.9938    0.2834    5.1988 C   0  0  0  0  0  0  0  0  0  0  0  0
   -2.7535   -0.5129    5.2522 H   0  0  0  0  0  0  0  0  0  0  0  0
   -1.1626   -0.0642    5.8331 H   0  0  0  0  0  0  0  0  0  0  0  0
   -2.4318    1.1383    5.7384 H   0  0  0  0  0  0  0  0  0  0  0  0
   -2.3116    1.5383    3.1570 N   0  0  0  0  0  0  0  0  0  0  0  0
   -2.0648    1.9643    1.8046 C   0  0  2  0  0  0  0  0  0  0  0  0
   -0.7298    1.3789    1.3634 C   0  0  0  0  0  0  0  0  0  0  0  0
    0.1423    1.0262    2.1547 O   0  0  0  0  0  0  0  0  0  0  0  0
   -2.0560    3.4811    1.6952 C   0  0  0  0  0  0  0  0  0  0  0  0
   -3.0767    1.9741    3.6688 H   0  0  0  0  0  0  0  0  0  0  0  0
   -2.8689    1.5458    1.1895 H   0  0  0  0  0  0  0  0  0  0  0  0
   -1.2569    3.9183    2.3049 H   0  0  0  0  0  0  0  0  0  0  0  0
   -1.8965    3.8033    0.6609 H   0  0  0  0  0  0  0  0  0  0  0  0
   -3.0062    3.9023    2.0409 H   0  0  0  0  0  0  0  0  0  0  0  0
   -0.6071    1.3358   -0.0200 N   0  0  0  0  0  0  0  0  0  0  0  0
    0.5702    0.8350   -0.6836 C   0  0  2  0  0  0  0  0  0  0  0  0
    0.3256    0.9504   -2.1840 C   0  0  0  0  0  0  0  0  0  0  0  0
   -0.7429    0.6509   -2.7127 O   0  0  0  0  0  0  0  0  0  0  0  0
    0.8749   -0.6185   -0.3036 C   0  0  0  0  0  0  0  0  0  0  0  0
    1.2084   -0.7816    1.1593 C   0  0  0  0  0  0  0  0  0  0  0  0
    2.4093   -0.4031    1.6902 N   0  0  0  0  0  0  0  0  0  0  0  0
    0.4971   -1.2867    2.2220 C   0  0  0  0  0  0  0  0  0  0  0  0
    2.3752   -0.6902    3.0265 C   0  0  0  0  0  0  0  0  0  0  0  0
    1.2289   -1.2267    3.3815 N   0  0  0  0  0  0  0  0  0  0  0  0
   -1.3903    1.6325   -0.5973 H   0  0  0  0  0  0  0  0  0  0  0  0
    1.3945    1.5008   -0.4022 H   0  0  0  0  0  0  0  0  0  0  0  0
    1.6999   -1.0069   -0.9161 H   0  0  0  0  0  0  0  0  0  0  0  0
    0.0167   -1.2634   -0.5345 H   0  0  0  0  0  0  0  0  0  0  0  0
    3.1837    0.0122    1.1891 H   0  0  0  0  0  0  0  0  0  0  0  0
   -0.5051   -1.6911    2.2137 H   0  0  0  0  0  0  0  0  0  0  0  0
    3.2118   -0.4852    3.6793 H   0  0  0  0  0  0  0  0  0  0  0  0
    1.4246    1.4736   -2.8509 N   0  0  0  0  0  0  0  0  0  0  0  0
    1.4499    1.7082   -4.2768 C   0  0  2  0  0  0  0  0  0  0  0  0
    0.9778    0.4375   -4.9709 C   0  0  0  0  0  0  0  0  0  0  0  0
    1.0276   -0.6724   -4.4448 O   0  0  0  0  0  0  0  0  0  0  0  0
    2.8414    2.1004   -4.7485 C   0  0  0  0  0  0  0  0  0  0  0  0
    2.2529    1.7031   -2.3096 H   0  0  0  0  0  0  0  0  0  0  0  0
    0.7409    2.5191   -4.4765 H   0  0  0  0  0  0  0  0  0  0  0  0
    3.5656    1.3002   -4.5567 H   0  0  0  0  0  0  0  0  0  0  0  0
    2.8526    2.3055   -5.8240 H   0  0  0  0  0  0  0  0  0  0  0  0
    3.1915    2.9975   -4.2265 H   0  0  0  0  0  0  0  0  0  0  0  0
    0.5344    0.6826   -6.2630 N   0  0  0  0  0  0  0  0  0  0  0  0
    0.0474   -0.3635   -7.1318 C   0  0  0  0  0  0  0  0  0  0  0  0
    0.5105    1.6367   -6.6106 H   0  0  0  0  0  0  0  0  0  0  0  0
    0.8766   -0.7481   -7.7438 H   0  0  0  0  0  0  0  0  0  0  0  0
   -0.3692   -1.1803   -6.5241 H   0  0  0  0  0  0  0  0  0  0  0  0
   -0.7363    0.0412   -7.7890 H   0  0  0  0  0  0  0  0  0  0  0  0
 22 24  2  0  0  0  0
 24 26  1  0  0  0  0
 25 26  2  0  0  0  0
 23 25  1  0  0  0  0
 21 22  1  0  0  0  0
 22 23  1  0  0  0  0
  1  3  1  0  0  0  0
  1  7  1  0  0  0  0
  1  2  2  0  0  0  0
 35 36  1  0  0  0  0
 36 44  1  0  0  0  0
 36 37  2  0  0  0  0
  8  9  1  0  0  0  0
  9 17  1  0  0  0  0
  9 10  2  0  0  0  0
 18 19  1  0  0  0  0
 19 34  1  0  0  0  0
 19 20  2  0  0  0  0
 35 38  1  0  0  0  0
  8 11  1  0  0  0  0
 44 45  1  0  0  0  0
 18 21  1  0  0  0  0
 34 35  1  0  0  0  0
  7  8  1  0  0  0  0
 17 18  1  0  0  0  0
 24 32  1  0  0  0  0
 25 33  1  0  0  0  0
  3  4  1  0  0  0  0
  3  5  1  0  0  0  0
  3  6  1  0  0  0  0
 38 41  1  0  0  0  0
 38 42  1  0  0  0  0
 38 43  1  0  0  0  0
 11 14  1  0  0  0  0
 11 15  1  0  0  0  0
 11 16  1  0  0  0  0
 45 47  1  0  0  0  0
 45 48  1  0  0  0  0
 45 49  1  0  0  0  0
 21 29  1  0  0  0  0
 21 30  1  0  0  0  0
 35 40  1  0  0  0  0
  8 13  1  0  0  0  0
 18 28  1  0  0  0  0
 23 31  1  0  0  0  0
 44 46  1  0  0  0  0
  7 12  1  0  0  0  0
 34 39  1  0  0  0  0
 17 27  1  0  0  0  0
M  END
$$$$

  -OEChem-05262214473D

 49 49  0     1  0  0  0  0  0999 V2000
   -1.5619    0.5658    3.7981 C   0  0  0  0  0  0  0  0  0  0  0  0
   -0.6145   -0.0489    3.3224 O   0  0  0  0  0  0  0  0  0  0  0  0
   -1.9938    0.2834    5.1988 C   0  0  0  0  0  0  0  0  0  0  0  0
   -2.7535   -0.5129    5.2522 H   0  0  0  0  0  0  0  0  0  0  0  0
   -1.1626   -0.0642    5.8331 H   0  0  0  0  0  0  0  0  0  0  0  0
   -2.4318    1.1383    5.7384 H   0  0  0  0  0  0  0  0  0  0  0  0
   -2.3116    1.5383    3.1570 N   0  0  0  0  0  0  0  0  0  0  0  0
   -2.0648    1.9643    1.8046 C   0  0  2  0  0  0  0  0  0  0  0  0
   -0.7298    1.3789    1.3634 C   0  0  0  0  0  0  0  0  0  0  0  0
    0.1423    1.0262    2.1547 O   0  0  0  0  0  0  0  0  0  0  0  0
   -2.0560    3.4811    1.6952 C   0  0  0  0  0  0  0  0  0  0  0  0
   -3.0767    1.9741    3.6688 H   0  0  0  0  0  0  0  0  0  0  0  0
   -2.8689    1.5458    1.1895 H   0  0  0  0  0  0  0  0  0  0  0  0
   -1.2569    3.9183    2.3049 H   0  0  0  0  0  0  0  0  0  0  0  0
   -1.8965    3.8033    0.6609 H   0  0  0  0  0  0  0  0  0  0  0  0
   -3.0062    3.9023    2.0409 H   0  0  0  0  0  0  0  0  0  0  0  0
   -0.6071    1.3358   -0.0200 N   0  0  0  0  0  0  0  0  0  0  0  0
    0.5702    0.8350   -0.6836 C   0  0  2  0  0  0  0  0  0  0  0  0
    0.3256    0.9504   -2.1840 C   0  0  0  0  0  0  0  0  0  0  0  0
   -0.7968    0.9131   -2.6838 O   0  0  0  0  0  0  0  0  0  0  0  0
    0.8749   -0.6185   -0.3036 C   0  0  0  0  0  0  0  0  0  0  0  0
    1.2084   -0.7816    1.1593 C   0  0  0  0  0  0  0  0  0  0  0  0
    2.4093   -0.4031    1.6902 N   0  0  0  0  0  0  0  0  0  0  0  0
    0.4971   -1.2867    2.2220 C   0  0  0  0  0  0  0  0  0  0  0  0
    2.3752   -0.6902    3.0265 C   0  0  0  0  0  0  0  0  0  0  0  0
    1.2289   -1.2267    3.3815 N   0  0  0  0  0  0  0  0  0  0  0  0
   -1.3903    1.6325   -0.5973 H   0  0  0  0  0  0  0  0  0  0  0  0
    1.3945    1.5008   -0.4022 H   0  0  0  0  0  0  0  0  0  0  0  0
    1.6999   -1.0069   -0.9161 H   0  0  0  0  0  0  0  0  0  0  0  0
    0.0167   -1.2634   -0.5345 H   0  0  0  0  0  0  0  0  0  0  0  0
    3.1837    0.0122    1.1891 H   0  0  0  0  0  0  0  0  0  0  0  0
   -0.5051   -1.6911    2.2137 H   0  0  0  0  0  0  0  0  0  0  0  0
    3.2118   -0.4852    3.6793 H   0  0  0  0  0  0  0  0  0  0  0  0
    1.5045    1.1495   -2.8889 N   0  0  0  0  0  0  0  0  0  0  0  0
    1.5530    1.3141   -4.3239 C   0  0  2  0  0  0  0  0  0  0  0  0
    0.7561    0.1798   -4.9546 C   0  0  0  0  0  0  0  0  0  0  0  0
    0.5352   -0.8847   -4.3809 O   0  0  0  0  0  0  0  0  0  0  0  0
    2.9863    1.3196   -4.8321 C   0  0  0  0  0  0  0  0  0  0  0  0
    2.3772    1.1810   -2.3700 H   0  0  0  0  0  0  0  0  0  0  0  0
    1.0688    2.2706   -4.5490 H   0  0  0  0  0  0  0  0  0  0  0  0
    3.4878    0.3692   -4.6156 H   0  0  0  0  0  0  0  0  0  0  0  0
    3.0225    1.4730   -5.9157 H   0  0  0  0  0  0  0  0  0  0  0  0
    3.5659    2.1173   -4.3552 H   0  0  0  0  0  0  0  0  0  0  0  0
    0.3575    0.4793   -6.2498 N   0  0  0  0  0  0  0  0  0  0  0  0
   -0.4009   -0.4409   -7.0646 C   0  0  0  0  0  0  0  0  0  0  0  0
    0.5684    1.3937   -6.6387 H   0  0  0  0  0  0  0  0  0  0  0  0
    0.2876   -1.0479   -7.6708 H   0  0  0  0  0  0  0  0  0  0  0  0
   -0.9963   -1.1000   -6.4157 H   0  0  0  0  0  0  0  0  0  0  0  0
   -1.0722    0.1243   -7.7279 H   0  0  0  0  0  0  0  0  0  0  0  0
 22 24  2  0  0  0  0
 24 26  1  0  0  0  0
 25 26  2  0  0  0  0
 23 25  1  0  0  0  0
 21 22  1  0  0  0  0
 22 23  1  0  0  0  0
  1  3  1  0  0  0  0
  1  7  1  0  0  0  0
  1  2  2  0  0  0  0
 35 36  1  0  0  0  0
 36 44  1  0  0  0  0
 36 37  2  0  0  0  0
  8  9  1  0  0  0  0
  9 17  1  0  0  0  0
  9 10  2  0  0  0  0
 18 19  1  0  0  0  0
 19 34  1  0  0  0  0
 19 20  2  0  0  0  0
 35 38  1  0  0  0  0
  8 11  1  0  0  0  0
 44 45  1  0  0  0  0
 18 21  1  0  0  0  0
 34 35  1  0  0  0  0
  7  8  1  0  0  0  0
 17 18  1  0  0  0  0
 24 32  1  0  0  0  0
 25 33  1  0  0  0  0
  3  4  1  0  0  0  0
  3  5  1  0  0  0  0
  3  6  1  0  0  0  0
 38 41  1  0  0  0  0
 38 42  1  0  0  0  0
 38 43  1  0  0  0  0
 11 14  1  0  0  0  0
 11 15  1  0  0  0  0
 11 16  1  0  0  0  0
 45 47  1  0  0  0  0
 45 48  1  0  0  0  0
 45 49  1  0  0  0  0
 21 29  1  0  0  0  0
 21 30  1  0  0  0  0
 35 40  1  0  0  0  0
  8 13  1  0  0  0  0
 18 28  1  0  0  0  0
 23 31  1  0  0  0  0
 44 46  1  0  0  0  0
  7 12  1  0  0  0  0
 34 39  1  0  0  0  0
 17 27  1  0  0  0  0
M  END
$$$$

  -OEChem-05262214473D

 49 49  0     1  0  0  0  0  0999 V2000
   -1.5619    0.5658    3.7981 C   0  0  0  0  0  0  0  0  0  0  0  0
   -0.6145   -0.0489    3.3224 O   0  0  0  0  0  0  0  0  0  0  0  0
   -1.9938    0.2834    5.1988 C   0  0  0  0  0  0  0  0  0  0  0  0
   -2.7535   -0.5129    5.2522 H   0  0  0  0  0  0  0  0  0  0  0  0
   -1.1626   -0.0642    5.8331 H   0  0  0  0  0  0  0  0  0  0  0  0
   -2.4318    1.1383    5.7384 H   0  0  0  0  0  0  0  0  0  0  0  0
   -2.3116    1.5383    3.1570 N   0  0  0  0  0  0  0  0  0  0  0  0
   -2.0648    1.9643    1.8046 C   0  0  2  0  0  0  0  0  0  0  0  0
   -0.7298    1.3789    1.3634 C   0  0  0  0  0  0  0  0  0  0  0  0
    0.1423    1.0262    2.1547 O   0  0  0  0  0  0  0  0  0  0  0  0
   -2.0560    3.4811    1.6952 C   0  0  0  0  0  0  0  0  0  0  0  0
   -3.0767    1.9741    3.6688 H   0  0  0  0  0  0  0  0  0  0  0  0
   -2.8689    1.5458    1.1895 H   0  0  0  0  0  0  0  0  0  0  0  0
   -1.2569    3.9183    2.3049 H   0  0  0  0  0  0  0  0  0  0  0  0
   -1.8965    3.8033    0.6609 H   0  0  0  0  0  0  0  0  0  0  0  0
   -3.0062    3.9023    2.0409 H   0  0  0  0  0  0  0  0  0  0  0  0
   -0.6071    1.3358   -0.0200 N   0  0  0  0  0  0  0  0  0  0  0  0
    0.5702    0.8350   -0.6836 C   0  0  2  0  0  0  0  0  0  0  0  0
    0.3256    0.9504   -2.1840 C   0  0  0  0  0  0  0  0  0  0  0  0
   -0.7815    1.1812   -2.6657 O   0  0  0  0  0  0  0  0  0  0  0  0
    0.8749   -0.6185   -0.3036 C   0  0  0  0  0  0  0  0  0  0  0  0
    1.2084   -0.7816    1.1593 C   0  0  0  0  0  0  0  0  0  0  0  0
    2.4093   -0.4031    1.6902 N   0  0  0  0  0  0  0  0  0  0  0  0
    0.4971   -1.2867    2.2220 C   0  0  0  0  0  0  0  0  0  0  0  0
    2.3752   -0.6902    3.0265 C   0  0  0  0  0  0  0  0  0  0  0  0
    1.2289   -1.2267    3.3815 N   0  0  0  0  0  0  0  0  0  0  0  0
   -1.3903    1.6325   -0.5973 H   0  0  0  0  0  0  0  0  0  0  0  0
    1.3945    1.5008   -0.4022 H   0  0  0  0  0  0  0  0  0  0  0  0
    1.6999   -1.0069   -0.9161 H   0  0  0  0  0  0  0  0  0  0  0  0
    0.0167   -1.2634   -0.5345 H   0  0  0  0  0  0  0  0  0  0  0  0
    3.1837    0.0122    1.1891 H   0  0  0  0  0  0  0  0  0  0  0  0
   -0.5051   -1.6911    2.2137 H   0  0  0  0  0  0  0  0  0  0  0  0
    3.2118   -0.4852    3.6793 H   0  0  0  0  0  0  0  0  0  0  0  0
    1.4984    0.8144   -2.9136 N   0  0  0  0  0  0  0  0  0  0  0  0
    1.5514    0.9052   -4.3551 C   0  0  2  0  0  0  0  0  0  0  0  0
    0.4767   -0.0120   -4.9238 C   0  0  0  0  0  0  0  0  0  0  0  0
    0.0068   -0.9616   -4.3006 O   0  0  0  0  0  0  0  0  0  0  0  0
    2.9258    0.5250   -4.8833 C   0  0  0  0  0  0  0  0  0  0  0  0
    2.3631    0.6425   -2.4091 H   0  0  0  0  0  0  0  0  0  0  0  0
    1.3208    1.9441   -4.6152 H   0  0  0  0  0  0  0  0  0  0  0  0
    3.1743   -0.5127   -4.6323 H   0  0  0  0  0  0  0  0  0  0  0  0
    2.9727    0.6217   -5.9730 H   0  0  0  0  0  0  0  0  0  0  0  0
    3.7009    1.1664   -4.4503 H   0  0  0  0  0  0  0  0  0  0  0  0
    0.1352    0.3286   -6.2252 N   0  0  0  0  0  0  0  0  0  0  0  0
   -0.8524   -0.3987   -6.9878 C   0  0  0  0  0  0  0  0  0  0  0  0
    0.5619    1.1430   -6.6569 H   0  0  0  0  0  0  0  0  0  0  0  0
   -0.3563   -1.1844   -7.5764 H   0  0  0  0  0  0  0  0  0  0  0  0
   -1.5795   -0.8583   -6.3020 H   0  0  0  0  0  0  0  0  0  0  0  0
   -1.3743    0.2928   -7.6657 H   0  0  0  0  0  0  0  0  0  0  0  0
 22 24  2  0  0  0  0
 24 26  1  0  0  0  0
 25 26  2  0  0  0  0
 23 25  1  0  0  0  0
 21 22  1  0  0  0  0
 22 23  1  0  0  0  0
  1  3  1  0  0  0  0
  1  7  1  0  0  0  0
  1  2  2  0  0  0  0
 35 36  1  0  0  0  0
 36 44  1  0  0  0  0
 36 37  2  0  0  0  0
  8  9  1  0  0  0  0
  9 17  1  0  0  0  0
  9 10  2  0  0  0  0
 18 19  1  0  0  0  0
 19 34  1  0  0  0  0
 19 20  2  0  0  0  0
 35 38  1  0  0  0  0
  8 11  1  0  0  0  0
 44 45  1  0  0  0  0
 18 21  1  0  0  0  0
 34 35  1  0  0  0  0
  7  8  1  0  0  0  0
 17 18  1  0  0  0  0
 24 32  1  0  0  0  0
 25 33  1  0  0  0  0
  3  4  1  0  0  0  0
  3  5  1  0  0  0  0
  3  6  1  0  0  0  0
 38 41  1  0  0  0  0
 38 42  1  0  0  0  0
 38 43  1  0  0  0  0
 11 14  1  0  0  0  0
 11 15  1  0  0  0  0
 11 16  1  0  0  0  0
 45 47  1  0  0  0  0
 45 48  1  0  0  0  0
 45 49  1  0  0  0  0
 21 29  1  0  0  0  0
 21 30  1  0  0  0  0
 35 40  1  0  0  0  0
  8 13  1  0  0  0  0
 18 28  1  0  0  0  0
 23 31  1  0  0  0  0
 44 46  1  0  0  0  0
  7 12  1  0  0  0  0
 34 39  1  0  0  0  0
 17 27  1  0  0  0  0
M  END
$$$$

  -OEChem-05262214473D

 49 49  0     1  0  0  0  0  0999 V2000
   -1.5619    0.5658    3.7981 C   0  0  0  0  0  0  0  0  0  0  0  0
   -0.6145   -0.0489    3.3224 O   0  0  0  0  0  0  0  0  0  0  0  0
   -1.9938    0.2834    5.1988 C   0  0  0  0  0  0  0  0  0  0  0  0
   -2.7535   -0.5129    5.2522 H   0  0  0  0  0  0  0  0  0  0  0  0
   -1.1626   -0.0642    5.8331 H   0  0  0  0  0  0  0  0  0  0  0  0
   -2.4318    1.1383    5.7384 H   0  0  0  0  0  0  0  0  0  0  0  0
   -2.3116    1.5383    3.1570 N   0  0  0  0  0  0  0  0  0  0  0  0
   -2.0648    1.9643    1.8046 C   0  0  2  0  0  0  0  0  0  0  0  0
   -0.7298    1.3789    1.3634 C   0  0  0  0  0  0  0  0  0  0  0  0
    0.1423    1.0262    2.1547 O   0  0  0  0  0  0  0  0  0  0  0  0
   -2.0560    3.4811    1.6952 C   0  0  0  0  0  0  0  0  0  0  0  0
   -3.0767    1.9741    3.6688 H   0  0  0  0  0  0  0  0  0  0  0  0
   -2.8689    1.5458    1.1895 H   0  0  0  0  0  0  0  0  0  0  0  0
   -1.2569    3.9183    2.3049 H   0  0  0  0  0  0  0  0  0  0  0  0
   -1.8965    3.8033    0.6609 H   0  0  0  0  0  0  0  0  0  0  0  0
   -3.0062    3.9023    2.0409 H   0  0  0  0  0  0  0  0  0  0  0  0
   -0.6071    1.3358   -0.0200 N   0  0  0  0  0  0  0  0  0  0  0  0
    0.5702    0.8350   -0.6836 C   0  0  2  0  0  0  0  0  0  0  0  0
    0.4951    1.2874   -2.1376 C   0  0  0  0  0  0  0  0  0  0  0  0
   -0.4148    1.9894   -2.5738 O   0  0  0  0  0  0  0  0  0  0  0  0
    0.6733   -0.6925   -0.6055 C   0  0  0  0  0  0  0  0  0  0  0  0
    0.8348   -1.1950    0.8084 C   0  0  0  0  0  0  0  0  0  0  0  0
    2.0089   -1.0919    1.4998 N   0  0  0  0  0  0  0  0  0  0  0  0
   -0.0330   -1.8122    1.6782 C   0  0  0  0  0  0  0  0  0  0  0  0
    1.8065   -1.6413    2.7354 C   0  0  0  0  0  0  0  0  0  0  0  0
    0.5779   -2.0871    2.8761 N   0  0  0  0  0  0  0  0  0  0  0  0
   -1.3903    1.6325   -0.5973 H   0  0  0  0  0  0  0  0  0  0  0  0
    1.4291    1.3167   -0.2018 H   0  0  0  0  0  0  0  0  0  0  0  0
    1.5093   -1.0494   -1.2222 H   0  0  0  0  0  0  0  0  0  0  0  0
   -0.2221   -1.1599   -1.0363 H   0  0  0  0  0  0  0  0  0  0  0  0
    2.8715   -0.6856    1.1620 H   0  0  0  0  0  0  0  0  0  0  0  0
   -1.0672   -2.0736    1.5052 H   0  0  0  0  0  0  0  0  0  0  0  0
    2.5890   -1.6846    3.4796 H   0  0  0  0  0  0  0  0  0  0  0  0
    1.5897    0.8552   -2.8734 N   0  0  0  0  0  0  0  0  0  0  0  0
    1.7780    1.1653   -4.2724 C   0  0  2  0  0  0  0  0  0  0  0  0
    0.4894    0.8215   -5.0078 C   0  0  0  0  0  0  0  0  0  0  0  0
   -0.3368    0.0208   -4.5750 O   0  0  0  0  0  0  0  0  0  0  0  0
    2.9567    0.4010   -4.8548 C   0  0  0  0  0  0  0  0  0  0  0  0
    2.2940    0.2926   -2.4051 H   0  0  0  0  0  0  0  0  0  0  0  0
    1.9587    2.2438   -4.3357 H   0  0  0  0  0  0  0  0  0  0  0  0
    2.7938   -0.6816   -4.8001 H   0  0  0  0  0  0  0  0  0  0  0  0
    3.1156    0.6585   -5.9072 H   0  0  0  0  0  0  0  0  0  0  0  0
    3.8772    0.6267   -4.3057 H   0  0  0  0  0  0  0  0  0  0  0  0
    0.3911    1.4814   -6.2248 N   0  0  0  0  0  0  0  0  0  0  0  0
   -0.7337    1.3120   -7.1148 C   0  0  0  0  0  0  0  0  0  0  0  0
    1.1141    2.1417   -6.4950 H   0  0  0  0  0  0  0  0  0  0  0  0
   -0.5134    0.5119   -7.8368 H   0  0  0  0  0  0  0  0  0  0  0  0
   -1.6262    1.0432   -6.5307 H   0  0  0  0  0  0  0  0  0  0  0  0
   -0.9186    2.2523   -7.6549 H   0  0  0  0  0  0  0  0  0  0  0  0
 22 24  2  0  0  0  0
 24 26  1  0  0  0  0
 25 26  2  0  0  0  0
 23 25  1  0  0  0  0
 21 22  1  0  0  0  0
 22 23  1  0  0  0  0
  1  3  1  0  0  0  0
  1  7  1  0  0  0  0
  1  2  2  0  0  0  0
 35 36  1  0  0  0  0
 36 44  1  0  0  0  0
 36 37  2  0  0  0  0
  8  9  1  0  0  0  0
  9 17  1  0  0  0  0
  9 10  2  0  0  0  0
 18 19  1  0  0  0  0
 19 34  1  0  0  0  0
 19 20  2  0  0  0  0
 35 38  1  0  0  0  0
  8 11  1  0  0  0  0
 44 45  1  0  0  0  0
 18 21  1  0  0  0  0
 34 35  1  0  0  0  0
  7  8  1  0  0  0  0
 17 18  1  0  0  0  0
 24 32  1  0  0  0  0
 25 33  1  0  0  0  0
  3  4  1  0  0  0  0
  3  5  1  0  0  0  0
  3  6  1  0  0  0  0
 38 41  1  0  0  0  0
 38 42  1  0  0  0  0
 38 43  1  0  0  0  0
 11 14  1  0  0  0  0
 11 15  1  0  0  0  0
 11 16  1  0  0  0  0
 45 47  1  0  0  0  0
 45 48  1  0  0  0  0
 45 49  1  0  0  0  0
 21 29  1  0  0  0  0
 21 30  1  0  0  0  0
 35 40  1  0  0  0  0
  8 13  1  0  0  0  0
 18 28  1  0  0  0  0
 23 31  1  0  0  0  0
 44 46  1  0  0  0  0
  7 12  1  0  0  0  0
 34 39  1  0  0  0  0
 17 27  1  0  0  0  0
M  END
$$$$

  -OEChem-05262214473D

 49 49  0     1  0  0  0  0  0999 V2000
   -1.5619    0.5658    3.7981 C   0  0  0  0  0  0  0  0  0  0  0  0
   -0.6145   -0.0489    3.3224 O   0  0  0  0  0  0  0  0  0  0  0  0
   -1.9938    0.2834    5.1988 C   0  0  0  0  0  0  0  0  0  0  0  0
   -2.7535   -0.5129    5.2522 H   0  0  0  0  0  0  0  0  0  0  0  0
   -1.1626   -0.0642    5.8331 H   0  0  0  0  0  0  0  0  0  0  0  0
   -2.4318    1.1383    5.7384 H   0  0  0  0  0  0  0  0  0  0  0  0
   -2.3116    1.5383    3.1570 N   0  0  0  0  0  0  0  0  0  0  0  0
   -2.0648    1.9643    1.8046 C   0  0  2  0  0  0  0  0  0  0  0  0
   -0.7298    1.3789    1.3634 C   0  0  0  0  0  0  0  0  0  0  0  0
    0.1423    1.0262    2.1547 O   0  0  0  0  0  0  0  0  0  0  0  0
   -2.0560    3.4811    1.6952 C   0  0  0  0  0  0  0  0  0  0  0  0
   -3.0767    1.9741    3.6688 H   0  0  0  0  0  0  0  0  0  0  0  0
   -2.8689    1.5458    1.1895 H   0  0  0  0  0  0  0  0  0  0  0  0
   -1.2569    3.9183    2.3049 H   0  0  0  0  0  0  0  0  0  0  0  0
   -1.8965    3.8033    0.6609 H   0  0  0  0  0  0  0  0  0  0  0  0
   -3.0062    3.9023    2.0409 H   0  0  0  0  0  0  0  0  0  0  0  0
   -0.6071    1.3358   -0.0200 N   0  0  0  0  0  0  0  0  0  0  0  0
    0.5702    0.8350   -0.6836 C   0  0  2  0  0  0  0  0  0  0  0  0
    0.4951    1.2874   -2.1376 C   0  0  0  0  0  0  0  0  0  0  0  0
   -0.2451    2.1913   -2.5197 O   0  0  0  0  0  0  0  0  0  0  0  0
    0.6733   -0.6925   -0.6055 C   0  0  0  0  0  0  0  0  0  0  0  0
    0.8348   -1.1950    0.8084 C   0  0  0  0  0  0  0  0  0  0  0  0
    2.0089   -1.0919    1.4998 N   0  0  0  0  0  0  0  0  0  0  0  0
   -0.0330   -1.8122    1.6782 C   0  0  0  0  0  0  0  0  0  0  0  0
    1.8065   -1.6413    2.7354 C   0  0  0  0  0  0  0  0  0  0  0  0
    0.5779   -2.0871    2.8761 N   0  0  0  0  0  0  0  0  0  0  0  0
   -1.3903    1.6325   -0.5973 H   0  0  0  0  0  0  0  0  0  0  0  0
    1.4291    1.3167   -0.2018 H   0  0  0  0  0  0  0  0  0  0  0  0
    1.5093   -1.0494   -1.2222 H   0  0  0  0  0  0  0  0  0  0  0  0
   -0.2221   -1.1599   -1.0363 H   0  0  0  0  0  0  0  0  0  0  0  0
    2.8715   -0.6856    1.1620 H   0  0  0  0  0  0  0  0  0  0  0  0
   -1.0672   -2.0736    1.5052 H   0  0  0  0  0  0  0  0  0  0  0  0
    2.5890   -1.6846    3.4796 H   0  0  0  0  0  0  0  0  0  0  0  0
    1.3884    0.5956   -2.9438 N   0  0  0  0  0  0  0  0  0  0  0  0
    1.5369    0.8452   -4.3596 C   0  0  2  0  0  0  0  0  0  0  0  0
    0.1498    0.8285   -4.9881 C   0  0  0  0  0  0  0  0  0  0  0  0
   -0.8117    0.2583   -4.4765 O   0  0  0  0  0  0  0  0  0  0  0  0
    2.4416   -0.1887   -5.0117 C   0  0  0  0  0  0  0  0  0  0  0  0
    1.9668   -0.1222   -2.5172 H   0  0  0  0  0  0  0  0  0  0  0  0
    1.9722    1.8453   -4.4605 H   0  0  0  0  0  0  0  0  0  0  0  0
    2.0219   -1.1972   -4.9207 H   0  0  0  0  0  0  0  0  0  0  0  0
    2.5761    0.0183   -6.0785 H   0  0  0  0  0  0  0  0  0  0  0  0
    3.4295   -0.1959   -4.5386 H   0  0  0  0  0  0  0  0  0  0  0  0
    0.1219    1.4884   -6.2087 N   0  0  0  0  0  0  0  0  0  0  0  0
   -1.0761    1.5998   -7.0076 C   0  0  0  0  0  0  0  0  0  0  0  0
    0.9618    1.9486   -6.5472 H   0  0  0  0  0  0  0  0  0  0  0  0
   -1.1171    0.7678   -7.7260 H   0  0  0  0  0  0  0  0  0  0  0  0
   -1.9587    1.5618   -6.3521 H   0  0  0  0  0  0  0  0  0  0  0  0
   -1.0654    2.5549   -7.5532 H   0  0  0  0  0  0  0  0  0  0  0  0
 22 24  2  0  0  0  0
 24 26  1  0  0  0  0
 25 26  2  0  0  0  0
 23 25  1  0  0  0  0
 21 22  1  0  0  0  0
 22 23  1  0  0  0  0
  1  3  1  0  0  0  0
  1  7  1  0  0  0  0
  1  2  2  0  0  0  0
 35 36  1  0  0  0  0
 36 44  1  0  0  0  0
 36 37  2  0  0  0  0
  8  9  1  0  0  0  0
  9 17  1  0  0  0  0
  9 10  2  0  0  0  0
 18 19  1  0  0  0  0
 19 34  1  0  0  0  0
 19 20  2  0  0  0  0
 35 38  1  0  0  0  0
  8 11  1  0  0  0  0
 44 45  1  0  0  0  0
 18 21  1  0  0  0  0
 34 35  1  0  0  0  0
  7  8  1  0  0  0  0
 17 18  1  0  0  0  0
 24 32  1  0  0  0  0
 25 33  1  0  0  0  0
  3  4  1  0  0  0  0
  3  5  1  0  0  0  0
  3  6  1  0  0  0  0
 38 41  1  0  0  0  0
 38 42  1  0  0  0  0
 38 43  1  0  0  0  0
 11 14  1  0  0  0  0
 11 15  1  0  0  0  0
 11 16  1  0  0  0  0
 45 47  1  0  0  0  0
 45 48  1  0  0  0  0
 45 49  1  0  0  0  0
 21 29  1  0  0  0  0
 21 30  1  0  0  0  0
 35 40  1  0  0  0  0
  8 13  1  0  0  0  0
 18 28  1  0  0  0  0
 23 31  1  0  0  0  0
 44 46  1  0  0  0  0
  7 12  1  0  0  0  0
 34 39  1  0  0  0  0
 17 27  1  0  0  0  0
M  END
$$$$

  -OEChem-05262214473D

 49 49  0     1  0  0  0  0  0999 V2000
   -1.5619    0.5658    3.7981 C   0  0  0  0  0  0  0  0  0  0  0  0
   -0.6145   -0.0489    3.3224 O   0  0  0  0  0  0  0  0  0  0  0  0
   -1.9938    0.2834    5.1988 C   0  0  0  0  0  0  0  0  0  0  0  0
   -2.7535   -0.5129    5.2522 H   0  0  0  0  0  0  0  0  0  0  0  0
   -1.1626   -0.0642    5.8331 H   0  0  0  0  0  0  0  0  0  0  0  0
   -2.4318    1.1383    5.7384 H   0  0  0  0  0  0  0  0  0  0  0  0
   -2.3116    1.5383    3.1570 N   0  0  0  0  0  0  0  0  0  0  0  0
   -2.0648    1.9643    1.8046 C   0  0  2  0  0  0  0  0  0  0  0  0
   -0.7298    1.3789    1.3634 C   0  0  0  0  0  0  0  0  0  0  0  0
    0.1423    1.0262    2.1547 O   0  0  0  0  0  0  0  0  0  0  0  0
   -2.0560    3.4811    1.6952 C   0  0  0  0  0  0  0  0  0  0  0  0
   -3.0767    1.9741    3.6688 H   0  0  0  0  0  0  0  0  0  0  0  0
   -2.8689    1.5458    1.1895 H   0  0  0  0  0  0  0  0  0  0  0  0
   -1.2569    3.9183    2.3049 H   0  0  0  0  0  0  0  0  0  0  0  0
   -1.8965    3.8033    0.6609 H   0  0  0  0  0  0  0  0  0  0  0  0
   -3.0062    3.9023    2.0409 H   0  0  0  0  0  0  0  0  0  0  0  0
   -0.6071    1.3358   -0.0200 N   0  0  0  0  0  0  0  0  0  0  0  0
    0.5702    0.8350   -0.6836 C   0  0  2  0  0  0  0  0  0  0  0  0
    0.4951    1.2874   -2.1376 C   0  0  0  0  0  0  0  0  0  0  0  0
   -0.0273    2.3451   -2.4831 O   0  0  0  0  0  0  0  0  0  0  0  0
    0.6733   -0.6925   -0.6055 C   0  0  0  0  0  0  0  0  0  0  0  0
    0.8348   -1.1950    0.8084 C   0  0  0  0  0  0  0  0  0  0  0  0
    2.0089   -1.0919    1.4998 N   0  0  0  0  0  0  0  0  0  0  0  0
   -0.0330   -1.8122    1.6782 C   0  0  0  0  0  0  0  0  0  0  0  0
    1.8065   -1.6413    2.7354 C   0  0  0  0  0  0  0  0  0  0  0  0
    0.5779   -2.0871    2.8761 N   0  0  0  0  0  0  0  0  0  0  0  0
   -1.3903    1.6325   -0.5973 H   0  0  0  0  0  0  0  0  0  0  0  0
    1.4291    1.3167   -0.2018 H   0  0  0  0  0  0  0  0  0  0  0  0
    1.5093   -1.0494   -1.2222 H   0  0  0  0  0  0  0  0  0  0  0  0
   -0.2221   -1.1599   -1.0363 H   0  0  0  0  0  0  0  0  0  0  0  0
    2.8715   -0.6856    1.1620 H   0  0  0  0  0  0  0  0  0  0  0  0
   -1.0672   -2.0736    1.5052 H   0  0  0  0  0  0  0  0  0  0  0  0
    2.5890   -1.6846    3.4796 H   0  0  0  0  0  0  0  0  0  0  0  0
    1.1244    0.3937   -2.9930 N   0  0  0  0  0  0  0  0  0  0  0  0
    1.2183    0.5944   -4.4211 C   0  0  2  0  0  0  0  0  0  0  0  0
   -0.1751    0.9193   -4.9431 C   0  0  0  0  0  0  0  0  0  0  0  0
   -1.2041    0.6063   -4.3480 O   0  0  0  0  0  0  0  0  0  0  0  0
    1.7865   -0.6332   -5.1162 C   0  0  0  0  0  0  0  0  0  0  0  0
    1.5398   -0.4436   -2.5952 H   0  0  0  0  0  0  0  0  0  0  0  0
    1.8773    1.4555   -4.5769 H   0  0  0  0  0  0  0  0  0  0  0  0
    1.1397   -1.5062   -4.9713 H   0  0  0  0  0  0  0  0  0  0  0  0
    1.8837   -0.4692   -6.1945 H   0  0  0  0  0  0  0  0  0  0  0  0
    2.7761   -0.8830   -4.7187 H   0  0  0  0  0  0  0  0  0  0  0  0
   -0.1351    1.5619   -6.1726 N   0  0  0  0  0  0  0  0  0  0  0  0
   -1.3276    1.9636   -6.8814 C   0  0  0  0  0  0  0  0  0  0  0  0
    0.7630    1.7989   -6.5835 H   0  0  0  0  0  0  0  0  0  0  0  0
   -1.6285    1.1654   -7.5759 H   0  0  0  0  0  0  0  0  0  0  0  0
   -2.1381    2.1471   -6.1607 H   0  0  0  0  0  0  0  0  0  0  0  0
   -1.1248    2.8847   -7.4475 H   0  0  0  0  0  0  0  0  0  0  0  0
 22 24  2  0  0  0  0
 24 26  1  0  0  0  0
 25 26  2  0  0  0  0
 23 25  1  0  0  0  0
 21 22  1  0  0  0  0
 22 23  1  0  0  0  0
  1  3  1  0  0  0  0
  1  7  1  0  0  0  0
  1  2  2  0  0  0  0
 35 36  1  0  0  0  0
 36 44  1  0  0  0  0
 36 37  2  0  0  0  0
  8  9  1  0  0  0  0
  9 17  1  0  0  0  0
  9 10  2  0  0  0  0
 18 19  1  0  0  0  0
 19 34  1  0  0  0  0
 19 20  2  0  0  0  0
 35 38  1  0  0  0  0
  8 11  1  0  0  0  0
 44 45  1  0  0  0  0
 18 21  1  0  0  0  0
 34 35  1  0  0  0  0
  7  8  1  0  0  0  0
 17 18  1  0  0  0  0
 24 32  1  0  0  0  0
 25 33  1  0  0  0  0
  3  4  1  0  0  0  0
  3  5  1  0  0  0  0
  3  6  1  0  0  0  0
 38 41  1  0  0  0  0
 38 42  1  0  0  0  0
 38 43  1  0  0  0  0
 11 14  1  0  0  0  0
 11 15  1  0  0  0  0
 11 16  1  0  0  0  0
 45 47  1  0  0  0  0
 45 48  1  0  0  0  0
 45 49  1  0  0  0  0
 21 29  1  0  0  0  0
 21 30  1  0  0  0  0
 35 40  1  0  0  0  0
  8 13  1  0  0  0  0
 18 28  1  0  0  0  0
 23 31  1  0  0  0  0
 44 46  1  0  0  0  0
  7 12  1  0  0  0  0
 34 39  1  0  0  0  0
 17 27  1  0  0  0  0
M  END
$$$$

  -OEChem-05262214473D

 49 49  0     1  0  0  0  0  0999 V2000
   -1.5619    0.5658    3.7981 C   0  0  0  0  0  0  0  0  0  0  0  0
   -0.6145   -0.0489    3.3224 O   0  0  0  0  0  0  0  0  0  0  0  0
   -1.9938    0.2834    5.1988 C   0  0  0  0  0  0  0  0  0  0  0  0
   -2.7535   -0.5129    5.2522 H   0  0  0  0  0  0  0  0  0  0  0  0
   -1.1626   -0.0642    5.8331 H   0  0  0  0  0  0  0  0  0  0  0  0
   -2.4318    1.1383    5.7384 H   0  0  0  0  0  0  0  0  0  0  0  0
   -2.3116    1.5383    3.1570 N   0  0  0  0  0  0  0  0  0  0  0  0
   -2.0648    1.9643    1.8046 C   0  0  2  0  0  0  0  0  0  0  0  0
   -0.7298    1.3789    1.3634 C   0  0  0  0  0  0  0  0  0  0  0  0
    0.1423    1.0262    2.1547 O   0  0  0  0  0  0  0  0  0  0  0  0
   -2.0560    3.4811    1.6952 C   0  0  0  0  0  0  0  0  0  0  0  0
   -3.0767    1.9741    3.6688 H   0  0  0  0  0  0  0  0  0  0  0  0
   -2.8689    1.5458    1.1895 H   0  0  0  0  0  0  0  0  0  0  0  0
   -1.2569    3.9183    2.3049 H   0  0  0  0  0  0  0  0  0  0  0  0
   -1.8965    3.8033    0.6609 H   0  0  0  0  0  0  0  0  0  0  0  0
   -3.0062    3.9023    2.0409 H   0  0  0  0  0  0  0  0  0  0  0  0
   -0.6071    1.3358   -0.0200 N   0  0  0  0  0  0  0  0  0  0  0  0
    0.5702    0.8350   -0.6836 C   0  0  2  0  0  0  0  0  0  0  0  0
    0.4951    1.2874   -2.1376 C   0  0  0  0  0  0  0  0  0  0  0  0
    0.2239    2.4403   -2.4664 O   0  0  0  0  0  0  0  0  0  0  0  0
    0.6733   -0.6925   -0.6055 C   0  0  0  0  0  0  0  0  0  0  0  0
    0.8348   -1.1950    0.8084 C   0  0  0  0  0  0  0  0  0  0  0  0
    2.0089   -1.0919    1.4998 N   0  0  0  0  0  0  0  0  0  0  0  0
   -0.0330   -1.8122    1.6782 C   0  0  0  0  0  0  0  0  0  0  0  0
    1.8065   -1.6413    2.7354 C   0  0  0  0  0  0  0  0  0  0  0  0
    0.5779   -2.0871    2.8761 N   0  0  0  0  0  0  0  0  0  0  0  0
   -1.3903    1.6325   -0.5973 H   0  0  0  0  0  0  0  0  0  0  0  0
    1.4291    1.3167   -0.2018 H   0  0  0  0  0  0  0  0  0  0  0  0
    1.5093   -1.0494   -1.2222 H   0  0  0  0  0  0  0  0  0  0  0  0
   -0.2221   -1.1599   -1.0363 H   0  0  0  0  0  0  0  0  0  0  0  0
    2.8715   -0.6856    1.1620 H   0  0  0  0  0  0  0  0  0  0  0  0
   -1.0672   -2.0736    1.5052 H   0  0  0  0  0  0  0  0  0  0  0  0
    2.5890   -1.6846    3.4796 H   0  0  0  0  0  0  0  0  0  0  0  0
    0.8158    0.2632   -3.0177 N   0  0  0  0  0  0  0  0  0  0  0  0
    0.8439    0.4300   -4.4530 C   0  0  2  0  0  0  0  0  0  0  0  0
   -0.4629    1.0878   -4.8758 C   0  0  0  0  0  0  0  0  0  0  0  0
   -1.4875    1.0409   -4.1981 O   0  0  0  0  0  0  0  0  0  0  0  0
    1.0359   -0.9021   -5.1611 C   0  0  0  0  0  0  0  0  0  0  0  0
    1.0420   -0.6496   -2.6336 H   0  0  0  0  0  0  0  0  0  0  0  0
    1.6804    1.1009   -4.6771 H   0  0  0  0  0  0  0  0  0  0  0  0
    0.2075   -1.5876   -4.9485 H   0  0  0  0  0  0  0  0  0  0  0  0
    1.0857   -0.7706   -6.2471 H   0  0  0  0  0  0  0  0  0  0  0  0
    1.9615   -1.3877   -4.8337 H   0  0  0  0  0  0  0  0  0  0  0  0
   -0.3625    1.6967   -6.1189 N   0  0  0  0  0  0  0  0  0  0  0  0
   -1.4711    2.3787   -6.7448 C   0  0  0  0  0  0  0  0  0  0  0  0
    0.5313    1.7030   -6.6014 H   0  0  0  0  0  0  0  0  0  0  0  0
   -2.0128    1.6775   -7.3967 H   0  0  0  0  0  0  0  0  0  0  0  0
   -2.1523    2.7592   -5.9695 H   0  0  0  0  0  0  0  0  0  0  0  0
   -1.0926    3.2193   -7.3450 H   0  0  0  0  0  0  0  0  0  0  0  0
 22 24  2  0  0  0  0
 24 26  1  0  0  0  0
 25 26  2  0  0  0  0
 23 25  1  0  0  0  0
 21 22  1  0  0  0  0
 22 23  1  0  0  0  0
  1  3  1  0  0  0  0
  1  7  1  0  0  0  0
  1  2  2  0  0  0  0
 35 36  1  0  0  0  0
 36 44  1  0  0  0  0
 36 37  2  0  0  0  0
  8  9  1  0  0  0  0
  9 17  1  0  0  0  0
  9 10  2  0  0  0  0
 18 19  1  0  0  0  0
 19 34  1  0  0  0  0
 19 20  2  0  0  0  0
 35 38  1  0  0  0  0
  8 11  1  0  0  0  0
 44 45  1  0  0  0  0
 18 21  1  0  0  0  0
 34 35  1  0  0  0  0
  7  8  1  0  0  0  0
 17 18  1  0  0  0  0
 24 32  1  0  0  0  0
 25 33  1  0  0  0  0
  3  4  1  0  0  0  0
  3  5  1  0  0  0  0
  3  6  1  0  0  0  0
 38 41  1  0  0  0  0
 38 42  1  0  0  0  0
 38 43  1  0  0  0  0
 11 14  1  0  0  0  0
 11 15  1  0  0  0  0
 11 16  1  0  0  0  0
 45 47  1  0  0  0  0
 45 48  1  0  0  0  0
 45 49  1  0  0  0  0
 21 29  1  0  0  0  0
 21 30  1  0  0  0  0
 35 40  1  0  0  0  0
  8 13  1  0  0  0  0
 18 28  1  0  0  0  0
 23 31  1  0  0  0  0
 44 46  1  0  0  0  0
  7 12  1  0  0  0  0
 34 39  1  0  0  0  0
 17 27  1  0  0  0  0
M  END
$$$$

  -OEChem-05262214473D

 49 49  0     1  0  0  0  0  0999 V2000
   -1.5619    0.5658    3.7981 C   0  0  0  0  0  0  0  0  0  0  0  0
   -0.6145   -0.0489    3.3224 O   0  0  0  0  0  0  0  0  0  0  0  0
   -1.9938    0.2834    5.1988 C   0  0  0  0  0  0  0  0  0  0  0  0
   -2.7535   -0.5129    5.2522 H   0  0  0  0  0  0  0  0  0  0  0  0
   -1.1626   -0.0642    5.8331 H   0  0  0  0  0  0  0  0  0  0  0  0
   -2.4318    1.1383    5.7384 H   0  0  0  0  0  0  0  0  0  0  0  0
   -2.3116    1.5383    3.1570 N   0  0  0  0  0  0  0  0  0  0  0  0
   -2.0648    1.9643    1.8046 C   0  0  2  0  0  0  0  0  0  0  0  0
   -0.7298    1.3789    1.3634 C   0  0  0  0  0  0  0  0  0  0  0  0
    0.1423    1.0262    2.1547 O   0  0  0  0  0  0  0  0  0  0  0  0
   -2.0560    3.4811    1.6952 C   0  0  0  0  0  0  0  0  0  0  0  0
   -3.0767    1.9741    3.6688 H   0  0  0  0  0  0  0  0  0  0  0  0
   -2.8689    1.5458    1.1895 H   0  0  0  0  0  0  0  0  0  0  0  0
   -1.2569    3.9183    2.3049 H   0  0  0  0  0  0  0  0  0  0  0  0
   -1.8965    3.8033    0.6609 H   0  0  0  0  0  0  0  0  0  0  0  0
   -3.0062    3.9023    2.0409 H   0  0  0  0  0  0  0  0  0  0  0  0
   -0.6071    1.3358   -0.0200 N   0  0  0  0  0  0  0  0  0  0  0  0
    0.5702    0.8350   -0.6836 C   0  0  2  0  0  0  0  0  0  0  0  0
    0.4951    1.2874   -2.1376 C   0  0  0  0  0  0  0  0  0  0  0  0
    0.4914    2.4706   -2.4708 O   0  0  0  0  0  0  0  0  0  0  0  0
    0.6733   -0.6925   -0.6055 C   0  0  0  0  0  0  0  0  0  0  0  0
    0.8348   -1.1950    0.8084 C   0  0  0  0  0  0  0  0  0  0  0  0
    2.0089   -1.0919    1.4998 N   0  0  0  0  0  0  0  0  0  0  0  0
   -0.0330   -1.8122    1.6782 C   0  0  0  0  0  0  0  0  0  0  0  0
    1.8065   -1.6413    2.7354 C   0  0  0  0  0  0  0  0  0  0  0  0
    0.5779   -2.0871    2.8761 N   0  0  0  0  0  0  0  0  0  0  0  0
   -1.3903    1.6325   -0.5973 H   0  0  0  0  0  0  0  0  0  0  0  0
    1.4291    1.3167   -0.2018 H   0  0  0  0  0  0  0  0  0  0  0  0
    1.5093   -1.0494   -1.2222 H   0  0  0  0  0  0  0  0  0  0  0  0
   -0.2221   -1.1599   -1.0363 H   0  0  0  0  0  0  0  0  0  0  0  0
    2.8715   -0.6856    1.1620 H   0  0  0  0  0  0  0  0  0  0  0  0
   -1.0672   -2.0736    1.5052 H   0  0  0  0  0  0  0  0  0  0  0  0
    2.5890   -1.6846    3.4796 H   0  0  0  0  0  0  0  0  0  0  0  0
    0.4835    0.2130   -3.0161 N   0  0  0  0  0  0  0  0  0  0  0  0
    0.4393    0.3632   -4.4529 C   0  0  2  0  0  0  0  0  0  0  0  0
   -0.6942    1.3225   -4.7908 C   0  0  0  0  0  0  0  0  0  0  0  0
   -1.6424    1.5325   -4.0372 O   0  0  0  0  0  0  0  0  0  0  0  0
    0.2411   -0.9772   -5.1435 C   0  0  0  0  0  0  0  0  0  0  0  0
    0.5073   -0.7262   -2.6299 H   0  0  0  0  0  0  0  0  0  0  0  0
    1.3951    0.8056   -4.7542 H   0  0  0  0  0  0  0  0  0  0  0  0
   -0.7114   -1.4358   -4.8539 H   0  0  0  0  0  0  0  0  0  0  0  0
    0.2364   -0.8654   -6.2328 H   0  0  0  0  0  0  0  0  0  0  0  0
    1.0413   -1.6756   -4.8758 H   0  0  0  0  0  0  0  0  0  0  0  0
   -0.5446    1.8838   -6.0513 N   0  0  0  0  0  0  0  0  0  0  0  0
   -1.4967    2.8168   -6.6072 C   0  0  0  0  0  0  0  0  0  0  0  0
    0.2825    1.6673   -6.5997 H   0  0  0  0  0  0  0  0  0  0  0  0
   -2.2438    2.2694   -7.2006 H   0  0  0  0  0  0  0  0  0  0  0  0
   -2.0002    3.3564   -5.7915 H   0  0  0  0  0  0  0  0  0  0  0  0
   -0.9710    3.5358   -7.2528 H   0  0  0  0  0  0  0  0  0  0  0  0
 22 24  2  0  0  0  0
 24 26  1  0  0  0  0
 25 26  2  0  0  0  0
 23 25  1  0  0  0  0
 21 22  1  0  0  0  0
 22 23  1  0  0  0  0
  1  3  1  0  0  0  0
  1  7  1  0  0  0  0
  1  2  2  0  0  0  0
 35 36  1  0  0  0  0
 36 44  1  0  0  0  0
 36 37  2  0  0  0  0
  8  9  1  0  0  0  0
  9 17  1  0  0  0  0
  9 10  2  0  0  0  0
 18 19  1  0  0  0  0
 19 34  1  0  0  0  0
 19 20  2  0  0  0  0
 35 38  1  0  0  0  0
  8 11  1  0  0  0  0
 44 45  1  0  0  0  0
 18 21  1  0  0  0  0
 34 35  1  0  0  0  0
  7  8  1  0  0  0  0
 17 18  1  0  0  0  0
 24 32  1  0  0  0  0
 25 33  1  0  0  0  0
  3  4  1  0  0  0  0
  3  5  1  0  0  0  0
  3  6  1  0  0  0  0
 38 41  1  0  0  0  0
 38 42  1  0  0  0  0
 38 43  1  0  0  0  0
 11 14  1  0  0  0  0
 11 15  1  0  0  0  0
 11 16  1  0  0  0  0
 45 47  1  0  0  0  0
 45 48  1  0  0  0  0
 45 49  1  0  0  0  0
 21 29  1  0  0  0  0
 21 30  1  0  0  0  0
 35 40  1  0  0  0  0
  8 13  1  0  0  0  0
 18 28  1  0  0  0  0
 23 31  1  0  0  0  0
 44 46  1  0  0  0  0
  7 12  1  0  0  0  0
 34 39  1  0  0  0  0
 17 27  1  0  0  0  0
M  END
$$$$

  -OEChem-05262214473D

 49 49  0     1  0  0  0  0  0999 V2000
   -1.5619    0.5658    3.7981 C   0  0  0  0  0  0  0  0  0  0  0  0
   -0.6145   -0.0489    3.3224 O   0  0  0  0  0  0  0  0  0  0  0  0
   -1.9938    0.2834    5.1988 C   0  0  0  0  0  0  0  0  0  0  0  0
   -2.7535   -0.5129    5.2522 H   0  0  0  0  0  0  0  0  0  0  0  0
   -1.1626   -0.0642    5.8331 H   0  0  0  0  0  0  0  0  0  0  0  0
   -2.4318    1.1383    5.7384 H   0  0  0  0  0  0  0  0  0  0  0  0
   -2.3116    1.5383    3.1570 N   0  0  0  0  0  0  0  0  0  0  0  0
   -2.0648    1.9643    1.8046 C   0  0  2  0  0  0  0  0  0  0  0  0
   -0.7298    1.3789    1.3634 C   0  0  0  0  0  0  0  0  0  0  0  0
    0.1423    1.0262    2.1547 O   0  0  0  0  0  0  0  0  0  0  0  0
   -2.0560    3.4811    1.6952 C   0  0  0  0  0  0  0  0  0  0  0  0
   -3.0767    1.9741    3.6688 H   0  0  0  0  0  0  0  0  0  0  0  0
   -2.8689    1.5458    1.1895 H   0  0  0  0  0  0  0  0  0  0  0  0
   -1.2569    3.9183    2.3049 H   0  0  0  0  0  0  0  0  0  0  0  0
   -1.8965    3.8033    0.6609 H   0  0  0  0  0  0  0  0  0  0  0  0
   -3.0062    3.9023    2.0409 H   0  0  0  0  0  0  0  0  0  0  0  0
   -0.6071    1.3358   -0.0200 N   0  0  0  0  0  0  0  0  0  0  0  0
    0.5702    0.8350   -0.6836 C   0  0  2  0  0  0  0  0  0  0  0  0
    0.4951    1.2874   -2.1376 C   0  0  0  0  0  0  0  0  0  0  0  0
    0.7568    2.4337   -2.4960 O   0  0  0  0  0  0  0  0  0  0  0  0
    0.6733   -0.6925   -0.6055 C   0  0  0  0  0  0  0  0  0  0  0  0
    0.8348   -1.1950    0.8084 C   0  0  0  0  0  0  0  0  0  0  0  0
    2.0089   -1.0919    1.4998 N   0  0  0  0  0  0  0  0  0  0  0  0
   -0.0330   -1.8122    1.6782 C   0  0  0  0  0  0  0  0  0  0  0  0
    1.8065   -1.6413    2.7354 C   0  0  0  0  0  0  0  0  0  0  0  0
    0.5779   -2.0871    2.8761 N   0  0  0  0  0  0  0  0  0  0  0  0
   -1.3903    1.6325   -0.5973 H   0  0  0  0  0  0  0  0  0  0  0  0
    1.4291    1.3167   -0.2018 H   0  0  0  0  0  0  0  0  0  0  0  0
    1.5093   -1.0494   -1.2222 H   0  0  0  0  0  0  0  0  0  0  0  0
   -0.2221   -1.1599   -1.0363 H   0  0  0  0  0  0  0  0  0  0  0  0
    2.8715   -0.6856    1.1620 H   0  0  0  0  0  0  0  0  0  0  0  0
   -1.0672   -2.0736    1.5052 H   0  0  0  0  0  0  0  0  0  0  0  0
    2.5890   -1.6846    3.4796 H   0  0  0  0  0  0  0  0  0  0  0  0
    0.1504    0.2465   -2.9885 N   0  0  0  0  0  0  0  0  0  0  0  0
    0.0320    0.3985   -4.4209 C   0  0  2  0  0  0  0  0  0  0  0  0
   -0.8532    1.6074   -4.6940 C   0  0  0  0  0  0  0  0  0  0  0  0
   -1.6583    2.0477   -3.8760 O   0  0  0  0  0  0  0  0  0  0  0  0
   -0.5438   -0.8533   -5.0644 C   0  0  0  0  0  0  0  0  0  0  0  0
   -0.0277   -0.6681   -2.5842 H   0  0  0  0  0  0  0  0  0  0  0  0
    1.0406    0.5899   -4.8030 H   0  0  0  0  0  0  0  0  0  0  0  0
   -1.5542   -1.0612   -4.6938 H   0  0  0  0  0  0  0  0  0  0  0  0
   -0.6062   -0.7472   -6.1525 H   0  0  0  0  0  0  0  0  0  0  0  0
    0.0781   -1.7271   -4.8421 H   0  0  0  0  0  0  0  0  0  0  0  0
   -0.6693    2.1103   -5.9743 N   0  0  0  0  0  0  0  0  0  0  0  0
   -1.4027    3.2481   -6.4779 C   0  0  0  0  0  0  0  0  0  0  0  0
    0.0334    1.6943   -6.5784 H   0  0  0  0  0  0  0  0  0  0  0  0
   -2.3058    2.9006   -7.0010 H   0  0  0  0  0  0  0  0  0  0  0  0
   -1.6922    3.8980   -5.6389 H   0  0  0  0  0  0  0  0  0  0  0  0
   -0.7684    3.8127   -7.1771 H   0  0  0  0  0  0  0  0  0  0  0  0
 22 24  2  0  0  0  0
 24 26  1  0  0  0  0
 25 26  2  0  0  0  0
 23 25  1  0  0  0  0
 21 22  1  0  0  0  0
 22 23  1  0  0  0  0
  1  3  1  0  0  0  0
  1  7  1  0  0  0  0
  1  2  2  0  0  0  0
 35 36  1  0  0  0  0
 36 44  1  0  0  0  0
 36 37  2  0  0  0  0
  8  9  1  0  0  0  0
  9 17  1  0  0  0  0
  9 10  2  0  0  0  0
 18 19  1  0  0  0  0
 19 34  1  0  0  0  0
 19 20  2  0  0  0  0
 35 38  1  0  0  0  0
  8 11  1  0  0  0  0
 44 45  1  0  0  0  0
 18 21  1  0  0  0  0
 34 35  1  0  0  0  0
  7  8  1  0  0  0  0
 17 18  1  0  0  0  0
 24 32  1  0  0  0  0
 25 33  1  0  0  0  0
  3  4  1  0  0  0  0
  3  5  1  0  0  0  0
  3  6  1  0  0  0  0
 38 41  1  0  0  0  0
 38 42  1  0  0  0  0
 38 43  1  0  0  0  0
 11 14  1  0  0  0  0
 11 15  1  0  0  0  0
 11 16  1  0  0  0  0
 45 47  1  0  0  0  0
 45 48  1  0  0  0  0
 45 49  1  0  0  0  0
 21 29  1  0  0  0  0
 21 30  1  0  0  0  0
 35 40  1  0  0  0  0
  8 13  1  0  0  0  0
 18 28  1  0  0  0  0
 23 31  1  0  0  0  0
 44 46  1  0  0  0  0
  7 12  1  0  0  0  0
 34 39  1  0  0  0  0
 17 27  1  0  0  0  0
M  END
$$$$

  -OEChem-05262214473D

 49 49  0     1  0  0  0  0  0999 V2000
   -1.5619    0.5658    3.7981 C   0  0  0  0  0  0  0  0  0  0  0  0
   -0.6145   -0.0489    3.3224 O   0  0  0  0  0  0  0  0  0  0  0  0
   -1.9938    0.2834    5.1988 C   0  0  0  0  0  0  0  0  0  0  0  0
   -2.7535   -0.5129    5.2522 H   0  0  0  0  0  0  0  0  0  0  0  0
   -1.1626   -0.0642    5.8331 H   0  0  0  0  0  0  0  0  0  0  0  0
   -2.4318    1.1383    5.7384 H   0  0  0  0  0  0  0  0  0  0  0  0
   -2.3116    1.5383    3.1570 N   0  0  0  0  0  0  0  0  0  0  0  0
   -2.0648    1.9643    1.8046 C   0  0  2  0  0  0  0  0  0  0  0  0
   -0.7298    1.3789    1.3634 C   0  0  0  0  0  0  0  0  0  0  0  0
    0.1423    1.0262    2.1547 O   0  0  0  0  0  0  0  0  0  0  0  0
   -2.0560    3.4811    1.6952 C   0  0  0  0  0  0  0  0  0  0  0  0
   -3.0767    1.9741    3.6688 H   0  0  0  0  0  0  0  0  0  0  0  0
   -2.8689    1.5458    1.1895 H   0  0  0  0  0  0  0  0  0  0  0  0
   -1.2569    3.9183    2.3049 H   0  0  0  0  0  0  0  0  0  0  0  0
   -1.8965    3.8033    0.6609 H   0  0  0  0  0  0  0  0  0  0  0  0
   -3.0062    3.9023    2.0409 H   0  0  0  0  0  0  0  0  0  0  0  0
   -0.6071    1.3358   -0.0200 N   0  0  0  0  0  0  0  0  0  0  0  0
    0.5702    0.8350   -0.6836 C   0  0  2  0  0  0  0  0  0  0  0  0
    0.4951    1.2874   -2.1376 C   0  0  0  0  0  0  0  0  0  0  0  0
    1.0022    2.3323   -2.5402 O   0  0  0  0  0  0  0  0  0  0  0  0
    0.6733   -0.6925   -0.6055 C   0  0  0  0  0  0  0  0  0  0  0  0
    0.8348   -1.1950    0.8084 C   0  0  0  0  0  0  0  0  0  0  0  0
    2.0089   -1.0919    1.4998 N   0  0  0  0  0  0  0  0  0  0  0  0
   -0.0330   -1.8122    1.6782 C   0  0  0  0  0  0  0  0  0  0  0  0
    1.8065   -1.6413    2.7354 C   0  0  0  0  0  0  0  0  0  0  0  0
    0.5779   -2.0871    2.8761 N   0  0  0  0  0  0  0  0  0  0  0  0
   -1.3903    1.6325   -0.5973 H   0  0  0  0  0  0  0  0  0  0  0  0
    1.4291    1.3167   -0.2018 H   0  0  0  0  0  0  0  0  0  0  0  0
    1.5093   -1.0494   -1.2222 H   0  0  0  0  0  0  0  0  0  0  0  0
   -0.2221   -1.1599   -1.0363 H   0  0  0  0  0  0  0  0  0  0  0  0
    2.8715   -0.6856    1.1620 H   0  0  0  0  0  0  0  0  0  0  0  0
   -1.0672   -2.0736    1.5052 H   0  0  0  0  0  0  0  0  0  0  0  0
    2.5890   -1.6846    3.4796 H   0  0  0  0  0  0  0  0  0  0  0  0
   -0.1610    0.3615   -2.9366 N   0  0  0  0  0  0  0  0  0  0  0  0
   -0.3503    0.5336   -4.3591 C   0  0  2  0  0  0  0  0  0  0  0  0
   -0.9290    1.9230   -4.5918 C   0  0  0  0  0  0  0  0  0  0  0  0
   -1.5341    2.5513   -3.7257 O   0  0  0  0  0  0  0  0  0  0  0  0
   -1.2653   -0.5389   -4.9293 C   0  0  0  0  0  0  0  0  0  0  0  0
   -0.5267   -0.4794   -2.4997 H   0  0  0  0  0  0  0  0  0  0  0  0
    0.6413    0.4684   -4.8202 H   0  0  0  0  0  0  0  0  0  0  0  0
   -2.2635   -0.4893   -4.4792 H   0  0  0  0  0  0  0  0  0  0  0  0
   -1.3848   -0.4241   -6.0117 H   0  0  0  0  0  0  0  0  0  0  0  0
   -0.8623   -1.5387   -4.7349 H   0  0  0  0  0  0  0  0  0  0  0  0
   -0.7278    2.3608   -5.8934 N   0  0  0  0  0  0  0  0  0  0  0  0
   -1.1955    3.6431   -6.3656 C   0  0  0  0  0  0  0  0  0  0  0  0
   -0.1989    1.7821   -6.5391 H   0  0  0  0  0  0  0  0  0  0  0  0
   -2.1945    3.5282   -6.8114 H   0  0  0  0  0  0  0  0  0  0  0  0
   -1.2493    4.3470   -5.5220 H   0  0  0  0  0  0  0  0  0  0  0  0
   -0.4985    4.0312   -7.1231 H   0  0  0  0  0  0  0  0  0  0  0  0
 22 24  2  0  0  0  0
 24 26  1  0  0  0  0
 25 26  2  0  0  0  0
 23 25  1  0  0  0  0
 21 22  1  0  0  0  0
 22 23  1  0  0  0  0
  1  3  1  0  0  0  0
  1  7  1  0  0  0  0
  1  2  2  0  0  0  0
 35 36  1  0  0  0  0
 36 44  1  0  0  0  0
 36 37  2  0  0  0  0
  8  9  1  0  0  0  0
  9 17  1  0  0  0  0
  9 10  2  0  0  0  0
 18 19  1  0  0  0  0
 19 34  1  0  0  0  0
 19 20  2  0  0  0  0
 35 38  1  0  0  0  0
  8 11  1  0  0  0  0
 44 45  1  0  0  0  0
 18 21  1  0  0  0  0
 34 35  1  0  0  0  0
  7  8  1  0  0  0  0
 17 18  1  0  0  0  0
 24 32  1  0  0  0  0
 25 33  1  0  0  0  0
  3  4  1  0  0  0  0
  3  5  1  0  0  0  0
  3  6  1  0  0  0  0
 38 41  1  0  0  0  0
 38 42  1  0  0  0  0
 38 43  1  0  0  0  0
 11 14  1  0  0  0  0
 11 15  1  0  0  0  0
 11 16  1  0  0  0  0
 45 47  1  0  0  0  0
 45 48  1  0  0  0  0
 45 49  1  0  0  0  0
 21 29  1  0  0  0  0
 21 30  1  0  0  0  0
 35 40  1  0  0  0  0
  8 13  1  0  0  0  0
 18 28  1  0  0  0  0
 23 31  1  0  0  0  0
 44 46  1  0  0  0  0
  7 12  1  0  0  0  0
 34 39  1  0  0  0  0
 17 27  1  0  0  0  0
M  END
$$$$

  -OEChem-05262214473D

 49 49  0     1  0  0  0  0  0999 V2000
   -1.5619    0.5658    3.7981 C   0  0  0  0  0  0  0  0  0  0  0  0
   -0.6145   -0.0489    3.3224 O   0  0  0  0  0  0  0  0  0  0  0  0
   -1.9938    0.2834    5.1988 C   0  0  0  0  0  0  0  0  0  0  0  0
   -2.7535   -0.5129    5.2522 H   0  0  0  0  0  0  0  0  0  0  0  0
   -1.1626   -0.0642    5.8331 H   0  0  0  0  0  0  0  0  0  0  0  0
   -2.4318    1.1383    5.7384 H   0  0  0  0  0  0  0  0  0  0  0  0
   -2.3116    1.5383    3.1570 N   0  0  0  0  0  0  0  0  0  0  0  0
   -2.0648    1.9643    1.8046 C   0  0  2  0  0  0  0  0  0  0  0  0
   -0.7298    1.3789    1.3634 C   0  0  0  0  0  0  0  0  0  0  0  0
    0.1423    1.0262    2.1547 O   0  0  0  0  0  0  0  0  0  0  0  0
   -2.0560    3.4811    1.6952 C   0  0  0  0  0  0  0  0  0  0  0  0
   -3.0767    1.9741    3.6688 H   0  0  0  0  0  0  0  0  0  0  0  0
   -2.8689    1.5458    1.1895 H   0  0  0  0  0  0  0  0  0  0  0  0
   -1.2569    3.9183    2.3049 H   0  0  0  0  0  0  0  0  0  0  0  0
   -1.8965    3.8033    0.6609 H   0  0  0  0  0  0  0  0  0  0  0  0
   -3.0062    3.9023    2.0409 H   0  0  0  0  0  0  0  0  0  0  0  0
   -0.6071    1.3358   -0.0200 N   0  0  0  0  0  0  0  0  0  0  0  0
    0.5702    0.8350   -0.6836 C   0  0  2  0  0  0  0  0  0  0  0  0
    0.4951    1.2874   -2.1376 C   0  0  0  0  0  0  0  0  0  0  0  0
    1.2107    2.1732   -2.6005 O   0  0  0  0  0  0  0  0  0  0  0  0
    0.6733   -0.6925   -0.6055 C   0  0  0  0  0  0  0  0  0  0  0  0
    0.8348   -1.1950    0.8084 C   0  0  0  0  0  0  0  0  0  0  0  0
    2.0089   -1.0919    1.4998 N   0  0  0  0  0  0  0  0  0  0  0  0
   -0.0330   -1.8122    1.6782 C   0  0  0  0  0  0  0  0  0  0  0  0
    1.8065   -1.6413    2.7354 C   0  0  0  0  0  0  0  0  0  0  0  0
    0.5779   -2.0871    2.8761 N   0  0  0  0  0  0  0  0  0  0  0  0
   -1.3903    1.6325   -0.5973 H   0  0  0  0  0  0  0  0  0  0  0  0
    1.4291    1.3167   -0.2018 H   0  0  0  0  0  0  0  0  0  0  0  0
    1.5093   -1.0494   -1.2222 H   0  0  0  0  0  0  0  0  0  0  0  0
   -0.2221   -1.1599   -1.0363 H   0  0  0  0  0  0  0  0  0  0  0  0
    2.8715   -0.6856    1.1620 H   0  0  0  0  0  0  0  0  0  0  0  0
   -1.0672   -2.0736    1.5052 H   0  0  0  0  0  0  0  0  0  0  0  0
    2.5890   -1.6846    3.4796 H   0  0  0  0  0  0  0  0  0  0  0  0
   -0.4295    0.5501   -2.8641 N   0  0  0  0  0  0  0  0  0  0  0  0
   -0.6814    0.7592   -4.2718 C   0  0  2  0  0  0  0  0  0  0  0  0
   -0.9165    2.2479   -4.4914 C   0  0  0  0  0  0  0  0  0  0  0  0
   -1.2784    3.0090   -3.5965 O   0  0  0  0  0  0  0  0  0  0  0  0
   -1.8742   -0.0554   -4.7474 C   0  0  0  0  0  0  0  0  0  0  0  0
   -0.9556   -0.1729   -2.3822 H   0  0  0  0  0  0  0  0  0  0  0  0
    0.2242    0.4494   -4.8046 H   0  0  0  0  0  0  0  0  0  0  0  0
   -2.7910    0.2409   -4.2248 H   0  0  0  0  0  0  0  0  0  0  0  0
   -2.0462    0.0821   -5.8201 H   0  0  0  0  0  0  0  0  0  0  0  0
   -1.7160   -1.1232   -4.5615 H   0  0  0  0  0  0  0  0  0  0  0  0
   -0.7163    2.6183   -5.8138 N   0  0  0  0  0  0  0  0  0  0  0  0
   -0.8892    3.9750   -6.2782 C   0  0  0  0  0  0  0  0  0  0  0  0
   -0.3985    1.9247   -6.4844 H   0  0  0  0  0  0  0  0  0  0  0  0
   -1.9176    4.1093   -6.6449 H   0  0  0  0  0  0  0  0  0  0  0  0
   -0.7017    4.6729   -5.4489 H   0  0  0  0  0  0  0  0  0  0  0  0
   -0.1798    4.1762   -7.0944 H   0  0  0  0  0  0  0  0  0  0  0  0
 22 24  2  0  0  0  0
 24 26  1  0  0  0  0
 25 26  2  0  0  0  0
 23 25  1  0  0  0  0
 21 22  1  0  0  0  0
 22 23  1  0  0  0  0
  1  3  1  0  0  0  0
  1  7  1  0  0  0  0
  1  2  2  0  0  0  0
 35 36  1  0  0  0  0
 36 44  1  0  0  0  0
 36 37  2  0  0  0  0
  8  9  1  0  0  0  0
  9 17  1  0  0  0  0
  9 10  2  0  0  0  0
 18 19  1  0  0  0  0
 19 34  1  0  0  0  0
 19 20  2  0  0  0  0
 35 38  1  0  0  0  0
  8 11  1  0  0  0  0
 44 45  1  0  0  0  0
 18 21  1  0  0  0  0
 34 35  1  0  0  0  0
  7  8  1  0  0  0  0
 17 18  1  0  0  0  0
 24 32  1  0  0  0  0
 25 33  1  0  0  0  0
  3  4  1  0  0  0  0
  3  5  1  0  0  0  0
  3  6  1  0  0  0  0
 38 41  1  0  0  0  0
 38 42  1  0  0  0  0
 38 43  1  0  0  0  0
 11 14  1  0  0  0  0
 11 15  1  0  0  0  0
 11 16  1  0  0  0  0
 45 47  1  0  0  0  0
 45 48  1  0  0  0  0
 45 49  1  0  0  0  0
 21 29  1  0  0  0  0
 21 30  1  0  0  0  0
 35 40  1  0  0  0  0
  8 13  1  0  0  0  0
 18 28  1  0  0  0  0
 23 31  1  0  0  0  0
 44 46  1  0  0  0  0
  7 12  1  0  0  0  0
 34 39  1  0  0  0  0
 17 27  1  0  0  0  0
M  END
$$$$

  -OEChem-05262214473D

 49 49  0     1  0  0  0  0  0999 V2000
   -1.5619    0.5658    3.7981 C   0  0  0  0  0  0  0  0  0  0  0  0
   -0.6145   -0.0489    3.3224 O   0  0  0  0  0  0  0  0  0  0  0  0
   -1.9938    0.2834    5.1988 C   0  0  0  0  0  0  0  0  0  0  0  0
   -2.7535   -0.5129    5.2522 H   0  0  0  0  0  0  0  0  0  0  0  0
   -1.1626   -0.0642    5.8331 H   0  0  0  0  0  0  0  0  0  0  0  0
   -2.4318    1.1383    5.7384 H   0  0  0  0  0  0  0  0  0  0  0  0
   -2.3116    1.5383    3.1570 N   0  0  0  0  0  0  0  0  0  0  0  0
   -2.0648    1.9643    1.8046 C   0  0  2  0  0  0  0  0  0  0  0  0
   -0.7298    1.3789    1.3634 C   0  0  0  0  0  0  0  0  0  0  0  0
    0.1423    1.0262    2.1547 O   0  0  0  0  0  0  0  0  0  0  0  0
   -2.0560    3.4811    1.6952 C   0  0  0  0  0  0  0  0  0  0  0  0
   -3.0767    1.9741    3.6688 H   0  0  0  0  0  0  0  0  0  0  0  0
   -2.8689    1.5458    1.1895 H   0  0  0  0  0  0  0  0  0  0  0  0
   -1.2569    3.9183    2.3049 H   0  0  0  0  0  0  0  0  0  0  0  0
   -1.8965    3.8033    0.6609 H   0  0  0  0  0  0  0  0  0  0  0  0
   -3.0062    3.9023    2.0409 H   0  0  0  0  0  0  0  0  0  0  0  0
   -0.6071    1.3358   -0.0200 N   0  0  0  0  0  0  0  0  0  0  0  0
    0.5702    0.8350   -0.6836 C   0  0  2  0  0  0  0  0  0  0  0  0
    0.4951    1.2874   -2.1376 C   0  0  0  0  0  0  0  0  0  0  0  0
    1.3683    1.9672   -2.6727 O   0  0  0  0  0  0  0  0  0  0  0  0
    0.6733   -0.6925   -0.6055 C   0  0  0  0  0  0  0  0  0  0  0  0
    0.8348   -1.1950    0.8084 C   0  0  0  0  0  0  0  0  0  0  0  0
    2.0089   -1.0919    1.4998 N   0  0  0  0  0  0  0  0  0  0  0  0
   -0.0330   -1.8122    1.6782 C   0  0  0  0  0  0  0  0  0  0  0  0
    1.8065   -1.6413    2.7354 C   0  0  0  0  0  0  0  0  0  0  0  0
    0.5779   -2.0871    2.8761 N   0  0  0  0  0  0  0  0  0  0  0  0
   -1.3903    1.6325   -0.5973 H   0  0  0  0  0  0  0  0  0  0  0  0
    1.4291    1.3167   -0.2018 H   0  0  0  0  0  0  0  0  0  0  0  0
    1.5093   -1.0494   -1.2222 H   0  0  0  0  0  0  0  0  0  0  0  0
   -0.2221   -1.1599   -1.0363 H   0  0  0  0  0  0  0  0  0  0  0  0
    2.8715   -0.6856    1.1620 H   0  0  0  0  0  0  0  0  0  0  0  0
   -1.0672   -2.0736    1.5052 H   0  0  0  0  0  0  0  0  0  0  0  0
    2.5890   -1.6846    3.4796 H   0  0  0  0  0  0  0  0  0  0  0  0
   -0.6367    0.7994   -2.7758 N   0  0  0  0  0  0  0  0  0  0  0  0
   -0.9389    1.0600   -4.1649 C   0  0  2  0  0  0  0  0  0  0  0  0
   -0.8165    2.5599   -4.3995 C   0  0  0  0  0  0  0  0  0  0  0  0
   -0.9084    3.3896   -3.4972 O   0  0  0  0  0  0  0  0  0  0  0  0
   -2.3291    0.5643   -4.5311 C   0  0  0  0  0  0  0  0  0  0  0  0
   -1.2852    0.2305   -2.2397 H   0  0  0  0  0  0  0  0  0  0  0  0
   -0.1821    0.5342   -4.7572 H   0  0  0  0  0  0  0  0  0  0  0  0
   -3.1007    1.0797   -3.9477 H   0  0  0  0  0  0  0  0  0  0  0  0
   -2.5455    0.7367   -5.5906 H   0  0  0  0  0  0  0  0  0  0  0  0
   -2.4247   -0.5089   -4.3338 H   0  0  0  0  0  0  0  0  0  0  0  0
   -0.6356    2.8652   -5.7412 N   0  0  0  0  0  0  0  0  0  0  0  0
   -0.5048    4.2210   -6.2214 C   0  0  0  0  0  0  0  0  0  0  0  0
   -0.5520    2.1125   -6.4181 H   0  0  0  0  0  0  0  0  0  0  0  0
   -1.4939    4.6044   -6.5127 H   0  0  0  0  0  0  0  0  0  0  0  0
   -0.0867    4.8535   -5.4245 H   0  0  0  0  0  0  0  0  0  0  0  0
    0.1661    4.2381   -7.0930 H   0  0  0  0  0  0  0  0  0  0  0  0
 22 24  2  0  0  0  0
 24 26  1  0  0  0  0
 25 26  2  0  0  0  0
 23 25  1  0  0  0  0
 21 22  1  0  0  0  0
 22 23  1  0  0  0  0
  1  3  1  0  0  0  0
  1  7  1  0  0  0  0
  1  2  2  0  0  0  0
 35 36  1  0  0  0  0
 36 44  1  0  0  0  0
 36 37  2  0  0  0  0
  8  9  1  0  0  0  0
  9 17  1  0  0  0  0
  9 10  2  0  0  0  0
 18 19  1  0  0  0  0
 19 34  1  0  0  0  0
 19 20  2  0  0  0  0
 35 38  1  0  0  0  0
  8 11  1  0  0  0  0
 44 45  1  0  0  0  0
 18 21  1  0  0  0  0
 34 35  1  0  0  0  0
  7  8  1  0  0  0  0
 17 18  1  0  0  0  0
 24 32  1  0  0  0  0
 25 33  1  0  0  0  0
  3  4  1  0  0  0  0
  3  5  1  0  0  0  0
  3  6  1  0  0  0  0
 38 41  1  0  0  0  0
 38 42  1  0  0  0  0
 38 43  1  0  0  0  0
 11 14  1  0  0  0  0
 11 15  1  0  0  0  0
 11 16  1  0  0  0  0
 45 47  1  0  0  0  0
 45 48  1  0  0  0  0
 45 49  1  0  0  0  0
 21 29  1  0  0  0  0
 21 30  1  0  0  0  0
 35 40  1  0  0  0  0
  8 13  1  0  0  0  0
 18 28  1  0  0  0  0
 23 31  1  0  0  0  0
 44 46  1  0  0  0  0
  7 12  1  0  0  0  0
 34 39  1  0  0  0  0
 17 27  1  0  0  0  0
M  END
$$$$

  -OEChem-05262214473D

 49 49  0     1  0  0  0  0  0999 V2000
   -1.5619    0.5658    3.7981 C   0  0  0  0  0  0  0  0  0  0  0  0
   -0.6145   -0.0489    3.3224 O   0  0  0  0  0  0  0  0  0  0  0  0
   -1.9938    0.2834    5.1988 C   0  0  0  0  0  0  0  0  0  0  0  0
   -2.7535   -0.5129    5.2522 H   0  0  0  0  0  0  0  0  0  0  0  0
   -1.1626   -0.0642    5.8331 H   0  0  0  0  0  0  0  0  0  0  0  0
   -2.4318    1.1383    5.7384 H   0  0  0  0  0  0  0  0  0  0  0  0
   -2.3116    1.5383    3.1570 N   0  0  0  0  0  0  0  0  0  0  0  0
   -2.0648    1.9643    1.8046 C   0  0  2  0  0  0  0  0  0  0  0  0
   -0.7298    1.3789    1.3634 C   0  0  0  0  0  0  0  0  0  0  0  0
    0.1423    1.0262    2.1547 O   0  0  0  0  0  0  0  0  0  0  0  0
   -2.0560    3.4811    1.6952 C   0  0  0  0  0  0  0  0  0  0  0  0
   -3.0767    1.9741    3.6688 H   0  0  0  0  0  0  0  0  0  0  0  0
   -2.8689    1.5458    1.1895 H   0  0  0  0  0  0  0  0  0  0  0  0
   -1.2569    3.9183    2.3049 H   0  0  0  0  0  0  0  0  0  0  0  0
   -1.8965    3.8033    0.6609 H   0  0  0  0  0  0  0  0  0  0  0  0
   -3.0062    3.9023    2.0409 H   0  0  0  0  0  0  0  0  0  0  0  0
   -0.6071    1.3358   -0.0200 N   0  0  0  0  0  0  0  0  0  0  0  0
    0.5702    0.8350   -0.6836 C   0  0  2  0  0  0  0  0  0  0  0  0
    0.4951    1.2874   -2.1376 C   0  0  0  0  0  0  0  0  0  0  0  0
    1.4641    1.7285   -2.7520 O   0  0  0  0  0  0  0  0  0  0  0  0
    0.6733   -0.6925   -0.6055 C   0  0  0  0  0  0  0  0  0  0  0  0
    0.8348   -1.1950    0.8084 C   0  0  0  0  0  0  0  0  0  0  0  0
    2.0089   -1.0919    1.4998 N   0  0  0  0  0  0  0  0  0  0  0  0
   -0.0330   -1.8122    1.6782 C   0  0  0  0  0  0  0  0  0  0  0  0
    1.8065   -1.6413    2.7354 C   0  0  0  0  0  0  0  0  0  0  0  0
    0.5779   -2.0871    2.8761 N   0  0  0  0  0  0  0  0  0  0  0  0
   -1.3903    1.6325   -0.5973 H   0  0  0  0  0  0  0  0  0  0  0  0
    1.4291    1.3167   -0.2018 H   0  0  0  0  0  0  0  0  0  0  0  0
    1.5093   -1.0494   -1.2222 H   0  0  0  0  0  0  0  0  0  0  0  0
   -0.2221   -1.1599   -1.0363 H   0  0  0  0  0  0  0  0  0  0  0  0
    2.8715   -0.6856    1.1620 H   0  0  0  0  0  0  0  0  0  0  0  0
   -1.0672   -2.0736    1.5052 H   0  0  0  0  0  0  0  0  0  0  0  0
    2.5890   -1.6846    3.4796 H   0  0  0  0  0  0  0  0  0  0  0  0
   -0.7684    1.0925   -2.6778 N   0  0  0  0  0  0  0  0  0  0  0  0
   -1.1051    1.4155   -4.0457 C   0  0  2  0  0  0  0  0  0  0  0  0
   -0.6358    2.8377   -4.3223 C   0  0  0  0  0  0  0  0  0  0  0  0
   -0.4495    3.6672   -3.4345 O   0  0  0  0  0  0  0  0  0  0  0  0
   -2.5989    1.2778   -4.2952 C   0  0  0  0  0  0  0  0  0  0  0  0
   -1.4930    0.7033   -2.0818 H   0  0  0  0  0  0  0  0  0  0  0  0
   -0.5501    0.7170   -4.6814 H   0  0  0  0  0  0  0  0  0  0  0  0
   -3.1716    1.9700   -3.6671 H   0  0  0  0  0  0  0  0  0  0  0  0
   -2.8486    1.4951   -5.3390 H   0  0  0  0  0  0  0  0  0  0  0  0
   -2.9402    0.2623   -4.0672 H   0  0  0  0  0  0  0  0  0  0  0  0
   -0.4910    3.0847   -5.6803 N   0  0  0  0  0  0  0  0  0  0  0  0
   -0.0684    4.3645   -6.1993 C   0  0  0  0  0  0  0  0  0  0  0  0
   -0.6488    2.3326   -6.3446 H   0  0  0  0  0  0  0  0  0  0  0  0
   -0.9522    4.9797   -6.4239 H   0  0  0  0  0  0  0  0  0  0  0  0
    0.5538    4.8764   -5.4504 H   0  0  0  0  0  0  0  0  0  0  0  0
    0.5156    4.2124   -7.1190 H   0  0  0  0  0  0  0  0  0  0  0  0
 22 24  2  0  0  0  0
 24 26  1  0  0  0  0
 25 26  2  0  0  0  0
 23 25  1  0  0  0  0
 21 22  1  0  0  0  0
 22 23  1  0  0  0  0
  1  3  1  0  0  0  0
  1  7  1  0  0  0  0
  1  2  2  0  0  0  0
 35 36  1  0  0  0  0
 36 44  1  0  0  0  0
 36 37  2  0  0  0  0
  8  9  1  0  0  0  0
  9 17  1  0  0  0  0
  9 10  2  0  0  0  0
 18 19  1  0  0  0  0
 19 34  1  0  0  0  0
 19 20  2  0  0  0  0
 35 38  1  0  0  0  0
  8 11  1  0  0  0  0
 44 45  1  0  0  0  0
 18 21  1  0  0  0  0
 34 35  1  0  0  0  0
  7  8  1  0  0  0  0
 17 18  1  0  0  0  0
 24 32  1  0  0  0  0
 25 33  1  0  0  0  0
  3  4  1  0  0  0  0
  3  5  1  0  0  0  0
  3  6  1  0  0  0  0
 38 41  1  0  0  0  0
 38 42  1  0  0  0  0
 38 43  1  0  0  0  0
 11 14  1  0  0  0  0
 11 15  1  0  0  0  0
 11 16  1  0  0  0  0
 45 47  1  0  0  0  0
 45 48  1  0  0  0  0
 45 49  1  0  0  0  0
 21 29  1  0  0  0  0
 21 30  1  0  0  0  0
 35 40  1  0  0  0  0
  8 13  1  0  0  0  0
 18 28  1  0  0  0  0
 23 31  1  0  0  0  0
 44 46  1  0  0  0  0
  7 12  1  0  0  0  0
 34 39  1  0  0  0  0
 17 27  1  0  0  0  0
M  END
$$$$

  -OEChem-05262214473D

 49 49  0     1  0  0  0  0  0999 V2000
   -1.5619    0.5658    3.7981 C   0  0  0  0  0  0  0  0  0  0  0  0
   -0.6145   -0.0489    3.3224 O   0  0  0  0  0  0  0  0  0  0  0  0
   -1.9938    0.2834    5.1988 C   0  0  0  0  0  0  0  0  0  0  0  0
   -2.7535   -0.5129    5.2522 H   0  0  0  0  0  0  0  0  0  0  0  0
   -1.1626   -0.0642    5.8331 H   0  0  0  0  0  0  0  0  0  0  0  0
   -2.4318    1.1383    5.7384 H   0  0  0  0  0  0  0  0  0  0  0  0
   -2.3116    1.5383    3.1570 N   0  0  0  0  0  0  0  0  0  0  0  0
   -2.0648    1.9643    1.8046 C   0  0  2  0  0  0  0  0  0  0  0  0
   -0.7298    1.3789    1.3634 C   0  0  0  0  0  0  0  0  0  0  0  0
    0.1423    1.0262    2.1547 O   0  0  0  0  0  0  0  0  0  0  0  0
   -2.0560    3.4811    1.6952 C   0  0  0  0  0  0  0  0  0  0  0  0
   -3.0767    1.9741    3.6688 H   0  0  0  0  0  0  0  0  0  0  0  0
   -2.8689    1.5458    1.1895 H   0  0  0  0  0  0  0  0  0  0  0  0
   -1.2569    3.9183    2.3049 H   0  0  0  0  0  0  0  0  0  0  0  0
   -1.8965    3.8033    0.6609 H   0  0  0  0  0  0  0  0  0  0  0  0
   -3.0062    3.9023    2.0409 H   0  0  0  0  0  0  0  0  0  0  0  0
   -0.6071    1.3358   -0.0200 N   0  0  0  0  0  0  0  0  0  0  0  0
    0.5702    0.8350   -0.6836 C   0  0  2  0  0  0  0  0  0  0  0  0
    0.4951    1.2874   -2.1376 C   0  0  0  0  0  0  0  0  0  0  0  0
    1.4916    1.4732   -2.8328 O   0  0  0  0  0  0  0  0  0  0  0  0
    0.6733   -0.6925   -0.6055 C   0  0  0  0  0  0  0  0  0  0  0  0
    0.8348   -1.1950    0.8084 C   0  0  0  0  0  0  0  0  0  0  0  0
    2.0089   -1.0919    1.4998 N   0  0  0  0  0  0  0  0  0  0  0  0
   -0.0330   -1.8122    1.6782 C   0  0  0  0  0  0  0  0  0  0  0  0
    1.8065   -1.6413    2.7354 C   0  0  0  0  0  0  0  0  0  0  0  0
    0.5779   -2.0871    2.8761 N   0  0  0  0  0  0  0  0  0  0  0  0
   -1.3903    1.6325   -0.5973 H   0  0  0  0  0  0  0  0  0  0  0  0
    1.4291    1.3167   -0.2018 H   0  0  0  0  0  0  0  0  0  0  0  0
    1.5093   -1.0494   -1.2222 H   0  0  0  0  0  0  0  0  0  0  0  0
   -0.2221   -1.1599   -1.0363 H   0  0  0  0  0  0  0  0  0  0  0  0
    2.8715   -0.6856    1.1620 H   0  0  0  0  0  0  0  0  0  0  0  0
   -1.0672   -2.0736    1.5052 H   0  0  0  0  0  0  0  0  0  0  0  0
    2.5890   -1.6846    3.4796 H   0  0  0  0  0  0  0  0  0  0  0  0
   -0.8159    1.4094   -2.5768 N   0  0  0  0  0  0  0  0  0  0  0  0
   -1.1688    1.8014   -3.9223 C   0  0  2  0  0  0  0  0  0  0  0  0
   -0.3868    3.0625   -4.2652 C   0  0  0  0  0  0  0  0  0  0  0  0
    0.0672    3.8229   -3.4127 O   0  0  0  0  0  0  0  0  0  0  0  0
   -2.6653    2.0367   -4.0556 C   0  0  0  0  0  0  0  0  0  0  0  0
   -1.5650    1.2134   -1.9194 H   0  0  0  0  0  0  0  0  0  0  0  0
   -0.8545    0.9853   -4.5822 H   0  0  0  0  0  0  0  0  0  0  0  0
   -2.9988    2.8509   -3.4019 H   0  0  0  0  0  0  0  0  0  0  0  0
   -2.9348    2.3058   -5.0823 H   0  0  0  0  0  0  0  0  0  0  0  0
   -3.2272    1.1378   -3.7800 H   0  0  0  0  0  0  0  0  0  0  0  0
   -0.2926    3.2617   -5.6355 N   0  0  0  0  0  0  0  0  0  0  0  0
    0.3903    4.3957   -6.2133 C   0  0  0  0  0  0  0  0  0  0  0  0
   -0.6823    2.5700   -6.2690 H   0  0  0  0  0  0  0  0  0  0  0  0
   -0.3296    5.2096   -6.3845 H   0  0  0  0  0  0  0  0  0  0  0  0
    1.1761    4.7401   -5.5249 H   0  0  0  0  0  0  0  0  0  0  0  0
    0.8448    4.1010   -7.1707 H   0  0  0  0  0  0  0  0  0  0  0  0
 22 24  2  0  0  0  0
 24 26  1  0  0  0  0
 25 26  2  0  0  0  0
 23 25  1  0  0  0  0
 21 22  1  0  0  0  0
 22 23  1  0  0  0  0
  1  3  1  0  0  0  0
  1  7  1  0  0  0  0
  1  2  2  0  0  0  0
 35 36  1  0  0  0  0
 36 44  1  0  0  0  0
 36 37  2  0  0  0  0
  8  9  1  0  0  0  0
  9 17  1  0  0  0  0
  9 10  2  0  0  0  0
 18 19  1  0  0  0  0
 19 34  1  0  0  0  0
 19 20  2  0  0  0  0
 35 38  1  0  0  0  0
  8 11  1  0  0  0  0
 44 45  1  0  0  0  0
 18 21  1  0  0  0  0
 34 35  1  0  0  0  0
  7  8  1  0  0  0  0
 17 18  1  0  0  0  0
 24 32  1  0  0  0  0
 25 33  1  0  0  0  0
  3  4  1  0  0  0  0
  3  5  1  0  0  0  0
  3  6  1  0  0  0  0
 38 41  1  0  0  0  0
 38 42  1  0  0  0  0
 38 43  1  0  0  0  0
 11 14  1  0  0  0  0
 11 15  1  0  0  0  0
 11 16  1  0  0  0  0
 45 47  1  0  0  0  0
 45 48  1  0  0  0  0
 45 49  1  0  0  0  0
 21 29  1  0  0  0  0
 21 30  1  0  0  0  0
 35 40  1  0  0  0  0
  8 13  1  0  0  0  0
 18 28  1  0  0  0  0
 23 31  1  0  0  0  0
 44 46  1  0  0  0  0
  7 12  1  0  0  0  0
 34 39  1  0  0  0  0
 17 27  1  0  0  0  0
M  END
$$$$

  -OEChem-05262214473D

 49 49  0     1  0  0  0  0  0999 V2000
   -1.5619    0.5658    3.7981 C   0  0  0  0  0  0  0  0  0  0  0  0
   -0.6145   -0.0489    3.3224 O   0  0  0  0  0  0  0  0  0  0  0  0
   -1.9938    0.2834    5.1988 C   0  0  0  0  0  0  0  0  0  0  0  0
   -2.7535   -0.5129    5.2522 H   0  0  0  0  0  0  0  0  0  0  0  0
   -1.1626   -0.0642    5.8331 H   0  0  0  0  0  0  0  0  0  0  0  0
   -2.4318    1.1383    5.7384 H   0  0  0  0  0  0  0  0  0  0  0  0
   -2.3116    1.5383    3.1570 N   0  0  0  0  0  0  0  0  0  0  0  0
   -2.0648    1.9643    1.8046 C   0  0  2  0  0  0  0  0  0  0  0  0
   -0.7298    1.3789    1.3634 C   0  0  0  0  0  0  0  0  0  0  0  0
    0.1423    1.0262    2.1547 O   0  0  0  0  0  0  0  0  0  0  0  0
   -2.0560    3.4811    1.6952 C   0  0  0  0  0  0  0  0  0  0  0  0
   -3.0767    1.9741    3.6688 H   0  0  0  0  0  0  0  0  0  0  0  0
   -2.8689    1.5458    1.1895 H   0  0  0  0  0  0  0  0  0  0  0  0
   -1.2569    3.9183    2.3049 H   0  0  0  0  0  0  0  0  0  0  0  0
   -1.8965    3.8033    0.6609 H   0  0  0  0  0  0  0  0  0  0  0  0
   -3.0062    3.9023    2.0409 H   0  0  0  0  0  0  0  0  0  0  0  0
   -0.6071    1.3358   -0.0200 N   0  0  0  0  0  0  0  0  0  0  0  0
    0.5702    0.8350   -0.6836 C   0  0  2  0  0  0  0  0  0  0  0  0
    0.4951    1.2874   -2.1376 C   0  0  0  0  0  0  0  0  0  0  0  0
    1.4490    1.2188   -2.9098 O   0  0  0  0  0  0  0  0  0  0  0  0
    0.6733   -0.6925   -0.6055 C   0  0  0  0  0  0  0  0  0  0  0  0
    0.8348   -1.1950    0.8084 C   0  0  0  0  0  0  0  0  0  0  0  0
    2.0089   -1.0919    1.4998 N   0  0  0  0  0  0  0  0  0  0  0  0
   -0.0330   -1.8122    1.6782 C   0  0  0  0  0  0  0  0  0  0  0  0
    1.8065   -1.6413    2.7354 C   0  0  0  0  0  0  0  0  0  0  0  0
    0.5779   -2.0871    2.8761 N   0  0  0  0  0  0  0  0  0  0  0  0
   -1.3903    1.6325   -0.5973 H   0  0  0  0  0  0  0  0  0  0  0  0
    1.4291    1.3167   -0.2018 H   0  0  0  0  0  0  0  0  0  0  0  0
    1.5093   -1.0494   -1.2222 H   0  0  0  0  0  0  0  0  0  0  0  0
   -0.2221   -1.1599   -1.0363 H   0  0  0  0  0  0  0  0  0  0  0  0
    2.8715   -0.6856    1.1620 H   0  0  0  0  0  0  0  0  0  0  0  0
   -1.0672   -2.0736    1.5052 H   0  0  0  0  0  0  0  0  0  0  0  0
    2.5890   -1.6846    3.4796 H   0  0  0  0  0  0  0  0  0  0  0  0
   -0.7757    1.7285   -2.4795 N   0  0  0  0  0  0  0  0  0  0  0  0
   -1.1256    2.1914   -3.8032 C   0  0  2  0  0  0  0  0  0  0  0  0
   -0.0864    3.2188   -4.2321 C   0  0  0  0  0  0  0  0  0  0  0  0
    0.6063    3.8460   -3.4333 O   0  0  0  0  0  0  0  0  0  0  0  0
   -2.5237    2.7891   -3.8288 C   0  0  0  0  0  0  0  0  0  0  0  0
   -1.4961    1.7259   -1.7634 H   0  0  0  0  0  0  0  0  0  0  0  0
   -1.0747    1.3210   -4.4664 H   0  0  0  0  0  0  0  0  0  0  0  0
   -2.5940    3.6625   -3.1702 H   0  0  0  0  0  0  0  0  0  0  0  0
   -2.7982    3.1133   -4.8380 H   0  0  0  0  0  0  0  0  0  0  0  0
   -3.2664    2.0580   -3.4916 H   0  0  0  0  0  0  0  0  0  0  0  0
   -0.0537    3.3844   -5.6097 N   0  0  0  0  0  0  0  0  0  0  0  0
    0.8399    4.3124   -6.2624 C   0  0  0  0  0  0  0  0  0  0  0  0
   -0.6503    2.8086   -6.1964 H   0  0  0  0  0  0  0  0  0  0  0  0
    0.3316    5.2786   -6.3971 H   0  0  0  0  0  0  0  0  0  0  0  0
    1.7379    4.4539   -5.6430 H   0  0  0  0  0  0  0  0  0  0  0  0
    1.1314    3.9115   -7.2444 H   0  0  0  0  0  0  0  0  0  0  0  0
 22 24  2  0  0  0  0
 24 26  1  0  0  0  0
 25 26  2  0  0  0  0
 23 25  1  0  0  0  0
 21 22  1  0  0  0  0
 22 23  1  0  0  0  0
  1  3  1  0  0  0  0
  1  7  1  0  0  0  0
  1  2  2  0  0  0  0
 35 36  1  0  0  0  0
 36 44  1  0  0  0  0
 36 37  2  0  0  0  0
  8  9  1  0  0  0  0
  9 17  1  0  0  0  0
  9 10  2  0  0  0  0
 18 19  1  0  0  0  0
 19 34  1  0  0  0  0
 19 20  2  0  0  0  0
 35 38  1  0  0  0  0
  8 11  1  0  0  0  0
 44 45  1  0  0  0  0
 18 21  1  0  0  0  0
 34 35  1  0  0  0  0
  7  8  1  0  0  0  0
 17 18  1  0  0  0  0
 24 32  1  0  0  0  0
 25 33  1  0  0  0  0
  3  4  1  0  0  0  0
  3  5  1  0  0  0  0
  3  6  1  0  0  0  0
 38 41  1  0  0  0  0
 38 42  1  0  0  0  0
 38 43  1  0  0  0  0
 11 14  1  0  0  0  0
 11 15  1  0  0  0  0
 11 16  1  0  0  0  0
 45 47  1  0  0  0  0
 45 48  1  0  0  0  0
 45 49  1  0  0  0  0
 21 29  1  0  0  0  0
 21 30  1  0  0  0  0
 35 40  1  0  0  0  0
  8 13  1  0  0  0  0
 18 28  1  0  0  0  0
 23 31  1  0  0  0  0
 44 46  1  0  0  0  0
  7 12  1  0  0  0  0
 34 39  1  0  0  0  0
 17 27  1  0  0  0  0
M  END
$$$$

  -OEChem-05262214473D

 49 49  0     1  0  0  0  0  0999 V2000
   -1.5619    0.5658    3.7981 C   0  0  0  0  0  0  0  0  0  0  0  0
   -0.6145   -0.0489    3.3224 O   0  0  0  0  0  0  0  0  0  0  0  0
   -1.9938    0.2834    5.1988 C   0  0  0  0  0  0  0  0  0  0  0  0
   -2.7535   -0.5129    5.2522 H   0  0  0  0  0  0  0  0  0  0  0  0
   -1.1626   -0.0642    5.8331 H   0  0  0  0  0  0  0  0  0  0  0  0
   -2.4318    1.1383    5.7384 H   0  0  0  0  0  0  0  0  0  0  0  0
   -2.3116    1.5383    3.1570 N   0  0  0  0  0  0  0  0  0  0  0  0
   -2.0648    1.9643    1.8046 C   0  0  2  0  0  0  0  0  0  0  0  0
   -0.7298    1.3789    1.3634 C   0  0  0  0  0  0  0  0  0  0  0  0
    0.1423    1.0262    2.1547 O   0  0  0  0  0  0  0  0  0  0  0  0
   -2.0560    3.4811    1.6952 C   0  0  0  0  0  0  0  0  0  0  0  0
   -3.0767    1.9741    3.6688 H   0  0  0  0  0  0  0  0  0  0  0  0
   -2.8689    1.5458    1.1895 H   0  0  0  0  0  0  0  0  0  0  0  0
   -1.2569    3.9183    2.3049 H   0  0  0  0  0  0  0  0  0  0  0  0
   -1.8965    3.8033    0.6609 H   0  0  0  0  0  0  0  0  0  0  0  0
   -3.0062    3.9023    2.0409 H   0  0  0  0  0  0  0  0  0  0  0  0
   -0.6071    1.3358   -0.0200 N   0  0  0  0  0  0  0  0  0  0  0  0
    0.5702    0.8350   -0.6836 C   0  0  2  0  0  0  0  0  0  0  0  0
    0.4951    1.2874   -2.1376 C   0  0  0  0  0  0  0  0  0  0  0  0
    1.3391    0.9826   -2.9776 O   0  0  0  0  0  0  0  0  0  0  0  0
    0.6733   -0.6925   -0.6055 C   0  0  0  0  0  0  0  0  0  0  0  0
    0.8348   -1.1950    0.8084 C   0  0  0  0  0  0  0  0  0  0  0  0
    2.0089   -1.0919    1.4998 N   0  0  0  0  0  0  0  0  0  0  0  0
   -0.0330   -1.8122    1.6782 C   0  0  0  0  0  0  0  0  0  0  0  0
    1.8065   -1.6413    2.7354 C   0  0  0  0  0  0  0  0  0  0  0  0
    0.5779   -2.0871    2.8761 N   0  0  0  0  0  0  0  0  0  0  0  0
   -1.3903    1.6325   -0.5973 H   0  0  0  0  0  0  0  0  0  0  0  0
    1.4291    1.3167   -0.2018 H   0  0  0  0  0  0  0  0  0  0  0  0
    1.5093   -1.0494   -1.2222 H   0  0  0  0  0  0  0  0  0  0  0  0
   -0.2221   -1.1599   -1.0363 H   0  0  0  0  0  0  0  0  0  0  0  0
    2.8715   -0.6856    1.1620 H   0  0  0  0  0  0  0  0  0  0  0  0
   -1.0672   -2.0736    1.5052 H   0  0  0  0  0  0  0  0  0  0  0  0
    2.5890   -1.6846    3.4796 H   0  0  0  0  0  0  0  0  0  0  0  0
   -0.6507    2.0281   -2.3928 N   0  0  0  0  0  0  0  0  0  0  0  0
   -0.9784    2.5590   -3.6964 C   0  0  2  0  0  0  0  0  0  0  0  0
    0.2449    3.2962   -4.2251 C   0  0  0  0  0  0  0  0  0  0  0  0
    1.1312    3.7350   -3.4950 O   0  0  0  0  0  0  0  0  0  0  0  0
   -2.1838    3.4839   -3.6301 C   0  0  0  0  0  0  0  0  0  0  0  0
   -1.2911    2.2059   -1.6247 H   0  0  0  0  0  0  0  0  0  0  0  0
   -1.1957    1.7010   -4.3419 H   0  0  0  0  0  0  0  0  0  0  0  0
   -1.9849    4.3496   -2.9879 H   0  0  0  0  0  0  0  0  0  0  0  0
   -2.4482    3.8627   -4.6229 H   0  0  0  0  0  0  0  0  0  0  0  0
   -3.0548    2.9602   -3.2218 H   0  0  0  0  0  0  0  0  0  0  0  0
    0.2093    3.4442   -5.6046 N   0  0  0  0  0  0  0  0  0  0  0  0
    1.2500    4.1204   -6.3433 C   0  0  0  0  0  0  0  0  0  0  0  0
   -0.5549    3.0320   -6.1318 H   0  0  0  0  0  0  0  0  0  0  0  0
    0.9864    5.1818   -6.4610 H   0  0  0  0  0  0  0  0  0  0  0  0
    2.2008    4.0373   -5.7965 H   0  0  0  0  0  0  0  0  0  0  0  0
    1.3557    3.6568   -7.3353 H   0  0  0  0  0  0  0  0  0  0  0  0
 22 24  2  0  0  0  0
 24 26  1  0  0  0  0
 25 26  2  0  0  0  0
 23 25  1  0  0  0  0
 21 22  1  0  0  0  0
 22 23  1  0  0  0  0
  1  3  1  0  0  0  0
  1  7  1  0  0  0  0
  1  2  2  0  0  0  0
 35 36  1  0  0  0  0
 36 44  1  0  0  0  0
 36 37  2  0  0  0  0
  8  9  1  0  0  0  0
  9 17  1  0  0  0  0
  9 10  2  0  0  0  0
 18 19  1  0  0  0  0
 19 34  1  0  0  0  0
 19 20  2  0  0  0  0
 35 38  1  0  0  0  0
  8 11  1  0  0  0  0
 44 45  1  0  0  0  0
 18 21  1  0  0  0  0
 34 35  1  0  0  0  0
  7  8  1  0  0  0  0
 17 18  1  0  0  0  0
 24 32  1  0  0  0  0
 25 33  1  0  0  0  0
  3  4  1  0  0  0  0
  3  5  1  0  0  0  0
  3  6  1  0  0  0  0
 38 41  1  0  0  0  0
 38 42  1  0  0  0  0
 38 43  1  0  0  0  0
 11 14  1  0  0  0  0
 11 15  1  0  0  0  0
 11 16  1  0  0  0  0
 45 47  1  0  0  0  0
 45 48  1  0  0  0  0
 45 49  1  0  0  0  0
 21 29  1  0  0  0  0
 21 30  1  0  0  0  0
 35 40  1  0  0  0  0
  8 13  1  0  0  0  0
 18 28  1  0  0  0  0
 23 31  1  0  0  0  0
 44 46  1  0  0  0  0
  7 12  1  0  0  0  0
 34 39  1  0  0  0  0
 17 27  1  0  0  0  0
M  END
$$$$

  -OEChem-05262214473D

 49 49  0     1  0  0  0  0  0999 V2000
   -1.5619    0.5658    3.7981 C   0  0  0  0  0  0  0  0  0  0  0  0
   -0.6145   -0.0489    3.3224 O   0  0  0  0  0  0  0  0  0  0  0  0
   -1.9938    0.2834    5.1988 C   0  0  0  0  0  0  0  0  0  0  0  0
   -2.7535   -0.5129    5.2522 H   0  0  0  0  0  0  0  0  0  0  0  0
   -1.1626   -0.0642    5.8331 H   0  0  0  0  0  0  0  0  0  0  0  0
   -2.4318    1.1383    5.7384 H   0  0  0  0  0  0  0  0  0  0  0  0
   -2.3116    1.5383    3.1570 N   0  0  0  0  0  0  0  0  0  0  0  0
   -2.0648    1.9643    1.8046 C   0  0  2  0  0  0  0  0  0  0  0  0
   -0.7298    1.3789    1.3634 C   0  0  0  0  0  0  0  0  0  0  0  0
    0.1423    1.0262    2.1547 O   0  0  0  0  0  0  0  0  0  0  0  0
   -2.0560    3.4811    1.6952 C   0  0  0  0  0  0  0  0  0  0  0  0
   -3.0767    1.9741    3.6688 H   0  0  0  0  0  0  0  0  0  0  0  0
   -2.8689    1.5458    1.1895 H   0  0  0  0  0  0  0  0  0  0  0  0
   -1.2569    3.9183    2.3049 H   0  0  0  0  0  0  0  0  0  0  0  0
   -1.8965    3.8033    0.6609 H   0  0  0  0  0  0  0  0  0  0  0  0
   -3.0062    3.9023    2.0409 H   0  0  0  0  0  0  0  0  0  0  0  0
   -0.6071    1.3358   -0.0200 N   0  0  0  0  0  0  0  0  0  0  0  0
    0.5702    0.8350   -0.6836 C   0  0  2  0  0  0  0  0  0  0  0  0
    0.4951    1.2874   -2.1376 C   0  0  0  0  0  0  0  0  0  0  0  0
    1.1695    0.7808   -3.0317 O   0  0  0  0  0  0  0  0  0  0  0  0
    0.6733   -0.6925   -0.6055 C   0  0  0  0  0  0  0  0  0  0  0  0
    0.8348   -1.1950    0.8084 C   0  0  0  0  0  0  0  0  0  0  0  0
    2.0089   -1.0919    1.4998 N   0  0  0  0  0  0  0  0  0  0  0  0
   -0.0330   -1.8122    1.6782 C   0  0  0  0  0  0  0  0  0  0  0  0
    1.8065   -1.6413    2.7354 C   0  0  0  0  0  0  0  0  0  0  0  0
    0.5779   -2.0871    2.8761 N   0  0  0  0  0  0  0  0  0  0  0  0
   -1.3903    1.6325   -0.5973 H   0  0  0  0  0  0  0  0  0  0  0  0
    1.4291    1.3167   -0.2018 H   0  0  0  0  0  0  0  0  0  0  0  0
    1.5093   -1.0494   -1.2222 H   0  0  0  0  0  0  0  0  0  0  0  0
   -0.2221   -1.1599   -1.0363 H   0  0  0  0  0  0  0  0  0  0  0  0
    2.8715   -0.6856    1.1620 H   0  0  0  0  0  0  0  0  0  0  0  0
   -1.0672   -2.0736    1.5052 H   0  0  0  0  0  0  0  0  0  0  0  0
    2.5890   -1.6846    3.4796 H   0  0  0  0  0  0  0  0  0  0  0  0
   -0.4493    2.2876   -2.3224 N   0  0  0  0  0  0  0  0  0  0  0  0
   -0.7373    2.8791   -3.6093 C   0  0  2  0  0  0  0  0  0  0  0  0
    0.5846    3.2892   -4.2448 C   0  0  0  0  0  0  0  0  0  0  0  0
    1.6060    3.4974   -3.5934 O   0  0  0  0  0  0  0  0  0  0  0  0
   -1.6687    4.0736   -3.4732 C   0  0  0  0  0  0  0  0  0  0  0  0
   -0.9639    2.6207   -1.5125 H   0  0  0  0  0  0  0  0  0  0  0  0
   -1.2092    2.0995   -4.2172 H   0  0  0  0  0  0  0  0  0  0  0  0
   -1.2130    4.8652   -2.8673 H   0  0  0  0  0  0  0  0  0  0  0  0
   -1.9087    4.5030   -4.4515 H   0  0  0  0  0  0  0  0  0  0  0  0
   -2.6071    3.7829   -2.9889 H   0  0  0  0  0  0  0  0  0  0  0  0
    0.4784    3.4372   -5.6207 N   0  0  0  0  0  0  0  0  0  0  0  0
    1.5924    3.8326   -6.4506 C   0  0  0  0  0  0  0  0  0  0  0  0
   -0.4026    3.2251   -6.0796 H   0  0  0  0  0  0  0  0  0  0  0  0
    1.5900    4.9259   -6.5718 H   0  0  0  0  0  0  0  0  0  0  0  0
    2.5333    3.5187   -5.9751 H   0  0  0  0  0  0  0  0  0  0  0  0
    1.5026    3.3542   -7.4370 H   0  0  0  0  0  0  0  0  0  0  0  0
 22 24  2  0  0  0  0
 24 26  1  0  0  0  0
 25 26  2  0  0  0  0
 23 25  1  0  0  0  0
 21 22  1  0  0  0  0
 22 23  1  0  0  0  0
  1  3  1  0  0  0  0
  1  7  1  0  0  0  0
  1  2  2  0  0  0  0
 35 36  1  0  0  0  0
 36 44  1  0  0  0  0
 36 37  2  0  0  0  0
  8  9  1  0  0  0  0
  9 17  1  0  0  0  0
  9 10  2  0  0  0  0
 18 19  1  0  0  0  0
 19 34  1  0  0  0  0
 19 20  2  0  0  0  0
 35 38  1  0  0  0  0
  8 11  1  0  0  0  0
 44 45  1  0  0  0  0
 18 21  1  0  0  0  0
 34 35  1  0  0  0  0
  7  8  1  0  0  0  0
 17 18  1  0  0  0  0
 24 32  1  0  0  0  0
 25 33  1  0  0  0  0
  3  4  1  0  0  0  0
  3  5  1  0  0  0  0
  3  6  1  0  0  0  0
 38 41  1  0  0  0  0
 38 42  1  0  0  0  0
 38 43  1  0  0  0  0
 11 14  1  0  0  0  0
 11 15  1  0  0  0  0
 11 16  1  0  0  0  0
 45 47  1  0  0  0  0
 45 48  1  0  0  0  0
 45 49  1  0  0  0  0
 21 29  1  0  0  0  0
 21 30  1  0  0  0  0
 35 40  1  0  0  0  0
  8 13  1  0  0  0  0
 18 28  1  0  0  0  0
 23 31  1  0  0  0  0
 44 46  1  0  0  0  0
  7 12  1  0  0  0  0
 34 39  1  0  0  0  0
 17 27  1  0  0  0  0
M  END
$$$$

  -OEChem-05262214473D

 49 49  0     1  0  0  0  0  0999 V2000
   -1.5619    0.5658    3.7981 C   0  0  0  0  0  0  0  0  0  0  0  0
   -0.6145   -0.0489    3.3224 O   0  0  0  0  0  0  0  0  0  0  0  0
   -1.9938    0.2834    5.1988 C   0  0  0  0  0  0  0  0  0  0  0  0
   -2.7535   -0.5129    5.2522 H   0  0  0  0  0  0  0  0  0  0  0  0
   -1.1626   -0.0642    5.8331 H   0  0  0  0  0  0  0  0  0  0  0  0
   -2.4318    1.1383    5.7384 H   0  0  0  0  0  0  0  0  0  0  0  0
   -2.3116    1.5383    3.1570 N   0  0  0  0  0  0  0  0  0  0  0  0
   -2.0648    1.9643    1.8046 C   0  0  2  0  0  0  0  0  0  0  0  0
   -0.7298    1.3789    1.3634 C   0  0  0  0  0  0  0  0  0  0  0  0
    0.1423    1.0262    2.1547 O   0  0  0  0  0  0  0  0  0  0  0  0
   -2.0560    3.4811    1.6952 C   0  0  0  0  0  0  0  0  0  0  0  0
   -3.0767    1.9741    3.6688 H   0  0  0  0  0  0  0  0  0  0  0  0
   -2.8689    1.5458    1.1895 H   0  0  0  0  0  0  0  0  0  0  0  0
   -1.2569    3.9183    2.3049 H   0  0  0  0  0  0  0  0  0  0  0  0
   -1.8965    3.8033    0.6609 H   0  0  0  0  0  0  0  0  0  0  0  0
   -3.0062    3.9023    2.0409 H   0  0  0  0  0  0  0  0  0  0  0  0
   -0.6071    1.3358   -0.0200 N   0  0  0  0  0  0  0  0  0  0  0  0
    0.5702    0.8350   -0.6836 C   0  0  2  0  0  0  0  0  0  0  0  0
    0.4951    1.2874   -2.1376 C   0  0  0  0  0  0  0  0  0  0  0  0
    0.9516    0.6269   -3.0683 O   0  0  0  0  0  0  0  0  0  0  0  0
    0.6733   -0.6925   -0.6055 C   0  0  0  0  0  0  0  0  0  0  0  0
    0.8348   -1.1950    0.8084 C   0  0  0  0  0  0  0  0  0  0  0  0
    2.0089   -1.0919    1.4998 N   0  0  0  0  0  0  0  0  0  0  0  0
   -0.0330   -1.8122    1.6782 C   0  0  0  0  0  0  0  0  0  0  0  0
    1.8065   -1.6413    2.7354 C   0  0  0  0  0  0  0  0  0  0  0  0
    0.5779   -2.0871    2.8761 N   0  0  0  0  0  0  0  0  0  0  0  0
   -1.3903    1.6325   -0.5973 H   0  0  0  0  0  0  0  0  0  0  0  0
    1.4291    1.3167   -0.2018 H   0  0  0  0  0  0  0  0  0  0  0  0
    1.5093   -1.0494   -1.2222 H   0  0  0  0  0  0  0  0  0  0  0  0
   -0.2221   -1.1599   -1.0363 H   0  0  0  0  0  0  0  0  0  0  0  0
    2.8715   -0.6856    1.1620 H   0  0  0  0  0  0  0  0  0  0  0  0
   -1.0672   -2.0736    1.5052 H   0  0  0  0  0  0  0  0  0  0  0  0
    2.5890   -1.6846    3.4796 H   0  0  0  0  0  0  0  0  0  0  0  0
   -0.1853    2.4896   -2.2732 N   0  0  0  0  0  0  0  0  0  0  0  0
   -0.4187    3.1299   -3.5477 C   0  0  2  0  0  0  0  0  0  0  0  0
    0.9094    3.1983   -4.2899 C   0  0  0  0  0  0  0  0  0  0  0  0
    1.9985    3.1494   -3.7219 O   0  0  0  0  0  0  0  0  0  0  0  0
   -1.0135    4.5180   -3.3687 C   0  0  0  0  0  0  0  0  0  0  0  0
   -0.5369    2.9421   -1.4345 H   0  0  0  0  0  0  0  0  0  0  0  0
   -1.1143    2.4893   -4.1007 H   0  0  0  0  0  0  0  0  0  0  0  0
   -0.3308    5.1742   -2.8166 H   0  0  0  0  0  0  0  0  0  0  0  0
   -1.2163    4.9904   -4.3356 H   0  0  0  0  0  0  0  0  0  0  0  0
   -1.9537    4.4700   -2.8088 H   0  0  0  0  0  0  0  0  0  0  0  0
    0.7354    3.3637   -5.6568 N   0  0  0  0  0  0  0  0  0  0  0  0
    1.8439    3.4688   -6.5767 C   0  0  0  0  0  0  0  0  0  0  0  0
   -0.2039    3.3748   -6.0433 H   0  0  0  0  0  0  0  0  0  0  0  0
    2.1014    4.5283   -6.7219 H   0  0  0  0  0  0  0  0  0  0  0  0
    2.7128    2.9333   -6.1665 H   0  0  0  0  0  0  0  0  0  0  0  0
    1.5620    3.0244   -7.5427 H   0  0  0  0  0  0  0  0  0  0  0  0
 22 24  2  0  0  0  0
 24 26  1  0  0  0  0
 25 26  2  0  0  0  0
 23 25  1  0  0  0  0
 21 22  1  0  0  0  0
 22 23  1  0  0  0  0
  1  3  1  0  0  0  0
  1  7  1  0  0  0  0
  1  2  2  0  0  0  0
 35 36  1  0  0  0  0
 36 44  1  0  0  0  0
 36 37  2  0  0  0  0
  8  9  1  0  0  0  0
  9 17  1  0  0  0  0
  9 10  2  0  0  0  0
 18 19  1  0  0  0  0
 19 34  1  0  0  0  0
 19 20  2  0  0  0  0
 35 38  1  0  0  0  0
  8 11  1  0  0  0  0
 44 45  1  0  0  0  0
 18 21  1  0  0  0  0
 34 35  1  0  0  0  0
  7  8  1  0  0  0  0
 17 18  1  0  0  0  0
 24 32  1  0  0  0  0
 25 33  1  0  0  0  0
  3  4  1  0  0  0  0
  3  5  1  0  0  0  0
  3  6  1  0  0  0  0
 38 41  1  0  0  0  0
 38 42  1  0  0  0  0
 38 43  1  0  0  0  0
 11 14  1  0  0  0  0
 11 15  1  0  0  0  0
 11 16  1  0  0  0  0
 45 47  1  0  0  0  0
 45 48  1  0  0  0  0
 45 49  1  0  0  0  0
 21 29  1  0  0  0  0
 21 30  1  0  0  0  0
 35 40  1  0  0  0  0
  8 13  1  0  0  0  0
 18 28  1  0  0  0  0
 23 31  1  0  0  0  0
 44 46  1  0  0  0  0
  7 12  1  0  0  0  0
 34 39  1  0  0  0  0
 17 27  1  0  0  0  0
M  END
$$$$

  -OEChem-05262214473D

 49 49  0     1  0  0  0  0  0999 V2000
   -1.5619    0.5658    3.7981 C   0  0  0  0  0  0  0  0  0  0  0  0
   -0.6145   -0.0489    3.3224 O   0  0  0  0  0  0  0  0  0  0  0  0
   -1.9938    0.2834    5.1988 C   0  0  0  0  0  0  0  0  0  0  0  0
   -2.7535   -0.5129    5.2522 H   0  0  0  0  0  0  0  0  0  0  0  0
   -1.1626   -0.0642    5.8331 H   0  0  0  0  0  0  0  0  0  0  0  0
   -2.4318    1.1383    5.7384 H   0  0  0  0  0  0  0  0  0  0  0  0
   -2.3116    1.5383    3.1570 N   0  0  0  0  0  0  0  0  0  0  0  0
   -2.0648    1.9643    1.8046 C   0  0  2  0  0  0  0  0  0  0  0  0
   -0.7298    1.3789    1.3634 C   0  0  0  0  0  0  0  0  0  0  0  0
    0.1423    1.0262    2.1547 O   0  0  0  0  0  0  0  0  0  0  0  0
   -2.0560    3.4811    1.6952 C   0  0  0  0  0  0  0  0  0  0  0  0
   -3.0767    1.9741    3.6688 H   0  0  0  0  0  0  0  0  0  0  0  0
   -2.8689    1.5458    1.1895 H   0  0  0  0  0  0  0  0  0  0  0  0
   -1.2569    3.9183    2.3049 H   0  0  0  0  0  0  0  0  0  0  0  0
   -1.8965    3.8033    0.6609 H   0  0  0  0  0  0  0  0  0  0  0  0
   -3.0062    3.9023    2.0409 H   0  0  0  0  0  0  0  0  0  0  0  0
   -0.6071    1.3358   -0.0200 N   0  0  0  0  0  0  0  0  0  0  0  0
    0.5702    0.8350   -0.6836 C   0  0  2  0  0  0  0  0  0  0  0  0
    0.4951    1.2874   -2.1376 C   0  0  0  0  0  0  0  0  0  0  0  0
    0.7005    0.5317   -3.0850 O   0  0  0  0  0  0  0  0  0  0  0  0
    0.6733   -0.6925   -0.6055 C   0  0  0  0  0  0  0  0  0  0  0  0
    0.8348   -1.1950    0.8084 C   0  0  0  0  0  0  0  0  0  0  0  0
    2.0089   -1.0919    1.4998 N   0  0  0  0  0  0  0  0  0  0  0  0
   -0.0330   -1.8122    1.6782 C   0  0  0  0  0  0  0  0  0  0  0  0
    1.8065   -1.6413    2.7354 C   0  0  0  0  0  0  0  0  0  0  0  0
    0.5779   -2.0871    2.8761 N   0  0  0  0  0  0  0  0  0  0  0  0
   -1.3903    1.6325   -0.5973 H   0  0  0  0  0  0  0  0  0  0  0  0
    1.4291    1.3167   -0.2018 H   0  0  0  0  0  0  0  0  0  0  0  0
    1.5093   -1.0494   -1.2222 H   0  0  0  0  0  0  0  0  0  0  0  0
   -0.2221   -1.1599   -1.0363 H   0  0  0  0  0  0  0  0  0  0  0  0
    2.8715   -0.6856    1.1620 H   0  0  0  0  0  0  0  0  0  0  0  0
   -1.0672   -2.0736    1.5052 H   0  0  0  0  0  0  0  0  0  0  0  0
    2.5890   -1.6846    3.4796 H   0  0  0  0  0  0  0  0  0  0  0  0
    0.1233    2.6201   -2.2485 N   0  0  0  0  0  0  0  0  0  0  0  0
   -0.0444    3.2943   -3.5158 C   0  0  2  0  0  0  0  0  0  0  0  0
    1.1973    3.0298   -4.3572 C   0  0  0  0  0  0  0  0  0  0  0  0
    2.2819    2.7149   -3.8718 O   0  0  0  0  0  0  0  0  0  0  0  0
   -0.2630    4.7870   -3.3238 C   0  0  0  0  0  0  0  0  0  0  0  0
   -0.0391    3.1481   -1.3961 H   0  0  0  0  0  0  0  0  0  0  0  0
   -0.9174    2.8440   -4.0005 H   0  0  0  0  0  0  0  0  0  0  0  0
    0.6015    5.2556   -2.8394 H   0  0  0  0  0  0  0  0  0  0  0  0
   -0.4183    5.2918   -4.2830 H   0  0  0  0  0  0  0  0  0  0  0  0
   -1.1391    4.9747   -2.6938 H   0  0  0  0  0  0  0  0  0  0  0  0
    0.9628    3.2289   -5.7105 N   0  0  0  0  0  0  0  0  0  0  0  0
    1.9873    3.0537   -6.7133 C   0  0  0  0  0  0  0  0  0  0  0  0
    0.0278    3.4707   -6.0254 H   0  0  0  0  0  0  0  0  0  0  0  0
    2.4857    4.0162   -6.9012 H   0  0  0  0  0  0  0  0  0  0  0  0
    2.7269    2.3212   -6.3577 H   0  0  0  0  0  0  0  0  0  0  0  0
    1.5298    2.6898   -7.6451 H   0  0  0  0  0  0  0  0  0  0  0  0
 22 24  2  0  0  0  0
 24 26  1  0  0  0  0
 25 26  2  0  0  0  0
 23 25  1  0  0  0  0
 21 22  1  0  0  0  0
 22 23  1  0  0  0  0
  1  3  1  0  0  0  0
  1  7  1  0  0  0  0
  1  2  2  0  0  0  0
 35 36  1  0  0  0  0
 36 44  1  0  0  0  0
 36 37  2  0  0  0  0
  8  9  1  0  0  0  0
  9 17  1  0  0  0  0
  9 10  2  0  0  0  0
 18 19  1  0  0  0  0
 19 34  1  0  0  0  0
 19 20  2  0  0  0  0
 35 38  1  0  0  0  0
  8 11  1  0  0  0  0
 44 45  1  0  0  0  0
 18 21  1  0  0  0  0
 34 35  1  0  0  0  0
  7  8  1  0  0  0  0
 17 18  1  0  0  0  0
 24 32  1  0  0  0  0
 25 33  1  0  0  0  0
  3  4  1  0  0  0  0
  3  5  1  0  0  0  0
  3  6  1  0  0  0  0
 38 41  1  0  0  0  0
 38 42  1  0  0  0  0
 38 43  1  0  0  0  0
 11 14  1  0  0  0  0
 11 15  1  0  0  0  0
 11 16  1  0  0  0  0
 45 47  1  0  0  0  0
 45 48  1  0  0  0  0
 45 49  1  0  0  0  0
 21 29  1  0  0  0  0
 21 30  1  0  0  0  0
 35 40  1  0  0  0  0
  8 13  1  0  0  0  0
 18 28  1  0  0  0  0
 23 31  1  0  0  0  0
 44 46  1  0  0  0  0
  7 12  1  0  0  0  0
 34 39  1  0  0  0  0
 17 27  1  0  0  0  0
M  END
$$$$

  -OEChem-05262214473D

 49 49  0     1  0  0  0  0  0999 V2000
   -1.5619    0.5658    3.7981 C   0  0  0  0  0  0  0  0  0  0  0  0
   -0.6145   -0.0489    3.3224 O   0  0  0  0  0  0  0  0  0  0  0  0
   -1.9938    0.2834    5.1988 C   0  0  0  0  0  0  0  0  0  0  0  0
   -2.7535   -0.5129    5.2522 H   0  0  0  0  0  0  0  0  0  0  0  0
   -1.1626   -0.0642    5.8331 H   0  0  0  0  0  0  0  0  0  0  0  0
   -2.4318    1.1383    5.7384 H   0  0  0  0  0  0  0  0  0  0  0  0
   -2.3116    1.5383    3.1570 N   0  0  0  0  0  0  0  0  0  0  0  0
   -2.0648    1.9643    1.8046 C   0  0  2  0  0  0  0  0  0  0  0  0
   -0.7298    1.3789    1.3634 C   0  0  0  0  0  0  0  0  0  0  0  0
    0.1423    1.0262    2.1547 O   0  0  0  0  0  0  0  0  0  0  0  0
   -2.0560    3.4811    1.6952 C   0  0  0  0  0  0  0  0  0  0  0  0
   -3.0767    1.9741    3.6688 H   0  0  0  0  0  0  0  0  0  0  0  0
   -2.8689    1.5458    1.1895 H   0  0  0  0  0  0  0  0  0  0  0  0
   -1.2569    3.9183    2.3049 H   0  0  0  0  0  0  0  0  0  0  0  0
   -1.8965    3.8033    0.6609 H   0  0  0  0  0  0  0  0  0  0  0  0
   -3.0062    3.9023    2.0409 H   0  0  0  0  0  0  0  0  0  0  0  0
   -0.6071    1.3358   -0.0200 N   0  0  0  0  0  0  0  0  0  0  0  0
    0.5702    0.8350   -0.6836 C   0  0  2  0  0  0  0  0  0  0  0  0
    0.4951    1.2874   -2.1376 C   0  0  0  0  0  0  0  0  0  0  0  0
    0.4330    0.5014   -3.0806 O   0  0  0  0  0  0  0  0  0  0  0  0
    0.6733   -0.6925   -0.6055 C   0  0  0  0  0  0  0  0  0  0  0  0
    0.8348   -1.1950    0.8084 C   0  0  0  0  0  0  0  0  0  0  0  0
    2.0089   -1.0919    1.4998 N   0  0  0  0  0  0  0  0  0  0  0  0
   -0.0330   -1.8122    1.6782 C   0  0  0  0  0  0  0  0  0  0  0  0
    1.8065   -1.6413    2.7354 C   0  0  0  0  0  0  0  0  0  0  0  0
    0.5779   -2.0871    2.8761 N   0  0  0  0  0  0  0  0  0  0  0  0
   -1.3903    1.6325   -0.5973 H   0  0  0  0  0  0  0  0  0  0  0  0
    1.4291    1.3167   -0.2018 H   0  0  0  0  0  0  0  0  0  0  0  0
    1.5093   -1.0494   -1.2222 H   0  0  0  0  0  0  0  0  0  0  0  0
   -0.2221   -1.1599   -1.0363 H   0  0  0  0  0  0  0  0  0  0  0  0
    2.8715   -0.6856    1.1620 H   0  0  0  0  0  0  0  0  0  0  0  0
   -1.0672   -2.0736    1.5052 H   0  0  0  0  0  0  0  0  0  0  0  0
    2.5890   -1.6846    3.4796 H   0  0  0  0  0  0  0  0  0  0  0  0
    0.4556    2.6703   -2.2500 N   0  0  0  0  0  0  0  0  0  0  0  0
    0.3603    3.3611   -3.5159 C   0  0  2  0  0  0  0  0  0  0  0  0
    1.4286    2.7951   -4.4421 C   0  0  0  0  0  0  0  0  0  0  0  0
    2.4368    2.2232   -4.0328 O   0  0  0  0  0  0  0  0  0  0  0  0
    0.5318    4.8621   -3.3415 C   0  0  0  0  0  0  0  0  0  0  0  0
    0.4956    3.2247   -1.3999 H   0  0  0  0  0  0  0  0  0  0  0  0
   -0.6321    3.1392   -3.9234 H   0  0  0  0  0  0  0  0  0  0  0  0
    1.5203    5.1038   -2.9341 H   0  0  0  0  0  0  0  0  0  0  0  0
    0.4310    5.3867   -4.2973 H   0  0  0  0  0  0  0  0  0  0  0  0
   -0.2189    5.2626   -2.6517 H   0  0  0  0  0  0  0  0  0  0  0  0
    1.1450    3.0418   -5.7781 N   0  0  0  0  0  0  0  0  0  0  0  0
    2.0129    2.6156   -6.8510 C   0  0  0  0  0  0  0  0  0  0  0  0
    0.2767    3.5064   -6.0271 H   0  0  0  0  0  0  0  0  0  0  0  0
    2.7167    3.4243   -7.0972 H   0  0  0  0  0  0  0  0  0  0  0  0
    2.5748    1.7241   -6.5356 H   0  0  0  0  0  0  0  0  0  0  0  0
    1.4082    2.3733   -7.7374 H   0  0  0  0  0  0  0  0  0  0  0  0
 22 24  2  0  0  0  0
 24 26  1  0  0  0  0
 25 26  2  0  0  0  0
 23 25  1  0  0  0  0
 21 22  1  0  0  0  0
 22 23  1  0  0  0  0
  1  3  1  0  0  0  0
  1  7  1  0  0  0  0
  1  2  2  0  0  0  0
 35 36  1  0  0  0  0
 36 44  1  0  0  0  0
 36 37  2  0  0  0  0
  8  9  1  0  0  0  0
  9 17  1  0  0  0  0
  9 10  2  0  0  0  0
 18 19  1  0  0  0  0
 19 34  1  0  0  0  0
 19 20  2  0  0  0  0
 35 38  1  0  0  0  0
  8 11  1  0  0  0  0
 44 45  1  0  0  0  0
 18 21  1  0  0  0  0
 34 35  1  0  0  0  0
  7  8  1  0  0  0  0
 17 18  1  0  0  0  0
 24 32  1  0  0  0  0
 25 33  1  0  0  0  0
  3  4  1  0  0  0  0
  3  5  1  0  0  0  0
  3  6  1  0  0  0  0
 38 41  1  0  0  0  0
 38 42  1  0  0  0  0
 38 43  1  0  0  0  0
 11 14  1  0  0  0  0
 11 15  1  0  0  0  0
 11 16  1  0  0  0  0
 45 47  1  0  0  0  0
 45 48  1  0  0  0  0
 45 49  1  0  0  0  0
 21 29  1  0  0  0  0
 21 30  1  0  0  0  0
 35 40  1  0  0  0  0
  8 13  1  0  0  0  0
 18 28  1  0  0  0  0
 23 31  1  0  0  0  0
 44 46  1  0  0  0  0
  7 12  1  0  0  0  0
 34 39  1  0  0  0  0
 17 27  1  0  0  0  0
M  END
$$$$

  -OEChem-05262214473D

 49 49  0     1  0  0  0  0  0999 V2000
   -1.5619    0.5658    3.7981 C   0  0  0  0  0  0  0  0  0  0  0  0
   -0.6145   -0.0489    3.3224 O   0  0  0  0  0  0  0  0  0  0  0  0
   -1.9938    0.2834    5.1988 C   0  0  0  0  0  0  0  0  0  0  0  0
   -2.7535   -0.5129    5.2522 H   0  0  0  0  0  0  0  0  0  0  0  0
   -1.1626   -0.0642    5.8331 H   0  0  0  0  0  0  0  0  0  0  0  0
   -2.4318    1.1383    5.7384 H   0  0  0  0  0  0  0  0  0  0  0  0
   -2.3116    1.5383    3.1570 N   0  0  0  0  0  0  0  0  0  0  0  0
   -2.0648    1.9643    1.8046 C   0  0  2  0  0  0  0  0  0  0  0  0
   -0.7298    1.3789    1.3634 C   0  0  0  0  0  0  0  0  0  0  0  0
    0.1423    1.0262    2.1547 O   0  0  0  0  0  0  0  0  0  0  0  0
   -2.0560    3.4811    1.6952 C   0  0  0  0  0  0  0  0  0  0  0  0
   -3.0767    1.9741    3.6688 H   0  0  0  0  0  0  0  0  0  0  0  0
   -2.8689    1.5458    1.1895 H   0  0  0  0  0  0  0  0  0  0  0  0
   -1.2569    3.9183    2.3049 H   0  0  0  0  0  0  0  0  0  0  0  0
   -1.8965    3.8033    0.6609 H   0  0  0  0  0  0  0  0  0  0  0  0
   -3.0062    3.9023    2.0409 H   0  0  0  0  0  0  0  0  0  0  0  0
   -0.6071    1.3358   -0.0200 N   0  0  0  0  0  0  0  0  0  0  0  0
    0.5702    0.8350   -0.6836 C   0  0  2  0  0  0  0  0  0  0  0  0
    0.4951    1.2874   -2.1376 C   0  0  0  0  0  0  0  0  0  0  0  0
    0.1676    0.5383   -3.0554 O   0  0  0  0  0  0  0  0  0  0  0  0
    0.6733   -0.6925   -0.6055 C   0  0  0  0  0  0  0  0  0  0  0  0
    0.8348   -1.1950    0.8084 C   0  0  0  0  0  0  0  0  0  0  0  0
    2.0089   -1.0919    1.4998 N   0  0  0  0  0  0  0  0  0  0  0  0
   -0.0330   -1.8122    1.6782 C   0  0  0  0  0  0  0  0  0  0  0  0
    1.8065   -1.6413    2.7354 C   0  0  0  0  0  0  0  0  0  0  0  0
    0.5779   -2.0871    2.8761 N   0  0  0  0  0  0  0  0  0  0  0  0
   -1.3903    1.6325   -0.5973 H   0  0  0  0  0  0  0  0  0  0  0  0
    1.4291    1.3167   -0.2018 H   0  0  0  0  0  0  0  0  0  0  0  0
    1.5093   -1.0494   -1.2222 H   0  0  0  0  0  0  0  0  0  0  0  0
   -0.2221   -1.1599   -1.0363 H   0  0  0  0  0  0  0  0  0  0  0  0
    2.8715   -0.6856    1.1620 H   0  0  0  0  0  0  0  0  0  0  0  0
   -1.0672   -2.0736    1.5052 H   0  0  0  0  0  0  0  0  0  0  0  0
    2.5890   -1.6846    3.4796 H   0  0  0  0  0  0  0  0  0  0  0  0
    0.7887    2.6367   -2.2777 N   0  0  0  0  0  0  0  0  0  0  0  0
    0.7676    3.3258   -3.5479 C   0  0  2  0  0  0  0  0  0  0  0  0
    1.5875    2.5103   -4.5390 C   0  0  0  0  0  0  0  0  0  0  0  0
    2.4527    1.7080   -4.1939 O   0  0  0  0  0  0  0  0  0  0  0  0
    1.3167    4.7382   -3.4205 C   0  0  0  0  0  0  0  0  0  0  0  0
    1.0306    3.1666   -1.4455 H   0  0  0  0  0  0  0  0  0  0  0  0
   -0.2776    3.3549   -3.8746 H   0  0  0  0  0  0  0  0  0  0  0  0
    2.3631    4.7292   -3.0942 H   0  0  0  0  0  0  0  0  0  0  0  0
    1.2736    5.2685   -4.3776 H   0  0  0  0  0  0  0  0  0  0  0  0
    0.7442    5.3141   -2.6854 H   0  0  0  0  0  0  0  0  0  0  0  0
    1.2696    2.8153   -5.8550 N   0  0  0  0  0  0  0  0  0  0  0  0
    1.9189    2.1843   -6.9803 C   0  0  0  0  0  0  0  0  0  0  0  0
    0.5257    3.4794   -6.0484 H   0  0  0  0  0  0  0  0  0  0  0  0
    2.7787    2.7931   -7.2969 H   0  0  0  0  0  0  0  0  0  0  0  0
    2.2668    1.1825   -6.6883 H   0  0  0  0  0  0  0  0  0  0  0  0
    1.2056    2.0964   -7.8131 H   0  0  0  0  0  0  0  0  0  0  0  0
 22 24  2  0  0  0  0
 24 26  1  0  0  0  0
 25 26  2  0  0  0  0
 23 25  1  0  0  0  0
 21 22  1  0  0  0  0
 22 23  1  0  0  0  0
  1  3  1  0  0  0  0
  1  7  1  0  0  0  0
  1  2  2  0  0  0  0
 35 36  1  0  0  0  0
 36 44  1  0  0  0  0
 36 37  2  0  0  0  0
  8  9  1  0  0  0  0
  9 17  1  0  0  0  0
  9 10  2  0  0  0  0
 18 19  1  0  0  0  0
 19 34  1  0  0  0  0
 19 20  2  0  0  0  0
 35 38  1  0  0  0  0
  8 11  1  0  0  0  0
 44 45  1  0  0  0  0
 18 21  1  0  0  0  0
 34 35  1  0  0  0  0
  7  8  1  0  0  0  0
 17 18  1  0  0  0  0
 24 32  1  0  0  0  0
 25 33  1  0  0  0  0
  3  4  1  0  0  0  0
  3  5  1  0  0  0  0
  3  6  1  0  0  0  0
 38 41  1  0  0  0  0
 38 42  1  0  0  0  0
 38 43  1  0  0  0  0
 11 14  1  0  0  0  0
 11 15  1  0  0  0  0
 11 16  1  0  0  0  0
 45 47  1  0  0  0  0
 45 48  1  0  0  0  0
 45 49  1  0  0  0  0
 21 29  1  0  0  0  0
 21 30  1  0  0  0  0
 35 40  1  0  0  0  0
  8 13  1  0  0  0  0
 18 28  1  0  0  0  0
 23 31  1  0  0  0  0
 44 46  1  0  0  0  0
  7 12  1  0  0  0  0
 34 39  1  0  0  0  0
 17 27  1  0  0  0  0
M  END
$$$$

  -OEChem-05262214473D

 49 49  0     1  0  0  0  0  0999 V2000
   -1.5619    0.5658    3.7981 C   0  0  0  0  0  0  0  0  0  0  0  0
   -0.6145   -0.0489    3.3224 O   0  0  0  0  0  0  0  0  0  0  0  0
   -1.9938    0.2834    5.1988 C   0  0  0  0  0  0  0  0  0  0  0  0
   -2.7535   -0.5129    5.2522 H   0  0  0  0  0  0  0  0  0  0  0  0
   -1.1626   -0.0642    5.8331 H   0  0  0  0  0  0  0  0  0  0  0  0
   -2.4318    1.1383    5.7384 H   0  0  0  0  0  0  0  0  0  0  0  0
   -2.3116    1.5383    3.1570 N   0  0  0  0  0  0  0  0  0  0  0  0
   -2.0648    1.9643    1.8046 C   0  0  2  0  0  0  0  0  0  0  0  0
   -0.7298    1.3789    1.3634 C   0  0  0  0  0  0  0  0  0  0  0  0
    0.1423    1.0262    2.1547 O   0  0  0  0  0  0  0  0  0  0  0  0
   -2.0560    3.4811    1.6952 C   0  0  0  0  0  0  0  0  0  0  0  0
   -3.0767    1.9741    3.6688 H   0  0  0  0  0  0  0  0  0  0  0  0
   -2.8689    1.5458    1.1895 H   0  0  0  0  0  0  0  0  0  0  0  0
   -1.2569    3.9183    2.3049 H   0  0  0  0  0  0  0  0  0  0  0  0
   -1.8965    3.8033    0.6609 H   0  0  0  0  0  0  0  0  0  0  0  0
   -3.0062    3.9023    2.0409 H   0  0  0  0  0  0  0  0  0  0  0  0
   -0.6071    1.3358   -0.0200 N   0  0  0  0  0  0  0  0  0  0  0  0
    0.5702    0.8350   -0.6836 C   0  0  2  0  0  0  0  0  0  0  0  0
    0.4951    1.2874   -2.1376 C   0  0  0  0  0  0  0  0  0  0  0  0
   -0.0778    0.6397   -3.0112 O   0  0  0  0  0  0  0  0  0  0  0  0
    0.6733   -0.6925   -0.6055 C   0  0  0  0  0  0  0  0  0  0  0  0
    0.8348   -1.1950    0.8084 C   0  0  0  0  0  0  0  0  0  0  0  0
    2.0089   -1.0919    1.4998 N   0  0  0  0  0  0  0  0  0  0  0  0
   -0.0330   -1.8122    1.6782 C   0  0  0  0  0  0  0  0  0  0  0  0
    1.8065   -1.6413    2.7354 C   0  0  0  0  0  0  0  0  0  0  0  0
    0.5779   -2.0871    2.8761 N   0  0  0  0  0  0  0  0  0  0  0  0
   -1.3903    1.6325   -0.5973 H   0  0  0  0  0  0  0  0  0  0  0  0
    1.4291    1.3167   -0.2018 H   0  0  0  0  0  0  0  0  0  0  0  0
    1.5093   -1.0494   -1.2222 H   0  0  0  0  0  0  0  0  0  0  0  0
   -0.2221   -1.1599   -1.0363 H   0  0  0  0  0  0  0  0  0  0  0  0
    2.8715   -0.6856    1.1620 H   0  0  0  0  0  0  0  0  0  0  0  0
   -1.0672   -2.0736    1.5052 H   0  0  0  0  0  0  0  0  0  0  0  0
    2.5890   -1.6846    3.4796 H   0  0  0  0  0  0  0  0  0  0  0  0
    1.1001    2.5218   -2.3295 N   0  0  0  0  0  0  0  0  0  0  0  0
    1.1499    3.1907   -3.6097 C   0  0  2  0  0  0  0  0  0  0  0  0
    1.6633    2.1946   -4.6411 C   0  0  0  0  0  0  0  0  0  0  0  0
    2.3285    1.2044   -4.3442 O   0  0  0  0  0  0  0  0  0  0  0  0
    2.0382    4.4238   -3.5556 C   0  0  0  0  0  0  0  0  0  0  0  0
    1.5296    2.9780   -1.5300 H   0  0  0  0  0  0  0  0  0  0  0  0
    0.1217    3.4764   -3.8574 H   0  0  0  0  0  0  0  0  0  0  0  0
    3.0724    4.1573   -3.3087 H   0  0  0  0  0  0  0  0  0  0  0  0
    2.0522    4.9453   -4.5183 H   0  0  0  0  0  0  0  0  0  0  0  0
    1.6847    5.1256   -2.7926 H   0  0  0  0  0  0  0  0  0  0  0  0
    1.3281    2.5647   -5.9360 N   0  0  0  0  0  0  0  0  0  0  0  0
    1.7117    1.7893   -7.0925 C   0  0  0  0  0  0  0  0  0  0  0  0
    0.7580    3.3916   -6.0877 H   0  0  0  0  0  0  0  0  0  0  0  0
    2.6674    2.1655   -7.4864 H   0  0  0  0  0  0  0  0  0  0  0  0
    1.8240    0.7335   -6.8051 H   0  0  0  0  0  0  0  0  0  0  0  0
    0.9357    1.8780   -7.8671 H   0  0  0  0  0  0  0  0  0  0  0  0
 22 24  2  0  0  0  0
 24 26  1  0  0  0  0
 25 26  2  0  0  0  0
 23 25  1  0  0  0  0
 21 22  1  0  0  0  0
 22 23  1  0  0  0  0
  1  3  1  0  0  0  0
  1  7  1  0  0  0  0
  1  2  2  0  0  0  0
 35 36  1  0  0  0  0
 36 44  1  0  0  0  0
 36 37  2  0  0  0  0
  8  9  1  0  0  0  0
  9 17  1  0  0  0  0
  9 10  2  0  0  0  0
 18 19  1  0  0  0  0
 19 34  1  0  0  0  0
 19 20  2  0  0  0  0
 35 38  1  0  0  0  0
  8 11  1  0  0  0  0
 44 45  1  0  0  0  0
 18 21  1  0  0  0  0
 34 35  1  0  0  0  0
  7  8  1  0  0  0  0
 17 18  1  0  0  0  0
 24 32  1  0  0  0  0
 25 33  1  0  0  0  0
  3  4  1  0  0  0  0
  3  5  1  0  0  0  0
  3  6  1  0  0  0  0
 38 41  1  0  0  0  0
 38 42  1  0  0  0  0
 38 43  1  0  0  0  0
 11 14  1  0  0  0  0
 11 15  1  0  0  0  0
 11 16  1  0  0  0  0
 45 47  1  0  0  0  0
 45 48  1  0  0  0  0
 45 49  1  0  0  0  0
 21 29  1  0  0  0  0
 21 30  1  0  0  0  0
 35 40  1  0  0  0  0
  8 13  1  0  0  0  0
 18 28  1  0  0  0  0
 23 31  1  0  0  0  0
 44 46  1  0  0  0  0
  7 12  1  0  0  0  0
 34 39  1  0  0  0  0
 17 27  1  0  0  0  0
M  END
$$$$

  -OEChem-05262214473D

 49 49  0     1  0  0  0  0  0999 V2000
   -1.5619    0.5658    3.7981 C   0  0  0  0  0  0  0  0  0  0  0  0
   -0.6145   -0.0489    3.3224 O   0  0  0  0  0  0  0  0  0  0  0  0
   -1.9938    0.2834    5.1988 C   0  0  0  0  0  0  0  0  0  0  0  0
   -2.7535   -0.5129    5.2522 H   0  0  0  0  0  0  0  0  0  0  0  0
   -1.1626   -0.0642    5.8331 H   0  0  0  0  0  0  0  0  0  0  0  0
   -2.4318    1.1383    5.7384 H   0  0  0  0  0  0  0  0  0  0  0  0
   -2.3116    1.5383    3.1570 N   0  0  0  0  0  0  0  0  0  0  0  0
   -2.0648    1.9643    1.8046 C   0  0  2  0  0  0  0  0  0  0  0  0
   -0.7298    1.3789    1.3634 C   0  0  0  0  0  0  0  0  0  0  0  0
    0.1423    1.0262    2.1547 O   0  0  0  0  0  0  0  0  0  0  0  0
   -2.0560    3.4811    1.6952 C   0  0  0  0  0  0  0  0  0  0  0  0
   -3.0767    1.9741    3.6688 H   0  0  0  0  0  0  0  0  0  0  0  0
   -2.8689    1.5458    1.1895 H   0  0  0  0  0  0  0  0  0  0  0  0
   -1.2569    3.9183    2.3049 H   0  0  0  0  0  0  0  0  0  0  0  0
   -1.8965    3.8033    0.6609 H   0  0  0  0  0  0  0  0  0  0  0  0
   -3.0062    3.9023    2.0409 H   0  0  0  0  0  0  0  0  0  0  0  0
   -0.6071    1.3358   -0.0200 N   0  0  0  0  0  0  0  0  0  0  0  0
    0.5702    0.8350   -0.6836 C   0  0  2  0  0  0  0  0  0  0  0  0
    0.4951    1.2874   -2.1376 C   0  0  0  0  0  0  0  0  0  0  0  0
   -0.2864    0.7989   -2.9509 O   0  0  0  0  0  0  0  0  0  0  0  0
    0.6733   -0.6925   -0.6055 C   0  0  0  0  0  0  0  0  0  0  0  0
    0.8348   -1.1950    0.8084 C   0  0  0  0  0  0  0  0  0  0  0  0
    2.0089   -1.0919    1.4998 N   0  0  0  0  0  0  0  0  0  0  0  0
   -0.0330   -1.8122    1.6782 C   0  0  0  0  0  0  0  0  0  0  0  0
    1.8065   -1.6413    2.7354 C   0  0  0  0  0  0  0  0  0  0  0  0
    0.5779   -2.0871    2.8761 N   0  0  0  0  0  0  0  0  0  0  0  0
   -1.3903    1.6325   -0.5973 H   0  0  0  0  0  0  0  0  0  0  0  0
    1.4291    1.3167   -0.2018 H   0  0  0  0  0  0  0  0  0  0  0  0
    1.5093   -1.0494   -1.2222 H   0  0  0  0  0  0  0  0  0  0  0  0
   -0.2221   -1.1599   -1.0363 H   0  0  0  0  0  0  0  0  0  0  0  0
    2.8715   -0.6856    1.1620 H   0  0  0  0  0  0  0  0  0  0  0  0
   -1.0672   -2.0736    1.5052 H   0  0  0  0  0  0  0  0  0  0  0  0
    2.5890   -1.6846    3.4796 H   0  0  0  0  0  0  0  0  0  0  0  0
    1.3686    2.3332   -2.4021 N   0  0  0  0  0  0  0  0  0  0  0  0
    1.4810    2.9650   -3.6970 C   0  0  2  0  0  0  0  0  0  0  0  0
    1.6508    1.8698   -4.7416 C   0  0  0  0  0  0  0  0  0  0  0  0
    2.0727    0.7467   -4.4734 O   0  0  0  0  0  0  0  0  0  0  0  0
    2.6472    3.9403   -3.7375 C   0  0  0  0  0  0  0  0  0  0  0  0
    1.9585    2.6715   -1.6475 H   0  0  0  0  0  0  0  0  0  0  0  0
    0.5388    3.4954   -3.8730 H   0  0  0  0  0  0  0  0  0  0  0  0
    3.5999    3.4270   -3.5632 H   0  0  0  0  0  0  0  0  0  0  0  0
    2.7136    4.4392   -4.7100 H   0  0  0  0  0  0  0  0  0  0  0  0
    2.5384    4.7101   -2.9659 H   0  0  0  0  0  0  0  0  0  0  0  0
    1.3167    2.3073   -6.0156 N   0  0  0  0  0  0  0  0  0  0  0  0
    1.4055    1.4575   -7.1800 C   0  0  0  0  0  0  0  0  0  0  0  0
    0.9577    3.2490   -6.1424 H   0  0  0  0  0  0  0  0  0  0  0  0
    2.3905    1.5844   -7.6529 H   0  0  0  0  0  0  0  0  0  0  0  0
    1.2764    0.4076   -6.8783 H   0  0  0  0  0  0  0  0  0  0  0  0
    0.6170    1.7329   -7.8958 H   0  0  0  0  0  0  0  0  0  0  0  0
 22 24  2  0  0  0  0
 24 26  1  0  0  0  0
 25 26  2  0  0  0  0
 23 25  1  0  0  0  0
 21 22  1  0  0  0  0
 22 23  1  0  0  0  0
  1  3  1  0  0  0  0
  1  7  1  0  0  0  0
  1  2  2  0  0  0  0
 35 36  1  0  0  0  0
 36 44  1  0  0  0  0
 36 37  2  0  0  0  0
  8  9  1  0  0  0  0
  9 17  1  0  0  0  0
  9 10  2  0  0  0  0
 18 19  1  0  0  0  0
 19 34  1  0  0  0  0
 19 20  2  0  0  0  0
 35 38  1  0  0  0  0
  8 11  1  0  0  0  0
 44 45  1  0  0  0  0
 18 21  1  0  0  0  0
 34 35  1  0  0  0  0
  7  8  1  0  0  0  0
 17 18  1  0  0  0  0
 24 32  1  0  0  0  0
 25 33  1  0  0  0  0
  3  4  1  0  0  0  0
  3  5  1  0  0  0  0
  3  6  1  0  0  0  0
 38 41  1  0  0  0  0
 38 42  1  0  0  0  0
 38 43  1  0  0  0  0
 11 14  1  0  0  0  0
 11 15  1  0  0  0  0
 11 16  1  0  0  0  0
 45 47  1  0  0  0  0
 45 48  1  0  0  0  0
 45 49  1  0  0  0  0
 21 29  1  0  0  0  0
 21 30  1  0  0  0  0
 35 40  1  0  0  0  0
  8 13  1  0  0  0  0
 18 28  1  0  0  0  0
 23 31  1  0  0  0  0
 44 46  1  0  0  0  0
  7 12  1  0  0  0  0
 34 39  1  0  0  0  0
 17 27  1  0  0  0  0
M  END
$$$$

  -OEChem-05262214473D

 49 49  0     1  0  0  0  0  0999 V2000
   -1.5619    0.5658    3.7981 C   0  0  0  0  0  0  0  0  0  0  0  0
   -0.6145   -0.0489    3.3224 O   0  0  0  0  0  0  0  0  0  0  0  0
   -1.9938    0.2834    5.1988 C   0  0  0  0  0  0  0  0  0  0  0  0
   -2.7535   -0.5129    5.2522 H   0  0  0  0  0  0  0  0  0  0  0  0
   -1.1626   -0.0642    5.8331 H   0  0  0  0  0  0  0  0  0  0  0  0
   -2.4318    1.1383    5.7384 H   0  0  0  0  0  0  0  0  0  0  0  0
   -2.3116    1.5383    3.1570 N   0  0  0  0  0  0  0  0  0  0  0  0
   -2.0648    1.9643    1.8046 C   0  0  2  0  0  0  0  0  0  0  0  0
   -0.7298    1.3789    1.3634 C   0  0  0  0  0  0  0  0  0  0  0  0
    0.1423    1.0262    2.1547 O   0  0  0  0  0  0  0  0  0  0  0  0
   -2.0560    3.4811    1.6952 C   0  0  0  0  0  0  0  0  0  0  0  0
   -3.0767    1.9741    3.6688 H   0  0  0  0  0  0  0  0  0  0  0  0
   -2.8689    1.5458    1.1895 H   0  0  0  0  0  0  0  0  0  0  0  0
   -1.2569    3.9183    2.3049 H   0  0  0  0  0  0  0  0  0  0  0  0
   -1.8965    3.8033    0.6609 H   0  0  0  0  0  0  0  0  0  0  0  0
   -3.0062    3.9023    2.0409 H   0  0  0  0  0  0  0  0  0  0  0  0
   -0.6071    1.3358   -0.0200 N   0  0  0  0  0  0  0  0  0  0  0  0
    0.5702    0.8350   -0.6836 C   0  0  2  0  0  0  0  0  0  0  0  0
    0.4951    1.2874   -2.1376 C   0  0  0  0  0  0  0  0  0  0  0  0
   -0.4439    1.0048   -2.8787 O   0  0  0  0  0  0  0  0  0  0  0  0
    0.6733   -0.6925   -0.6055 C   0  0  0  0  0  0  0  0  0  0  0  0
    0.8348   -1.1950    0.8084 C   0  0  0  0  0  0  0  0  0  0  0  0
    2.0089   -1.0919    1.4998 N   0  0  0  0  0  0  0  0  0  0  0  0
   -0.0330   -1.8122    1.6782 C   0  0  0  0  0  0  0  0  0  0  0  0
    1.8065   -1.6413    2.7354 C   0  0  0  0  0  0  0  0  0  0  0  0
    0.5779   -2.0871    2.8761 N   0  0  0  0  0  0  0  0  0  0  0  0
   -1.3903    1.6325   -0.5973 H   0  0  0  0  0  0  0  0  0  0  0  0
    1.4291    1.3167   -0.2018 H   0  0  0  0  0  0  0  0  0  0  0  0
    1.5093   -1.0494   -1.2222 H   0  0  0  0  0  0  0  0  0  0  0  0
   -0.2221   -1.1599   -1.0363 H   0  0  0  0  0  0  0  0  0  0  0  0
    2.8715   -0.6856    1.1620 H   0  0  0  0  0  0  0  0  0  0  0  0
   -1.0672   -2.0736    1.5052 H   0  0  0  0  0  0  0  0  0  0  0  0
    2.5890   -1.6846    3.4796 H   0  0  0  0  0  0  0  0  0  0  0  0
    1.5757    2.0838   -2.4903 N   0  0  0  0  0  0  0  0  0  0  0  0
    1.7385    2.6642   -3.8039 C   0  0  2  0  0  0  0  0  0  0  0  0
    1.5508    1.5578   -4.8335 C   0  0  0  0  0  0  0  0  0  0  0  0
    1.7028    0.3661   -4.5728 O   0  0  0  0  0  0  0  0  0  0  0  0
    3.1021    3.3206   -3.9538 C   0  0  0  0  0  0  0  0  0  0  0  0
    2.2881    2.2680   -1.7901 H   0  0  0  0  0  0  0  0  0  0  0  0
    0.9451    3.4106   -3.9204 H   0  0  0  0  0  0  0  0  0  0  0  0
    3.9097    2.5882   -3.8402 H   0  0  0  0  0  0  0  0  0  0  0  0
    3.2129    3.7846   -4.9394 H   0  0  0  0  0  0  0  0  0  0  0  0
    3.2471    4.0958   -3.1937 H   0  0  0  0  0  0  0  0  0  0  0  0
    1.2359    2.0604   -6.0882 N   0  0  0  0  0  0  0  0  0  0  0  0
    1.0211    1.2114   -7.2367 C   0  0  0  0  0  0  0  0  0  0  0  0
    1.1112    3.0612   -6.2087 H   0  0  0  0  0  0  0  0  0  0  0  0
    1.9668    1.0893   -7.7851 H   0  0  0  0  0  0  0  0  0  0  0  0
    0.6614    0.2270   -6.9027 H   0  0  0  0  0  0  0  0  0  0  0  0
    0.2711    1.6711   -7.8972 H   0  0  0  0  0  0  0  0  0  0  0  0
 22 24  2  0  0  0  0
 24 26  1  0  0  0  0
 25 26  2  0  0  0  0
 23 25  1  0  0  0  0
 21 22  1  0  0  0  0
 22 23  1  0  0  0  0
  1  3  1  0  0  0  0
  1  7  1  0  0  0  0
  1  2  2  0  0  0  0
 35 36  1  0  0  0  0
 36 44  1  0  0  0  0
 36 37  2  0  0  0  0
  8  9  1  0  0  0  0
  9 17  1  0  0  0  0
  9 10  2  0  0  0  0
 18 19  1  0  0  0  0
 19 34  1  0  0  0  0
 19 20  2  0  0  0  0
 35 38  1  0  0  0  0
  8 11  1  0  0  0  0
 44 45  1  0  0  0  0
 18 21  1  0  0  0  0
 34 35  1  0  0  0  0
  7  8  1  0  0  0  0
 17 18  1  0  0  0  0
 24 32  1  0  0  0  0
 25 33  1  0  0  0  0
  3  4  1  0  0  0  0
  3  5  1  0  0  0  0
  3  6  1  0  0  0  0
 38 41  1  0  0  0  0
 38 42  1  0  0  0  0
 38 43  1  0  0  0  0
 11 14  1  0  0  0  0
 11 15  1  0  0  0  0
 11 16  1  0  0  0  0
 45 47  1  0  0  0  0
 45 48  1  0  0  0  0
 45 49  1  0  0  0  0
 21 29  1  0  0  0  0
 21 30  1  0  0  0  0
 35 40  1  0  0  0  0
  8 13  1  0  0  0  0
 18 28  1  0  0  0  0
 23 31  1  0  0  0  0
 44 46  1  0  0  0  0
  7 12  1  0  0  0  0
 34 39  1  0  0  0  0
 17 27  1  0  0  0  0
M  END
$$$$

  -OEChem-05262214473D

 49 49  0     1  0  0  0  0  0999 V2000
   -1.5619    0.5658    3.7981 C   0  0  0  0  0  0  0  0  0  0  0  0
   -0.6145   -0.0489    3.3224 O   0  0  0  0  0  0  0  0  0  0  0  0
   -1.9938    0.2834    5.1988 C   0  0  0  0  0  0  0  0  0  0  0  0
   -2.7535   -0.5129    5.2522 H   0  0  0  0  0  0  0  0  0  0  0  0
   -1.1626   -0.0642    5.8331 H   0  0  0  0  0  0  0  0  0  0  0  0
   -2.4318    1.1383    5.7384 H   0  0  0  0  0  0  0  0  0  0  0  0
   -2.3116    1.5383    3.1570 N   0  0  0  0  0  0  0  0  0  0  0  0
   -2.0648    1.9643    1.8046 C   0  0  2  0  0  0  0  0  0  0  0  0
   -0.7298    1.3789    1.3634 C   0  0  0  0  0  0  0  0  0  0  0  0
    0.1423    1.0262    2.1547 O   0  0  0  0  0  0  0  0  0  0  0  0
   -2.0560    3.4811    1.6952 C   0  0  0  0  0  0  0  0  0  0  0  0
   -3.0767    1.9741    3.6688 H   0  0  0  0  0  0  0  0  0  0  0  0
   -2.8689    1.5458    1.1895 H   0  0  0  0  0  0  0  0  0  0  0  0
   -1.2569    3.9183    2.3049 H   0  0  0  0  0  0  0  0  0  0  0  0
   -1.8965    3.8033    0.6609 H   0  0  0  0  0  0  0  0  0  0  0  0
   -3.0062    3.9023    2.0409 H   0  0  0  0  0  0  0  0  0  0  0  0
   -0.6071    1.3358   -0.0200 N   0  0  0  0  0  0  0  0  0  0  0  0
    0.5702    0.8350   -0.6836 C   0  0  2  0  0  0  0  0  0  0  0  0
    0.4951    1.2874   -2.1376 C   0  0  0  0  0  0  0  0  0  0  0  0
   -0.5397    1.2436   -2.7994 O   0  0  0  0  0  0  0  0  0  0  0  0
    0.6733   -0.6925   -0.6055 C   0  0  0  0  0  0  0  0  0  0  0  0
    0.8348   -1.1950    0.8084 C   0  0  0  0  0  0  0  0  0  0  0  0
    2.0089   -1.0919    1.4998 N   0  0  0  0  0  0  0  0  0  0  0  0
   -0.0330   -1.8122    1.6782 C   0  0  0  0  0  0  0  0  0  0  0  0
    1.8065   -1.6413    2.7354 C   0  0  0  0  0  0  0  0  0  0  0  0
    0.5779   -2.0871    2.8761 N   0  0  0  0  0  0  0  0  0  0  0  0
   -1.3903    1.6325   -0.5973 H   0  0  0  0  0  0  0  0  0  0  0  0
    1.4291    1.3167   -0.2018 H   0  0  0  0  0  0  0  0  0  0  0  0
    1.5093   -1.0494   -1.2222 H   0  0  0  0  0  0  0  0  0  0  0  0
   -0.2221   -1.1599   -1.0363 H   0  0  0  0  0  0  0  0  0  0  0  0
    2.8715   -0.6856    1.1620 H   0  0  0  0  0  0  0  0  0  0  0  0
   -1.0672   -2.0736    1.5052 H   0  0  0  0  0  0  0  0  0  0  0  0
    2.5890   -1.6846    3.4796 H   0  0  0  0  0  0  0  0  0  0  0  0
    1.7075    1.7907   -2.5883 N   0  0  0  0  0  0  0  0  0  0  0  0
    1.9047    2.3088   -3.9231 C   0  0  2  0  0  0  0  0  0  0  0  0
    1.3701    1.2799   -4.9106 C   0  0  0  0  0  0  0  0  0  0  0  0
    1.2438    0.0885   -4.6355 O   0  0  0  0  0  0  0  0  0  0  0  0
    3.3719    2.6070   -4.1898 C   0  0  0  0  0  0  0  0  0  0  0  0
    2.4959    1.7952   -1.9479 H   0  0  0  0  0  0  0  0  0  0  0  0
    1.3131    3.2278   -3.9962 H   0  0  0  0  0  0  0  0  0  0  0  0
    3.9805    1.6980   -4.1209 H   0  0  0  0  0  0  0  0  0  0  0  0
    3.5160    3.0261   -5.1911 H   0  0  0  0  0  0  0  0  0  0  0  0
    3.7626    3.3247   -3.4603 H   0  0  0  0  0  0  0  0  0  0  0  0
    1.0913    1.8409   -6.1490 N   0  0  0  0  0  0  0  0  0  0  0  0
    0.5846    1.0679   -7.2589 C   0  0  0  0  0  0  0  0  0  0  0  0
    1.2080    2.8411   -6.2822 H   0  0  0  0  0  0  0  0  0  0  0  0
    1.4251    0.7140   -7.8740 H   0  0  0  0  0  0  0  0  0  0  0  0
    0.0209    0.2041   -6.8768 H   0  0  0  0  0  0  0  0  0  0  0  0
   -0.0784    1.6967   -7.8712 H   0  0  0  0  0  0  0  0  0  0  0  0
 22 24  2  0  0  0  0
 24 26  1  0  0  0  0
 25 26  2  0  0  0  0
 23 25  1  0  0  0  0
 21 22  1  0  0  0  0
 22 23  1  0  0  0  0
  1  3  1  0  0  0  0
  1  7  1  0  0  0  0
  1  2  2  0  0  0  0
 35 36  1  0  0  0  0
 36 44  1  0  0  0  0
 36 37  2  0  0  0  0
  8  9  1  0  0  0  0
  9 17  1  0  0  0  0
  9 10  2  0  0  0  0
 18 19  1  0  0  0  0
 19 34  1  0  0  0  0
 19 20  2  0  0  0  0
 35 38  1  0  0  0  0
  8 11  1  0  0  0  0
 44 45  1  0  0  0  0
 18 21  1  0  0  0  0
 34 35  1  0  0  0  0
  7  8  1  0  0  0  0
 17 18  1  0  0  0  0
 24 32  1  0  0  0  0
 25 33  1  0  0  0  0
  3  4  1  0  0  0  0
  3  5  1  0  0  0  0
  3  6  1  0  0  0  0
 38 41  1  0  0  0  0
 38 42  1  0  0  0  0
 38 43  1  0  0  0  0
 11 14  1  0  0  0  0
 11 15  1  0  0  0  0
 11 16  1  0  0  0  0
 45 47  1  0  0  0  0
 45 48  1  0  0  0  0
 45 49  1  0  0  0  0
 21 29  1  0  0  0  0
 21 30  1  0  0  0  0
 35 40  1  0  0  0  0
  8 13  1  0  0  0  0
 18 28  1  0  0  0  0
 23 31  1  0  0  0  0
 44 46  1  0  0  0  0
  7 12  1  0  0  0  0
 34 39  1  0  0  0  0
 17 27  1  0  0  0  0
M  END
$$$$

  -OEChem-05262214473D

 49 49  0     1  0  0  0  0  0999 V2000
   -1.5619    0.5658    3.7981 C   0  0  0  0  0  0  0  0  0  0  0  0
   -0.6145   -0.0489    3.3224 O   0  0  0  0  0  0  0  0  0  0  0  0
   -1.9938    0.2834    5.1988 C   0  0  0  0  0  0  0  0  0  0  0  0
   -2.7535   -0.5129    5.2522 H   0  0  0  0  0  0  0  0  0  0  0  0
   -1.1626   -0.0642    5.8331 H   0  0  0  0  0  0  0  0  0  0  0  0
   -2.4318    1.1383    5.7384 H   0  0  0  0  0  0  0  0  0  0  0  0
   -2.3116    1.5383    3.1570 N   0  0  0  0  0  0  0  0  0  0  0  0
   -2.0648    1.9643    1.8046 C   0  0  2  0  0  0  0  0  0  0  0  0
   -0.7298    1.3789    1.3634 C   0  0  0  0  0  0  0  0  0  0  0  0
    0.1423    1.0262    2.1547 O   0  0  0  0  0  0  0  0  0  0  0  0
   -2.0560    3.4811    1.6952 C   0  0  0  0  0  0  0  0  0  0  0  0
   -3.0767    1.9741    3.6688 H   0  0  0  0  0  0  0  0  0  0  0  0
   -2.8689    1.5458    1.1895 H   0  0  0  0  0  0  0  0  0  0  0  0
   -1.2569    3.9183    2.3049 H   0  0  0  0  0  0  0  0  0  0  0  0
   -1.8965    3.8033    0.6609 H   0  0  0  0  0  0  0  0  0  0  0  0
   -3.0062    3.9023    2.0409 H   0  0  0  0  0  0  0  0  0  0  0  0
   -0.6071    1.3358   -0.0200 N   0  0  0  0  0  0  0  0  0  0  0  0
    0.5702    0.8350   -0.6836 C   0  0  2  0  0  0  0  0  0  0  0  0
    0.4951    1.2874   -2.1376 C   0  0  0  0  0  0  0  0  0  0  0  0
   -0.5673    1.4988   -2.7186 O   0  0  0  0  0  0  0  0  0  0  0  0
    0.6733   -0.6925   -0.6055 C   0  0  0  0  0  0  0  0  0  0  0  0
    0.8348   -1.1950    0.8084 C   0  0  0  0  0  0  0  0  0  0  0  0
    2.0089   -1.0919    1.4998 N   0  0  0  0  0  0  0  0  0  0  0  0
   -0.0330   -1.8122    1.6782 C   0  0  0  0  0  0  0  0  0  0  0  0
    1.8065   -1.6413    2.7354 C   0  0  0  0  0  0  0  0  0  0  0  0
    0.5779   -2.0871    2.8761 N   0  0  0  0  0  0  0  0  0  0  0  0
   -1.3903    1.6325   -0.5973 H   0  0  0  0  0  0  0  0  0  0  0  0
    1.4291    1.3167   -0.2018 H   0  0  0  0  0  0  0  0  0  0  0  0
    1.5093   -1.0494   -1.2222 H   0  0  0  0  0  0  0  0  0  0  0  0
   -0.2221   -1.1599   -1.0363 H   0  0  0  0  0  0  0  0  0  0  0  0
    2.8715   -0.6856    1.1620 H   0  0  0  0  0  0  0  0  0  0  0  0
   -1.0672   -2.0736    1.5052 H   0  0  0  0  0  0  0  0  0  0  0  0
    2.5890   -1.6846    3.4796 H   0  0  0  0  0  0  0  0  0  0  0  0
    1.7550    1.4738   -2.6894 N   0  0  0  0  0  0  0  0  0  0  0  0
    1.9684    1.9229   -4.0465 C   0  0  2  0  0  0  0  0  0  0  0  0
    1.1211    1.0552   -4.9677 C   0  0  0  0  0  0  0  0  0  0  0  0
    0.7272   -0.0671   -4.6572 O   0  0  0  0  0  0  0  0  0  0  0  0
    3.4382    1.8482   -4.4293 C   0  0  0  0  0  0  0  0  0  0  0  0
    2.5679    1.2851   -2.1103 H   0  0  0  0  0  0  0  0  0  0  0  0
    1.6175    2.9595   -4.0954 H   0  0  0  0  0  0  0  0  0  0  0  0
    3.8077    0.8171   -4.3861 H   0  0  0  0  0  0  0  0  0  0  0  0
    3.6021    2.2155   -5.4478 H   0  0  0  0  0  0  0  0  0  0  0  0
    4.0496    2.4491   -3.7475 H   0  0  0  0  0  0  0  0  0  0  0  0
    0.8929    1.6638   -6.1939 N   0  0  0  0  0  0  0  0  0  0  0  0
    0.1260    1.0367   -7.2449 C   0  0  0  0  0  0  0  0  0  0  0  0
    1.2415    2.6037   -6.3578 H   0  0  0  0  0  0  0  0  0  0  0  0
    0.8025    0.4840   -7.9134 H   0  0  0  0  0  0  0  0  0  0  0  0
   -0.6015    0.3404   -6.8023 H   0  0  0  0  0  0  0  0  0  0  0  0
   -0.4076    1.8081   -7.8195 H   0  0  0  0  0  0  0  0  0  0  0  0
 22 24  2  0  0  0  0
 24 26  1  0  0  0  0
 25 26  2  0  0  0  0
 23 25  1  0  0  0  0
 21 22  1  0  0  0  0
 22 23  1  0  0  0  0
  1  3  1  0  0  0  0
  1  7  1  0  0  0  0
  1  2  2  0  0  0  0
 35 36  1  0  0  0  0
 36 44  1  0  0  0  0
 36 37  2  0  0  0  0
  8  9  1  0  0  0  0
  9 17  1  0  0  0  0
  9 10  2  0  0  0  0
 18 19  1  0  0  0  0
 19 34  1  0  0  0  0
 19 20  2  0  0  0  0
 35 38  1  0  0  0  0
  8 11  1  0  0  0  0
 44 45  1  0  0  0  0
 18 21  1  0  0  0  0
 34 35  1  0  0  0  0
  7  8  1  0  0  0  0
 17 18  1  0  0  0  0
 24 32  1  0  0  0  0
 25 33  1  0  0  0  0
  3  4  1  0  0  0  0
  3  5  1  0  0  0  0
  3  6  1  0  0  0  0
 38 41  1  0  0  0  0
 38 42  1  0  0  0  0
 38 43  1  0  0  0  0
 11 14  1  0  0  0  0
 11 15  1  0  0  0  0
 11 16  1  0  0  0  0
 45 47  1  0  0  0  0
 45 48  1  0  0  0  0
 45 49  1  0  0  0  0
 21 29  1  0  0  0  0
 21 30  1  0  0  0  0
 35 40  1  0  0  0  0
  8 13  1  0  0  0  0
 18 28  1  0  0  0  0
 23 31  1  0  0  0  0
 44 46  1  0  0  0  0
  7 12  1  0  0  0  0
 34 39  1  0  0  0  0
 17 27  1  0  0  0  0
M  END
$$$$

  -OEChem-05262214473D

 49 49  0     1  0  0  0  0  0999 V2000
   -1.5619    0.5658    3.7981 C   0  0  0  0  0  0  0  0  0  0  0  0
   -0.6145   -0.0489    3.3224 O   0  0  0  0  0  0  0  0  0  0  0  0
   -1.9938    0.2834    5.1988 C   0  0  0  0  0  0  0  0  0  0  0  0
   -2.7535   -0.5129    5.2522 H   0  0  0  0  0  0  0  0  0  0  0  0
   -1.1626   -0.0642    5.8331 H   0  0  0  0  0  0  0  0  0  0  0  0
   -2.4318    1.1383    5.7384 H   0  0  0  0  0  0  0  0  0  0  0  0
   -2.3116    1.5383    3.1570 N   0  0  0  0  0  0  0  0  0  0  0  0
   -2.0648    1.9643    1.8046 C   0  0  2  0  0  0  0  0  0  0  0  0
   -0.7298    1.3789    1.3634 C   0  0  0  0  0  0  0  0  0  0  0  0
    0.1423    1.0262    2.1547 O   0  0  0  0  0  0  0  0  0  0  0  0
   -2.0560    3.4811    1.6952 C   0  0  0  0  0  0  0  0  0  0  0  0
   -3.0767    1.9741    3.6688 H   0  0  0  0  0  0  0  0  0  0  0  0
   -2.8689    1.5458    1.1895 H   0  0  0  0  0  0  0  0  0  0  0  0
   -1.2569    3.9183    2.3049 H   0  0  0  0  0  0  0  0  0  0  0  0
   -1.8965    3.8033    0.6609 H   0  0  0  0  0  0  0  0  0  0  0  0
   -3.0062    3.9023    2.0409 H   0  0  0  0  0  0  0  0  0  0  0  0
   -0.6071    1.3358   -0.0200 N   0  0  0  0  0  0  0  0  0  0  0  0
    0.5702    0.8350   -0.6836 C   0  0  2  0  0  0  0  0  0  0  0  0
    0.4951    1.2874   -2.1376 C   0  0  0  0  0  0  0  0  0  0  0  0
   -0.5246    1.7532   -2.6416 O   0  0  0  0  0  0  0  0  0  0  0  0
    0.6733   -0.6925   -0.6055 C   0  0  0  0  0  0  0  0  0  0  0  0
    0.8348   -1.1950    0.8084 C   0  0  0  0  0  0  0  0  0  0  0  0
    2.0089   -1.0919    1.4998 N   0  0  0  0  0  0  0  0  0  0  0  0
   -0.0330   -1.8122    1.6782 C   0  0  0  0  0  0  0  0  0  0  0  0
    1.8065   -1.6413    2.7354 C   0  0  0  0  0  0  0  0  0  0  0  0
    0.5779   -2.0871    2.8761 N   0  0  0  0  0  0  0  0  0  0  0  0
   -1.3903    1.6325   -0.5973 H   0  0  0  0  0  0  0  0  0  0  0  0
    1.4291    1.3167   -0.2018 H   0  0  0  0  0  0  0  0  0  0  0  0
    1.5093   -1.0494   -1.2222 H   0  0  0  0  0  0  0  0  0  0  0  0
   -0.2221   -1.1599   -1.0363 H   0  0  0  0  0  0  0  0  0  0  0  0
    2.8715   -0.6856    1.1620 H   0  0  0  0  0  0  0  0  0  0  0  0
   -1.0672   -2.0736    1.5052 H   0  0  0  0  0  0  0  0  0  0  0  0
    2.5890   -1.6846    3.4796 H   0  0  0  0  0  0  0  0  0  0  0  0
    1.7148    1.1547   -2.7866 N   0  0  0  0  0  0  0  0  0  0  0  0
    1.9252    1.5328   -4.1656 C   0  0  2  0  0  0  0  0  0  0  0  0
    0.8207    0.8988   -5.0009 C   0  0  0  0  0  0  0  0  0  0  0  0
    0.1881   -0.0902   -4.6366 O   0  0  0  0  0  0  0  0  0  0  0  0
    3.2966    1.0957   -4.6562 C   0  0  0  0  0  0  0  0  0  0  0  0
    2.4990    0.7726   -2.2663 H   0  0  0  0  0  0  0  0  0  0  0  0
    1.8377    2.6239   -4.2113 H   0  0  0  0  0  0  0  0  0  0  0  0
    3.4029    0.0054   -4.6177 H   0  0  0  0  0  0  0  0  0  0  0  0
    3.4656    1.4079   -5.6920 H   0  0  0  0  0  0  0  0  0  0  0  0
    4.0887    1.5289   -4.0359 H   0  0  0  0  0  0  0  0  0  0  0  0
    0.6540    1.5412   -6.2197 N   0  0  0  0  0  0  0  0  0  0  0  0
   -0.3237    1.1200   -7.1958 C   0  0  0  0  0  0  0  0  0  0  0  0
    1.2095    2.3651   -6.4304 H   0  0  0  0  0  0  0  0  0  0  0  0
    0.1413    0.4151   -7.9007 H   0  0  0  0  0  0  0  0  0  0  0  0
   -1.1632    0.6266   -6.6842 H   0  0  0  0  0  0  0  0  0  0  0  0
   -0.6942    1.9976   -7.7457 H   0  0  0  0  0  0  0  0  0  0  0  0
 22 24  2  0  0  0  0
 24 26  1  0  0  0  0
 25 26  2  0  0  0  0
 23 25  1  0  0  0  0
 21 22  1  0  0  0  0
 22 23  1  0  0  0  0
  1  3  1  0  0  0  0
  1  7  1  0  0  0  0
  1  2  2  0  0  0  0
 35 36  1  0  0  0  0
 36 44  1  0  0  0  0
 36 37  2  0  0  0  0
  8  9  1  0  0  0  0
  9 17  1  0  0  0  0
  9 10  2  0  0  0  0
 18 19  1  0  0  0  0
 19 34  1  0  0  0  0
 19 20  2  0  0  0  0
 35 38  1  0  0  0  0
  8 11  1  0  0  0  0
 44 45  1  0  0  0  0
 18 21  1  0  0  0  0
 34 35  1  0  0  0  0
  7  8  1  0  0  0  0
 17 18  1  0  0  0  0
 24 32  1  0  0  0  0
 25 33  1  0  0  0  0
  3  4  1  0  0  0  0
  3  5  1  0  0  0  0
  3  6  1  0  0  0  0
 38 41  1  0  0  0  0
 38 42  1  0  0  0  0
 38 43  1  0  0  0  0
 11 14  1  0  0  0  0
 11 15  1  0  0  0  0
 11 16  1  0  0  0  0
 45 47  1  0  0  0  0
 45 48  1  0  0  0  0
 45 49  1  0  0  0  0
 21 29  1  0  0  0  0
 21 30  1  0  0  0  0
 35 40  1  0  0  0  0
  8 13  1  0  0  0  0
 18 28  1  0  0  0  0
 23 31  1  0  0  0  0
 44 46  1  0  0  0  0
  7 12  1  0  0  0  0
 34 39  1  0  0  0  0
 17 27  1  0  0  0  0
M  END
$$$$

  -OEChem-05262214473D

 49 49  0     1  0  0  0  0  0999 V2000
   -1.5619    0.5658    3.7981 C   0  0  0  0  0  0  0  0  0  0  0  0
   -0.6145   -0.0489    3.3224 O   0  0  0  0  0  0  0  0  0  0  0  0
   -1.9938    0.2834    5.1988 C   0  0  0  0  0  0  0  0  0  0  0  0
   -2.7535   -0.5129    5.2522 H   0  0  0  0  0  0  0  0  0  0  0  0
   -1.1626   -0.0642    5.8331 H   0  0  0  0  0  0  0  0  0  0  0  0
   -2.4318    1.1383    5.7384 H   0  0  0  0  0  0  0  0  0  0  0  0
   -2.3116    1.5383    3.1570 N   0  0  0  0  0  0  0  0  0  0  0  0
   -2.0648    1.9643    1.8046 C   0  0  2  0  0  0  0  0  0  0  0  0
   -0.7298    1.3789    1.3634 C   0  0  0  0  0  0  0  0  0  0  0  0
    0.1423    1.0262    2.1547 O   0  0  0  0  0  0  0  0  0  0  0  0
   -2.0560    3.4811    1.6952 C   0  0  0  0  0  0  0  0  0  0  0  0
   -3.0767    1.9741    3.6688 H   0  0  0  0  0  0  0  0  0  0  0  0
   -2.8689    1.5458    1.1895 H   0  0  0  0  0  0  0  0  0  0  0  0
   -1.2569    3.9183    2.3049 H   0  0  0  0  0  0  0  0  0  0  0  0
   -1.8965    3.8033    0.6609 H   0  0  0  0  0  0  0  0  0  0  0  0
   -3.0062    3.9023    2.0409 H   0  0  0  0  0  0  0  0  0  0  0  0
   -0.6071    1.3358   -0.0200 N   0  0  0  0  0  0  0  0  0  0  0  0
    0.5702    0.8350   -0.6836 C   0  0  2  0  0  0  0  0  0  0  0  0
    0.6949    1.5830   -2.0062 C   0  0  0  0  0  0  0  0  0  0  0  0
   -0.0830    2.4710   -2.3486 O   0  0  0  0  0  0  0  0  0  0  0  0
    0.4968   -0.6761   -0.9309 C   0  0  0  0  0  0  0  0  0  0  0  0
    0.4562   -1.4756    0.3485 C   0  0  0  0  0  0  0  0  0  0  0  0
    1.5572   -1.6693    1.1342 N   0  0  0  0  0  0  0  0  0  0  0  0
   -0.5587   -2.1416    0.9942 C   0  0  0  0  0  0  0  0  0  0  0  0
    1.1700   -2.4306    2.2019 C   0  0  0  0  0  0  0  0  0  0  0  0
   -0.1079   -2.7337    2.1474 N   0  0  0  0  0  0  0  0  0  0  0  0
   -1.3903    1.6325   -0.5973 H   0  0  0  0  0  0  0  0  0  0  0  0
    1.4226    1.0923   -0.0440 H   0  0  0  0  0  0  0  0  0  0  0  0
    1.3476   -1.0031   -1.5440 H   0  0  0  0  0  0  0  0  0  0  0  0
   -0.3954   -0.9254   -1.5205 H   0  0  0  0  0  0  0  0  0  0  0  0
    2.4893   -1.3167    0.9601 H   0  0  0  0  0  0  0  0  0  0  0  0
   -1.5921   -2.2263    0.6894 H   0  0  0  0  0  0  0  0  0  0  0  0
    1.8624   -2.7267    2.9771 H   0  0  0  0  0  0  0  0  0  0  0  0
    1.8054    1.1742   -2.7316 N   0  0  0  0  0  0  0  0  0  0  0  0
    2.1692    1.7389   -4.0113 C   0  0  2  0  0  0  0  0  0  0  0  0
    0.9331    1.7229   -4.9009 C   0  0  0  0  0  0  0  0  0  0  0  0
   -0.0159    0.9635   -4.7170 O   0  0  0  0  0  0  0  0  0  0  0  0
    3.3107    0.9656   -4.6529 C   0  0  0  0  0  0  0  0  0  0  0  0
    2.3919    0.4413   -2.3435 H   0  0  0  0  0  0  0  0  0  0  0  0
    2.4725    2.7749   -3.8251 H   0  0  0  0  0  0  0  0  0  0  0  0
    3.0255   -0.0748   -4.8470 H   0  0  0  0  0  0  0  0  0  0  0  0
    3.6041    1.4117   -5.6089 H   0  0  0  0  0  0  0  0  0  0  0  0
    4.1891    0.9529   -3.9986 H   0  0  0  0  0  0  0  0  0  0  0  0
    1.0332    2.6263   -5.9496 N   0  0  0  0  0  0  0  0  0  0  0  0
   -0.0059    2.7903   -6.9393 C   0  0  0  0  0  0  0  0  0  0  0  0
    1.8481    3.2294   -6.0136 H   0  0  0  0  0  0  0  0  0  0  0  0
    0.1984    2.1345   -7.7984 H   0  0  0  0  0  0  0  0  0  0  0  0
   -0.9777    2.5242   -6.4979 H   0  0  0  0  0  0  0  0  0  0  0  0
   -0.0302    3.8375   -7.2752 H   0  0  0  0  0  0  0  0  0  0  0  0
 22 24  2  0  0  0  0
 24 26  1  0  0  0  0
 25 26  2  0  0  0  0
 23 25  1  0  0  0  0
 21 22  1  0  0  0  0
 22 23  1  0  0  0  0
  1  3  1  0  0  0  0
  1  7  1  0  0  0  0
  1  2  2  0  0  0  0
 35 36  1  0  0  0  0
 36 44  1  0  0  0  0
 36 37  2  0  0  0  0
  8  9  1  0  0  0  0
  9 17  1  0  0  0  0
  9 10  2  0  0  0  0
 18 19  1  0  0  0  0
 19 34  1  0  0  0  0
 19 20  2  0  0  0  0
 35 38  1  0  0  0  0
  8 11  1  0  0  0  0
 44 45  1  0  0  0  0
 18 21  1  0  0  0  0
 34 35  1  0  0  0  0
  7  8  1  0  0  0  0
 17 18  1  0  0  0  0
 24 32  1  0  0  0  0
 25 33  1  0  0  0  0
  3  4  1  0  0  0  0
  3  5  1  0  0  0  0
  3  6  1  0  0  0  0
 38 41  1  0  0  0  0
 38 42  1  0  0  0  0
 38 43  1  0  0  0  0
 11 14  1  0  0  0  0
 11 15  1  0  0  0  0
 11 16  1  0  0  0  0
 45 47  1  0  0  0  0
 45 48  1  0  0  0  0
 45 49  1  0  0  0  0
 21 29  1  0  0  0  0
 21 30  1  0  0  0  0
 35 40  1  0  0  0  0
  8 13  1  0  0  0  0
 18 28  1  0  0  0  0
 23 31  1  0  0  0  0
 44 46  1  0  0  0  0
  7 12  1  0  0  0  0
 34 39  1  0  0  0  0
 17 27  1  0  0  0  0
M  END
$$$$

  -OEChem-05262214473D

 49 49  0     1  0  0  0  0  0999 V2000
   -1.5619    0.5658    3.7981 C   0  0  0  0  0  0  0  0  0  0  0  0
   -0.6145   -0.0489    3.3224 O   0  0  0  0  0  0  0  0  0  0  0  0
   -1.9938    0.2834    5.1988 C   0  0  0  0  0  0  0  0  0  0  0  0
   -2.7535   -0.5129    5.2522 H   0  0  0  0  0  0  0  0  0  0  0  0
   -1.1626   -0.0642    5.8331 H   0  0  0  0  0  0  0  0  0  0  0  0
   -2.4318    1.1383    5.7384 H   0  0  0  0  0  0  0  0  0  0  0  0
   -2.3116    1.5383    3.1570 N   0  0  0  0  0  0  0  0  0  0  0  0
   -2.0648    1.9643    1.8046 C   0  0  2  0  0  0  0  0  0  0  0  0
   -0.7298    1.3789    1.3634 C   0  0  0  0  0  0  0  0  0  0  0  0
    0.1423    1.0262    2.1547 O   0  0  0  0  0  0  0  0  0  0  0  0
   -2.0560    3.4811    1.6952 C   0  0  0  0  0  0  0  0  0  0  0  0
   -3.0767    1.9741    3.6688 H   0  0  0  0  0  0  0  0  0  0  0  0
   -2.8689    1.5458    1.1895 H   0  0  0  0  0  0  0  0  0  0  0  0
   -1.2569    3.9183    2.3049 H   0  0  0  0  0  0  0  0  0  0  0  0
   -1.8965    3.8033    0.6609 H   0  0  0  0  0  0  0  0  0  0  0  0
   -3.0062    3.9023    2.0409 H   0  0  0  0  0  0  0  0  0  0  0  0
   -0.6071    1.3358   -0.0200 N   0  0  0  0  0  0  0  0  0  0  0  0
    0.5702    0.8350   -0.6836 C   0  0  2  0  0  0  0  0  0  0  0  0
    0.6949    1.5830   -2.0062 C   0  0  0  0  0  0  0  0  0  0  0  0
    0.1013    2.6338   -2.2392 O   0  0  0  0  0  0  0  0  0  0  0  0
    0.4968   -0.6761   -0.9309 C   0  0  0  0  0  0  0  0  0  0  0  0
    0.4562   -1.4756    0.3485 C   0  0  0  0  0  0  0  0  0  0  0  0
    1.5572   -1.6693    1.1342 N   0  0  0  0  0  0  0  0  0  0  0  0
   -0.5587   -2.1416    0.9942 C   0  0  0  0  0  0  0  0  0  0  0  0
    1.1700   -2.4306    2.2019 C   0  0  0  0  0  0  0  0  0  0  0  0
   -0.1079   -2.7337    2.1474 N   0  0  0  0  0  0  0  0  0  0  0  0
   -1.3903    1.6325   -0.5973 H   0  0  0  0  0  0  0  0  0  0  0  0
    1.4226    1.0923   -0.0440 H   0  0  0  0  0  0  0  0  0  0  0  0
    1.3476   -1.0031   -1.5440 H   0  0  0  0  0  0  0  0  0  0  0  0
   -0.3954   -0.9254   -1.5205 H   0  0  0  0  0  0  0  0  0  0  0  0
    2.4893   -1.3167    0.9601 H   0  0  0  0  0  0  0  0  0  0  0  0
   -1.5921   -2.2263    0.6894 H   0  0  0  0  0  0  0  0  0  0  0  0
    1.8624   -2.7267    2.9771 H   0  0  0  0  0  0  0  0  0  0  0  0
    1.5851    0.9629   -2.8719 N   0  0  0  0  0  0  0  0  0  0  0  0
    1.9047    1.4774   -4.1841 C   0  0  2  0  0  0  0  0  0  0  0  0
    0.5961    1.7694   -4.9064 C   0  0  0  0  0  0  0  0  0  0  0  0
   -0.4694    1.2349   -4.6063 O   0  0  0  0  0  0  0  0  0  0  0  0
    2.7530    0.4922   -4.9732 C   0  0  0  0  0  0  0  0  0  0  0  0
    2.0345    0.1042   -2.5679 H   0  0  0  0  0  0  0  0  0  0  0  0
    2.4550    2.4123   -4.0318 H   0  0  0  0  0  0  0  0  0  0  0  0
    2.2182   -0.4507   -5.1357 H   0  0  0  0  0  0  0  0  0  0  0  0
    3.0182    0.8954   -5.9561 H   0  0  0  0  0  0  0  0  0  0  0  0
    3.6803    0.2605   -4.4382 H   0  0  0  0  0  0  0  0  0  0  0  0
    0.7662    2.6646   -5.9532 N   0  0  0  0  0  0  0  0  0  0  0  0
   -0.3240    3.0915   -6.7989 C   0  0  0  0  0  0  0  0  0  0  0  0
    1.6818    3.0724   -6.1181 H   0  0  0  0  0  0  0  0  0  0  0  0
   -0.3817    2.4377   -7.6816 H   0  0  0  0  0  0  0  0  0  0  0  0
   -1.2680    3.0334   -6.2373 H   0  0  0  0  0  0  0  0  0  0  0  0
   -0.1527    4.1290   -7.1219 H   0  0  0  0  0  0  0  0  0  0  0  0
 22 24  2  0  0  0  0
 24 26  1  0  0  0  0
 25 26  2  0  0  0  0
 23 25  1  0  0  0  0
 21 22  1  0  0  0  0
 22 23  1  0  0  0  0
  1  3  1  0  0  0  0
  1  7  1  0  0  0  0
  1  2  2  0  0  0  0
 35 36  1  0  0  0  0
 36 44  1  0  0  0  0
 36 37  2  0  0  0  0
  8  9  1  0  0  0  0
  9 17  1  0  0  0  0
  9 10  2  0  0  0  0
 18 19  1  0  0  0  0
 19 34  1  0  0  0  0
 19 20  2  0  0  0  0
 35 38  1  0  0  0  0
  8 11  1  0  0  0  0
 44 45  1  0  0  0  0
 18 21  1  0  0  0  0
 34 35  1  0  0  0  0
  7  8  1  0  0  0  0
 17 18  1  0  0  0  0
 24 32  1  0  0  0  0
 25 33  1  0  0  0  0
  3  4  1  0  0  0  0
  3  5  1  0  0  0  0
  3  6  1  0  0  0  0
 38 41  1  0  0  0  0
 38 42  1  0  0  0  0
 38 43  1  0  0  0  0
 11 14  1  0  0  0  0
 11 15  1  0  0  0  0
 11 16  1  0  0  0  0
 45 47  1  0  0  0  0
 45 48  1  0  0  0  0
 45 49  1  0  0  0  0
 21 29  1  0  0  0  0
 21 30  1  0  0  0  0
 35 40  1  0  0  0  0
  8 13  1  0  0  0  0
 18 28  1  0  0  0  0
 23 31  1  0  0  0  0
 44 46  1  0  0  0  0
  7 12  1  0  0  0  0
 34 39  1  0  0  0  0
 17 27  1  0  0  0  0
M  END
$$$$

  -OEChem-05262214473D

 49 49  0     1  0  0  0  0  0999 V2000
   -1.5619    0.5658    3.7981 C   0  0  0  0  0  0  0  0  0  0  0  0
   -0.6145   -0.0489    3.3224 O   0  0  0  0  0  0  0  0  0  0  0  0
   -1.9938    0.2834    5.1988 C   0  0  0  0  0  0  0  0  0  0  0  0
   -2.7535   -0.5129    5.2522 H   0  0  0  0  0  0  0  0  0  0  0  0
   -1.1626   -0.0642    5.8331 H   0  0  0  0  0  0  0  0  0  0  0  0
   -2.4318    1.1383    5.7384 H   0  0  0  0  0  0  0  0  0  0  0  0
   -2.3116    1.5383    3.1570 N   0  0  0  0  0  0  0  0  0  0  0  0
   -2.0648    1.9643    1.8046 C   0  0  2  0  0  0  0  0  0  0  0  0
   -0.7298    1.3789    1.3634 C   0  0  0  0  0  0  0  0  0  0  0  0
    0.1423    1.0262    2.1547 O   0  0  0  0  0  0  0  0  0  0  0  0
   -2.0560    3.4811    1.6952 C   0  0  0  0  0  0  0  0  0  0  0  0
   -3.0767    1.9741    3.6688 H   0  0  0  0  0  0  0  0  0  0  0  0
   -2.8689    1.5458    1.1895 H   0  0  0  0  0  0  0  0  0  0  0  0
   -1.2569    3.9183    2.3049 H   0  0  0  0  0  0  0  0  0  0  0  0
   -1.8965    3.8033    0.6609 H   0  0  0  0  0  0  0  0  0  0  0  0
   -3.0062    3.9023    2.0409 H   0  0  0  0  0  0  0  0  0  0  0  0
   -0.6071    1.3358   -0.0200 N   0  0  0  0  0  0  0  0  0  0  0  0
    0.5702    0.8350   -0.6836 C   0  0  2  0  0  0  0  0  0  0  0  0
    0.6949    1.5830   -2.0062 C   0  0  0  0  0  0  0  0  0  0  0  0
    0.3297    2.7474   -2.1534 O   0  0  0  0  0  0  0  0  0  0  0  0
    0.4968   -0.6761   -0.9309 C   0  0  0  0  0  0  0  0  0  0  0  0
    0.4562   -1.4756    0.3485 C   0  0  0  0  0  0  0  0  0  0  0  0
    1.5572   -1.6693    1.1342 N   0  0  0  0  0  0  0  0  0  0  0  0
   -0.5587   -2.1416    0.9942 C   0  0  0  0  0  0  0  0  0  0  0  0
    1.1700   -2.4306    2.2019 C   0  0  0  0  0  0  0  0  0  0  0  0
   -0.1079   -2.7337    2.1474 N   0  0  0  0  0  0  0  0  0  0  0  0
   -1.3903    1.6325   -0.5973 H   0  0  0  0  0  0  0  0  0  0  0  0
    1.4226    1.0923   -0.0440 H   0  0  0  0  0  0  0  0  0  0  0  0
    1.3476   -1.0031   -1.5440 H   0  0  0  0  0  0  0  0  0  0  0  0
   -0.3954   -0.9254   -1.5205 H   0  0  0  0  0  0  0  0  0  0  0  0
    2.4893   -1.3167    0.9601 H   0  0  0  0  0  0  0  0  0  0  0  0
   -1.5921   -2.2263    0.6894 H   0  0  0  0  0  0  0  0  0  0  0  0
    1.8624   -2.7267    2.9771 H   0  0  0  0  0  0  0  0  0  0  0  0
    1.3070    0.8111   -2.9839 N   0  0  0  0  0  0  0  0  0  0  0  0
    1.5686    1.2878   -4.3230 C   0  0  2  0  0  0  0  0  0  0  0  0
    0.2803    1.8901   -4.8679 C   0  0  0  0  0  0  0  0  0  0  0  0
   -0.8326    1.5965   -4.4361 O   0  0  0  0  0  0  0  0  0  0  0  0
    2.0673    0.1670   -5.2218 C   0  0  0  0  0  0  0  0  0  0  0  0
    1.5852   -0.1365   -2.7464 H   0  0  0  0  0  0  0  0  0  0  0  0
    2.3304    2.0703   -4.2370 H   0  0  0  0  0  0  0  0  0  0  0  0
    1.3174   -0.6264   -5.3200 H   0  0  0  0  0  0  0  0  0  0  0  0
    2.2922    0.5357   -6.2281 H   0  0  0  0  0  0  0  0  0  0  0  0
    2.9775   -0.2847   -4.8128 H   0  0  0  0  0  0  0  0  0  0  0  0
    0.5165    2.7615   -5.9220 N   0  0  0  0  0  0  0  0  0  0  0  0
   -0.5457    3.4508   -6.6166 C   0  0  0  0  0  0  0  0  0  0  0  0
    1.4726    2.9604   -6.2012 H   0  0  0  0  0  0  0  0  0  0  0  0
   -0.8592    2.8583   -7.4887 H   0  0  0  0  0  0  0  0  0  0  0  0
   -1.4010    3.5849   -5.9380 H   0  0  0  0  0  0  0  0  0  0  0  0
   -0.1861    4.4348   -6.9521 H   0  0  0  0  0  0  0  0  0  0  0  0
 22 24  2  0  0  0  0
 24 26  1  0  0  0  0
 25 26  2  0  0  0  0
 23 25  1  0  0  0  0
 21 22  1  0  0  0  0
 22 23  1  0  0  0  0
  1  3  1  0  0  0  0
  1  7  1  0  0  0  0
  1  2  2  0  0  0  0
 35 36  1  0  0  0  0
 36 44  1  0  0  0  0
 36 37  2  0  0  0  0
  8  9  1  0  0  0  0
  9 17  1  0  0  0  0
  9 10  2  0  0  0  0
 18 19  1  0  0  0  0
 19 34  1  0  0  0  0
 19 20  2  0  0  0  0
 35 38  1  0  0  0  0
  8 11  1  0  0  0  0
 44 45  1  0  0  0  0
 18 21  1  0  0  0  0
 34 35  1  0  0  0  0
  7  8  1  0  0  0  0
 17 18  1  0  0  0  0
 24 32  1  0  0  0  0
 25 33  1  0  0  0  0
  3  4  1  0  0  0  0
  3  5  1  0  0  0  0
  3  6  1  0  0  0  0
 38 41  1  0  0  0  0
 38 42  1  0  0  0  0
 38 43  1  0  0  0  0
 11 14  1  0  0  0  0
 11 15  1  0  0  0  0
 11 16  1  0  0  0  0
 45 47  1  0  0  0  0
 45 48  1  0  0  0  0
 45 49  1  0  0  0  0
 21 29  1  0  0  0  0
 21 30  1  0  0  0  0
 35 40  1  0  0  0  0
  8 13  1  0  0  0  0
 18 28  1  0  0  0  0
 23 31  1  0  0  0  0
 44 46  1  0  0  0  0
  7 12  1  0  0  0  0
 34 39  1  0  0  0  0
 17 27  1  0  0  0  0
M  END
$$$$

  -OEChem-05262214473D

 49 49  0     1  0  0  0  0  0999 V2000
   -1.5619    0.5658    3.7981 C   0  0  0  0  0  0  0  0  0  0  0  0
   -0.6145   -0.0489    3.3224 O   0  0  0  0  0  0  0  0  0  0  0  0
   -1.9938    0.2834    5.1988 C   0  0  0  0  0  0  0  0  0  0  0  0
   -2.7535   -0.5129    5.2522 H   0  0  0  0  0  0  0  0  0  0  0  0
   -1.1626   -0.0642    5.8331 H   0  0  0  0  0  0  0  0  0  0  0  0
   -2.4318    1.1383    5.7384 H   0  0  0  0  0  0  0  0  0  0  0  0
   -2.3116    1.5383    3.1570 N   0  0  0  0  0  0  0  0  0  0  0  0
   -2.0648    1.9643    1.8046 C   0  0  2  0  0  0  0  0  0  0  0  0
   -0.7298    1.3789    1.3634 C   0  0  0  0  0  0  0  0  0  0  0  0
    0.1423    1.0262    2.1547 O   0  0  0  0  0  0  0  0  0  0  0  0
   -2.0560    3.4811    1.6952 C   0  0  0  0  0  0  0  0  0  0  0  0
   -3.0767    1.9741    3.6688 H   0  0  0  0  0  0  0  0  0  0  0  0
   -2.8689    1.5458    1.1895 H   0  0  0  0  0  0  0  0  0  0  0  0
   -1.2569    3.9183    2.3049 H   0  0  0  0  0  0  0  0  0  0  0  0
   -1.8965    3.8033    0.6609 H   0  0  0  0  0  0  0  0  0  0  0  0
   -3.0062    3.9023    2.0409 H   0  0  0  0  0  0  0  0  0  0  0  0
   -0.6071    1.3358   -0.0200 N   0  0  0  0  0  0  0  0  0  0  0  0
    0.5702    0.8350   -0.6836 C   0  0  2  0  0  0  0  0  0  0  0  0
    0.6949    1.5830   -2.0062 C   0  0  0  0  0  0  0  0  0  0  0  0
    0.5868    2.8041   -2.0971 O   0  0  0  0  0  0  0  0  0  0  0  0
    0.4968   -0.6761   -0.9309 C   0  0  0  0  0  0  0  0  0  0  0  0
    0.4562   -1.4756    0.3485 C   0  0  0  0  0  0  0  0  0  0  0  0
    1.5572   -1.6693    1.1342 N   0  0  0  0  0  0  0  0  0  0  0  0
   -0.5587   -2.1416    0.9942 C   0  0  0  0  0  0  0  0  0  0  0  0
    1.1700   -2.4306    2.2019 C   0  0  0  0  0  0  0  0  0  0  0  0
   -0.1079   -2.7337    2.1474 N   0  0  0  0  0  0  0  0  0  0  0  0
   -1.3903    1.6325   -0.5973 H   0  0  0  0  0  0  0  0  0  0  0  0
    1.4226    1.0923   -0.0440 H   0  0  0  0  0  0  0  0  0  0  0  0
    1.3476   -1.0031   -1.5440 H   0  0  0  0  0  0  0  0  0  0  0  0
   -0.3954   -0.9254   -1.5205 H   0  0  0  0  0  0  0  0  0  0  0  0
    2.4893   -1.3167    0.9601 H   0  0  0  0  0  0  0  0  0  0  0  0
   -1.5921   -2.2263    0.6894 H   0  0  0  0  0  0  0  0  0  0  0  0
    1.8624   -2.7267    2.9771 H   0  0  0  0  0  0  0  0  0  0  0  0
    0.9902    0.7294   -3.0601 N   0  0  0  0  0  0  0  0  0  0  0  0
    1.1838    1.1832   -4.4185 C   0  0  2  0  0  0  0  0  0  0  0  0
    0.0072    2.0768   -4.7881 C   0  0  0  0  0  0  0  0  0  0  0  0
   -1.0805    2.0237   -4.2178 O   0  0  0  0  0  0  0  0  0  0  0  0
    1.3005    0.0121   -5.3817 C   0  0  0  0  0  0  0  0  0  0  0  0
    1.0744   -0.2642   -2.8668 H   0  0  0  0  0  0  0  0  0  0  0  0
    2.1073    1.7723   -4.4266 H   0  0  0  0  0  0  0  0  0  0  0  0
    0.3845   -0.5899   -5.3874 H   0  0  0  0  0  0  0  0  0  0  0  0
    1.4756    0.3569   -6.4062 H   0  0  0  0  0  0  0  0  0  0  0  0
    2.1287   -0.6457   -5.0970 H   0  0  0  0  0  0  0  0  0  0  0  0
    0.3009    2.9105   -5.8580 N   0  0  0  0  0  0  0  0  0  0  0  0
   -0.6561    3.8439   -6.4047 C   0  0  0  0  0  0  0  0  0  0  0  0
    1.2349    2.9008   -6.2573 H   0  0  0  0  0  0  0  0  0  0  0  0
   -1.2015    3.3677   -7.2329 H   0  0  0  0  0  0  0  0  0  0  0  0
   -1.3676    4.1411   -5.6202 H   0  0  0  0  0  0  0  0  0  0  0  0
   -0.1282    4.7341   -6.7773 H   0  0  0  0  0  0  0  0  0  0  0  0
 22 24  2  0  0  0  0
 24 26  1  0  0  0  0
 25 26  2  0  0  0  0
 23 25  1  0  0  0  0
 21 22  1  0  0  0  0
 22 23  1  0  0  0  0
  1  3  1  0  0  0  0
  1  7  1  0  0  0  0
  1  2  2  0  0  0  0
 35 36  1  0  0  0  0
 36 44  1  0  0  0  0
 36 37  2  0  0  0  0
  8  9  1  0  0  0  0
  9 17  1  0  0  0  0
  9 10  2  0  0  0  0
 18 19  1  0  0  0  0
 19 34  1  0  0  0  0
 19 20  2  0  0  0  0
 35 38  1  0  0  0  0
  8 11  1  0  0  0  0
 44 45  1  0  0  0  0
 18 21  1  0  0  0  0
 34 35  1  0  0  0  0
  7  8  1  0  0  0  0
 17 18  1  0  0  0  0
 24 32  1  0  0  0  0
 25 33  1  0  0  0  0
  3  4  1  0  0  0  0
  3  5  1  0  0  0  0
  3  6  1  0  0  0  0
 38 41  1  0  0  0  0
 38 42  1  0  0  0  0
 38 43  1  0  0  0  0
 11 14  1  0  0  0  0
 11 15  1  0  0  0  0
 11 16  1  0  0  0  0
 45 47  1  0  0  0  0
 45 48  1  0  0  0  0
 45 49  1  0  0  0  0
 21 29  1  0  0  0  0
 21 30  1  0  0  0  0
 35 40  1  0  0  0  0
  8 13  1  0  0  0  0
 18 28  1  0  0  0  0
 23 31  1  0  0  0  0
 44 46  1  0  0  0  0
  7 12  1  0  0  0  0
 34 39  1  0  0  0  0
 17 27  1  0  0  0  0
M  END
$$$$

  -OEChem-05262214473D

 49 49  0     1  0  0  0  0  0999 V2000
   -1.5619    0.5658    3.7981 C   0  0  0  0  0  0  0  0  0  0  0  0
   -0.6145   -0.0489    3.3224 O   0  0  0  0  0  0  0  0  0  0  0  0
   -1.9938    0.2834    5.1988 C   0  0  0  0  0  0  0  0  0  0  0  0
   -2.7535   -0.5129    5.2522 H   0  0  0  0  0  0  0  0  0  0  0  0
   -1.1626   -0.0642    5.8331 H   0  0  0  0  0  0  0  0  0  0  0  0
   -2.4318    1.1383    5.7384 H   0  0  0  0  0  0  0  0  0  0  0  0
   -2.3116    1.5383    3.1570 N   0  0  0  0  0  0  0  0  0  0  0  0
   -2.0648    1.9643    1.8046 C   0  0  2  0  0  0  0  0  0  0  0  0
   -0.7298    1.3789    1.3634 C   0  0  0  0  0  0  0  0  0  0  0  0
    0.1423    1.0262    2.1547 O   0  0  0  0  0  0  0  0  0  0  0  0
   -2.0560    3.4811    1.6952 C   0  0  0  0  0  0  0  0  0  0  0  0
   -3.0767    1.9741    3.6688 H   0  0  0  0  0  0  0  0  0  0  0  0
   -2.8689    1.5458    1.1895 H   0  0  0  0  0  0  0  0  0  0  0  0
   -1.2569    3.9183    2.3049 H   0  0  0  0  0  0  0  0  0  0  0  0
   -1.8965    3.8033    0.6609 H   0  0  0  0  0  0  0  0  0  0  0  0
   -3.0062    3.9023    2.0409 H   0  0  0  0  0  0  0  0  0  0  0  0
   -0.6071    1.3358   -0.0200 N   0  0  0  0  0  0  0  0  0  0  0  0
    0.5702    0.8350   -0.6836 C   0  0  2  0  0  0  0  0  0  0  0  0
    0.6949    1.5830   -2.0062 C   0  0  0  0  0  0  0  0  0  0  0  0
    0.8550    2.7998   -2.0742 O   0  0  0  0  0  0  0  0  0  0  0  0
    0.4968   -0.6761   -0.9309 C   0  0  0  0  0  0  0  0  0  0  0  0
    0.4562   -1.4756    0.3485 C   0  0  0  0  0  0  0  0  0  0  0  0
    1.5572   -1.6693    1.1342 N   0  0  0  0  0  0  0  0  0  0  0  0
   -0.5587   -2.1416    0.9942 C   0  0  0  0  0  0  0  0  0  0  0  0
    1.1700   -2.4306    2.2019 C   0  0  0  0  0  0  0  0  0  0  0  0
   -0.1079   -2.7337    2.1474 N   0  0  0  0  0  0  0  0  0  0  0  0
   -1.3903    1.6325   -0.5973 H   0  0  0  0  0  0  0  0  0  0  0  0
    1.4226    1.0923   -0.0440 H   0  0  0  0  0  0  0  0  0  0  0  0
    1.3476   -1.0031   -1.5440 H   0  0  0  0  0  0  0  0  0  0  0  0
   -0.3954   -0.9254   -1.5205 H   0  0  0  0  0  0  0  0  0  0  0  0
    2.4893   -1.3167    0.9601 H   0  0  0  0  0  0  0  0  0  0  0  0
   -1.5921   -2.2263    0.6894 H   0  0  0  0  0  0  0  0  0  0  0  0
    1.8624   -2.7267    2.9771 H   0  0  0  0  0  0  0  0  0  0  0  0
    0.6561    0.7232   -3.0951 N   0  0  0  0  0  0  0  0  0  0  0  0
    0.7764    1.1705   -4.4641 C   0  0  2  0  0  0  0  0  0  0  0  0
   -0.2045    2.3167   -4.6723 C   0  0  0  0  0  0  0  0  0  0  0  0
   -1.1964    2.4874   -3.9665 O   0  0  0  0  0  0  0  0  0  0  0  0
    0.5046    0.0381   -5.4421 C   0  0  0  0  0  0  0  0  0  0  0  0
    0.5371   -0.2704   -2.9210 H   0  0  0  0  0  0  0  0  0  0  0  0
    1.8007    1.5386   -4.5877 H   0  0  0  0  0  0  0  0  0  0  0  0
   -0.5170   -0.3438   -5.3332 H   0  0  0  0  0  0  0  0  0  0  0  0
    0.6241    0.3714   -6.4783 H   0  0  0  0  0  0  0  0  0  0  0  0
    1.1917   -0.7977   -5.2714 H   0  0  0  0  0  0  0  0  0  0  0  0
    0.1343    3.1015   -5.7657 N   0  0  0  0  0  0  0  0  0  0  0  0
   -0.6476    4.2438   -6.1777 C   0  0  0  0  0  0  0  0  0  0  0  0
    0.9847    2.8979   -6.2825 H   0  0  0  0  0  0  0  0  0  0  0  0
   -1.3852    3.9312   -6.9315 H   0  0  0  0  0  0  0  0  0  0  0  0
   -1.1701    4.6641   -5.3058 H   0  0  0  0  0  0  0  0  0  0  0  0
    0.0171    5.0065   -6.6096 H   0  0  0  0  0  0  0  0  0  0  0  0
 22 24  2  0  0  0  0
 24 26  1  0  0  0  0
 25 26  2  0  0  0  0
 23 25  1  0  0  0  0
 21 22  1  0  0  0  0
 22 23  1  0  0  0  0
  1  3  1  0  0  0  0
  1  7  1  0  0  0  0
  1  2  2  0  0  0  0
 35 36  1  0  0  0  0
 36 44  1  0  0  0  0
 36 37  2  0  0  0  0
  8  9  1  0  0  0  0
  9 17  1  0  0  0  0
  9 10  2  0  0  0  0
 18 19  1  0  0  0  0
 19 34  1  0  0  0  0
 19 20  2  0  0  0  0
 35 38  1  0  0  0  0
  8 11  1  0  0  0  0
 44 45  1  0  0  0  0
 18 21  1  0  0  0  0
 34 35  1  0  0  0  0
  7  8  1  0  0  0  0
 17 18  1  0  0  0  0
 24 32  1  0  0  0  0
 25 33  1  0  0  0  0
  3  4  1  0  0  0  0
  3  5  1  0  0  0  0
  3  6  1  0  0  0  0
 38 41  1  0  0  0  0
 38 42  1  0  0  0  0
 38 43  1  0  0  0  0
 11 14  1  0  0  0  0
 11 15  1  0  0  0  0
 11 16  1  0  0  0  0
 45 47  1  0  0  0  0
 45 48  1  0  0  0  0
 45 49  1  0  0  0  0
 21 29  1  0  0  0  0
 21 30  1  0  0  0  0
 35 40  1  0  0  0  0
  8 13  1  0  0  0  0
 18 28  1  0  0  0  0
 23 31  1  0  0  0  0
 44 46  1  0  0  0  0
  7 12  1  0  0  0  0
 34 39  1  0  0  0  0
 17 27  1  0  0  0  0
M  END
$$$$

  -OEChem-05262214473D

 49 49  0     1  0  0  0  0  0999 V2000
   -1.5619    0.5658    3.7981 C   0  0  0  0  0  0  0  0  0  0  0  0
   -0.6145   -0.0489    3.3224 O   0  0  0  0  0  0  0  0  0  0  0  0
   -1.9938    0.2834    5.1988 C   0  0  0  0  0  0  0  0  0  0  0  0
   -2.7535   -0.5129    5.2522 H   0  0  0  0  0  0  0  0  0  0  0  0
   -1.1626   -0.0642    5.8331 H   0  0  0  0  0  0  0  0  0  0  0  0
   -2.4318    1.1383    5.7384 H   0  0  0  0  0  0  0  0  0  0  0  0
   -2.3116    1.5383    3.1570 N   0  0  0  0  0  0  0  0  0  0  0  0
   -2.0648    1.9643    1.8046 C   0  0  2  0  0  0  0  0  0  0  0  0
   -0.7298    1.3789    1.3634 C   0  0  0  0  0  0  0  0  0  0  0  0
    0.1423    1.0262    2.1547 O   0  0  0  0  0  0  0  0  0  0  0  0
   -2.0560    3.4811    1.6952 C   0  0  0  0  0  0  0  0  0  0  0  0
   -3.0767    1.9741    3.6688 H   0  0  0  0  0  0  0  0  0  0  0  0
   -2.8689    1.5458    1.1895 H   0  0  0  0  0  0  0  0  0  0  0  0
   -1.2569    3.9183    2.3049 H   0  0  0  0  0  0  0  0  0  0  0  0
   -1.8965    3.8033    0.6609 H   0  0  0  0  0  0  0  0  0  0  0  0
   -3.0062    3.9023    2.0409 H   0  0  0  0  0  0  0  0  0  0  0  0
   -0.6071    1.3358   -0.0200 N   0  0  0  0  0  0  0  0  0  0  0  0
    0.5702    0.8350   -0.6836 C   0  0  2  0  0  0  0  0  0  0  0  0
    0.6949    1.5830   -2.0062 C   0  0  0  0  0  0  0  0  0  0  0  0
    1.1160    2.7350   -2.0862 O   0  0  0  0  0  0  0  0  0  0  0  0
    0.4968   -0.6761   -0.9309 C   0  0  0  0  0  0  0  0  0  0  0  0
    0.4562   -1.4756    0.3485 C   0  0  0  0  0  0  0  0  0  0  0  0
    1.5572   -1.6693    1.1342 N   0  0  0  0  0  0  0  0  0  0  0  0
   -0.5587   -2.1416    0.9942 C   0  0  0  0  0  0  0  0  0  0  0  0
    1.1700   -2.4306    2.2019 C   0  0  0  0  0  0  0  0  0  0  0  0
   -0.1079   -2.7337    2.1474 N   0  0  0  0  0  0  0  0  0  0  0  0
   -1.3903    1.6325   -0.5973 H   0  0  0  0  0  0  0  0  0  0  0  0
    1.4226    1.0923   -0.0440 H   0  0  0  0  0  0  0  0  0  0  0  0
    1.3476   -1.0031   -1.5440 H   0  0  0  0  0  0  0  0  0  0  0  0
   -0.3954   -0.9254   -1.5205 H   0  0  0  0  0  0  0  0  0  0  0  0
    2.4893   -1.3167    0.9601 H   0  0  0  0  0  0  0  0  0  0  0  0
   -1.5921   -2.2263    0.6894 H   0  0  0  0  0  0  0  0  0  0  0  0
    1.8624   -2.7267    2.9771 H   0  0  0  0  0  0  0  0  0  0  0  0
    0.3275    0.7930   -3.0866 N   0  0  0  0  0  0  0  0  0  0  0  0
    0.3743    1.2507   -4.4567 C   0  0  2  0  0  0  0  0  0  0  0  0
   -0.3404    2.5936   -4.5286 C   0  0  0  0  0  0  0  0  0  0  0  0
   -1.1722    2.9560   -3.6992 O   0  0  0  0  0  0  0  0  0  0  0  0
   -0.2659    0.2431   -5.3988 C   0  0  0  0  0  0  0  0  0  0  0  0
    0.0098   -0.1546   -2.9052 H   0  0  0  0  0  0  0  0  0  0  0  0
    1.4317    1.3851   -4.7093 H   0  0  0  0  0  0  0  0  0  0  0  0
   -1.3257    0.0953   -5.1612 H   0  0  0  0  0  0  0  0  0  0  0  0
   -0.2042    0.5781   -6.4395 H   0  0  0  0  0  0  0  0  0  0  0  0
    0.2304   -0.7305   -5.3240 H   0  0  0  0  0  0  0  0  0  0  0  0
    0.0280    3.3215   -5.6513 N   0  0  0  0  0  0  0  0  0  0  0  0
   -0.5207    4.6234   -5.9511 C   0  0  0  0  0  0  0  0  0  0  0  0
    0.7393    2.9518   -6.2752 H   0  0  0  0  0  0  0  0  0  0  0  0
   -1.3979    4.5104   -6.6052 H   0  0  0  0  0  0  0  0  0  0  0  0
   -0.8220    5.1183   -5.0161 H   0  0  0  0  0  0  0  0  0  0  0  0
    0.2400    5.2334   -6.4602 H   0  0  0  0  0  0  0  0  0  0  0  0
 22 24  2  0  0  0  0
 24 26  1  0  0  0  0
 25 26  2  0  0  0  0
 23 25  1  0  0  0  0
 21 22  1  0  0  0  0
 22 23  1  0  0  0  0
  1  3  1  0  0  0  0
  1  7  1  0  0  0  0
  1  2  2  0  0  0  0
 35 36  1  0  0  0  0
 36 44  1  0  0  0  0
 36 37  2  0  0  0  0
  8  9  1  0  0  0  0
  9 17  1  0  0  0  0
  9 10  2  0  0  0  0
 18 19  1  0  0  0  0
 19 34  1  0  0  0  0
 19 20  2  0  0  0  0
 35 38  1  0  0  0  0
  8 11  1  0  0  0  0
 44 45  1  0  0  0  0
 18 21  1  0  0  0  0
 34 35  1  0  0  0  0
  7  8  1  0  0  0  0
 17 18  1  0  0  0  0
 24 32  1  0  0  0  0
 25 33  1  0  0  0  0
  3  4  1  0  0  0  0
  3  5  1  0  0  0  0
  3  6  1  0  0  0  0
 38 41  1  0  0  0  0
 38 42  1  0  0  0  0
 38 43  1  0  0  0  0
 11 14  1  0  0  0  0
 11 15  1  0  0  0  0
 11 16  1  0  0  0  0
 45 47  1  0  0  0  0
 45 48  1  0  0  0  0
 45 49  1  0  0  0  0
 21 29  1  0  0  0  0
 21 30  1  0  0  0  0
 35 40  1  0  0  0  0
  8 13  1  0  0  0  0
 18 28  1  0  0  0  0
 23 31  1  0  0  0  0
 44 46  1  0  0  0  0
  7 12  1  0  0  0  0
 34 39  1  0  0  0  0
 17 27  1  0  0  0  0
M  END
$$$$

  -OEChem-05262214473D

 49 49  0     1  0  0  0  0  0999 V2000
   -1.5619    0.5658    3.7981 C   0  0  0  0  0  0  0  0  0  0  0  0
   -0.6145   -0.0489    3.3224 O   0  0  0  0  0  0  0  0  0  0  0  0
   -1.9938    0.2834    5.1988 C   0  0  0  0  0  0  0  0  0  0  0  0
   -2.7535   -0.5129    5.2522 H   0  0  0  0  0  0  0  0  0  0  0  0
   -1.1626   -0.0642    5.8331 H   0  0  0  0  0  0  0  0  0  0  0  0
   -2.4318    1.1383    5.7384 H   0  0  0  0  0  0  0  0  0  0  0  0
   -2.3116    1.5383    3.1570 N   0  0  0  0  0  0  0  0  0  0  0  0
   -2.0648    1.9643    1.8046 C   0  0  2  0  0  0  0  0  0  0  0  0
   -0.7298    1.3789    1.3634 C   0  0  0  0  0  0  0  0  0  0  0  0
    0.1423    1.0262    2.1547 O   0  0  0  0  0  0  0  0  0  0  0  0
   -2.0560    3.4811    1.6952 C   0  0  0  0  0  0  0  0  0  0  0  0
   -3.0767    1.9741    3.6688 H   0  0  0  0  0  0  0  0  0  0  0  0
   -2.8689    1.5458    1.1895 H   0  0  0  0  0  0  0  0  0  0  0  0
   -1.2569    3.9183    2.3049 H   0  0  0  0  0  0  0  0  0  0  0  0
   -1.8965    3.8033    0.6609 H   0  0  0  0  0  0  0  0  0  0  0  0
   -3.0062    3.9023    2.0409 H   0  0  0  0  0  0  0  0  0  0  0  0
   -0.6071    1.3358   -0.0200 N   0  0  0  0  0  0  0  0  0  0  0  0
    0.5702    0.8350   -0.6836 C   0  0  2  0  0  0  0  0  0  0  0  0
    0.6949    1.5830   -2.0062 C   0  0  0  0  0  0  0  0  0  0  0  0
    1.3520    2.6141   -2.1324 O   0  0  0  0  0  0  0  0  0  0  0  0
    0.4968   -0.6761   -0.9309 C   0  0  0  0  0  0  0  0  0  0  0  0
    0.4562   -1.4756    0.3485 C   0  0  0  0  0  0  0  0  0  0  0  0
    1.5572   -1.6693    1.1342 N   0  0  0  0  0  0  0  0  0  0  0  0
   -0.5587   -2.1416    0.9942 C   0  0  0  0  0  0  0  0  0  0  0  0
    1.1700   -2.4306    2.2019 C   0  0  0  0  0  0  0  0  0  0  0  0
   -0.1079   -2.7337    2.1474 N   0  0  0  0  0  0  0  0  0  0  0  0
   -1.3903    1.6325   -0.5973 H   0  0  0  0  0  0  0  0  0  0  0  0
    1.4226    1.0923   -0.0440 H   0  0  0  0  0  0  0  0  0  0  0  0
    1.3476   -1.0031   -1.5440 H   0  0  0  0  0  0  0  0  0  0  0  0
   -0.3954   -0.9254   -1.5205 H   0  0  0  0  0  0  0  0  0  0  0  0
    2.4893   -1.3167    0.9601 H   0  0  0  0  0  0  0  0  0  0  0  0
   -1.5921   -2.2263    0.6894 H   0  0  0  0  0  0  0  0  0  0  0  0
    1.8624   -2.7267    2.9771 H   0  0  0  0  0  0  0  0  0  0  0  0
    0.0269    0.9339   -3.0352 N   0  0  0  0  0  0  0  0  0  0  0  0
    0.0048    1.4182   -4.3968 C   0  0  2  0  0  0  0  0  0  0  0  0
   -0.3913    2.8885   -4.3666 C   0  0  0  0  0  0  0  0  0  0  0  0
   -1.0098    3.3976   -3.4341 O   0  0  0  0  0  0  0  0  0  0  0  0
   -0.9587    0.6132   -5.2548 C   0  0  0  0  0  0  0  0  0  0  0  0
   -0.4716    0.0753   -2.8206 H   0  0  0  0  0  0  0  0  0  0  0  0
    1.0253    1.3222   -4.7832 H   0  0  0  0  0  0  0  0  0  0  0  0
   -1.9864    0.6972   -4.8830 H   0  0  0  0  0  0  0  0  0  0  0  0
   -0.9530    0.9629   -6.2925 H   0  0  0  0  0  0  0  0  0  0  0  0
   -0.6898   -0.4486   -5.2514 H   0  0  0  0  0  0  0  0  0  0  0  0
   -0.0107    3.5554   -5.5227 N   0  0  0  0  0  0  0  0  0  0  0  0
   -0.2841    4.9568   -5.7402 C   0  0  0  0  0  0  0  0  0  0  0  0
    0.5152    3.0588   -6.2358 H   0  0  0  0  0  0  0  0  0  0  0  0
   -1.2386    5.0658   -6.2761 H   0  0  0  0  0  0  0  0  0  0  0  0
   -0.3470    5.4728   -4.7708 H   0  0  0  0  0  0  0  0  0  0  0  0
    0.5252    5.3994   -6.3394 H   0  0  0  0  0  0  0  0  0  0  0  0
 22 24  2  0  0  0  0
 24 26  1  0  0  0  0
 25 26  2  0  0  0  0
 23 25  1  0  0  0  0
 21 22  1  0  0  0  0
 22 23  1  0  0  0  0
  1  3  1  0  0  0  0
  1  7  1  0  0  0  0
  1  2  2  0  0  0  0
 35 36  1  0  0  0  0
 36 44  1  0  0  0  0
 36 37  2  0  0  0  0
  8  9  1  0  0  0  0
  9 17  1  0  0  0  0
  9 10  2  0  0  0  0
 18 19  1  0  0  0  0
 19 34  1  0  0  0  0
 19 20  2  0  0  0  0
 35 38  1  0  0  0  0
  8 11  1  0  0  0  0
 44 45  1  0  0  0  0
 18 21  1  0  0  0  0
 34 35  1  0  0  0  0
  7  8  1  0  0  0  0
 17 18  1  0  0  0  0
 24 32  1  0  0  0  0
 25 33  1  0  0  0  0
  3  4  1  0  0  0  0
  3  5  1  0  0  0  0
  3  6  1  0  0  0  0
 38 41  1  0  0  0  0
 38 42  1  0  0  0  0
 38 43  1  0  0  0  0
 11 14  1  0  0  0  0
 11 15  1  0  0  0  0
 11 16  1  0  0  0  0
 45 47  1  0  0  0  0
 45 48  1  0  0  0  0
 45 49  1  0  0  0  0
 21 29  1  0  0  0  0
 21 30  1  0  0  0  0
 35 40  1  0  0  0  0
  8 13  1  0  0  0  0
 18 28  1  0  0  0  0
 23 31  1  0  0  0  0
 44 46  1  0  0  0  0
  7 12  1  0  0  0  0
 34 39  1  0  0  0  0
 17 27  1  0  0  0  0
M  END
$$$$

  -OEChem-05262214473D

 49 49  0     1  0  0  0  0  0999 V2000
   -1.5619    0.5658    3.7981 C   0  0  0  0  0  0  0  0  0  0  0  0
   -0.6145   -0.0489    3.3224 O   0  0  0  0  0  0  0  0  0  0  0  0
   -1.9938    0.2834    5.1988 C   0  0  0  0  0  0  0  0  0  0  0  0
   -2.7535   -0.5129    5.2522 H   0  0  0  0  0  0  0  0  0  0  0  0
   -1.1626   -0.0642    5.8331 H   0  0  0  0  0  0  0  0  0  0  0  0
   -2.4318    1.1383    5.7384 H   0  0  0  0  0  0  0  0  0  0  0  0
   -2.3116    1.5383    3.1570 N   0  0  0  0  0  0  0  0  0  0  0  0
   -2.0648    1.9643    1.8046 C   0  0  2  0  0  0  0  0  0  0  0  0
   -0.7298    1.3789    1.3634 C   0  0  0  0  0  0  0  0  0  0  0  0
    0.1423    1.0262    2.1547 O   0  0  0  0  0  0  0  0  0  0  0  0
   -2.0560    3.4811    1.6952 C   0  0  0  0  0  0  0  0  0  0  0  0
   -3.0767    1.9741    3.6688 H   0  0  0  0  0  0  0  0  0  0  0  0
   -2.8689    1.5458    1.1895 H   0  0  0  0  0  0  0  0  0  0  0  0
   -1.2569    3.9183    2.3049 H   0  0  0  0  0  0  0  0  0  0  0  0
   -1.8965    3.8033    0.6609 H   0  0  0  0  0  0  0  0  0  0  0  0
   -3.0062    3.9023    2.0409 H   0  0  0  0  0  0  0  0  0  0  0  0
   -0.6071    1.3358   -0.0200 N   0  0  0  0  0  0  0  0  0  0  0  0
    0.5702    0.8350   -0.6836 C   0  0  2  0  0  0  0  0  0  0  0  0
    0.6949    1.5830   -2.0062 C   0  0  0  0  0  0  0  0  0  0  0  0
    1.5470    2.4453   -2.2094 O   0  0  0  0  0  0  0  0  0  0  0  0
    0.4968   -0.6761   -0.9309 C   0  0  0  0  0  0  0  0  0  0  0  0
    0.4562   -1.4756    0.3485 C   0  0  0  0  0  0  0  0  0  0  0  0
    1.5572   -1.6693    1.1342 N   0  0  0  0  0  0  0  0  0  0  0  0
   -0.5587   -2.1416    0.9942 C   0  0  0  0  0  0  0  0  0  0  0  0
    1.1700   -2.4306    2.2019 C   0  0  0  0  0  0  0  0  0  0  0  0
   -0.1079   -2.7337    2.1474 N   0  0  0  0  0  0  0  0  0  0  0  0
   -1.3903    1.6325   -0.5973 H   0  0  0  0  0  0  0  0  0  0  0  0
    1.4226    1.0923   -0.0440 H   0  0  0  0  0  0  0  0  0  0  0  0
    1.3476   -1.0031   -1.5440 H   0  0  0  0  0  0  0  0  0  0  0  0
   -0.3954   -0.9254   -1.5205 H   0  0  0  0  0  0  0  0  0  0  0  0
    2.4893   -1.3167    0.9601 H   0  0  0  0  0  0  0  0  0  0  0  0
   -1.5921   -2.2263    0.6894 H   0  0  0  0  0  0  0  0  0  0  0  0
    1.8624   -2.7267    2.9771 H   0  0  0  0  0  0  0  0  0  0  0  0
   -0.2253    1.1365   -2.9444 N   0  0  0  0  0  0  0  0  0  0  0  0
   -0.3068    1.6618   -4.2884 C   0  0  2  0  0  0  0  0  0  0  0  0
   -0.3537    3.1813   -4.1974 C   0  0  0  0  0  0  0  0  0  0  0  0
   -0.7200    3.7820   -3.1894 O   0  0  0  0  0  0  0  0  0  0  0  0
   -1.5265    1.1232   -5.0199 C   0  0  0  0  0  0  0  0  0  0  0  0
   -0.8741    0.4037   -2.6728 H   0  0  0  0  0  0  0  0  0  0  0  0
    0.6093    1.3543   -4.8043 H   0  0  0  0  0  0  0  0  0  0  0  0
   -2.4541    1.4212   -4.5177 H   0  0  0  0  0  0  0  0  0  0  0  0
   -1.5713    1.4997   -6.0472 H   0  0  0  0  0  0  0  0  0  0  0  0
   -1.5061    0.0288   -5.0584 H   0  0  0  0  0  0  0  0  0  0  0  0
    0.0207    3.7873   -5.3886 N   0  0  0  0  0  0  0  0  0  0  0  0
    0.0460    5.2212   -5.5596 C   0  0  0  0  0  0  0  0  0  0  0  0
    0.3278    3.2116   -6.1671 H   0  0  0  0  0  0  0  0  0  0  0  0
   -0.9183    5.5595   -5.9666 H   0  0  0  0  0  0  0  0  0  0  0  0
    0.2226    5.7033   -4.5867 H   0  0  0  0  0  0  0  0  0  0  0  0
    0.8533    5.4931   -6.2555 H   0  0  0  0  0  0  0  0  0  0  0  0
 22 24  2  0  0  0  0
 24 26  1  0  0  0  0
 25 26  2  0  0  0  0
 23 25  1  0  0  0  0
 21 22  1  0  0  0  0
 22 23  1  0  0  0  0
  1  3  1  0  0  0  0
  1  7  1  0  0  0  0
  1  2  2  0  0  0  0
 35 36  1  0  0  0  0
 36 44  1  0  0  0  0
 36 37  2  0  0  0  0
  8  9  1  0  0  0  0
  9 17  1  0  0  0  0
  9 10  2  0  0  0  0
 18 19  1  0  0  0  0
 19 34  1  0  0  0  0
 19 20  2  0  0  0  0
 35 38  1  0  0  0  0
  8 11  1  0  0  0  0
 44 45  1  0  0  0  0
 18 21  1  0  0  0  0
 34 35  1  0  0  0  0
  7  8  1  0  0  0  0
 17 18  1  0  0  0  0
 24 32  1  0  0  0  0
 25 33  1  0  0  0  0
  3  4  1  0  0  0  0
  3  5  1  0  0  0  0
  3  6  1  0  0  0  0
 38 41  1  0  0  0  0
 38 42  1  0  0  0  0
 38 43  1  0  0  0  0
 11 14  1  0  0  0  0
 11 15  1  0  0  0  0
 11 16  1  0  0  0  0
 45 47  1  0  0  0  0
 45 48  1  0  0  0  0
 45 49  1  0  0  0  0
 21 29  1  0  0  0  0
 21 30  1  0  0  0  0
 35 40  1  0  0  0  0
  8 13  1  0  0  0  0
 18 28  1  0  0  0  0
 23 31  1  0  0  0  0
 44 46  1  0  0  0  0
  7 12  1  0  0  0  0
 34 39  1  0  0  0  0
 17 27  1  0  0  0  0
M  END
$$$$

  -OEChem-05262214473D

 49 49  0     1  0  0  0  0  0999 V2000
   -1.5619    0.5658    3.7981 C   0  0  0  0  0  0  0  0  0  0  0  0
   -0.6145   -0.0489    3.3224 O   0  0  0  0  0  0  0  0  0  0  0  0
   -1.9938    0.2834    5.1988 C   0  0  0  0  0  0  0  0  0  0  0  0
   -2.7535   -0.5129    5.2522 H   0  0  0  0  0  0  0  0  0  0  0  0
   -1.1626   -0.0642    5.8331 H   0  0  0  0  0  0  0  0  0  0  0  0
   -2.4318    1.1383    5.7384 H   0  0  0  0  0  0  0  0  0  0  0  0
   -2.3116    1.5383    3.1570 N   0  0  0  0  0  0  0  0  0  0  0  0
   -2.0648    1.9643    1.8046 C   0  0  2  0  0  0  0  0  0  0  0  0
   -0.7298    1.3789    1.3634 C   0  0  0  0  0  0  0  0  0  0  0  0
    0.1423    1.0262    2.1547 O   0  0  0  0  0  0  0  0  0  0  0  0
   -2.0560    3.4811    1.6952 C   0  0  0  0  0  0  0  0  0  0  0  0
   -3.0767    1.9741    3.6688 H   0  0  0  0  0  0  0  0  0  0  0  0
   -2.8689    1.5458    1.1895 H   0  0  0  0  0  0  0  0  0  0  0  0
   -1.2569    3.9183    2.3049 H   0  0  0  0  0  0  0  0  0  0  0  0
   -1.8965    3.8033    0.6609 H   0  0  0  0  0  0  0  0  0  0  0  0
   -3.0062    3.9023    2.0409 H   0  0  0  0  0  0  0  0  0  0  0  0
   -0.6071    1.3358   -0.0200 N   0  0  0  0  0  0  0  0  0  0  0  0
    0.5702    0.8350   -0.6836 C   0  0  2  0  0  0  0  0  0  0  0  0
    0.6949    1.5830   -2.0062 C   0  0  0  0  0  0  0  0  0  0  0  0
    1.6876    2.2401   -2.3122 O   0  0  0  0  0  0  0  0  0  0  0  0
    0.4968   -0.6761   -0.9309 C   0  0  0  0  0  0  0  0  0  0  0  0
    0.4562   -1.4756    0.3485 C   0  0  0  0  0  0  0  0  0  0  0  0
    1.5572   -1.6693    1.1342 N   0  0  0  0  0  0  0  0  0  0  0  0
   -0.5587   -2.1416    0.9942 C   0  0  0  0  0  0  0  0  0  0  0  0
    1.1700   -2.4306    2.2019 C   0  0  0  0  0  0  0  0  0  0  0  0
   -0.1079   -2.7337    2.1474 N   0  0  0  0  0  0  0  0  0  0  0  0
   -1.3903    1.6325   -0.5973 H   0  0  0  0  0  0  0  0  0  0  0  0
    1.4226    1.0923   -0.0440 H   0  0  0  0  0  0  0  0  0  0  0  0
    1.3476   -1.0031   -1.5440 H   0  0  0  0  0  0  0  0  0  0  0  0
   -0.3954   -0.9254   -1.5205 H   0  0  0  0  0  0  0  0  0  0  0  0
    2.4893   -1.3167    0.9601 H   0  0  0  0  0  0  0  0  0  0  0  0
   -1.5921   -2.2263    0.6894 H   0  0  0  0  0  0  0  0  0  0  0  0
    1.8624   -2.7267    2.9771 H   0  0  0  0  0  0  0  0  0  0  0  0
   -0.4119    1.3869   -2.8204 N   0  0  0  0  0  0  0  0  0  0  0  0
   -0.5394    1.9647   -4.1390 C   0  0  2  0  0  0  0  0  0  0  0  0
   -0.2301    3.4522   -4.0326 C   0  0  0  0  0  0  0  0  0  0  0  0
   -0.3228    4.0831   -2.9816 O   0  0  0  0  0  0  0  0  0  0  0  0
   -1.9306    1.7384   -4.7101 C   0  0  0  0  0  0  0  0  0  0  0  0
   -1.1705    0.8081   -2.4721 H   0  0  0  0  0  0  0  0  0  0  0  0
    0.2120    1.4791   -4.7711 H   0  0  0  0  0  0  0  0  0  0  0  0
   -2.6969    2.2177   -4.0901 H   0  0  0  0  0  0  0  0  0  0  0  0
   -2.0168    2.1517   -5.7205 H   0  0  0  0  0  0  0  0  0  0  0  0
   -2.1629    0.6690   -4.7582 H   0  0  0  0  0  0  0  0  0  0  0  0
    0.1201    4.0014   -5.2581 N   0  0  0  0  0  0  0  0  0  0  0  0
    0.4472    5.3987   -5.4213 C   0  0  0  0  0  0  0  0  0  0  0  0
    0.1898    3.3999   -6.0736 H   0  0  0  0  0  0  0  0  0  0  0  0
   -0.4588    5.9580   -5.6979 H   0  0  0  0  0  0  0  0  0  0  0  0
    0.8479    5.7942   -4.4764 H   0  0  0  0  0  0  0  0  0  0  0  0
    1.2019    5.5082   -6.2141 H   0  0  0  0  0  0  0  0  0  0  0  0
 22 24  2  0  0  0  0
 24 26  1  0  0  0  0
 25 26  2  0  0  0  0
 23 25  1  0  0  0  0
 21 22  1  0  0  0  0
 22 23  1  0  0  0  0
  1  3  1  0  0  0  0
  1  7  1  0  0  0  0
  1  2  2  0  0  0  0
 35 36  1  0  0  0  0
 36 44  1  0  0  0  0
 36 37  2  0  0  0  0
  8  9  1  0  0  0  0
  9 17  1  0  0  0  0
  9 10  2  0  0  0  0
 18 19  1  0  0  0  0
 19 34  1  0  0  0  0
 19 20  2  0  0  0  0
 35 38  1  0  0  0  0
  8 11  1  0  0  0  0
 44 45  1  0  0  0  0
 18 21  1  0  0  0  0
 34 35  1  0  0  0  0
  7  8  1  0  0  0  0
 17 18  1  0  0  0  0
 24 32  1  0  0  0  0
 25 33  1  0  0  0  0
  3  4  1  0  0  0  0
  3  5  1  0  0  0  0
  3  6  1  0  0  0  0
 38 41  1  0  0  0  0
 38 42  1  0  0  0  0
 38 43  1  0  0  0  0
 11 14  1  0  0  0  0
 11 15  1  0  0  0  0
 11 16  1  0  0  0  0
 45 47  1  0  0  0  0
 45 48  1  0  0  0  0
 45 49  1  0  0  0  0
 21 29  1  0  0  0  0
 21 30  1  0  0  0  0
 35 40  1  0  0  0  0
  8 13  1  0  0  0  0
 18 28  1  0  0  0  0
 23 31  1  0  0  0  0
 44 46  1  0  0  0  0
  7 12  1  0  0  0  0
 34 39  1  0  0  0  0
 17 27  1  0  0  0  0
M  END
$$$$

  -OEChem-05262214473D

 49 49  0     1  0  0  0  0  0999 V2000
   -1.5619    0.5658    3.7981 C   0  0  0  0  0  0  0  0  0  0  0  0
   -0.6145   -0.0489    3.3224 O   0  0  0  0  0  0  0  0  0  0  0  0
   -1.9938    0.2834    5.1988 C   0  0  0  0  0  0  0  0  0  0  0  0
   -2.7535   -0.5129    5.2522 H   0  0  0  0  0  0  0  0  0  0  0  0
   -1.1626   -0.0642    5.8331 H   0  0  0  0  0  0  0  0  0  0  0  0
   -2.4318    1.1383    5.7384 H   0  0  0  0  0  0  0  0  0  0  0  0
   -2.3116    1.5383    3.1570 N   0  0  0  0  0  0  0  0  0  0  0  0
   -2.0648    1.9643    1.8046 C   0  0  2  0  0  0  0  0  0  0  0  0
   -0.7298    1.3789    1.3634 C   0  0  0  0  0  0  0  0  0  0  0  0
    0.1423    1.0262    2.1547 O   0  0  0  0  0  0  0  0  0  0  0  0
   -2.0560    3.4811    1.6952 C   0  0  0  0  0  0  0  0  0  0  0  0
   -3.0767    1.9741    3.6688 H   0  0  0  0  0  0  0  0  0  0  0  0
   -2.8689    1.5458    1.1895 H   0  0  0  0  0  0  0  0  0  0  0  0
   -1.2569    3.9183    2.3049 H   0  0  0  0  0  0  0  0  0  0  0  0
   -1.8965    3.8033    0.6609 H   0  0  0  0  0  0  0  0  0  0  0  0
   -3.0062    3.9023    2.0409 H   0  0  0  0  0  0  0  0  0  0  0  0
   -0.6071    1.3358   -0.0200 N   0  0  0  0  0  0  0  0  0  0  0  0
    0.5702    0.8350   -0.6836 C   0  0  2  0  0  0  0  0  0  0  0  0
    0.6949    1.5830   -2.0062 C   0  0  0  0  0  0  0  0  0  0  0  0
    1.7643    2.0125   -2.4337 O   0  0  0  0  0  0  0  0  0  0  0  0
    0.4968   -0.6761   -0.9309 C   0  0  0  0  0  0  0  0  0  0  0  0
    0.4562   -1.4756    0.3485 C   0  0  0  0  0  0  0  0  0  0  0  0
    1.5572   -1.6693    1.1342 N   0  0  0  0  0  0  0  0  0  0  0  0
   -0.5587   -2.1416    0.9942 C   0  0  0  0  0  0  0  0  0  0  0  0
    1.1700   -2.4306    2.2019 C   0  0  0  0  0  0  0  0  0  0  0  0
   -0.1079   -2.7337    2.1474 N   0  0  0  0  0  0  0  0  0  0  0  0
   -1.3903    1.6325   -0.5973 H   0  0  0  0  0  0  0  0  0  0  0  0
    1.4226    1.0923   -0.0440 H   0  0  0  0  0  0  0  0  0  0  0  0
    1.3476   -1.0031   -1.5440 H   0  0  0  0  0  0  0  0  0  0  0  0
   -0.3954   -0.9254   -1.5205 H   0  0  0  0  0  0  0  0  0  0  0  0
    2.4893   -1.3167    0.9601 H   0  0  0  0  0  0  0  0  0  0  0  0
   -1.5921   -2.2263    0.6894 H   0  0  0  0  0  0  0  0  0  0  0  0
    1.8624   -2.7267    2.9771 H   0  0  0  0  0  0  0  0  0  0  0  0
   -0.5202    1.6680   -2.6716 N   0  0  0  0  0  0  0  0  0  0  0  0
   -0.6771    2.3064   -3.9587 C   0  0  2  0  0  0  0  0  0  0  0  0
   -0.0289    3.6825   -3.8833 C   0  0  0  0  0  0  0  0  0  0  0  0
    0.1549    4.2803   -2.8250 O   0  0  0  0  0  0  0  0  0  0  0  0
   -2.1434    2.4168   -4.3466 C   0  0  0  0  0  0  0  0  0  0  0  0
   -1.3404    1.2611   -2.2319 H   0  0  0  0  0  0  0  0  0  0  0  0
   -0.1395    1.6883   -4.6860 H   0  0  0  0  0  0  0  0  0  0  0  0
   -2.6984    3.0326   -3.6294 H   0  0  0  0  0  0  0  0  0  0  0  0
   -2.2592    2.8747   -5.3345 H   0  0  0  0  0  0  0  0  0  0  0  0
   -2.6155    1.4286   -4.3713 H   0  0  0  0  0  0  0  0  0  0  0  0
    0.2808    4.1831   -5.1401 N   0  0  0  0  0  0  0  0  0  0  0  0
    0.8921    5.4771   -5.3350 C   0  0  0  0  0  0  0  0  0  0  0  0
    0.1107    3.6107   -5.9618 H   0  0  0  0  0  0  0  0  0  0  0  0
    0.1087    6.2339   -5.4883 H   0  0  0  0  0  0  0  0  0  0  0  0
    1.4863    5.7392   -4.4472 H   0  0  0  0  0  0  0  0  0  0  0  0
    1.5473    5.4437   -6.2180 H   0  0  0  0  0  0  0  0  0  0  0  0
 22 24  2  0  0  0  0
 24 26  1  0  0  0  0
 25 26  2  0  0  0  0
 23 25  1  0  0  0  0
 21 22  1  0  0  0  0
 22 23  1  0  0  0  0
  1  3  1  0  0  0  0
  1  7  1  0  0  0  0
  1  2  2  0  0  0  0
 35 36  1  0  0  0  0
 36 44  1  0  0  0  0
 36 37  2  0  0  0  0
  8  9  1  0  0  0  0
  9 17  1  0  0  0  0
  9 10  2  0  0  0  0
 18 19  1  0  0  0  0
 19 34  1  0  0  0  0
 19 20  2  0  0  0  0
 35 38  1  0  0  0  0
  8 11  1  0  0  0  0
 44 45  1  0  0  0  0
 18 21  1  0  0  0  0
 34 35  1  0  0  0  0
  7  8  1  0  0  0  0
 17 18  1  0  0  0  0
 24 32  1  0  0  0  0
 25 33  1  0  0  0  0
  3  4  1  0  0  0  0
  3  5  1  0  0  0  0
  3  6  1  0  0  0  0
 38 41  1  0  0  0  0
 38 42  1  0  0  0  0
 38 43  1  0  0  0  0
 11 14  1  0  0  0  0
 11 15  1  0  0  0  0
 11 16  1  0  0  0  0
 45 47  1  0  0  0  0
 45 48  1  0  0  0  0
 45 49  1  0  0  0  0
 21 29  1  0  0  0  0
 21 30  1  0  0  0  0
 35 40  1  0  0  0  0
  8 13  1  0  0  0  0
 18 28  1  0  0  0  0
 23 31  1  0  0  0  0
 44 46  1  0  0  0  0
  7 12  1  0  0  0  0
 34 39  1  0  0  0  0
 17 27  1  0  0  0  0
M  END
$$$$

  -OEChem-05262214473D

 49 49  0     1  0  0  0  0  0999 V2000
   -1.5619    0.5658    3.7981 C   0  0  0  0  0  0  0  0  0  0  0  0
   -0.6145   -0.0489    3.3224 O   0  0  0  0  0  0  0  0  0  0  0  0
   -1.9938    0.2834    5.1988 C   0  0  0  0  0  0  0  0  0  0  0  0
   -2.7535   -0.5129    5.2522 H   0  0  0  0  0  0  0  0  0  0  0  0
   -1.1626   -0.0642    5.8331 H   0  0  0  0  0  0  0  0  0  0  0  0
   -2.4318    1.1383    5.7384 H   0  0  0  0  0  0  0  0  0  0  0  0
   -2.3116    1.5383    3.1570 N   0  0  0  0  0  0  0  0  0  0  0  0
   -2.0648    1.9643    1.8046 C   0  0  2  0  0  0  0  0  0  0  0  0
   -0.7298    1.3789    1.3634 C   0  0  0  0  0  0  0  0  0  0  0  0
    0.1423    1.0262    2.1547 O   0  0  0  0  0  0  0  0  0  0  0  0
   -2.0560    3.4811    1.6952 C   0  0  0  0  0  0  0  0  0  0  0  0
   -3.0767    1.9741    3.6688 H   0  0  0  0  0  0  0  0  0  0  0  0
   -2.8689    1.5458    1.1895 H   0  0  0  0  0  0  0  0  0  0  0  0
   -1.2569    3.9183    2.3049 H   0  0  0  0  0  0  0  0  0  0  0  0
   -1.8965    3.8033    0.6609 H   0  0  0  0  0  0  0  0  0  0  0  0
   -3.0062    3.9023    2.0409 H   0  0  0  0  0  0  0  0  0  0  0  0
   -0.6071    1.3358   -0.0200 N   0  0  0  0  0  0  0  0  0  0  0  0
    0.5702    0.8350   -0.6836 C   0  0  2  0  0  0  0  0  0  0  0  0
    0.6949    1.5830   -2.0062 C   0  0  0  0  0  0  0  0  0  0  0  0
    1.7719    1.7780   -2.5657 O   0  0  0  0  0  0  0  0  0  0  0  0
    0.4968   -0.6761   -0.9309 C   0  0  0  0  0  0  0  0  0  0  0  0
    0.4562   -1.4756    0.3485 C   0  0  0  0  0  0  0  0  0  0  0  0
    1.5572   -1.6693    1.1342 N   0  0  0  0  0  0  0  0  0  0  0  0
   -0.5587   -2.1416    0.9942 C   0  0  0  0  0  0  0  0  0  0  0  0
    1.1700   -2.4306    2.2019 C   0  0  0  0  0  0  0  0  0  0  0  0
   -0.1079   -2.7337    2.1474 N   0  0  0  0  0  0  0  0  0  0  0  0
   -1.3903    1.6325   -0.5973 H   0  0  0  0  0  0  0  0  0  0  0  0
    1.4226    1.0923   -0.0440 H   0  0  0  0  0  0  0  0  0  0  0  0
    1.3476   -1.0031   -1.5440 H   0  0  0  0  0  0  0  0  0  0  0  0
   -0.3954   -0.9254   -1.5205 H   0  0  0  0  0  0  0  0  0  0  0  0
    2.4893   -1.3167    0.9601 H   0  0  0  0  0  0  0  0  0  0  0  0
   -1.5921   -2.2263    0.6894 H   0  0  0  0  0  0  0  0  0  0  0  0
    1.8624   -2.7267    2.9771 H   0  0  0  0  0  0  0  0  0  0  0  0
   -0.5427    1.9607   -2.5082 N   0  0  0  0  0  0  0  0  0  0  0  0
   -0.7105    2.6635   -3.7599 C   0  0  2  0  0  0  0  0  0  0  0  0
    0.2360    3.8567   -3.7598 C   0  0  0  0  0  0  0  0  0  0  0  0
    0.6805    4.3602   -2.7303 O   0  0  0  0  0  0  0  0  0  0  0  0
   -2.1506    3.1121   -3.9540 C   0  0  0  0  0  0  0  0  0  0  0  0
   -1.3724    1.7317   -1.9688 H   0  0  0  0  0  0  0  0  0  0  0  0
   -0.4213    1.9674   -4.5547 H   0  0  0  0  0  0  0  0  0  0  0  0
   -2.4583    3.8102   -3.1669 H   0  0  0  0  0  0  0  0  0  0  0  0
   -2.2820    3.6193   -4.9155 H   0  0  0  0  0  0  0  0  0  0  0  0
   -2.8329    2.2558   -3.9240 H   0  0  0  0  0  0  0  0  0  0  0  0
    0.4918    4.3201   -5.0428 N   0  0  0  0  0  0  0  0  0  0  0  0
    1.3504    5.4511   -5.3065 C   0  0  0  0  0  0  0  0  0  0  0  0
    0.0957    3.8298   -5.8393 H   0  0  0  0  0  0  0  0  0  0  0  0
    0.7454    6.3687   -5.3521 H   0  0  0  0  0  0  0  0  0  0  0  0
    2.0943    5.5422   -4.5013 H   0  0  0  0  0  0  0  0  0  0  0  0
    1.8659    5.3039   -6.2670 H   0  0  0  0  0  0  0  0  0  0  0  0
 22 24  2  0  0  0  0
 24 26  1  0  0  0  0
 25 26  2  0  0  0  0
 23 25  1  0  0  0  0
 21 22  1  0  0  0  0
 22 23  1  0  0  0  0
  1  3  1  0  0  0  0
  1  7  1  0  0  0  0
  1  2  2  0  0  0  0
 35 36  1  0  0  0  0
 36 44  1  0  0  0  0
 36 37  2  0  0  0  0
  8  9  1  0  0  0  0
  9 17  1  0  0  0  0
  9 10  2  0  0  0  0
 18 19  1  0  0  0  0
 19 34  1  0  0  0  0
 19 20  2  0  0  0  0
 35 38  1  0  0  0  0
  8 11  1  0  0  0  0
 44 45  1  0  0  0  0
 18 21  1  0  0  0  0
 34 35  1  0  0  0  0
  7  8  1  0  0  0  0
 17 18  1  0  0  0  0
 24 32  1  0  0  0  0
 25 33  1  0  0  0  0
  3  4  1  0  0  0  0
  3  5  1  0  0  0  0
  3  6  1  0  0  0  0
 38 41  1  0  0  0  0
 38 42  1  0  0  0  0
 38 43  1  0  0  0  0
 11 14  1  0  0  0  0
 11 15  1  0  0  0  0
 11 16  1  0  0  0  0
 45 47  1  0  0  0  0
 45 48  1  0  0  0  0
 45 49  1  0  0  0  0
 21 29  1  0  0  0  0
 21 30  1  0  0  0  0
 35 40  1  0  0  0  0
  8 13  1  0  0  0  0
 18 28  1  0  0  0  0
 23 31  1  0  0  0  0
 44 46  1  0  0  0  0
  7 12  1  0  0  0  0
 34 39  1  0  0  0  0
 17 27  1  0  0  0  0
M  END
$$$$

  -OEChem-05262214473D

 49 49  0     1  0  0  0  0  0999 V2000
   -1.5619    0.5658    3.7981 C   0  0  0  0  0  0  0  0  0  0  0  0
   -0.6145   -0.0489    3.3224 O   0  0  0  0  0  0  0  0  0  0  0  0
   -1.9938    0.2834    5.1988 C   0  0  0  0  0  0  0  0  0  0  0  0
   -2.7535   -0.5129    5.2522 H   0  0  0  0  0  0  0  0  0  0  0  0
   -1.1626   -0.0642    5.8331 H   0  0  0  0  0  0  0  0  0  0  0  0
   -2.4318    1.1383    5.7384 H   0  0  0  0  0  0  0  0  0  0  0  0
   -2.3116    1.5383    3.1570 N   0  0  0  0  0  0  0  0  0  0  0  0
   -2.0648    1.9643    1.8046 C   0  0  2  0  0  0  0  0  0  0  0  0
   -0.7298    1.3789    1.3634 C   0  0  0  0  0  0  0  0  0  0  0  0
    0.1423    1.0262    2.1547 O   0  0  0  0  0  0  0  0  0  0  0  0
   -2.0560    3.4811    1.6952 C   0  0  0  0  0  0  0  0  0  0  0  0
   -3.0767    1.9741    3.6688 H   0  0  0  0  0  0  0  0  0  0  0  0
   -2.8689    1.5458    1.1895 H   0  0  0  0  0  0  0  0  0  0  0  0
   -1.2569    3.9183    2.3049 H   0  0  0  0  0  0  0  0  0  0  0  0
   -1.8965    3.8033    0.6609 H   0  0  0  0  0  0  0  0  0  0  0  0
   -3.0062    3.9023    2.0409 H   0  0  0  0  0  0  0  0  0  0  0  0
   -0.6071    1.3358   -0.0200 N   0  0  0  0  0  0  0  0  0  0  0  0
    0.5702    0.8350   -0.6836 C   0  0  2  0  0  0  0  0  0  0  0  0
    0.6949    1.5830   -2.0062 C   0  0  0  0  0  0  0  0  0  0  0  0
    1.7098    1.5526   -2.6990 O   0  0  0  0  0  0  0  0  0  0  0  0
    0.4968   -0.6761   -0.9309 C   0  0  0  0  0  0  0  0  0  0  0  0
    0.4562   -1.4756    0.3485 C   0  0  0  0  0  0  0  0  0  0  0  0
    1.5572   -1.6693    1.1342 N   0  0  0  0  0  0  0  0  0  0  0  0
   -0.5587   -2.1416    0.9942 C   0  0  0  0  0  0  0  0  0  0  0  0
    1.1700   -2.4306    2.2019 C   0  0  0  0  0  0  0  0  0  0  0  0
   -0.1079   -2.7337    2.1474 N   0  0  0  0  0  0  0  0  0  0  0  0
   -1.3903    1.6325   -0.5973 H   0  0  0  0  0  0  0  0  0  0  0  0
    1.4226    1.0923   -0.0440 H   0  0  0  0  0  0  0  0  0  0  0  0
    1.3476   -1.0031   -1.5440 H   0  0  0  0  0  0  0  0  0  0  0  0
   -0.3954   -0.9254   -1.5205 H   0  0  0  0  0  0  0  0  0  0  0  0
    2.4893   -1.3167    0.9601 H   0  0  0  0  0  0  0  0  0  0  0  0
   -1.5921   -2.2263    0.6894 H   0  0  0  0  0  0  0  0  0  0  0  0
    1.8624   -2.7267    2.9771 H   0  0  0  0  0  0  0  0  0  0  0  0
   -0.4781    2.2451   -2.3413 N   0  0  0  0  0  0  0  0  0  0  0  0
   -0.6373    3.0118   -3.5561 C   0  0  2  0  0  0  0  0  0  0  0  0
    0.5467    3.9629   -3.6705 C   0  0  0  0  0  0  0  0  0  0  0  0
    1.2181    4.3174   -2.7038 O   0  0  0  0  0  0  0  0  0  0  0  0
   -1.9515    3.7770   -3.5591 C   0  0  0  0  0  0  0  0  0  0  0  0
   -1.2642    2.1878   -1.7006 H   0  0  0  0  0  0  0  0  0  0  0  0
   -0.6142    2.2974   -4.3862 H   0  0  0  0  0  0  0  0  0  0  0  0
   -1.9930    4.4977   -2.7343 H   0  0  0  0  0  0  0  0  0  0  0  0
   -2.0837    4.3347   -4.4922 H   0  0  0  0  0  0  0  0  0  0  0  0
   -2.8004    3.0940   -3.4468 H   0  0  0  0  0  0  0  0  0  0  0  0
    0.7387    4.4030   -4.9726 N   0  0  0  0  0  0  0  0  0  0  0  0
    1.7909    5.3225   -5.3377 C   0  0  0  0  0  0  0  0  0  0  0  0
    0.1461    4.0421   -5.7145 H   0  0  0  0  0  0  0  0  0  0  0  0
    1.4080    6.3530   -5.2985 H   0  0  0  0  0  0  0  0  0  0  0  0
    2.6305    5.2165   -4.6350 H   0  0  0  0  0  0  0  0  0  0  0  0
    2.1360    5.0983   -6.3578 H   0  0  0  0  0  0  0  0  0  0  0  0
 22 24  2  0  0  0  0
 24 26  1  0  0  0  0
 25 26  2  0  0  0  0
 23 25  1  0  0  0  0
 21 22  1  0  0  0  0
 22 23  1  0  0  0  0
  1  3  1  0  0  0  0
  1  7  1  0  0  0  0
  1  2  2  0  0  0  0
 35 36  1  0  0  0  0
 36 44  1  0  0  0  0
 36 37  2  0  0  0  0
  8  9  1  0  0  0  0
  9 17  1  0  0  0  0
  9 10  2  0  0  0  0
 18 19  1  0  0  0  0
 19 34  1  0  0  0  0
 19 20  2  0  0  0  0
 35 38  1  0  0  0  0
  8 11  1  0  0  0  0
 44 45  1  0  0  0  0
 18 21  1  0  0  0  0
 34 35  1  0  0  0  0
  7  8  1  0  0  0  0
 17 18  1  0  0  0  0
 24 32  1  0  0  0  0
 25 33  1  0  0  0  0
  3  4  1  0  0  0  0
  3  5  1  0  0  0  0
  3  6  1  0  0  0  0
 38 41  1  0  0  0  0
 38 42  1  0  0  0  0
 38 43  1  0  0  0  0
 11 14  1  0  0  0  0
 11 15  1  0  0  0  0
 11 16  1  0  0  0  0
 45 47  1  0  0  0  0
 45 48  1  0  0  0  0
 45 49  1  0  0  0  0
 21 29  1  0  0  0  0
 21 30  1  0  0  0  0
 35 40  1  0  0  0  0
  8 13  1  0  0  0  0
 18 28  1  0  0  0  0
 23 31  1  0  0  0  0
 44 46  1  0  0  0  0
  7 12  1  0  0  0  0
 34 39  1  0  0  0  0
 17 27  1  0  0  0  0
M  END
$$$$

  -OEChem-05262214473D

 49 49  0     1  0  0  0  0  0999 V2000
   -1.5619    0.5658    3.7981 C   0  0  0  0  0  0  0  0  0  0  0  0
   -0.6145   -0.0489    3.3224 O   0  0  0  0  0  0  0  0  0  0  0  0
   -1.9938    0.2834    5.1988 C   0  0  0  0  0  0  0  0  0  0  0  0
   -2.7535   -0.5129    5.2522 H   0  0  0  0  0  0  0  0  0  0  0  0
   -1.1626   -0.0642    5.8331 H   0  0  0  0  0  0  0  0  0  0  0  0
   -2.4318    1.1383    5.7384 H   0  0  0  0  0  0  0  0  0  0  0  0
   -2.3116    1.5383    3.1570 N   0  0  0  0  0  0  0  0  0  0  0  0
   -2.0648    1.9643    1.8046 C   0  0  2  0  0  0  0  0  0  0  0  0
   -0.7298    1.3789    1.3634 C   0  0  0  0  0  0  0  0  0  0  0  0
    0.1423    1.0262    2.1547 O   0  0  0  0  0  0  0  0  0  0  0  0
   -2.0560    3.4811    1.6952 C   0  0  0  0  0  0  0  0  0  0  0  0
   -3.0767    1.9741    3.6688 H   0  0  0  0  0  0  0  0  0  0  0  0
   -2.8689    1.5458    1.1895 H   0  0  0  0  0  0  0  0  0  0  0  0
   -1.2569    3.9183    2.3049 H   0  0  0  0  0  0  0  0  0  0  0  0
   -1.8965    3.8033    0.6609 H   0  0  0  0  0  0  0  0  0  0  0  0
   -3.0062    3.9023    2.0409 H   0  0  0  0  0  0  0  0  0  0  0  0
   -0.6071    1.3358   -0.0200 N   0  0  0  0  0  0  0  0  0  0  0  0
    0.5702    0.8350   -0.6836 C   0  0  2  0  0  0  0  0  0  0  0  0
    0.6949    1.5830   -2.0062 C   0  0  0  0  0  0  0  0  0  0  0  0
    1.5823    1.3516   -2.8247 O   0  0  0  0  0  0  0  0  0  0  0  0
    0.4968   -0.6761   -0.9309 C   0  0  0  0  0  0  0  0  0  0  0  0
    0.4562   -1.4756    0.3485 C   0  0  0  0  0  0  0  0  0  0  0  0
    1.5572   -1.6693    1.1342 N   0  0  0  0  0  0  0  0  0  0  0  0
   -0.5587   -2.1416    0.9942 C   0  0  0  0  0  0  0  0  0  0  0  0
    1.1700   -2.4306    2.2019 C   0  0  0  0  0  0  0  0  0  0  0  0
   -0.1079   -2.7337    2.1474 N   0  0  0  0  0  0  0  0  0  0  0  0
   -1.3903    1.6325   -0.5973 H   0  0  0  0  0  0  0  0  0  0  0  0
    1.4226    1.0923   -0.0440 H   0  0  0  0  0  0  0  0  0  0  0  0
    1.3476   -1.0031   -1.5440 H   0  0  0  0  0  0  0  0  0  0  0  0
   -0.3954   -0.9254   -1.5205 H   0  0  0  0  0  0  0  0  0  0  0  0
    2.4893   -1.3167    0.9601 H   0  0  0  0  0  0  0  0  0  0  0  0
   -1.5921   -2.2263    0.6894 H   0  0  0  0  0  0  0  0  0  0  0  0
    1.8624   -2.7267    2.9771 H   0  0  0  0  0  0  0  0  0  0  0  0
   -0.3306    2.5016   -2.1823 N   0  0  0  0  0  0  0  0  0  0  0  0
   -0.4625    3.3274   -3.3611 C   0  0  2  0  0  0  0  0  0  0  0  0
    0.8820    3.9937   -3.6214 C   0  0  0  0  0  0  0  0  0  0  0  0
    1.7312    4.1548   -2.7473 O   0  0  0  0  0  0  0  0  0  0  0  0
   -1.5597    4.3662   -3.1889 C   0  0  0  0  0  0  0  0  0  0  0  0
   -1.0232    2.5984   -1.4456 H   0  0  0  0  0  0  0  0  0  0  0  0
   -0.7050    2.6560   -4.1920 H   0  0  0  0  0  0  0  0  0  0  0  0
   -1.3343    5.0481   -2.3608 H   0  0  0  0  0  0  0  0  0  0  0  0
   -1.6777    4.9723   -4.0933 H   0  0  0  0  0  0  0  0  0  0  0  0
   -2.5202    3.8864   -2.9723 H   0  0  0  0  0  0  0  0  0  0  0  0
    1.0047    4.4261   -4.9345 N   0  0  0  0  0  0  0  0  0  0  0  0
    2.1835    5.1000   -5.4265 C   0  0  0  0  0  0  0  0  0  0  0  0
    0.2582    4.2333   -5.5958 H   0  0  0  0  0  0  0  0  0  0  0  0
    2.0513    6.1879   -5.3312 H   0  0  0  0  0  0  0  0  0  0  0  0
    3.0583    4.7843   -4.8390 H   0  0  0  0  0  0  0  0  0  0  0  0
    2.3393    4.8410   -6.4841 H   0  0  0  0  0  0  0  0  0  0  0  0
 22 24  2  0  0  0  0
 24 26  1  0  0  0  0
 25 26  2  0  0  0  0
 23 25  1  0  0  0  0
 21 22  1  0  0  0  0
 22 23  1  0  0  0  0
  1  3  1  0  0  0  0
  1  7  1  0  0  0  0
  1  2  2  0  0  0  0
 35 36  1  0  0  0  0
 36 44  1  0  0  0  0
 36 37  2  0  0  0  0
  8  9  1  0  0  0  0
  9 17  1  0  0  0  0
  9 10  2  0  0  0  0
 18 19  1  0  0  0  0
 19 34  1  0  0  0  0
 19 20  2  0  0  0  0
 35 38  1  0  0  0  0
  8 11  1  0  0  0  0
 44 45  1  0  0  0  0
 18 21  1  0  0  0  0
 34 35  1  0  0  0  0
  7  8  1  0  0  0  0
 17 18  1  0  0  0  0
 24 32  1  0  0  0  0
 25 33  1  0  0  0  0
  3  4  1  0  0  0  0
  3  5  1  0  0  0  0
  3  6  1  0  0  0  0
 38 41  1  0  0  0  0
 38 42  1  0  0  0  0
 38 43  1  0  0  0  0
 11 14  1  0  0  0  0
 11 15  1  0  0  0  0
 11 16  1  0  0  0  0
 45 47  1  0  0  0  0
 45 48  1  0  0  0  0
 45 49  1  0  0  0  0
 21 29  1  0  0  0  0
 21 30  1  0  0  0  0
 35 40  1  0  0  0  0
  8 13  1  0  0  0  0
 18 28  1  0  0  0  0
 23 31  1  0  0  0  0
 44 46  1  0  0  0  0
  7 12  1  0  0  0  0
 34 39  1  0  0  0  0
 17 27  1  0  0  0  0
M  END
$$$$

  -OEChem-05262214473D

 49 49  0     1  0  0  0  0  0999 V2000
   -1.5619    0.5658    3.7981 C   0  0  0  0  0  0  0  0  0  0  0  0
   -0.6145   -0.0489    3.3224 O   0  0  0  0  0  0  0  0  0  0  0  0
   -1.9938    0.2834    5.1988 C   0  0  0  0  0  0  0  0  0  0  0  0
   -2.7535   -0.5129    5.2522 H   0  0  0  0  0  0  0  0  0  0  0  0
   -1.1626   -0.0642    5.8331 H   0  0  0  0  0  0  0  0  0  0  0  0
   -2.4318    1.1383    5.7384 H   0  0  0  0  0  0  0  0  0  0  0  0
   -2.3116    1.5383    3.1570 N   0  0  0  0  0  0  0  0  0  0  0  0
   -2.0648    1.9643    1.8046 C   0  0  2  0  0  0  0  0  0  0  0  0
   -0.7298    1.3789    1.3634 C   0  0  0  0  0  0  0  0  0  0  0  0
    0.1423    1.0262    2.1547 O   0  0  0  0  0  0  0  0  0  0  0  0
   -2.0560    3.4811    1.6952 C   0  0  0  0  0  0  0  0  0  0  0  0
   -3.0767    1.9741    3.6688 H   0  0  0  0  0  0  0  0  0  0  0  0
   -2.8689    1.5458    1.1895 H   0  0  0  0  0  0  0  0  0  0  0  0
   -1.2569    3.9183    2.3049 H   0  0  0  0  0  0  0  0  0  0  0  0
   -1.8965    3.8033    0.6609 H   0  0  0  0  0  0  0  0  0  0  0  0
   -3.0062    3.9023    2.0409 H   0  0  0  0  0  0  0  0  0  0  0  0
   -0.6071    1.3358   -0.0200 N   0  0  0  0  0  0  0  0  0  0  0  0
    0.5702    0.8350   -0.6836 C   0  0  2  0  0  0  0  0  0  0  0  0
    0.6949    1.5830   -2.0062 C   0  0  0  0  0  0  0  0  0  0  0  0
    1.3980    1.1888   -2.9342 O   0  0  0  0  0  0  0  0  0  0  0  0
    0.4968   -0.6761   -0.9309 C   0  0  0  0  0  0  0  0  0  0  0  0
    0.4562   -1.4756    0.3485 C   0  0  0  0  0  0  0  0  0  0  0  0
    1.5572   -1.6693    1.1342 N   0  0  0  0  0  0  0  0  0  0  0  0
   -0.5587   -2.1416    0.9942 C   0  0  0  0  0  0  0  0  0  0  0  0
    1.1700   -2.4306    2.2019 C   0  0  0  0  0  0  0  0  0  0  0  0
   -0.1079   -2.7337    2.1474 N   0  0  0  0  0  0  0  0  0  0  0  0
   -1.3903    1.6325   -0.5973 H   0  0  0  0  0  0  0  0  0  0  0  0
    1.4226    1.0923   -0.0440 H   0  0  0  0  0  0  0  0  0  0  0  0
    1.3476   -1.0031   -1.5440 H   0  0  0  0  0  0  0  0  0  0  0  0
   -0.3954   -0.9254   -1.5205 H   0  0  0  0  0  0  0  0  0  0  0  0
    2.4893   -1.3167    0.9601 H   0  0  0  0  0  0  0  0  0  0  0  0
   -1.5921   -2.2263    0.6894 H   0  0  0  0  0  0  0  0  0  0  0  0
    1.8624   -2.7267    2.9771 H   0  0  0  0  0  0  0  0  0  0  0  0
   -0.1103    2.7130   -2.0420 N   0  0  0  0  0  0  0  0  0  0  0  0
   -0.1980    3.5889   -3.1882 C   0  0  2  0  0  0  0  0  0  0  0  0
    1.2191    3.9472   -3.6159 C   0  0  0  0  0  0  0  0  0  0  0  0
    2.1848    3.8835   -2.8580 O   0  0  0  0  0  0  0  0  0  0  0  0
   -1.0020    4.8396   -2.8686 C   0  0  0  0  0  0  0  0  0  0  0  0
   -0.6658    2.9356   -1.2212 H   0  0  0  0  0  0  0  0  0  0  0  0
   -0.6875    3.0186   -3.9853 H   0  0  0  0  0  0  0  0  0  0  0  0
   -0.5271    5.4239   -2.0721 H   0  0  0  0  0  0  0  0  0  0  0  0
   -1.0918    5.4885   -3.7460 H   0  0  0  0  0  0  0  0  0  0  0  0
   -2.0114    4.5787   -2.5327 H   0  0  0  0  0  0  0  0  0  0  0  0
    1.2717    4.3879   -4.9309 N   0  0  0  0  0  0  0  0  0  0  0  0
    2.5016    4.7989   -5.5668 C   0  0  0  0  0  0  0  0  0  0  0  0
    0.4245    4.3902   -5.4914 H   0  0  0  0  0  0  0  0  0  0  0  0
    2.6314    5.8847   -5.4479 H   0  0  0  0  0  0  0  0  0  0  0  0
    3.3486    4.2751   -5.0996 H   0  0  0  0  0  0  0  0  0  0  0  0
    2.4618    4.5495   -6.6374 H   0  0  0  0  0  0  0  0  0  0  0  0
 22 24  2  0  0  0  0
 24 26  1  0  0  0  0
 25 26  2  0  0  0  0
 23 25  1  0  0  0  0
 21 22  1  0  0  0  0
 22 23  1  0  0  0  0
  1  3  1  0  0  0  0
  1  7  1  0  0  0  0
  1  2  2  0  0  0  0
 35 36  1  0  0  0  0
 36 44  1  0  0  0  0
 36 37  2  0  0  0  0
  8  9  1  0  0  0  0
  9 17  1  0  0  0  0
  9 10  2  0  0  0  0
 18 19  1  0  0  0  0
 19 34  1  0  0  0  0
 19 20  2  0  0  0  0
 35 38  1  0  0  0  0
  8 11  1  0  0  0  0
 44 45  1  0  0  0  0
 18 21  1  0  0  0  0
 34 35  1  0  0  0  0
  7  8  1  0  0  0  0
 17 18  1  0  0  0  0
 24 32  1  0  0  0  0
 25 33  1  0  0  0  0
  3  4  1  0  0  0  0
  3  5  1  0  0  0  0
  3  6  1  0  0  0  0
 38 41  1  0  0  0  0
 38 42  1  0  0  0  0
 38 43  1  0  0  0  0
 11 14  1  0  0  0  0
 11 15  1  0  0  0  0
 11 16  1  0  0  0  0
 45 47  1  0  0  0  0
 45 48  1  0  0  0  0
 45 49  1  0  0  0  0
 21 29  1  0  0  0  0
 21 30  1  0  0  0  0
 35 40  1  0  0  0  0
  8 13  1  0  0  0  0
 18 28  1  0  0  0  0
 23 31  1  0  0  0  0
 44 46  1  0  0  0  0
  7 12  1  0  0  0  0
 34 39  1  0  0  0  0
 17 27  1  0  0  0  0
M  END
$$$$

  -OEChem-05262214473D

 49 49  0     1  0  0  0  0  0999 V2000
   -1.5619    0.5658    3.7981 C   0  0  0  0  0  0  0  0  0  0  0  0
   -0.6145   -0.0489    3.3224 O   0  0  0  0  0  0  0  0  0  0  0  0
   -1.9938    0.2834    5.1988 C   0  0  0  0  0  0  0  0  0  0  0  0
   -2.7535   -0.5129    5.2522 H   0  0  0  0  0  0  0  0  0  0  0  0
   -1.1626   -0.0642    5.8331 H   0  0  0  0  0  0  0  0  0  0  0  0
   -2.4318    1.1383    5.7384 H   0  0  0  0  0  0  0  0  0  0  0  0
   -2.3116    1.5383    3.1570 N   0  0  0  0  0  0  0  0  0  0  0  0
   -2.0648    1.9643    1.8046 C   0  0  2  0  0  0  0  0  0  0  0  0
   -0.7298    1.3789    1.3634 C   0  0  0  0  0  0  0  0  0  0  0  0
    0.1423    1.0262    2.1547 O   0  0  0  0  0  0  0  0  0  0  0  0
   -2.0560    3.4811    1.6952 C   0  0  0  0  0  0  0  0  0  0  0  0
   -3.0767    1.9741    3.6688 H   0  0  0  0  0  0  0  0  0  0  0  0
   -2.8689    1.5458    1.1895 H   0  0  0  0  0  0  0  0  0  0  0  0
   -1.2569    3.9183    2.3049 H   0  0  0  0  0  0  0  0  0  0  0  0
   -1.8965    3.8033    0.6609 H   0  0  0  0  0  0  0  0  0  0  0  0
   -3.0062    3.9023    2.0409 H   0  0  0  0  0  0  0  0  0  0  0  0
   -0.6071    1.3358   -0.0200 N   0  0  0  0  0  0  0  0  0  0  0  0
    0.5702    0.8350   -0.6836 C   0  0  2  0  0  0  0  0  0  0  0  0
    0.6949    1.5830   -2.0062 C   0  0  0  0  0  0  0  0  0  0  0  0
    1.1695    1.0752   -3.0200 O   0  0  0  0  0  0  0  0  0  0  0  0
    0.4968   -0.6761   -0.9309 C   0  0  0  0  0  0  0  0  0  0  0  0
    0.4562   -1.4756    0.3485 C   0  0  0  0  0  0  0  0  0  0  0  0
    1.5572   -1.6693    1.1342 N   0  0  0  0  0  0  0  0  0  0  0  0
   -0.5587   -2.1416    0.9942 C   0  0  0  0  0  0  0  0  0  0  0  0
    1.1700   -2.4306    2.2019 C   0  0  0  0  0  0  0  0  0  0  0  0
   -0.1079   -2.7337    2.1474 N   0  0  0  0  0  0  0  0  0  0  0  0
   -1.3903    1.6325   -0.5973 H   0  0  0  0  0  0  0  0  0  0  0  0
    1.4226    1.0923   -0.0440 H   0  0  0  0  0  0  0  0  0  0  0  0
    1.3476   -1.0031   -1.5440 H   0  0  0  0  0  0  0  0  0  0  0  0
   -0.3954   -0.9254   -1.5205 H   0  0  0  0  0  0  0  0  0  0  0  0
    2.4893   -1.3167    0.9601 H   0  0  0  0  0  0  0  0  0  0  0  0
   -1.5921   -2.2263    0.6894 H   0  0  0  0  0  0  0  0  0  0  0  0
    1.8624   -2.7267    2.9771 H   0  0  0  0  0  0  0  0  0  0  0  0
    0.1678    2.8647   -1.9299 N   0  0  0  0  0  0  0  0  0  0  0  0
    0.1381    3.7784   -3.0493 C   0  0  2  0  0  0  0  0  0  0  0  0
    1.5349    3.8265   -3.6544 C   0  0  0  0  0  0  0  0  0  0  0  0
    2.5479    3.5218   -3.0283 O   0  0  0  0  0  0  0  0  0  0  0  0
   -0.3164    5.1648   -2.6201 C   0  0  0  0  0  0  0  0  0  0  0  0
   -0.2164    3.1762   -1.0428 H   0  0  0  0  0  0  0  0  0  0  0  0
   -0.5629    3.3606   -3.7801 H   0  0  0  0  0  0  0  0  0  0  0  0
    0.3737    5.5996   -1.8878 H   0  0  0  0  0  0  0  0  0  0  0  0
   -0.3658    5.8483   -3.4741 H   0  0  0  0  0  0  0  0  0  0  0  0
   -1.3087    5.1240   -2.1581 H   0  0  0  0  0  0  0  0  0  0  0  0
    1.5214    4.2909   -4.9622 N   0  0  0  0  0  0  0  0  0  0  0  0
    2.7234    4.4395   -5.7491 C   0  0  0  0  0  0  0  0  0  0  0  0
    0.6337    4.5023   -5.4083 H   0  0  0  0  0  0  0  0  0  0  0  0
    3.1089    5.4640   -5.6408 H   0  0  0  0  0  0  0  0  0  0  0  0
    3.4816    3.7237   -5.3990 H   0  0  0  0  0  0  0  0  0  0  0  0
    2.4952    4.2437   -6.8072 H   0  0  0  0  0  0  0  0  0  0  0  0
 22 24  2  0  0  0  0
 24 26  1  0  0  0  0
 25 26  2  0  0  0  0
 23 25  1  0  0  0  0
 21 22  1  0  0  0  0
 22 23  1  0  0  0  0
  1  3  1  0  0  0  0
  1  7  1  0  0  0  0
  1  2  2  0  0  0  0
 35 36  1  0  0  0  0
 36 44  1  0  0  0  0
 36 37  2  0  0  0  0
  8  9  1  0  0  0  0
  9 17  1  0  0  0  0
  9 10  2  0  0  0  0
 18 19  1  0  0  0  0
 19 34  1  0  0  0  0
 19 20  2  0  0  0  0
 35 38  1  0  0  0  0
  8 11  1  0  0  0  0
 44 45  1  0  0  0  0
 18 21  1  0  0  0  0
 34 35  1  0  0  0  0
  7  8  1  0  0  0  0
 17 18  1  0  0  0  0
 24 32  1  0  0  0  0
 25 33  1  0  0  0  0
  3  4  1  0  0  0  0
  3  5  1  0  0  0  0
  3  6  1  0  0  0  0
 38 41  1  0  0  0  0
 38 42  1  0  0  0  0
 38 43  1  0  0  0  0
 11 14  1  0  0  0  0
 11 15  1  0  0  0  0
 11 16  1  0  0  0  0
 45 47  1  0  0  0  0
 45 48  1  0  0  0  0
 45 49  1  0  0  0  0
 21 29  1  0  0  0  0
 21 30  1  0  0  0  0
 35 40  1  0  0  0  0
  8 13  1  0  0  0  0
 18 28  1  0  0  0  0
 23 31  1  0  0  0  0
 44 46  1  0  0  0  0
  7 12  1  0  0  0  0
 34 39  1  0  0  0  0
 17 27  1  0  0  0  0
M  END
$$$$

  -OEChem-05262214473D

 49 49  0     1  0  0  0  0  0999 V2000
   -1.5619    0.5658    3.7981 C   0  0  0  0  0  0  0  0  0  0  0  0
   -0.6145   -0.0489    3.3224 O   0  0  0  0  0  0  0  0  0  0  0  0
   -1.9938    0.2834    5.1988 C   0  0  0  0  0  0  0  0  0  0  0  0
   -2.7535   -0.5129    5.2522 H   0  0  0  0  0  0  0  0  0  0  0  0
   -1.1626   -0.0642    5.8331 H   0  0  0  0  0  0  0  0  0  0  0  0
   -2.4318    1.1383    5.7384 H   0  0  0  0  0  0  0  0  0  0  0  0
   -2.3116    1.5383    3.1570 N   0  0  0  0  0  0  0  0  0  0  0  0
   -2.0648    1.9643    1.8046 C   0  0  2  0  0  0  0  0  0  0  0  0
   -0.7298    1.3789    1.3634 C   0  0  0  0  0  0  0  0  0  0  0  0
    0.1423    1.0262    2.1547 O   0  0  0  0  0  0  0  0  0  0  0  0
   -2.0560    3.4811    1.6952 C   0  0  0  0  0  0  0  0  0  0  0  0
   -3.0767    1.9741    3.6688 H   0  0  0  0  0  0  0  0  0  0  0  0
   -2.8689    1.5458    1.1895 H   0  0  0  0  0  0  0  0  0  0  0  0
   -1.2569    3.9183    2.3049 H   0  0  0  0  0  0  0  0  0  0  0  0
   -1.8965    3.8033    0.6609 H   0  0  0  0  0  0  0  0  0  0  0  0
   -3.0062    3.9023    2.0409 H   0  0  0  0  0  0  0  0  0  0  0  0
   -0.6071    1.3358   -0.0200 N   0  0  0  0  0  0  0  0  0  0  0  0
    0.5702    0.8350   -0.6836 C   0  0  2  0  0  0  0  0  0  0  0  0
    0.6949    1.5830   -2.0062 C   0  0  0  0  0  0  0  0  0  0  0  0
    0.9125    1.0186   -3.0762 O   0  0  0  0  0  0  0  0  0  0  0  0
    0.4968   -0.6761   -0.9309 C   0  0  0  0  0  0  0  0  0  0  0  0
    0.4562   -1.4756    0.3485 C   0  0  0  0  0  0  0  0  0  0  0  0
    1.5572   -1.6693    1.1342 N   0  0  0  0  0  0  0  0  0  0  0  0
   -0.5587   -2.1416    0.9942 C   0  0  0  0  0  0  0  0  0  0  0  0
    1.1700   -2.4306    2.2019 C   0  0  0  0  0  0  0  0  0  0  0  0
   -0.1079   -2.7337    2.1474 N   0  0  0  0  0  0  0  0  0  0  0  0
   -1.3903    1.6325   -0.5973 H   0  0  0  0  0  0  0  0  0  0  0  0
    1.4226    1.0923   -0.0440 H   0  0  0  0  0  0  0  0  0  0  0  0
    1.3476   -1.0031   -1.5440 H   0  0  0  0  0  0  0  0  0  0  0  0
   -0.3954   -0.9254   -1.5205 H   0  0  0  0  0  0  0  0  0  0  0  0
    2.4893   -1.3167    0.9601 H   0  0  0  0  0  0  0  0  0  0  0  0
   -1.5921   -2.2263    0.6894 H   0  0  0  0  0  0  0  0  0  0  0  0
    1.8624   -2.7267    2.9771 H   0  0  0  0  0  0  0  0  0  0  0  0
    0.4847    2.9465   -1.8538 N   0  0  0  0  0  0  0  0  0  0  0  0
    0.5229    3.8831   -2.9538 C   0  0  2  0  0  0  0  0  0  0  0  0
    1.8080    3.6398   -3.7342 C   0  0  0  0  0  0  0  0  0  0  0  0
    2.7959    3.0946   -3.2465 O   0  0  0  0  0  0  0  0  0  0  0  0
    0.4505    5.3197   -2.4601 C   0  0  0  0  0  0  0  0  0  0  0  0
    0.2943    3.3040   -0.9223 H   0  0  0  0  0  0  0  0  0  0  0  0
   -0.3398    3.6586   -3.5905 H   0  0  0  0  0  0  0  0  0  0  0  0
    1.3067    5.5631   -1.8205 H   0  0  0  0  0  0  0  0  0  0  0  0
    0.4508    6.0270   -3.2960 H   0  0  0  0  0  0  0  0  0  0  0  0
   -0.4599    5.4849   -1.8739 H   0  0  0  0  0  0  0  0  0  0  0  0
    1.7370    4.1419   -5.0261 N   0  0  0  0  0  0  0  0  0  0  0  0
    2.8337    4.0465   -5.9610 C   0  0  0  0  0  0  0  0  0  0  0  0
    0.8714    4.5618   -5.3522 H   0  0  0  0  0  0  0  0  0  0  0  0
    3.4511    4.9546   -5.8966 H   0  0  0  0  0  0  0  0  0  0  0  0
    3.4482    3.1674   -5.7167 H   0  0  0  0  0  0  0  0  0  0  0  0
    2.4373    3.9444   -6.9820 H   0  0  0  0  0  0  0  0  0  0  0  0
 22 24  2  0  0  0  0
 24 26  1  0  0  0  0
 25 26  2  0  0  0  0
 23 25  1  0  0  0  0
 21 22  1  0  0  0  0
 22 23  1  0  0  0  0
  1  3  1  0  0  0  0
  1  7  1  0  0  0  0
  1  2  2  0  0  0  0
 35 36  1  0  0  0  0
 36 44  1  0  0  0  0
 36 37  2  0  0  0  0
  8  9  1  0  0  0  0
  9 17  1  0  0  0  0
  9 10  2  0  0  0  0
 18 19  1  0  0  0  0
 19 34  1  0  0  0  0
 19 20  2  0  0  0  0
 35 38  1  0  0  0  0
  8 11  1  0  0  0  0
 44 45  1  0  0  0  0
 18 21  1  0  0  0  0
 34 35  1  0  0  0  0
  7  8  1  0  0  0  0
 17 18  1  0  0  0  0
 24 32  1  0  0  0  0
 25 33  1  0  0  0  0
  3  4  1  0  0  0  0
  3  5  1  0  0  0  0
  3  6  1  0  0  0  0
 38 41  1  0  0  0  0
 38 42  1  0  0  0  0
 38 43  1  0  0  0  0
 11 14  1  0  0  0  0
 11 15  1  0  0  0  0
 11 16  1  0  0  0  0
 45 47  1  0  0  0  0
 45 48  1  0  0  0  0
 45 49  1  0  0  0  0
 21 29  1  0  0  0  0
 21 30  1  0  0  0  0
 35 40  1  0  0  0  0
  8 13  1  0  0  0  0
 18 28  1  0  0  0  0
 23 31  1  0  0  0  0
 44 46  1  0  0  0  0
  7 12  1  0  0  0  0
 34 39  1  0  0  0  0
 17 27  1  0  0  0  0
M  END
$$$$

  -OEChem-05262214473D

 49 49  0     1  0  0  0  0  0999 V2000
   -1.5619    0.5658    3.7981 C   0  0  0  0  0  0  0  0  0  0  0  0
   -0.6145   -0.0489    3.3224 O   0  0  0  0  0  0  0  0  0  0  0  0
   -1.9938    0.2834    5.1988 C   0  0  0  0  0  0  0  0  0  0  0  0
   -2.7535   -0.5129    5.2522 H   0  0  0  0  0  0  0  0  0  0  0  0
   -1.1626   -0.0642    5.8331 H   0  0  0  0  0  0  0  0  0  0  0  0
   -2.4318    1.1383    5.7384 H   0  0  0  0  0  0  0  0  0  0  0  0
   -2.3116    1.5383    3.1570 N   0  0  0  0  0  0  0  0  0  0  0  0
   -2.0648    1.9643    1.8046 C   0  0  2  0  0  0  0  0  0  0  0  0
   -0.7298    1.3789    1.3634 C   0  0  0  0  0  0  0  0  0  0  0  0
    0.1423    1.0262    2.1547 O   0  0  0  0  0  0  0  0  0  0  0  0
   -2.0560    3.4811    1.6952 C   0  0  0  0  0  0  0  0  0  0  0  0
   -3.0767    1.9741    3.6688 H   0  0  0  0  0  0  0  0  0  0  0  0
   -2.8689    1.5458    1.1895 H   0  0  0  0  0  0  0  0  0  0  0  0
   -1.2569    3.9183    2.3049 H   0  0  0  0  0  0  0  0  0  0  0  0
   -1.8965    3.8033    0.6609 H   0  0  0  0  0  0  0  0  0  0  0  0
   -3.0062    3.9023    2.0409 H   0  0  0  0  0  0  0  0  0  0  0  0
   -0.6071    1.3358   -0.0200 N   0  0  0  0  0  0  0  0  0  0  0  0
    0.5702    0.8350   -0.6836 C   0  0  2  0  0  0  0  0  0  0  0  0
    0.6949    1.5830   -2.0062 C   0  0  0  0  0  0  0  0  0  0  0  0
    0.6443    1.0228   -3.0991 O   0  0  0  0  0  0  0  0  0  0  0  0
    0.4968   -0.6761   -0.9309 C   0  0  0  0  0  0  0  0  0  0  0  0
    0.4562   -1.4756    0.3485 C   0  0  0  0  0  0  0  0  0  0  0  0
    1.5572   -1.6693    1.1342 N   0  0  0  0  0  0  0  0  0  0  0  0
   -0.5587   -2.1416    0.9942 C   0  0  0  0  0  0  0  0  0  0  0  0
    1.1700   -2.4306    2.2019 C   0  0  0  0  0  0  0  0  0  0  0  0
   -0.1079   -2.7337    2.1474 N   0  0  0  0  0  0  0  0  0  0  0  0
   -1.3903    1.6325   -0.5973 H   0  0  0  0  0  0  0  0  0  0  0  0
    1.4226    1.0923   -0.0440 H   0  0  0  0  0  0  0  0  0  0  0  0
    1.3476   -1.0031   -1.5440 H   0  0  0  0  0  0  0  0  0  0  0  0
   -0.3954   -0.9254   -1.5205 H   0  0  0  0  0  0  0  0  0  0  0  0
    2.4893   -1.3167    0.9601 H   0  0  0  0  0  0  0  0  0  0  0  0
   -1.5921   -2.2263    0.6894 H   0  0  0  0  0  0  0  0  0  0  0  0
    1.8624   -2.7267    2.9771 H   0  0  0  0  0  0  0  0  0  0  0  0
    0.8188    2.9527   -1.8188 N   0  0  0  0  0  0  0  0  0  0  0  0
    0.9303    3.8958   -2.9082 C   0  0  2  0  0  0  0  0  0  0  0  0
    2.0197    3.3999   -3.8499 C   0  0  0  0  0  0  0  0  0  0  0  0
    2.9117    2.6309   -3.4979 O   0  0  0  0  0  0  0  0  0  0  0  0
    1.2463    5.2938   -2.3997 C   0  0  0  0  0  0  0  0  0  0  0  0
    0.8317    3.3102   -0.8681 H   0  0  0  0  0  0  0  0  0  0  0  0
   -0.0332    3.8923   -3.4294 H   0  0  0  0  0  0  0  0  0  0  0  0
    2.2082    5.3170   -1.8746 H   0  0  0  0  0  0  0  0  0  0  0  0
    1.3023    6.0125   -3.2239 H   0  0  0  0  0  0  0  0  0  0  0  0
    0.4771    5.6369   -1.6995 H   0  0  0  0  0  0  0  0  0  0  0  0
    1.9036    3.9509   -5.1184 N   0  0  0  0  0  0  0  0  0  0  0  0
    2.8252    3.6466   -6.1880 C   0  0  0  0  0  0  0  0  0  0  0  0
    1.1216    4.5647   -5.3269 H   0  0  0  0  0  0  0  0  0  0  0  0
    3.6349    4.3911   -6.1980 H   0  0  0  0  0  0  0  0  0  0  0  0
    3.2507    2.6444   -6.0311 H   0  0  0  0  0  0  0  0  0  0  0  0
    2.2919    3.6720   -7.1497 H   0  0  0  0  0  0  0  0  0  0  0  0
 22 24  2  0  0  0  0
 24 26  1  0  0  0  0
 25 26  2  0  0  0  0
 23 25  1  0  0  0  0
 21 22  1  0  0  0  0
 22 23  1  0  0  0  0
  1  3  1  0  0  0  0
  1  7  1  0  0  0  0
  1  2  2  0  0  0  0
 35 36  1  0  0  0  0
 36 44  1  0  0  0  0
 36 37  2  0  0  0  0
  8  9  1  0  0  0  0
  9 17  1  0  0  0  0
  9 10  2  0  0  0  0
 18 19  1  0  0  0  0
 19 34  1  0  0  0  0
 19 20  2  0  0  0  0
 35 38  1  0  0  0  0
  8 11  1  0  0  0  0
 44 45  1  0  0  0  0
 18 21  1  0  0  0  0
 34 35  1  0  0  0  0
  7  8  1  0  0  0  0
 17 18  1  0  0  0  0
 24 32  1  0  0  0  0
 25 33  1  0  0  0  0
  3  4  1  0  0  0  0
  3  5  1  0  0  0  0
  3  6  1  0  0  0  0
 38 41  1  0  0  0  0
 38 42  1  0  0  0  0
 38 43  1  0  0  0  0
 11 14  1  0  0  0  0
 11 15  1  0  0  0  0
 11 16  1  0  0  0  0
 45 47  1  0  0  0  0
 45 48  1  0  0  0  0
 45 49  1  0  0  0  0
 21 29  1  0  0  0  0
 21 30  1  0  0  0  0
 35 40  1  0  0  0  0
  8 13  1  0  0  0  0
 18 28  1  0  0  0  0
 23 31  1  0  0  0  0
 44 46  1  0  0  0  0
  7 12  1  0  0  0  0
 34 39  1  0  0  0  0
 17 27  1  0  0  0  0
M  END
$$$$

  -OEChem-05262214473D

 49 49  0     1  0  0  0  0  0999 V2000
   -1.5619    0.5658    3.7981 C   0  0  0  0  0  0  0  0  0  0  0  0
   -0.6145   -0.0489    3.3224 O   0  0  0  0  0  0  0  0  0  0  0  0
   -1.9938    0.2834    5.1988 C   0  0  0  0  0  0  0  0  0  0  0  0
   -2.7535   -0.5129    5.2522 H   0  0  0  0  0  0  0  0  0  0  0  0
   -1.1626   -0.0642    5.8331 H   0  0  0  0  0  0  0  0  0  0  0  0
   -2.4318    1.1383    5.7384 H   0  0  0  0  0  0  0  0  0  0  0  0
   -2.3116    1.5383    3.1570 N   0  0  0  0  0  0  0  0  0  0  0  0
   -2.0648    1.9643    1.8046 C   0  0  2  0  0  0  0  0  0  0  0  0
   -0.7298    1.3789    1.3634 C   0  0  0  0  0  0  0  0  0  0  0  0
    0.1423    1.0262    2.1547 O   0  0  0  0  0  0  0  0  0  0  0  0
   -2.0560    3.4811    1.6952 C   0  0  0  0  0  0  0  0  0  0  0  0
   -3.0767    1.9741    3.6688 H   0  0  0  0  0  0  0  0  0  0  0  0
   -2.8689    1.5458    1.1895 H   0  0  0  0  0  0  0  0  0  0  0  0
   -1.2569    3.9183    2.3049 H   0  0  0  0  0  0  0  0  0  0  0  0
   -1.8965    3.8033    0.6609 H   0  0  0  0  0  0  0  0  0  0  0  0
   -3.0062    3.9023    2.0409 H   0  0  0  0  0  0  0  0  0  0  0  0
   -0.6071    1.3358   -0.0200 N   0  0  0  0  0  0  0  0  0  0  0  0
    0.5702    0.8350   -0.6836 C   0  0  2  0  0  0  0  0  0  0  0  0
    0.6949    1.5830   -2.0062 C   0  0  0  0  0  0  0  0  0  0  0  0
    0.3833    1.0876   -3.0871 O   0  0  0  0  0  0  0  0  0  0  0  0
    0.4968   -0.6761   -0.9309 C   0  0  0  0  0  0  0  0  0  0  0  0
    0.4562   -1.4756    0.3485 C   0  0  0  0  0  0  0  0  0  0  0  0
    1.5572   -1.6693    1.1342 N   0  0  0  0  0  0  0  0  0  0  0  0
   -0.5587   -2.1416    0.9942 C   0  0  0  0  0  0  0  0  0  0  0  0
    1.1700   -2.4306    2.2019 C   0  0  0  0  0  0  0  0  0  0  0  0
   -0.1079   -2.7337    2.1474 N   0  0  0  0  0  0  0  0  0  0  0  0
   -1.3903    1.6325   -0.5973 H   0  0  0  0  0  0  0  0  0  0  0  0
    1.4226    1.0923   -0.0440 H   0  0  0  0  0  0  0  0  0  0  0  0
    1.3476   -1.0031   -1.5440 H   0  0  0  0  0  0  0  0  0  0  0  0
   -0.3954   -0.9254   -1.5205 H   0  0  0  0  0  0  0  0  0  0  0  0
    2.4893   -1.3167    0.9601 H   0  0  0  0  0  0  0  0  0  0  0  0
   -1.5921   -2.2263    0.6894 H   0  0  0  0  0  0  0  0  0  0  0  0
    1.8624   -2.7267    2.9771 H   0  0  0  0  0  0  0  0  0  0  0  0
    1.1473    2.8829   -1.8273 N   0  0  0  0  0  0  0  0  0  0  0  0
    1.3324    3.8156   -2.9157 C   0  0  2  0  0  0  0  0  0  0  0  0
    2.1556    3.1230   -3.9937 C   0  0  0  0  0  0  0  0  0  0  0  0
    2.8876    2.1623   -3.7652 O   0  0  0  0  0  0  0  0  0  0  0  0
    2.0169    5.0887   -2.4430 C   0  0  0  0  0  0  0  0  0  0  0  0
    1.3590    3.1944   -0.8839 H   0  0  0  0  0  0  0  0  0  0  0  0
    0.3358    4.0459   -3.3078 H   0  0  0  0  0  0  0  0  0  0  0  0
    3.0169    4.8780   -2.0467 H   0  0  0  0  0  0  0  0  0  0  0  0
    2.1307    5.8058   -3.2627 H   0  0  0  0  0  0  0  0  0  0  0  0
    1.4384    5.5697   -1.6469 H   0  0  0  0  0  0  0  0  0  0  0  0
    2.0099    3.7309   -5.2328 N   0  0  0  0  0  0  0  0  0  0  0  0
    2.6983    3.2670   -6.4146 C   0  0  0  0  0  0  0  0  0  0  0  0
    1.3670    4.5108   -5.3343 H   0  0  0  0  0  0  0  0  0  0  0  0
    3.6475    3.8119   -6.5244 H   0  0  0  0  0  0  0  0  0  0  0  0
    2.9026    2.1902   -6.3208 H   0  0  0  0  0  0  0  0  0  0  0  0
    2.0691    3.4451   -7.2991 H   0  0  0  0  0  0  0  0  0  0  0  0
 22 24  2  0  0  0  0
 24 26  1  0  0  0  0
 25 26  2  0  0  0  0
 23 25  1  0  0  0  0
 21 22  1  0  0  0  0
 22 23  1  0  0  0  0
  1  3  1  0  0  0  0
  1  7  1  0  0  0  0
  1  2  2  0  0  0  0
 35 36  1  0  0  0  0
 36 44  1  0  0  0  0
 36 37  2  0  0  0  0
  8  9  1  0  0  0  0
  9 17  1  0  0  0  0
  9 10  2  0  0  0  0
 18 19  1  0  0  0  0
 19 34  1  0  0  0  0
 19 20  2  0  0  0  0
 35 38  1  0  0  0  0
  8 11  1  0  0  0  0
 44 45  1  0  0  0  0
 18 21  1  0  0  0  0
 34 35  1  0  0  0  0
  7  8  1  0  0  0  0
 17 18  1  0  0  0  0
 24 32  1  0  0  0  0
 25 33  1  0  0  0  0
  3  4  1  0  0  0  0
  3  5  1  0  0  0  0
  3  6  1  0  0  0  0
 38 41  1  0  0  0  0
 38 42  1  0  0  0  0
 38 43  1  0  0  0  0
 11 14  1  0  0  0  0
 11 15  1  0  0  0  0
 11 16  1  0  0  0  0
 45 47  1  0  0  0  0
 45 48  1  0  0  0  0
 45 49  1  0  0  0  0
 21 29  1  0  0  0  0
 21 30  1  0  0  0  0
 35 40  1  0  0  0  0
  8 13  1  0  0  0  0
 18 28  1  0  0  0  0
 23 31  1  0  0  0  0
 44 46  1  0  0  0  0
  7 12  1  0  0  0  0
 34 39  1  0  0  0  0
 17 27  1  0  0  0  0
M  END
$$$$

  -OEChem-05262214473D

 49 49  0     1  0  0  0  0  0999 V2000
   -1.5619    0.5658    3.7981 C   0  0  0  0  0  0  0  0  0  0  0  0
   -0.6145   -0.0489    3.3224 O   0  0  0  0  0  0  0  0  0  0  0  0
   -1.9938    0.2834    5.1988 C   0  0  0  0  0  0  0  0  0  0  0  0
   -2.7535   -0.5129    5.2522 H   0  0  0  0  0  0  0  0  0  0  0  0
   -1.1626   -0.0642    5.8331 H   0  0  0  0  0  0  0  0  0  0  0  0
   -2.4318    1.1383    5.7384 H   0  0  0  0  0  0  0  0  0  0  0  0
   -2.3116    1.5383    3.1570 N   0  0  0  0  0  0  0  0  0  0  0  0
   -2.0648    1.9643    1.8046 C   0  0  2  0  0  0  0  0  0  0  0  0
   -0.7298    1.3789    1.3634 C   0  0  0  0  0  0  0  0  0  0  0  0
    0.1423    1.0262    2.1547 O   0  0  0  0  0  0  0  0  0  0  0  0
   -2.0560    3.4811    1.6952 C   0  0  0  0  0  0  0  0  0  0  0  0
   -3.0767    1.9741    3.6688 H   0  0  0  0  0  0  0  0  0  0  0  0
   -2.8689    1.5458    1.1895 H   0  0  0  0  0  0  0  0  0  0  0  0
   -1.2569    3.9183    2.3049 H   0  0  0  0  0  0  0  0  0  0  0  0
   -1.8965    3.8033    0.6609 H   0  0  0  0  0  0  0  0  0  0  0  0
   -3.0062    3.9023    2.0409 H   0  0  0  0  0  0  0  0  0  0  0  0
   -0.6071    1.3358   -0.0200 N   0  0  0  0  0  0  0  0  0  0  0  0
    0.5702    0.8350   -0.6836 C   0  0  2  0  0  0  0  0  0  0  0  0
    0.6949    1.5830   -2.0062 C   0  0  0  0  0  0  0  0  0  0  0  0
    0.1473    1.2085   -3.0410 O   0  0  0  0  0  0  0  0  0  0  0  0
    0.4968   -0.6761   -0.9309 C   0  0  0  0  0  0  0  0  0  0  0  0
    0.4562   -1.4756    0.3485 C   0  0  0  0  0  0  0  0  0  0  0  0
    1.5572   -1.6693    1.1342 N   0  0  0  0  0  0  0  0  0  0  0  0
   -0.5587   -2.1416    0.9942 C   0  0  0  0  0  0  0  0  0  0  0  0
    1.1700   -2.4306    2.2019 C   0  0  0  0  0  0  0  0  0  0  0  0
   -0.1079   -2.7337    2.1474 N   0  0  0  0  0  0  0  0  0  0  0  0
   -1.3903    1.6325   -0.5973 H   0  0  0  0  0  0  0  0  0  0  0  0
    1.4226    1.0923   -0.0440 H   0  0  0  0  0  0  0  0  0  0  0  0
    1.3476   -1.0031   -1.5440 H   0  0  0  0  0  0  0  0  0  0  0  0
   -0.3954   -0.9254   -1.5205 H   0  0  0  0  0  0  0  0  0  0  0  0
    2.4893   -1.3167    0.9601 H   0  0  0  0  0  0  0  0  0  0  0  0
   -1.5921   -2.2263    0.6894 H   0  0  0  0  0  0  0  0  0  0  0  0
    1.8624   -2.7267    2.9771 H   0  0  0  0  0  0  0  0  0  0  0  0
    1.4479    2.7419   -1.8787 N   0  0  0  0  0  0  0  0  0  0  0  0
    1.7019    3.6480   -2.9756 C   0  0  2  0  0  0  0  0  0  0  0  0
    2.2065    2.8281   -4.1557 C   0  0  0  0  0  0  0  0  0  0  0  0
    2.7251    1.7208   -4.0302 O   0  0  0  0  0  0  0  0  0  0  0  0
    2.7097    4.7186   -2.5870 C   0  0  0  0  0  0  0  0  0  0  0  0
    1.8403    2.9644   -0.9686 H   0  0  0  0  0  0  0  0  0  0  0  0
    0.7422    4.1087   -3.2339 H   0  0  0  0  0  0  0  0  0  0  0  0
    3.6776    4.2760   -2.3248 H   0  0  0  0  0  0  0  0  0  0  0  0
    2.8795    5.4210   -3.4097 H   0  0  0  0  0  0  0  0  0  0  0  0
    2.3586    5.2878   -1.7195 H   0  0  0  0  0  0  0  0  0  0  0  0
    2.0486    3.4971   -5.3614 N   0  0  0  0  0  0  0  0  0  0  0  0
    2.4618    2.9336   -6.6255 C   0  0  0  0  0  0  0  0  0  0  0  0
    1.5911    4.4038   -5.3736 H   0  0  0  0  0  0  0  0  0  0  0  0
    3.4883    3.2566   -6.8535 H   0  0  0  0  0  0  0  0  0  0  0  0
    2.4276    1.8357   -6.5661 H   0  0  0  0  0  0  0  0  0  0  0  0
    1.7839    3.2791   -7.4199 H   0  0  0  0  0  0  0  0  0  0  0  0
 22 24  2  0  0  0  0
 24 26  1  0  0  0  0
 25 26  2  0  0  0  0
 23 25  1  0  0  0  0
 21 22  1  0  0  0  0
 22 23  1  0  0  0  0
  1  3  1  0  0  0  0
  1  7  1  0  0  0  0
  1  2  2  0  0  0  0
 35 36  1  0  0  0  0
 36 44  1  0  0  0  0
 36 37  2  0  0  0  0
  8  9  1  0  0  0  0
  9 17  1  0  0  0  0
  9 10  2  0  0  0  0
 18 19  1  0  0  0  0
 19 34  1  0  0  0  0
 19 20  2  0  0  0  0
 35 38  1  0  0  0  0
  8 11  1  0  0  0  0
 44 45  1  0  0  0  0
 18 21  1  0  0  0  0
 34 35  1  0  0  0  0
  7  8  1  0  0  0  0
 17 18  1  0  0  0  0
 24 32  1  0  0  0  0
 25 33  1  0  0  0  0
  3  4  1  0  0  0  0
  3  5  1  0  0  0  0
  3  6  1  0  0  0  0
 38 41  1  0  0  0  0
 38 42  1  0  0  0  0
 38 43  1  0  0  0  0
 11 14  1  0  0  0  0
 11 15  1  0  0  0  0
 11 16  1  0  0  0  0
 45 47  1  0  0  0  0
 45 48  1  0  0  0  0
 45 49  1  0  0  0  0
 21 29  1  0  0  0  0
 21 30  1  0  0  0  0
 35 40  1  0  0  0  0
  8 13  1  0  0  0  0
 18 28  1  0  0  0  0
 23 31  1  0  0  0  0
 44 46  1  0  0  0  0
  7 12  1  0  0  0  0
 34 39  1  0  0  0  0
 17 27  1  0  0  0  0
M  END
$$$$

  -OEChem-05262214473D

 49 49  0     1  0  0  0  0  0999 V2000
   -1.5619    0.5658    3.7981 C   0  0  0  0  0  0  0  0  0  0  0  0
   -0.6145   -0.0489    3.3224 O   0  0  0  0  0  0  0  0  0  0  0  0
   -1.9938    0.2834    5.1988 C   0  0  0  0  0  0  0  0  0  0  0  0
   -2.7535   -0.5129    5.2522 H   0  0  0  0  0  0  0  0  0  0  0  0
   -1.1626   -0.0642    5.8331 H   0  0  0  0  0  0  0  0  0  0  0  0
   -2.4318    1.1383    5.7384 H   0  0  0  0  0  0  0  0  0  0  0  0
   -2.3116    1.5383    3.1570 N   0  0  0  0  0  0  0  0  0  0  0  0
   -2.0648    1.9643    1.8046 C   0  0  2  0  0  0  0  0  0  0  0  0
   -0.7298    1.3789    1.3634 C   0  0  0  0  0  0  0  0  0  0  0  0
    0.1423    1.0262    2.1547 O   0  0  0  0  0  0  0  0  0  0  0  0
   -2.0560    3.4811    1.6952 C   0  0  0  0  0  0  0  0  0  0  0  0
   -3.0767    1.9741    3.6688 H   0  0  0  0  0  0  0  0  0  0  0  0
   -2.8689    1.5458    1.1895 H   0  0  0  0  0  0  0  0  0  0  0  0
   -1.2569    3.9183    2.3049 H   0  0  0  0  0  0  0  0  0  0  0  0
   -1.8965    3.8033    0.6609 H   0  0  0  0  0  0  0  0  0  0  0  0
   -3.0062    3.9023    2.0409 H   0  0  0  0  0  0  0  0  0  0  0  0
   -0.6071    1.3358   -0.0200 N   0  0  0  0  0  0  0  0  0  0  0  0
    0.5702    0.8350   -0.6836 C   0  0  2  0  0  0  0  0  0  0  0  0
    0.6949    1.5830   -2.0062 C   0  0  0  0  0  0  0  0  0  0  0  0
   -0.0477    1.3773   -2.9639 O   0  0  0  0  0  0  0  0  0  0  0  0
    0.4968   -0.6761   -0.9309 C   0  0  0  0  0  0  0  0  0  0  0  0
    0.4562   -1.4756    0.3485 C   0  0  0  0  0  0  0  0  0  0  0  0
    1.5572   -1.6693    1.1342 N   0  0  0  0  0  0  0  0  0  0  0  0
   -0.5587   -2.1416    0.9942 C   0  0  0  0  0  0  0  0  0  0  0  0
    1.1700   -2.4306    2.2019 C   0  0  0  0  0  0  0  0  0  0  0  0
   -0.1079   -2.7337    2.1474 N   0  0  0  0  0  0  0  0  0  0  0  0
   -1.3903    1.6325   -0.5973 H   0  0  0  0  0  0  0  0  0  0  0  0
    1.4226    1.0923   -0.0440 H   0  0  0  0  0  0  0  0  0  0  0  0
    1.3476   -1.0031   -1.5440 H   0  0  0  0  0  0  0  0  0  0  0  0
   -0.3954   -0.9254   -1.5205 H   0  0  0  0  0  0  0  0  0  0  0  0
    2.4893   -1.3167    0.9601 H   0  0  0  0  0  0  0  0  0  0  0  0
   -1.5921   -2.2263    0.6894 H   0  0  0  0  0  0  0  0  0  0  0  0
    1.8624   -2.7267    2.9771 H   0  0  0  0  0  0  0  0  0  0  0  0
    1.7001    2.5394   -1.9694 N   0  0  0  0  0  0  0  0  0  0  0  0
    2.0135    3.4045   -3.0839 C   0  0  2  0  0  0  0  0  0  0  0  0
    2.1688    2.5353   -4.3249 C   0  0  0  0  0  0  0  0  0  0  0  0
    2.4354    1.3363   -4.2750 O   0  0  0  0  0  0  0  0  0  0  0  0
    3.2775    4.2086   -2.8219 C   0  0  0  0  0  0  0  0  0  0  0  0
    2.2429    2.6361   -1.1163 H   0  0  0  0  0  0  0  0  0  0  0  0
    1.1582    4.0766   -3.2128 H   0  0  0  0  0  0  0  0  0  0  0  0
    4.1453    3.5521   -2.6901 H   0  0  0  0  0  0  0  0  0  0  0  0
    3.4977    4.8843   -3.6549 H   0  0  0  0  0  0  0  0  0  0  0  0
    3.1749    4.8105   -1.9125 H   0  0  0  0  0  0  0  0  0  0  0  0
    2.0172    3.2651   -5.4956 N   0  0  0  0  0  0  0  0  0  0  0  0
    2.1317    2.6692   -6.8062 C   0  0  0  0  0  0  0  0  0  0  0  0
    1.7785    4.2510   -5.4424 H   0  0  0  0  0  0  0  0  0  0  0  0
    3.1680    2.7628   -7.1629 H   0  0  0  0  0  0  0  0  0  0  0  0
    1.8580    1.6052   -6.7502 H   0  0  0  0  0  0  0  0  0  0  0  0
    1.4558    3.1854   -7.5038 H   0  0  0  0  0  0  0  0  0  0  0  0
 22 24  2  0  0  0  0
 24 26  1  0  0  0  0
 25 26  2  0  0  0  0
 23 25  1  0  0  0  0
 21 22  1  0  0  0  0
 22 23  1  0  0  0  0
  1  3  1  0  0  0  0
  1  7  1  0  0  0  0
  1  2  2  0  0  0  0
 35 36  1  0  0  0  0
 36 44  1  0  0  0  0
 36 37  2  0  0  0  0
  8  9  1  0  0  0  0
  9 17  1  0  0  0  0
  9 10  2  0  0  0  0
 18 19  1  0  0  0  0
 19 34  1  0  0  0  0
 19 20  2  0  0  0  0
 35 38  1  0  0  0  0
  8 11  1  0  0  0  0
 44 45  1  0  0  0  0
 18 21  1  0  0  0  0
 34 35  1  0  0  0  0
  7  8  1  0  0  0  0
 17 18  1  0  0  0  0
 24 32  1  0  0  0  0
 25 33  1  0  0  0  0
  3  4  1  0  0  0  0
  3  5  1  0  0  0  0
  3  6  1  0  0  0  0
 38 41  1  0  0  0  0
 38 42  1  0  0  0  0
 38 43  1  0  0  0  0
 11 14  1  0  0  0  0
 11 15  1  0  0  0  0
 11 16  1  0  0  0  0
 45 47  1  0  0  0  0
 45 48  1  0  0  0  0
 45 49  1  0  0  0  0
 21 29  1  0  0  0  0
 21 30  1  0  0  0  0
 35 40  1  0  0  0  0
  8 13  1  0  0  0  0
 18 28  1  0  0  0  0
 23 31  1  0  0  0  0
 44 46  1  0  0  0  0
  7 12  1  0  0  0  0
 34 39  1  0  0  0  0
 17 27  1  0  0  0  0
M  END
$$$$

  -OEChem-05262214473D

 49 49  0     1  0  0  0  0  0999 V2000
   -1.5619    0.5658    3.7981 C   0  0  0  0  0  0  0  0  0  0  0  0
   -0.6145   -0.0489    3.3224 O   0  0  0  0  0  0  0  0  0  0  0  0
   -1.9938    0.2834    5.1988 C   0  0  0  0  0  0  0  0  0  0  0  0
   -2.7535   -0.5129    5.2522 H   0  0  0  0  0  0  0  0  0  0  0  0
   -1.1626   -0.0642    5.8331 H   0  0  0  0  0  0  0  0  0  0  0  0
   -2.4318    1.1383    5.7384 H   0  0  0  0  0  0  0  0  0  0  0  0
   -2.3116    1.5383    3.1570 N   0  0  0  0  0  0  0  0  0  0  0  0
   -2.0648    1.9643    1.8046 C   0  0  2  0  0  0  0  0  0  0  0  0
   -0.7298    1.3789    1.3634 C   0  0  0  0  0  0  0  0  0  0  0  0
    0.1423    1.0262    2.1547 O   0  0  0  0  0  0  0  0  0  0  0  0
   -2.0560    3.4811    1.6952 C   0  0  0  0  0  0  0  0  0  0  0  0
   -3.0767    1.9741    3.6688 H   0  0  0  0  0  0  0  0  0  0  0  0
   -2.8689    1.5458    1.1895 H   0  0  0  0  0  0  0  0  0  0  0  0
   -1.2569    3.9183    2.3049 H   0  0  0  0  0  0  0  0  0  0  0  0
   -1.8965    3.8033    0.6609 H   0  0  0  0  0  0  0  0  0  0  0  0
   -3.0062    3.9023    2.0409 H   0  0  0  0  0  0  0  0  0  0  0  0
   -0.6071    1.3358   -0.0200 N   0  0  0  0  0  0  0  0  0  0  0  0
    0.5702    0.8350   -0.6836 C   0  0  2  0  0  0  0  0  0  0  0  0
    0.6949    1.5830   -2.0062 C   0  0  0  0  0  0  0  0  0  0  0  0
   -0.1883    1.5825   -2.8611 O   0  0  0  0  0  0  0  0  0  0  0  0
    0.4968   -0.6761   -0.9309 C   0  0  0  0  0  0  0  0  0  0  0  0
    0.4562   -1.4756    0.3485 C   0  0  0  0  0  0  0  0  0  0  0  0
    1.5572   -1.6693    1.1342 N   0  0  0  0  0  0  0  0  0  0  0  0
   -0.5587   -2.1416    0.9942 C   0  0  0  0  0  0  0  0  0  0  0  0
    1.1700   -2.4306    2.2019 C   0  0  0  0  0  0  0  0  0  0  0  0
   -0.1079   -2.7337    2.1474 N   0  0  0  0  0  0  0  0  0  0  0  0
   -1.3903    1.6325   -0.5973 H   0  0  0  0  0  0  0  0  0  0  0  0
    1.4226    1.0923   -0.0440 H   0  0  0  0  0  0  0  0  0  0  0  0
    1.3476   -1.0031   -1.5440 H   0  0  0  0  0  0  0  0  0  0  0  0
   -0.3954   -0.9254   -1.5205 H   0  0  0  0  0  0  0  0  0  0  0  0
    2.4893   -1.3167    0.9601 H   0  0  0  0  0  0  0  0  0  0  0  0
   -1.5921   -2.2263    0.6894 H   0  0  0  0  0  0  0  0  0  0  0  0
    1.8624   -2.7267    2.9771 H   0  0  0  0  0  0  0  0  0  0  0  0
    1.8867    2.2890   -2.0935 N   0  0  0  0  0  0  0  0  0  0  0  0
    2.2461    3.1016   -3.2333 C   0  0  2  0  0  0  0  0  0  0  0  0
    2.0452    2.2645   -4.4897 C   0  0  0  0  0  0  0  0  0  0  0  0
    2.0382    1.0353   -4.4827 O   0  0  0  0  0  0  0  0  0  0  0  0
    3.6815    3.5934   -3.1317 C   0  0  0  0  0  0  0  0  0  0  0  0
    2.5392    2.2316   -1.3171 H   0  0  0  0  0  0  0  0  0  0  0  0
    1.5555    3.9518   -3.2460 H   0  0  0  0  0  0  0  0  0  0  0  0
    4.3881    2.7555   -3.1177 H   0  0  0  0  0  0  0  0  0  0  0  0
    3.9432    4.2322   -3.9817 H   0  0  0  0  0  0  0  0  0  0  0  0
    3.8317    4.1702   -2.2127 H   0  0  0  0  0  0  0  0  0  0  0  0
    1.9178    3.0510   -5.6260 N   0  0  0  0  0  0  0  0  0  0  0  0
    1.7305    2.4917   -6.9444 C   0  0  0  0  0  0  0  0  0  0  0  0
    1.9165    4.0628   -5.5359 H   0  0  0  0  0  0  0  0  0  0  0  0
    2.7084    2.3644   -7.4316 H   0  0  0  0  0  0  0  0  0  0  0  0
    1.2327    1.5144   -6.8606 H   0  0  0  0  0  0  0  0  0  0  0  0
    1.1072    3.1703   -7.5453 H   0  0  0  0  0  0  0  0  0  0  0  0
 22 24  2  0  0  0  0
 24 26  1  0  0  0  0
 25 26  2  0  0  0  0
 23 25  1  0  0  0  0
 21 22  1  0  0  0  0
 22 23  1  0  0  0  0
  1  3  1  0  0  0  0
  1  7  1  0  0  0  0
  1  2  2  0  0  0  0
 35 36  1  0  0  0  0
 36 44  1  0  0  0  0
 36 37  2  0  0  0  0
  8  9  1  0  0  0  0
  9 17  1  0  0  0  0
  9 10  2  0  0  0  0
 18 19  1  0  0  0  0
 19 34  1  0  0  0  0
 19 20  2  0  0  0  0
 35 38  1  0  0  0  0
  8 11  1  0  0  0  0
 44 45  1  0  0  0  0
 18 21  1  0  0  0  0
 34 35  1  0  0  0  0
  7  8  1  0  0  0  0
 17 18  1  0  0  0  0
 24 32  1  0  0  0  0
 25 33  1  0  0  0  0
  3  4  1  0  0  0  0
  3  5  1  0  0  0  0
  3  6  1  0  0  0  0
 38 41  1  0  0  0  0
 38 42  1  0  0  0  0
 38 43  1  0  0  0  0
 11 14  1  0  0  0  0
 11 15  1  0  0  0  0
 11 16  1  0  0  0  0
 45 47  1  0  0  0  0
 45 48  1  0  0  0  0
 45 49  1  0  0  0  0
 21 29  1  0  0  0  0
 21 30  1  0  0  0  0
 35 40  1  0  0  0  0
  8 13  1  0  0  0  0
 18 28  1  0  0  0  0
 23 31  1  0  0  0  0
 44 46  1  0  0  0  0
  7 12  1  0  0  0  0
 34 39  1  0  0  0  0
 17 27  1  0  0  0  0
M  END
$$$$

  -OEChem-05262214473D

 49 49  0     1  0  0  0  0  0999 V2000
   -1.5619    0.5658    3.7981 C   0  0  0  0  0  0  0  0  0  0  0  0
   -0.6145   -0.0489    3.3224 O   0  0  0  0  0  0  0  0  0  0  0  0
   -1.9938    0.2834    5.1988 C   0  0  0  0  0  0  0  0  0  0  0  0
   -2.7535   -0.5129    5.2522 H   0  0  0  0  0  0  0  0  0  0  0  0
   -1.1626   -0.0642    5.8331 H   0  0  0  0  0  0  0  0  0  0  0  0
   -2.4318    1.1383    5.7384 H   0  0  0  0  0  0  0  0  0  0  0  0
   -2.3116    1.5383    3.1570 N   0  0  0  0  0  0  0  0  0  0  0  0
   -2.0648    1.9643    1.8046 C   0  0  2  0  0  0  0  0  0  0  0  0
   -0.7298    1.3789    1.3634 C   0  0  0  0  0  0  0  0  0  0  0  0
    0.1423    1.0262    2.1547 O   0  0  0  0  0  0  0  0  0  0  0  0
   -2.0560    3.4811    1.6952 C   0  0  0  0  0  0  0  0  0  0  0  0
   -3.0767    1.9741    3.6688 H   0  0  0  0  0  0  0  0  0  0  0  0
   -2.8689    1.5458    1.1895 H   0  0  0  0  0  0  0  0  0  0  0  0
   -1.2569    3.9183    2.3049 H   0  0  0  0  0  0  0  0  0  0  0  0
   -1.8965    3.8033    0.6609 H   0  0  0  0  0  0  0  0  0  0  0  0
   -3.0062    3.9023    2.0409 H   0  0  0  0  0  0  0  0  0  0  0  0
   -0.6071    1.3358   -0.0200 N   0  0  0  0  0  0  0  0  0  0  0  0
    0.5702    0.8350   -0.6836 C   0  0  2  0  0  0  0  0  0  0  0  0
    0.6949    1.5830   -2.0062 C   0  0  0  0  0  0  0  0  0  0  0  0
   -0.2650    1.8101   -2.7396 O   0  0  0  0  0  0  0  0  0  0  0  0
    0.4968   -0.6761   -0.9309 C   0  0  0  0  0  0  0  0  0  0  0  0
    0.4562   -1.4756    0.3485 C   0  0  0  0  0  0  0  0  0  0  0  0
    1.5572   -1.6693    1.1342 N   0  0  0  0  0  0  0  0  0  0  0  0
   -0.5587   -2.1416    0.9942 C   0  0  0  0  0  0  0  0  0  0  0  0
    1.1700   -2.4306    2.2019 C   0  0  0  0  0  0  0  0  0  0  0  0
   -0.1079   -2.7337    2.1474 N   0  0  0  0  0  0  0  0  0  0  0  0
   -1.3903    1.6325   -0.5973 H   0  0  0  0  0  0  0  0  0  0  0  0
    1.4226    1.0923   -0.0440 H   0  0  0  0  0  0  0  0  0  0  0  0
    1.3476   -1.0031   -1.5440 H   0  0  0  0  0  0  0  0  0  0  0  0
   -0.3954   -0.9254   -1.5205 H   0  0  0  0  0  0  0  0  0  0  0  0
    2.4893   -1.3167    0.9601 H   0  0  0  0  0  0  0  0  0  0  0  0
   -1.5921   -2.2263    0.6894 H   0  0  0  0  0  0  0  0  0  0  0  0
    1.8624   -2.7267    2.9771 H   0  0  0  0  0  0  0  0  0  0  0  0
    1.9950    2.0078   -2.2422 N   0  0  0  0  0  0  0  0  0  0  0  0
    2.3838    2.7599   -3.4136 C   0  0  2  0  0  0  0  0  0  0  0  0
    1.8441    2.0341   -4.6389 C   0  0  0  0  0  0  0  0  0  0  0  0
    1.5605    0.8380   -4.6393 O   0  0  0  0  0  0  0  0  0  0  0  0
    3.8944    2.9151   -3.4953 C   0  0  0  0  0  0  0  0  0  0  0  0
    2.7092    1.7787   -1.5572 H   0  0  0  0  0  0  0  0  0  0  0  0
    1.9070    3.7427   -3.3311 H   0  0  0  0  0  0  0  0  0  0  0  0
    4.3895    1.9407   -3.5784 H   0  0  0  0  0  0  0  0  0  0  0  0
    4.1856    3.5093   -4.3677 H   0  0  0  0  0  0  0  0  0  0  0  0
    4.2843    3.4106   -2.5996 H   0  0  0  0  0  0  0  0  0  0  0  0
    1.7571    2.8693   -5.7440 N   0  0  0  0  0  0  0  0  0  0  0  0
    1.2856    2.4133   -7.0307 C   0  0  0  0  0  0  0  0  0  0  0  0
    1.9956    3.8519   -5.6476 H   0  0  0  0  0  0  0  0  0  0  0  0
    2.1410    2.0884   -7.6412 H   0  0  0  0  0  0  0  0  0  0  0  0
    0.5943    1.5693   -6.8897 H   0  0  0  0  0  0  0  0  0  0  0  0
    0.7618    3.2348   -7.5413 H   0  0  0  0  0  0  0  0  0  0  0  0
 22 24  2  0  0  0  0
 24 26  1  0  0  0  0
 25 26  2  0  0  0  0
 23 25  1  0  0  0  0
 21 22  1  0  0  0  0
 22 23  1  0  0  0  0
  1  3  1  0  0  0  0
  1  7  1  0  0  0  0
  1  2  2  0  0  0  0
 35 36  1  0  0  0  0
 36 44  1  0  0  0  0
 36 37  2  0  0  0  0
  8  9  1  0  0  0  0
  9 17  1  0  0  0  0
  9 10  2  0  0  0  0
 18 19  1  0  0  0  0
 19 34  1  0  0  0  0
 19 20  2  0  0  0  0
 35 38  1  0  0  0  0
  8 11  1  0  0  0  0
 44 45  1  0  0  0  0
 18 21  1  0  0  0  0
 34 35  1  0  0  0  0
  7  8  1  0  0  0  0
 17 18  1  0  0  0  0
 24 32  1  0  0  0  0
 25 33  1  0  0  0  0
  3  4  1  0  0  0  0
  3  5  1  0  0  0  0
  3  6  1  0  0  0  0
 38 41  1  0  0  0  0
 38 42  1  0  0  0  0
 38 43  1  0  0  0  0
 11 14  1  0  0  0  0
 11 15  1  0  0  0  0
 11 16  1  0  0  0  0
 45 47  1  0  0  0  0
 45 48  1  0  0  0  0
 45 49  1  0  0  0  0
 21 29  1  0  0  0  0
 21 30  1  0  0  0  0
 35 40  1  0  0  0  0
  8 13  1  0  0  0  0
 18 28  1  0  0  0  0
 23 31  1  0  0  0  0
 44 46  1  0  0  0  0
  7 12  1  0  0  0  0
 34 39  1  0  0  0  0
 17 27  1  0  0  0  0
M  END
$$$$

  -OEChem-05262214473D

 49 49  0     1  0  0  0  0  0999 V2000
   -1.5619    0.5658    3.7981 C   0  0  0  0  0  0  0  0  0  0  0  0
   -0.6145   -0.0489    3.3224 O   0  0  0  0  0  0  0  0  0  0  0  0
   -1.9938    0.2834    5.1988 C   0  0  0  0  0  0  0  0  0  0  0  0
   -2.7535   -0.5129    5.2522 H   0  0  0  0  0  0  0  0  0  0  0  0
   -1.1626   -0.0642    5.8331 H   0  0  0  0  0  0  0  0  0  0  0  0
   -2.4318    1.1383    5.7384 H   0  0  0  0  0  0  0  0  0  0  0  0
   -2.3116    1.5383    3.1570 N   0  0  0  0  0  0  0  0  0  0  0  0
   -2.0648    1.9643    1.8046 C   0  0  2  0  0  0  0  0  0  0  0  0
   -0.7298    1.3789    1.3634 C   0  0  0  0  0  0  0  0  0  0  0  0
    0.1423    1.0262    2.1547 O   0  0  0  0  0  0  0  0  0  0  0  0
   -2.0560    3.4811    1.6952 C   0  0  0  0  0  0  0  0  0  0  0  0
   -3.0767    1.9741    3.6688 H   0  0  0  0  0  0  0  0  0  0  0  0
   -2.8689    1.5458    1.1895 H   0  0  0  0  0  0  0  0  0  0  0  0
   -1.2569    3.9183    2.3049 H   0  0  0  0  0  0  0  0  0  0  0  0
   -1.8965    3.8033    0.6609 H   0  0  0  0  0  0  0  0  0  0  0  0
   -3.0062    3.9023    2.0409 H   0  0  0  0  0  0  0  0  0  0  0  0
   -0.6071    1.3358   -0.0200 N   0  0  0  0  0  0  0  0  0  0  0  0
    0.5702    0.8350   -0.6836 C   0  0  2  0  0  0  0  0  0  0  0  0
    0.6949    1.5830   -2.0062 C   0  0  0  0  0  0  0  0  0  0  0  0
   -0.2726    2.0446   -2.6077 O   0  0  0  0  0  0  0  0  0  0  0  0
    0.4968   -0.6761   -0.9309 C   0  0  0  0  0  0  0  0  0  0  0  0
    0.4562   -1.4756    0.3485 C   0  0  0  0  0  0  0  0  0  0  0  0
    1.5572   -1.6693    1.1342 N   0  0  0  0  0  0  0  0  0  0  0  0
   -0.5587   -2.1416    0.9942 C   0  0  0  0  0  0  0  0  0  0  0  0
    1.1700   -2.4306    2.2019 C   0  0  0  0  0  0  0  0  0  0  0  0
   -0.1079   -2.7337    2.1474 N   0  0  0  0  0  0  0  0  0  0  0  0
   -1.3903    1.6325   -0.5973 H   0  0  0  0  0  0  0  0  0  0  0  0
    1.4226    1.0923   -0.0440 H   0  0  0  0  0  0  0  0  0  0  0  0
    1.3476   -1.0031   -1.5440 H   0  0  0  0  0  0  0  0  0  0  0  0
   -0.3954   -0.9254   -1.5205 H   0  0  0  0  0  0  0  0  0  0  0  0
    2.4893   -1.3167    0.9601 H   0  0  0  0  0  0  0  0  0  0  0  0
   -1.5921   -2.2263    0.6894 H   0  0  0  0  0  0  0  0  0  0  0  0
    1.8624   -2.7267    2.9771 H   0  0  0  0  0  0  0  0  0  0  0  0
    2.0176    1.7151   -2.4057 N   0  0  0  0  0  0  0  0  0  0  0  0
    2.4172    2.4027   -3.6124 C   0  0  2  0  0  0  0  0  0  0  0  0
    1.5791    1.8599   -4.7625 C   0  0  0  0  0  0  0  0  0  0  0  0
    1.0349    0.7581   -4.7341 O   0  0  0  0  0  0  0  0  0  0  0  0
    3.9015    2.2197   -3.8879 C   0  0  0  0  0  0  0  0  0  0  0  0
    2.7411    1.3081   -1.8204 H   0  0  0  0  0  0  0  0  0  0  0  0
    2.1888    3.4636   -3.4624 H   0  0  0  0  0  0  0  0  0  0  0  0
    4.1494    1.1630   -4.0409 H   0  0  0  0  0  0  0  0  0  0  0  0
    4.2084    2.7647   -4.7867 H   0  0  0  0  0  0  0  0  0  0  0  0
    4.5017    2.5835   -3.0469 H   0  0  0  0  0  0  0  0  0  0  0  0
    1.5461    2.7323   -5.8413 N   0  0  0  0  0  0  0  0  0  0  0  0
    0.8272    2.4393   -7.0592 C   0  0  0  0  0  0  0  0  0  0  0  0
    2.0106    3.6329   -5.7701 H   0  0  0  0  0  0  0  0  0  0  0  0
    1.5043    1.9537   -7.7775 H   0  0  0  0  0  0  0  0  0  0  0  0
   -0.0137    1.7664   -6.8356 H   0  0  0  0  0  0  0  0  0  0  0  0
    0.4432    3.3747   -7.4923 H   0  0  0  0  0  0  0  0  0  0  0  0
 22 24  2  0  0  0  0
 24 26  1  0  0  0  0
 25 26  2  0  0  0  0
 23 25  1  0  0  0  0
 21 22  1  0  0  0  0
 22 23  1  0  0  0  0
  1  3  1  0  0  0  0
  1  7  1  0  0  0  0
  1  2  2  0  0  0  0
 35 36  1  0  0  0  0
 36 44  1  0  0  0  0
 36 37  2  0  0  0  0
  8  9  1  0  0  0  0
  9 17  1  0  0  0  0
  9 10  2  0  0  0  0
 18 19  1  0  0  0  0
 19 34  1  0  0  0  0
 19 20  2  0  0  0  0
 35 38  1  0  0  0  0
  8 11  1  0  0  0  0
 44 45  1  0  0  0  0
 18 21  1  0  0  0  0
 34 35  1  0  0  0  0
  7  8  1  0  0  0  0
 17 18  1  0  0  0  0
 24 32  1  0  0  0  0
 25 33  1  0  0  0  0
  3  4  1  0  0  0  0
  3  5  1  0  0  0  0
  3  6  1  0  0  0  0
 38 41  1  0  0  0  0
 38 42  1  0  0  0  0
 38 43  1  0  0  0  0
 11 14  1  0  0  0  0
 11 15  1  0  0  0  0
 11 16  1  0  0  0  0
 45 47  1  0  0  0  0
 45 48  1  0  0  0  0
 45 49  1  0  0  0  0
 21 29  1  0  0  0  0
 21 30  1  0  0  0  0
 35 40  1  0  0  0  0
  8 13  1  0  0  0  0
 18 28  1  0  0  0  0
 23 31  1  0  0  0  0
 44 46  1  0  0  0  0
  7 12  1  0  0  0  0
 34 39  1  0  0  0  0
 17 27  1  0  0  0  0
M  END
$$$$

  -OEChem-05262214473D

 49 49  0     1  0  0  0  0  0999 V2000
   -1.5619    0.5658    3.7981 C   0  0  0  0  0  0  0  0  0  0  0  0
   -0.6145   -0.0489    3.3224 O   0  0  0  0  0  0  0  0  0  0  0  0
   -1.9938    0.2834    5.1988 C   0  0  0  0  0  0  0  0  0  0  0  0
   -2.7535   -0.5129    5.2522 H   0  0  0  0  0  0  0  0  0  0  0  0
   -1.1626   -0.0642    5.8331 H   0  0  0  0  0  0  0  0  0  0  0  0
   -2.4318    1.1383    5.7384 H   0  0  0  0  0  0  0  0  0  0  0  0
   -2.3116    1.5383    3.1570 N   0  0  0  0  0  0  0  0  0  0  0  0
   -2.0648    1.9643    1.8046 C   0  0  2  0  0  0  0  0  0  0  0  0
   -0.7298    1.3789    1.3634 C   0  0  0  0  0  0  0  0  0  0  0  0
    0.1423    1.0262    2.1547 O   0  0  0  0  0  0  0  0  0  0  0  0
   -2.0560    3.4811    1.6952 C   0  0  0  0  0  0  0  0  0  0  0  0
   -3.0767    1.9741    3.6688 H   0  0  0  0  0  0  0  0  0  0  0  0
   -2.8689    1.5458    1.1895 H   0  0  0  0  0  0  0  0  0  0  0  0
   -1.2569    3.9183    2.3049 H   0  0  0  0  0  0  0  0  0  0  0  0
   -1.8965    3.8033    0.6609 H   0  0  0  0  0  0  0  0  0  0  0  0
   -3.0062    3.9023    2.0409 H   0  0  0  0  0  0  0  0  0  0  0  0
   -0.6071    1.3358   -0.0200 N   0  0  0  0  0  0  0  0  0  0  0  0
    0.5702    0.8350   -0.6836 C   0  0  2  0  0  0  0  0  0  0  0  0
    0.6949    1.5830   -2.0062 C   0  0  0  0  0  0  0  0  0  0  0  0
   -0.2105    2.2700   -2.4743 O   0  0  0  0  0  0  0  0  0  0  0  0
    0.4968   -0.6761   -0.9309 C   0  0  0  0  0  0  0  0  0  0  0  0
    0.4562   -1.4756    0.3485 C   0  0  0  0  0  0  0  0  0  0  0  0
    1.5572   -1.6693    1.1342 N   0  0  0  0  0  0  0  0  0  0  0  0
   -0.5587   -2.1416    0.9942 C   0  0  0  0  0  0  0  0  0  0  0  0
    1.1700   -2.4306    2.2019 C   0  0  0  0  0  0  0  0  0  0  0  0
   -0.1079   -2.7337    2.1474 N   0  0  0  0  0  0  0  0  0  0  0  0
   -1.3903    1.6325   -0.5973 H   0  0  0  0  0  0  0  0  0  0  0  0
    1.4226    1.0923   -0.0440 H   0  0  0  0  0  0  0  0  0  0  0  0
    1.3476   -1.0031   -1.5440 H   0  0  0  0  0  0  0  0  0  0  0  0
   -0.3954   -0.9254   -1.5205 H   0  0  0  0  0  0  0  0  0  0  0  0
    2.4893   -1.3167    0.9601 H   0  0  0  0  0  0  0  0  0  0  0  0
   -1.5921   -2.2263    0.6894 H   0  0  0  0  0  0  0  0  0  0  0  0
    1.8624   -2.7267    2.9771 H   0  0  0  0  0  0  0  0  0  0  0  0
    1.9529    1.4308   -2.5726 N   0  0  0  0  0  0  0  0  0  0  0  0
    2.3440    2.0545   -3.8163 C   0  0  2  0  0  0  0  0  0  0  0  0
    1.2684    1.7538   -4.8518 C   0  0  0  0  0  0  0  0  0  0  0  0
    0.4972    0.8009   -4.7606 O   0  0  0  0  0  0  0  0  0  0  0  0
    3.7024    1.5548   -4.2827 C   0  0  0  0  0  0  0  0  0  0  0  0
    2.6329    0.8519   -2.0886 H   0  0  0  0  0  0  0  0  0  0  0  0
    2.3817    3.1335   -3.6309 H   0  0  0  0  0  0  0  0  0  0  0  0
    3.6842    0.4756   -4.4736 H   0  0  0  0  0  0  0  0  0  0  0  0
    4.0101    2.0492   -5.2100 H   0  0  0  0  0  0  0  0  0  0  0  0
    4.4692    1.7452   -3.5241 H   0  0  0  0  0  0  0  0  0  0  0  0
    1.2992    2.6495   -5.9115 N   0  0  0  0  0  0  0  0  0  0  0  0
    0.3867    2.5679   -7.0280 C   0  0  0  0  0  0  0  0  0  0  0  0
    1.9602    3.4205   -5.8950 H   0  0  0  0  0  0  0  0  0  0  0  0
    0.8417    1.9694   -7.8311 H   0  0  0  0  0  0  0  0  0  0  0  0
   -0.5499    2.0920   -6.7020 H   0  0  0  0  0  0  0  0  0  0  0  0
    0.1731    3.5802   -7.4015 H   0  0  0  0  0  0  0  0  0  0  0  0
 22 24  2  0  0  0  0
 24 26  1  0  0  0  0
 25 26  2  0  0  0  0
 23 25  1  0  0  0  0
 21 22  1  0  0  0  0
 22 23  1  0  0  0  0
  1  3  1  0  0  0  0
  1  7  1  0  0  0  0
  1  2  2  0  0  0  0
 35 36  1  0  0  0  0
 36 44  1  0  0  0  0
 36 37  2  0  0  0  0
  8  9  1  0  0  0  0
  9 17  1  0  0  0  0
  9 10  2  0  0  0  0
 18 19  1  0  0  0  0
 19 34  1  0  0  0  0
 19 20  2  0  0  0  0
 35 38  1  0  0  0  0
  8 11  1  0  0  0  0
 44 45  1  0  0  0  0
 18 21  1  0  0  0  0
 34 35  1  0  0  0  0
  7  8  1  0  0  0  0
 17 18  1  0  0  0  0
 24 32  1  0  0  0  0
 25 33  1  0  0  0  0
  3  4  1  0  0  0  0
  3  5  1  0  0  0  0
  3  6  1  0  0  0  0
 38 41  1  0  0  0  0
 38 42  1  0  0  0  0
 38 43  1  0  0  0  0
 11 14  1  0  0  0  0
 11 15  1  0  0  0  0
 11 16  1  0  0  0  0
 45 47  1  0  0  0  0
 45 48  1  0  0  0  0
 45 49  1  0  0  0  0
 21 29  1  0  0  0  0
 21 30  1  0  0  0  0
 35 40  1  0  0  0  0
  8 13  1  0  0  0  0
 18 28  1  0  0  0  0
 23 31  1  0  0  0  0
 44 46  1  0  0  0  0
  7 12  1  0  0  0  0
 34 39  1  0  0  0  0
 17 27  1  0  0  0  0
M  END
$$$$

  -OEChem-05262214473D

 49 49  0     1  0  0  0  0  0999 V2000
   -1.5619    0.5658    3.7981 C   0  0  0  0  0  0  0  0  0  0  0  0
   -0.6145   -0.0489    3.3224 O   0  0  0  0  0  0  0  0  0  0  0  0
   -1.9938    0.2834    5.1988 C   0  0  0  0  0  0  0  0  0  0  0  0
   -2.7535   -0.5129    5.2522 H   0  0  0  0  0  0  0  0  0  0  0  0
   -1.1626   -0.0642    5.8331 H   0  0  0  0  0  0  0  0  0  0  0  0
   -2.4318    1.1383    5.7384 H   0  0  0  0  0  0  0  0  0  0  0  0
   -2.3116    1.5383    3.1570 N   0  0  0  0  0  0  0  0  0  0  0  0
   -2.0648    1.9643    1.8046 C   0  0  2  0  0  0  0  0  0  0  0  0
   -0.7298    1.3789    1.3634 C   0  0  0  0  0  0  0  0  0  0  0  0
    0.1423    1.0262    2.1547 O   0  0  0  0  0  0  0  0  0  0  0  0
   -2.0560    3.4811    1.6952 C   0  0  0  0  0  0  0  0  0  0  0  0
   -3.0767    1.9741    3.6688 H   0  0  0  0  0  0  0  0  0  0  0  0
   -2.8689    1.5458    1.1895 H   0  0  0  0  0  0  0  0  0  0  0  0
   -1.2569    3.9183    2.3049 H   0  0  0  0  0  0  0  0  0  0  0  0
   -1.8965    3.8033    0.6609 H   0  0  0  0  0  0  0  0  0  0  0  0
   -3.0062    3.9023    2.0409 H   0  0  0  0  0  0  0  0  0  0  0  0
   -0.6071    1.3358   -0.0200 N   0  0  0  0  0  0  0  0  0  0  0  0
    0.5702    0.8350   -0.6836 C   0  0  2  0  0  0  0  0  0  0  0  0
    0.9113    1.8169   -1.7989 C   0  0  0  0  0  0  0  0  0  0  0  0
    0.2747    2.8491   -1.9995 O   0  0  0  0  0  0  0  0  0  0  0  0
    0.3575   -0.5705   -1.2577 C   0  0  0  0  0  0  0  0  0  0  0  0
    0.0984   -1.6043   -0.1891 C   0  0  0  0  0  0  0  0  0  0  0  0
    1.0850   -2.0959    0.6184 N   0  0  0  0  0  0  0  0  0  0  0  0
   -1.0443   -2.2526    0.2165 C   0  0  0  0  0  0  0  0  0  0  0  0
    0.5091   -3.0043    1.4625 C   0  0  0  0  0  0  0  0  0  0  0  0
   -0.7819   -3.1225    1.2451 N   0  0  0  0  0  0  0  0  0  0  0  0
   -1.3903    1.6325   -0.5973 H   0  0  0  0  0  0  0  0  0  0  0  0
    1.3754    0.8431    0.0603 H   0  0  0  0  0  0  0  0  0  0  0  0
    1.2259   -0.8710   -1.8595 H   0  0  0  0  0  0  0  0  0  0  0  0
   -0.4912   -0.5759   -1.9543 H   0  0  0  0  0  0  0  0  0  0  0  0
    2.0630   -1.8381    0.5973 H   0  0  0  0  0  0  0  0  0  0  0  0
   -2.0439   -2.1388   -0.1782 H   0  0  0  0  0  0  0  0  0  0  0  0
    1.0816   -3.5405    2.2060 H   0  0  0  0  0  0  0  0  0  0  0  0
    2.0389    1.4267   -2.5078 N   0  0  0  0  0  0  0  0  0  0  0  0
    2.5919    2.1911   -3.6026 C   0  0  2  0  0  0  0  0  0  0  0  0
    1.4595    2.5181   -4.5671 C   0  0  0  0  0  0  0  0  0  0  0  0
    0.4193    1.8659   -4.6261 O   0  0  0  0  0  0  0  0  0  0  0  0
    3.7017    1.4261   -4.3067 C   0  0  0  0  0  0  0  0  0  0  0  0
    2.4987    0.5603   -2.2439 H   0  0  0  0  0  0  0  0  0  0  0  0
    2.9861    3.1187   -3.1734 H   0  0  0  0  0  0  0  0  0  0  0  0
    3.3258    0.4936   -4.7432 H   0  0  0  0  0  0  0  0  0  0  0  0
    4.1389    2.0179   -5.1176 H   0  0  0  0  0  0  0  0  0  0  0  0
    4.5015    1.1658   -3.6050 H   0  0  0  0  0  0  0  0  0  0  0  0
    1.7652    3.5976   -5.3841 N   0  0  0  0  0  0  0  0  0  0  0  0
    0.8575    4.0944   -6.3917 C   0  0  0  0  0  0  0  0  0  0  0  0
    2.6434    4.0908   -5.2527 H   0  0  0  0  0  0  0  0  0  0  0  0
    1.0759    3.6088   -7.3542 H   0  0  0  0  0  0  0  0  0  0  0  0
   -0.1778    3.8706   -6.0948 H   0  0  0  0  0  0  0  0  0  0  0  0
    0.9827    5.1825   -6.4933 H   0  0  0  0  0  0  0  0  0  0  0  0
 22 24  2  0  0  0  0
 24 26  1  0  0  0  0
 25 26  2  0  0  0  0
 23 25  1  0  0  0  0
 21 22  1  0  0  0  0
 22 23  1  0  0  0  0
  1  3  1  0  0  0  0
  1  7  1  0  0  0  0
  1  2  2  0  0  0  0
 35 36  1  0  0  0  0
 36 44  1  0  0  0  0
 36 37  2  0  0  0  0
  8  9  1  0  0  0  0
  9 17  1  0  0  0  0
  9 10  2  0  0  0  0
 18 19  1  0  0  0  0
 19 34  1  0  0  0  0
 19 20  2  0  0  0  0
 35 38  1  0  0  0  0
  8 11  1  0  0  0  0
 44 45  1  0  0  0  0
 18 21  1  0  0  0  0
 34 35  1  0  0  0  0
  7  8  1  0  0  0  0
 17 18  1  0  0  0  0
 24 32  1  0  0  0  0
 25 33  1  0  0  0  0
  3  4  1  0  0  0  0
  3  5  1  0  0  0  0
  3  6  1  0  0  0  0
 38 41  1  0  0  0  0
 38 42  1  0  0  0  0
 38 43  1  0  0  0  0
 11 14  1  0  0  0  0
 11 15  1  0  0  0  0
 11 16  1  0  0  0  0
 45 47  1  0  0  0  0
 45 48  1  0  0  0  0
 45 49  1  0  0  0  0
 21 29  1  0  0  0  0
 21 30  1  0  0  0  0
 35 40  1  0  0  0  0
  8 13  1  0  0  0  0
 18 28  1  0  0  0  0
 23 31  1  0  0  0  0
 44 46  1  0  0  0  0
  7 12  1  0  0  0  0
 34 39  1  0  0  0  0
 17 27  1  0  0  0  0
M  END
$$$$

  -OEChem-05262214473D

 49 49  0     1  0  0  0  0  0999 V2000
   -1.5619    0.5658    3.7981 C   0  0  0  0  0  0  0  0  0  0  0  0
   -0.6145   -0.0489    3.3224 O   0  0  0  0  0  0  0  0  0  0  0  0
   -1.9938    0.2834    5.1988 C   0  0  0  0  0  0  0  0  0  0  0  0
   -2.7535   -0.5129    5.2522 H   0  0  0  0  0  0  0  0  0  0  0  0
   -1.1626   -0.0642    5.8331 H   0  0  0  0  0  0  0  0  0  0  0  0
   -2.4318    1.1383    5.7384 H   0  0  0  0  0  0  0  0  0  0  0  0
   -2.3116    1.5383    3.1570 N   0  0  0  0  0  0  0  0  0  0  0  0
   -2.0648    1.9643    1.8046 C   0  0  2  0  0  0  0  0  0  0  0  0
   -0.7298    1.3789    1.3634 C   0  0  0  0  0  0  0  0  0  0  0  0
    0.1423    1.0262    2.1547 O   0  0  0  0  0  0  0  0  0  0  0  0
   -2.0560    3.4811    1.6952 C   0  0  0  0  0  0  0  0  0  0  0  0
   -3.0767    1.9741    3.6688 H   0  0  0  0  0  0  0  0  0  0  0  0
   -2.8689    1.5458    1.1895 H   0  0  0  0  0  0  0  0  0  0  0  0
   -1.2569    3.9183    2.3049 H   0  0  0  0  0  0  0  0  0  0  0  0
   -1.8965    3.8033    0.6609 H   0  0  0  0  0  0  0  0  0  0  0  0
   -3.0062    3.9023    2.0409 H   0  0  0  0  0  0  0  0  0  0  0  0
   -0.6071    1.3358   -0.0200 N   0  0  0  0  0  0  0  0  0  0  0  0
    0.5702    0.8350   -0.6836 C   0  0  2  0  0  0  0  0  0  0  0  0
    0.9113    1.8169   -1.7989 C   0  0  0  0  0  0  0  0  0  0  0  0
    0.4634    2.9607   -1.8435 O   0  0  0  0  0  0  0  0  0  0  0  0
    0.3575   -0.5705   -1.2577 C   0  0  0  0  0  0  0  0  0  0  0  0
    0.0984   -1.6043   -0.1891 C   0  0  0  0  0  0  0  0  0  0  0  0
    1.0850   -2.0959    0.6184 N   0  0  0  0  0  0  0  0  0  0  0  0
   -1.0443   -2.2526    0.2165 C   0  0  0  0  0  0  0  0  0  0  0  0
    0.5091   -3.0043    1.4625 C   0  0  0  0  0  0  0  0  0  0  0  0
   -0.7819   -3.1225    1.2451 N   0  0  0  0  0  0  0  0  0  0  0  0
   -1.3903    1.6325   -0.5973 H   0  0  0  0  0  0  0  0  0  0  0  0
    1.3754    0.8431    0.0603 H   0  0  0  0  0  0  0  0  0  0  0  0
    1.2259   -0.8710   -1.8595 H   0  0  0  0  0  0  0  0  0  0  0  0
   -0.4912   -0.5759   -1.9543 H   0  0  0  0  0  0  0  0  0  0  0  0
    2.0630   -1.8381    0.5973 H   0  0  0  0  0  0  0  0  0  0  0  0
   -2.0439   -2.1388   -0.1782 H   0  0  0  0  0  0  0  0  0  0  0  0
    1.0816   -3.5405    2.2060 H   0  0  0  0  0  0  0  0  0  0  0  0
    1.8124    1.2790   -2.7072 N   0  0  0  0  0  0  0  0  0  0  0  0
    2.3196    2.0071   -3.8479 C   0  0  2  0  0  0  0  0  0  0  0  0
    1.1320    2.6078   -4.5884 C   0  0  0  0  0  0  0  0  0  0  0  0
   -0.0108    2.1648   -4.4945 O   0  0  0  0  0  0  0  0  0  0  0  0
    3.1314    1.1047   -4.7640 C   0  0  0  0  0  0  0  0  0  0  0  0
    2.1315    0.3255   -2.5629 H   0  0  0  0  0  0  0  0  0  0  0  0
    2.9504    2.8118   -3.4545 H   0  0  0  0  0  0  0  0  0  0  0  0
    2.5162    0.2924   -5.1679 H   0  0  0  0  0  0  0  0  0  0  0  0
    3.5388    1.6641   -5.6127 H   0  0  0  0  0  0  0  0  0  0  0  0
    3.9678    0.6503   -4.2221 H   0  0  0  0  0  0  0  0  0  0  0  0
    1.5058    3.6698   -5.3999 N   0  0  0  0  0  0  0  0  0  0  0  0
    0.5616    4.3986   -6.2143 C   0  0  0  0  0  0  0  0  0  0  0  0
    2.4725    3.9814   -5.4013 H   0  0  0  0  0  0  0  0  0  0  0  0
    0.5236    3.9536   -7.2196 H   0  0  0  0  0  0  0  0  0  0  0  0
   -0.4358    4.3482   -5.7532 H   0  0  0  0  0  0  0  0  0  0  0  0
    0.8777    5.4495   -6.2904 H   0  0  0  0  0  0  0  0  0  0  0  0
 22 24  2  0  0  0  0
 24 26  1  0  0  0  0
 25 26  2  0  0  0  0
 23 25  1  0  0  0  0
 21 22  1  0  0  0  0
 22 23  1  0  0  0  0
  1  3  1  0  0  0  0
  1  7  1  0  0  0  0
  1  2  2  0  0  0  0
 35 36  1  0  0  0  0
 36 44  1  0  0  0  0
 36 37  2  0  0  0  0
  8  9  1  0  0  0  0
  9 17  1  0  0  0  0
  9 10  2  0  0  0  0
 18 19  1  0  0  0  0
 19 34  1  0  0  0  0
 19 20  2  0  0  0  0
 35 38  1  0  0  0  0
  8 11  1  0  0  0  0
 44 45  1  0  0  0  0
 18 21  1  0  0  0  0
 34 35  1  0  0  0  0
  7  8  1  0  0  0  0
 17 18  1  0  0  0  0
 24 32  1  0  0  0  0
 25 33  1  0  0  0  0
  3  4  1  0  0  0  0
  3  5  1  0  0  0  0
  3  6  1  0  0  0  0
 38 41  1  0  0  0  0
 38 42  1  0  0  0  0
 38 43  1  0  0  0  0
 11 14  1  0  0  0  0
 11 15  1  0  0  0  0
 11 16  1  0  0  0  0
 45 47  1  0  0  0  0
 45 48  1  0  0  0  0
 45 49  1  0  0  0  0
 21 29  1  0  0  0  0
 21 30  1  0  0  0  0
 35 40  1  0  0  0  0
  8 13  1  0  0  0  0
 18 28  1  0  0  0  0
 23 31  1  0  0  0  0
 44 46  1  0  0  0  0
  7 12  1  0  0  0  0
 34 39  1  0  0  0  0
 17 27  1  0  0  0  0
M  END
$$$$

  -OEChem-05262214473D

 49 49  0     1  0  0  0  0  0999 V2000
   -1.5619    0.5658    3.7981 C   0  0  0  0  0  0  0  0  0  0  0  0
   -0.6145   -0.0489    3.3224 O   0  0  0  0  0  0  0  0  0  0  0  0
   -1.9938    0.2834    5.1988 C   0  0  0  0  0  0  0  0  0  0  0  0
   -2.7535   -0.5129    5.2522 H   0  0  0  0  0  0  0  0  0  0  0  0
   -1.1626   -0.0642    5.8331 H   0  0  0  0  0  0  0  0  0  0  0  0
   -2.4318    1.1383    5.7384 H   0  0  0  0  0  0  0  0  0  0  0  0
   -2.3116    1.5383    3.1570 N   0  0  0  0  0  0  0  0  0  0  0  0
   -2.0648    1.9643    1.8046 C   0  0  2  0  0  0  0  0  0  0  0  0
   -0.7298    1.3789    1.3634 C   0  0  0  0  0  0  0  0  0  0  0  0
    0.1423    1.0262    2.1547 O   0  0  0  0  0  0  0  0  0  0  0  0
   -2.0560    3.4811    1.6952 C   0  0  0  0  0  0  0  0  0  0  0  0
   -3.0767    1.9741    3.6688 H   0  0  0  0  0  0  0  0  0  0  0  0
   -2.8689    1.5458    1.1895 H   0  0  0  0  0  0  0  0  0  0  0  0
   -1.2569    3.9183    2.3049 H   0  0  0  0  0  0  0  0  0  0  0  0
   -1.8965    3.8033    0.6609 H   0  0  0  0  0  0  0  0  0  0  0  0
   -3.0062    3.9023    2.0409 H   0  0  0  0  0  0  0  0  0  0  0  0
   -0.6071    1.3358   -0.0200 N   0  0  0  0  0  0  0  0  0  0  0  0
    0.5702    0.8350   -0.6836 C   0  0  2  0  0  0  0  0  0  0  0  0
    0.9113    1.8169   -1.7989 C   0  0  0  0  0  0  0  0  0  0  0  0
    0.6929    3.0238   -1.7177 O   0  0  0  0  0  0  0  0  0  0  0  0
    0.3575   -0.5705   -1.2577 C   0  0  0  0  0  0  0  0  0  0  0  0
    0.0984   -1.6043   -0.1891 C   0  0  0  0  0  0  0  0  0  0  0  0
    1.0850   -2.0959    0.6184 N   0  0  0  0  0  0  0  0  0  0  0  0
   -1.0443   -2.2526    0.2165 C   0  0  0  0  0  0  0  0  0  0  0  0
    0.5091   -3.0043    1.4625 C   0  0  0  0  0  0  0  0  0  0  0  0
   -0.7819   -3.1225    1.2451 N   0  0  0  0  0  0  0  0  0  0  0  0
   -1.3903    1.6325   -0.5973 H   0  0  0  0  0  0  0  0  0  0  0  0
    1.3754    0.8431    0.0603 H   0  0  0  0  0  0  0  0  0  0  0  0
    1.2259   -0.8710   -1.8595 H   0  0  0  0  0  0  0  0  0  0  0  0
   -0.4912   -0.5759   -1.9543 H   0  0  0  0  0  0  0  0  0  0  0  0
    2.0630   -1.8381    0.5973 H   0  0  0  0  0  0  0  0  0  0  0  0
   -2.0439   -2.1388   -0.1782 H   0  0  0  0  0  0  0  0  0  0  0  0
    1.0816   -3.5405    2.2060 H   0  0  0  0  0  0  0  0  0  0  0  0
    1.5324    1.1907   -2.8705 N   0  0  0  0  0  0  0  0  0  0  0  0
    1.9808    1.8952   -4.0501 C   0  0  2  0  0  0  0  0  0  0  0  0
    0.8290    2.7576   -4.5491 C   0  0  0  0  0  0  0  0  0  0  0  0
   -0.3477    2.5273   -4.2783 O   0  0  0  0  0  0  0  0  0  0  0  0
    2.4435    0.9288   -5.1294 C   0  0  0  0  0  0  0  0  0  0  0  0
    1.6792    0.1867   -2.8234 H   0  0  0  0  0  0  0  0  0  0  0  0
    2.8108    2.5384   -3.7379 H   0  0  0  0  0  0  0  0  0  0  0  0
    1.6253    0.2761   -5.4548 H   0  0  0  0  0  0  0  0  0  0  0  0
    2.8095    1.4647   -6.0113 H   0  0  0  0  0  0  0  0  0  0  0  0
    3.2519    0.2891   -4.7591 H   0  0  0  0  0  0  0  0  0  0  0  0
    1.2662    3.7896   -5.3677 N   0  0  0  0  0  0  0  0  0  0  0  0
    0.3630    4.7382   -5.9761 C   0  0  0  0  0  0  0  0  0  0  0  0
    2.2620    3.9168   -5.5226 H   0  0  0  0  0  0  0  0  0  0  0  0
    0.0778    4.3835   -6.9775 H   0  0  0  0  0  0  0  0  0  0  0  0
   -0.5376    4.8386   -5.3525 H   0  0  0  0  0  0  0  0  0  0  0  0
    0.8607    5.7155   -6.0614 H   0  0  0  0  0  0  0  0  0  0  0  0
 22 24  2  0  0  0  0
 24 26  1  0  0  0  0
 25 26  2  0  0  0  0
 23 25  1  0  0  0  0
 21 22  1  0  0  0  0
 22 23  1  0  0  0  0
  1  3  1  0  0  0  0
  1  7  1  0  0  0  0
  1  2  2  0  0  0  0
 35 36  1  0  0  0  0
 36 44  1  0  0  0  0
 36 37  2  0  0  0  0
  8  9  1  0  0  0  0
  9 17  1  0  0  0  0
  9 10  2  0  0  0  0
 18 19  1  0  0  0  0
 19 34  1  0  0  0  0
 19 20  2  0  0  0  0
 35 38  1  0  0  0  0
  8 11  1  0  0  0  0
 44 45  1  0  0  0  0
 18 21  1  0  0  0  0
 34 35  1  0  0  0  0
  7  8  1  0  0  0  0
 17 18  1  0  0  0  0
 24 32  1  0  0  0  0
 25 33  1  0  0  0  0
  3  4  1  0  0  0  0
  3  5  1  0  0  0  0
  3  6  1  0  0  0  0
 38 41  1  0  0  0  0
 38 42  1  0  0  0  0
 38 43  1  0  0  0  0
 11 14  1  0  0  0  0
 11 15  1  0  0  0  0
 11 16  1  0  0  0  0
 45 47  1  0  0  0  0
 45 48  1  0  0  0  0
 45 49  1  0  0  0  0
 21 29  1  0  0  0  0
 21 30  1  0  0  0  0
 35 40  1  0  0  0  0
  8 13  1  0  0  0  0
 18 28  1  0  0  0  0
 23 31  1  0  0  0  0
 44 46  1  0  0  0  0
  7 12  1  0  0  0  0
 34 39  1  0  0  0  0
 17 27  1  0  0  0  0
M  END
$$$$

  -OEChem-05262214473D

 49 49  0     1  0  0  0  0  0999 V2000
   -1.5619    0.5658    3.7981 C   0  0  0  0  0  0  0  0  0  0  0  0
   -0.6145   -0.0489    3.3224 O   0  0  0  0  0  0  0  0  0  0  0  0
   -1.9938    0.2834    5.1988 C   0  0  0  0  0  0  0  0  0  0  0  0
   -2.7535   -0.5129    5.2522 H   0  0  0  0  0  0  0  0  0  0  0  0
   -1.1626   -0.0642    5.8331 H   0  0  0  0  0  0  0  0  0  0  0  0
   -2.4318    1.1383    5.7384 H   0  0  0  0  0  0  0  0  0  0  0  0
   -2.3116    1.5383    3.1570 N   0  0  0  0  0  0  0  0  0  0  0  0
   -2.0648    1.9643    1.8046 C   0  0  2  0  0  0  0  0  0  0  0  0
   -0.7298    1.3789    1.3634 C   0  0  0  0  0  0  0  0  0  0  0  0
    0.1423    1.0262    2.1547 O   0  0  0  0  0  0  0  0  0  0  0  0
   -2.0560    3.4811    1.6952 C   0  0  0  0  0  0  0  0  0  0  0  0
   -3.0767    1.9741    3.6688 H   0  0  0  0  0  0  0  0  0  0  0  0
   -2.8689    1.5458    1.1895 H   0  0  0  0  0  0  0  0  0  0  0  0
   -1.2569    3.9183    2.3049 H   0  0  0  0  0  0  0  0  0  0  0  0
   -1.8965    3.8033    0.6609 H   0  0  0  0  0  0  0  0  0  0  0  0
   -3.0062    3.9023    2.0409 H   0  0  0  0  0  0  0  0  0  0  0  0
   -0.6071    1.3358   -0.0200 N   0  0  0  0  0  0  0  0  0  0  0  0
    0.5702    0.8350   -0.6836 C   0  0  2  0  0  0  0  0  0  0  0  0
    0.9113    1.8169   -1.7989 C   0  0  0  0  0  0  0  0  0  0  0  0
    0.9475    3.0340   -1.6309 O   0  0  0  0  0  0  0  0  0  0  0  0
    0.3575   -0.5705   -1.2577 C   0  0  0  0  0  0  0  0  0  0  0  0
    0.0984   -1.6043   -0.1891 C   0  0  0  0  0  0  0  0  0  0  0  0
    1.0850   -2.0959    0.6184 N   0  0  0  0  0  0  0  0  0  0  0  0
   -1.0443   -2.2526    0.2165 C   0  0  0  0  0  0  0  0  0  0  0  0
    0.5091   -3.0043    1.4625 C   0  0  0  0  0  0  0  0  0  0  0  0
   -0.7819   -3.1225    1.2451 N   0  0  0  0  0  0  0  0  0  0  0  0
   -1.3903    1.6325   -0.5973 H   0  0  0  0  0  0  0  0  0  0  0  0
    1.3754    0.8431    0.0603 H   0  0  0  0  0  0  0  0  0  0  0  0
    1.2259   -0.8710   -1.8595 H   0  0  0  0  0  0  0  0  0  0  0  0
   -0.4912   -0.5759   -1.9543 H   0  0  0  0  0  0  0  0  0  0  0  0
    2.0630   -1.8381    0.5973 H   0  0  0  0  0  0  0  0  0  0  0  0
   -2.0439   -2.1388   -0.1782 H   0  0  0  0  0  0  0  0  0  0  0  0
    1.0816   -3.5405    2.2060 H   0  0  0  0  0  0  0  0  0  0  0  0
    1.2180    1.1679   -2.9868 N   0  0  0  0  0  0  0  0  0  0  0  0
    1.5987    1.8629   -4.1954 C   0  0  2  0  0  0  0  0  0  0  0  0
    0.5713    2.9575   -4.4520 C   0  0  0  0  0  0  0  0  0  0  0  0
   -0.5685    2.9287   -3.9924 O   0  0  0  0  0  0  0  0  0  0  0  0
    1.6848    0.9103   -5.3777 C   0  0  0  0  0  0  0  0  0  0  0  0
    1.1726    0.1534   -3.0077 H   0  0  0  0  0  0  0  0  0  0  0  0
    2.5771    2.3171   -4.0043 H   0  0  0  0  0  0  0  0  0  0  0  0
    0.7138    0.4455   -5.5844 H   0  0  0  0  0  0  0  0  0  0  0  0
    2.0010    1.4332   -6.2864 H   0  0  0  0  0  0  0  0  0  0  0  0
    2.4024    0.1069   -5.1794 H   0  0  0  0  0  0  0  0  0  0  0  0
    1.0629    3.9488   -5.2897 N   0  0  0  0  0  0  0  0  0  0  0  0
    0.2751    5.0901   -5.6932 C   0  0  0  0  0  0  0  0  0  0  0  0
    2.0262    3.9013   -5.6084 H   0  0  0  0  0  0  0  0  0  0  0  0
   -0.2311    4.8690   -6.6444 H   0  0  0  0  0  0  0  0  0  0  0  0
   -0.4764    5.3085   -4.9201 H   0  0  0  0  0  0  0  0  0  0  0  0
    0.9328    5.9623   -5.8220 H   0  0  0  0  0  0  0  0  0  0  0  0
 22 24  2  0  0  0  0
 24 26  1  0  0  0  0
 25 26  2  0  0  0  0
 23 25  1  0  0  0  0
 21 22  1  0  0  0  0
 22 23  1  0  0  0  0
  1  3  1  0  0  0  0
  1  7  1  0  0  0  0
  1  2  2  0  0  0  0
 35 36  1  0  0  0  0
 36 44  1  0  0  0  0
 36 37  2  0  0  0  0
  8  9  1  0  0  0  0
  9 17  1  0  0  0  0
  9 10  2  0  0  0  0
 18 19  1  0  0  0  0
 19 34  1  0  0  0  0
 19 20  2  0  0  0  0
 35 38  1  0  0  0  0
  8 11  1  0  0  0  0
 44 45  1  0  0  0  0
 18 21  1  0  0  0  0
 34 35  1  0  0  0  0
  7  8  1  0  0  0  0
 17 18  1  0  0  0  0
 24 32  1  0  0  0  0
 25 33  1  0  0  0  0
  3  4  1  0  0  0  0
  3  5  1  0  0  0  0
  3  6  1  0  0  0  0
 38 41  1  0  0  0  0
 38 42  1  0  0  0  0
 38 43  1  0  0  0  0
 11 14  1  0  0  0  0
 11 15  1  0  0  0  0
 11 16  1  0  0  0  0
 45 47  1  0  0  0  0
 45 48  1  0  0  0  0
 45 49  1  0  0  0  0
 21 29  1  0  0  0  0
 21 30  1  0  0  0  0
 35 40  1  0  0  0  0
  8 13  1  0  0  0  0
 18 28  1  0  0  0  0
 23 31  1  0  0  0  0
 44 46  1  0  0  0  0
  7 12  1  0  0  0  0
 34 39  1  0  0  0  0
 17 27  1  0  0  0  0
M  END
$$$$

  -OEChem-05262214473D

 49 49  0     1  0  0  0  0  0999 V2000
   -1.5619    0.5658    3.7981 C   0  0  0  0  0  0  0  0  0  0  0  0
   -0.6145   -0.0489    3.3224 O   0  0  0  0  0  0  0  0  0  0  0  0
   -1.9938    0.2834    5.1988 C   0  0  0  0  0  0  0  0  0  0  0  0
   -2.7535   -0.5129    5.2522 H   0  0  0  0  0  0  0  0  0  0  0  0
   -1.1626   -0.0642    5.8331 H   0  0  0  0  0  0  0  0  0  0  0  0
   -2.4318    1.1383    5.7384 H   0  0  0  0  0  0  0  0  0  0  0  0
   -2.3116    1.5383    3.1570 N   0  0  0  0  0  0  0  0  0  0  0  0
   -2.0648    1.9643    1.8046 C   0  0  2  0  0  0  0  0  0  0  0  0
   -0.7298    1.3789    1.3634 C   0  0  0  0  0  0  0  0  0  0  0  0
    0.1423    1.0262    2.1547 O   0  0  0  0  0  0  0  0  0  0  0  0
   -2.0560    3.4811    1.6952 C   0  0  0  0  0  0  0  0  0  0  0  0
   -3.0767    1.9741    3.6688 H   0  0  0  0  0  0  0  0  0  0  0  0
   -2.8689    1.5458    1.1895 H   0  0  0  0  0  0  0  0  0  0  0  0
   -1.2569    3.9183    2.3049 H   0  0  0  0  0  0  0  0  0  0  0  0
   -1.8965    3.8033    0.6609 H   0  0  0  0  0  0  0  0  0  0  0  0
   -3.0062    3.9023    2.0409 H   0  0  0  0  0  0  0  0  0  0  0  0
   -0.6071    1.3358   -0.0200 N   0  0  0  0  0  0  0  0  0  0  0  0
    0.5702    0.8350   -0.6836 C   0  0  2  0  0  0  0  0  0  0  0  0
    0.9113    1.8169   -1.7989 C   0  0  0  0  0  0  0  0  0  0  0  0
    1.2098    2.9907   -1.5888 O   0  0  0  0  0  0  0  0  0  0  0  0
    0.3575   -0.5705   -1.2577 C   0  0  0  0  0  0  0  0  0  0  0  0
    0.0984   -1.6043   -0.1891 C   0  0  0  0  0  0  0  0  0  0  0  0
    1.0850   -2.0959    0.6184 N   0  0  0  0  0  0  0  0  0  0  0  0
   -1.0443   -2.2526    0.2165 C   0  0  0  0  0  0  0  0  0  0  0  0
    0.5091   -3.0043    1.4625 C   0  0  0  0  0  0  0  0  0  0  0  0
   -0.7819   -3.1225    1.2451 N   0  0  0  0  0  0  0  0  0  0  0  0
   -1.3903    1.6325   -0.5973 H   0  0  0  0  0  0  0  0  0  0  0  0
    1.3754    0.8431    0.0603 H   0  0  0  0  0  0  0  0  0  0  0  0
    1.2259   -0.8710   -1.8595 H   0  0  0  0  0  0  0  0  0  0  0  0
   -0.4912   -0.5759   -1.9543 H   0  0  0  0  0  0  0  0  0  0  0  0
    2.0630   -1.8381    0.5973 H   0  0  0  0  0  0  0  0  0  0  0  0
   -2.0439   -2.1388   -0.1782 H   0  0  0  0  0  0  0  0  0  0  0  0
    1.0816   -3.5405    2.2060 H   0  0  0  0  0  0  0  0  0  0  0  0
    0.8906    1.2121   -3.0480 N   0  0  0  0  0  0  0  0  0  0  0  0
    1.1992    1.9125   -4.2740 C   0  0  2  0  0  0  0  0  0  0  0  0
    0.3763    3.1937   -4.3036 C   0  0  0  0  0  0  0  0  0  0  0  0
   -0.6581    3.3417   -3.6562 O   0  0  0  0  0  0  0  0  0  0  0  0
    0.9070    1.0505   -5.4922 C   0  0  0  0  0  0  0  0  0  0  0  0
    0.6463    0.2278   -3.1032 H   0  0  0  0  0  0  0  0  0  0  0  0
    2.2649    2.1630   -4.2354 H   0  0  0  0  0  0  0  0  0  0  0  0
   -0.1561    0.7893   -5.5478 H   0  0  0  0  0  0  0  0  0  0  0  0
    1.1681    1.5718   -6.4191 H   0  0  0  0  0  0  0  0  0  0  0  0
    1.4773    0.1160   -5.4543 H   0  0  0  0  0  0  0  0  0  0  0  0
    0.9096    4.1365   -5.1713 N   0  0  0  0  0  0  0  0  0  0  0  0
    0.3040    5.4302   -5.3849 C   0  0  0  0  0  0  0  0  0  0  0  0
    1.7812    3.9359   -5.6529 H   0  0  0  0  0  0  0  0  0  0  0  0
   -0.3820    5.3773   -6.2431 H   0  0  0  0  0  0  0  0  0  0  0  0
   -0.2562    5.7256   -4.4855 H   0  0  0  0  0  0  0  0  0  0  0  0
    1.0891    6.1733   -5.5885 H   0  0  0  0  0  0  0  0  0  0  0  0
 22 24  2  0  0  0  0
 24 26  1  0  0  0  0
 25 26  2  0  0  0  0
 23 25  1  0  0  0  0
 21 22  1  0  0  0  0
 22 23  1  0  0  0  0
  1  3  1  0  0  0  0
  1  7  1  0  0  0  0
  1  2  2  0  0  0  0
 35 36  1  0  0  0  0
 36 44  1  0  0  0  0
 36 37  2  0  0  0  0
  8  9  1  0  0  0  0
  9 17  1  0  0  0  0
  9 10  2  0  0  0  0
 18 19  1  0  0  0  0
 19 34  1  0  0  0  0
 19 20  2  0  0  0  0
 35 38  1  0  0  0  0
  8 11  1  0  0  0  0
 44 45  1  0  0  0  0
 18 21  1  0  0  0  0
 34 35  1  0  0  0  0
  7  8  1  0  0  0  0
 17 18  1  0  0  0  0
 24 32  1  0  0  0  0
 25 33  1  0  0  0  0
  3  4  1  0  0  0  0
  3  5  1  0  0  0  0
  3  6  1  0  0  0  0
 38 41  1  0  0  0  0
 38 42  1  0  0  0  0
 38 43  1  0  0  0  0
 11 14  1  0  0  0  0
 11 15  1  0  0  0  0
 11 16  1  0  0  0  0
 45 47  1  0  0  0  0
 45 48  1  0  0  0  0
 45 49  1  0  0  0  0
 21 29  1  0  0  0  0
 21 30  1  0  0  0  0
 35 40  1  0  0  0  0
  8 13  1  0  0  0  0
 18 28  1  0  0  0  0
 23 31  1  0  0  0  0
 44 46  1  0  0  0  0
  7 12  1  0  0  0  0
 34 39  1  0  0  0  0
 17 27  1  0  0  0  0
M  END
$$$$

  -OEChem-05262214473D

 49 49  0     1  0  0  0  0  0999 V2000
   -1.5619    0.5658    3.7981 C   0  0  0  0  0  0  0  0  0  0  0  0
   -0.6145   -0.0489    3.3224 O   0  0  0  0  0  0  0  0  0  0  0  0
   -1.9938    0.2834    5.1988 C   0  0  0  0  0  0  0  0  0  0  0  0
   -2.7535   -0.5129    5.2522 H   0  0  0  0  0  0  0  0  0  0  0  0
   -1.1626   -0.0642    5.8331 H   0  0  0  0  0  0  0  0  0  0  0  0
   -2.4318    1.1383    5.7384 H   0  0  0  0  0  0  0  0  0  0  0  0
   -2.3116    1.5383    3.1570 N   0  0  0  0  0  0  0  0  0  0  0  0
   -2.0648    1.9643    1.8046 C   0  0  2  0  0  0  0  0  0  0  0  0
   -0.7298    1.3789    1.3634 C   0  0  0  0  0  0  0  0  0  0  0  0
    0.1423    1.0262    2.1547 O   0  0  0  0  0  0  0  0  0  0  0  0
   -2.0560    3.4811    1.6952 C   0  0  0  0  0  0  0  0  0  0  0  0
   -3.0767    1.9741    3.6688 H   0  0  0  0  0  0  0  0  0  0  0  0
   -2.8689    1.5458    1.1895 H   0  0  0  0  0  0  0  0  0  0  0  0
   -1.2569    3.9183    2.3049 H   0  0  0  0  0  0  0  0  0  0  0  0
   -1.8965    3.8033    0.6609 H   0  0  0  0  0  0  0  0  0  0  0  0
   -3.0062    3.9023    2.0409 H   0  0  0  0  0  0  0  0  0  0  0  0
   -0.6071    1.3358   -0.0200 N   0  0  0  0  0  0  0  0  0  0  0  0
    0.5702    0.8350   -0.6836 C   0  0  2  0  0  0  0  0  0  0  0  0
    0.9113    1.8169   -1.7989 C   0  0  0  0  0  0  0  0  0  0  0  0
    1.4620    2.8967   -1.5944 O   0  0  0  0  0  0  0  0  0  0  0  0
    0.3575   -0.5705   -1.2577 C   0  0  0  0  0  0  0  0  0  0  0  0
    0.0984   -1.6043   -0.1891 C   0  0  0  0  0  0  0  0  0  0  0  0
    1.0850   -2.0959    0.6184 N   0  0  0  0  0  0  0  0  0  0  0  0
   -1.0443   -2.2526    0.2165 C   0  0  0  0  0  0  0  0  0  0  0  0
    0.5091   -3.0043    1.4625 C   0  0  0  0  0  0  0  0  0  0  0  0
   -0.7819   -3.1225    1.2451 N   0  0  0  0  0  0  0  0  0  0  0  0
   -1.3903    1.6325   -0.5973 H   0  0  0  0  0  0  0  0  0  0  0  0
    1.3754    0.8431    0.0603 H   0  0  0  0  0  0  0  0  0  0  0  0
    1.2259   -0.8710   -1.8595 H   0  0  0  0  0  0  0  0  0  0  0  0
   -0.4912   -0.5759   -1.9543 H   0  0  0  0  0  0  0  0  0  0  0  0
    2.0630   -1.8381    0.5973 H   0  0  0  0  0  0  0  0  0  0  0  0
   -2.0439   -2.1388   -0.1782 H   0  0  0  0  0  0  0  0  0  0  0  0
    1.0816   -3.5405    2.2060 H   0  0  0  0  0  0  0  0  0  0  0  0
    0.5725    1.3204   -3.0499 N   0  0  0  0  0  0  0  0  0  0  0  0
    0.8097    2.0405   -4.2803 C   0  0  2  0  0  0  0  0  0  0  0  0
    0.2575    3.4502   -4.1142 C   0  0  0  0  0  0  0  0  0  0  0  0
   -0.6104    3.7381   -3.2926 O   0  0  0  0  0  0  0  0  0  0  0  0
    0.1632    1.3397   -5.4651 C   0  0  0  0  0  0  0  0  0  0  0  0
    0.1360    0.4048   -3.1034 H   0  0  0  0  0  0  0  0  0  0  0  0
    1.8958    2.0867   -4.4155 H   0  0  0  0  0  0  0  0  0  0  0  0
   -0.9252    1.2839   -5.3476 H   0  0  0  0  0  0  0  0  0  0  0  0
    0.3678    1.8711   -6.4004 H   0  0  0  0  0  0  0  0  0  0  0  0
    0.5396    0.3159   -5.5651 H   0  0  0  0  0  0  0  0  0  0  0  0
    0.8169    4.3400   -5.0205 N   0  0  0  0  0  0  0  0  0  0  0  0
    0.4477    5.7354   -5.0722 C   0  0  0  0  0  0  0  0  0  0  0  0
    1.5437    4.0182   -5.6530 H   0  0  0  0  0  0  0  0  0  0  0  0
   -0.3646    5.8735   -5.8009 H   0  0  0  0  0  0  0  0  0  0  0  0
    0.1080    6.0617   -4.0782 H   0  0  0  0  0  0  0  0  0  0  0  0
    1.3189    6.3339   -5.3767 H   0  0  0  0  0  0  0  0  0  0  0  0
 22 24  2  0  0  0  0
 24 26  1  0  0  0  0
 25 26  2  0  0  0  0
 23 25  1  0  0  0  0
 21 22  1  0  0  0  0
 22 23  1  0  0  0  0
  1  3  1  0  0  0  0
  1  7  1  0  0  0  0
  1  2  2  0  0  0  0
 35 36  1  0  0  0  0
 36 44  1  0  0  0  0
 36 37  2  0  0  0  0
  8  9  1  0  0  0  0
  9 17  1  0  0  0  0
  9 10  2  0  0  0  0
 18 19  1  0  0  0  0
 19 34  1  0  0  0  0
 19 20  2  0  0  0  0
 35 38  1  0  0  0  0
  8 11  1  0  0  0  0
 44 45  1  0  0  0  0
 18 21  1  0  0  0  0
 34 35  1  0  0  0  0
  7  8  1  0  0  0  0
 17 18  1  0  0  0  0
 24 32  1  0  0  0  0
 25 33  1  0  0  0  0
  3  4  1  0  0  0  0
  3  5  1  0  0  0  0
  3  6  1  0  0  0  0
 38 41  1  0  0  0  0
 38 42  1  0  0  0  0
 38 43  1  0  0  0  0
 11 14  1  0  0  0  0
 11 15  1  0  0  0  0
 11 16  1  0  0  0  0
 45 47  1  0  0  0  0
 45 48  1  0  0  0  0
 45 49  1  0  0  0  0
 21 29  1  0  0  0  0
 21 30  1  0  0  0  0
 35 40  1  0  0  0  0
  8 13  1  0  0  0  0
 18 28  1  0  0  0  0
 23 31  1  0  0  0  0
 44 46  1  0  0  0  0
  7 12  1  0  0  0  0
 34 39  1  0  0  0  0
 17 27  1  0  0  0  0
M  END
$$$$

  -OEChem-05262214473D

 49 49  0     1  0  0  0  0  0999 V2000
   -1.5619    0.5658    3.7981 C   0  0  0  0  0  0  0  0  0  0  0  0
   -0.6145   -0.0489    3.3224 O   0  0  0  0  0  0  0  0  0  0  0  0
   -1.9938    0.2834    5.1988 C   0  0  0  0  0  0  0  0  0  0  0  0
   -2.7535   -0.5129    5.2522 H   0  0  0  0  0  0  0  0  0  0  0  0
   -1.1626   -0.0642    5.8331 H   0  0  0  0  0  0  0  0  0  0  0  0
   -2.4318    1.1383    5.7384 H   0  0  0  0  0  0  0  0  0  0  0  0
   -2.3116    1.5383    3.1570 N   0  0  0  0  0  0  0  0  0  0  0  0
   -2.0648    1.9643    1.8046 C   0  0  2  0  0  0  0  0  0  0  0  0
   -0.7298    1.3789    1.3634 C   0  0  0  0  0  0  0  0  0  0  0  0
    0.1423    1.0262    2.1547 O   0  0  0  0  0  0  0  0  0  0  0  0
   -2.0560    3.4811    1.6952 C   0  0  0  0  0  0  0  0  0  0  0  0
   -3.0767    1.9741    3.6688 H   0  0  0  0  0  0  0  0  0  0  0  0
   -2.8689    1.5458    1.1895 H   0  0  0  0  0  0  0  0  0  0  0  0
   -1.2569    3.9183    2.3049 H   0  0  0  0  0  0  0  0  0  0  0  0
   -1.8965    3.8033    0.6609 H   0  0  0  0  0  0  0  0  0  0  0  0
   -3.0062    3.9023    2.0409 H   0  0  0  0  0  0  0  0  0  0  0  0
   -0.6071    1.3358   -0.0200 N   0  0  0  0  0  0  0  0  0  0  0  0
    0.5702    0.8350   -0.6836 C   0  0  2  0  0  0  0  0  0  0  0  0
    0.9113    1.8169   -1.7989 C   0  0  0  0  0  0  0  0  0  0  0  0
    1.6868    2.7585   -1.6473 O   0  0  0  0  0  0  0  0  0  0  0  0
    0.3575   -0.5705   -1.2577 C   0  0  0  0  0  0  0  0  0  0  0  0
    0.0984   -1.6043   -0.1891 C   0  0  0  0  0  0  0  0  0  0  0  0
    1.0850   -2.0959    0.6184 N   0  0  0  0  0  0  0  0  0  0  0  0
   -1.0443   -2.2526    0.2165 C   0  0  0  0  0  0  0  0  0  0  0  0
    0.5091   -3.0043    1.4625 C   0  0  0  0  0  0  0  0  0  0  0  0
   -0.7819   -3.1225    1.2451 N   0  0  0  0  0  0  0  0  0  0  0  0
   -1.3903    1.6325   -0.5973 H   0  0  0  0  0  0  0  0  0  0  0  0
    1.3754    0.8431    0.0603 H   0  0  0  0  0  0  0  0  0  0  0  0
    1.2259   -0.8710   -1.8595 H   0  0  0  0  0  0  0  0  0  0  0  0
   -0.4912   -0.5759   -1.9543 H   0  0  0  0  0  0  0  0  0  0  0  0
    2.0630   -1.8381    0.5973 H   0  0  0  0  0  0  0  0  0  0  0  0
   -2.0439   -2.1388   -0.1782 H   0  0  0  0  0  0  0  0  0  0  0  0
    1.0816   -3.5405    2.2060 H   0  0  0  0  0  0  0  0  0  0  0  0
    0.2855    1.4853   -2.9925 N   0  0  0  0  0  0  0  0  0  0  0  0
    0.4566    2.2384   -4.2142 C   0  0  2  0  0  0  0  0  0  0  0  0
    0.2229    3.7094   -3.8965 C   0  0  0  0  0  0  0  0  0  0  0  0
   -0.4286    4.0909   -2.9264 O   0  0  0  0  0  0  0  0  0  0  0  0
   -0.4960    1.7584   -5.2981 C   0  0  0  0  0  0  0  0  0  0  0  0
   -0.3234    0.6724   -3.0083 H   0  0  0  0  0  0  0  0  0  0  0  0
    1.4947    2.0933   -4.5323 H   0  0  0  0  0  0  0  0  0  0  0  0
   -1.5410    1.8957   -4.9973 H   0  0  0  0  0  0  0  0  0  0  0  0
   -0.3455    2.3106   -6.2316 H   0  0  0  0  0  0  0  0  0  0  0  0
   -0.3468    0.6930   -5.5043 H   0  0  0  0  0  0  0  0  0  0  0  0
    0.7909    4.5454   -4.8476 N   0  0  0  0  0  0  0  0  0  0  0  0
    0.6965    5.9848   -4.7765 C   0  0  0  0  0  0  0  0  0  0  0  0
    1.3298    4.1428   -5.6087 H   0  0  0  0  0  0  0  0  0  0  0  0
   -0.1802    6.3239   -5.3479 H   0  0  0  0  0  0  0  0  0  0  0  0
    0.5912    6.2938   -3.7260 H   0  0  0  0  0  0  0  0  0  0  0  0
    1.6067    6.4333   -5.2012 H   0  0  0  0  0  0  0  0  0  0  0  0
 22 24  2  0  0  0  0
 24 26  1  0  0  0  0
 25 26  2  0  0  0  0
 23 25  1  0  0  0  0
 21 22  1  0  0  0  0
 22 23  1  0  0  0  0
  1  3  1  0  0  0  0
  1  7  1  0  0  0  0
  1  2  2  0  0  0  0
 35 36  1  0  0  0  0
 36 44  1  0  0  0  0
 36 37  2  0  0  0  0
  8  9  1  0  0  0  0
  9 17  1  0  0  0  0
  9 10  2  0  0  0  0
 18 19  1  0  0  0  0
 19 34  1  0  0  0  0
 19 20  2  0  0  0  0
 35 38  1  0  0  0  0
  8 11  1  0  0  0  0
 44 45  1  0  0  0  0
 18 21  1  0  0  0  0
 34 35  1  0  0  0  0
  7  8  1  0  0  0  0
 17 18  1  0  0  0  0
 24 32  1  0  0  0  0
 25 33  1  0  0  0  0
  3  4  1  0  0  0  0
  3  5  1  0  0  0  0
  3  6  1  0  0  0  0
 38 41  1  0  0  0  0
 38 42  1  0  0  0  0
 38 43  1  0  0  0  0
 11 14  1  0  0  0  0
 11 15  1  0  0  0  0
 11 16  1  0  0  0  0
 45 47  1  0  0  0  0
 45 48  1  0  0  0  0
 45 49  1  0  0  0  0
 21 29  1  0  0  0  0
 21 30  1  0  0  0  0
 35 40  1  0  0  0  0
  8 13  1  0  0  0  0
 18 28  1  0  0  0  0
 23 31  1  0  0  0  0
 44 46  1  0  0  0  0
  7 12  1  0  0  0  0
 34 39  1  0  0  0  0
 17 27  1  0  0  0  0
M  END
$$$$

  -OEChem-05262214473D

 49 49  0     1  0  0  0  0  0999 V2000
   -1.5619    0.5658    3.7981 C   0  0  0  0  0  0  0  0  0  0  0  0
   -0.6145   -0.0489    3.3224 O   0  0  0  0  0  0  0  0  0  0  0  0
   -1.9938    0.2834    5.1988 C   0  0  0  0  0  0  0  0  0  0  0  0
   -2.7535   -0.5129    5.2522 H   0  0  0  0  0  0  0  0  0  0  0  0
   -1.1626   -0.0642    5.8331 H   0  0  0  0  0  0  0  0  0  0  0  0
   -2.4318    1.1383    5.7384 H   0  0  0  0  0  0  0  0  0  0  0  0
   -2.3116    1.5383    3.1570 N   0  0  0  0  0  0  0  0  0  0  0  0
   -2.0648    1.9643    1.8046 C   0  0  2  0  0  0  0  0  0  0  0  0
   -0.7298    1.3789    1.3634 C   0  0  0  0  0  0  0  0  0  0  0  0
    0.1423    1.0262    2.1547 O   0  0  0  0  0  0  0  0  0  0  0  0
   -2.0560    3.4811    1.6952 C   0  0  0  0  0  0  0  0  0  0  0  0
   -3.0767    1.9741    3.6688 H   0  0  0  0  0  0  0  0  0  0  0  0
   -2.8689    1.5458    1.1895 H   0  0  0  0  0  0  0  0  0  0  0  0
   -1.2569    3.9183    2.3049 H   0  0  0  0  0  0  0  0  0  0  0  0
   -1.8965    3.8033    0.6609 H   0  0  0  0  0  0  0  0  0  0  0  0
   -3.0062    3.9023    2.0409 H   0  0  0  0  0  0  0  0  0  0  0  0
   -0.6071    1.3358   -0.0200 N   0  0  0  0  0  0  0  0  0  0  0  0
    0.5702    0.8350   -0.6836 C   0  0  2  0  0  0  0  0  0  0  0  0
    0.9113    1.8169   -1.7989 C   0  0  0  0  0  0  0  0  0  0  0  0
    1.8690    2.5855   -1.7439 O   0  0  0  0  0  0  0  0  0  0  0  0
    0.3575   -0.5705   -1.2577 C   0  0  0  0  0  0  0  0  0  0  0  0
    0.0984   -1.6043   -0.1891 C   0  0  0  0  0  0  0  0  0  0  0  0
    1.0850   -2.0959    0.6184 N   0  0  0  0  0  0  0  0  0  0  0  0
   -1.0443   -2.2526    0.2165 C   0  0  0  0  0  0  0  0  0  0  0  0
    0.5091   -3.0043    1.4625 C   0  0  0  0  0  0  0  0  0  0  0  0
   -0.7819   -3.1225    1.2451 N   0  0  0  0  0  0  0  0  0  0  0  0
   -1.3903    1.6325   -0.5973 H   0  0  0  0  0  0  0  0  0  0  0  0
    1.3754    0.8431    0.0603 H   0  0  0  0  0  0  0  0  0  0  0  0
    1.2259   -0.8710   -1.8595 H   0  0  0  0  0  0  0  0  0  0  0  0
   -0.4912   -0.5759   -1.9543 H   0  0  0  0  0  0  0  0  0  0  0  0
    2.0630   -1.8381    0.5973 H   0  0  0  0  0  0  0  0  0  0  0  0
   -2.0439   -2.1388   -0.1782 H   0  0  0  0  0  0  0  0  0  0  0  0
    1.0816   -3.5405    2.2060 H   0  0  0  0  0  0  0  0  0  0  0  0
    0.0490    1.6956   -2.8797 N   0  0  0  0  0  0  0  0  0  0  0  0
    0.1640    2.4925   -4.0799 C   0  0  2  0  0  0  0  0  0  0  0  0
    0.2748    3.9538   -3.6655 C   0  0  0  0  0  0  0  0  0  0  0  0
   -0.1252    4.3760   -2.5825 O   0  0  0  0  0  0  0  0  0  0  0  0
   -1.0256    2.2779   -5.0027 C   0  0  0  0  0  0  0  0  0  0  0  0
   -0.7006    1.0124   -2.8244 H   0  0  0  0  0  0  0  0  0  0  0  0
    1.0891    2.1824   -4.5780 H   0  0  0  0  0  0  0  0  0  0  0  0
   -1.9617    2.5830   -4.5209 H   0  0  0  0  0  0  0  0  0  0  0  0
   -0.9231    2.8604   -5.9242 H   0  0  0  0  0  0  0  0  0  0  0  0
   -1.1214    1.2215   -5.2759 H   0  0  0  0  0  0  0  0  0  0  0  0
    0.8336    4.7387   -4.6644 N   0  0  0  0  0  0  0  0  0  0  0  0
    1.0332    6.1616   -4.5179 C   0  0  0  0  0  0  0  0  0  0  0  0
    1.1542    4.3010   -5.5231 H   0  0  0  0  0  0  0  0  0  0  0  0
    0.1587    6.6979   -4.9150 H   0  0  0  0  0  0  0  0  0  0  0  0
    1.1607    6.4061   -3.4530 H   0  0  0  0  0  0  0  0  0  0  0  0
    1.9327    6.4647   -5.0739 H   0  0  0  0  0  0  0  0  0  0  0  0
 22 24  2  0  0  0  0
 24 26  1  0  0  0  0
 25 26  2  0  0  0  0
 23 25  1  0  0  0  0
 21 22  1  0  0  0  0
 22 23  1  0  0  0  0
  1  3  1  0  0  0  0
  1  7  1  0  0  0  0
  1  2  2  0  0  0  0
 35 36  1  0  0  0  0
 36 44  1  0  0  0  0
 36 37  2  0  0  0  0
  8  9  1  0  0  0  0
  9 17  1  0  0  0  0
  9 10  2  0  0  0  0
 18 19  1  0  0  0  0
 19 34  1  0  0  0  0
 19 20  2  0  0  0  0
 35 38  1  0  0  0  0
  8 11  1  0  0  0  0
 44 45  1  0  0  0  0
 18 21  1  0  0  0  0
 34 35  1  0  0  0  0
  7  8  1  0  0  0  0
 17 18  1  0  0  0  0
 24 32  1  0  0  0  0
 25 33  1  0  0  0  0
  3  4  1  0  0  0  0
  3  5  1  0  0  0  0
  3  6  1  0  0  0  0
 38 41  1  0  0  0  0
 38 42  1  0  0  0  0
 38 43  1  0  0  0  0
 11 14  1  0  0  0  0
 11 15  1  0  0  0  0
 11 16  1  0  0  0  0
 45 47  1  0  0  0  0
 45 48  1  0  0  0  0
 45 49  1  0  0  0  0
 21 29  1  0  0  0  0
 21 30  1  0  0  0  0
 35 40  1  0  0  0  0
  8 13  1  0  0  0  0
 18 28  1  0  0  0  0
 23 31  1  0  0  0  0
 44 46  1  0  0  0  0
  7 12  1  0  0  0  0
 34 39  1  0  0  0  0
 17 27  1  0  0  0  0
M  END
$$$$

  -OEChem-05262214473D

 49 49  0     1  0  0  0  0  0999 V2000
   -1.5619    0.5658    3.7981 C   0  0  0  0  0  0  0  0  0  0  0  0
   -0.6145   -0.0489    3.3224 O   0  0  0  0  0  0  0  0  0  0  0  0
   -1.9938    0.2834    5.1988 C   0  0  0  0  0  0  0  0  0  0  0  0
   -2.7535   -0.5129    5.2522 H   0  0  0  0  0  0  0  0  0  0  0  0
   -1.1626   -0.0642    5.8331 H   0  0  0  0  0  0  0  0  0  0  0  0
   -2.4318    1.1383    5.7384 H   0  0  0  0  0  0  0  0  0  0  0  0
   -2.3116    1.5383    3.1570 N   0  0  0  0  0  0  0  0  0  0  0  0
   -2.0648    1.9643    1.8046 C   0  0  2  0  0  0  0  0  0  0  0  0
   -0.7298    1.3789    1.3634 C   0  0  0  0  0  0  0  0  0  0  0  0
    0.1423    1.0262    2.1547 O   0  0  0  0  0  0  0  0  0  0  0  0
   -2.0560    3.4811    1.6952 C   0  0  0  0  0  0  0  0  0  0  0  0
   -3.0767    1.9741    3.6688 H   0  0  0  0  0  0  0  0  0  0  0  0
   -2.8689    1.5458    1.1895 H   0  0  0  0  0  0  0  0  0  0  0  0
   -1.2569    3.9183    2.3049 H   0  0  0  0  0  0  0  0  0  0  0  0
   -1.8965    3.8033    0.6609 H   0  0  0  0  0  0  0  0  0  0  0  0
   -3.0062    3.9023    2.0409 H   0  0  0  0  0  0  0  0  0  0  0  0
   -0.6071    1.3358   -0.0200 N   0  0  0  0  0  0  0  0  0  0  0  0
    0.5702    0.8350   -0.6836 C   0  0  2  0  0  0  0  0  0  0  0  0
    0.9113    1.8169   -1.7989 C   0  0  0  0  0  0  0  0  0  0  0  0
    1.9961    2.3895   -1.8776 O   0  0  0  0  0  0  0  0  0  0  0  0
    0.3575   -0.5705   -1.2577 C   0  0  0  0  0  0  0  0  0  0  0  0
    0.0984   -1.6043   -0.1891 C   0  0  0  0  0  0  0  0  0  0  0  0
    1.0850   -2.0959    0.6184 N   0  0  0  0  0  0  0  0  0  0  0  0
   -1.0443   -2.2526    0.2165 C   0  0  0  0  0  0  0  0  0  0  0  0
    0.5091   -3.0043    1.4625 C   0  0  0  0  0  0  0  0  0  0  0  0
   -0.7819   -3.1225    1.2451 N   0  0  0  0  0  0  0  0  0  0  0  0
   -1.3903    1.6325   -0.5973 H   0  0  0  0  0  0  0  0  0  0  0  0
    1.3754    0.8431    0.0603 H   0  0  0  0  0  0  0  0  0  0  0  0
    1.2259   -0.8710   -1.8595 H   0  0  0  0  0  0  0  0  0  0  0  0
   -0.4912   -0.5759   -1.9543 H   0  0  0  0  0  0  0  0  0  0  0  0
    2.0630   -1.8381    0.5973 H   0  0  0  0  0  0  0  0  0  0  0  0
   -2.0439   -2.1388   -0.1782 H   0  0  0  0  0  0  0  0  0  0  0  0
    1.0816   -3.5405    2.2060 H   0  0  0  0  0  0  0  0  0  0  0  0
   -0.1208    1.9370   -2.7191 N   0  0  0  0  0  0  0  0  0  0  0  0
   -0.0481    2.7855   -3.8868 C   0  0  2  0  0  0  0  0  0  0  0  0
    0.4097    4.1666   -3.4368 C   0  0  0  0  0  0  0  0  0  0  0  0
    0.2791    4.5741   -2.2844 O   0  0  0  0  0  0  0  0  0  0  0  0
   -1.3896    2.8629   -4.5990 C   0  0  0  0  0  0  0  0  0  0  0  0
   -0.9699    1.4016   -2.5641 H   0  0  0  0  0  0  0  0  0  0  0  0
    0.7066    2.3479   -4.5493 H   0  0  0  0  0  0  0  0  0  0  0  0
   -2.1585    3.2988   -3.9507 H   0  0  0  0  0  0  0  0  0  0  0  0
   -1.3257    3.4830   -5.4992 H   0  0  0  0  0  0  0  0  0  0  0  0
   -1.7314    1.8654   -4.8955 H   0  0  0  0  0  0  0  0  0  0  0  0
    0.9419    4.9067   -4.4833 N   0  0  0  0  0  0  0  0  0  0  0  0
    1.4351    6.2536   -4.3139 C   0  0  0  0  0  0  0  0  0  0  0  0
    1.0288    4.4822   -5.4020 H   0  0  0  0  0  0  0  0  0  0  0  0
    0.6291    6.9698   -4.5316 H   0  0  0  0  0  0  0  0  0  0  0  0
    1.7775    6.3909   -3.2776 H   0  0  0  0  0  0  0  0  0  0  0  0
    2.2747    6.4259   -5.0034 H   0  0  0  0  0  0  0  0  0  0  0  0
 22 24  2  0  0  0  0
 24 26  1  0  0  0  0
 25 26  2  0  0  0  0
 23 25  1  0  0  0  0
 21 22  1  0  0  0  0
 22 23  1  0  0  0  0
  1  3  1  0  0  0  0
  1  7  1  0  0  0  0
  1  2  2  0  0  0  0
 35 36  1  0  0  0  0
 36 44  1  0  0  0  0
 36 37  2  0  0  0  0
  8  9  1  0  0  0  0
  9 17  1  0  0  0  0
  9 10  2  0  0  0  0
 18 19  1  0  0  0  0
 19 34  1  0  0  0  0
 19 20  2  0  0  0  0
 35 38  1  0  0  0  0
  8 11  1  0  0  0  0
 44 45  1  0  0  0  0
 18 21  1  0  0  0  0
 34 35  1  0  0  0  0
  7  8  1  0  0  0  0
 17 18  1  0  0  0  0
 24 32  1  0  0  0  0
 25 33  1  0  0  0  0
  3  4  1  0  0  0  0
  3  5  1  0  0  0  0
  3  6  1  0  0  0  0
 38 41  1  0  0  0  0
 38 42  1  0  0  0  0
 38 43  1  0  0  0  0
 11 14  1  0  0  0  0
 11 15  1  0  0  0  0
 11 16  1  0  0  0  0
 45 47  1  0  0  0  0
 45 48  1  0  0  0  0
 45 49  1  0  0  0  0
 21 29  1  0  0  0  0
 21 30  1  0  0  0  0
 35 40  1  0  0  0  0
  8 13  1  0  0  0  0
 18 28  1  0  0  0  0
 23 31  1  0  0  0  0
 44 46  1  0  0  0  0
  7 12  1  0  0  0  0
 34 39  1  0  0  0  0
 17 27  1  0  0  0  0
M  END
$$$$

  -OEChem-05262214473D

 49 49  0     1  0  0  0  0  0999 V2000
   -1.5619    0.5658    3.7981 C   0  0  0  0  0  0  0  0  0  0  0  0
   -0.6145   -0.0489    3.3224 O   0  0  0  0  0  0  0  0  0  0  0  0
   -1.9938    0.2834    5.1988 C   0  0  0  0  0  0  0  0  0  0  0  0
   -2.7535   -0.5129    5.2522 H   0  0  0  0  0  0  0  0  0  0  0  0
   -1.1626   -0.0642    5.8331 H   0  0  0  0  0  0  0  0  0  0  0  0
   -2.4318    1.1383    5.7384 H   0  0  0  0  0  0  0  0  0  0  0  0
   -2.3116    1.5383    3.1570 N   0  0  0  0  0  0  0  0  0  0  0  0
   -2.0648    1.9643    1.8046 C   0  0  2  0  0  0  0  0  0  0  0  0
   -0.7298    1.3789    1.3634 C   0  0  0  0  0  0  0  0  0  0  0  0
    0.1423    1.0262    2.1547 O   0  0  0  0  0  0  0  0  0  0  0  0
   -2.0560    3.4811    1.6952 C   0  0  0  0  0  0  0  0  0  0  0  0
   -3.0767    1.9741    3.6688 H   0  0  0  0  0  0  0  0  0  0  0  0
   -2.8689    1.5458    1.1895 H   0  0  0  0  0  0  0  0  0  0  0  0
   -1.2569    3.9183    2.3049 H   0  0  0  0  0  0  0  0  0  0  0  0
   -1.8965    3.8033    0.6609 H   0  0  0  0  0  0  0  0  0  0  0  0
   -3.0062    3.9023    2.0409 H   0  0  0  0  0  0  0  0  0  0  0  0
   -0.6071    1.3358   -0.0200 N   0  0  0  0  0  0  0  0  0  0  0  0
    0.5702    0.8350   -0.6836 C   0  0  2  0  0  0  0  0  0  0  0  0
    0.9113    1.8169   -1.7989 C   0  0  0  0  0  0  0  0  0  0  0  0
    2.0595    2.1838   -2.0393 O   0  0  0  0  0  0  0  0  0  0  0  0
    0.3575   -0.5705   -1.2577 C   0  0  0  0  0  0  0  0  0  0  0  0
    0.0984   -1.6043   -0.1891 C   0  0  0  0  0  0  0  0  0  0  0  0
    1.0850   -2.0959    0.6184 N   0  0  0  0  0  0  0  0  0  0  0  0
   -1.0443   -2.2526    0.2165 C   0  0  0  0  0  0  0  0  0  0  0  0
    0.5091   -3.0043    1.4625 C   0  0  0  0  0  0  0  0  0  0  0  0
   -0.7819   -3.1225    1.2451 N   0  0  0  0  0  0  0  0  0  0  0  0
   -1.3903    1.6325   -0.5973 H   0  0  0  0  0  0  0  0  0  0  0  0
    1.3754    0.8431    0.0603 H   0  0  0  0  0  0  0  0  0  0  0  0
    1.2259   -0.8710   -1.8595 H   0  0  0  0  0  0  0  0  0  0  0  0
   -0.4912   -0.5759   -1.9543 H   0  0  0  0  0  0  0  0  0  0  0  0
    2.0630   -1.8381    0.5973 H   0  0  0  0  0  0  0  0  0  0  0  0
   -2.0439   -2.1388   -0.1782 H   0  0  0  0  0  0  0  0  0  0  0  0
    1.0816   -3.5405    2.2060 H   0  0  0  0  0  0  0  0  0  0  0  0
   -0.2123    2.1930   -2.5217 N   0  0  0  0  0  0  0  0  0  0  0  0
   -0.1653    3.0976   -3.6479 C   0  0  2  0  0  0  0  0  0  0  0  0
    0.6184    4.3334   -3.2261 C   0  0  0  0  0  0  0  0  0  0  0  0
    0.7569    4.6716   -2.0524 O   0  0  0  0  0  0  0  0  0  0  0  0
   -1.5631    3.4734   -4.1144 C   0  0  0  0  0  0  0  0  0  0  0  0
   -1.1130    1.8134   -2.2453 H   0  0  0  0  0  0  0  0  0  0  0  0
    0.3732    2.5785   -4.4482 H   0  0  0  0  0  0  0  0  0  0  0  0
   -2.1180    3.9946   -3.3258 H   0  0  0  0  0  0  0  0  0  0  0  0
   -1.5259    4.1360   -4.9854 H   0  0  0  0  0  0  0  0  0  0  0  0
   -2.1354    2.5808   -4.3892 H   0  0  0  0  0  0  0  0  0  0  0  0
    1.1086    5.0380   -4.3167 N   0  0  0  0  0  0  0  0  0  0  0  0
    1.8747    6.2545   -4.1786 C   0  0  0  0  0  0  0  0  0  0  0  0
    0.9621    4.6739   -5.2536 H   0  0  0  0  0  0  0  0  0  0  0  0
    1.1988    7.1212   -4.2241 H   0  0  0  0  0  0  0  0  0  0  0  0
    2.3996    6.2494   -3.2120 H   0  0  0  0  0  0  0  0  0  0  0  0
    2.6095    6.3196   -4.9946 H   0  0  0  0  0  0  0  0  0  0  0  0
 22 24  2  0  0  0  0
 24 26  1  0  0  0  0
 25 26  2  0  0  0  0
 23 25  1  0  0  0  0
 21 22  1  0  0  0  0
 22 23  1  0  0  0  0
  1  3  1  0  0  0  0
  1  7  1  0  0  0  0
  1  2  2  0  0  0  0
 35 36  1  0  0  0  0
 36 44  1  0  0  0  0
 36 37  2  0  0  0  0
  8  9  1  0  0  0  0
  9 17  1  0  0  0  0
  9 10  2  0  0  0  0
 18 19  1  0  0  0  0
 19 34  1  0  0  0  0
 19 20  2  0  0  0  0
 35 38  1  0  0  0  0
  8 11  1  0  0  0  0
 44 45  1  0  0  0  0
 18 21  1  0  0  0  0
 34 35  1  0  0  0  0
  7  8  1  0  0  0  0
 17 18  1  0  0  0  0
 24 32  1  0  0  0  0
 25 33  1  0  0  0  0
  3  4  1  0  0  0  0
  3  5  1  0  0  0  0
  3  6  1  0  0  0  0
 38 41  1  0  0  0  0
 38 42  1  0  0  0  0
 38 43  1  0  0  0  0
 11 14  1  0  0  0  0
 11 15  1  0  0  0  0
 11 16  1  0  0  0  0
 45 47  1  0  0  0  0
 45 48  1  0  0  0  0
 45 49  1  0  0  0  0
 21 29  1  0  0  0  0
 21 30  1  0  0  0  0
 35 40  1  0  0  0  0
  8 13  1  0  0  0  0
 18 28  1  0  0  0  0
 23 31  1  0  0  0  0
 44 46  1  0  0  0  0
  7 12  1  0  0  0  0
 34 39  1  0  0  0  0
 17 27  1  0  0  0  0
M  END
$$$$

  -OEChem-05262214473D

 49 49  0     1  0  0  0  0  0999 V2000
   -1.5619    0.5658    3.7981 C   0  0  0  0  0  0  0  0  0  0  0  0
   -0.6145   -0.0489    3.3224 O   0  0  0  0  0  0  0  0  0  0  0  0
   -1.9938    0.2834    5.1988 C   0  0  0  0  0  0  0  0  0  0  0  0
   -2.7535   -0.5129    5.2522 H   0  0  0  0  0  0  0  0  0  0  0  0
   -1.1626   -0.0642    5.8331 H   0  0  0  0  0  0  0  0  0  0  0  0
   -2.4318    1.1383    5.7384 H   0  0  0  0  0  0  0  0  0  0  0  0
   -2.3116    1.5383    3.1570 N   0  0  0  0  0  0  0  0  0  0  0  0
   -2.0648    1.9643    1.8046 C   0  0  2  0  0  0  0  0  0  0  0  0
   -0.7298    1.3789    1.3634 C   0  0  0  0  0  0  0  0  0  0  0  0
    0.1423    1.0262    2.1547 O   0  0  0  0  0  0  0  0  0  0  0  0
   -2.0560    3.4811    1.6952 C   0  0  0  0  0  0  0  0  0  0  0  0
   -3.0767    1.9741    3.6688 H   0  0  0  0  0  0  0  0  0  0  0  0
   -2.8689    1.5458    1.1895 H   0  0  0  0  0  0  0  0  0  0  0  0
   -1.2569    3.9183    2.3049 H   0  0  0  0  0  0  0  0  0  0  0  0
   -1.8965    3.8033    0.6609 H   0  0  0  0  0  0  0  0  0  0  0  0
   -3.0062    3.9023    2.0409 H   0  0  0  0  0  0  0  0  0  0  0  0
   -0.6071    1.3358   -0.0200 N   0  0  0  0  0  0  0  0  0  0  0  0
    0.5702    0.8350   -0.6836 C   0  0  2  0  0  0  0  0  0  0  0  0
    0.9113    1.8169   -1.7989 C   0  0  0  0  0  0  0  0  0  0  0  0
    2.0549    1.9825   -2.2180 O   0  0  0  0  0  0  0  0  0  0  0  0
    0.3575   -0.5705   -1.2577 C   0  0  0  0  0  0  0  0  0  0  0  0
    0.0984   -1.6043   -0.1891 C   0  0  0  0  0  0  0  0  0  0  0  0
    1.0850   -2.0959    0.6184 N   0  0  0  0  0  0  0  0  0  0  0  0
   -1.0443   -2.2526    0.2165 C   0  0  0  0  0  0  0  0  0  0  0  0
    0.5091   -3.0043    1.4625 C   0  0  0  0  0  0  0  0  0  0  0  0
   -0.7819   -3.1225    1.2451 N   0  0  0  0  0  0  0  0  0  0  0  0
   -1.3903    1.6325   -0.5973 H   0  0  0  0  0  0  0  0  0  0  0  0
    1.3754    0.8431    0.0603 H   0  0  0  0  0  0  0  0  0  0  0  0
    1.2259   -0.8710   -1.8595 H   0  0  0  0  0  0  0  0  0  0  0  0
   -0.4912   -0.5759   -1.9543 H   0  0  0  0  0  0  0  0  0  0  0  0
    2.0630   -1.8381    0.5973 H   0  0  0  0  0  0  0  0  0  0  0  0
   -2.0439   -2.1388   -0.1782 H   0  0  0  0  0  0  0  0  0  0  0  0
    1.0816   -3.5405    2.2060 H   0  0  0  0  0  0  0  0  0  0  0  0
   -0.2194    2.4462   -2.3009 N   0  0  0  0  0  0  0  0  0  0  0  0
   -0.1796    3.4074   -3.3795 C   0  0  2  0  0  0  0  0  0  0  0  0
    0.8868    4.4428   -3.0477 C   0  0  0  0  0  0  0  0  0  0  0  0
    1.2756    4.6619   -1.9023 O   0  0  0  0  0  0  0  0  0  0  0  0
   -1.5343    4.0680   -3.5821 C   0  0  0  0  0  0  0  0  0  0  0  0
   -1.1201    2.2198   -1.8896 H   0  0  0  0  0  0  0  0  0  0  0  0
    0.1116    2.8585   -4.2817 H   0  0  0  0  0  0  0  0  0  0  0  0
   -1.8430    4.6227   -2.6886 H   0  0  0  0  0  0  0  0  0  0  0  0
   -1.5100    4.7749   -4.4180 H   0  0  0  0  0  0  0  0  0  0  0  0
   -2.3058    3.3191   -3.7913 H   0  0  0  0  0  0  0  0  0  0  0  0
    1.3222    5.1236   -4.1760 N   0  0  0  0  0  0  0  0  0  0  0  0
    2.3220    6.1644   -4.1211 C   0  0  0  0  0  0  0  0  0  0  0  0
    0.9588    4.8631   -5.0880 H   0  0  0  0  0  0  0  0  0  0  0  0
    1.8291    7.1418   -4.0131 H   0  0  0  0  0  0  0  0  0  0  0  0
    2.9847    5.9910   -3.2605 H   0  0  0  0  0  0  0  0  0  0  0  0
    2.9142    6.1530   -5.0481 H   0  0  0  0  0  0  0  0  0  0  0  0
 22 24  2  0  0  0  0
 24 26  1  0  0  0  0
 25 26  2  0  0  0  0
 23 25  1  0  0  0  0
 21 22  1  0  0  0  0
 22 23  1  0  0  0  0
  1  3  1  0  0  0  0
  1  7  1  0  0  0  0
  1  2  2  0  0  0  0
 35 36  1  0  0  0  0
 36 44  1  0  0  0  0
 36 37  2  0  0  0  0
  8  9  1  0  0  0  0
  9 17  1  0  0  0  0
  9 10  2  0  0  0  0
 18 19  1  0  0  0  0
 19 34  1  0  0  0  0
 19 20  2  0  0  0  0
 35 38  1  0  0  0  0
  8 11  1  0  0  0  0
 44 45  1  0  0  0  0
 18 21  1  0  0  0  0
 34 35  1  0  0  0  0
  7  8  1  0  0  0  0
 17 18  1  0  0  0  0
 24 32  1  0  0  0  0
 25 33  1  0  0  0  0
  3  4  1  0  0  0  0
  3  5  1  0  0  0  0
  3  6  1  0  0  0  0
 38 41  1  0  0  0  0
 38 42  1  0  0  0  0
 38 43  1  0  0  0  0
 11 14  1  0  0  0  0
 11 15  1  0  0  0  0
 11 16  1  0  0  0  0
 45 47  1  0  0  0  0
 45 48  1  0  0  0  0
 45 49  1  0  0  0  0
 21 29  1  0  0  0  0
 21 30  1  0  0  0  0
 35 40  1  0  0  0  0
  8 13  1  0  0  0  0
 18 28  1  0  0  0  0
 23 31  1  0  0  0  0
 44 46  1  0  0  0  0
  7 12  1  0  0  0  0
 34 39  1  0  0  0  0
 17 27  1  0  0  0  0
M  END
$$$$

  -OEChem-05262214473D

 49 49  0     1  0  0  0  0  0999 V2000
   -1.5619    0.5658    3.7981 C   0  0  0  0  0  0  0  0  0  0  0  0
   -0.6145   -0.0489    3.3224 O   0  0  0  0  0  0  0  0  0  0  0  0
   -1.9938    0.2834    5.1988 C   0  0  0  0  0  0  0  0  0  0  0  0
   -2.7535   -0.5129    5.2522 H   0  0  0  0  0  0  0  0  0  0  0  0
   -1.1626   -0.0642    5.8331 H   0  0  0  0  0  0  0  0  0  0  0  0
   -2.4318    1.1383    5.7384 H   0  0  0  0  0  0  0  0  0  0  0  0
   -2.3116    1.5383    3.1570 N   0  0  0  0  0  0  0  0  0  0  0  0
   -2.0648    1.9643    1.8046 C   0  0  2  0  0  0  0  0  0  0  0  0
   -0.7298    1.3789    1.3634 C   0  0  0  0  0  0  0  0  0  0  0  0
    0.1423    1.0262    2.1547 O   0  0  0  0  0  0  0  0  0  0  0  0
   -2.0560    3.4811    1.6952 C   0  0  0  0  0  0  0  0  0  0  0  0
   -3.0767    1.9741    3.6688 H   0  0  0  0  0  0  0  0  0  0  0  0
   -2.8689    1.5458    1.1895 H   0  0  0  0  0  0  0  0  0  0  0  0
   -1.2569    3.9183    2.3049 H   0  0  0  0  0  0  0  0  0  0  0  0
   -1.8965    3.8033    0.6609 H   0  0  0  0  0  0  0  0  0  0  0  0
   -3.0062    3.9023    2.0409 H   0  0  0  0  0  0  0  0  0  0  0  0
   -0.6071    1.3358   -0.0200 N   0  0  0  0  0  0  0  0  0  0  0  0
    0.5702    0.8350   -0.6836 C   0  0  2  0  0  0  0  0  0  0  0  0
    0.9113    1.8169   -1.7989 C   0  0  0  0  0  0  0  0  0  0  0  0
    1.9825    1.7993   -2.4014 O   0  0  0  0  0  0  0  0  0  0  0  0
    0.3575   -0.5705   -1.2577 C   0  0  0  0  0  0  0  0  0  0  0  0
    0.0984   -1.6043   -0.1891 C   0  0  0  0  0  0  0  0  0  0  0  0
    1.0850   -2.0959    0.6184 N   0  0  0  0  0  0  0  0  0  0  0  0
   -1.0443   -2.2526    0.2165 C   0  0  0  0  0  0  0  0  0  0  0  0
    0.5091   -3.0043    1.4625 C   0  0  0  0  0  0  0  0  0  0  0  0
   -0.7819   -3.1225    1.2451 N   0  0  0  0  0  0  0  0  0  0  0  0
   -1.3903    1.6325   -0.5973 H   0  0  0  0  0  0  0  0  0  0  0  0
    1.3754    0.8431    0.0603 H   0  0  0  0  0  0  0  0  0  0  0  0
    1.2259   -0.8710   -1.8595 H   0  0  0  0  0  0  0  0  0  0  0  0
   -0.4912   -0.5759   -1.9543 H   0  0  0  0  0  0  0  0  0  0  0  0
    2.0630   -1.8381    0.5973 H   0  0  0  0  0  0  0  0  0  0  0  0
   -2.0439   -2.1388   -0.1782 H   0  0  0  0  0  0  0  0  0  0  0  0
    1.0816   -3.5405    2.2060 H   0  0  0  0  0  0  0  0  0  0  0  0
   -0.1414    2.6793   -2.0719 N   0  0  0  0  0  0  0  0  0  0  0  0
   -0.0901    3.6938   -3.1000 C   0  0  2  0  0  0  0  0  0  0  0  0
    1.1964    4.4874   -2.9138 C   0  0  0  0  0  0  0  0  0  0  0  0
    1.7997    4.5457   -1.8443 O   0  0  0  0  0  0  0  0  0  0  0  0
   -1.3053    4.6060   -3.0384 C   0  0  0  0  0  0  0  0  0  0  0  0
   -0.9907    2.5931   -1.5214 H   0  0  0  0  0  0  0  0  0  0  0  0
   -0.0602    3.1688   -4.0610 H   0  0  0  0  0  0  0  0  0  0  0  0
   -1.3522    5.1405   -2.0825 H   0  0  0  0  0  0  0  0  0  0  0  0
   -1.2790    5.3562   -3.8356 H   0  0  0  0  0  0  0  0  0  0  0  0
   -2.2309    4.0298   -3.1426 H   0  0  0  0  0  0  0  0  0  0  0  0
    1.5682    5.1577   -4.0707 N   0  0  0  0  0  0  0  0  0  0  0  0
    2.7466    5.9893   -4.1454 C   0  0  0  0  0  0  0  0  0  0  0  0
    1.0190    5.0368   -4.9166 H   0  0  0  0  0  0  0  0  0  0  0  0
    2.4769    7.0302   -3.9133 H   0  0  0  0  0  0  0  0  0  0  0  0
    3.4929    5.6335   -3.4198 H   0  0  0  0  0  0  0  0  0  0  0  0
    3.1681    5.9375   -5.1601 H   0  0  0  0  0  0  0  0  0  0  0  0
 22 24  2  0  0  0  0
 24 26  1  0  0  0  0
 25 26  2  0  0  0  0
 23 25  1  0  0  0  0
 21 22  1  0  0  0  0
 22 23  1  0  0  0  0
  1  3  1  0  0  0  0
  1  7  1  0  0  0  0
  1  2  2  0  0  0  0
 35 36  1  0  0  0  0
 36 44  1  0  0  0  0
 36 37  2  0  0  0  0
  8  9  1  0  0  0  0
  9 17  1  0  0  0  0
  9 10  2  0  0  0  0
 18 19  1  0  0  0  0
 19 34  1  0  0  0  0
 19 20  2  0  0  0  0
 35 38  1  0  0  0  0
  8 11  1  0  0  0  0
 44 45  1  0  0  0  0
 18 21  1  0  0  0  0
 34 35  1  0  0  0  0
  7  8  1  0  0  0  0
 17 18  1  0  0  0  0
 24 32  1  0  0  0  0
 25 33  1  0  0  0  0
  3  4  1  0  0  0  0
  3  5  1  0  0  0  0
  3  6  1  0  0  0  0
 38 41  1  0  0  0  0
 38 42  1  0  0  0  0
 38 43  1  0  0  0  0
 11 14  1  0  0  0  0
 11 15  1  0  0  0  0
 11 16  1  0  0  0  0
 45 47  1  0  0  0  0
 45 48  1  0  0  0  0
 45 49  1  0  0  0  0
 21 29  1  0  0  0  0
 21 30  1  0  0  0  0
 35 40  1  0  0  0  0
  8 13  1  0  0  0  0
 18 28  1  0  0  0  0
 23 31  1  0  0  0  0
 44 46  1  0  0  0  0
  7 12  1  0  0  0  0
 34 39  1  0  0  0  0
 17 27  1  0  0  0  0
M  END
$$$$

  -OEChem-05262214473D

 49 49  0     1  0  0  0  0  0999 V2000
   -1.5619    0.5658    3.7981 C   0  0  0  0  0  0  0  0  0  0  0  0
   -0.6145   -0.0489    3.3224 O   0  0  0  0  0  0  0  0  0  0  0  0
   -1.9938    0.2834    5.1988 C   0  0  0  0  0  0  0  0  0  0  0  0
   -2.7535   -0.5129    5.2522 H   0  0  0  0  0  0  0  0  0  0  0  0
   -1.1626   -0.0642    5.8331 H   0  0  0  0  0  0  0  0  0  0  0  0
   -2.4318    1.1383    5.7384 H   0  0  0  0  0  0  0  0  0  0  0  0
   -2.3116    1.5383    3.1570 N   0  0  0  0  0  0  0  0  0  0  0  0
   -2.0648    1.9643    1.8046 C   0  0  2  0  0  0  0  0  0  0  0  0
   -0.7298    1.3789    1.3634 C   0  0  0  0  0  0  0  0  0  0  0  0
    0.1423    1.0262    2.1547 O   0  0  0  0  0  0  0  0  0  0  0  0
   -2.0560    3.4811    1.6952 C   0  0  0  0  0  0  0  0  0  0  0  0
   -3.0767    1.9741    3.6688 H   0  0  0  0  0  0  0  0  0  0  0  0
   -2.8689    1.5458    1.1895 H   0  0  0  0  0  0  0  0  0  0  0  0
   -1.2569    3.9183    2.3049 H   0  0  0  0  0  0  0  0  0  0  0  0
   -1.8965    3.8033    0.6609 H   0  0  0  0  0  0  0  0  0  0  0  0
   -3.0062    3.9023    2.0409 H   0  0  0  0  0  0  0  0  0  0  0  0
   -0.6071    1.3358   -0.0200 N   0  0  0  0  0  0  0  0  0  0  0  0
    0.5702    0.8350   -0.6836 C   0  0  2  0  0  0  0  0  0  0  0  0
    0.9113    1.8169   -1.7989 C   0  0  0  0  0  0  0  0  0  0  0  0
    1.8473    1.6467   -2.5771 O   0  0  0  0  0  0  0  0  0  0  0  0
    0.3575   -0.5705   -1.2577 C   0  0  0  0  0  0  0  0  0  0  0  0
    0.0984   -1.6043   -0.1891 C   0  0  0  0  0  0  0  0  0  0  0  0
    1.0850   -2.0959    0.6184 N   0  0  0  0  0  0  0  0  0  0  0  0
   -1.0443   -2.2526    0.2165 C   0  0  0  0  0  0  0  0  0  0  0  0
    0.5091   -3.0043    1.4625 C   0  0  0  0  0  0  0  0  0  0  0  0
   -0.7819   -3.1225    1.2451 N   0  0  0  0  0  0  0  0  0  0  0  0
   -1.3903    1.6325   -0.5973 H   0  0  0  0  0  0  0  0  0  0  0  0
    1.3754    0.8431    0.0603 H   0  0  0  0  0  0  0  0  0  0  0  0
    1.2259   -0.8710   -1.8595 H   0  0  0  0  0  0  0  0  0  0  0  0
   -0.4912   -0.5759   -1.9543 H   0  0  0  0  0  0  0  0  0  0  0  0
    2.0630   -1.8381    0.5973 H   0  0  0  0  0  0  0  0  0  0  0  0
   -2.0439   -2.1388   -0.1782 H   0  0  0  0  0  0  0  0  0  0  0  0
    1.0816   -3.5405    2.2060 H   0  0  0  0  0  0  0  0  0  0  0  0
    0.0161    2.8764   -1.8501 N   0  0  0  0  0  0  0  0  0  0  0  0
    0.0972    3.9372   -2.8283 C   0  0  2  0  0  0  0  0  0  0  0  0
    1.5262    4.4640   -2.8334 C   0  0  0  0  0  0  0  0  0  0  0  0
    2.2937    4.3308   -1.8824 O   0  0  0  0  0  0  0  0  0  0  0  0
   -0.8915    5.0509   -2.5201 C   0  0  0  0  0  0  0  0  0  0  0  0
   -0.7337    2.9078   -1.1656 H   0  0  0  0  0  0  0  0  0  0  0  0
   -0.1306    3.4884   -3.8012 H   0  0  0  0  0  0  0  0  0  0  0  0
   -0.6790    5.5127   -1.5490 H   0  0  0  0  0  0  0  0  0  0  0  0
   -0.8488    5.8402   -3.2778 H   0  0  0  0  0  0  0  0  0  0  0  0
   -1.9159    4.6645   -2.4874 H   0  0  0  0  0  0  0  0  0  0  0  0
    1.8298    5.1380   -4.0081 N   0  0  0  0  0  0  0  0  0  0  0  0
    3.1196    5.7412   -4.2498 C   0  0  0  0  0  0  0  0  0  0  0  0
    1.1386    5.1834   -4.7510 H   0  0  0  0  0  0  0  0  0  0  0  0
    3.0982    6.7939   -3.9313 H   0  0  0  0  0  0  0  0  0  0  0  0
    3.8895    5.2012   -3.6791 H   0  0  0  0  0  0  0  0  0  0  0  0
    3.3539    5.6877   -5.3232 H   0  0  0  0  0  0  0  0  0  0  0  0
 22 24  2  0  0  0  0
 24 26  1  0  0  0  0
 25 26  2  0  0  0  0
 23 25  1  0  0  0  0
 21 22  1  0  0  0  0
 22 23  1  0  0  0  0
  1  3  1  0  0  0  0
  1  7  1  0  0  0  0
  1  2  2  0  0  0  0
 35 36  1  0  0  0  0
 36 44  1  0  0  0  0
 36 37  2  0  0  0  0
  8  9  1  0  0  0  0
  9 17  1  0  0  0  0
  9 10  2  0  0  0  0
 18 19  1  0  0  0  0
 19 34  1  0  0  0  0
 19 20  2  0  0  0  0
 35 38  1  0  0  0  0
  8 11  1  0  0  0  0
 44 45  1  0  0  0  0
 18 21  1  0  0  0  0
 34 35  1  0  0  0  0
  7  8  1  0  0  0  0
 17 18  1  0  0  0  0
 24 32  1  0  0  0  0
 25 33  1  0  0  0  0
  3  4  1  0  0  0  0
  3  5  1  0  0  0  0
  3  6  1  0  0  0  0
 38 41  1  0  0  0  0
 38 42  1  0  0  0  0
 38 43  1  0  0  0  0
 11 14  1  0  0  0  0
 11 15  1  0  0  0  0
 11 16  1  0  0  0  0
 45 47  1  0  0  0  0
 45 48  1  0  0  0  0
 45 49  1  0  0  0  0
 21 29  1  0  0  0  0
 21 30  1  0  0  0  0
 35 40  1  0  0  0  0
  8 13  1  0  0  0  0
 18 28  1  0  0  0  0
 23 31  1  0  0  0  0
 44 46  1  0  0  0  0
  7 12  1  0  0  0  0
 34 39  1  0  0  0  0
 17 27  1  0  0  0  0
M  END
$$$$

  -OEChem-05262214473D

 49 49  0     1  0  0  0  0  0999 V2000
   -1.5619    0.5658    3.7981 C   0  0  0  0  0  0  0  0  0  0  0  0
   -0.6145   -0.0489    3.3224 O   0  0  0  0  0  0  0  0  0  0  0  0
   -1.9938    0.2834    5.1988 C   0  0  0  0  0  0  0  0  0  0  0  0
   -2.7535   -0.5129    5.2522 H   0  0  0  0  0  0  0  0  0  0  0  0
   -1.1626   -0.0642    5.8331 H   0  0  0  0  0  0  0  0  0  0  0  0
   -2.4318    1.1383    5.7384 H   0  0  0  0  0  0  0  0  0  0  0  0
   -2.3116    1.5383    3.1570 N   0  0  0  0  0  0  0  0  0  0  0  0
   -2.0648    1.9643    1.8046 C   0  0  2  0  0  0  0  0  0  0  0  0
   -0.7298    1.3789    1.3634 C   0  0  0  0  0  0  0  0  0  0  0  0
    0.1423    1.0262    2.1547 O   0  0  0  0  0  0  0  0  0  0  0  0
   -2.0560    3.4811    1.6952 C   0  0  0  0  0  0  0  0  0  0  0  0
   -3.0767    1.9741    3.6688 H   0  0  0  0  0  0  0  0  0  0  0  0
   -2.8689    1.5458    1.1895 H   0  0  0  0  0  0  0  0  0  0  0  0
   -1.2569    3.9183    2.3049 H   0  0  0  0  0  0  0  0  0  0  0  0
   -1.8965    3.8033    0.6609 H   0  0  0  0  0  0  0  0  0  0  0  0
   -3.0062    3.9023    2.0409 H   0  0  0  0  0  0  0  0  0  0  0  0
   -0.6071    1.3358   -0.0200 N   0  0  0  0  0  0  0  0  0  0  0  0
    0.5702    0.8350   -0.6836 C   0  0  2  0  0  0  0  0  0  0  0  0
    0.9113    1.8169   -1.7989 C   0  0  0  0  0  0  0  0  0  0  0  0
    1.6586    1.5350   -2.7332 O   0  0  0  0  0  0  0  0  0  0  0  0
    0.3575   -0.5705   -1.2577 C   0  0  0  0  0  0  0  0  0  0  0  0
    0.0984   -1.6043   -0.1891 C   0  0  0  0  0  0  0  0  0  0  0  0
    1.0850   -2.0959    0.6184 N   0  0  0  0  0  0  0  0  0  0  0  0
   -1.0443   -2.2526    0.2165 C   0  0  0  0  0  0  0  0  0  0  0  0
    0.5091   -3.0043    1.4625 C   0  0  0  0  0  0  0  0  0  0  0  0
   -0.7819   -3.1225    1.2451 N   0  0  0  0  0  0  0  0  0  0  0  0
   -1.3903    1.6325   -0.5973 H   0  0  0  0  0  0  0  0  0  0  0  0
    1.3754    0.8431    0.0603 H   0  0  0  0  0  0  0  0  0  0  0  0
    1.2259   -0.8710   -1.8595 H   0  0  0  0  0  0  0  0  0  0  0  0
   -0.4912   -0.5759   -1.9543 H   0  0  0  0  0  0  0  0  0  0  0  0
    2.0630   -1.8381    0.5973 H   0  0  0  0  0  0  0  0  0  0  0  0
   -2.0439   -2.1388   -0.1782 H   0  0  0  0  0  0  0  0  0  0  0  0
    1.0816   -3.5405    2.2060 H   0  0  0  0  0  0  0  0  0  0  0  0
    0.2427    3.0242   -1.6507 N   0  0  0  0  0  0  0  0  0  0  0  0
    0.3696    4.1212   -2.5830 C   0  0  2  0  0  0  0  0  0  0  0  0
    1.8538    4.3743   -2.8122 C   0  0  0  0  0  0  0  0  0  0  0  0
    2.7237    4.0319   -2.0140 O   0  0  0  0  0  0  0  0  0  0  0  0
   -0.3212    5.3722   -2.0628 C   0  0  0  0  0  0  0  0  0  0  0  0
   -0.3665    3.1426   -0.8466 H   0  0  0  0  0  0  0  0  0  0  0  0
   -0.0949    3.7953   -3.5201 H   0  0  0  0  0  0  0  0  0  0  0  0
    0.1306    5.7138   -1.1243 H   0  0  0  0  0  0  0  0  0  0  0  0
   -0.2487    6.1940   -2.7828 H   0  0  0  0  0  0  0  0  0  0  0  0
   -1.3822    5.1801   -1.8703 H   0  0  0  0  0  0  0  0  0  0  0  0
    2.0892    5.0658   -3.9923 N   0  0  0  0  0  0  0  0  0  0  0  0
    3.4155    5.4370   -4.4271 C   0  0  0  0  0  0  0  0  0  0  0  0
    1.3095    5.2927   -4.6025 H   0  0  0  0  0  0  0  0  0  0  0  0
    3.6505    6.4491   -4.0659 H   0  0  0  0  0  0  0  0  0  0  0  0
    4.1475    4.7236   -4.0207 H   0  0  0  0  0  0  0  0  0  0  0  0
    3.4588    5.4208   -5.5262 H   0  0  0  0  0  0  0  0  0  0  0  0
 22 24  2  0  0  0  0
 24 26  1  0  0  0  0
 25 26  2  0  0  0  0
 23 25  1  0  0  0  0
 21 22  1  0  0  0  0
 22 23  1  0  0  0  0
  1  3  1  0  0  0  0
  1  7  1  0  0  0  0
  1  2  2  0  0  0  0
 35 36  1  0  0  0  0
 36 44  1  0  0  0  0
 36 37  2  0  0  0  0
  8  9  1  0  0  0  0
  9 17  1  0  0  0  0
  9 10  2  0  0  0  0
 18 19  1  0  0  0  0
 19 34  1  0  0  0  0
 19 20  2  0  0  0  0
 35 38  1  0  0  0  0
  8 11  1  0  0  0  0
 44 45  1  0  0  0  0
 18 21  1  0  0  0  0
 34 35  1  0  0  0  0
  7  8  1  0  0  0  0
 17 18  1  0  0  0  0
 24 32  1  0  0  0  0
 25 33  1  0  0  0  0
  3  4  1  0  0  0  0
  3  5  1  0  0  0  0
  3  6  1  0  0  0  0
 38 41  1  0  0  0  0
 38 42  1  0  0  0  0
 38 43  1  0  0  0  0
 11 14  1  0  0  0  0
 11 15  1  0  0  0  0
 11 16  1  0  0  0  0
 45 47  1  0  0  0  0
 45 48  1  0  0  0  0
 45 49  1  0  0  0  0
 21 29  1  0  0  0  0
 21 30  1  0  0  0  0
 35 40  1  0  0  0  0
  8 13  1  0  0  0  0
 18 28  1  0  0  0  0
 23 31  1  0  0  0  0
 44 46  1  0  0  0  0
  7 12  1  0  0  0  0
 34 39  1  0  0  0  0
 17 27  1  0  0  0  0
M  END
$$$$

  -OEChem-05262214473D

 49 49  0     1  0  0  0  0  0999 V2000
   -1.5619    0.5658    3.7981 C   0  0  0  0  0  0  0  0  0  0  0  0
   -0.6145   -0.0489    3.3224 O   0  0  0  0  0  0  0  0  0  0  0  0
   -1.9938    0.2834    5.1988 C   0  0  0  0  0  0  0  0  0  0  0  0
   -2.7535   -0.5129    5.2522 H   0  0  0  0  0  0  0  0  0  0  0  0
   -1.1626   -0.0642    5.8331 H   0  0  0  0  0  0  0  0  0  0  0  0
   -2.4318    1.1383    5.7384 H   0  0  0  0  0  0  0  0  0  0  0  0
   -2.3116    1.5383    3.1570 N   0  0  0  0  0  0  0  0  0  0  0  0
   -2.0648    1.9643    1.8046 C   0  0  2  0  0  0  0  0  0  0  0  0
   -0.7298    1.3789    1.3634 C   0  0  0  0  0  0  0  0  0  0  0  0
    0.1423    1.0262    2.1547 O   0  0  0  0  0  0  0  0  0  0  0  0
   -2.0560    3.4811    1.6952 C   0  0  0  0  0  0  0  0  0  0  0  0
   -3.0767    1.9741    3.6688 H   0  0  0  0  0  0  0  0  0  0  0  0
   -2.8689    1.5458    1.1895 H   0  0  0  0  0  0  0  0  0  0  0  0
   -1.2569    3.9183    2.3049 H   0  0  0  0  0  0  0  0  0  0  0  0
   -1.8965    3.8033    0.6609 H   0  0  0  0  0  0  0  0  0  0  0  0
   -3.0062    3.9023    2.0409 H   0  0  0  0  0  0  0  0  0  0  0  0
   -0.6071    1.3358   -0.0200 N   0  0  0  0  0  0  0  0  0  0  0  0
    0.5702    0.8350   -0.6836 C   0  0  2  0  0  0  0  0  0  0  0  0
    0.9113    1.8169   -1.7989 C   0  0  0  0  0  0  0  0  0  0  0  0
    1.4291    1.4719   -2.8589 O   0  0  0  0  0  0  0  0  0  0  0  0
    0.3575   -0.5705   -1.2577 C   0  0  0  0  0  0  0  0  0  0  0  0
    0.0984   -1.6043   -0.1891 C   0  0  0  0  0  0  0  0  0  0  0  0
    1.0850   -2.0959    0.6184 N   0  0  0  0  0  0  0  0  0  0  0  0
   -1.0443   -2.2526    0.2165 C   0  0  0  0  0  0  0  0  0  0  0  0
    0.5091   -3.0043    1.4625 C   0  0  0  0  0  0  0  0  0  0  0  0
   -0.7819   -3.1225    1.2451 N   0  0  0  0  0  0  0  0  0  0  0  0
   -1.3903    1.6325   -0.5973 H   0  0  0  0  0  0  0  0  0  0  0  0
    1.3754    0.8431    0.0603 H   0  0  0  0  0  0  0  0  0  0  0  0
    1.2259   -0.8710   -1.8595 H   0  0  0  0  0  0  0  0  0  0  0  0
   -0.4912   -0.5759   -1.9543 H   0  0  0  0  0  0  0  0  0  0  0  0
    2.0630   -1.8381    0.5973 H   0  0  0  0  0  0  0  0  0  0  0  0
   -2.0439   -2.1388   -0.1782 H   0  0  0  0  0  0  0  0  0  0  0  0
    1.0816   -3.5405    2.2060 H   0  0  0  0  0  0  0  0  0  0  0  0
    0.5227    3.1125   -1.4873 N   0  0  0  0  0  0  0  0  0  0  0  0
    0.7084    4.2332   -2.3808 C   0  0  2  0  0  0  0  0  0  0  0  0
    2.1568    4.2245   -2.8515 C   0  0  0  0  0  0  0  0  0  0  0  0
    3.0606    3.6694   -2.2302 O   0  0  0  0  0  0  0  0  0  0  0  0
    0.3668    5.5481   -1.6974 C   0  0  0  0  0  0  0  0  0  0  0  0
    0.0858    3.2814   -0.5860 H   0  0  0  0  0  0  0  0  0  0  0  0
    0.0446    4.0687   -3.2366 H   0  0  0  0  0  0  0  0  0  0  0  0
    1.0215    5.7302   -0.8374 H   0  0  0  0  0  0  0  0  0  0  0  0
    0.4806    6.3934   -2.3841 H   0  0  0  0  0  0  0  0  0  0  0  0
   -0.6662    5.5412   -1.3332 H   0  0  0  0  0  0  0  0  0  0  0  0
    2.3287    4.9460   -4.0245 N   0  0  0  0  0  0  0  0  0  0  0  0
    3.6141    5.0974   -4.6654 C   0  0  0  0  0  0  0  0  0  0  0  0
    1.5200    5.3573   -4.4812 H   0  0  0  0  0  0  0  0  0  0  0  0
    4.0963    6.0192   -4.3080 H   0  0  0  0  0  0  0  0  0  0  0  0
    4.2494    4.2332   -4.4214 H   0  0  0  0  0  0  0  0  0  0  0  0
    3.4758    5.1548   -5.7551 H   0  0  0  0  0  0  0  0  0  0  0  0
 22 24  2  0  0  0  0
 24 26  1  0  0  0  0
 25 26  2  0  0  0  0
 23 25  1  0  0  0  0
 21 22  1  0  0  0  0
 22 23  1  0  0  0  0
  1  3  1  0  0  0  0
  1  7  1  0  0  0  0
  1  2  2  0  0  0  0
 35 36  1  0  0  0  0
 36 44  1  0  0  0  0
 36 37  2  0  0  0  0
  8  9  1  0  0  0  0
  9 17  1  0  0  0  0
  9 10  2  0  0  0  0
 18 19  1  0  0  0  0
 19 34  1  0  0  0  0
 19 20  2  0  0  0  0
 35 38  1  0  0  0  0
  8 11  1  0  0  0  0
 44 45  1  0  0  0  0
 18 21  1  0  0  0  0
 34 35  1  0  0  0  0
  7  8  1  0  0  0  0
 17 18  1  0  0  0  0
 24 32  1  0  0  0  0
 25 33  1  0  0  0  0
  3  4  1  0  0  0  0
  3  5  1  0  0  0  0
  3  6  1  0  0  0  0
 38 41  1  0  0  0  0
 38 42  1  0  0  0  0
 38 43  1  0  0  0  0
 11 14  1  0  0  0  0
 11 15  1  0  0  0  0
 11 16  1  0  0  0  0
 45 47  1  0  0  0  0
 45 48  1  0  0  0  0
 45 49  1  0  0  0  0
 21 29  1  0  0  0  0
 21 30  1  0  0  0  0
 35 40  1  0  0  0  0
  8 13  1  0  0  0  0
 18 28  1  0  0  0  0
 23 31  1  0  0  0  0
 44 46  1  0  0  0  0
  7 12  1  0  0  0  0
 34 39  1  0  0  0  0
 17 27  1  0  0  0  0
M  END
$$$$

  -OEChem-05262214473D

 49 49  0     1  0  0  0  0  0999 V2000
   -1.5619    0.5658    3.7981 C   0  0  0  0  0  0  0  0  0  0  0  0
   -0.6145   -0.0489    3.3224 O   0  0  0  0  0  0  0  0  0  0  0  0
   -1.9938    0.2834    5.1988 C   0  0  0  0  0  0  0  0  0  0  0  0
   -2.7535   -0.5129    5.2522 H   0  0  0  0  0  0  0  0  0  0  0  0
   -1.1626   -0.0642    5.8331 H   0  0  0  0  0  0  0  0  0  0  0  0
   -2.4318    1.1383    5.7384 H   0  0  0  0  0  0  0  0  0  0  0  0
   -2.3116    1.5383    3.1570 N   0  0  0  0  0  0  0  0  0  0  0  0
   -2.0648    1.9643    1.8046 C   0  0  2  0  0  0  0  0  0  0  0  0
   -0.7298    1.3789    1.3634 C   0  0  0  0  0  0  0  0  0  0  0  0
    0.1423    1.0262    2.1547 O   0  0  0  0  0  0  0  0  0  0  0  0
   -2.0560    3.4811    1.6952 C   0  0  0  0  0  0  0  0  0  0  0  0
   -3.0767    1.9741    3.6688 H   0  0  0  0  0  0  0  0  0  0  0  0
   -2.8689    1.5458    1.1895 H   0  0  0  0  0  0  0  0  0  0  0  0
   -1.2569    3.9183    2.3049 H   0  0  0  0  0  0  0  0  0  0  0  0
   -1.8965    3.8033    0.6609 H   0  0  0  0  0  0  0  0  0  0  0  0
   -3.0062    3.9023    2.0409 H   0  0  0  0  0  0  0  0  0  0  0  0
   -0.6071    1.3358   -0.0200 N   0  0  0  0  0  0  0  0  0  0  0  0
    0.5702    0.8350   -0.6836 C   0  0  2  0  0  0  0  0  0  0  0  0
    0.9113    1.8169   -1.7989 C   0  0  0  0  0  0  0  0  0  0  0  0
    1.1745    1.4617   -2.9458 O   0  0  0  0  0  0  0  0  0  0  0  0
    0.3575   -0.5705   -1.2577 C   0  0  0  0  0  0  0  0  0  0  0  0
    0.0984   -1.6043   -0.1891 C   0  0  0  0  0  0  0  0  0  0  0  0
    1.0850   -2.0959    0.6184 N   0  0  0  0  0  0  0  0  0  0  0  0
   -1.0443   -2.2526    0.2165 C   0  0  0  0  0  0  0  0  0  0  0  0
    0.5091   -3.0043    1.4625 C   0  0  0  0  0  0  0  0  0  0  0  0
   -0.7819   -3.1225    1.2451 N   0  0  0  0  0  0  0  0  0  0  0  0
   -1.3903    1.6325   -0.5973 H   0  0  0  0  0  0  0  0  0  0  0  0
    1.3754    0.8431    0.0603 H   0  0  0  0  0  0  0  0  0  0  0  0
    1.2259   -0.8710   -1.8595 H   0  0  0  0  0  0  0  0  0  0  0  0
   -0.4912   -0.5759   -1.9543 H   0  0  0  0  0  0  0  0  0  0  0  0
    2.0630   -1.8381    0.5973 H   0  0  0  0  0  0  0  0  0  0  0  0
   -2.0439   -2.1388   -0.1782 H   0  0  0  0  0  0  0  0  0  0  0  0
    1.0816   -3.5405    2.2060 H   0  0  0  0  0  0  0  0  0  0  0  0
    0.8371    3.1352   -1.3711 N   0  0  0  0  0  0  0  0  0  0  0  0
    1.0905    4.2655   -2.2355 C   0  0  2  0  0  0  0  0  0  0  0  0
    2.4145    4.0246   -2.9486 C   0  0  0  0  0  0  0  0  0  0  0  0
    3.2814    3.2680   -2.5161 O   0  0  0  0  0  0  0  0  0  0  0  0
    1.1255    5.5666   -1.4491 C   0  0  0  0  0  0  0  0  0  0  0  0
    0.5924    3.3147   -0.4017 H   0  0  0  0  0  0  0  0  0  0  0  0
    0.2784    4.2900   -2.9703 H   0  0  0  0  0  0  0  0  0  0  0  0
    1.9329    5.5607   -0.7078 H   0  0  0  0  0  0  0  0  0  0  0  0
    1.2891    6.4249   -2.1091 H   0  0  0  0  0  0  0  0  0  0  0  0
    0.1833    5.7235   -0.9130 H   0  0  0  0  0  0  0  0  0  0  0  0
    2.5320    4.7869   -4.1024 N   0  0  0  0  0  0  0  0  0  0  0  0
    3.7020    4.7456   -4.9483 C   0  0  0  0  0  0  0  0  0  0  0  0
    1.7558    5.3729   -4.3954 H   0  0  0  0  0  0  0  0  0  0  0  0
    4.4052    5.5337   -4.6411 H   0  0  0  0  0  0  0  0  0  0  0  0
    4.1881    3.7633   -4.8538 H   0  0  0  0  0  0  0  0  0  0  0  0
    3.4037    4.9079   -5.9946 H   0  0  0  0  0  0  0  0  0  0  0  0
 22 24  2  0  0  0  0
 24 26  1  0  0  0  0
 25 26  2  0  0  0  0
 23 25  1  0  0  0  0
 21 22  1  0  0  0  0
 22 23  1  0  0  0  0
  1  3  1  0  0  0  0
  1  7  1  0  0  0  0
  1  2  2  0  0  0  0
 35 36  1  0  0  0  0
 36 44  1  0  0  0  0
 36 37  2  0  0  0  0
  8  9  1  0  0  0  0
  9 17  1  0  0  0  0
  9 10  2  0  0  0  0
 18 19  1  0  0  0  0
 19 34  1  0  0  0  0
 19 20  2  0  0  0  0
 35 38  1  0  0  0  0
  8 11  1  0  0  0  0
 44 45  1  0  0  0  0
 18 21  1  0  0  0  0
 34 35  1  0  0  0  0
  7  8  1  0  0  0  0
 17 18  1  0  0  0  0
 24 32  1  0  0  0  0
 25 33  1  0  0  0  0
  3  4  1  0  0  0  0
  3  5  1  0  0  0  0
  3  6  1  0  0  0  0
 38 41  1  0  0  0  0
 38 42  1  0  0  0  0
 38 43  1  0  0  0  0
 11 14  1  0  0  0  0
 11 15  1  0  0  0  0
 11 16  1  0  0  0  0
 45 47  1  0  0  0  0
 45 48  1  0  0  0  0
 45 49  1  0  0  0  0
 21 29  1  0  0  0  0
 21 30  1  0  0  0  0
 35 40  1  0  0  0  0
  8 13  1  0  0  0  0
 18 28  1  0  0  0  0
 23 31  1  0  0  0  0
 44 46  1  0  0  0  0
  7 12  1  0  0  0  0
 34 39  1  0  0  0  0
 17 27  1  0  0  0  0
M  END
$$$$

  -OEChem-05262214473D

 49 49  0     1  0  0  0  0  0999 V2000
   -1.5619    0.5658    3.7981 C   0  0  0  0  0  0  0  0  0  0  0  0
   -0.6145   -0.0489    3.3224 O   0  0  0  0  0  0  0  0  0  0  0  0
   -1.9938    0.2834    5.1988 C   0  0  0  0  0  0  0  0  0  0  0  0
   -2.7535   -0.5129    5.2522 H   0  0  0  0  0  0  0  0  0  0  0  0
   -1.1626   -0.0642    5.8331 H   0  0  0  0  0  0  0  0  0  0  0  0
   -2.4318    1.1383    5.7384 H   0  0  0  0  0  0  0  0  0  0  0  0
   -2.3116    1.5383    3.1570 N   0  0  0  0  0  0  0  0  0  0  0  0
   -2.0648    1.9643    1.8046 C   0  0  2  0  0  0  0  0  0  0  0  0
   -0.7298    1.3789    1.3634 C   0  0  0  0  0  0  0  0  0  0  0  0
    0.1423    1.0262    2.1547 O   0  0  0  0  0  0  0  0  0  0  0  0
   -2.0560    3.4811    1.6952 C   0  0  0  0  0  0  0  0  0  0  0  0
   -3.0767    1.9741    3.6688 H   0  0  0  0  0  0  0  0  0  0  0  0
   -2.8689    1.5458    1.1895 H   0  0  0  0  0  0  0  0  0  0  0  0
   -1.2569    3.9183    2.3049 H   0  0  0  0  0  0  0  0  0  0  0  0
   -1.8965    3.8033    0.6609 H   0  0  0  0  0  0  0  0  0  0  0  0
   -3.0062    3.9023    2.0409 H   0  0  0  0  0  0  0  0  0  0  0  0
   -0.6071    1.3358   -0.0200 N   0  0  0  0  0  0  0  0  0  0  0  0
    0.5702    0.8350   -0.6836 C   0  0  2  0  0  0  0  0  0  0  0  0
    0.9113    1.8169   -1.7989 C   0  0  0  0  0  0  0  0  0  0  0  0
    0.9122    1.5051   -2.9878 O   0  0  0  0  0  0  0  0  0  0  0  0
    0.3575   -0.5705   -1.2577 C   0  0  0  0  0  0  0  0  0  0  0  0
    0.0984   -1.6043   -0.1891 C   0  0  0  0  0  0  0  0  0  0  0  0
    1.0850   -2.0959    0.6184 N   0  0  0  0  0  0  0  0  0  0  0  0
   -1.0443   -2.2526    0.2165 C   0  0  0  0  0  0  0  0  0  0  0  0
    0.5091   -3.0043    1.4625 C   0  0  0  0  0  0  0  0  0  0  0  0
   -0.7819   -3.1225    1.2451 N   0  0  0  0  0  0  0  0  0  0  0  0
   -1.3903    1.6325   -0.5973 H   0  0  0  0  0  0  0  0  0  0  0  0
    1.3754    0.8431    0.0603 H   0  0  0  0  0  0  0  0  0  0  0  0
    1.2259   -0.8710   -1.8595 H   0  0  0  0  0  0  0  0  0  0  0  0
   -0.4912   -0.5759   -1.9543 H   0  0  0  0  0  0  0  0  0  0  0  0
    2.0630   -1.8381    0.5973 H   0  0  0  0  0  0  0  0  0  0  0  0
   -2.0439   -2.1388   -0.1782 H   0  0  0  0  0  0  0  0  0  0  0  0
    1.0816   -3.5405    2.2060 H   0  0  0  0  0  0  0  0  0  0  0  0
    1.1645    3.0910   -1.3099 N   0  0  0  0  0  0  0  0  0  0  0  0
    1.4900    4.2159   -2.1570 C   0  0  2  0  0  0  0  0  0  0  0  0
    2.6094    3.7884   -3.0969 C   0  0  0  0  0  0  0  0  0  0  0  0
    3.3710    2.8550   -2.8523 O   0  0  0  0  0  0  0  0  0  0  0  0
    1.9033    5.4265   -1.3346 C   0  0  0  0  0  0  0  0  0  0  0  0
    1.1187    3.2403   -0.3062 H   0  0  0  0  0  0  0  0  0  0  0  0
    0.5905    4.4440   -2.7392 H   0  0  0  0  0  0  0  0  0  0  0  0
    2.8028    5.2169   -0.7444 H   0  0  0  0  0  0  0  0  0  0  0  0
    2.1220    6.2863   -1.9764 H   0  0  0  0  0  0  0  0  0  0  0  0
    1.1084    5.7143   -0.6381 H   0  0  0  0  0  0  0  0  0  0  0  0
    2.6853    4.5991   -4.2208 N   0  0  0  0  0  0  0  0  0  0  0  0
    3.6731    4.4055   -5.2566 C   0  0  0  0  0  0  0  0  0  0  0  0
    2.0008    5.3383   -4.3509 H   0  0  0  0  0  0  0  0  0  0  0  0
    4.5561    5.0254   -5.0424 H   0  0  0  0  0  0  0  0  0  0  0  0
    3.9679    3.3462   -5.2884 H   0  0  0  0  0  0  0  0  0  0  0  0
    3.2474    4.6970   -6.2281 H   0  0  0  0  0  0  0  0  0  0  0  0
 22 24  2  0  0  0  0
 24 26  1  0  0  0  0
 25 26  2  0  0  0  0
 23 25  1  0  0  0  0
 21 22  1  0  0  0  0
 22 23  1  0  0  0  0
  1  3  1  0  0  0  0
  1  7  1  0  0  0  0
  1  2  2  0  0  0  0
 35 36  1  0  0  0  0
 36 44  1  0  0  0  0
 36 37  2  0  0  0  0
  8  9  1  0  0  0  0
  9 17  1  0  0  0  0
  9 10  2  0  0  0  0
 18 19  1  0  0  0  0
 19 34  1  0  0  0  0
 19 20  2  0  0  0  0
 35 38  1  0  0  0  0
  8 11  1  0  0  0  0
 44 45  1  0  0  0  0
 18 21  1  0  0  0  0
 34 35  1  0  0  0  0
  7  8  1  0  0  0  0
 17 18  1  0  0  0  0
 24 32  1  0  0  0  0
 25 33  1  0  0  0  0
  3  4  1  0  0  0  0
  3  5  1  0  0  0  0
  3  6  1  0  0  0  0
 38 41  1  0  0  0  0
 38 42  1  0  0  0  0
 38 43  1  0  0  0  0
 11 14  1  0  0  0  0
 11 15  1  0  0  0  0
 11 16  1  0  0  0  0
 45 47  1  0  0  0  0
 45 48  1  0  0  0  0
 45 49  1  0  0  0  0
 21 29  1  0  0  0  0
 21 30  1  0  0  0  0
 35 40  1  0  0  0  0
  8 13  1  0  0  0  0
 18 28  1  0  0  0  0
 23 31  1  0  0  0  0
 44 46  1  0  0  0  0
  7 12  1  0  0  0  0
 34 39  1  0  0  0  0
 17 27  1  0  0  0  0
M  END
$$$$

  -OEChem-05262214473D

 49 49  0     1  0  0  0  0  0999 V2000
   -1.5619    0.5658    3.7981 C   0  0  0  0  0  0  0  0  0  0  0  0
   -0.6145   -0.0489    3.3224 O   0  0  0  0  0  0  0  0  0  0  0  0
   -1.9938    0.2834    5.1988 C   0  0  0  0  0  0  0  0  0  0  0  0
   -2.7535   -0.5129    5.2522 H   0  0  0  0  0  0  0  0  0  0  0  0
   -1.1626   -0.0642    5.8331 H   0  0  0  0  0  0  0  0  0  0  0  0
   -2.4318    1.1383    5.7384 H   0  0  0  0  0  0  0  0  0  0  0  0
   -2.3116    1.5383    3.1570 N   0  0  0  0  0  0  0  0  0  0  0  0
   -2.0648    1.9643    1.8046 C   0  0  2  0  0  0  0  0  0  0  0  0
   -0.7298    1.3789    1.3634 C   0  0  0  0  0  0  0  0  0  0  0  0
    0.1423    1.0262    2.1547 O   0  0  0  0  0  0  0  0  0  0  0  0
   -2.0560    3.4811    1.6952 C   0  0  0  0  0  0  0  0  0  0  0  0
   -3.0767    1.9741    3.6688 H   0  0  0  0  0  0  0  0  0  0  0  0
   -2.8689    1.5458    1.1895 H   0  0  0  0  0  0  0  0  0  0  0  0
   -1.2569    3.9183    2.3049 H   0  0  0  0  0  0  0  0  0  0  0  0
   -1.8965    3.8033    0.6609 H   0  0  0  0  0  0  0  0  0  0  0  0
   -3.0062    3.9023    2.0409 H   0  0  0  0  0  0  0  0  0  0  0  0
   -0.6071    1.3358   -0.0200 N   0  0  0  0  0  0  0  0  0  0  0  0
    0.5702    0.8350   -0.6836 C   0  0  2  0  0  0  0  0  0  0  0  0
    0.9113    1.8169   -1.7989 C   0  0  0  0  0  0  0  0  0  0  0  0
    0.6601    1.5991   -2.9822 O   0  0  0  0  0  0  0  0  0  0  0  0
    0.3575   -0.5705   -1.2577 C   0  0  0  0  0  0  0  0  0  0  0  0
    0.0984   -1.6043   -0.1891 C   0  0  0  0  0  0  0  0  0  0  0  0
    1.0850   -2.0959    0.6184 N   0  0  0  0  0  0  0  0  0  0  0  0
   -1.0443   -2.2526    0.2165 C   0  0  0  0  0  0  0  0  0  0  0  0
    0.5091   -3.0043    1.4625 C   0  0  0  0  0  0  0  0  0  0  0  0
   -0.7819   -3.1225    1.2451 N   0  0  0  0  0  0  0  0  0  0  0  0
   -1.3903    1.6325   -0.5973 H   0  0  0  0  0  0  0  0  0  0  0  0
    1.3754    0.8431    0.0603 H   0  0  0  0  0  0  0  0  0  0  0  0
    1.2259   -0.8710   -1.8595 H   0  0  0  0  0  0  0  0  0  0  0  0
   -0.4912   -0.5759   -1.9543 H   0  0  0  0  0  0  0  0  0  0  0  0
    2.0630   -1.8381    0.5973 H   0  0  0  0  0  0  0  0  0  0  0  0
   -2.0439   -2.1388   -0.1782 H   0  0  0  0  0  0  0  0  0  0  0  0
    1.0816   -3.5405    2.2060 H   0  0  0  0  0  0  0  0  0  0  0  0
    1.4825    2.9827   -1.3079 N   0  0  0  0  0  0  0  0  0  0  0  0
    1.8795    4.0878   -2.1506 C   0  0  2  0  0  0  0  0  0  0  0  0
    2.7283    3.5320   -3.2864 C   0  0  0  0  0  0  0  0  0  0  0  0
    3.3233    2.4586   -3.2159 O   0  0  0  0  0  0  0  0  0  0  0  0
    2.6471    5.1372   -1.3617 C   0  0  0  0  0  0  0  0  0  0  0  0
    1.6290    3.0633   -0.3060 H   0  0  0  0  0  0  0  0  0  0  0  0
    0.9597    4.5203   -2.5591 H   0  0  0  0  0  0  0  0  0  0  0  0
    3.5719    4.7223   -0.9446 H   0  0  0  0  0  0  0  0  0  0  0  0
    2.9223    5.9870   -1.9951 H   0  0  0  0  0  0  0  0  0  0  0  0
    2.0460    5.5144   -0.5273 H   0  0  0  0  0  0  0  0  0  0  0  0
    2.7781    4.3956   -4.3716 N   0  0  0  0  0  0  0  0  0  0  0  0
    3.5294    4.1003   -5.5692 C   0  0  0  0  0  0  0  0  0  0  0  0
    2.2384    5.2559   -4.3508 H   0  0  0  0  0  0  0  0  0  0  0  0
    4.5388    4.5292   -5.4846 H   0  0  0  0  0  0  0  0  0  0  0  0
    3.6038    3.0101   -5.6957 H   0  0  0  0  0  0  0  0  0  0  0  0
    3.0176    4.5363   -6.4399 H   0  0  0  0  0  0  0  0  0  0  0  0
 22 24  2  0  0  0  0
 24 26  1  0  0  0  0
 25 26  2  0  0  0  0
 23 25  1  0  0  0  0
 21 22  1  0  0  0  0
 22 23  1  0  0  0  0
  1  3  1  0  0  0  0
  1  7  1  0  0  0  0
  1  2  2  0  0  0  0
 35 36  1  0  0  0  0
 36 44  1  0  0  0  0
 36 37  2  0  0  0  0
  8  9  1  0  0  0  0
  9 17  1  0  0  0  0
  9 10  2  0  0  0  0
 18 19  1  0  0  0  0
 19 34  1  0  0  0  0
 19 20  2  0  0  0  0
 35 38  1  0  0  0  0
  8 11  1  0  0  0  0
 44 45  1  0  0  0  0
 18 21  1  0  0  0  0
 34 35  1  0  0  0  0
  7  8  1  0  0  0  0
 17 18  1  0  0  0  0
 24 32  1  0  0  0  0
 25 33  1  0  0  0  0
  3  4  1  0  0  0  0
  3  5  1  0  0  0  0
  3  6  1  0  0  0  0
 38 41  1  0  0  0  0
 38 42  1  0  0  0  0
 38 43  1  0  0  0  0
 11 14  1  0  0  0  0
 11 15  1  0  0  0  0
 11 16  1  0  0  0  0
 45 47  1  0  0  0  0
 45 48  1  0  0  0  0
 45 49  1  0  0  0  0
 21 29  1  0  0  0  0
 21 30  1  0  0  0  0
 35 40  1  0  0  0  0
  8 13  1  0  0  0  0
 18 28  1  0  0  0  0
 23 31  1  0  0  0  0
 44 46  1  0  0  0  0
  7 12  1  0  0  0  0
 34 39  1  0  0  0  0
 17 27  1  0  0  0  0
M  END
$$$$

  -OEChem-05262214473D

 49 49  0     1  0  0  0  0  0999 V2000
   -1.5619    0.5658    3.7981 C   0  0  0  0  0  0  0  0  0  0  0  0
   -0.6145   -0.0489    3.3224 O   0  0  0  0  0  0  0  0  0  0  0  0
   -1.9938    0.2834    5.1988 C   0  0  0  0  0  0  0  0  0  0  0  0
   -2.7535   -0.5129    5.2522 H   0  0  0  0  0  0  0  0  0  0  0  0
   -1.1626   -0.0642    5.8331 H   0  0  0  0  0  0  0  0  0  0  0  0
   -2.4318    1.1383    5.7384 H   0  0  0  0  0  0  0  0  0  0  0  0
   -2.3116    1.5383    3.1570 N   0  0  0  0  0  0  0  0  0  0  0  0
   -2.0648    1.9643    1.8046 C   0  0  2  0  0  0  0  0  0  0  0  0
   -0.7298    1.3789    1.3634 C   0  0  0  0  0  0  0  0  0  0  0  0
    0.1423    1.0262    2.1547 O   0  0  0  0  0  0  0  0  0  0  0  0
   -2.0560    3.4811    1.6952 C   0  0  0  0  0  0  0  0  0  0  0  0
   -3.0767    1.9741    3.6688 H   0  0  0  0  0  0  0  0  0  0  0  0
   -2.8689    1.5458    1.1895 H   0  0  0  0  0  0  0  0  0  0  0  0
   -1.2569    3.9183    2.3049 H   0  0  0  0  0  0  0  0  0  0  0  0
   -1.8965    3.8033    0.6609 H   0  0  0  0  0  0  0  0  0  0  0  0
   -3.0062    3.9023    2.0409 H   0  0  0  0  0  0  0  0  0  0  0  0
   -0.6071    1.3358   -0.0200 N   0  0  0  0  0  0  0  0  0  0  0  0
    0.5702    0.8350   -0.6836 C   0  0  2  0  0  0  0  0  0  0  0  0
    0.9113    1.8169   -1.7989 C   0  0  0  0  0  0  0  0  0  0  0  0
    0.4352    1.7373   -2.9293 O   0  0  0  0  0  0  0  0  0  0  0  0
    0.3575   -0.5705   -1.2577 C   0  0  0  0  0  0  0  0  0  0  0  0
    0.0984   -1.6043   -0.1891 C   0  0  0  0  0  0  0  0  0  0  0  0
    1.0850   -2.0959    0.6184 N   0  0  0  0  0  0  0  0  0  0  0  0
   -1.0443   -2.2526    0.2165 C   0  0  0  0  0  0  0  0  0  0  0  0
    0.5091   -3.0043    1.4625 C   0  0  0  0  0  0  0  0  0  0  0  0
   -0.7819   -3.1225    1.2451 N   0  0  0  0  0  0  0  0  0  0  0  0
   -1.3903    1.6325   -0.5973 H   0  0  0  0  0  0  0  0  0  0  0  0
    1.3754    0.8431    0.0603 H   0  0  0  0  0  0  0  0  0  0  0  0
    1.2259   -0.8710   -1.8595 H   0  0  0  0  0  0  0  0  0  0  0  0
   -0.4912   -0.5759   -1.9543 H   0  0  0  0  0  0  0  0  0  0  0  0
    2.0630   -1.8381    0.5973 H   0  0  0  0  0  0  0  0  0  0  0  0
   -2.0439   -2.1388   -0.1782 H   0  0  0  0  0  0  0  0  0  0  0  0
    1.0816   -3.5405    2.2060 H   0  0  0  0  0  0  0  0  0  0  0  0
    1.7696    2.8178   -1.3653 N   0  0  0  0  0  0  0  0  0  0  0  0
    2.2326    3.8900   -2.2167 C   0  0  2  0  0  0  0  0  0  0  0  0
    2.7629    3.2727   -3.5041 C   0  0  0  0  0  0  0  0  0  0  0  0
    3.1416    2.1058   -3.5821 O   0  0  0  0  0  0  0  0  0  0  0  0
    3.3063    4.7186   -1.5287 C   0  0  0  0  0  0  0  0  0  0  0  0
    2.0884    2.7957   -0.4012 H   0  0  0  0  0  0  0  0  0  0  0  0
    1.3607    4.5137   -2.4422 H   0  0  0  0  0  0  0  0  0  0  0  0
    4.1878    4.1105   -1.2949 H   0  0  0  0  0  0  0  0  0  0  0  0
    3.6356    5.5475   -2.1639 H   0  0  0  0  0  0  0  0  0  0  0  0
    2.9324    5.1373   -0.5881 H   0  0  0  0  0  0  0  0  0  0  0  0
    2.8040    4.1902   -4.5445 N   0  0  0  0  0  0  0  0  0  0  0  0
    3.2806    3.8508   -5.8650 C   0  0  0  0  0  0  0  0  0  0  0  0
    2.4522    5.1313   -4.3950 H   0  0  0  0  0  0  0  0  0  0  0  0
    4.3543    4.0788   -5.9376 H   0  0  0  0  0  0  0  0  0  0  0  0
    3.1205    2.7780   -6.0479 H   0  0  0  0  0  0  0  0  0  0  0  0
    2.7299    4.4369   -6.6154 H   0  0  0  0  0  0  0  0  0  0  0  0
 22 24  2  0  0  0  0
 24 26  1  0  0  0  0
 25 26  2  0  0  0  0
 23 25  1  0  0  0  0
 21 22  1  0  0  0  0
 22 23  1  0  0  0  0
  1  3  1  0  0  0  0
  1  7  1  0  0  0  0
  1  2  2  0  0  0  0
 35 36  1  0  0  0  0
 36 44  1  0  0  0  0
 36 37  2  0  0  0  0
  8  9  1  0  0  0  0
  9 17  1  0  0  0  0
  9 10  2  0  0  0  0
 18 19  1  0  0  0  0
 19 34  1  0  0  0  0
 19 20  2  0  0  0  0
 35 38  1  0  0  0  0
  8 11  1  0  0  0  0
 44 45  1  0  0  0  0
 18 21  1  0  0  0  0
 34 35  1  0  0  0  0
  7  8  1  0  0  0  0
 17 18  1  0  0  0  0
 24 32  1  0  0  0  0
 25 33  1  0  0  0  0
  3  4  1  0  0  0  0
  3  5  1  0  0  0  0
  3  6  1  0  0  0  0
 38 41  1  0  0  0  0
 38 42  1  0  0  0  0
 38 43  1  0  0  0  0
 11 14  1  0  0  0  0
 11 15  1  0  0  0  0
 11 16  1  0  0  0  0
 45 47  1  0  0  0  0
 45 48  1  0  0  0  0
 45 49  1  0  0  0  0
 21 29  1  0  0  0  0
 21 30  1  0  0  0  0
 35 40  1  0  0  0  0
  8 13  1  0  0  0  0
 18 28  1  0  0  0  0
 23 31  1  0  0  0  0
 44 46  1  0  0  0  0
  7 12  1  0  0  0  0
 34 39  1  0  0  0  0
 17 27  1  0  0  0  0
M  END
$$$$

  -OEChem-05262214473D

 49 49  0     1  0  0  0  0  0999 V2000
   -1.5619    0.5658    3.7981 C   0  0  0  0  0  0  0  0  0  0  0  0
   -0.6145   -0.0489    3.3224 O   0  0  0  0  0  0  0  0  0  0  0  0
   -1.9938    0.2834    5.1988 C   0  0  0  0  0  0  0  0  0  0  0  0
   -2.7535   -0.5129    5.2522 H   0  0  0  0  0  0  0  0  0  0  0  0
   -1.1626   -0.0642    5.8331 H   0  0  0  0  0  0  0  0  0  0  0  0
   -2.4318    1.1383    5.7384 H   0  0  0  0  0  0  0  0  0  0  0  0
   -2.3116    1.5383    3.1570 N   0  0  0  0  0  0  0  0  0  0  0  0
   -2.0648    1.9643    1.8046 C   0  0  2  0  0  0  0  0  0  0  0  0
   -0.7298    1.3789    1.3634 C   0  0  0  0  0  0  0  0  0  0  0  0
    0.1423    1.0262    2.1547 O   0  0  0  0  0  0  0  0  0  0  0  0
   -2.0560    3.4811    1.6952 C   0  0  0  0  0  0  0  0  0  0  0  0
   -3.0767    1.9741    3.6688 H   0  0  0  0  0  0  0  0  0  0  0  0
   -2.8689    1.5458    1.1895 H   0  0  0  0  0  0  0  0  0  0  0  0
   -1.2569    3.9183    2.3049 H   0  0  0  0  0  0  0  0  0  0  0  0
   -1.8965    3.8033    0.6609 H   0  0  0  0  0  0  0  0  0  0  0  0
   -3.0062    3.9023    2.0409 H   0  0  0  0  0  0  0  0  0  0  0  0
   -0.6071    1.3358   -0.0200 N   0  0  0  0  0  0  0  0  0  0  0  0
    0.5702    0.8350   -0.6836 C   0  0  2  0  0  0  0  0  0  0  0  0
    0.9113    1.8169   -1.7989 C   0  0  0  0  0  0  0  0  0  0  0  0
    0.2530    1.9103   -2.8327 O   0  0  0  0  0  0  0  0  0  0  0  0
    0.3575   -0.5705   -1.2577 C   0  0  0  0  0  0  0  0  0  0  0  0
    0.0984   -1.6043   -0.1891 C   0  0  0  0  0  0  0  0  0  0  0  0
    1.0850   -2.0959    0.6184 N   0  0  0  0  0  0  0  0  0  0  0  0
   -1.0443   -2.2526    0.2165 C   0  0  0  0  0  0  0  0  0  0  0  0
    0.5091   -3.0043    1.4625 C   0  0  0  0  0  0  0  0  0  0  0  0
   -0.7819   -3.1225    1.2451 N   0  0  0  0  0  0  0  0  0  0  0  0
   -1.3903    1.6325   -0.5973 H   0  0  0  0  0  0  0  0  0  0  0  0
    1.3754    0.8431    0.0603 H   0  0  0  0  0  0  0  0  0  0  0  0
    1.2259   -0.8710   -1.8595 H   0  0  0  0  0  0  0  0  0  0  0  0
   -0.4912   -0.5759   -1.9543 H   0  0  0  0  0  0  0  0  0  0  0  0
    2.0630   -1.8381    0.5973 H   0  0  0  0  0  0  0  0  0  0  0  0
   -2.0439   -2.1388   -0.1782 H   0  0  0  0  0  0  0  0  0  0  0  0
    1.0816   -3.5405    2.2060 H   0  0  0  0  0  0  0  0  0  0  0  0
    2.0061    2.6075   -1.4782 N   0  0  0  0  0  0  0  0  0  0  0  0
    2.5252    3.6359   -2.3510 C   0  0  2  0  0  0  0  0  0  0  0  0
    2.7110    3.0283   -3.7351 C   0  0  0  0  0  0  0  0  0  0  0  0
    2.8382    1.8207   -3.9260 O   0  0  0  0  0  0  0  0  0  0  0  0
    3.8359    4.1991   -1.8241 C   0  0  0  0  0  0  0  0  0  0  0  0
    2.4656    2.4557   -0.5851 H   0  0  0  0  0  0  0  0  0  0  0  0
    1.7664    4.4247   -2.3966 H   0  0  0  0  0  0  0  0  0  0  0  0
    4.6084    3.4233   -1.7713 H   0  0  0  0  0  0  0  0  0  0  0  0
    4.2132    4.9977   -2.4713 H   0  0  0  0  0  0  0  0  0  0  0  0
    3.7070    4.6089   -0.8165 H   0  0  0  0  0  0  0  0  0  0  0  0
    2.7614    3.9970   -4.7278 N   0  0  0  0  0  0  0  0  0  0  0  0
    2.9439    3.6740   -6.1236 C   0  0  0  0  0  0  0  0  0  0  0  0
    2.6278    4.9731   -4.4806 H   0  0  0  0  0  0  0  0  0  0  0  0
    4.0154    3.7048   -6.3706 H   0  0  0  0  0  0  0  0  0  0  0  0
    2.5511    2.6657   -6.3210 H   0  0  0  0  0  0  0  0  0  0  0  0
    2.4039    4.4056   -6.7427 H   0  0  0  0  0  0  0  0  0  0  0  0
 22 24  2  0  0  0  0
 24 26  1  0  0  0  0
 25 26  2  0  0  0  0
 23 25  1  0  0  0  0
 21 22  1  0  0  0  0
 22 23  1  0  0  0  0
  1  3  1  0  0  0  0
  1  7  1  0  0  0  0
  1  2  2  0  0  0  0
 35 36  1  0  0  0  0
 36 44  1  0  0  0  0
 36 37  2  0  0  0  0
  8  9  1  0  0  0  0
  9 17  1  0  0  0  0
  9 10  2  0  0  0  0
 18 19  1  0  0  0  0
 19 34  1  0  0  0  0
 19 20  2  0  0  0  0
 35 38  1  0  0  0  0
  8 11  1  0  0  0  0
 44 45  1  0  0  0  0
 18 21  1  0  0  0  0
 34 35  1  0  0  0  0
  7  8  1  0  0  0  0
 17 18  1  0  0  0  0
 24 32  1  0  0  0  0
 25 33  1  0  0  0  0
  3  4  1  0  0  0  0
  3  5  1  0  0  0  0
  3  6  1  0  0  0  0
 38 41  1  0  0  0  0
 38 42  1  0  0  0  0
 38 43  1  0  0  0  0
 11 14  1  0  0  0  0
 11 15  1  0  0  0  0
 11 16  1  0  0  0  0
 45 47  1  0  0  0  0
 45 48  1  0  0  0  0
 45 49  1  0  0  0  0
 21 29  1  0  0  0  0
 21 30  1  0  0  0  0
 35 40  1  0  0  0  0
  8 13  1  0  0  0  0
 18 28  1  0  0  0  0
 23 31  1  0  0  0  0
 44 46  1  0  0  0  0
  7 12  1  0  0  0  0
 34 39  1  0  0  0  0
 17 27  1  0  0  0  0
M  END
$$$$

  -OEChem-05262214473D

 49 49  0     1  0  0  0  0  0999 V2000
   -1.5619    0.5658    3.7981 C   0  0  0  0  0  0  0  0  0  0  0  0
   -0.6145   -0.0489    3.3224 O   0  0  0  0  0  0  0  0  0  0  0  0
   -1.9938    0.2834    5.1988 C   0  0  0  0  0  0  0  0  0  0  0  0
   -2.7535   -0.5129    5.2522 H   0  0  0  0  0  0  0  0  0  0  0  0
   -1.1626   -0.0642    5.8331 H   0  0  0  0  0  0  0  0  0  0  0  0
   -2.4318    1.1383    5.7384 H   0  0  0  0  0  0  0  0  0  0  0  0
   -2.3116    1.5383    3.1570 N   0  0  0  0  0  0  0  0  0  0  0  0
   -2.0648    1.9643    1.8046 C   0  0  2  0  0  0  0  0  0  0  0  0
   -0.7298    1.3789    1.3634 C   0  0  0  0  0  0  0  0  0  0  0  0
    0.1423    1.0262    2.1547 O   0  0  0  0  0  0  0  0  0  0  0  0
   -2.0560    3.4811    1.6952 C   0  0  0  0  0  0  0  0  0  0  0  0
   -3.0767    1.9741    3.6688 H   0  0  0  0  0  0  0  0  0  0  0  0
   -2.8689    1.5458    1.1895 H   0  0  0  0  0  0  0  0  0  0  0  0
   -1.2569    3.9183    2.3049 H   0  0  0  0  0  0  0  0  0  0  0  0
   -1.8965    3.8033    0.6609 H   0  0  0  0  0  0  0  0  0  0  0  0
   -3.0062    3.9023    2.0409 H   0  0  0  0  0  0  0  0  0  0  0  0
   -0.6071    1.3358   -0.0200 N   0  0  0  0  0  0  0  0  0  0  0  0
    0.5702    0.8350   -0.6836 C   0  0  2  0  0  0  0  0  0  0  0  0
    0.9113    1.8169   -1.7989 C   0  0  0  0  0  0  0  0  0  0  0  0
    0.1259    2.1063   -2.6990 O   0  0  0  0  0  0  0  0  0  0  0  0
    0.3575   -0.5705   -1.2577 C   0  0  0  0  0  0  0  0  0  0  0  0
    0.0984   -1.6043   -0.1891 C   0  0  0  0  0  0  0  0  0  0  0  0
    1.0850   -2.0959    0.6184 N   0  0  0  0  0  0  0  0  0  0  0  0
   -1.0443   -2.2526    0.2165 C   0  0  0  0  0  0  0  0  0  0  0  0
    0.5091   -3.0043    1.4625 C   0  0  0  0  0  0  0  0  0  0  0  0
   -0.7819   -3.1225    1.2451 N   0  0  0  0  0  0  0  0  0  0  0  0
   -1.3903    1.6325   -0.5973 H   0  0  0  0  0  0  0  0  0  0  0  0
    1.3754    0.8431    0.0603 H   0  0  0  0  0  0  0  0  0  0  0  0
    1.2259   -0.8710   -1.8595 H   0  0  0  0  0  0  0  0  0  0  0  0
   -0.4912   -0.5759   -1.9543 H   0  0  0  0  0  0  0  0  0  0  0  0
    2.0630   -1.8381    0.5973 H   0  0  0  0  0  0  0  0  0  0  0  0
   -2.0439   -2.1388   -0.1782 H   0  0  0  0  0  0  0  0  0  0  0  0
    1.0816   -3.5405    2.2060 H   0  0  0  0  0  0  0  0  0  0  0  0
    2.1759    2.3661   -1.6388 N   0  0  0  0  0  0  0  0  0  0  0  0
    2.7373    3.3428   -2.5441 C   0  0  2  0  0  0  0  0  0  0  0  0
    2.5761    2.8155   -3.9638 C   0  0  0  0  0  0  0  0  0  0  0  0
    2.4338    1.6226   -4.2241 O   0  0  0  0  0  0  0  0  0  0  0  0
    4.1999    3.6141   -2.2278 C   0  0  0  0  0  0  0  0  0  0  0  0
    2.7349    2.0665   -0.8454 H   0  0  0  0  0  0  0  0  0  0  0  0
    2.1489    4.2592   -2.4253 H   0  0  0  0  0  0  0  0  0  0  0  0
    4.8052    2.7074   -2.3414 H   0  0  0  0  0  0  0  0  0  0  0  0
    4.6158    4.3751   -2.8963 H   0  0  0  0  0  0  0  0  0  0  0  0
    4.3171    3.9649   -1.1968 H   0  0  0  0  0  0  0  0  0  0  0  0
    2.6530    3.8289   -4.9088 N   0  0  0  0  0  0  0  0  0  0  0  0
    2.5420    3.5821   -6.3275 C   0  0  0  0  0  0  0  0  0  0  0  0
    2.7533    4.7920   -4.6018 H   0  0  0  0  0  0  0  0  0  0  0  0
    3.5450    3.4329   -6.7539 H   0  0  0  0  0  0  0  0  0  0  0  0
    1.9343    2.6808   -6.4963 H   0  0  0  0  0  0  0  0  0  0  0  0
    2.0618    4.4444   -6.8132 H   0  0  0  0  0  0  0  0  0  0  0  0
 22 24  2  0  0  0  0
 24 26  1  0  0  0  0
 25 26  2  0  0  0  0
 23 25  1  0  0  0  0
 21 22  1  0  0  0  0
 22 23  1  0  0  0  0
  1  3  1  0  0  0  0
  1  7  1  0  0  0  0
  1  2  2  0  0  0  0
 35 36  1  0  0  0  0
 36 44  1  0  0  0  0
 36 37  2  0  0  0  0
  8  9  1  0  0  0  0
  9 17  1  0  0  0  0
  9 10  2  0  0  0  0
 18 19  1  0  0  0  0
 19 34  1  0  0  0  0
 19 20  2  0  0  0  0
 35 38  1  0  0  0  0
  8 11  1  0  0  0  0
 44 45  1  0  0  0  0
 18 21  1  0  0  0  0
 34 35  1  0  0  0  0
  7  8  1  0  0  0  0
 17 18  1  0  0  0  0
 24 32  1  0  0  0  0
 25 33  1  0  0  0  0
  3  4  1  0  0  0  0
  3  5  1  0  0  0  0
  3  6  1  0  0  0  0
 38 41  1  0  0  0  0
 38 42  1  0  0  0  0
 38 43  1  0  0  0  0
 11 14  1  0  0  0  0
 11 15  1  0  0  0  0
 11 16  1  0  0  0  0
 45 47  1  0  0  0  0
 45 48  1  0  0  0  0
 45 49  1  0  0  0  0
 21 29  1  0  0  0  0
 21 30  1  0  0  0  0
 35 40  1  0  0  0  0
  8 13  1  0  0  0  0
 18 28  1  0  0  0  0
 23 31  1  0  0  0  0
 44 46  1  0  0  0  0
  7 12  1  0  0  0  0
 34 39  1  0  0  0  0
 17 27  1  0  0  0  0
M  END
$$$$

  -OEChem-05262214473D

 49 49  0     1  0  0  0  0  0999 V2000
   -1.5619    0.5658    3.7981 C   0  0  0  0  0  0  0  0  0  0  0  0
   -0.6145   -0.0489    3.3224 O   0  0  0  0  0  0  0  0  0  0  0  0
   -1.9938    0.2834    5.1988 C   0  0  0  0  0  0  0  0  0  0  0  0
   -2.7535   -0.5129    5.2522 H   0  0  0  0  0  0  0  0  0  0  0  0
   -1.1626   -0.0642    5.8331 H   0  0  0  0  0  0  0  0  0  0  0  0
   -2.4318    1.1383    5.7384 H   0  0  0  0  0  0  0  0  0  0  0  0
   -2.3116    1.5383    3.1570 N   0  0  0  0  0  0  0  0  0  0  0  0
   -2.0648    1.9643    1.8046 C   0  0  2  0  0  0  0  0  0  0  0  0
   -0.7298    1.3789    1.3634 C   0  0  0  0  0  0  0  0  0  0  0  0
    0.1423    1.0262    2.1547 O   0  0  0  0  0  0  0  0  0  0  0  0
   -2.0560    3.4811    1.6952 C   0  0  0  0  0  0  0  0  0  0  0  0
   -3.0767    1.9741    3.6688 H   0  0  0  0  0  0  0  0  0  0  0  0
   -2.8689    1.5458    1.1895 H   0  0  0  0  0  0  0  0  0  0  0  0
   -1.2569    3.9183    2.3049 H   0  0  0  0  0  0  0  0  0  0  0  0
   -1.8965    3.8033    0.6609 H   0  0  0  0  0  0  0  0  0  0  0  0
   -3.0062    3.9023    2.0409 H   0  0  0  0  0  0  0  0  0  0  0  0
   -0.6071    1.3358   -0.0200 N   0  0  0  0  0  0  0  0  0  0  0  0
    0.5702    0.8350   -0.6836 C   0  0  2  0  0  0  0  0  0  0  0  0
    0.9113    1.8169   -1.7989 C   0  0  0  0  0  0  0  0  0  0  0  0
    0.0625    2.3119   -2.5373 O   0  0  0  0  0  0  0  0  0  0  0  0
    0.3575   -0.5705   -1.2577 C   0  0  0  0  0  0  0  0  0  0  0  0
    0.0984   -1.6043   -0.1891 C   0  0  0  0  0  0  0  0  0  0  0  0
    1.0850   -2.0959    0.6184 N   0  0  0  0  0  0  0  0  0  0  0  0
   -1.0443   -2.2526    0.2165 C   0  0  0  0  0  0  0  0  0  0  0  0
    0.5091   -3.0043    1.4625 C   0  0  0  0  0  0  0  0  0  0  0  0
   -0.7819   -3.1225    1.2451 N   0  0  0  0  0  0  0  0  0  0  0  0
   -1.3903    1.6325   -0.5973 H   0  0  0  0  0  0  0  0  0  0  0  0
    1.3754    0.8431    0.0603 H   0  0  0  0  0  0  0  0  0  0  0  0
    1.2259   -0.8710   -1.8595 H   0  0  0  0  0  0  0  0  0  0  0  0
   -0.4912   -0.5759   -1.9543 H   0  0  0  0  0  0  0  0  0  0  0  0
    2.0630   -1.8381    0.5973 H   0  0  0  0  0  0  0  0  0  0  0  0
   -2.0439   -2.1388   -0.1782 H   0  0  0  0  0  0  0  0  0  0  0  0
    1.0816   -3.5405    2.2060 H   0  0  0  0  0  0  0  0  0  0  0  0
    2.2674    2.1101   -1.8362 N   0  0  0  0  0  0  0  0  0  0  0  0
    2.8545    3.0308   -2.7830 C   0  0  2  0  0  0  0  0  0  0  0  0
    2.3673    2.6487   -4.1745 C   0  0  0  0  0  0  0  0  0  0  0  0
    1.9560    1.5250   -4.4561 O   0  0  0  0  0  0  0  0  0  0  0  0
    4.3734    3.0035   -2.7124 C   0  0  0  0  0  0  0  0  0  0  0  0
    2.8780    1.6547   -1.1642 H   0  0  0  0  0  0  0  0  0  0  0  0
    2.4823    4.0286   -2.5263 H   0  0  0  0  0  0  0  0  0  0  0  0
    4.7647    2.0117   -2.9664 H   0  0  0  0  0  0  0  0  0  0  0  0
    4.8160    3.7221   -3.4100 H   0  0  0  0  0  0  0  0  0  0  0  0
    4.7211    3.2495   -1.7032 H   0  0  0  0  0  0  0  0  0  0  0  0
    2.4864    3.6976   -5.0754 N   0  0  0  0  0  0  0  0  0  0  0  0
    2.1024    3.5811   -6.4628 C   0  0  0  0  0  0  0  0  0  0  0  0
    2.8199    4.6003   -4.7502 H   0  0  0  0  0  0  0  0  0  0  0  0
    2.9753    3.2815   -7.0615 H   0  0  0  0  0  0  0  0  0  0  0  0
    1.3121    2.8224   -6.5620 H   0  0  0  0  0  0  0  0  0  0  0  0
    1.7270    4.5507   -6.8220 H   0  0  0  0  0  0  0  0  0  0  0  0
 22 24  2  0  0  0  0
 24 26  1  0  0  0  0
 25 26  2  0  0  0  0
 23 25  1  0  0  0  0
 21 22  1  0  0  0  0
 22 23  1  0  0  0  0
  1  3  1  0  0  0  0
  1  7  1  0  0  0  0
  1  2  2  0  0  0  0
 35 36  1  0  0  0  0
 36 44  1  0  0  0  0
 36 37  2  0  0  0  0
  8  9  1  0  0  0  0
  9 17  1  0  0  0  0
  9 10  2  0  0  0  0
 18 19  1  0  0  0  0
 19 34  1  0  0  0  0
 19 20  2  0  0  0  0
 35 38  1  0  0  0  0
  8 11  1  0  0  0  0
 44 45  1  0  0  0  0
 18 21  1  0  0  0  0
 34 35  1  0  0  0  0
  7  8  1  0  0  0  0
 17 18  1  0  0  0  0
 24 32  1  0  0  0  0
 25 33  1  0  0  0  0
  3  4  1  0  0  0  0
  3  5  1  0  0  0  0
  3  6  1  0  0  0  0
 38 41  1  0  0  0  0
 38 42  1  0  0  0  0
 38 43  1  0  0  0  0
 11 14  1  0  0  0  0
 11 15  1  0  0  0  0
 11 16  1  0  0  0  0
 45 47  1  0  0  0  0
 45 48  1  0  0  0  0
 45 49  1  0  0  0  0
 21 29  1  0  0  0  0
 21 30  1  0  0  0  0
 35 40  1  0  0  0  0
  8 13  1  0  0  0  0
 18 28  1  0  0  0  0
 23 31  1  0  0  0  0
 44 46  1  0  0  0  0
  7 12  1  0  0  0  0
 34 39  1  0  0  0  0
 17 27  1  0  0  0  0
M  END
$$$$

  -OEChem-05262214473D

 49 49  0     1  0  0  0  0  0999 V2000
   -1.5619    0.5658    3.7981 C   0  0  0  0  0  0  0  0  0  0  0  0
   -0.6145   -0.0489    3.3224 O   0  0  0  0  0  0  0  0  0  0  0  0
   -1.9938    0.2834    5.1988 C   0  0  0  0  0  0  0  0  0  0  0  0
   -2.7535   -0.5129    5.2522 H   0  0  0  0  0  0  0  0  0  0  0  0
   -1.1626   -0.0642    5.8331 H   0  0  0  0  0  0  0  0  0  0  0  0
   -2.4318    1.1383    5.7384 H   0  0  0  0  0  0  0  0  0  0  0  0
   -2.3116    1.5383    3.1570 N   0  0  0  0  0  0  0  0  0  0  0  0
   -2.0648    1.9643    1.8046 C   0  0  2  0  0  0  0  0  0  0  0  0
   -0.7298    1.3789    1.3634 C   0  0  0  0  0  0  0  0  0  0  0  0
    0.1423    1.0262    2.1547 O   0  0  0  0  0  0  0  0  0  0  0  0
   -2.0560    3.4811    1.6952 C   0  0  0  0  0  0  0  0  0  0  0  0
   -3.0767    1.9741    3.6688 H   0  0  0  0  0  0  0  0  0  0  0  0
   -2.8689    1.5458    1.1895 H   0  0  0  0  0  0  0  0  0  0  0  0
   -1.2569    3.9183    2.3049 H   0  0  0  0  0  0  0  0  0  0  0  0
   -1.8965    3.8033    0.6609 H   0  0  0  0  0  0  0  0  0  0  0  0
   -3.0062    3.9023    2.0409 H   0  0  0  0  0  0  0  0  0  0  0  0
   -0.6071    1.3358   -0.0200 N   0  0  0  0  0  0  0  0  0  0  0  0
    0.5702    0.8350   -0.6836 C   0  0  2  0  0  0  0  0  0  0  0  0
    0.9113    1.8169   -1.7989 C   0  0  0  0  0  0  0  0  0  0  0  0
    0.0671    2.5132   -2.3587 O   0  0  0  0  0  0  0  0  0  0  0  0
    0.3575   -0.5705   -1.2577 C   0  0  0  0  0  0  0  0  0  0  0  0
    0.0984   -1.6043   -0.1891 C   0  0  0  0  0  0  0  0  0  0  0  0
    1.0850   -2.0959    0.6184 N   0  0  0  0  0  0  0  0  0  0  0  0
   -1.0443   -2.2526    0.2165 C   0  0  0  0  0  0  0  0  0  0  0  0
    0.5091   -3.0043    1.4625 C   0  0  0  0  0  0  0  0  0  0  0  0
   -0.7819   -3.1225    1.2451 N   0  0  0  0  0  0  0  0  0  0  0  0
   -1.3903    1.6325   -0.5973 H   0  0  0  0  0  0  0  0  0  0  0  0
    1.3754    0.8431    0.0603 H   0  0  0  0  0  0  0  0  0  0  0  0
    1.2259   -0.8710   -1.8595 H   0  0  0  0  0  0  0  0  0  0  0  0
   -0.4912   -0.5759   -1.9543 H   0  0  0  0  0  0  0  0  0  0  0  0
    2.0630   -1.8381    0.5973 H   0  0  0  0  0  0  0  0  0  0  0  0
   -2.0439   -2.1388   -0.1782 H   0  0  0  0  0  0  0  0  0  0  0  0
    1.0816   -3.5405    2.2060 H   0  0  0  0  0  0  0  0  0  0  0  0
    2.2745    1.8570   -2.0569 N   0  0  0  0  0  0  0  0  0  0  0  0
    2.8688    2.7210   -3.0514 C   0  0  2  0  0  0  0  0  0  0  0  0
    2.0990    2.5393   -4.3529 C   0  0  0  0  0  0  0  0  0  0  0  0
    1.4374    1.5347   -4.6062 O   0  0  0  0  0  0  0  0  0  0  0  0
    4.3446    2.4089   -3.2447 C   0  0  0  0  0  0  0  0  0  0  0  0
    2.8851    1.2483   -1.5199 H   0  0  0  0  0  0  0  0  0  0  0  0
    2.7438    3.7486   -2.6929 H   0  0  0  0  0  0  0  0  0  0  0  0
    4.4897    1.3835   -3.6036 H   0  0  0  0  0  0  0  0  0  0  0  0
    4.8001    3.0832   -3.9775 H   0  0  0  0  0  0  0  0  0  0  0  0
    4.8914    2.5113   -2.3011 H   0  0  0  0  0  0  0  0  0  0  0  0
    2.2728    3.6120   -5.2161 N   0  0  0  0  0  0  0  0  0  0  0  0
    1.6551    3.6712   -6.5203 C   0  0  0  0  0  0  0  0  0  0  0  0
    2.8232    4.4111   -4.9157 H   0  0  0  0  0  0  0  0  0  0  0  0
    2.3450    3.2609   -7.2724 H   0  0  0  0  0  0  0  0  0  0  0  0
    0.7270    3.0808   -6.5135 H   0  0  0  0  0  0  0  0  0  0  0  0
    1.4223    4.7173   -6.7685 H   0  0  0  0  0  0  0  0  0  0  0  0
 22 24  2  0  0  0  0
 24 26  1  0  0  0  0
 25 26  2  0  0  0  0
 23 25  1  0  0  0  0
 21 22  1  0  0  0  0
 22 23  1  0  0  0  0
  1  3  1  0  0  0  0
  1  7  1  0  0  0  0
  1  2  2  0  0  0  0
 35 36  1  0  0  0  0
 36 44  1  0  0  0  0
 36 37  2  0  0  0  0
  8  9  1  0  0  0  0
  9 17  1  0  0  0  0
  9 10  2  0  0  0  0
 18 19  1  0  0  0  0
 19 34  1  0  0  0  0
 19 20  2  0  0  0  0
 35 38  1  0  0  0  0
  8 11  1  0  0  0  0
 44 45  1  0  0  0  0
 18 21  1  0  0  0  0
 34 35  1  0  0  0  0
  7  8  1  0  0  0  0
 17 18  1  0  0  0  0
 24 32  1  0  0  0  0
 25 33  1  0  0  0  0
  3  4  1  0  0  0  0
  3  5  1  0  0  0  0
  3  6  1  0  0  0  0
 38 41  1  0  0  0  0
 38 42  1  0  0  0  0
 38 43  1  0  0  0  0
 11 14  1  0  0  0  0
 11 15  1  0  0  0  0
 11 16  1  0  0  0  0
 45 47  1  0  0  0  0
 45 48  1  0  0  0  0
 45 49  1  0  0  0  0
 21 29  1  0  0  0  0
 21 30  1  0  0  0  0
 35 40  1  0  0  0  0
  8 13  1  0  0  0  0
 18 28  1  0  0  0  0
 23 31  1  0  0  0  0
 44 46  1  0  0  0  0
  7 12  1  0  0  0  0
 34 39  1  0  0  0  0
 17 27  1  0  0  0  0
M  END
$$$$

  -OEChem-05262214473D

 49 49  0     1  0  0  0  0  0999 V2000
   -1.5619    0.5658    3.7981 C   0  0  0  0  0  0  0  0  0  0  0  0
   -0.6145   -0.0489    3.3224 O   0  0  0  0  0  0  0  0  0  0  0  0
   -1.9938    0.2834    5.1988 C   0  0  0  0  0  0  0  0  0  0  0  0
   -2.7535   -0.5129    5.2522 H   0  0  0  0  0  0  0  0  0  0  0  0
   -1.1626   -0.0642    5.8331 H   0  0  0  0  0  0  0  0  0  0  0  0
   -2.4318    1.1383    5.7384 H   0  0  0  0  0  0  0  0  0  0  0  0
   -2.3116    1.5383    3.1570 N   0  0  0  0  0  0  0  0  0  0  0  0
   -2.0648    1.9643    1.8046 C   0  0  2  0  0  0  0  0  0  0  0  0
   -0.7298    1.3789    1.3634 C   0  0  0  0  0  0  0  0  0  0  0  0
    0.1423    1.0262    2.1547 O   0  0  0  0  0  0  0  0  0  0  0  0
   -2.0560    3.4811    1.6952 C   0  0  0  0  0  0  0  0  0  0  0  0
   -3.0767    1.9741    3.6688 H   0  0  0  0  0  0  0  0  0  0  0  0
   -2.8689    1.5458    1.1895 H   0  0  0  0  0  0  0  0  0  0  0  0
   -1.2569    3.9183    2.3049 H   0  0  0  0  0  0  0  0  0  0  0  0
   -1.8965    3.8033    0.6609 H   0  0  0  0  0  0  0  0  0  0  0  0
   -3.0062    3.9023    2.0409 H   0  0  0  0  0  0  0  0  0  0  0  0
   -0.6071    1.3358   -0.0200 N   0  0  0  0  0  0  0  0  0  0  0  0
    0.5702    0.8350   -0.6836 C   0  0  2  0  0  0  0  0  0  0  0  0
    0.9113    1.8169   -1.7989 C   0  0  0  0  0  0  0  0  0  0  0  0
    0.1395    2.6964   -2.1753 O   0  0  0  0  0  0  0  0  0  0  0  0
    0.3575   -0.5705   -1.2577 C   0  0  0  0  0  0  0  0  0  0  0  0
    0.0984   -1.6043   -0.1891 C   0  0  0  0  0  0  0  0  0  0  0  0
    1.0850   -2.0959    0.6184 N   0  0  0  0  0  0  0  0  0  0  0  0
   -1.0443   -2.2526    0.2165 C   0  0  0  0  0  0  0  0  0  0  0  0
    0.5091   -3.0043    1.4625 C   0  0  0  0  0  0  0  0  0  0  0  0
   -0.7819   -3.1225    1.2451 N   0  0  0  0  0  0  0  0  0  0  0  0
   -1.3903    1.6325   -0.5973 H   0  0  0  0  0  0  0  0  0  0  0  0
    1.3754    0.8431    0.0603 H   0  0  0  0  0  0  0  0  0  0  0  0
    1.2259   -0.8710   -1.8595 H   0  0  0  0  0  0  0  0  0  0  0  0
   -0.4912   -0.5759   -1.9543 H   0  0  0  0  0  0  0  0  0  0  0  0
    2.0630   -1.8381    0.5973 H   0  0  0  0  0  0  0  0  0  0  0  0
   -2.0439   -2.1388   -0.1782 H   0  0  0  0  0  0  0  0  0  0  0  0
    1.0816   -3.5405    2.2060 H   0  0  0  0  0  0  0  0  0  0  0  0
    2.1965    1.6238   -2.2860 N   0  0  0  0  0  0  0  0  0  0  0  0
    2.7793    2.4346   -3.3309 C   0  0  2  0  0  0  0  0  0  0  0  0
    1.7894    2.4948   -4.4868 C   0  0  0  0  0  0  0  0  0  0  0  0
    0.9132    1.6510   -4.6642 O   0  0  0  0  0  0  0  0  0  0  0  0
    4.1155    1.8709   -3.7884 C   0  0  0  0  0  0  0  0  0  0  0  0
    2.7557    0.8750   -1.8881 H   0  0  0  0  0  0  0  0  0  0  0  0
    2.9157    3.4382   -2.9136 H   0  0  0  0  0  0  0  0  0  0  0  0
    3.9989    0.8657   -4.2096 H   0  0  0  0  0  0  0  0  0  0  0  0
    4.5691    2.5019   -4.5599 H   0  0  0  0  0  0  0  0  0  0  0  0
    4.8165    1.8005   -2.9497 H   0  0  0  0  0  0  0  0  0  0  0  0
    2.0268    3.5779   -5.3214 N   0  0  0  0  0  0  0  0  0  0  0  0
    1.2305    3.8463   -6.4960 C   0  0  0  0  0  0  0  0  0  0  0  0
    2.7630    4.2373   -5.0871 H   0  0  0  0  0  0  0  0  0  0  0  0
    1.6972    3.3725   -7.3722 H   0  0  0  0  0  0  0  0  0  0  0  0
    0.2188    3.4383   -6.3541 H   0  0  0  0  0  0  0  0  0  0  0  0
    1.1684    4.9328   -6.6564 H   0  0  0  0  0  0  0  0  0  0  0  0
 22 24  2  0  0  0  0
 24 26  1  0  0  0  0
 25 26  2  0  0  0  0
 23 25  1  0  0  0  0
 21 22  1  0  0  0  0
 22 23  1  0  0  0  0
  1  3  1  0  0  0  0
  1  7  1  0  0  0  0
  1  2  2  0  0  0  0
 35 36  1  0  0  0  0
 36 44  1  0  0  0  0
 36 37  2  0  0  0  0
  8  9  1  0  0  0  0
  9 17  1  0  0  0  0
  9 10  2  0  0  0  0
 18 19  1  0  0  0  0
 19 34  1  0  0  0  0
 19 20  2  0  0  0  0
 35 38  1  0  0  0  0
  8 11  1  0  0  0  0
 44 45  1  0  0  0  0
 18 21  1  0  0  0  0
 34 35  1  0  0  0  0
  7  8  1  0  0  0  0
 17 18  1  0  0  0  0
 24 32  1  0  0  0  0
 25 33  1  0  0  0  0
  3  4  1  0  0  0  0
  3  5  1  0  0  0  0
  3  6  1  0  0  0  0
 38 41  1  0  0  0  0
 38 42  1  0  0  0  0
 38 43  1  0  0  0  0
 11 14  1  0  0  0  0
 11 15  1  0  0  0  0
 11 16  1  0  0  0  0
 45 47  1  0  0  0  0
 45 48  1  0  0  0  0
 45 49  1  0  0  0  0
 21 29  1  0  0  0  0
 21 30  1  0  0  0  0
 35 40  1  0  0  0  0
  8 13  1  0  0  0  0
 18 28  1  0  0  0  0
 23 31  1  0  0  0  0
 44 46  1  0  0  0  0
  7 12  1  0  0  0  0
 34 39  1  0  0  0  0
 17 27  1  0  0  0  0
M  END
$$$$

  -OEChem-05262214473D

 49 49  0     1  0  0  0  0  0999 V2000
   -1.5619    0.5658    3.7981 C   0  0  0  0  0  0  0  0  0  0  0  0
   -0.6145   -0.0489    3.3224 O   0  0  0  0  0  0  0  0  0  0  0  0
   -1.9938    0.2834    5.1988 C   0  0  0  0  0  0  0  0  0  0  0  0
   -2.7535   -0.5129    5.2522 H   0  0  0  0  0  0  0  0  0  0  0  0
   -1.1626   -0.0642    5.8331 H   0  0  0  0  0  0  0  0  0  0  0  0
   -2.4318    1.1383    5.7384 H   0  0  0  0  0  0  0  0  0  0  0  0
   -2.3116    1.5383    3.1570 N   0  0  0  0  0  0  0  0  0  0  0  0
   -2.0648    1.9643    1.8046 C   0  0  2  0  0  0  0  0  0  0  0  0
   -0.7298    1.3789    1.3634 C   0  0  0  0  0  0  0  0  0  0  0  0
    0.1423    1.0262    2.1547 O   0  0  0  0  0  0  0  0  0  0  0  0
   -2.0560    3.4811    1.6952 C   0  0  0  0  0  0  0  0  0  0  0  0
   -3.0767    1.9741    3.6688 H   0  0  0  0  0  0  0  0  0  0  0  0
   -2.8689    1.5458    1.1895 H   0  0  0  0  0  0  0  0  0  0  0  0
   -1.2569    3.9183    2.3049 H   0  0  0  0  0  0  0  0  0  0  0  0
   -1.8965    3.8033    0.6609 H   0  0  0  0  0  0  0  0  0  0  0  0
   -3.0062    3.9023    2.0409 H   0  0  0  0  0  0  0  0  0  0  0  0
   -0.6071    1.3358   -0.0200 N   0  0  0  0  0  0  0  0  0  0  0  0
    0.5702    0.8350   -0.6836 C   0  0  2  0  0  0  0  0  0  0  0  0
    1.1295    1.9732   -1.5297 C   0  0  0  0  0  0  0  0  0  0  0  0
    0.6338    3.0978   -1.5502 O   0  0  0  0  0  0  0  0  0  0  0  0
    0.2650   -0.3827   -1.5635 C   0  0  0  0  0  0  0  0  0  0  0  0
   -0.2142   -1.5723   -0.7678 C   0  0  0  0  0  0  0  0  0  0  0  0
    0.6244   -2.3426   -0.0124 N   0  0  0  0  0  0  0  0  0  0  0  0
   -1.4566   -2.1374   -0.6017 C   0  0  0  0  0  0  0  0  0  0  0  0
   -0.1311   -3.3235    0.5675 C   0  0  0  0  0  0  0  0  0  0  0  0
   -1.3981   -3.2270    0.2308 N   0  0  0  0  0  0  0  0  0  0  0  0
   -1.3903    1.6325   -0.5973 H   0  0  0  0  0  0  0  0  0  0  0  0
    1.2907    0.5858    0.1042 H   0  0  0  0  0  0  0  0  0  0  0  0
    1.1525   -0.6622   -2.1474 H   0  0  0  0  0  0  0  0  0  0  0  0
   -0.5032   -0.1352   -2.3080 H   0  0  0  0  0  0  0  0  0  0  0  0
    1.6217   -2.2142    0.0983 H   0  0  0  0  0  0  0  0  0  0  0  0
   -2.3918   -1.8170   -1.0382 H   0  0  0  0  0  0  0  0  0  0  0  0
    0.2997   -4.0704    1.2190 H   0  0  0  0  0  0  0  0  0  0  0  0
    2.2745    1.5954   -2.2172 N   0  0  0  0  0  0  0  0  0  0  0  0
    3.0174    2.4912   -3.0742 C   0  0  2  0  0  0  0  0  0  0  0  0
    2.0328    3.1529   -4.0293 C   0  0  0  0  0  0  0  0  0  0  0  0
    0.9389    2.6664   -4.3083 O   0  0  0  0  0  0  0  0  0  0  0  0
    4.1032    1.7511   -3.8397 C   0  0  0  0  0  0  0  0  0  0  0  0
    2.6070    0.6413   -2.1129 H   0  0  0  0  0  0  0  0  0  0  0  0
    3.4646    3.2518   -2.4249 H   0  0  0  0  0  0  0  0  0  0  0  0
    3.6742    0.9848   -4.4957 H   0  0  0  0  0  0  0  0  0  0  0  0
    4.6836    2.4358   -4.4669 H   0  0  0  0  0  0  0  0  0  0  0  0
    4.7933    1.2510   -3.1516 H   0  0  0  0  0  0  0  0  0  0  0  0
    2.5371    4.3290   -4.5666 N   0  0  0  0  0  0  0  0  0  0  0  0
    1.7976    5.1354   -5.5094 C   0  0  0  0  0  0  0  0  0  0  0  0
    3.4459    4.6671   -4.2641 H   0  0  0  0  0  0  0  0  0  0  0  0
    2.0593    4.8344   -6.5346 H   0  0  0  0  0  0  0  0  0  0  0  0
    0.7191    4.9905   -5.3489 H   0  0  0  0  0  0  0  0  0  0  0  0
    2.0510    6.1957   -5.3627 H   0  0  0  0  0  0  0  0  0  0  0  0
 22 24  2  0  0  0  0
 24 26  1  0  0  0  0
 25 26  2  0  0  0  0
 23 25  1  0  0  0  0
 21 22  1  0  0  0  0
 22 23  1  0  0  0  0
  1  3  1  0  0  0  0
  1  7  1  0  0  0  0
  1  2  2  0  0  0  0
 35 36  1  0  0  0  0
 36 44  1  0  0  0  0
 36 37  2  0  0  0  0
  8  9  1  0  0  0  0
  9 17  1  0  0  0  0
  9 10  2  0  0  0  0
 18 19  1  0  0  0  0
 19 34  1  0  0  0  0
 19 20  2  0  0  0  0
 35 38  1  0  0  0  0
  8 11  1  0  0  0  0
 44 45  1  0  0  0  0
 18 21  1  0  0  0  0
 34 35  1  0  0  0  0
  7  8  1  0  0  0  0
 17 18  1  0  0  0  0
 24 32  1  0  0  0  0
 25 33  1  0  0  0  0
  3  4  1  0  0  0  0
  3  5  1  0  0  0  0
  3  6  1  0  0  0  0
 38 41  1  0  0  0  0
 38 42  1  0  0  0  0
 38 43  1  0  0  0  0
 11 14  1  0  0  0  0
 11 15  1  0  0  0  0
 11 16  1  0  0  0  0
 45 47  1  0  0  0  0
 45 48  1  0  0  0  0
 45 49  1  0  0  0  0
 21 29  1  0  0  0  0
 21 30  1  0  0  0  0
 35 40  1  0  0  0  0
  8 13  1  0  0  0  0
 18 28  1  0  0  0  0
 23 31  1  0  0  0  0
 44 46  1  0  0  0  0
  7 12  1  0  0  0  0
 34 39  1  0  0  0  0
 17 27  1  0  0  0  0
M  END
$$$$

  -OEChem-05262214473D

 49 49  0     1  0  0  0  0  0999 V2000
   -1.5619    0.5658    3.7981 C   0  0  0  0  0  0  0  0  0  0  0  0
   -0.6145   -0.0489    3.3224 O   0  0  0  0  0  0  0  0  0  0  0  0
   -1.9938    0.2834    5.1988 C   0  0  0  0  0  0  0  0  0  0  0  0
   -2.7535   -0.5129    5.2522 H   0  0  0  0  0  0  0  0  0  0  0  0
   -1.1626   -0.0642    5.8331 H   0  0  0  0  0  0  0  0  0  0  0  0
   -2.4318    1.1383    5.7384 H   0  0  0  0  0  0  0  0  0  0  0  0
   -2.3116    1.5383    3.1570 N   0  0  0  0  0  0  0  0  0  0  0  0
   -2.0648    1.9643    1.8046 C   0  0  2  0  0  0  0  0  0  0  0  0
   -0.7298    1.3789    1.3634 C   0  0  0  0  0  0  0  0  0  0  0  0
    0.1423    1.0262    2.1547 O   0  0  0  0  0  0  0  0  0  0  0  0
   -2.0560    3.4811    1.6952 C   0  0  0  0  0  0  0  0  0  0  0  0
   -3.0767    1.9741    3.6688 H   0  0  0  0  0  0  0  0  0  0  0  0
   -2.8689    1.5458    1.1895 H   0  0  0  0  0  0  0  0  0  0  0  0
   -1.2569    3.9183    2.3049 H   0  0  0  0  0  0  0  0  0  0  0  0
   -1.8965    3.8033    0.6609 H   0  0  0  0  0  0  0  0  0  0  0  0
   -3.0062    3.9023    2.0409 H   0  0  0  0  0  0  0  0  0  0  0  0
   -0.6071    1.3358   -0.0200 N   0  0  0  0  0  0  0  0  0  0  0  0
    0.5702    0.8350   -0.6836 C   0  0  2  0  0  0  0  0  0  0  0  0
    1.1295    1.9732   -1.5297 C   0  0  0  0  0  0  0  0  0  0  0  0
    0.8166    3.1497   -1.3596 O   0  0  0  0  0  0  0  0  0  0  0  0
    0.2650   -0.3827   -1.5635 C   0  0  0  0  0  0  0  0  0  0  0  0
   -0.2142   -1.5723   -0.7678 C   0  0  0  0  0  0  0  0  0  0  0  0
    0.6244   -2.3426   -0.0124 N   0  0  0  0  0  0  0  0  0  0  0  0
   -1.4566   -2.1374   -0.6017 C   0  0  0  0  0  0  0  0  0  0  0  0
   -0.1311   -3.3235    0.5675 C   0  0  0  0  0  0  0  0  0  0  0  0
   -1.3981   -3.2270    0.2308 N   0  0  0  0  0  0  0  0  0  0  0  0
   -1.3903    1.6325   -0.5973 H   0  0  0  0  0  0  0  0  0  0  0  0
    1.2907    0.5858    0.1042 H   0  0  0  0  0  0  0  0  0  0  0  0
    1.1525   -0.6622   -2.1474 H   0  0  0  0  0  0  0  0  0  0  0  0
   -0.5032   -0.1352   -2.3080 H   0  0  0  0  0  0  0  0  0  0  0  0
    1.6217   -2.2142    0.0983 H   0  0  0  0  0  0  0  0  0  0  0  0
   -2.3918   -1.8170   -1.0382 H   0  0  0  0  0  0  0  0  0  0  0  0
    0.2997   -4.0704    1.2190 H   0  0  0  0  0  0  0  0  0  0  0  0
    2.0549    1.5224   -2.4608 N   0  0  0  0  0  0  0  0  0  0  0  0
    2.7532    2.3983   -3.3738 C   0  0  2  0  0  0  0  0  0  0  0  0
    1.7209    3.2865   -4.0557 C   0  0  0  0  0  0  0  0  0  0  0  0
    0.5329    2.9847   -4.1486 O   0  0  0  0  0  0  0  0  0  0  0  0
    3.5512    1.6071   -4.3985 C   0  0  0  0  0  0  0  0  0  0  0  0
    2.2511    0.5266   -2.5025 H   0  0  0  0  0  0  0  0  0  0  0  0
    3.4245    3.0166   -2.7679 H   0  0  0  0  0  0  0  0  0  0  0  0
    2.8954    0.9815   -5.0151 H   0  0  0  0  0  0  0  0  0  0  0  0
    4.1023    2.2720   -5.0716 H   0  0  0  0  0  0  0  0  0  0  0  0
    4.2727    0.9468   -3.9052 H   0  0  0  0  0  0  0  0  0  0  0  0
    2.2902    4.4357   -4.5863 N   0  0  0  0  0  0  0  0  0  0  0  0
    1.5202    5.4321   -5.2937 C   0  0  0  0  0  0  0  0  0  0  0  0
    3.2802    4.6137   -4.4455 H   0  0  0  0  0  0  0  0  0  0  0  0
    1.5372    5.2123   -6.3714 H   0  0  0  0  0  0  0  0  0  0  0  0
    0.4812    5.4167   -4.9328 H   0  0  0  0  0  0  0  0  0  0  0  0
    1.9556    6.4264   -5.1154 H   0  0  0  0  0  0  0  0  0  0  0  0
 22 24  2  0  0  0  0
 24 26  1  0  0  0  0
 25 26  2  0  0  0  0
 23 25  1  0  0  0  0
 21 22  1  0  0  0  0
 22 23  1  0  0  0  0
  1  3  1  0  0  0  0
  1  7  1  0  0  0  0
  1  2  2  0  0  0  0
 35 36  1  0  0  0  0
 36 44  1  0  0  0  0
 36 37  2  0  0  0  0
  8  9  1  0  0  0  0
  9 17  1  0  0  0  0
  9 10  2  0  0  0  0
 18 19  1  0  0  0  0
 19 34  1  0  0  0  0
 19 20  2  0  0  0  0
 35 38  1  0  0  0  0
  8 11  1  0  0  0  0
 44 45  1  0  0  0  0
 18 21  1  0  0  0  0
 34 35  1  0  0  0  0
  7  8  1  0  0  0  0
 17 18  1  0  0  0  0
 24 32  1  0  0  0  0
 25 33  1  0  0  0  0
  3  4  1  0  0  0  0
  3  5  1  0  0  0  0
  3  6  1  0  0  0  0
 38 41  1  0  0  0  0
 38 42  1  0  0  0  0
 38 43  1  0  0  0  0
 11 14  1  0  0  0  0
 11 15  1  0  0  0  0
 11 16  1  0  0  0  0
 45 47  1  0  0  0  0
 45 48  1  0  0  0  0
 45 49  1  0  0  0  0
 21 29  1  0  0  0  0
 21 30  1  0  0  0  0
 35 40  1  0  0  0  0
  8 13  1  0  0  0  0
 18 28  1  0  0  0  0
 23 31  1  0  0  0  0
 44 46  1  0  0  0  0
  7 12  1  0  0  0  0
 34 39  1  0  0  0  0
 17 27  1  0  0  0  0
M  END
$$$$

  -OEChem-05262214473D

 49 49  0     1  0  0  0  0  0999 V2000
   -1.5619    0.5658    3.7981 C   0  0  0  0  0  0  0  0  0  0  0  0
   -0.6145   -0.0489    3.3224 O   0  0  0  0  0  0  0  0  0  0  0  0
   -1.9938    0.2834    5.1988 C   0  0  0  0  0  0  0  0  0  0  0  0
   -2.7535   -0.5129    5.2522 H   0  0  0  0  0  0  0  0  0  0  0  0
   -1.1626   -0.0642    5.8331 H   0  0  0  0  0  0  0  0  0  0  0  0
   -2.4318    1.1383    5.7384 H   0  0  0  0  0  0  0  0  0  0  0  0
   -2.3116    1.5383    3.1570 N   0  0  0  0  0  0  0  0  0  0  0  0
   -2.0648    1.9643    1.8046 C   0  0  2  0  0  0  0  0  0  0  0  0
   -0.7298    1.3789    1.3634 C   0  0  0  0  0  0  0  0  0  0  0  0
    0.1423    1.0262    2.1547 O   0  0  0  0  0  0  0  0  0  0  0  0
   -2.0560    3.4811    1.6952 C   0  0  0  0  0  0  0  0  0  0  0  0
   -3.0767    1.9741    3.6688 H   0  0  0  0  0  0  0  0  0  0  0  0
   -2.8689    1.5458    1.1895 H   0  0  0  0  0  0  0  0  0  0  0  0
   -1.2569    3.9183    2.3049 H   0  0  0  0  0  0  0  0  0  0  0  0
   -1.8965    3.8033    0.6609 H   0  0  0  0  0  0  0  0  0  0  0  0
   -3.0062    3.9023    2.0409 H   0  0  0  0  0  0  0  0  0  0  0  0
   -0.6071    1.3358   -0.0200 N   0  0  0  0  0  0  0  0  0  0  0  0
    0.5702    0.8350   -0.6836 C   0  0  2  0  0  0  0  0  0  0  0  0
    1.1295    1.9732   -1.5297 C   0  0  0  0  0  0  0  0  0  0  0  0
    1.0375    3.1554   -1.2058 O   0  0  0  0  0  0  0  0  0  0  0  0
    0.2650   -0.3827   -1.5635 C   0  0  0  0  0  0  0  0  0  0  0  0
   -0.2142   -1.5723   -0.7678 C   0  0  0  0  0  0  0  0  0  0  0  0
    0.6244   -2.3426   -0.0124 N   0  0  0  0  0  0  0  0  0  0  0  0
   -1.4566   -2.1374   -0.6017 C   0  0  0  0  0  0  0  0  0  0  0  0
   -0.1311   -3.3235    0.5675 C   0  0  0  0  0  0  0  0  0  0  0  0
   -1.3981   -3.2270    0.2308 N   0  0  0  0  0  0  0  0  0  0  0  0
   -1.3903    1.6325   -0.5973 H   0  0  0  0  0  0  0  0  0  0  0  0
    1.2907    0.5858    0.1042 H   0  0  0  0  0  0  0  0  0  0  0  0
    1.1525   -0.6622   -2.1474 H   0  0  0  0  0  0  0  0  0  0  0  0
   -0.5032   -0.1352   -2.3080 H   0  0  0  0  0  0  0  0  0  0  0  0
    1.6217   -2.2142    0.0983 H   0  0  0  0  0  0  0  0  0  0  0  0
   -2.3918   -1.8170   -1.0382 H   0  0  0  0  0  0  0  0  0  0  0  0
    0.2997   -4.0704    1.2190 H   0  0  0  0  0  0  0  0  0  0  0  0
    1.7851    1.5065   -2.6605 N   0  0  0  0  0  0  0  0  0  0  0  0
    2.4268    2.3750   -3.6210 C   0  0  2  0  0  0  0  0  0  0  0  0
    1.4338    3.4628   -4.0084 C   0  0  0  0  0  0  0  0  0  0  0  0
    0.2173    3.3352   -3.8856 O   0  0  0  0  0  0  0  0  0  0  0  0
    2.8893    1.6003   -4.8452 C   0  0  0  0  0  0  0  0  0  0  0  0
    1.8155    0.5039   -2.8211 H   0  0  0  0  0  0  0  0  0  0  0  0
    3.2858    2.8277   -3.1137 H   0  0  0  0  0  0  0  0  0  0  0  0
    2.0423    1.1395   -5.3666 H   0  0  0  0  0  0  0  0  0  0  0  0
    3.4005    2.2546   -5.5590 H   0  0  0  0  0  0  0  0  0  0  0  0
    3.5804    0.7993   -4.5613 H   0  0  0  0  0  0  0  0  0  0  0  0
    2.0632    4.5761   -4.5475 N   0  0  0  0  0  0  0  0  0  0  0  0
    1.3365    5.7380   -5.0035 C   0  0  0  0  0  0  0  0  0  0  0  0
    3.0775    4.6031   -4.5938 H   0  0  0  0  0  0  0  0  0  0  0  0
    1.1186    5.6369   -6.0769 H   0  0  0  0  0  0  0  0  0  0  0  0
    0.3931    5.8231   -4.4443 H   0  0  0  0  0  0  0  0  0  0  0  0
    1.9444    6.6394   -4.8362 H   0  0  0  0  0  0  0  0  0  0  0  0
 22 24  2  0  0  0  0
 24 26  1  0  0  0  0
 25 26  2  0  0  0  0
 23 25  1  0  0  0  0
 21 22  1  0  0  0  0
 22 23  1  0  0  0  0
  1  3  1  0  0  0  0
  1  7  1  0  0  0  0
  1  2  2  0  0  0  0
 35 36  1  0  0  0  0
 36 44  1  0  0  0  0
 36 37  2  0  0  0  0
  8  9  1  0  0  0  0
  9 17  1  0  0  0  0
  9 10  2  0  0  0  0
 18 19  1  0  0  0  0
 19 34  1  0  0  0  0
 19 20  2  0  0  0  0
 35 38  1  0  0  0  0
  8 11  1  0  0  0  0
 44 45  1  0  0  0  0
 18 21  1  0  0  0  0
 34 35  1  0  0  0  0
  7  8  1  0  0  0  0
 17 18  1  0  0  0  0
 24 32  1  0  0  0  0
 25 33  1  0  0  0  0
  3  4  1  0  0  0  0
  3  5  1  0  0  0  0
  3  6  1  0  0  0  0
 38 41  1  0  0  0  0
 38 42  1  0  0  0  0
 38 43  1  0  0  0  0
 11 14  1  0  0  0  0
 11 15  1  0  0  0  0
 11 16  1  0  0  0  0
 45 47  1  0  0  0  0
 45 48  1  0  0  0  0
 45 49  1  0  0  0  0
 21 29  1  0  0  0  0
 21 30  1  0  0  0  0
 35 40  1  0  0  0  0
  8 13  1  0  0  0  0
 18 28  1  0  0  0  0
 23 31  1  0  0  0  0
 44 46  1  0  0  0  0
  7 12  1  0  0  0  0
 34 39  1  0  0  0  0
 17 27  1  0  0  0  0
M  END
$$$$

  -OEChem-05262214473D

 49 49  0     1  0  0  0  0  0999 V2000
   -1.5619    0.5658    3.7981 C   0  0  0  0  0  0  0  0  0  0  0  0
   -0.6145   -0.0489    3.3224 O   0  0  0  0  0  0  0  0  0  0  0  0
   -1.9938    0.2834    5.1988 C   0  0  0  0  0  0  0  0  0  0  0  0
   -2.7535   -0.5129    5.2522 H   0  0  0  0  0  0  0  0  0  0  0  0
   -1.1626   -0.0642    5.8331 H   0  0  0  0  0  0  0  0  0  0  0  0
   -2.4318    1.1383    5.7384 H   0  0  0  0  0  0  0  0  0  0  0  0
   -2.3116    1.5383    3.1570 N   0  0  0  0  0  0  0  0  0  0  0  0
   -2.0648    1.9643    1.8046 C   0  0  2  0  0  0  0  0  0  0  0  0
   -0.7298    1.3789    1.3634 C   0  0  0  0  0  0  0  0  0  0  0  0
    0.1423    1.0262    2.1547 O   0  0  0  0  0  0  0  0  0  0  0  0
   -2.0560    3.4811    1.6952 C   0  0  0  0  0  0  0  0  0  0  0  0
   -3.0767    1.9741    3.6688 H   0  0  0  0  0  0  0  0  0  0  0  0
   -2.8689    1.5458    1.1895 H   0  0  0  0  0  0  0  0  0  0  0  0
   -1.2569    3.9183    2.3049 H   0  0  0  0  0  0  0  0  0  0  0  0
   -1.8965    3.8033    0.6609 H   0  0  0  0  0  0  0  0  0  0  0  0
   -3.0062    3.9023    2.0409 H   0  0  0  0  0  0  0  0  0  0  0  0
   -0.6071    1.3358   -0.0200 N   0  0  0  0  0  0  0  0  0  0  0  0
    0.5702    0.8350   -0.6836 C   0  0  2  0  0  0  0  0  0  0  0  0
    1.1295    1.9732   -1.5297 C   0  0  0  0  0  0  0  0  0  0  0  0
    1.2813    3.1146   -1.0994 O   0  0  0  0  0  0  0  0  0  0  0  0
    0.2650   -0.3827   -1.5635 C   0  0  0  0  0  0  0  0  0  0  0  0
   -0.2142   -1.5723   -0.7678 C   0  0  0  0  0  0  0  0  0  0  0  0
    0.6244   -2.3426   -0.0124 N   0  0  0  0  0  0  0  0  0  0  0  0
   -1.4566   -2.1374   -0.6017 C   0  0  0  0  0  0  0  0  0  0  0  0
   -0.1311   -3.3235    0.5675 C   0  0  0  0  0  0  0  0  0  0  0  0
   -1.3981   -3.2270    0.2308 N   0  0  0  0  0  0  0  0  0  0  0  0
   -1.3903    1.6325   -0.5973 H   0  0  0  0  0  0  0  0  0  0  0  0
    1.2907    0.5858    0.1042 H   0  0  0  0  0  0  0  0  0  0  0  0
    1.1525   -0.6622   -2.1474 H   0  0  0  0  0  0  0  0  0  0  0  0
   -0.5032   -0.1352   -2.3080 H   0  0  0  0  0  0  0  0  0  0  0  0
    1.6217   -2.2142    0.0983 H   0  0  0  0  0  0  0  0  0  0  0  0
   -2.3918   -1.8170   -1.0382 H   0  0  0  0  0  0  0  0  0  0  0  0
    0.2997   -4.0704    1.2190 H   0  0  0  0  0  0  0  0  0  0  0  0
    1.4837    1.5488   -2.8028 N   0  0  0  0  0  0  0  0  0  0  0  0
    2.0604    2.4229   -3.7989 C   0  0  2  0  0  0  0  0  0  0  0  0
    1.1909    3.6699   -3.8904 C   0  0  0  0  0  0  0  0  0  0  0  0
    0.0137    3.6942   -3.5374 O   0  0  0  0  0  0  0  0  0  0  0  0
    2.1627    1.7312   -5.1494 C   0  0  0  0  0  0  0  0  0  0  0  0
    1.3299    0.5748   -3.0467 H   0  0  0  0  0  0  0  0  0  0  0  0
    3.0578    2.6980   -3.4389 H   0  0  0  0  0  0  0  0  0  0  0  0
    1.1731    1.4481   -5.5262 H   0  0  0  0  0  0  0  0  0  0  0  0
    2.6259    2.3849   -5.8959 H   0  0  0  0  0  0  0  0  0  0  0  0
    2.7638    0.8186   -5.0753 H   0  0  0  0  0  0  0  0  0  0  0  0
    1.8716    4.7407   -4.4528 N   0  0  0  0  0  0  0  0  0  0  0  0
    1.2591    6.0324   -4.6586 C   0  0  0  0  0  0  0  0  0  0  0  0
    2.8515    4.6361   -4.6989 H   0  0  0  0  0  0  0  0  0  0  0  0
    0.8322    6.0791   -5.6713 H   0  0  0  0  0  0  0  0  0  0  0  0
    0.4607    6.1818   -3.9170 H   0  0  0  0  0  0  0  0  0  0  0  0
    2.0181    6.8203   -4.5441 H   0  0  0  0  0  0  0  0  0  0  0  0
 22 24  2  0  0  0  0
 24 26  1  0  0  0  0
 25 26  2  0  0  0  0
 23 25  1  0  0  0  0
 21 22  1  0  0  0  0
 22 23  1  0  0  0  0
  1  3  1  0  0  0  0
  1  7  1  0  0  0  0
  1  2  2  0  0  0  0
 35 36  1  0  0  0  0
 36 44  1  0  0  0  0
 36 37  2  0  0  0  0
  8  9  1  0  0  0  0
  9 17  1  0  0  0  0
  9 10  2  0  0  0  0
 18 19  1  0  0  0  0
 19 34  1  0  0  0  0
 19 20  2  0  0  0  0
 35 38  1  0  0  0  0
  8 11  1  0  0  0  0
 44 45  1  0  0  0  0
 18 21  1  0  0  0  0
 34 35  1  0  0  0  0
  7  8  1  0  0  0  0
 17 18  1  0  0  0  0
 24 32  1  0  0  0  0
 25 33  1  0  0  0  0
  3  4  1  0  0  0  0
  3  5  1  0  0  0  0
  3  6  1  0  0  0  0
 38 41  1  0  0  0  0
 38 42  1  0  0  0  0
 38 43  1  0  0  0  0
 11 14  1  0  0  0  0
 11 15  1  0  0  0  0
 11 16  1  0  0  0  0
 45 47  1  0  0  0  0
 45 48  1  0  0  0  0
 45 49  1  0  0  0  0
 21 29  1  0  0  0  0
 21 30  1  0  0  0  0
 35 40  1  0  0  0  0
  8 13  1  0  0  0  0
 18 28  1  0  0  0  0
 23 31  1  0  0  0  0
 44 46  1  0  0  0  0
  7 12  1  0  0  0  0
 34 39  1  0  0  0  0
 17 27  1  0  0  0  0
M  END
$$$$

  -OEChem-05262214473D

 49 49  0     1  0  0  0  0  0999 V2000
   -1.5619    0.5658    3.7981 C   0  0  0  0  0  0  0  0  0  0  0  0
   -0.6145   -0.0489    3.3224 O   0  0  0  0  0  0  0  0  0  0  0  0
   -1.9938    0.2834    5.1988 C   0  0  0  0  0  0  0  0  0  0  0  0
   -2.7535   -0.5129    5.2522 H   0  0  0  0  0  0  0  0  0  0  0  0
   -1.1626   -0.0642    5.8331 H   0  0  0  0  0  0  0  0  0  0  0  0
   -2.4318    1.1383    5.7384 H   0  0  0  0  0  0  0  0  0  0  0  0
   -2.3116    1.5383    3.1570 N   0  0  0  0  0  0  0  0  0  0  0  0
   -2.0648    1.9643    1.8046 C   0  0  2  0  0  0  0  0  0  0  0  0
   -0.7298    1.3789    1.3634 C   0  0  0  0  0  0  0  0  0  0  0  0
    0.1423    1.0262    2.1547 O   0  0  0  0  0  0  0  0  0  0  0  0
   -2.0560    3.4811    1.6952 C   0  0  0  0  0  0  0  0  0  0  0  0
   -3.0767    1.9741    3.6688 H   0  0  0  0  0  0  0  0  0  0  0  0
   -2.8689    1.5458    1.1895 H   0  0  0  0  0  0  0  0  0  0  0  0
   -1.2569    3.9183    2.3049 H   0  0  0  0  0  0  0  0  0  0  0  0
   -1.8965    3.8033    0.6609 H   0  0  0  0  0  0  0  0  0  0  0  0
   -3.0062    3.9023    2.0409 H   0  0  0  0  0  0  0  0  0  0  0  0
   -0.6071    1.3358   -0.0200 N   0  0  0  0  0  0  0  0  0  0  0  0
    0.5702    0.8350   -0.6836 C   0  0  2  0  0  0  0  0  0  0  0  0
    1.1295    1.9732   -1.5297 C   0  0  0  0  0  0  0  0  0  0  0  0
    1.5316    3.0301   -1.0477 O   0  0  0  0  0  0  0  0  0  0  0  0
    0.2650   -0.3827   -1.5635 C   0  0  0  0  0  0  0  0  0  0  0  0
   -0.2142   -1.5723   -0.7678 C   0  0  0  0  0  0  0  0  0  0  0  0
    0.6244   -2.3426   -0.0124 N   0  0  0  0  0  0  0  0  0  0  0  0
   -1.4566   -2.1374   -0.6017 C   0  0  0  0  0  0  0  0  0  0  0  0
   -0.1311   -3.3235    0.5675 C   0  0  0  0  0  0  0  0  0  0  0  0
   -1.3981   -3.2270    0.2308 N   0  0  0  0  0  0  0  0  0  0  0  0
   -1.3903    1.6325   -0.5973 H   0  0  0  0  0  0  0  0  0  0  0  0
    1.2907    0.5858    0.1042 H   0  0  0  0  0  0  0  0  0  0  0  0
    1.1525   -0.6622   -2.1474 H   0  0  0  0  0  0  0  0  0  0  0  0
   -0.5032   -0.1352   -2.3080 H   0  0  0  0  0  0  0  0  0  0  0  0
    1.6217   -2.2142    0.0983 H   0  0  0  0  0  0  0  0  0  0  0  0
   -2.3918   -1.8170   -1.0382 H   0  0  0  0  0  0  0  0  0  0  0  0
    0.2997   -4.0704    1.2190 H   0  0  0  0  0  0  0  0  0  0  0  0
    1.1712    1.6465   -2.8780 N   0  0  0  0  0  0  0  0  0  0  0  0
    1.6790    2.5386   -3.8954 C   0  0  2  0  0  0  0  0  0  0  0  0
    1.0088    3.8936   -3.7099 C   0  0  0  0  0  0  0  0  0  0  0  0
   -0.0642    4.0371   -3.1275 O   0  0  0  0  0  0  0  0  0  0  0  0
    1.4209    1.9910   -5.2904 C   0  0  0  0  0  0  0  0  0  0  0  0
    0.8275    0.7345   -3.1641 H   0  0  0  0  0  0  0  0  0  0  0  0
    2.7561    2.6364   -3.7213 H   0  0  0  0  0  0  0  0  0  0  0  0
    0.3469    1.8861   -5.4832 H   0  0  0  0  0  0  0  0  0  0  0  0
    1.8313    2.6540   -6.0592 H   0  0  0  0  0  0  0  0  0  0  0  0
    1.8784    1.0033   -5.4122 H   0  0  0  0  0  0  0  0  0  0  0  0
    1.7284    4.9181   -4.3087 N   0  0  0  0  0  0  0  0  0  0  0  0
    1.2933    6.2951   -4.2826 C   0  0  0  0  0  0  0  0  0  0  0  0
    2.6176    4.7104   -4.7536 H   0  0  0  0  0  0  0  0  0  0  0  0
    0.6974    6.5089   -5.1822 H   0  0  0  0  0  0  0  0  0  0  0  0
    0.6794    6.4686   -3.3865 H   0  0  0  0  0  0  0  0  0  0  0  0
    2.1717    6.9567   -4.2591 H   0  0  0  0  0  0  0  0  0  0  0  0
 22 24  2  0  0  0  0
 24 26  1  0  0  0  0
 25 26  2  0  0  0  0
 23 25  1  0  0  0  0
 21 22  1  0  0  0  0
 22 23  1  0  0  0  0
  1  3  1  0  0  0  0
  1  7  1  0  0  0  0
  1  2  2  0  0  0  0
 35 36  1  0  0  0  0
 36 44  1  0  0  0  0
 36 37  2  0  0  0  0
  8  9  1  0  0  0  0
  9 17  1  0  0  0  0
  9 10  2  0  0  0  0
 18 19  1  0  0  0  0
 19 34  1  0  0  0  0
 19 20  2  0  0  0  0
 35 38  1  0  0  0  0
  8 11  1  0  0  0  0
 44 45  1  0  0  0  0
 18 21  1  0  0  0  0
 34 35  1  0  0  0  0
  7  8  1  0  0  0  0
 17 18  1  0  0  0  0
 24 32  1  0  0  0  0
 25 33  1  0  0  0  0
  3  4  1  0  0  0  0
  3  5  1  0  0  0  0
  3  6  1  0  0  0  0
 38 41  1  0  0  0  0
 38 42  1  0  0  0  0
 38 43  1  0  0  0  0
 11 14  1  0  0  0  0
 11 15  1  0  0  0  0
 11 16  1  0  0  0  0
 45 47  1  0  0  0  0
 45 48  1  0  0  0  0
 45 49  1  0  0  0  0
 21 29  1  0  0  0  0
 21 30  1  0  0  0  0
 35 40  1  0  0  0  0
  8 13  1  0  0  0  0
 18 28  1  0  0  0  0
 23 31  1  0  0  0  0
 44 46  1  0  0  0  0
  7 12  1  0  0  0  0
 34 39  1  0  0  0  0
 17 27  1  0  0  0  0
M  END
$$$$

  -OEChem-05262214473D

 49 49  0     1  0  0  0  0  0999 V2000
   -1.5619    0.5658    3.7981 C   0  0  0  0  0  0  0  0  0  0  0  0
   -0.6145   -0.0489    3.3224 O   0  0  0  0  0  0  0  0  0  0  0  0
   -1.9938    0.2834    5.1988 C   0  0  0  0  0  0  0  0  0  0  0  0
   -2.7535   -0.5129    5.2522 H   0  0  0  0  0  0  0  0  0  0  0  0
   -1.1626   -0.0642    5.8331 H   0  0  0  0  0  0  0  0  0  0  0  0
   -2.4318    1.1383    5.7384 H   0  0  0  0  0  0  0  0  0  0  0  0
   -2.3116    1.5383    3.1570 N   0  0  0  0  0  0  0  0  0  0  0  0
   -2.0648    1.9643    1.8046 C   0  0  2  0  0  0  0  0  0  0  0  0
   -0.7298    1.3789    1.3634 C   0  0  0  0  0  0  0  0  0  0  0  0
    0.1423    1.0262    2.1547 O   0  0  0  0  0  0  0  0  0  0  0  0
   -2.0560    3.4811    1.6952 C   0  0  0  0  0  0  0  0  0  0  0  0
   -3.0767    1.9741    3.6688 H   0  0  0  0  0  0  0  0  0  0  0  0
   -2.8689    1.5458    1.1895 H   0  0  0  0  0  0  0  0  0  0  0  0
   -1.2569    3.9183    2.3049 H   0  0  0  0  0  0  0  0  0  0  0  0
   -1.8965    3.8033    0.6609 H   0  0  0  0  0  0  0  0  0  0  0  0
   -3.0062    3.9023    2.0409 H   0  0  0  0  0  0  0  0  0  0  0  0
   -0.6071    1.3358   -0.0200 N   0  0  0  0  0  0  0  0  0  0  0  0
    0.5702    0.8350   -0.6836 C   0  0  2  0  0  0  0  0  0  0  0  0
    1.1295    1.9732   -1.5297 C   0  0  0  0  0  0  0  0  0  0  0  0
    1.7712    2.9076   -1.0541 O   0  0  0  0  0  0  0  0  0  0  0  0
    0.2650   -0.3827   -1.5635 C   0  0  0  0  0  0  0  0  0  0  0  0
   -0.2142   -1.5723   -0.7678 C   0  0  0  0  0  0  0  0  0  0  0  0
    0.6244   -2.3426   -0.0124 N   0  0  0  0  0  0  0  0  0  0  0  0
   -1.4566   -2.1374   -0.6017 C   0  0  0  0  0  0  0  0  0  0  0  0
   -0.1311   -3.3235    0.5675 C   0  0  0  0  0  0  0  0  0  0  0  0
   -1.3981   -3.2270    0.2308 N   0  0  0  0  0  0  0  0  0  0  0  0
   -1.3903    1.6325   -0.5973 H   0  0  0  0  0  0  0  0  0  0  0  0
    1.2907    0.5858    0.1042 H   0  0  0  0  0  0  0  0  0  0  0  0
    1.1525   -0.6622   -2.1474 H   0  0  0  0  0  0  0  0  0  0  0  0
   -0.5032   -0.1352   -2.3080 H   0  0  0  0  0  0  0  0  0  0  0  0
    1.6217   -2.2142    0.0983 H   0  0  0  0  0  0  0  0  0  0  0  0
   -2.3918   -1.8170   -1.0382 H   0  0  0  0  0  0  0  0  0  0  0  0
    0.2997   -4.0704    1.2190 H   0  0  0  0  0  0  0  0  0  0  0  0
    0.8688    1.7929   -2.8809 N   0  0  0  0  0  0  0  0  0  0  0  0
    1.3085    2.7144   -3.9039 C   0  0  2  0  0  0  0  0  0  0  0  0
    0.8999    4.1186   -3.4790 C   0  0  0  0  0  0  0  0  0  0  0  0
   -0.0110    4.3405   -2.6840 O   0  0  0  0  0  0  0  0  0  0  0  0
    0.7144    2.3618   -5.2586 C   0  0  0  0  0  0  0  0  0  0  0  0
    0.3424    0.9720   -3.1652 H   0  0  0  0  0  0  0  0  0  0  0  0
    2.4013    2.6470   -3.9416 H   0  0  0  0  0  0  0  0  0  0  0  0
   -0.3799    2.4237   -5.2403 H   0  0  0  0  0  0  0  0  0  0  0  0
    1.0709    3.0436   -6.0378 H   0  0  0  0  0  0  0  0  0  0  0  0
    0.9846    1.3408   -5.5490 H   0  0  0  0  0  0  0  0  0  0  0  0
    1.6435    5.0964   -4.1249 N   0  0  0  0  0  0  0  0  0  0  0  0
    1.4367    6.5082   -3.9011 C   0  0  0  0  0  0  0  0  0  0  0  0
    2.3918    4.8209   -4.7541 H   0  0  0  0  0  0  0  0  0  0  0  0
    0.7235    6.8970   -4.6429 H   0  0  0  0  0  0  0  0  0  0  0  0
    1.0344    6.6638   -2.8892 H   0  0  0  0  0  0  0  0  0  0  0  0
    2.3948    7.0393   -4.0004 H   0  0  0  0  0  0  0  0  0  0  0  0
 22 24  2  0  0  0  0
 24 26  1  0  0  0  0
 25 26  2  0  0  0  0
 23 25  1  0  0  0  0
 21 22  1  0  0  0  0
 22 23  1  0  0  0  0
  1  3  1  0  0  0  0
  1  7  1  0  0  0  0
  1  2  2  0  0  0  0
 35 36  1  0  0  0  0
 36 44  1  0  0  0  0
 36 37  2  0  0  0  0
  8  9  1  0  0  0  0
  9 17  1  0  0  0  0
  9 10  2  0  0  0  0
 18 19  1  0  0  0  0
 19 34  1  0  0  0  0
 19 20  2  0  0  0  0
 35 38  1  0  0  0  0
  8 11  1  0  0  0  0
 44 45  1  0  0  0  0
 18 21  1  0  0  0  0
 34 35  1  0  0  0  0
  7  8  1  0  0  0  0
 17 18  1  0  0  0  0
 24 32  1  0  0  0  0
 25 33  1  0  0  0  0
  3  4  1  0  0  0  0
  3  5  1  0  0  0  0
  3  6  1  0  0  0  0
 38 41  1  0  0  0  0
 38 42  1  0  0  0  0
 38 43  1  0  0  0  0
 11 14  1  0  0  0  0
 11 15  1  0  0  0  0
 11 16  1  0  0  0  0
 45 47  1  0  0  0  0
 45 48  1  0  0  0  0
 45 49  1  0  0  0  0
 21 29  1  0  0  0  0
 21 30  1  0  0  0  0
 35 40  1  0  0  0  0
  8 13  1  0  0  0  0
 18 28  1  0  0  0  0
 23 31  1  0  0  0  0
 44 46  1  0  0  0  0
  7 12  1  0  0  0  0
 34 39  1  0  0  0  0
 17 27  1  0  0  0  0
M  END
$$$$

  -OEChem-05262214473D

 49 49  0     1  0  0  0  0  0999 V2000
   -1.5619    0.5658    3.7981 C   0  0  0  0  0  0  0  0  0  0  0  0
   -0.6145   -0.0489    3.3224 O   0  0  0  0  0  0  0  0  0  0  0  0
   -1.9938    0.2834    5.1988 C   0  0  0  0  0  0  0  0  0  0  0  0
   -2.7535   -0.5129    5.2522 H   0  0  0  0  0  0  0  0  0  0  0  0
   -1.1626   -0.0642    5.8331 H   0  0  0  0  0  0  0  0  0  0  0  0
   -2.4318    1.1383    5.7384 H   0  0  0  0  0  0  0  0  0  0  0  0
   -2.3116    1.5383    3.1570 N   0  0  0  0  0  0  0  0  0  0  0  0
   -2.0648    1.9643    1.8046 C   0  0  2  0  0  0  0  0  0  0  0  0
   -0.7298    1.3789    1.3634 C   0  0  0  0  0  0  0  0  0  0  0  0
    0.1423    1.0262    2.1547 O   0  0  0  0  0  0  0  0  0  0  0  0
   -2.0560    3.4811    1.6952 C   0  0  0  0  0  0  0  0  0  0  0  0
   -3.0767    1.9741    3.6688 H   0  0  0  0  0  0  0  0  0  0  0  0
   -2.8689    1.5458    1.1895 H   0  0  0  0  0  0  0  0  0  0  0  0
   -1.2569    3.9183    2.3049 H   0  0  0  0  0  0  0  0  0  0  0  0
   -1.8965    3.8033    0.6609 H   0  0  0  0  0  0  0  0  0  0  0  0
   -3.0062    3.9023    2.0409 H   0  0  0  0  0  0  0  0  0  0  0  0
   -0.6071    1.3358   -0.0200 N   0  0  0  0  0  0  0  0  0  0  0  0
    0.5702    0.8350   -0.6836 C   0  0  2  0  0  0  0  0  0  0  0  0
    1.1295    1.9732   -1.5297 C   0  0  0  0  0  0  0  0  0  0  0  0
    1.9838    2.7555   -1.1182 O   0  0  0  0  0  0  0  0  0  0  0  0
    0.2650   -0.3827   -1.5635 C   0  0  0  0  0  0  0  0  0  0  0  0
   -0.2142   -1.5723   -0.7678 C   0  0  0  0  0  0  0  0  0  0  0  0
    0.6244   -2.3426   -0.0124 N   0  0  0  0  0  0  0  0  0  0  0  0
   -1.4566   -2.1374   -0.6017 C   0  0  0  0  0  0  0  0  0  0  0  0
   -0.1311   -3.3235    0.5675 C   0  0  0  0  0  0  0  0  0  0  0  0
   -1.3981   -3.2270    0.2308 N   0  0  0  0  0  0  0  0  0  0  0  0
   -1.3903    1.6325   -0.5973 H   0  0  0  0  0  0  0  0  0  0  0  0
    1.2907    0.5858    0.1042 H   0  0  0  0  0  0  0  0  0  0  0  0
    1.1525   -0.6622   -2.1474 H   0  0  0  0  0  0  0  0  0  0  0  0
   -0.5032   -0.1352   -2.3080 H   0  0  0  0  0  0  0  0  0  0  0  0
    1.6217   -2.2142    0.0983 H   0  0  0  0  0  0  0  0  0  0  0  0
   -2.3918   -1.8170   -1.0382 H   0  0  0  0  0  0  0  0  0  0  0  0
    0.2997   -4.0704    1.2190 H   0  0  0  0  0  0  0  0  0  0  0  0
    0.5972    1.9781   -2.8115 N   0  0  0  0  0  0  0  0  0  0  0  0
    0.9743    2.9381   -3.8238 C   0  0  2  0  0  0  0  0  0  0  0  0
    0.8717    4.3298   -3.2137 C   0  0  0  0  0  0  0  0  0  0  0  0
    0.1697    4.5839   -2.2371 O   0  0  0  0  0  0  0  0  0  0  0  0
    0.0913    2.8185   -5.0562 C   0  0  0  0  0  0  0  0  0  0  0  0
   -0.0922    1.2712   -3.0501 H   0  0  0  0  0  0  0  0  0  0  0  0
    2.0175    2.7292   -4.0848 H   0  0  0  0  0  0  0  0  0  0  0  0
   -0.9577    3.0244   -4.8143 H   0  0  0  0  0  0  0  0  0  0  0  0
    0.3965    3.5270   -5.8333 H   0  0  0  0  0  0  0  0  0  0  0  0
    0.1434    1.8083   -5.4763 H   0  0  0  0  0  0  0  0  0  0  0  0
    1.6226    5.2634   -3.9141 N   0  0  0  0  0  0  0  0  0  0  0  0
    1.6795    6.6572   -3.5400 C   0  0  0  0  0  0  0  0  0  0  0  0
    2.1895    4.9602   -4.7006 H   0  0  0  0  0  0  0  0  0  0  0  0
    0.9086    7.2168   -4.0901 H   0  0  0  0  0  0  0  0  0  0  0  0
    1.5014    6.7541   -2.4589 H   0  0  0  0  0  0  0  0  0  0  0  0
    2.6721    7.0625   -3.7859 H   0  0  0  0  0  0  0  0  0  0  0  0
 22 24  2  0  0  0  0
 24 26  1  0  0  0  0
 25 26  2  0  0  0  0
 23 25  1  0  0  0  0
 21 22  1  0  0  0  0
 22 23  1  0  0  0  0
  1  3  1  0  0  0  0
  1  7  1  0  0  0  0
  1  2  2  0  0  0  0
 35 36  1  0  0  0  0
 36 44  1  0  0  0  0
 36 37  2  0  0  0  0
  8  9  1  0  0  0  0
  9 17  1  0  0  0  0
  9 10  2  0  0  0  0
 18 19  1  0  0  0  0
 19 34  1  0  0  0  0
 19 20  2  0  0  0  0
 35 38  1  0  0  0  0
  8 11  1  0  0  0  0
 44 45  1  0  0  0  0
 18 21  1  0  0  0  0
 34 35  1  0  0  0  0
  7  8  1  0  0  0  0
 17 18  1  0  0  0  0
 24 32  1  0  0  0  0
 25 33  1  0  0  0  0
  3  4  1  0  0  0  0
  3  5  1  0  0  0  0
  3  6  1  0  0  0  0
 38 41  1  0  0  0  0
 38 42  1  0  0  0  0
 38 43  1  0  0  0  0
 11 14  1  0  0  0  0
 11 15  1  0  0  0  0
 11 16  1  0  0  0  0
 45 47  1  0  0  0  0
 45 48  1  0  0  0  0
 45 49  1  0  0  0  0
 21 29  1  0  0  0  0
 21 30  1  0  0  0  0
 35 40  1  0  0  0  0
  8 13  1  0  0  0  0
 18 28  1  0  0  0  0
 23 31  1  0  0  0  0
 44 46  1  0  0  0  0
  7 12  1  0  0  0  0
 34 39  1  0  0  0  0
 17 27  1  0  0  0  0
M  END
$$$$

  -OEChem-05262214473D

 49 49  0     1  0  0  0  0  0999 V2000
   -1.5619    0.5658    3.7981 C   0  0  0  0  0  0  0  0  0  0  0  0
   -0.6145   -0.0489    3.3224 O   0  0  0  0  0  0  0  0  0  0  0  0
   -1.9938    0.2834    5.1988 C   0  0  0  0  0  0  0  0  0  0  0  0
   -2.7535   -0.5129    5.2522 H   0  0  0  0  0  0  0  0  0  0  0  0
   -1.1626   -0.0642    5.8331 H   0  0  0  0  0  0  0  0  0  0  0  0
   -2.4318    1.1383    5.7384 H   0  0  0  0  0  0  0  0  0  0  0  0
   -2.3116    1.5383    3.1570 N   0  0  0  0  0  0  0  0  0  0  0  0
   -2.0648    1.9643    1.8046 C   0  0  2  0  0  0  0  0  0  0  0  0
   -0.7298    1.3789    1.3634 C   0  0  0  0  0  0  0  0  0  0  0  0
    0.1423    1.0262    2.1547 O   0  0  0  0  0  0  0  0  0  0  0  0
   -2.0560    3.4811    1.6952 C   0  0  0  0  0  0  0  0  0  0  0  0
   -3.0767    1.9741    3.6688 H   0  0  0  0  0  0  0  0  0  0  0  0
   -2.8689    1.5458    1.1895 H   0  0  0  0  0  0  0  0  0  0  0  0
   -1.2569    3.9183    2.3049 H   0  0  0  0  0  0  0  0  0  0  0  0
   -1.8965    3.8033    0.6609 H   0  0  0  0  0  0  0  0  0  0  0  0
   -3.0062    3.9023    2.0409 H   0  0  0  0  0  0  0  0  0  0  0  0
   -0.6071    1.3358   -0.0200 N   0  0  0  0  0  0  0  0  0  0  0  0
    0.5702    0.8350   -0.6836 C   0  0  2  0  0  0  0  0  0  0  0  0
    1.1295    1.9732   -1.5297 C   0  0  0  0  0  0  0  0  0  0  0  0
    2.1549    2.5841   -1.2357 O   0  0  0  0  0  0  0  0  0  0  0  0
    0.2650   -0.3827   -1.5635 C   0  0  0  0  0  0  0  0  0  0  0  0
   -0.2142   -1.5723   -0.7678 C   0  0  0  0  0  0  0  0  0  0  0  0
    0.6244   -2.3426   -0.0124 N   0  0  0  0  0  0  0  0  0  0  0  0
   -1.4566   -2.1374   -0.6017 C   0  0  0  0  0  0  0  0  0  0  0  0
   -0.1311   -3.3235    0.5675 C   0  0  0  0  0  0  0  0  0  0  0  0
   -1.3981   -3.2270    0.2308 N   0  0  0  0  0  0  0  0  0  0  0  0
   -1.3903    1.6325   -0.5973 H   0  0  0  0  0  0  0  0  0  0  0  0
    1.2907    0.5858    0.1042 H   0  0  0  0  0  0  0  0  0  0  0  0
    1.1525   -0.6622   -2.1474 H   0  0  0  0  0  0  0  0  0  0  0  0
   -0.5032   -0.1352   -2.3080 H   0  0  0  0  0  0  0  0  0  0  0  0
    1.6217   -2.2142    0.0983 H   0  0  0  0  0  0  0  0  0  0  0  0
   -2.3918   -1.8170   -1.0382 H   0  0  0  0  0  0  0  0  0  0  0  0
    0.2997   -4.0704    1.2190 H   0  0  0  0  0  0  0  0  0  0  0  0
    0.3748    2.1893   -2.6743 N   0  0  0  0  0  0  0  0  0  0  0  0
    0.6991    3.1947   -3.6606 C   0  0  2  0  0  0  0  0  0  0  0  0
    0.9260    4.5125   -2.9318 C   0  0  0  0  0  0  0  0  0  0  0  0
    0.4655    4.7506   -1.8172 O   0  0  0  0  0  0  0  0  0  0  0  0
   -0.4057    3.3298   -4.6969 C   0  0  0  0  0  0  0  0  0  0  0  0
   -0.4468    1.6117   -2.8264 H   0  0  0  0  0  0  0  0  0  0  0  0
    1.6309    2.8772   -4.1412 H   0  0  0  0  0  0  0  0  0  0  0  0
   -1.3473    3.6471   -4.2340 H   0  0  0  0  0  0  0  0  0  0  0  0
   -0.1459    4.0715   -5.4594 H   0  0  0  0  0  0  0  0  0  0  0  0
   -0.5880    2.3737   -5.1992 H   0  0  0  0  0  0  0  0  0  0  0  0
    1.6671    5.4077   -3.6906 N   0  0  0  0  0  0  0  0  0  0  0  0
    2.0052    6.7320   -3.2240 C   0  0  0  0  0  0  0  0  0  0  0  0
    2.0244    5.1187   -4.5965 H   0  0  0  0  0  0  0  0  0  0  0  0
    1.2402    7.4467   -3.5616 H   0  0  0  0  0  0  0  0  0  0  0  0
    2.0486    6.7335   -2.1249 H   0  0  0  0  0  0  0  0  0  0  0  0
    2.9848    7.0247   -3.6300 H   0  0  0  0  0  0  0  0  0  0  0  0
 22 24  2  0  0  0  0
 24 26  1  0  0  0  0
 25 26  2  0  0  0  0
 23 25  1  0  0  0  0
 21 22  1  0  0  0  0
 22 23  1  0  0  0  0
  1  3  1  0  0  0  0
  1  7  1  0  0  0  0
  1  2  2  0  0  0  0
 35 36  1  0  0  0  0
 36 44  1  0  0  0  0
 36 37  2  0  0  0  0
  8  9  1  0  0  0  0
  9 17  1  0  0  0  0
  9 10  2  0  0  0  0
 18 19  1  0  0  0  0
 19 34  1  0  0  0  0
 19 20  2  0  0  0  0
 35 38  1  0  0  0  0
  8 11  1  0  0  0  0
 44 45  1  0  0  0  0
 18 21  1  0  0  0  0
 34 35  1  0  0  0  0
  7  8  1  0  0  0  0
 17 18  1  0  0  0  0
 24 32  1  0  0  0  0
 25 33  1  0  0  0  0
  3  4  1  0  0  0  0
  3  5  1  0  0  0  0
  3  6  1  0  0  0  0
 38 41  1  0  0  0  0
 38 42  1  0  0  0  0
 38 43  1  0  0  0  0
 11 14  1  0  0  0  0
 11 15  1  0  0  0  0
 11 16  1  0  0  0  0
 45 47  1  0  0  0  0
 45 48  1  0  0  0  0
 45 49  1  0  0  0  0
 21 29  1  0  0  0  0
 21 30  1  0  0  0  0
 35 40  1  0  0  0  0
  8 13  1  0  0  0  0
 18 28  1  0  0  0  0
 23 31  1  0  0  0  0
 44 46  1  0  0  0  0
  7 12  1  0  0  0  0
 34 39  1  0  0  0  0
 17 27  1  0  0  0  0
M  END
$$$$

  -OEChem-05262214473D

 49 49  0     1  0  0  0  0  0999 V2000
   -1.5619    0.5658    3.7981 C   0  0  0  0  0  0  0  0  0  0  0  0
   -0.6145   -0.0489    3.3224 O   0  0  0  0  0  0  0  0  0  0  0  0
   -1.9938    0.2834    5.1988 C   0  0  0  0  0  0  0  0  0  0  0  0
   -2.7535   -0.5129    5.2522 H   0  0  0  0  0  0  0  0  0  0  0  0
   -1.1626   -0.0642    5.8331 H   0  0  0  0  0  0  0  0  0  0  0  0
   -2.4318    1.1383    5.7384 H   0  0  0  0  0  0  0  0  0  0  0  0
   -2.3116    1.5383    3.1570 N   0  0  0  0  0  0  0  0  0  0  0  0
   -2.0648    1.9643    1.8046 C   0  0  2  0  0  0  0  0  0  0  0  0
   -0.7298    1.3789    1.3634 C   0  0  0  0  0  0  0  0  0  0  0  0
    0.1423    1.0262    2.1547 O   0  0  0  0  0  0  0  0  0  0  0  0
   -2.0560    3.4811    1.6952 C   0  0  0  0  0  0  0  0  0  0  0  0
   -3.0767    1.9741    3.6688 H   0  0  0  0  0  0  0  0  0  0  0  0
   -2.8689    1.5458    1.1895 H   0  0  0  0  0  0  0  0  0  0  0  0
   -1.2569    3.9183    2.3049 H   0  0  0  0  0  0  0  0  0  0  0  0
   -1.8965    3.8033    0.6609 H   0  0  0  0  0  0  0  0  0  0  0  0
   -3.0062    3.9023    2.0409 H   0  0  0  0  0  0  0  0  0  0  0  0
   -0.6071    1.3358   -0.0200 N   0  0  0  0  0  0  0  0  0  0  0  0
    0.5702    0.8350   -0.6836 C   0  0  2  0  0  0  0  0  0  0  0  0
    1.1295    1.9732   -1.5297 C   0  0  0  0  0  0  0  0  0  0  0  0
    2.2729    2.4051   -1.3985 O   0  0  0  0  0  0  0  0  0  0  0  0
    0.2650   -0.3827   -1.5635 C   0  0  0  0  0  0  0  0  0  0  0  0
   -0.2142   -1.5723   -0.7678 C   0  0  0  0  0  0  0  0  0  0  0  0
    0.6244   -2.3426   -0.0124 N   0  0  0  0  0  0  0  0  0  0  0  0
   -1.4566   -2.1374   -0.6017 C   0  0  0  0  0  0  0  0  0  0  0  0
   -0.1311   -3.3235    0.5675 C   0  0  0  0  0  0  0  0  0  0  0  0
   -1.3981   -3.2270    0.2308 N   0  0  0  0  0  0  0  0  0  0  0  0
   -1.3903    1.6325   -0.5973 H   0  0  0  0  0  0  0  0  0  0  0  0
    1.2907    0.5858    0.1042 H   0  0  0  0  0  0  0  0  0  0  0  0
    1.1525   -0.6622   -2.1474 H   0  0  0  0  0  0  0  0  0  0  0  0
   -0.5032   -0.1352   -2.3080 H   0  0  0  0  0  0  0  0  0  0  0  0
    1.6217   -2.2142    0.0983 H   0  0  0  0  0  0  0  0  0  0  0  0
   -2.3918   -1.8170   -1.0382 H   0  0  0  0  0  0  0  0  0  0  0  0
    0.2997   -4.0704    1.2190 H   0  0  0  0  0  0  0  0  0  0  0  0
    0.2169    2.4122   -2.4788 N   0  0  0  0  0  0  0  0  0  0  0  0
    0.5016    3.4665   -3.4255 C   0  0  2  0  0  0  0  0  0  0  0  0
    1.0592    4.6545   -2.6527 C   0  0  0  0  0  0  0  0  0  0  0  0
    0.8564    4.8293   -1.4530 O   0  0  0  0  0  0  0  0  0  0  0  0
   -0.7430    3.8610   -4.2052 C   0  0  0  0  0  0  0  0  0  0  0  0
   -0.6972    1.9703   -2.5095 H   0  0  0  0  0  0  0  0  0  0  0  0
    1.2679    3.0811   -4.1069 H   0  0  0  0  0  0  0  0  0  0  0  0
   -1.5220    4.2495   -3.5391 H   0  0  0  0  0  0  0  0  0  0  0  0
   -0.5195    4.6398   -4.9418 H   0  0  0  0  0  0  0  0  0  0  0  0
   -1.1598    2.9986   -4.7365 H   0  0  0  0  0  0  0  0  0  0  0  0
    1.7740    5.5194   -3.4696 N   0  0  0  0  0  0  0  0  0  0  0  0
    2.3917    6.7275   -2.9747 C   0  0  0  0  0  0  0  0  0  0  0  0
    1.9078    5.2856   -4.4490 H   0  0  0  0  0  0  0  0  0  0  0  0
    1.6956    7.5710   -3.0934 H   0  0  0  0  0  0  0  0  0  0  0  0
    2.6387    6.6032   -1.9100 H   0  0  0  0  0  0  0  0  0  0  0  0
    3.3115    6.9285   -3.5435 H   0  0  0  0  0  0  0  0  0  0  0  0
 22 24  2  0  0  0  0
 24 26  1  0  0  0  0
 25 26  2  0  0  0  0
 23 25  1  0  0  0  0
 21 22  1  0  0  0  0
 22 23  1  0  0  0  0
  1  3  1  0  0  0  0
  1  7  1  0  0  0  0
  1  2  2  0  0  0  0
 35 36  1  0  0  0  0
 36 44  1  0  0  0  0
 36 37  2  0  0  0  0
  8  9  1  0  0  0  0
  9 17  1  0  0  0  0
  9 10  2  0  0  0  0
 18 19  1  0  0  0  0
 19 34  1  0  0  0  0
 19 20  2  0  0  0  0
 35 38  1  0  0  0  0
  8 11  1  0  0  0  0
 44 45  1  0  0  0  0
 18 21  1  0  0  0  0
 34 35  1  0  0  0  0
  7  8  1  0  0  0  0
 17 18  1  0  0  0  0
 24 32  1  0  0  0  0
 25 33  1  0  0  0  0
  3  4  1  0  0  0  0
  3  5  1  0  0  0  0
  3  6  1  0  0  0  0
 38 41  1  0  0  0  0
 38 42  1  0  0  0  0
 38 43  1  0  0  0  0
 11 14  1  0  0  0  0
 11 15  1  0  0  0  0
 11 16  1  0  0  0  0
 45 47  1  0  0  0  0
 45 48  1  0  0  0  0
 45 49  1  0  0  0  0
 21 29  1  0  0  0  0
 21 30  1  0  0  0  0
 35 40  1  0  0  0  0
  8 13  1  0  0  0  0
 18 28  1  0  0  0  0
 23 31  1  0  0  0  0
 44 46  1  0  0  0  0
  7 12  1  0  0  0  0
 34 39  1  0  0  0  0
 17 27  1  0  0  0  0
M  END
$$$$

  -OEChem-05262214473D

 49 49  0     1  0  0  0  0  0999 V2000
   -1.5619    0.5658    3.7981 C   0  0  0  0  0  0  0  0  0  0  0  0
   -0.6145   -0.0489    3.3224 O   0  0  0  0  0  0  0  0  0  0  0  0
   -1.9938    0.2834    5.1988 C   0  0  0  0  0  0  0  0  0  0  0  0
   -2.7535   -0.5129    5.2522 H   0  0  0  0  0  0  0  0  0  0  0  0
   -1.1626   -0.0642    5.8331 H   0  0  0  0  0  0  0  0  0  0  0  0
   -2.4318    1.1383    5.7384 H   0  0  0  0  0  0  0  0  0  0  0  0
   -2.3116    1.5383    3.1570 N   0  0  0  0  0  0  0  0  0  0  0  0
   -2.0648    1.9643    1.8046 C   0  0  2  0  0  0  0  0  0  0  0  0
   -0.7298    1.3789    1.3634 C   0  0  0  0  0  0  0  0  0  0  0  0
    0.1423    1.0262    2.1547 O   0  0  0  0  0  0  0  0  0  0  0  0
   -2.0560    3.4811    1.6952 C   0  0  0  0  0  0  0  0  0  0  0  0
   -3.0767    1.9741    3.6688 H   0  0  0  0  0  0  0  0  0  0  0  0
   -2.8689    1.5458    1.1895 H   0  0  0  0  0  0  0  0  0  0  0  0
   -1.2569    3.9183    2.3049 H   0  0  0  0  0  0  0  0  0  0  0  0
   -1.8965    3.8033    0.6609 H   0  0  0  0  0  0  0  0  0  0  0  0
   -3.0062    3.9023    2.0409 H   0  0  0  0  0  0  0  0  0  0  0  0
   -0.6071    1.3358   -0.0200 N   0  0  0  0  0  0  0  0  0  0  0  0
    0.5702    0.8350   -0.6836 C   0  0  2  0  0  0  0  0  0  0  0  0
    1.1295    1.9732   -1.5297 C   0  0  0  0  0  0  0  0  0  0  0  0
    2.3296    2.2307   -1.5955 O   0  0  0  0  0  0  0  0  0  0  0  0
    0.2650   -0.3827   -1.5635 C   0  0  0  0  0  0  0  0  0  0  0  0
   -0.2142   -1.5723   -0.7678 C   0  0  0  0  0  0  0  0  0  0  0  0
    0.6244   -2.3426   -0.0124 N   0  0  0  0  0  0  0  0  0  0  0  0
   -1.4566   -2.1374   -0.6017 C   0  0  0  0  0  0  0  0  0  0  0  0
   -0.1311   -3.3235    0.5675 C   0  0  0  0  0  0  0  0  0  0  0  0
   -1.3981   -3.2270    0.2308 N   0  0  0  0  0  0  0  0  0  0  0  0
   -1.3903    1.6325   -0.5973 H   0  0  0  0  0  0  0  0  0  0  0  0
    1.2907    0.5858    0.1042 H   0  0  0  0  0  0  0  0  0  0  0  0
    1.1525   -0.6622   -2.1474 H   0  0  0  0  0  0  0  0  0  0  0  0
   -0.5032   -0.1352   -2.3080 H   0  0  0  0  0  0  0  0  0  0  0  0
    1.6217   -2.2142    0.0983 H   0  0  0  0  0  0  0  0  0  0  0  0
   -2.3918   -1.8170   -1.0382 H   0  0  0  0  0  0  0  0  0  0  0  0
    0.2997   -4.0704    1.2190 H   0  0  0  0  0  0  0  0  0  0  0  0
    0.1341    2.6317   -2.2382 N   0  0  0  0  0  0  0  0  0  0  0  0
    0.3953    3.7351   -3.1344 C   0  0  2  0  0  0  0  0  0  0  0  0
    1.2622    4.7460   -2.3954 C   0  0  0  0  0  0  0  0  0  0  0  0
    1.3156    4.8145   -1.1692 O   0  0  0  0  0  0  0  0  0  0  0  0
   -0.8975    4.3759   -3.6146 C   0  0  0  0  0  0  0  0  0  0  0  0
   -0.8263    2.3226   -2.1210 H   0  0  0  0  0  0  0  0  0  0  0  0
    0.9531    3.3270   -3.9843 H   0  0  0  0  0  0  0  0  0  0  0  0
   -1.4700    4.7905   -2.7769 H   0  0  0  0  0  0  0  0  0  0  0  0
   -0.6987    5.1932   -4.3157 H   0  0  0  0  0  0  0  0  0  0  0  0
   -1.5328    3.6403   -4.1197 H   0  0  0  0  0  0  0  0  0  0  0  0
    1.9360    5.5910   -3.2662 N   0  0  0  0  0  0  0  0  0  0  0  0
    2.8125    6.6439   -2.8089 C   0  0  0  0  0  0  0  0  0  0  0  0
    1.8476    5.4496   -4.2681 H   0  0  0  0  0  0  0  0  0  0  0  0
    2.2438    7.5811   -2.7173 H   0  0  0  0  0  0  0  0  0  0  0  0
    3.2316    6.3722   -1.8288 H   0  0  0  0  0  0  0  0  0  0  0  0
    3.6299    6.7804   -3.5322 H   0  0  0  0  0  0  0  0  0  0  0  0
 22 24  2  0  0  0  0
 24 26  1  0  0  0  0
 25 26  2  0  0  0  0
 23 25  1  0  0  0  0
 21 22  1  0  0  0  0
 22 23  1  0  0  0  0
  1  3  1  0  0  0  0
  1  7  1  0  0  0  0
  1  2  2  0  0  0  0
 35 36  1  0  0  0  0
 36 44  1  0  0  0  0
 36 37  2  0  0  0  0
  8  9  1  0  0  0  0
  9 17  1  0  0  0  0
  9 10  2  0  0  0  0
 18 19  1  0  0  0  0
 19 34  1  0  0  0  0
 19 20  2  0  0  0  0
 35 38  1  0  0  0  0
  8 11  1  0  0  0  0
 44 45  1  0  0  0  0
 18 21  1  0  0  0  0
 34 35  1  0  0  0  0
  7  8  1  0  0  0  0
 17 18  1  0  0  0  0
 24 32  1  0  0  0  0
 25 33  1  0  0  0  0
  3  4  1  0  0  0  0
  3  5  1  0  0  0  0
  3  6  1  0  0  0  0
 38 41  1  0  0  0  0
 38 42  1  0  0  0  0
 38 43  1  0  0  0  0
 11 14  1  0  0  0  0
 11 15  1  0  0  0  0
 11 16  1  0  0  0  0
 45 47  1  0  0  0  0
 45 48  1  0  0  0  0
 45 49  1  0  0  0  0
 21 29  1  0  0  0  0
 21 30  1  0  0  0  0
 35 40  1  0  0  0  0
  8 13  1  0  0  0  0
 18 28  1  0  0  0  0
 23 31  1  0  0  0  0
 44 46  1  0  0  0  0
  7 12  1  0  0  0  0
 34 39  1  0  0  0  0
 17 27  1  0  0  0  0
M  END
$$$$

  -OEChem-05262214473D

 49 49  0     1  0  0  0  0  0999 V2000
   -1.5619    0.5658    3.7981 C   0  0  0  0  0  0  0  0  0  0  0  0
   -0.6145   -0.0489    3.3224 O   0  0  0  0  0  0  0  0  0  0  0  0
   -1.9938    0.2834    5.1988 C   0  0  0  0  0  0  0  0  0  0  0  0
   -2.7535   -0.5129    5.2522 H   0  0  0  0  0  0  0  0  0  0  0  0
   -1.1626   -0.0642    5.8331 H   0  0  0  0  0  0  0  0  0  0  0  0
   -2.4318    1.1383    5.7384 H   0  0  0  0  0  0  0  0  0  0  0  0
   -2.3116    1.5383    3.1570 N   0  0  0  0  0  0  0  0  0  0  0  0
   -2.0648    1.9643    1.8046 C   0  0  2  0  0  0  0  0  0  0  0  0
   -0.7298    1.3789    1.3634 C   0  0  0  0  0  0  0  0  0  0  0  0
    0.1423    1.0262    2.1547 O   0  0  0  0  0  0  0  0  0  0  0  0
   -2.0560    3.4811    1.6952 C   0  0  0  0  0  0  0  0  0  0  0  0
   -3.0767    1.9741    3.6688 H   0  0  0  0  0  0  0  0  0  0  0  0
   -2.8689    1.5458    1.1895 H   0  0  0  0  0  0  0  0  0  0  0  0
   -1.2569    3.9183    2.3049 H   0  0  0  0  0  0  0  0  0  0  0  0
   -1.8965    3.8033    0.6609 H   0  0  0  0  0  0  0  0  0  0  0  0
   -3.0062    3.9023    2.0409 H   0  0  0  0  0  0  0  0  0  0  0  0
   -0.6071    1.3358   -0.0200 N   0  0  0  0  0  0  0  0  0  0  0  0
    0.5702    0.8350   -0.6836 C   0  0  2  0  0  0  0  0  0  0  0  0
    1.1295    1.9732   -1.5297 C   0  0  0  0  0  0  0  0  0  0  0  0
    2.3214    2.0729   -1.8134 O   0  0  0  0  0  0  0  0  0  0  0  0
    0.2650   -0.3827   -1.5635 C   0  0  0  0  0  0  0  0  0  0  0  0
   -0.2142   -1.5723   -0.7678 C   0  0  0  0  0  0  0  0  0  0  0  0
    0.6244   -2.3426   -0.0124 N   0  0  0  0  0  0  0  0  0  0  0  0
   -1.4566   -2.1374   -0.6017 C   0  0  0  0  0  0  0  0  0  0  0  0
   -0.1311   -3.3235    0.5675 C   0  0  0  0  0  0  0  0  0  0  0  0
   -1.3981   -3.2270    0.2308 N   0  0  0  0  0  0  0  0  0  0  0  0
   -1.3903    1.6325   -0.5973 H   0  0  0  0  0  0  0  0  0  0  0  0
    1.2907    0.5858    0.1042 H   0  0  0  0  0  0  0  0  0  0  0  0
    1.1525   -0.6622   -2.1474 H   0  0  0  0  0  0  0  0  0  0  0  0
   -0.5032   -0.1352   -2.3080 H   0  0  0  0  0  0  0  0  0  0  0  0
    1.6217   -2.2142    0.0983 H   0  0  0  0  0  0  0  0  0  0  0  0
   -2.3918   -1.8170   -1.0382 H   0  0  0  0  0  0  0  0  0  0  0  0
    0.2997   -4.0704    1.2190 H   0  0  0  0  0  0  0  0  0  0  0  0
    0.1322    2.8328   -1.9690 N   0  0  0  0  0  0  0  0  0  0  0  0
    0.3875    3.9822   -2.8071 C   0  0  2  0  0  0  0  0  0  0  0  0
    1.5211    4.7808   -2.1774 C   0  0  0  0  0  0  0  0  0  0  0  0
    1.8118    4.7074   -0.9853 O   0  0  0  0  0  0  0  0  0  0  0  0
   -0.8586    4.8393   -2.9655 C   0  0  0  0  0  0  0  0  0  0  0  0
   -0.8254    2.6445   -1.6873 H   0  0  0  0  0  0  0  0  0  0  0  0
    0.7081    3.5980   -3.7816 H   0  0  0  0  0  0  0  0  0  0  0  0
   -1.1948    5.2331   -1.9994 H   0  0  0  0  0  0  0  0  0  0  0  0
   -0.6712    5.6941   -3.6237 H   0  0  0  0  0  0  0  0  0  0  0  0
   -1.6819    4.2553   -3.3909 H   0  0  0  0  0  0  0  0  0  0  0  0
    2.1421    5.6175   -3.0942 N   0  0  0  0  0  0  0  0  0  0  0  0
    3.2390    6.4870   -2.7380 C   0  0  0  0  0  0  0  0  0  0  0  0
    1.8480    5.5994   -4.0663 H   0  0  0  0  0  0  0  0  0  0  0  0
    2.8475    7.4764   -2.4589 H   0  0  0  0  0  0  0  0  0  0  0  0
    3.7867    6.0562   -1.8869 H   0  0  0  0  0  0  0  0  0  0  0  0
    3.9184    6.5905   -3.5968 H   0  0  0  0  0  0  0  0  0  0  0  0
 22 24  2  0  0  0  0
 24 26  1  0  0  0  0
 25 26  2  0  0  0  0
 23 25  1  0  0  0  0
 21 22  1  0  0  0  0
 22 23  1  0  0  0  0
  1  3  1  0  0  0  0
  1  7  1  0  0  0  0
  1  2  2  0  0  0  0
 35 36  1  0  0  0  0
 36 44  1  0  0  0  0
 36 37  2  0  0  0  0
  8  9  1  0  0  0  0
  9 17  1  0  0  0  0
  9 10  2  0  0  0  0
 18 19  1  0  0  0  0
 19 34  1  0  0  0  0
 19 20  2  0  0  0  0
 35 38  1  0  0  0  0
  8 11  1  0  0  0  0
 44 45  1  0  0  0  0
 18 21  1  0  0  0  0
 34 35  1  0  0  0  0
  7  8  1  0  0  0  0
 17 18  1  0  0  0  0
 24 32  1  0  0  0  0
 25 33  1  0  0  0  0
  3  4  1  0  0  0  0
  3  5  1  0  0  0  0
  3  6  1  0  0  0  0
 38 41  1  0  0  0  0
 38 42  1  0  0  0  0
 38 43  1  0  0  0  0
 11 14  1  0  0  0  0
 11 15  1  0  0  0  0
 11 16  1  0  0  0  0
 45 47  1  0  0  0  0
 45 48  1  0  0  0  0
 45 49  1  0  0  0  0
 21 29  1  0  0  0  0
 21 30  1  0  0  0  0
 35 40  1  0  0  0  0
  8 13  1  0  0  0  0
 18 28  1  0  0  0  0
 23 31  1  0  0  0  0
 44 46  1  0  0  0  0
  7 12  1  0  0  0  0
 34 39  1  0  0  0  0
 17 27  1  0  0  0  0
M  END
$$$$

  -OEChem-05262214473D

 49 49  0     1  0  0  0  0  0999 V2000
   -1.5619    0.5658    3.7981 C   0  0  0  0  0  0  0  0  0  0  0  0
   -0.6145   -0.0489    3.3224 O   0  0  0  0  0  0  0  0  0  0  0  0
   -1.9938    0.2834    5.1988 C   0  0  0  0  0  0  0  0  0  0  0  0
   -2.7535   -0.5129    5.2522 H   0  0  0  0  0  0  0  0  0  0  0  0
   -1.1626   -0.0642    5.8331 H   0  0  0  0  0  0  0  0  0  0  0  0
   -2.4318    1.1383    5.7384 H   0  0  0  0  0  0  0  0  0  0  0  0
   -2.3116    1.5383    3.1570 N   0  0  0  0  0  0  0  0  0  0  0  0
   -2.0648    1.9643    1.8046 C   0  0  2  0  0  0  0  0  0  0  0  0
   -0.7298    1.3789    1.3634 C   0  0  0  0  0  0  0  0  0  0  0  0
    0.1423    1.0262    2.1547 O   0  0  0  0  0  0  0  0  0  0  0  0
   -2.0560    3.4811    1.6952 C   0  0  0  0  0  0  0  0  0  0  0  0
   -3.0767    1.9741    3.6688 H   0  0  0  0  0  0  0  0  0  0  0  0
   -2.8689    1.5458    1.1895 H   0  0  0  0  0  0  0  0  0  0  0  0
   -1.2569    3.9183    2.3049 H   0  0  0  0  0  0  0  0  0  0  0  0
   -1.8965    3.8033    0.6609 H   0  0  0  0  0  0  0  0  0  0  0  0
   -3.0062    3.9023    2.0409 H   0  0  0  0  0  0  0  0  0  0  0  0
   -0.6071    1.3358   -0.0200 N   0  0  0  0  0  0  0  0  0  0  0  0
    0.5702    0.8350   -0.6836 C   0  0  2  0  0  0  0  0  0  0  0  0
    1.1295    1.9732   -1.5297 C   0  0  0  0  0  0  0  0  0  0  0  0
    2.2486    1.9422   -2.0372 O   0  0  0  0  0  0  0  0  0  0  0  0
    0.2650   -0.3827   -1.5635 C   0  0  0  0  0  0  0  0  0  0  0  0
   -0.2142   -1.5723   -0.7678 C   0  0  0  0  0  0  0  0  0  0  0  0
    0.6244   -2.3426   -0.0124 N   0  0  0  0  0  0  0  0  0  0  0  0
   -1.4566   -2.1374   -0.6017 C   0  0  0  0  0  0  0  0  0  0  0  0
   -0.1311   -3.3235    0.5675 C   0  0  0  0  0  0  0  0  0  0  0  0
   -1.3981   -3.2270    0.2308 N   0  0  0  0  0  0  0  0  0  0  0  0
   -1.3903    1.6325   -0.5973 H   0  0  0  0  0  0  0  0  0  0  0  0
    1.2907    0.5858    0.1042 H   0  0  0  0  0  0  0  0  0  0  0  0
    1.1525   -0.6622   -2.1474 H   0  0  0  0  0  0  0  0  0  0  0  0
   -0.5032   -0.1352   -2.3080 H   0  0  0  0  0  0  0  0  0  0  0  0
    1.6217   -2.2142    0.0983 H   0  0  0  0  0  0  0  0  0  0  0  0
   -2.3918   -1.8170   -1.0382 H   0  0  0  0  0  0  0  0  0  0  0  0
    0.2997   -4.0704    1.2190 H   0  0  0  0  0  0  0  0  0  0  0  0
    0.2112    3.0017   -1.6895 N   0  0  0  0  0  0  0  0  0  0  0  0
    0.4787    4.1908   -2.4661 C   0  0  2  0  0  0  0  0  0  0  0  0
    1.8184    4.7566   -2.0135 C   0  0  0  0  0  0  0  0  0  0  0  0
    2.3114    4.5151   -0.9136 O   0  0  0  0  0  0  0  0  0  0  0  0
   -0.6291    5.2197   -2.3019 C   0  0  0  0  0  0  0  0  0  0  0  0
   -0.6944    2.9141   -1.2380 H   0  0  0  0  0  0  0  0  0  0  0  0
    0.5495    3.8757   -3.5128 H   0  0  0  0  0  0  0  0  0  0  0  0
   -0.7151    5.5474   -1.2595 H   0  0  0  0  0  0  0  0  0  0  0  0
   -0.4391    6.1082   -2.9131 H   0  0  0  0  0  0  0  0  0  0  0  0
   -1.5966    4.8014   -2.5998 H   0  0  0  0  0  0  0  0  0  0  0  0
    2.3782    5.5972   -2.9654 N   0  0  0  0  0  0  0  0  0  0  0  0
    3.6421    6.2675   -2.7668 C   0  0  0  0  0  0  0  0  0  0  0  0
    1.9090    5.7250   -3.8571 H   0  0  0  0  0  0  0  0  0  0  0  0
    3.4655    7.2641   -2.3360 H   0  0  0  0  0  0  0  0  0  0  0  0
    4.2664    5.6767   -2.0803 H   0  0  0  0  0  0  0  0  0  0  0  0
    4.1574    6.3719   -3.7331 H   0  0  0  0  0  0  0  0  0  0  0  0
 22 24  2  0  0  0  0
 24 26  1  0  0  0  0
 25 26  2  0  0  0  0
 23 25  1  0  0  0  0
 21 22  1  0  0  0  0
 22 23  1  0  0  0  0
  1  3  1  0  0  0  0
  1  7  1  0  0  0  0
  1  2  2  0  0  0  0
 35 36  1  0  0  0  0
 36 44  1  0  0  0  0
 36 37  2  0  0  0  0
  8  9  1  0  0  0  0
  9 17  1  0  0  0  0
  9 10  2  0  0  0  0
 18 19  1  0  0  0  0
 19 34  1  0  0  0  0
 19 20  2  0  0  0  0
 35 38  1  0  0  0  0
  8 11  1  0  0  0  0
 44 45  1  0  0  0  0
 18 21  1  0  0  0  0
 34 35  1  0  0  0  0
  7  8  1  0  0  0  0
 17 18  1  0  0  0  0
 24 32  1  0  0  0  0
 25 33  1  0  0  0  0
  3  4  1  0  0  0  0
  3  5  1  0  0  0  0
  3  6  1  0  0  0  0
 38 41  1  0  0  0  0
 38 42  1  0  0  0  0
 38 43  1  0  0  0  0
 11 14  1  0  0  0  0
 11 15  1  0  0  0  0
 11 16  1  0  0  0  0
 45 47  1  0  0  0  0
 45 48  1  0  0  0  0
 45 49  1  0  0  0  0
 21 29  1  0  0  0  0
 21 30  1  0  0  0  0
 35 40  1  0  0  0  0
  8 13  1  0  0  0  0
 18 28  1  0  0  0  0
 23 31  1  0  0  0  0
 44 46  1  0  0  0  0
  7 12  1  0  0  0  0
 34 39  1  0  0  0  0
 17 27  1  0  0  0  0
M  END
$$$$

  -OEChem-05262214473D

 49 49  0     1  0  0  0  0  0999 V2000
   -1.5619    0.5658    3.7981 C   0  0  0  0  0  0  0  0  0  0  0  0
   -0.6145   -0.0489    3.3224 O   0  0  0  0  0  0  0  0  0  0  0  0
   -1.9938    0.2834    5.1988 C   0  0  0  0  0  0  0  0  0  0  0  0
   -2.7535   -0.5129    5.2522 H   0  0  0  0  0  0  0  0  0  0  0  0
   -1.1626   -0.0642    5.8331 H   0  0  0  0  0  0  0  0  0  0  0  0
   -2.4318    1.1383    5.7384 H   0  0  0  0  0  0  0  0  0  0  0  0
   -2.3116    1.5383    3.1570 N   0  0  0  0  0  0  0  0  0  0  0  0
   -2.0648    1.9643    1.8046 C   0  0  2  0  0  0  0  0  0  0  0  0
   -0.7298    1.3789    1.3634 C   0  0  0  0  0  0  0  0  0  0  0  0
    0.1423    1.0262    2.1547 O   0  0  0  0  0  0  0  0  0  0  0  0
   -2.0560    3.4811    1.6952 C   0  0  0  0  0  0  0  0  0  0  0  0
   -3.0767    1.9741    3.6688 H   0  0  0  0  0  0  0  0  0  0  0  0
   -2.8689    1.5458    1.1895 H   0  0  0  0  0  0  0  0  0  0  0  0
   -1.2569    3.9183    2.3049 H   0  0  0  0  0  0  0  0  0  0  0  0
   -1.8965    3.8033    0.6609 H   0  0  0  0  0  0  0  0  0  0  0  0
   -3.0062    3.9023    2.0409 H   0  0  0  0  0  0  0  0  0  0  0  0
   -0.6071    1.3358   -0.0200 N   0  0  0  0  0  0  0  0  0  0  0  0
    0.5702    0.8350   -0.6836 C   0  0  2  0  0  0  0  0  0  0  0  0
    1.1295    1.9732   -1.5297 C   0  0  0  0  0  0  0  0  0  0  0  0
    2.1163    1.8478   -2.2518 O   0  0  0  0  0  0  0  0  0  0  0  0
    0.2650   -0.3827   -1.5635 C   0  0  0  0  0  0  0  0  0  0  0  0
   -0.2142   -1.5723   -0.7678 C   0  0  0  0  0  0  0  0  0  0  0  0
    0.6244   -2.3426   -0.0124 N   0  0  0  0  0  0  0  0  0  0  0  0
   -1.4566   -2.1374   -0.6017 C   0  0  0  0  0  0  0  0  0  0  0  0
   -0.1311   -3.3235    0.5675 C   0  0  0  0  0  0  0  0  0  0  0  0
   -1.3981   -3.2270    0.2308 N   0  0  0  0  0  0  0  0  0  0  0  0
   -1.3903    1.6325   -0.5973 H   0  0  0  0  0  0  0  0  0  0  0  0
    1.2907    0.5858    0.1042 H   0  0  0  0  0  0  0  0  0  0  0  0
    1.1525   -0.6622   -2.1474 H   0  0  0  0  0  0  0  0  0  0  0  0
   -0.5032   -0.1352   -2.3080 H   0  0  0  0  0  0  0  0  0  0  0  0
    1.6217   -2.2142    0.0983 H   0  0  0  0  0  0  0  0  0  0  0  0
   -2.3918   -1.8170   -1.0382 H   0  0  0  0  0  0  0  0  0  0  0  0
    0.2997   -4.0704    1.2190 H   0  0  0  0  0  0  0  0  0  0  0  0
    0.3658    3.1269   -1.4188 N   0  0  0  0  0  0  0  0  0  0  0  0
    0.6627    4.3469   -2.1344 C   0  0  2  0  0  0  0  0  0  0  0  0
    2.1337    4.6749   -1.9150 C   0  0  0  0  0  0  0  0  0  0  0  0
    2.7801    4.2509   -0.9592 O   0  0  0  0  0  0  0  0  0  0  0  0
   -0.2245    5.4911   -1.6692 C   0  0  0  0  0  0  0  0  0  0  0  0
   -0.4424    3.1130   -0.8037 H   0  0  0  0  0  0  0  0  0  0  0  0
    0.4882    4.1413   -3.1961 H   0  0  0  0  0  0  0  0  0  0  0  0
   -0.0637    5.7117   -0.6077 H   0  0  0  0  0  0  0  0  0  0  0  0
   -0.0181    6.4074   -2.2321 H   0  0  0  0  0  0  0  0  0  0  0  0
   -1.2830    5.2416   -1.8002 H   0  0  0  0  0  0  0  0  0  0  0  0
    2.6283    5.5315   -2.8885 N   0  0  0  0  0  0  0  0  0  0  0  0
    3.9944    6.0002   -2.8934 C   0  0  0  0  0  0  0  0  0  0  0  0
    2.0262    5.8176   -3.6550 H   0  0  0  0  0  0  0  0  0  0  0  0
    4.0557    6.9585   -2.3569 H   0  0  0  0  0  0  0  0  0  0  0  0
    4.6378    5.2597   -2.3958 H   0  0  0  0  0  0  0  0  0  0  0  0
    4.3304    6.1392   -3.9316 H   0  0  0  0  0  0  0  0  0  0  0  0
 22 24  2  0  0  0  0
 24 26  1  0  0  0  0
 25 26  2  0  0  0  0
 23 25  1  0  0  0  0
 21 22  1  0  0  0  0
 22 23  1  0  0  0  0
  1  3  1  0  0  0  0
  1  7  1  0  0  0  0
  1  2  2  0  0  0  0
 35 36  1  0  0  0  0
 36 44  1  0  0  0  0
 36 37  2  0  0  0  0
  8  9  1  0  0  0  0
  9 17  1  0  0  0  0
  9 10  2  0  0  0  0
 18 19  1  0  0  0  0
 19 34  1  0  0  0  0
 19 20  2  0  0  0  0
 35 38  1  0  0  0  0
  8 11  1  0  0  0  0
 44 45  1  0  0  0  0
 18 21  1  0  0  0  0
 34 35  1  0  0  0  0
  7  8  1  0  0  0  0
 17 18  1  0  0  0  0
 24 32  1  0  0  0  0
 25 33  1  0  0  0  0
  3  4  1  0  0  0  0
  3  5  1  0  0  0  0
  3  6  1  0  0  0  0
 38 41  1  0  0  0  0
 38 42  1  0  0  0  0
 38 43  1  0  0  0  0
 11 14  1  0  0  0  0
 11 15  1  0  0  0  0
 11 16  1  0  0  0  0
 45 47  1  0  0  0  0
 45 48  1  0  0  0  0
 45 49  1  0  0  0  0
 21 29  1  0  0  0  0
 21 30  1  0  0  0  0
 35 40  1  0  0  0  0
  8 13  1  0  0  0  0
 18 28  1  0  0  0  0
 23 31  1  0  0  0  0
 44 46  1  0  0  0  0
  7 12  1  0  0  0  0
 34 39  1  0  0  0  0
 17 27  1  0  0  0  0
M  END
$$$$

  -OEChem-05262214473D

 49 49  0     1  0  0  0  0  0999 V2000
   -1.5619    0.5658    3.7981 C   0  0  0  0  0  0  0  0  0  0  0  0
   -0.6145   -0.0489    3.3224 O   0  0  0  0  0  0  0  0  0  0  0  0
   -1.9938    0.2834    5.1988 C   0  0  0  0  0  0  0  0  0  0  0  0
   -2.7535   -0.5129    5.2522 H   0  0  0  0  0  0  0  0  0  0  0  0
   -1.1626   -0.0642    5.8331 H   0  0  0  0  0  0  0  0  0  0  0  0
   -2.4318    1.1383    5.7384 H   0  0  0  0  0  0  0  0  0  0  0  0
   -2.3116    1.5383    3.1570 N   0  0  0  0  0  0  0  0  0  0  0  0
   -2.0648    1.9643    1.8046 C   0  0  2  0  0  0  0  0  0  0  0  0
   -0.7298    1.3789    1.3634 C   0  0  0  0  0  0  0  0  0  0  0  0
    0.1423    1.0262    2.1547 O   0  0  0  0  0  0  0  0  0  0  0  0
   -2.0560    3.4811    1.6952 C   0  0  0  0  0  0  0  0  0  0  0  0
   -3.0767    1.9741    3.6688 H   0  0  0  0  0  0  0  0  0  0  0  0
   -2.8689    1.5458    1.1895 H   0  0  0  0  0  0  0  0  0  0  0  0
   -1.2569    3.9183    2.3049 H   0  0  0  0  0  0  0  0  0  0  0  0
   -1.8965    3.8033    0.6609 H   0  0  0  0  0  0  0  0  0  0  0  0
   -3.0062    3.9023    2.0409 H   0  0  0  0  0  0  0  0  0  0  0  0
   -0.6071    1.3358   -0.0200 N   0  0  0  0  0  0  0  0  0  0  0  0
    0.5702    0.8350   -0.6836 C   0  0  2  0  0  0  0  0  0  0  0  0
    1.1295    1.9732   -1.5297 C   0  0  0  0  0  0  0  0  0  0  0  0
    1.9335    1.7959   -2.4424 O   0  0  0  0  0  0  0  0  0  0  0  0
    0.2650   -0.3827   -1.5635 C   0  0  0  0  0  0  0  0  0  0  0  0
   -0.2142   -1.5723   -0.7678 C   0  0  0  0  0  0  0  0  0  0  0  0
    0.6244   -2.3426   -0.0124 N   0  0  0  0  0  0  0  0  0  0  0  0
   -1.4566   -2.1374   -0.6017 C   0  0  0  0  0  0  0  0  0  0  0  0
   -0.1311   -3.3235    0.5675 C   0  0  0  0  0  0  0  0  0  0  0  0
   -1.3981   -3.2270    0.2308 N   0  0  0  0  0  0  0  0  0  0  0  0
   -1.3903    1.6325   -0.5973 H   0  0  0  0  0  0  0  0  0  0  0  0
    1.2907    0.5858    0.1042 H   0  0  0  0  0  0  0  0  0  0  0  0
    1.1525   -0.6622   -2.1474 H   0  0  0  0  0  0  0  0  0  0  0  0
   -0.5032   -0.1352   -2.3080 H   0  0  0  0  0  0  0  0  0  0  0  0
    1.6217   -2.2142    0.0983 H   0  0  0  0  0  0  0  0  0  0  0  0
   -2.3918   -1.8170   -1.0382 H   0  0  0  0  0  0  0  0  0  0  0  0
    0.2997   -4.0704    1.2190 H   0  0  0  0  0  0  0  0  0  0  0  0
    0.5855    3.2000   -1.1752 N   0  0  0  0  0  0  0  0  0  0  0  0
    0.9269    4.4398   -1.8348 C   0  0  2  0  0  0  0  0  0  0  0  0
    2.4455    4.5413   -1.8885 C   0  0  0  0  0  0  0  0  0  0  0  0
    3.1861    3.9327   -1.1189 O   0  0  0  0  0  0  0  0  0  0  0  0
    0.3275    5.6352   -1.1105 C   0  0  0  0  0  0  0  0  0  0  0  0
   -0.0864    3.2277   -0.4140 H   0  0  0  0  0  0  0  0  0  0  0  0
    0.5283    4.3765   -2.8532 H   0  0  0  0  0  0  0  0  0  0  0  0
    0.7151    5.7150   -0.0883 H   0  0  0  0  0  0  0  0  0  0  0  0
    0.5631    6.5713   -1.6274 H   0  0  0  0  0  0  0  0  0  0  0  0
   -0.7623    5.5458   -1.0467 H   0  0  0  0  0  0  0  0  0  0  0  0
    2.8752    5.4248   -2.8688 N   0  0  0  0  0  0  0  0  0  0  0  0
    4.2718    5.7035   -3.1092 C   0  0  0  0  0  0  0  0  0  0  0  0
    2.1919    5.8710   -3.4735 H   0  0  0  0  0  0  0  0  0  0  0  0
    4.5779    6.5806   -2.5201 H   0  0  0  0  0  0  0  0  0  0  0  0
    4.8757    4.8335   -2.8120 H   0  0  0  0  0  0  0  0  0  0  0  0
    4.4258    5.9086   -4.1789 H   0  0  0  0  0  0  0  0  0  0  0  0
 22 24  2  0  0  0  0
 24 26  1  0  0  0  0
 25 26  2  0  0  0  0
 23 25  1  0  0  0  0
 21 22  1  0  0  0  0
 22 23  1  0  0  0  0
  1  3  1  0  0  0  0
  1  7  1  0  0  0  0
  1  2  2  0  0  0  0
 35 36  1  0  0  0  0
 36 44  1  0  0  0  0
 36 37  2  0  0  0  0
  8  9  1  0  0  0  0
  9 17  1  0  0  0  0
  9 10  2  0  0  0  0
 18 19  1  0  0  0  0
 19 34  1  0  0  0  0
 19 20  2  0  0  0  0
 35 38  1  0  0  0  0
  8 11  1  0  0  0  0
 44 45  1  0  0  0  0
 18 21  1  0  0  0  0
 34 35  1  0  0  0  0
  7  8  1  0  0  0  0
 17 18  1  0  0  0  0
 24 32  1  0  0  0  0
 25 33  1  0  0  0  0
  3  4  1  0  0  0  0
  3  5  1  0  0  0  0
  3  6  1  0  0  0  0
 38 41  1  0  0  0  0
 38 42  1  0  0  0  0
 38 43  1  0  0  0  0
 11 14  1  0  0  0  0
 11 15  1  0  0  0  0
 11 16  1  0  0  0  0
 45 47  1  0  0  0  0
 45 48  1  0  0  0  0
 45 49  1  0  0  0  0
 21 29  1  0  0  0  0
 21 30  1  0  0  0  0
 35 40  1  0  0  0  0
  8 13  1  0  0  0  0
 18 28  1  0  0  0  0
 23 31  1  0  0  0  0
 44 46  1  0  0  0  0
  7 12  1  0  0  0  0
 34 39  1  0  0  0  0
 17 27  1  0  0  0  0
M  END
$$$$

  -OEChem-05262214473D

 49 49  0     1  0  0  0  0  0999 V2000
   -1.5619    0.5658    3.7981 C   0  0  0  0  0  0  0  0  0  0  0  0
   -0.6145   -0.0489    3.3224 O   0  0  0  0  0  0  0  0  0  0  0  0
   -1.9938    0.2834    5.1988 C   0  0  0  0  0  0  0  0  0  0  0  0
   -2.7535   -0.5129    5.2522 H   0  0  0  0  0  0  0  0  0  0  0  0
   -1.1626   -0.0642    5.8331 H   0  0  0  0  0  0  0  0  0  0  0  0
   -2.4318    1.1383    5.7384 H   0  0  0  0  0  0  0  0  0  0  0  0
   -2.3116    1.5383    3.1570 N   0  0  0  0  0  0  0  0  0  0  0  0
   -2.0648    1.9643    1.8046 C   0  0  2  0  0  0  0  0  0  0  0  0
   -0.7298    1.3789    1.3634 C   0  0  0  0  0  0  0  0  0  0  0  0
    0.1423    1.0262    2.1547 O   0  0  0  0  0  0  0  0  0  0  0  0
   -2.0560    3.4811    1.6952 C   0  0  0  0  0  0  0  0  0  0  0  0
   -3.0767    1.9741    3.6688 H   0  0  0  0  0  0  0  0  0  0  0  0
   -2.8689    1.5458    1.1895 H   0  0  0  0  0  0  0  0  0  0  0  0
   -1.2569    3.9183    2.3049 H   0  0  0  0  0  0  0  0  0  0  0  0
   -1.8965    3.8033    0.6609 H   0  0  0  0  0  0  0  0  0  0  0  0
   -3.0062    3.9023    2.0409 H   0  0  0  0  0  0  0  0  0  0  0  0
   -0.6071    1.3358   -0.0200 N   0  0  0  0  0  0  0  0  0  0  0  0
    0.5702    0.8350   -0.6836 C   0  0  2  0  0  0  0  0  0  0  0  0
    1.1295    1.9732   -1.5297 C   0  0  0  0  0  0  0  0  0  0  0  0
    1.7126    1.7902   -2.5962 O   0  0  0  0  0  0  0  0  0  0  0  0
    0.2650   -0.3827   -1.5635 C   0  0  0  0  0  0  0  0  0  0  0  0
   -0.2142   -1.5723   -0.7678 C   0  0  0  0  0  0  0  0  0  0  0  0
    0.6244   -2.3426   -0.0124 N   0  0  0  0  0  0  0  0  0  0  0  0
   -1.4566   -2.1374   -0.6017 C   0  0  0  0  0  0  0  0  0  0  0  0
   -0.1311   -3.3235    0.5675 C   0  0  0  0  0  0  0  0  0  0  0  0
   -1.3981   -3.2270    0.2308 N   0  0  0  0  0  0  0  0  0  0  0  0
   -1.3903    1.6325   -0.5973 H   0  0  0  0  0  0  0  0  0  0  0  0
    1.2907    0.5858    0.1042 H   0  0  0  0  0  0  0  0  0  0  0  0
    1.1525   -0.6622   -2.1474 H   0  0  0  0  0  0  0  0  0  0  0  0
   -0.5032   -0.1352   -2.3080 H   0  0  0  0  0  0  0  0  0  0  0  0
    1.6217   -2.2142    0.0983 H   0  0  0  0  0  0  0  0  0  0  0  0
   -2.3918   -1.8170   -1.0382 H   0  0  0  0  0  0  0  0  0  0  0  0
    0.2997   -4.0704    1.2190 H   0  0  0  0  0  0  0  0  0  0  0  0
    0.8552    3.2159   -0.9755 N   0  0  0  0  0  0  0  0  0  0  0  0
    1.2533    4.4631   -1.5876 C   0  0  2  0  0  0  0  0  0  0  0  0
    2.7327    4.3650   -1.9358 C   0  0  0  0  0  0  0  0  0  0  0  0
    3.5017    3.5821   -1.3819 O   0  0  0  0  0  0  0  0  0  0  0  0
    0.9894    5.6419   -0.6638 C   0  0  0  0  0  0  0  0  0  0  0  0
    0.3491    3.2504   -0.0955 H   0  0  0  0  0  0  0  0  0  0  0  0
    0.6670    4.5654   -2.5073 H   0  0  0  0  0  0  0  0  0  0  0  0
    1.5682    5.5570    0.2632 H   0  0  0  0  0  0  0  0  0  0  0  0
    1.2650    6.5887   -1.1400 H   0  0  0  0  0  0  0  0  0  0  0  0
   -0.0701    5.6933   -0.3905 H   0  0  0  0  0  0  0  0  0  0  0  0
    3.1022    5.2844   -2.9076 N   0  0  0  0  0  0  0  0  0  0  0  0
    4.4555    5.3976   -3.3994 C   0  0  0  0  0  0  0  0  0  0  0  0
    2.3947    5.8816   -3.3252 H   0  0  0  0  0  0  0  0  0  0  0  0
    4.9965    6.1561   -2.8145 H   0  0  0  0  0  0  0  0  0  0  0  0
    4.9638    4.4271   -3.3004 H   0  0  0  0  0  0  0  0  0  0  0  0
    4.4370    5.6955   -4.4581 H   0  0  0  0  0  0  0  0  0  0  0  0
 22 24  2  0  0  0  0
 24 26  1  0  0  0  0
 25 26  2  0  0  0  0
 23 25  1  0  0  0  0
 21 22  1  0  0  0  0
 22 23  1  0  0  0  0
  1  3  1  0  0  0  0
  1  7  1  0  0  0  0
  1  2  2  0  0  0  0
 35 36  1  0  0  0  0
 36 44  1  0  0  0  0
 36 37  2  0  0  0  0
  8  9  1  0  0  0  0
  9 17  1  0  0  0  0
  9 10  2  0  0  0  0
 18 19  1  0  0  0  0
 19 34  1  0  0  0  0
 19 20  2  0  0  0  0
 35 38  1  0  0  0  0
  8 11  1  0  0  0  0
 44 45  1  0  0  0  0
 18 21  1  0  0  0  0
 34 35  1  0  0  0  0
  7  8  1  0  0  0  0
 17 18  1  0  0  0  0
 24 32  1  0  0  0  0
 25 33  1  0  0  0  0
  3  4  1  0  0  0  0
  3  5  1  0  0  0  0
  3  6  1  0  0  0  0
 38 41  1  0  0  0  0
 38 42  1  0  0  0  0
 38 43  1  0  0  0  0
 11 14  1  0  0  0  0
 11 15  1  0  0  0  0
 11 16  1  0  0  0  0
 45 47  1  0  0  0  0
 45 48  1  0  0  0  0
 45 49  1  0  0  0  0
 21 29  1  0  0  0  0
 21 30  1  0  0  0  0
 35 40  1  0  0  0  0
  8 13  1  0  0  0  0
 18 28  1  0  0  0  0
 23 31  1  0  0  0  0
 44 46  1  0  0  0  0
  7 12  1  0  0  0  0
 34 39  1  0  0  0  0
 17 27  1  0  0  0  0
M  END
$$$$

  -OEChem-05262214473D

 49 49  0     1  0  0  0  0  0999 V2000
   -1.5619    0.5658    3.7981 C   0  0  0  0  0  0  0  0  0  0  0  0
   -0.6145   -0.0489    3.3224 O   0  0  0  0  0  0  0  0  0  0  0  0
   -1.9938    0.2834    5.1988 C   0  0  0  0  0  0  0  0  0  0  0  0
   -2.7535   -0.5129    5.2522 H   0  0  0  0  0  0  0  0  0  0  0  0
   -1.1626   -0.0642    5.8331 H   0  0  0  0  0  0  0  0  0  0  0  0
   -2.4318    1.1383    5.7384 H   0  0  0  0  0  0  0  0  0  0  0  0
   -2.3116    1.5383    3.1570 N   0  0  0  0  0  0  0  0  0  0  0  0
   -2.0648    1.9643    1.8046 C   0  0  2  0  0  0  0  0  0  0  0  0
   -0.7298    1.3789    1.3634 C   0  0  0  0  0  0  0  0  0  0  0  0
    0.1423    1.0262    2.1547 O   0  0  0  0  0  0  0  0  0  0  0  0
   -2.0560    3.4811    1.6952 C   0  0  0  0  0  0  0  0  0  0  0  0
   -3.0767    1.9741    3.6688 H   0  0  0  0  0  0  0  0  0  0  0  0
   -2.8689    1.5458    1.1895 H   0  0  0  0  0  0  0  0  0  0  0  0
   -1.2569    3.9183    2.3049 H   0  0  0  0  0  0  0  0  0  0  0  0
   -1.8965    3.8033    0.6609 H   0  0  0  0  0  0  0  0  0  0  0  0
   -3.0062    3.9023    2.0409 H   0  0  0  0  0  0  0  0  0  0  0  0
   -0.6071    1.3358   -0.0200 N   0  0  0  0  0  0  0  0  0  0  0  0
    0.5702    0.8350   -0.6836 C   0  0  2  0  0  0  0  0  0  0  0  0
    1.1295    1.9732   -1.5297 C   0  0  0  0  0  0  0  0  0  0  0  0
    1.4687    1.8310   -2.7025 O   0  0  0  0  0  0  0  0  0  0  0  0
    0.2650   -0.3827   -1.5635 C   0  0  0  0  0  0  0  0  0  0  0  0
   -0.2142   -1.5723   -0.7678 C   0  0  0  0  0  0  0  0  0  0  0  0
    0.6244   -2.3426   -0.0124 N   0  0  0  0  0  0  0  0  0  0  0  0
   -1.4566   -2.1374   -0.6017 C   0  0  0  0  0  0  0  0  0  0  0  0
   -0.1311   -3.3235    0.5675 C   0  0  0  0  0  0  0  0  0  0  0  0
   -1.3981   -3.2270    0.2308 N   0  0  0  0  0  0  0  0  0  0  0  0
   -1.3903    1.6325   -0.5973 H   0  0  0  0  0  0  0  0  0  0  0  0
    1.2907    0.5858    0.1042 H   0  0  0  0  0  0  0  0  0  0  0  0
    1.1525   -0.6622   -2.1474 H   0  0  0  0  0  0  0  0  0  0  0  0
   -0.5032   -0.1352   -2.3080 H   0  0  0  0  0  0  0  0  0  0  0  0
    1.6217   -2.2142    0.0983 H   0  0  0  0  0  0  0  0  0  0  0  0
   -2.3918   -1.8170   -1.0382 H   0  0  0  0  0  0  0  0  0  0  0  0
    0.2997   -4.0704    1.2190 H   0  0  0  0  0  0  0  0  0  0  0  0
    1.1566    3.1735   -0.8332 N   0  0  0  0  0  0  0  0  0  0  0  0
    1.6197    4.4153   -1.4097 C   0  0  2  0  0  0  0  0  0  0  0  0
    2.9756    4.1579   -2.0538 C   0  0  0  0  0  0  0  0  0  0  0  0
    3.7054    3.2232   -1.7302 O   0  0  0  0  0  0  0  0  0  0  0  0
    1.7160    5.5110   -0.3596 C   0  0  0  0  0  0  0  0  0  0  0  0
    0.8347    3.1795    0.1302 H   0  0  0  0  0  0  0  0  0  0  0  0
    0.8950    4.6950   -2.1822 H   0  0  0  0  0  0  0  0  0  0  0  0
    2.4374    5.2485    0.4228 H   0  0  0  0  0  0  0  0  0  0  0  0
    2.0396    6.4584   -0.8031 H   0  0  0  0  0  0  0  0  0  0  0  0
    0.7465    5.6741    0.1235 H   0  0  0  0  0  0  0  0  0  0  0  0
    3.2938    5.1198   -3.0023 N   0  0  0  0  0  0  0  0  0  0  0  0
    4.5329    5.1032   -3.7442 C   0  0  0  0  0  0  0  0  0  0  0  0
    2.6207    5.8486   -3.2202 H   0  0  0  0  0  0  0  0  0  0  0  0
    5.2829    5.7138   -3.2201 H   0  0  0  0  0  0  0  0  0  0  0  0
    4.8962    4.0683   -3.8278 H   0  0  0  0  0  0  0  0  0  0  0  0
    4.3633    5.5146   -4.7502 H   0  0  0  0  0  0  0  0  0  0  0  0
 22 24  2  0  0  0  0
 24 26  1  0  0  0  0
 25 26  2  0  0  0  0
 23 25  1  0  0  0  0
 21 22  1  0  0  0  0
 22 23  1  0  0  0  0
  1  3  1  0  0  0  0
  1  7  1  0  0  0  0
  1  2  2  0  0  0  0
 35 36  1  0  0  0  0
 36 44  1  0  0  0  0
 36 37  2  0  0  0  0
  8  9  1  0  0  0  0
  9 17  1  0  0  0  0
  9 10  2  0  0  0  0
 18 19  1  0  0  0  0
 19 34  1  0  0  0  0
 19 20  2  0  0  0  0
 35 38  1  0  0  0  0
  8 11  1  0  0  0  0
 44 45  1  0  0  0  0
 18 21  1  0  0  0  0
 34 35  1  0  0  0  0
  7  8  1  0  0  0  0
 17 18  1  0  0  0  0
 24 32  1  0  0  0  0
 25 33  1  0  0  0  0
  3  4  1  0  0  0  0
  3  5  1  0  0  0  0
  3  6  1  0  0  0  0
 38 41  1  0  0  0  0
 38 42  1  0  0  0  0
 38 43  1  0  0  0  0
 11 14  1  0  0  0  0
 11 15  1  0  0  0  0
 11 16  1  0  0  0  0
 45 47  1  0  0  0  0
 45 48  1  0  0  0  0
 45 49  1  0  0  0  0
 21 29  1  0  0  0  0
 21 30  1  0  0  0  0
 35 40  1  0  0  0  0
  8 13  1  0  0  0  0
 18 28  1  0  0  0  0
 23 31  1  0  0  0  0
 44 46  1  0  0  0  0
  7 12  1  0  0  0  0
 34 39  1  0  0  0  0
 17 27  1  0  0  0  0
M  END
$$$$

  -OEChem-05262214473D

 49 49  0     1  0  0  0  0  0999 V2000
   -1.5619    0.5658    3.7981 C   0  0  0  0  0  0  0  0  0  0  0  0
   -0.6145   -0.0489    3.3224 O   0  0  0  0  0  0  0  0  0  0  0  0
   -1.9938    0.2834    5.1988 C   0  0  0  0  0  0  0  0  0  0  0  0
   -2.7535   -0.5129    5.2522 H   0  0  0  0  0  0  0  0  0  0  0  0
   -1.1626   -0.0642    5.8331 H   0  0  0  0  0  0  0  0  0  0  0  0
   -2.4318    1.1383    5.7384 H   0  0  0  0  0  0  0  0  0  0  0  0
   -2.3116    1.5383    3.1570 N   0  0  0  0  0  0  0  0  0  0  0  0
   -2.0648    1.9643    1.8046 C   0  0  2  0  0  0  0  0  0  0  0  0
   -0.7298    1.3789    1.3634 C   0  0  0  0  0  0  0  0  0  0  0  0
    0.1423    1.0262    2.1547 O   0  0  0  0  0  0  0  0  0  0  0  0
   -2.0560    3.4811    1.6952 C   0  0  0  0  0  0  0  0  0  0  0  0
   -3.0767    1.9741    3.6688 H   0  0  0  0  0  0  0  0  0  0  0  0
   -2.8689    1.5458    1.1895 H   0  0  0  0  0  0  0  0  0  0  0  0
   -1.2569    3.9183    2.3049 H   0  0  0  0  0  0  0  0  0  0  0  0
   -1.8965    3.8033    0.6609 H   0  0  0  0  0  0  0  0  0  0  0  0
   -3.0062    3.9023    2.0409 H   0  0  0  0  0  0  0  0  0  0  0  0
   -0.6071    1.3358   -0.0200 N   0  0  0  0  0  0  0  0  0  0  0  0
    0.5702    0.8350   -0.6836 C   0  0  2  0  0  0  0  0  0  0  0  0
    1.1295    1.9732   -1.5297 C   0  0  0  0  0  0  0  0  0  0  0  0
    1.2185    1.9155   -2.7543 O   0  0  0  0  0  0  0  0  0  0  0  0
    0.2650   -0.3827   -1.5635 C   0  0  0  0  0  0  0  0  0  0  0  0
   -0.2142   -1.5723   -0.7678 C   0  0  0  0  0  0  0  0  0  0  0  0
    0.6244   -2.3426   -0.0124 N   0  0  0  0  0  0  0  0  0  0  0  0
   -1.4566   -2.1374   -0.6017 C   0  0  0  0  0  0  0  0  0  0  0  0
   -0.1311   -3.3235    0.5675 C   0  0  0  0  0  0  0  0  0  0  0  0
   -1.3981   -3.2270    0.2308 N   0  0  0  0  0  0  0  0  0  0  0  0
   -1.3903    1.6325   -0.5973 H   0  0  0  0  0  0  0  0  0  0  0  0
    1.2907    0.5858    0.1042 H   0  0  0  0  0  0  0  0  0  0  0  0
    1.1525   -0.6622   -2.1474 H   0  0  0  0  0  0  0  0  0  0  0  0
   -0.5032   -0.1352   -2.3080 H   0  0  0  0  0  0  0  0  0  0  0  0
    1.6217   -2.2142    0.0983 H   0  0  0  0  0  0  0  0  0  0  0  0
   -2.3918   -1.8170   -1.0382 H   0  0  0  0  0  0  0  0  0  0  0  0
    0.2997   -4.0704    1.2190 H   0  0  0  0  0  0  0  0  0  0  0  0
    1.4691    3.0758   -0.7580 N   0  0  0  0  0  0  0  0  0  0  0  0
    2.0011    4.2995   -1.3133 C   0  0  2  0  0  0  0  0  0  0  0  0
    3.1577    3.9342   -2.2344 C   0  0  0  0  0  0  0  0  0  0  0  0
    3.7833    2.8803   -2.1400 O   0  0  0  0  0  0  0  0  0  0  0  0
    2.4578    5.2512   -0.2185 C   0  0  0  0  0  0  0  0  0  0  0  0
    1.3371    3.0199    0.2476 H   0  0  0  0  0  0  0  0  0  0  0  0
    1.1967    4.7566   -1.8998 H   0  0  0  0  0  0  0  0  0  0  0  0
    3.2636    4.8105    0.3797 H   0  0  0  0  0  0  0  0  0  0  0  0
    2.8341    6.1893   -0.6398 H   0  0  0  0  0  0  0  0  0  0  0  0
    1.6319    5.4894    0.4604 H   0  0  0  0  0  0  0  0  0  0  0  0
    3.4370    4.9424   -3.1464 N   0  0  0  0  0  0  0  0  0  0  0  0
    4.4987    4.8405   -4.1202 C   0  0  0  0  0  0  0  0  0  0  0  0
    2.8546    5.7743   -3.1655 H   0  0  0  0  0  0  0  0  0  0  0  0
    5.4176    5.2840   -3.7092 H   0  0  0  0  0  0  0  0  0  0  0  0
    4.6775    3.7816   -4.3582 H   0  0  0  0  0  0  0  0  0  0  0  0
    4.2097    5.3783   -5.0353 H   0  0  0  0  0  0  0  0  0  0  0  0
 22 24  2  0  0  0  0
 24 26  1  0  0  0  0
 25 26  2  0  0  0  0
 23 25  1  0  0  0  0
 21 22  1  0  0  0  0
 22 23  1  0  0  0  0
  1  3  1  0  0  0  0
  1  7  1  0  0  0  0
  1  2  2  0  0  0  0
 35 36  1  0  0  0  0
 36 44  1  0  0  0  0
 36 37  2  0  0  0  0
  8  9  1  0  0  0  0
  9 17  1  0  0  0  0
  9 10  2  0  0  0  0
 18 19  1  0  0  0  0
 19 34  1  0  0  0  0
 19 20  2  0  0  0  0
 35 38  1  0  0  0  0
  8 11  1  0  0  0  0
 44 45  1  0  0  0  0
 18 21  1  0  0  0  0
 34 35  1  0  0  0  0
  7  8  1  0  0  0  0
 17 18  1  0  0  0  0
 24 32  1  0  0  0  0
 25 33  1  0  0  0  0
  3  4  1  0  0  0  0
  3  5  1  0  0  0  0
  3  6  1  0  0  0  0
 38 41  1  0  0  0  0
 38 42  1  0  0  0  0
 38 43  1  0  0  0  0
 11 14  1  0  0  0  0
 11 15  1  0  0  0  0
 11 16  1  0  0  0  0
 45 47  1  0  0  0  0
 45 48  1  0  0  0  0
 45 49  1  0  0  0  0
 21 29  1  0  0  0  0
 21 30  1  0  0  0  0
 35 40  1  0  0  0  0
  8 13  1  0  0  0  0
 18 28  1  0  0  0  0
 23 31  1  0  0  0  0
 44 46  1  0  0  0  0
  7 12  1  0  0  0  0
 34 39  1  0  0  0  0
 17 27  1  0  0  0  0
M  END
$$$$

  -OEChem-05262214473D

 49 49  0     1  0  0  0  0  0999 V2000
   -1.5619    0.5658    3.7981 C   0  0  0  0  0  0  0  0  0  0  0  0
   -0.6145   -0.0489    3.3224 O   0  0  0  0  0  0  0  0  0  0  0  0
   -1.9938    0.2834    5.1988 C   0  0  0  0  0  0  0  0  0  0  0  0
   -2.7535   -0.5129    5.2522 H   0  0  0  0  0  0  0  0  0  0  0  0
   -1.1626   -0.0642    5.8331 H   0  0  0  0  0  0  0  0  0  0  0  0
   -2.4318    1.1383    5.7384 H   0  0  0  0  0  0  0  0  0  0  0  0
   -2.3116    1.5383    3.1570 N   0  0  0  0  0  0  0  0  0  0  0  0
   -2.0648    1.9643    1.8046 C   0  0  2  0  0  0  0  0  0  0  0  0
   -0.7298    1.3789    1.3634 C   0  0  0  0  0  0  0  0  0  0  0  0
    0.1423    1.0262    2.1547 O   0  0  0  0  0  0  0  0  0  0  0  0
   -2.0560    3.4811    1.6952 C   0  0  0  0  0  0  0  0  0  0  0  0
   -3.0767    1.9741    3.6688 H   0  0  0  0  0  0  0  0  0  0  0  0
   -2.8689    1.5458    1.1895 H   0  0  0  0  0  0  0  0  0  0  0  0
   -1.2569    3.9183    2.3049 H   0  0  0  0  0  0  0  0  0  0  0  0
   -1.8965    3.8033    0.6609 H   0  0  0  0  0  0  0  0  0  0  0  0
   -3.0062    3.9023    2.0409 H   0  0  0  0  0  0  0  0  0  0  0  0
   -0.6071    1.3358   -0.0200 N   0  0  0  0  0  0  0  0  0  0  0  0
    0.5702    0.8350   -0.6836 C   0  0  2  0  0  0  0  0  0  0  0  0
    1.1295    1.9732   -1.5297 C   0  0  0  0  0  0  0  0  0  0  0  0
    0.9789    2.0380   -2.7479 O   0  0  0  0  0  0  0  0  0  0  0  0
    0.2650   -0.3827   -1.5635 C   0  0  0  0  0  0  0  0  0  0  0  0
   -0.2142   -1.5723   -0.7678 C   0  0  0  0  0  0  0  0  0  0  0  0
    0.6244   -2.3426   -0.0124 N   0  0  0  0  0  0  0  0  0  0  0  0
   -1.4566   -2.1374   -0.6017 C   0  0  0  0  0  0  0  0  0  0  0  0
   -0.1311   -3.3235    0.5675 C   0  0  0  0  0  0  0  0  0  0  0  0
   -1.3981   -3.2270    0.2308 N   0  0  0  0  0  0  0  0  0  0  0  0
   -1.3903    1.6325   -0.5973 H   0  0  0  0  0  0  0  0  0  0  0  0
    1.2907    0.5858    0.1042 H   0  0  0  0  0  0  0  0  0  0  0  0
    1.1525   -0.6622   -2.1474 H   0  0  0  0  0  0  0  0  0  0  0  0
   -0.5032   -0.1352   -2.3080 H   0  0  0  0  0  0  0  0  0  0  0  0
    1.6217   -2.2142    0.0983 H   0  0  0  0  0  0  0  0  0  0  0  0
   -2.3918   -1.8170   -1.0382 H   0  0  0  0  0  0  0  0  0  0  0  0
    0.2997   -4.0704    1.2190 H   0  0  0  0  0  0  0  0  0  0  0  0
    1.7715    2.9294   -0.7551 N   0  0  0  0  0  0  0  0  0  0  0  0
    2.3716    4.1238   -1.3048 C   0  0  2  0  0  0  0  0  0  0  0  0
    3.2665    3.7092   -2.4652 C   0  0  0  0  0  0  0  0  0  0  0  0
    3.7301    2.5768   -2.5835 O   0  0  0  0  0  0  0  0  0  0  0  0
    3.1643    4.8804   -0.2503 C   0  0  0  0  0  0  0  0  0  0  0  0
    1.8222    2.7823    0.2487 H   0  0  0  0  0  0  0  0  0  0  0  0
    1.5515    4.7460   -1.6795 H   0  0  0  0  0  0  0  0  0  0  0  0
    3.9904    4.2728    0.1369 H   0  0  0  0  0  0  0  0  0  0  0  0
    3.5945    5.7997   -0.6612 H   0  0  0  0  0  0  0  0  0  0  0  0
    2.5257    5.1518    0.5971 H   0  0  0  0  0  0  0  0  0  0  0  0
    3.5219    4.7641   -3.3302 N   0  0  0  0  0  0  0  0  0  0  0  0
    4.3554    4.6274   -4.5018 C   0  0  0  0  0  0  0  0  0  0  0  0
    3.0804    5.6638   -3.1649 H   0  0  0  0  0  0  0  0  0  0  0  0
    5.3916    4.8960   -4.2486 H   0  0  0  0  0  0  0  0  0  0  0  0
    4.3225    3.5864   -4.8555 H   0  0  0  0  0  0  0  0  0  0  0  0
    3.9866    5.2956   -5.2939 H   0  0  0  0  0  0  0  0  0  0  0  0
 22 24  2  0  0  0  0
 24 26  1  0  0  0  0
 25 26  2  0  0  0  0
 23 25  1  0  0  0  0
 21 22  1  0  0  0  0
 22 23  1  0  0  0  0
  1  3  1  0  0  0  0
  1  7  1  0  0  0  0
  1  2  2  0  0  0  0
 35 36  1  0  0  0  0
 36 44  1  0  0  0  0
 36 37  2  0  0  0  0
  8  9  1  0  0  0  0
  9 17  1  0  0  0  0
  9 10  2  0  0  0  0
 18 19  1  0  0  0  0
 19 34  1  0  0  0  0
 19 20  2  0  0  0  0
 35 38  1  0  0  0  0
  8 11  1  0  0  0  0
 44 45  1  0  0  0  0
 18 21  1  0  0  0  0
 34 35  1  0  0  0  0
  7  8  1  0  0  0  0
 17 18  1  0  0  0  0
 24 32  1  0  0  0  0
 25 33  1  0  0  0  0
  3  4  1  0  0  0  0
  3  5  1  0  0  0  0
  3  6  1  0  0  0  0
 38 41  1  0  0  0  0
 38 42  1  0  0  0  0
 38 43  1  0  0  0  0
 11 14  1  0  0  0  0
 11 15  1  0  0  0  0
 11 16  1  0  0  0  0
 45 47  1  0  0  0  0
 45 48  1  0  0  0  0
 45 49  1  0  0  0  0
 21 29  1  0  0  0  0
 21 30  1  0  0  0  0
 35 40  1  0  0  0  0
  8 13  1  0  0  0  0
 18 28  1  0  0  0  0
 23 31  1  0  0  0  0
 44 46  1  0  0  0  0
  7 12  1  0  0  0  0
 34 39  1  0  0  0  0
 17 27  1  0  0  0  0
M  END
$$$$

  -OEChem-05262214473D

 49 49  0     1  0  0  0  0  0999 V2000
   -1.5619    0.5658    3.7981 C   0  0  0  0  0  0  0  0  0  0  0  0
   -0.6145   -0.0489    3.3224 O   0  0  0  0  0  0  0  0  0  0  0  0
   -1.9938    0.2834    5.1988 C   0  0  0  0  0  0  0  0  0  0  0  0
   -2.7535   -0.5129    5.2522 H   0  0  0  0  0  0  0  0  0  0  0  0
   -1.1626   -0.0642    5.8331 H   0  0  0  0  0  0  0  0  0  0  0  0
   -2.4318    1.1383    5.7384 H   0  0  0  0  0  0  0  0  0  0  0  0
   -2.3116    1.5383    3.1570 N   0  0  0  0  0  0  0  0  0  0  0  0
   -2.0648    1.9643    1.8046 C   0  0  2  0  0  0  0  0  0  0  0  0
   -0.7298    1.3789    1.3634 C   0  0  0  0  0  0  0  0  0  0  0  0
    0.1423    1.0262    2.1547 O   0  0  0  0  0  0  0  0  0  0  0  0
   -2.0560    3.4811    1.6952 C   0  0  0  0  0  0  0  0  0  0  0  0
   -3.0767    1.9741    3.6688 H   0  0  0  0  0  0  0  0  0  0  0  0
   -2.8689    1.5458    1.1895 H   0  0  0  0  0  0  0  0  0  0  0  0
   -1.2569    3.9183    2.3049 H   0  0  0  0  0  0  0  0  0  0  0  0
   -1.8965    3.8033    0.6609 H   0  0  0  0  0  0  0  0  0  0  0  0
   -3.0062    3.9023    2.0409 H   0  0  0  0  0  0  0  0  0  0  0  0
   -0.6071    1.3358   -0.0200 N   0  0  0  0  0  0  0  0  0  0  0  0
    0.5702    0.8350   -0.6836 C   0  0  2  0  0  0  0  0  0  0  0  0
    1.1295    1.9732   -1.5297 C   0  0  0  0  0  0  0  0  0  0  0  0
    0.7663    2.1902   -2.6837 O   0  0  0  0  0  0  0  0  0  0  0  0
    0.2650   -0.3827   -1.5635 C   0  0  0  0  0  0  0  0  0  0  0  0
   -0.2142   -1.5723   -0.7678 C   0  0  0  0  0  0  0  0  0  0  0  0
    0.6244   -2.3426   -0.0124 N   0  0  0  0  0  0  0  0  0  0  0  0
   -1.4566   -2.1374   -0.6017 C   0  0  0  0  0  0  0  0  0  0  0  0
   -0.1311   -3.3235    0.5675 C   0  0  0  0  0  0  0  0  0  0  0  0
   -1.3981   -3.2270    0.2308 N   0  0  0  0  0  0  0  0  0  0  0  0
   -1.3903    1.6325   -0.5973 H   0  0  0  0  0  0  0  0  0  0  0  0
    1.2907    0.5858    0.1042 H   0  0  0  0  0  0  0  0  0  0  0  0
    1.1525   -0.6622   -2.1474 H   0  0  0  0  0  0  0  0  0  0  0  0
   -0.5032   -0.1352   -2.3080 H   0  0  0  0  0  0  0  0  0  0  0  0
    1.6217   -2.2142    0.0983 H   0  0  0  0  0  0  0  0  0  0  0  0
   -2.3918   -1.8170   -1.0382 H   0  0  0  0  0  0  0  0  0  0  0  0
    0.2997   -4.0704    1.2190 H   0  0  0  0  0  0  0  0  0  0  0  0
    2.0432    2.7443   -0.8245 N   0  0  0  0  0  0  0  0  0  0  0  0
    2.7058    3.9000   -1.3848 C   0  0  2  0  0  0  0  0  0  0  0  0
    3.2948    3.4980   -2.7306 C   0  0  0  0  0  0  0  0  0  0  0  0
    3.5494    2.3334   -3.0304 O   0  0  0  0  0  0  0  0  0  0  0  0
    3.7873    4.4237   -0.4528 C   0  0  0  0  0  0  0  0  0  0  0  0
    2.2568    2.4831    0.1335 H   0  0  0  0  0  0  0  0  0  0  0  0
    1.9353    4.6639   -1.5363 H   0  0  0  0  0  0  0  0  0  0  0  0
    4.5683    3.6722   -0.2892 H   0  0  0  0  0  0  0  0  0  0  0  0
    4.2690    5.3162   -0.8658 H   0  0  0  0  0  0  0  0  0  0  0  0
    3.3669    4.6844    0.5245 H   0  0  0  0  0  0  0  0  0  0  0  0
    3.5428    4.5971   -3.5410 N   0  0  0  0  0  0  0  0  0  0  0  0
    4.1125    4.4784   -4.8628 C   0  0  0  0  0  0  0  0  0  0  0  0
    3.2827    5.5245   -3.2185 H   0  0  0  0  0  0  0  0  0  0  0  0
    5.2064    4.5761   -4.8013 H   0  0  0  0  0  0  0  0  0  0  0  0
    3.8555    3.4960   -5.2858 H   0  0  0  0  0  0  0  0  0  0  0  0
    3.7093    5.2725   -5.5084 H   0  0  0  0  0  0  0  0  0  0  0  0
 22 24  2  0  0  0  0
 24 26  1  0  0  0  0
 25 26  2  0  0  0  0
 23 25  1  0  0  0  0
 21 22  1  0  0  0  0
 22 23  1  0  0  0  0
  1  3  1  0  0  0  0
  1  7  1  0  0  0  0
  1  2  2  0  0  0  0
 35 36  1  0  0  0  0
 36 44  1  0  0  0  0
 36 37  2  0  0  0  0
  8  9  1  0  0  0  0
  9 17  1  0  0  0  0
  9 10  2  0  0  0  0
 18 19  1  0  0  0  0
 19 34  1  0  0  0  0
 19 20  2  0  0  0  0
 35 38  1  0  0  0  0
  8 11  1  0  0  0  0
 44 45  1  0  0  0  0
 18 21  1  0  0  0  0
 34 35  1  0  0  0  0
  7  8  1  0  0  0  0
 17 18  1  0  0  0  0
 24 32  1  0  0  0  0
 25 33  1  0  0  0  0
  3  4  1  0  0  0  0
  3  5  1  0  0  0  0
  3  6  1  0  0  0  0
 38 41  1  0  0  0  0
 38 42  1  0  0  0  0
 38 43  1  0  0  0  0
 11 14  1  0  0  0  0
 11 15  1  0  0  0  0
 11 16  1  0  0  0  0
 45 47  1  0  0  0  0
 45 48  1  0  0  0  0
 45 49  1  0  0  0  0
 21 29  1  0  0  0  0
 21 30  1  0  0  0  0
 35 40  1  0  0  0  0
  8 13  1  0  0  0  0
 18 28  1  0  0  0  0
 23 31  1  0  0  0  0
 44 46  1  0  0  0  0
  7 12  1  0  0  0  0
 34 39  1  0  0  0  0
 17 27  1  0  0  0  0
M  END
$$$$

  -OEChem-05262214473D

 49 49  0     1  0  0  0  0  0999 V2000
   -1.5619    0.5658    3.7981 C   0  0  0  0  0  0  0  0  0  0  0  0
   -0.6145   -0.0489    3.3224 O   0  0  0  0  0  0  0  0  0  0  0  0
   -1.9938    0.2834    5.1988 C   0  0  0  0  0  0  0  0  0  0  0  0
   -2.7535   -0.5129    5.2522 H   0  0  0  0  0  0  0  0  0  0  0  0
   -1.1626   -0.0642    5.8331 H   0  0  0  0  0  0  0  0  0  0  0  0
   -2.4318    1.1383    5.7384 H   0  0  0  0  0  0  0  0  0  0  0  0
   -2.3116    1.5383    3.1570 N   0  0  0  0  0  0  0  0  0  0  0  0
   -2.0648    1.9643    1.8046 C   0  0  2  0  0  0  0  0  0  0  0  0
   -0.7298    1.3789    1.3634 C   0  0  0  0  0  0  0  0  0  0  0  0
    0.1423    1.0262    2.1547 O   0  0  0  0  0  0  0  0  0  0  0  0
   -2.0560    3.4811    1.6952 C   0  0  0  0  0  0  0  0  0  0  0  0
   -3.0767    1.9741    3.6688 H   0  0  0  0  0  0  0  0  0  0  0  0
   -2.8689    1.5458    1.1895 H   0  0  0  0  0  0  0  0  0  0  0  0
   -1.2569    3.9183    2.3049 H   0  0  0  0  0  0  0  0  0  0  0  0
   -1.8965    3.8033    0.6609 H   0  0  0  0  0  0  0  0  0  0  0  0
   -3.0062    3.9023    2.0409 H   0  0  0  0  0  0  0  0  0  0  0  0
   -0.6071    1.3358   -0.0200 N   0  0  0  0  0  0  0  0  0  0  0  0
    0.5702    0.8350   -0.6836 C   0  0  2  0  0  0  0  0  0  0  0  0
    1.1295    1.9732   -1.5297 C   0  0  0  0  0  0  0  0  0  0  0  0
    0.5952    2.3616   -2.5663 O   0  0  0  0  0  0  0  0  0  0  0  0
    0.2650   -0.3827   -1.5635 C   0  0  0  0  0  0  0  0  0  0  0  0
   -0.2142   -1.5723   -0.7678 C   0  0  0  0  0  0  0  0  0  0  0  0
    0.6244   -2.3426   -0.0124 N   0  0  0  0  0  0  0  0  0  0  0  0
   -1.4566   -2.1374   -0.6017 C   0  0  0  0  0  0  0  0  0  0  0  0
   -0.1311   -3.3235    0.5675 C   0  0  0  0  0  0  0  0  0  0  0  0
   -1.3981   -3.2270    0.2308 N   0  0  0  0  0  0  0  0  0  0  0  0
   -1.3903    1.6325   -0.5973 H   0  0  0  0  0  0  0  0  0  0  0  0
    1.2907    0.5858    0.1042 H   0  0  0  0  0  0  0  0  0  0  0  0
    1.1525   -0.6622   -2.1474 H   0  0  0  0  0  0  0  0  0  0  0  0
   -0.5032   -0.1352   -2.3080 H   0  0  0  0  0  0  0  0  0  0  0  0
    1.6217   -2.2142    0.0983 H   0  0  0  0  0  0  0  0  0  0  0  0
   -2.3918   -1.8170   -1.0382 H   0  0  0  0  0  0  0  0  0  0  0  0
    0.2997   -4.0704    1.2190 H   0  0  0  0  0  0  0  0  0  0  0  0
    2.2655    2.5330   -0.9617 N   0  0  0  0  0  0  0  0  0  0  0  0
    2.9810    3.6435   -1.5480 C   0  0  2  0  0  0  0  0  0  0  0  0
    3.2404    3.3153   -3.0124 C   0  0  0  0  0  0  0  0  0  0  0  0
    3.2535    2.1667   -3.4503 O   0  0  0  0  0  0  0  0  0  0  0  0
    4.2844    3.9124   -0.8121 C   0  0  0  0  0  0  0  0  0  0  0  0
    2.6115    2.1426   -0.0901 H   0  0  0  0  0  0  0  0  0  0  0  0
    2.3219    4.5158   -1.4799 H   0  0  0  0  0  0  0  0  0  0  0  0
    4.9578    3.0494   -0.8694 H   0  0  0  0  0  0  0  0  0  0  0  0
    4.8114    4.7718   -1.2396 H   0  0  0  0  0  0  0  0  0  0  0  0
    4.0983    4.1190    0.2474 H   0  0  0  0  0  0  0  0  0  0  0  0
    3.4983    4.4528   -3.7645 N   0  0  0  0  0  0  0  0  0  0  0  0
    3.7868    4.4036   -5.1788 C   0  0  0  0  0  0  0  0  0  0  0  0
    3.4478    5.3660   -3.3226 H   0  0  0  0  0  0  0  0  0  0  0  0
    4.8749    4.3462   -5.3298 H   0  0  0  0  0  0  0  0  0  0  0  0
    3.3083    3.5167   -5.6198 H   0  0  0  0  0  0  0  0  0  0  0  0
    3.3966    5.3103   -5.6643 H   0  0  0  0  0  0  0  0  0  0  0  0
 22 24  2  0  0  0  0
 24 26  1  0  0  0  0
 25 26  2  0  0  0  0
 23 25  1  0  0  0  0
 21 22  1  0  0  0  0
 22 23  1  0  0  0  0
  1  3  1  0  0  0  0
  1  7  1  0  0  0  0
  1  2  2  0  0  0  0
 35 36  1  0  0  0  0
 36 44  1  0  0  0  0
 36 37  2  0  0  0  0
  8  9  1  0  0  0  0
  9 17  1  0  0  0  0
  9 10  2  0  0  0  0
 18 19  1  0  0  0  0
 19 34  1  0  0  0  0
 19 20  2  0  0  0  0
 35 38  1  0  0  0  0
  8 11  1  0  0  0  0
 44 45  1  0  0  0  0
 18 21  1  0  0  0  0
 34 35  1  0  0  0  0
  7  8  1  0  0  0  0
 17 18  1  0  0  0  0
 24 32  1  0  0  0  0
 25 33  1  0  0  0  0
  3  4  1  0  0  0  0
  3  5  1  0  0  0  0
  3  6  1  0  0  0  0
 38 41  1  0  0  0  0
 38 42  1  0  0  0  0
 38 43  1  0  0  0  0
 11 14  1  0  0  0  0
 11 15  1  0  0  0  0
 11 16  1  0  0  0  0
 45 47  1  0  0  0  0
 45 48  1  0  0  0  0
 45 49  1  0  0  0  0
 21 29  1  0  0  0  0
 21 30  1  0  0  0  0
 35 40  1  0  0  0  0
  8 13  1  0  0  0  0
 18 28  1  0  0  0  0
 23 31  1  0  0  0  0
 44 46  1  0  0  0  0
  7 12  1  0  0  0  0
 34 39  1  0  0  0  0
 17 27  1  0  0  0  0
M  END
$$$$

  -OEChem-05262214473D

 49 49  0     1  0  0  0  0  0999 V2000
   -1.5619    0.5658    3.7981 C   0  0  0  0  0  0  0  0  0  0  0  0
   -0.6145   -0.0489    3.3224 O   0  0  0  0  0  0  0  0  0  0  0  0
   -1.9938    0.2834    5.1988 C   0  0  0  0  0  0  0  0  0  0  0  0
   -2.7535   -0.5129    5.2522 H   0  0  0  0  0  0  0  0  0  0  0  0
   -1.1626   -0.0642    5.8331 H   0  0  0  0  0  0  0  0  0  0  0  0
   -2.4318    1.1383    5.7384 H   0  0  0  0  0  0  0  0  0  0  0  0
   -2.3116    1.5383    3.1570 N   0  0  0  0  0  0  0  0  0  0  0  0
   -2.0648    1.9643    1.8046 C   0  0  2  0  0  0  0  0  0  0  0  0
   -0.7298    1.3789    1.3634 C   0  0  0  0  0  0  0  0  0  0  0  0
    0.1423    1.0262    2.1547 O   0  0  0  0  0  0  0  0  0  0  0  0
   -2.0560    3.4811    1.6952 C   0  0  0  0  0  0  0  0  0  0  0  0
   -3.0767    1.9741    3.6688 H   0  0  0  0  0  0  0  0  0  0  0  0
   -2.8689    1.5458    1.1895 H   0  0  0  0  0  0  0  0  0  0  0  0
   -1.2569    3.9183    2.3049 H   0  0  0  0  0  0  0  0  0  0  0  0
   -1.8965    3.8033    0.6609 H   0  0  0  0  0  0  0  0  0  0  0  0
   -3.0062    3.9023    2.0409 H   0  0  0  0  0  0  0  0  0  0  0  0
   -0.6071    1.3358   -0.0200 N   0  0  0  0  0  0  0  0  0  0  0  0
    0.5702    0.8350   -0.6836 C   0  0  2  0  0  0  0  0  0  0  0  0
    1.1295    1.9732   -1.5297 C   0  0  0  0  0  0  0  0  0  0  0  0
    0.4772    2.5405   -2.4035 O   0  0  0  0  0  0  0  0  0  0  0  0
    0.2650   -0.3827   -1.5635 C   0  0  0  0  0  0  0  0  0  0  0  0
   -0.2142   -1.5723   -0.7678 C   0  0  0  0  0  0  0  0  0  0  0  0
    0.6244   -2.3426   -0.0124 N   0  0  0  0  0  0  0  0  0  0  0  0
   -1.4566   -2.1374   -0.6017 C   0  0  0  0  0  0  0  0  0  0  0  0
   -0.1311   -3.3235    0.5675 C   0  0  0  0  0  0  0  0  0  0  0  0
   -1.3981   -3.2270    0.2308 N   0  0  0  0  0  0  0  0  0  0  0  0
   -1.3903    1.6325   -0.5973 H   0  0  0  0  0  0  0  0  0  0  0  0
    1.2907    0.5858    0.1042 H   0  0  0  0  0  0  0  0  0  0  0  0
    1.1525   -0.6622   -2.1474 H   0  0  0  0  0  0  0  0  0  0  0  0
   -0.5032   -0.1352   -2.3080 H   0  0  0  0  0  0  0  0  0  0  0  0
    1.6217   -2.2142    0.0983 H   0  0  0  0  0  0  0  0  0  0  0  0
   -2.3918   -1.8170   -1.0382 H   0  0  0  0  0  0  0  0  0  0  0  0
    0.2997   -4.0704    1.2190 H   0  0  0  0  0  0  0  0  0  0  0  0
    2.4235    2.3101   -1.1573 N   0  0  0  0  0  0  0  0  0  0  0  0
    3.1785    3.3717   -1.7832 C   0  0  2  0  0  0  0  0  0  0  0  0
    3.1072    3.1733   -3.2915 C   0  0  0  0  0  0  0  0  0  0  0  0
    2.8627    2.0880   -3.8145 O   0  0  0  0  0  0  0  0  0  0  0  0
    4.6217    3.3812   -1.3038 C   0  0  0  0  0  0  0  0  0  0  0  0
    2.8618    1.7840   -0.4070 H   0  0  0  0  0  0  0  0  0  0  0  0
    2.6849    4.3119   -1.5142 H   0  0  0  0  0  0  0  0  0  0  0  0
    5.1326    2.4470   -1.5643 H   0  0  0  0  0  0  0  0  0  0  0  0
    5.1850    4.2035   -1.7572 H   0  0  0  0  0  0  0  0  0  0  0  0
    4.6701    3.4941   -0.2153 H   0  0  0  0  0  0  0  0  0  0  0  0
    3.3914    4.3411   -3.9855 N   0  0  0  0  0  0  0  0  0  0  0  0
    3.4004    4.4081   -5.4282 C   0  0  0  0  0  0  0  0  0  0  0  0
    3.5644    5.1991   -3.4701 H   0  0  0  0  0  0  0  0  0  0  0  0
    4.4195    4.2220   -5.7981 H   0  0  0  0  0  0  0  0  0  0  0  0
    2.7182    3.6470   -5.8347 H   0  0  0  0  0  0  0  0  0  0  0  0
    3.0700    5.4065   -5.7508 H   0  0  0  0  0  0  0  0  0  0  0  0
 22 24  2  0  0  0  0
 24 26  1  0  0  0  0
 25 26  2  0  0  0  0
 23 25  1  0  0  0  0
 21 22  1  0  0  0  0
 22 23  1  0  0  0  0
  1  3  1  0  0  0  0
  1  7  1  0  0  0  0
  1  2  2  0  0  0  0
 35 36  1  0  0  0  0
 36 44  1  0  0  0  0
 36 37  2  0  0  0  0
  8  9  1  0  0  0  0
  9 17  1  0  0  0  0
  9 10  2  0  0  0  0
 18 19  1  0  0  0  0
 19 34  1  0  0  0  0
 19 20  2  0  0  0  0
 35 38  1  0  0  0  0
  8 11  1  0  0  0  0
 44 45  1  0  0  0  0
 18 21  1  0  0  0  0
 34 35  1  0  0  0  0
  7  8  1  0  0  0  0
 17 18  1  0  0  0  0
 24 32  1  0  0  0  0
 25 33  1  0  0  0  0
  3  4  1  0  0  0  0
  3  5  1  0  0  0  0
  3  6  1  0  0  0  0
 38 41  1  0  0  0  0
 38 42  1  0  0  0  0
 38 43  1  0  0  0  0
 11 14  1  0  0  0  0
 11 15  1  0  0  0  0
 11 16  1  0  0  0  0
 45 47  1  0  0  0  0
 45 48  1  0  0  0  0
 45 49  1  0  0  0  0
 21 29  1  0  0  0  0
 21 30  1  0  0  0  0
 35 40  1  0  0  0  0
  8 13  1  0  0  0  0
 18 28  1  0  0  0  0
 23 31  1  0  0  0  0
 44 46  1  0  0  0  0
  7 12  1  0  0  0  0
 34 39  1  0  0  0  0
 17 27  1  0  0  0  0
M  END
$$$$

  -OEChem-05262214473D

 49 49  0     1  0  0  0  0  0999 V2000
   -1.5619    0.5658    3.7981 C   0  0  0  0  0  0  0  0  0  0  0  0
   -0.6145   -0.0489    3.3224 O   0  0  0  0  0  0  0  0  0  0  0  0
   -1.9938    0.2834    5.1988 C   0  0  0  0  0  0  0  0  0  0  0  0
   -2.7535   -0.5129    5.2522 H   0  0  0  0  0  0  0  0  0  0  0  0
   -1.1626   -0.0642    5.8331 H   0  0  0  0  0  0  0  0  0  0  0  0
   -2.4318    1.1383    5.7384 H   0  0  0  0  0  0  0  0  0  0  0  0
   -2.3116    1.5383    3.1570 N   0  0  0  0  0  0  0  0  0  0  0  0
   -2.0648    1.9643    1.8046 C   0  0  2  0  0  0  0  0  0  0  0  0
   -0.7298    1.3789    1.3634 C   0  0  0  0  0  0  0  0  0  0  0  0
    0.1423    1.0262    2.1547 O   0  0  0  0  0  0  0  0  0  0  0  0
   -2.0560    3.4811    1.6952 C   0  0  0  0  0  0  0  0  0  0  0  0
   -3.0767    1.9741    3.6688 H   0  0  0  0  0  0  0  0  0  0  0  0
   -2.8689    1.5458    1.1895 H   0  0  0  0  0  0  0  0  0  0  0  0
   -1.2569    3.9183    2.3049 H   0  0  0  0  0  0  0  0  0  0  0  0
   -1.8965    3.8033    0.6609 H   0  0  0  0  0  0  0  0  0  0  0  0
   -3.0062    3.9023    2.0409 H   0  0  0  0  0  0  0  0  0  0  0  0
   -0.6071    1.3358   -0.0200 N   0  0  0  0  0  0  0  0  0  0  0  0
    0.5702    0.8350   -0.6836 C   0  0  2  0  0  0  0  0  0  0  0  0
    1.1295    1.9732   -1.5297 C   0  0  0  0  0  0  0  0  0  0  0  0
    0.4204    2.7149   -2.2064 O   0  0  0  0  0  0  0  0  0  0  0  0
    0.2650   -0.3827   -1.5635 C   0  0  0  0  0  0  0  0  0  0  0  0
   -0.2142   -1.5723   -0.7678 C   0  0  0  0  0  0  0  0  0  0  0  0
    0.6244   -2.3426   -0.0124 N   0  0  0  0  0  0  0  0  0  0  0  0
   -1.4566   -2.1374   -0.6017 C   0  0  0  0  0  0  0  0  0  0  0  0
   -0.1311   -3.3235    0.5675 C   0  0  0  0  0  0  0  0  0  0  0  0
   -1.3981   -3.2270    0.2308 N   0  0  0  0  0  0  0  0  0  0  0  0
   -1.3903    1.6325   -0.5973 H   0  0  0  0  0  0  0  0  0  0  0  0
    1.2907    0.5858    0.1042 H   0  0  0  0  0  0  0  0  0  0  0  0
    1.1525   -0.6622   -2.1474 H   0  0  0  0  0  0  0  0  0  0  0  0
   -0.5032   -0.1352   -2.3080 H   0  0  0  0  0  0  0  0  0  0  0  0
    1.6217   -2.2142    0.0983 H   0  0  0  0  0  0  0  0  0  0  0  0
   -2.3918   -1.8170   -1.0382 H   0  0  0  0  0  0  0  0  0  0  0  0
    0.2997   -4.0704    1.2190 H   0  0  0  0  0  0  0  0  0  0  0  0
    2.5062    2.0906   -1.3978 N   0  0  0  0  0  0  0  0  0  0  0  0
    3.2848    3.1031   -2.0743 C   0  0  2  0  0  0  0  0  0  0  0  0
    2.9042    3.0818   -3.5488 C   0  0  0  0  0  0  0  0  0  0  0  0
    2.4035    2.1028   -4.0983 O   0  0  0  0  0  0  0  0  0  0  0  0
    4.7762    2.8663   -1.8943 C   0  0  0  0  0  0  0  0  0  0  0  0
    2.9910    1.4318   -0.7956 H   0  0  0  0  0  0  0  0  0  0  0  0
    2.9997    4.0661   -1.6368 H   0  0  0  0  0  0  0  0  0  0  0  0
    5.0806    1.9061   -2.3265 H   0  0  0  0  0  0  0  0  0  0  0  0
    5.3641    3.6500   -2.3833 H   0  0  0  0  0  0  0  0  0  0  0  0
    5.0432    2.8523   -0.8321 H   0  0  0  0  0  0  0  0  0  0  0  0
    3.2294    4.2695   -4.1889 N   0  0  0  0  0  0  0  0  0  0  0  0
    2.9796    4.4917   -5.5940 C   0  0  0  0  0  0  0  0  0  0  0  0
    3.6245    5.0351   -3.6509 H   0  0  0  0  0  0  0  0  0  0  0  0
    3.8712    4.2119   -6.1742 H   0  0  0  0  0  0  0  0  0  0  0  0
    2.1253    3.8780   -5.9159 H   0  0  0  0  0  0  0  0  0  0  0  0
    2.7515    5.5546   -5.7622 H   0  0  0  0  0  0  0  0  0  0  0  0
 22 24  2  0  0  0  0
 24 26  1  0  0  0  0
 25 26  2  0  0  0  0
 23 25  1  0  0  0  0
 21 22  1  0  0  0  0
 22 23  1  0  0  0  0
  1  3  1  0  0  0  0
  1  7  1  0  0  0  0
  1  2  2  0  0  0  0
 35 36  1  0  0  0  0
 36 44  1  0  0  0  0
 36 37  2  0  0  0  0
  8  9  1  0  0  0  0
  9 17  1  0  0  0  0
  9 10  2  0  0  0  0
 18 19  1  0  0  0  0
 19 34  1  0  0  0  0
 19 20  2  0  0  0  0
 35 38  1  0  0  0  0
  8 11  1  0  0  0  0
 44 45  1  0  0  0  0
 18 21  1  0  0  0  0
 34 35  1  0  0  0  0
  7  8  1  0  0  0  0
 17 18  1  0  0  0  0
 24 32  1  0  0  0  0
 25 33  1  0  0  0  0
  3  4  1  0  0  0  0
  3  5  1  0  0  0  0
  3  6  1  0  0  0  0
 38 41  1  0  0  0  0
 38 42  1  0  0  0  0
 38 43  1  0  0  0  0
 11 14  1  0  0  0  0
 11 15  1  0  0  0  0
 11 16  1  0  0  0  0
 45 47  1  0  0  0  0
 45 48  1  0  0  0  0
 45 49  1  0  0  0  0
 21 29  1  0  0  0  0
 21 30  1  0  0  0  0
 35 40  1  0  0  0  0
  8 13  1  0  0  0  0
 18 28  1  0  0  0  0
 23 31  1  0  0  0  0
 44 46  1  0  0  0  0
  7 12  1  0  0  0  0
 34 39  1  0  0  0  0
 17 27  1  0  0  0  0
M  END
$$$$

  -OEChem-05262214473D

 49 49  0     1  0  0  0  0  0999 V2000
   -1.5619    0.5658    3.7981 C   0  0  0  0  0  0  0  0  0  0  0  0
   -0.6145   -0.0489    3.3224 O   0  0  0  0  0  0  0  0  0  0  0  0
   -1.9938    0.2834    5.1988 C   0  0  0  0  0  0  0  0  0  0  0  0
   -2.7535   -0.5129    5.2522 H   0  0  0  0  0  0  0  0  0  0  0  0
   -1.1626   -0.0642    5.8331 H   0  0  0  0  0  0  0  0  0  0  0  0
   -2.4318    1.1383    5.7384 H   0  0  0  0  0  0  0  0  0  0  0  0
   -2.3116    1.5383    3.1570 N   0  0  0  0  0  0  0  0  0  0  0  0
   -2.0648    1.9643    1.8046 C   0  0  2  0  0  0  0  0  0  0  0  0
   -0.7298    1.3789    1.3634 C   0  0  0  0  0  0  0  0  0  0  0  0
    0.1423    1.0262    2.1547 O   0  0  0  0  0  0  0  0  0  0  0  0
   -2.0560    3.4811    1.6952 C   0  0  0  0  0  0  0  0  0  0  0  0
   -3.0767    1.9741    3.6688 H   0  0  0  0  0  0  0  0  0  0  0  0
   -2.8689    1.5458    1.1895 H   0  0  0  0  0  0  0  0  0  0  0  0
   -1.2569    3.9183    2.3049 H   0  0  0  0  0  0  0  0  0  0  0  0
   -1.8965    3.8033    0.6609 H   0  0  0  0  0  0  0  0  0  0  0  0
   -3.0062    3.9023    2.0409 H   0  0  0  0  0  0  0  0  0  0  0  0
   -0.6071    1.3358   -0.0200 N   0  0  0  0  0  0  0  0  0  0  0  0
    0.5702    0.8350   -0.6836 C   0  0  2  0  0  0  0  0  0  0  0  0
    1.1295    1.9732   -1.5297 C   0  0  0  0  0  0  0  0  0  0  0  0
    0.4287    2.8728   -1.9886 O   0  0  0  0  0  0  0  0  0  0  0  0
    0.2650   -0.3827   -1.5635 C   0  0  0  0  0  0  0  0  0  0  0  0
   -0.2142   -1.5723   -0.7678 C   0  0  0  0  0  0  0  0  0  0  0  0
    0.6244   -2.3426   -0.0124 N   0  0  0  0  0  0  0  0  0  0  0  0
   -1.4566   -2.1374   -0.6017 C   0  0  0  0  0  0  0  0  0  0  0  0
   -0.1311   -3.3235    0.5675 C   0  0  0  0  0  0  0  0  0  0  0  0
   -1.3981   -3.2270    0.2308 N   0  0  0  0  0  0  0  0  0  0  0  0
   -1.3903    1.6325   -0.5973 H   0  0  0  0  0  0  0  0  0  0  0  0
    1.2907    0.5858    0.1042 H   0  0  0  0  0  0  0  0  0  0  0  0
    1.1525   -0.6622   -2.1474 H   0  0  0  0  0  0  0  0  0  0  0  0
   -0.5032   -0.1352   -2.3080 H   0  0  0  0  0  0  0  0  0  0  0  0
    1.6217   -2.2142    0.0983 H   0  0  0  0  0  0  0  0  0  0  0  0
   -2.3918   -1.8170   -1.0382 H   0  0  0  0  0  0  0  0  0  0  0  0
    0.2997   -4.0704    1.2190 H   0  0  0  0  0  0  0  0  0  0  0  0
    2.5081    1.8896   -1.6670 N   0  0  0  0  0  0  0  0  0  0  0  0
    3.2926    2.8560   -2.4015 C   0  0  2  0  0  0  0  0  0  0  0  0
    2.6453    3.0470   -3.7669 C   0  0  0  0  0  0  0  0  0  0  0  0
    1.9072    2.2099   -4.2823 O   0  0  0  0  0  0  0  0  0  0  0  0
    4.7373    2.4029   -2.5435 C   0  0  0  0  0  0  0  0  0  0  0  0
    2.9900    1.1099   -1.2293 H   0  0  0  0  0  0  0  0  0  0  0  0
    3.2447    3.7950   -1.8395 H   0  0  0  0  0  0  0  0  0  0  0  0
    4.8053    1.4634   -3.1040 H   0  0  0  0  0  0  0  0  0  0  0  0
    5.3367    3.1492   -3.0753 H   0  0  0  0  0  0  0  0  0  0  0  0
    5.1922    2.2374   -1.5609 H   0  0  0  0  0  0  0  0  0  0  0  0
    3.0233    4.2430   -4.3609 N   0  0  0  0  0  0  0  0  0  0  0  0
    2.5531    4.6486   -5.6649 C   0  0  0  0  0  0  0  0  0  0  0  0
    3.6241    4.8853   -3.8528 H   0  0  0  0  0  0  0  0  0  0  0  0
    3.2675    4.3165   -6.4325 H   0  0  0  0  0  0  0  0  0  0  0  0
    1.5701    4.1940   -5.8578 H   0  0  0  0  0  0  0  0  0  0  0  0
    2.4630    5.7444   -5.6975 H   0  0  0  0  0  0  0  0  0  0  0  0
 22 24  2  0  0  0  0
 24 26  1  0  0  0  0
 25 26  2  0  0  0  0
 23 25  1  0  0  0  0
 21 22  1  0  0  0  0
 22 23  1  0  0  0  0
  1  3  1  0  0  0  0
  1  7  1  0  0  0  0
  1  2  2  0  0  0  0
 35 36  1  0  0  0  0
 36 44  1  0  0  0  0
 36 37  2  0  0  0  0
  8  9  1  0  0  0  0
  9 17  1  0  0  0  0
  9 10  2  0  0  0  0
 18 19  1  0  0  0  0
 19 34  1  0  0  0  0
 19 20  2  0  0  0  0
 35 38  1  0  0  0  0
  8 11  1  0  0  0  0
 44 45  1  0  0  0  0
 18 21  1  0  0  0  0
 34 35  1  0  0  0  0
  7  8  1  0  0  0  0
 17 18  1  0  0  0  0
 24 32  1  0  0  0  0
 25 33  1  0  0  0  0
  3  4  1  0  0  0  0
  3  5  1  0  0  0  0
  3  6  1  0  0  0  0
 38 41  1  0  0  0  0
 38 42  1  0  0  0  0
 38 43  1  0  0  0  0
 11 14  1  0  0  0  0
 11 15  1  0  0  0  0
 11 16  1  0  0  0  0
 45 47  1  0  0  0  0
 45 48  1  0  0  0  0
 45 49  1  0  0  0  0
 21 29  1  0  0  0  0
 21 30  1  0  0  0  0
 35 40  1  0  0  0  0
  8 13  1  0  0  0  0
 18 28  1  0  0  0  0
 23 31  1  0  0  0  0
 44 46  1  0  0  0  0
  7 12  1  0  0  0  0
 34 39  1  0  0  0  0
 17 27  1  0  0  0  0
M  END
$$$$

  -OEChem-05262214473D

 49 49  0     1  0  0  0  0  0999 V2000
   -1.5619    0.5658    3.7981 C   0  0  0  0  0  0  0  0  0  0  0  0
   -0.6145   -0.0489    3.3224 O   0  0  0  0  0  0  0  0  0  0  0  0
   -1.9938    0.2834    5.1988 C   0  0  0  0  0  0  0  0  0  0  0  0
   -2.7535   -0.5129    5.2522 H   0  0  0  0  0  0  0  0  0  0  0  0
   -1.1626   -0.0642    5.8331 H   0  0  0  0  0  0  0  0  0  0  0  0
   -2.4318    1.1383    5.7384 H   0  0  0  0  0  0  0  0  0  0  0  0
   -2.3116    1.5383    3.1570 N   0  0  0  0  0  0  0  0  0  0  0  0
   -2.0648    1.9643    1.8046 C   0  0  2  0  0  0  0  0  0  0  0  0
   -0.7298    1.3789    1.3634 C   0  0  0  0  0  0  0  0  0  0  0  0
    0.1423    1.0262    2.1547 O   0  0  0  0  0  0  0  0  0  0  0  0
   -2.0560    3.4811    1.6952 C   0  0  0  0  0  0  0  0  0  0  0  0
   -3.0767    1.9741    3.6688 H   0  0  0  0  0  0  0  0  0  0  0  0
   -2.8689    1.5458    1.1895 H   0  0  0  0  0  0  0  0  0  0  0  0
   -1.2569    3.9183    2.3049 H   0  0  0  0  0  0  0  0  0  0  0  0
   -1.8965    3.8033    0.6609 H   0  0  0  0  0  0  0  0  0  0  0  0
   -3.0062    3.9023    2.0409 H   0  0  0  0  0  0  0  0  0  0  0  0
   -0.6071    1.3358   -0.0200 N   0  0  0  0  0  0  0  0  0  0  0  0
    0.5702    0.8350   -0.6836 C   0  0  2  0  0  0  0  0  0  0  0  0
    1.1295    1.9732   -1.5297 C   0  0  0  0  0  0  0  0  0  0  0  0
    0.5015    3.0034   -1.7647 O   0  0  0  0  0  0  0  0  0  0  0  0
    0.2650   -0.3827   -1.5635 C   0  0  0  0  0  0  0  0  0  0  0  0
   -0.2142   -1.5723   -0.7678 C   0  0  0  0  0  0  0  0  0  0  0  0
    0.6244   -2.3426   -0.0124 N   0  0  0  0  0  0  0  0  0  0  0  0
   -1.4566   -2.1374   -0.6017 C   0  0  0  0  0  0  0  0  0  0  0  0
   -0.1311   -3.3235    0.5675 C   0  0  0  0  0  0  0  0  0  0  0  0
   -1.3981   -3.2270    0.2308 N   0  0  0  0  0  0  0  0  0  0  0  0
   -1.3903    1.6325   -0.5973 H   0  0  0  0  0  0  0  0  0  0  0  0
    1.2907    0.5858    0.1042 H   0  0  0  0  0  0  0  0  0  0  0  0
    1.1525   -0.6622   -2.1474 H   0  0  0  0  0  0  0  0  0  0  0  0
   -0.5032   -0.1352   -2.3080 H   0  0  0  0  0  0  0  0  0  0  0  0
    1.6217   -2.2142    0.0983 H   0  0  0  0  0  0  0  0  0  0  0  0
   -2.3918   -1.8170   -1.0382 H   0  0  0  0  0  0  0  0  0  0  0  0
    0.2997   -4.0704    1.2190 H   0  0  0  0  0  0  0  0  0  0  0  0
    2.4291    1.7207   -1.9465 N   0  0  0  0  0  0  0  0  0  0  0  0
    3.2014    2.6473   -2.7426 C   0  0  2  0  0  0  0  0  0  0  0  0
    2.3481    3.0712   -3.9307 C   0  0  0  0  0  0  0  0  0  0  0  0
    1.4077    2.4022   -4.3539 O   0  0  0  0  0  0  0  0  0  0  0  0
    4.5078    2.0225   -3.2070 C   0  0  0  0  0  0  0  0  0  0  0  0
    2.8591    0.8403   -1.6786 H   0  0  0  0  0  0  0  0  0  0  0  0
    3.4033    3.5173   -2.1083 H   0  0  0  0  0  0  0  0  0  0  0  0
    4.3257    1.1492   -3.8439 H   0  0  0  0  0  0  0  0  0  0  0  0
    5.1046    2.7350   -3.7860 H   0  0  0  0  0  0  0  0  0  0  0  0
    5.1070    1.6912   -2.3521 H   0  0  0  0  0  0  0  0  0  0  0  0
    2.7872    4.2632   -4.4897 N   0  0  0  0  0  0  0  0  0  0  0  0
    2.1499    4.8681   -5.6360 C   0  0  0  0  0  0  0  0  0  0  0  0
    3.5632    4.7598   -4.0620 H   0  0  0  0  0  0  0  0  0  0  0  0
    2.6495    4.5289   -6.5554 H   0  0  0  0  0  0  0  0  0  0  0  0
    1.0905    4.5734   -5.6644 H   0  0  0  0  0  0  0  0  0  0  0  0
    2.2240    5.9631   -5.5613 H   0  0  0  0  0  0  0  0  0  0  0  0
 22 24  2  0  0  0  0
 24 26  1  0  0  0  0
 25 26  2  0  0  0  0
 23 25  1  0  0  0  0
 21 22  1  0  0  0  0
 22 23  1  0  0  0  0
  1  3  1  0  0  0  0
  1  7  1  0  0  0  0
  1  2  2  0  0  0  0
 35 36  1  0  0  0  0
 36 44  1  0  0  0  0
 36 37  2  0  0  0  0
  8  9  1  0  0  0  0
  9 17  1  0  0  0  0
  9 10  2  0  0  0  0
 18 19  1  0  0  0  0
 19 34  1  0  0  0  0
 19 20  2  0  0  0  0
 35 38  1  0  0  0  0
  8 11  1  0  0  0  0
 44 45  1  0  0  0  0
 18 21  1  0  0  0  0
 34 35  1  0  0  0  0
  7  8  1  0  0  0  0
 17 18  1  0  0  0  0
 24 32  1  0  0  0  0
 25 33  1  0  0  0  0
  3  4  1  0  0  0  0
  3  5  1  0  0  0  0
  3  6  1  0  0  0  0
 38 41  1  0  0  0  0
 38 42  1  0  0  0  0
 38 43  1  0  0  0  0
 11 14  1  0  0  0  0
 11 15  1  0  0  0  0
 11 16  1  0  0  0  0
 45 47  1  0  0  0  0
 45 48  1  0  0  0  0
 45 49  1  0  0  0  0
 21 29  1  0  0  0  0
 21 30  1  0  0  0  0
 35 40  1  0  0  0  0
  8 13  1  0  0  0  0
 18 28  1  0  0  0  0
 23 31  1  0  0  0  0
 44 46  1  0  0  0  0
  7 12  1  0  0  0  0
 34 39  1  0  0  0  0
 17 27  1  0  0  0  0
M  END
$$$$

  -OEChem-05262214473D

 49 49  0     1  0  0  0  0  0999 V2000
   -1.5619    0.5658    3.7981 C   0  0  0  0  0  0  0  0  0  0  0  0
   -0.6145   -0.0489    3.3224 O   0  0  0  0  0  0  0  0  0  0  0  0
   -1.9938    0.2834    5.1988 C   0  0  0  0  0  0  0  0  0  0  0  0
   -2.7535   -0.5129    5.2522 H   0  0  0  0  0  0  0  0  0  0  0  0
   -1.1626   -0.0642    5.8331 H   0  0  0  0  0  0  0  0  0  0  0  0
   -2.4318    1.1383    5.7384 H   0  0  0  0  0  0  0  0  0  0  0  0
   -2.3116    1.5383    3.1570 N   0  0  0  0  0  0  0  0  0  0  0  0
   -2.0648    1.9643    1.8046 C   0  0  2  0  0  0  0  0  0  0  0  0
   -0.7298    1.3789    1.3634 C   0  0  0  0  0  0  0  0  0  0  0  0
    0.1423    1.0262    2.1547 O   0  0  0  0  0  0  0  0  0  0  0  0
   -2.0560    3.4811    1.6952 C   0  0  0  0  0  0  0  0  0  0  0  0
   -3.0767    1.9741    3.6688 H   0  0  0  0  0  0  0  0  0  0  0  0
   -2.8689    1.5458    1.1895 H   0  0  0  0  0  0  0  0  0  0  0  0
   -1.2569    3.9183    2.3049 H   0  0  0  0  0  0  0  0  0  0  0  0
   -1.8965    3.8033    0.6609 H   0  0  0  0  0  0  0  0  0  0  0  0
   -3.0062    3.9023    2.0409 H   0  0  0  0  0  0  0  0  0  0  0  0
   -0.6071    1.3358   -0.0200 N   0  0  0  0  0  0  0  0  0  0  0  0
    0.5702    0.8350   -0.6836 C   0  0  2  0  0  0  0  0  0  0  0  0
    1.3348    2.0413   -1.2170 C   0  0  0  0  0  0  0  0  0  0  0  0
    0.9699    3.2003   -1.0313 O   0  0  0  0  0  0  0  0  0  0  0  0
    0.2255   -0.1257   -1.8275 C   0  0  0  0  0  0  0  0  0  0  0  0
   -0.4603   -1.3817   -1.3480 C   0  0  0  0  0  0  0  0  0  0  0  0
    0.2069   -2.3926   -0.7154 N   0  0  0  0  0  0  0  0  0  0  0  0
   -1.7675   -1.8041   -1.4048 C   0  0  0  0  0  0  0  0  0  0  0  0
   -0.7071   -3.3662   -0.4220 C   0  0  0  0  0  0  0  0  0  0  0  0
   -1.9146   -3.0400   -0.8264 N   0  0  0  0  0  0  0  0  0  0  0  0
   -1.3903    1.6325   -0.5973 H   0  0  0  0  0  0  0  0  0  0  0  0
    1.1743    0.3382    0.0846 H   0  0  0  0  0  0  0  0  0  0  0  0
    1.1323   -0.3909   -2.3879 H   0  0  0  0  0  0  0  0  0  0  0  0
   -0.4303    0.3668   -2.5576 H   0  0  0  0  0  0  0  0  0  0  0  0
    1.1956   -2.4194   -0.5029 H   0  0  0  0  0  0  0  0  0  0  0  0
   -2.6122   -1.2829   -1.8322 H   0  0  0  0  0  0  0  0  0  0  0  0
   -0.4299   -4.2805    0.0832 H   0  0  0  0  0  0  0  0  0  0  0  0
    2.4960    1.6689   -1.8797 N   0  0  0  0  0  0  0  0  0  0  0  0
    3.4167    2.6186   -2.4622 C   0  0  2  0  0  0  0  0  0  0  0  0
    2.6138    3.5841   -3.3240 C   0  0  0  0  0  0  0  0  0  0  0  0
    1.5077    3.3106   -3.7854 O   0  0  0  0  0  0  0  0  0  0  0  0
    4.4877    1.9184   -3.2839 C   0  0  0  0  0  0  0  0  0  0  0  0
    2.7096    0.6791   -1.9594 H   0  0  0  0  0  0  0  0  0  0  0  0
    3.8754    3.1651   -1.6309 H   0  0  0  0  0  0  0  0  0  0  0  0
    4.0471    1.3655   -4.1215 H   0  0  0  0  0  0  0  0  0  0  0  0
    5.2009    2.6371   -3.7009 H   0  0  0  0  0  0  0  0  0  0  0  0
    5.0446    1.2027   -2.6695 H   0  0  0  0  0  0  0  0  0  0  0  0
    3.2964    4.7706   -3.5529 N   0  0  0  0  0  0  0  0  0  0  0  0
    2.7505    5.8423   -4.3526 C   0  0  0  0  0  0  0  0  0  0  0  0
    4.2008    4.9192   -3.1152 H   0  0  0  0  0  0  0  0  0  0  0  0
    3.0816    5.7278   -5.3953 H   0  0  0  0  0  0  0  0  0  0  0  0
    1.6518    5.8077   -4.3110 H   0  0  0  0  0  0  0  0  0  0  0  0
    3.1020    6.8080   -3.9603 H   0  0  0  0  0  0  0  0  0  0  0  0
 22 24  2  0  0  0  0
 24 26  1  0  0  0  0
 25 26  2  0  0  0  0
 23 25  1  0  0  0  0
 21 22  1  0  0  0  0
 22 23  1  0  0  0  0
  1  3  1  0  0  0  0
  1  7  1  0  0  0  0
  1  2  2  0  0  0  0
 35 36  1  0  0  0  0
 36 44  1  0  0  0  0
 36 37  2  0  0  0  0
  8  9  1  0  0  0  0
  9 17  1  0  0  0  0
  9 10  2  0  0  0  0
 18 19  1  0  0  0  0
 19 34  1  0  0  0  0
 19 20  2  0  0  0  0
 35 38  1  0  0  0  0
  8 11  1  0  0  0  0
 44 45  1  0  0  0  0
 18 21  1  0  0  0  0
 34 35  1  0  0  0  0
  7  8  1  0  0  0  0
 17 18  1  0  0  0  0
 24 32  1  0  0  0  0
 25 33  1  0  0  0  0
  3  4  1  0  0  0  0
  3  5  1  0  0  0  0
  3  6  1  0  0  0  0
 38 41  1  0  0  0  0
 38 42  1  0  0  0  0
 38 43  1  0  0  0  0
 11 14  1  0  0  0  0
 11 15  1  0  0  0  0
 11 16  1  0  0  0  0
 45 47  1  0  0  0  0
 45 48  1  0  0  0  0
 45 49  1  0  0  0  0
 21 29  1  0  0  0  0
 21 30  1  0  0  0  0
 35 40  1  0  0  0  0
  8 13  1  0  0  0  0
 18 28  1  0  0  0  0
 23 31  1  0  0  0  0
 44 46  1  0  0  0  0
  7 12  1  0  0  0  0
 34 39  1  0  0  0  0
 17 27  1  0  0  0  0
M  END
$$$$

  -OEChem-05262214473D

 49 49  0     1  0  0  0  0  0999 V2000
   -1.5619    0.5658    3.7981 C   0  0  0  0  0  0  0  0  0  0  0  0
   -0.6145   -0.0489    3.3224 O   0  0  0  0  0  0  0  0  0  0  0  0
   -1.9938    0.2834    5.1988 C   0  0  0  0  0  0  0  0  0  0  0  0
   -2.7535   -0.5129    5.2522 H   0  0  0  0  0  0  0  0  0  0  0  0
   -1.1626   -0.0642    5.8331 H   0  0  0  0  0  0  0  0  0  0  0  0
   -2.4318    1.1383    5.7384 H   0  0  0  0  0  0  0  0  0  0  0  0
   -2.3116    1.5383    3.1570 N   0  0  0  0  0  0  0  0  0  0  0  0
   -2.0648    1.9643    1.8046 C   0  0  2  0  0  0  0  0  0  0  0  0
   -0.7298    1.3789    1.3634 C   0  0  0  0  0  0  0  0  0  0  0  0
    0.1423    1.0262    2.1547 O   0  0  0  0  0  0  0  0  0  0  0  0
   -2.0560    3.4811    1.6952 C   0  0  0  0  0  0  0  0  0  0  0  0
   -3.0767    1.9741    3.6688 H   0  0  0  0  0  0  0  0  0  0  0  0
   -2.8689    1.5458    1.1895 H   0  0  0  0  0  0  0  0  0  0  0  0
   -1.2569    3.9183    2.3049 H   0  0  0  0  0  0  0  0  0  0  0  0
   -1.8965    3.8033    0.6609 H   0  0  0  0  0  0  0  0  0  0  0  0
   -3.0062    3.9023    2.0409 H   0  0  0  0  0  0  0  0  0  0  0  0
   -0.6071    1.3358   -0.0200 N   0  0  0  0  0  0  0  0  0  0  0  0
    0.5702    0.8350   -0.6836 C   0  0  2  0  0  0  0  0  0  0  0  0
    1.3348    2.0413   -1.2170 C   0  0  0  0  0  0  0  0  0  0  0  0
    1.1367    3.1878   -0.8204 O   0  0  0  0  0  0  0  0  0  0  0  0
    0.2255   -0.1257   -1.8275 C   0  0  0  0  0  0  0  0  0  0  0  0
   -0.4603   -1.3817   -1.3480 C   0  0  0  0  0  0  0  0  0  0  0  0
    0.2069   -2.3926   -0.7154 N   0  0  0  0  0  0  0  0  0  0  0  0
   -1.7675   -1.8041   -1.4048 C   0  0  0  0  0  0  0  0  0  0  0  0
   -0.7071   -3.3662   -0.4220 C   0  0  0  0  0  0  0  0  0  0  0  0
   -1.9146   -3.0400   -0.8264 N   0  0  0  0  0  0  0  0  0  0  0  0
   -1.3903    1.6325   -0.5973 H   0  0  0  0  0  0  0  0  0  0  0  0
    1.1743    0.3382    0.0846 H   0  0  0  0  0  0  0  0  0  0  0  0
    1.1323   -0.3909   -2.3879 H   0  0  0  0  0  0  0  0  0  0  0  0
   -0.4303    0.3668   -2.5576 H   0  0  0  0  0  0  0  0  0  0  0  0
    1.1956   -2.4194   -0.5029 H   0  0  0  0  0  0  0  0  0  0  0  0
   -2.6122   -1.2829   -1.8322 H   0  0  0  0  0  0  0  0  0  0  0  0
   -0.4299   -4.2805    0.0832 H   0  0  0  0  0  0  0  0  0  0  0  0
    2.2959    1.6765   -2.1495 N   0  0  0  0  0  0  0  0  0  0  0  0
    3.1761    2.6243   -2.7942 C   0  0  2  0  0  0  0  0  0  0  0  0
    2.3228    3.7593   -3.3448 C   0  0  0  0  0  0  0  0  0  0  0  0
    1.1248    3.6387   -3.5922 O   0  0  0  0  0  0  0  0  0  0  0  0
    3.9836    1.9649   -3.9014 C   0  0  0  0  0  0  0  0  0  0  0  0
    2.3851    0.6939   -2.3910 H   0  0  0  0  0  0  0  0  0  0  0  0
    3.8452    3.0127   -2.0187 H   0  0  0  0  0  0  0  0  0  0  0  0
    3.3302    1.5697   -4.6877 H   0  0  0  0  0  0  0  0  0  0  0  0
    4.6705    2.6776   -4.3698 H   0  0  0  0  0  0  0  0  0  0  0  0
    4.5739    1.1299   -3.5089 H   0  0  0  0  0  0  0  0  0  0  0  0
    3.0660    4.9100   -3.5680 N   0  0  0  0  0  0  0  0  0  0  0  0
    2.4865    6.1214   -4.0997 C   0  0  0  0  0  0  0  0  0  0  0  0
    4.0498    4.9261   -3.3161 H   0  0  0  0  0  0  0  0  0  0  0  0
    2.5899    6.1281   -5.1948 H   0  0  0  0  0  0  0  0  0  0  0  0
    1.4205    6.1661   -3.8319 H   0  0  0  0  0  0  0  0  0  0  0  0
    3.0075    6.9931   -3.6770 H   0  0  0  0  0  0  0  0  0  0  0  0
 22 24  2  0  0  0  0
 24 26  1  0  0  0  0
 25 26  2  0  0  0  0
 23 25  1  0  0  0  0
 21 22  1  0  0  0  0
 22 23  1  0  0  0  0
  1  3  1  0  0  0  0
  1  7  1  0  0  0  0
  1  2  2  0  0  0  0
 35 36  1  0  0  0  0
 36 44  1  0  0  0  0
 36 37  2  0  0  0  0
  8  9  1  0  0  0  0
  9 17  1  0  0  0  0
  9 10  2  0  0  0  0
 18 19  1  0  0  0  0
 19 34  1  0  0  0  0
 19 20  2  0  0  0  0
 35 38  1  0  0  0  0
  8 11  1  0  0  0  0
 44 45  1  0  0  0  0
 18 21  1  0  0  0  0
 34 35  1  0  0  0  0
  7  8  1  0  0  0  0
 17 18  1  0  0  0  0
 24 32  1  0  0  0  0
 25 33  1  0  0  0  0
  3  4  1  0  0  0  0
  3  5  1  0  0  0  0
  3  6  1  0  0  0  0
 38 41  1  0  0  0  0
 38 42  1  0  0  0  0
 38 43  1  0  0  0  0
 11 14  1  0  0  0  0
 11 15  1  0  0  0  0
 11 16  1  0  0  0  0
 45 47  1  0  0  0  0
 45 48  1  0  0  0  0
 45 49  1  0  0  0  0
 21 29  1  0  0  0  0
 21 30  1  0  0  0  0
 35 40  1  0  0  0  0
  8 13  1  0  0  0  0
 18 28  1  0  0  0  0
 23 31  1  0  0  0  0
 44 46  1  0  0  0  0
  7 12  1  0  0  0  0
 34 39  1  0  0  0  0
 17 27  1  0  0  0  0
M  END
$$$$

  -OEChem-05262214473D

 49 49  0     1  0  0  0  0  0999 V2000
   -1.5619    0.5658    3.7981 C   0  0  0  0  0  0  0  0  0  0  0  0
   -0.6145   -0.0489    3.3224 O   0  0  0  0  0  0  0  0  0  0  0  0
   -1.9938    0.2834    5.1988 C   0  0  0  0  0  0  0  0  0  0  0  0
   -2.7535   -0.5129    5.2522 H   0  0  0  0  0  0  0  0  0  0  0  0
   -1.1626   -0.0642    5.8331 H   0  0  0  0  0  0  0  0  0  0  0  0
   -2.4318    1.1383    5.7384 H   0  0  0  0  0  0  0  0  0  0  0  0
   -2.3116    1.5383    3.1570 N   0  0  0  0  0  0  0  0  0  0  0  0
   -2.0648    1.9643    1.8046 C   0  0  2  0  0  0  0  0  0  0  0  0
   -0.7298    1.3789    1.3634 C   0  0  0  0  0  0  0  0  0  0  0  0
    0.1423    1.0262    2.1547 O   0  0  0  0  0  0  0  0  0  0  0  0
   -2.0560    3.4811    1.6952 C   0  0  0  0  0  0  0  0  0  0  0  0
   -3.0767    1.9741    3.6688 H   0  0  0  0  0  0  0  0  0  0  0  0
   -2.8689    1.5458    1.1895 H   0  0  0  0  0  0  0  0  0  0  0  0
   -1.2569    3.9183    2.3049 H   0  0  0  0  0  0  0  0  0  0  0  0
   -1.8965    3.8033    0.6609 H   0  0  0  0  0  0  0  0  0  0  0  0
   -3.0062    3.9023    2.0409 H   0  0  0  0  0  0  0  0  0  0  0  0
   -0.6071    1.3358   -0.0200 N   0  0  0  0  0  0  0  0  0  0  0  0
    0.5702    0.8350   -0.6836 C   0  0  2  0  0  0  0  0  0  0  0  0
    1.3348    2.0413   -1.2170 C   0  0  0  0  0  0  0  0  0  0  0  0
    1.3399    3.1332   -0.6525 O   0  0  0  0  0  0  0  0  0  0  0  0
    0.2255   -0.1257   -1.8275 C   0  0  0  0  0  0  0  0  0  0  0  0
   -0.4603   -1.3817   -1.3480 C   0  0  0  0  0  0  0  0  0  0  0  0
    0.2069   -2.3926   -0.7154 N   0  0  0  0  0  0  0  0  0  0  0  0
   -1.7675   -1.8041   -1.4048 C   0  0  0  0  0  0  0  0  0  0  0  0
   -0.7071   -3.3662   -0.4220 C   0  0  0  0  0  0  0  0  0  0  0  0
   -1.9146   -3.0400   -0.8264 N   0  0  0  0  0  0  0  0  0  0  0  0
   -1.3903    1.6325   -0.5973 H   0  0  0  0  0  0  0  0  0  0  0  0
    1.1743    0.3382    0.0846 H   0  0  0  0  0  0  0  0  0  0  0  0
    1.1323   -0.3909   -2.3879 H   0  0  0  0  0  0  0  0  0  0  0  0
   -0.4303    0.3668   -2.5576 H   0  0  0  0  0  0  0  0  0  0  0  0
    1.1956   -2.4194   -0.5029 H   0  0  0  0  0  0  0  0  0  0  0  0
   -2.6122   -1.2829   -1.8322 H   0  0  0  0  0  0  0  0  0  0  0  0
   -0.4299   -4.2805    0.0832 H   0  0  0  0  0  0  0  0  0  0  0  0
    2.0480    1.7370   -2.3681 N   0  0  0  0  0  0  0  0  0  0  0  0
    2.8762    2.6947   -3.0650 C   0  0  2  0  0  0  0  0  0  0  0  0
    2.0533    3.9576   -3.2826 C   0  0  0  0  0  0  0  0  0  0  0  0
    0.8241    3.9653   -3.2846 O   0  0  0  0  0  0  0  0  0  0  0  0
    3.3744    2.1357   -4.3887 C   0  0  0  0  0  0  0  0  0  0  0  0
    1.9847    0.7936   -2.7394 H   0  0  0  0  0  0  0  0  0  0  0  0
    3.7229    2.9186   -2.4069 H   0  0  0  0  0  0  0  0  0  0  0  0
    2.5402    1.9052   -5.0613 H   0  0  0  0  0  0  0  0  0  0  0  0
    4.0248    2.8515   -4.9020 H   0  0  0  0  0  0  0  0  0  0  0  0
    3.9408    1.2112   -4.2328 H   0  0  0  0  0  0  0  0  0  0  0  0
    2.8529    5.0675   -3.5173 N   0  0  0  0  0  0  0  0  0  0  0  0
    2.3086    6.3821   -3.7651 C   0  0  0  0  0  0  0  0  0  0  0  0
    3.8635    4.9725   -3.4783 H   0  0  0  0  0  0  0  0  0  0  0  0
    2.1924    6.5332   -4.8485 H   0  0  0  0  0  0  0  0  0  0  0  0
    1.3277    6.4710   -3.2753 H   0  0  0  0  0  0  0  0  0  0  0  0
    2.9911    7.1437   -3.3600 H   0  0  0  0  0  0  0  0  0  0  0  0
 22 24  2  0  0  0  0
 24 26  1  0  0  0  0
 25 26  2  0  0  0  0
 23 25  1  0  0  0  0
 21 22  1  0  0  0  0
 22 23  1  0  0  0  0
  1  3  1  0  0  0  0
  1  7  1  0  0  0  0
  1  2  2  0  0  0  0
 35 36  1  0  0  0  0
 36 44  1  0  0  0  0
 36 37  2  0  0  0  0
  8  9  1  0  0  0  0
  9 17  1  0  0  0  0
  9 10  2  0  0  0  0
 18 19  1  0  0  0  0
 19 34  1  0  0  0  0
 19 20  2  0  0  0  0
 35 38  1  0  0  0  0
  8 11  1  0  0  0  0
 44 45  1  0  0  0  0
 18 21  1  0  0  0  0
 34 35  1  0  0  0  0
  7  8  1  0  0  0  0
 17 18  1  0  0  0  0
 24 32  1  0  0  0  0
 25 33  1  0  0  0  0
  3  4  1  0  0  0  0
  3  5  1  0  0  0  0
  3  6  1  0  0  0  0
 38 41  1  0  0  0  0
 38 42  1  0  0  0  0
 38 43  1  0  0  0  0
 11 14  1  0  0  0  0
 11 15  1  0  0  0  0
 11 16  1  0  0  0  0
 45 47  1  0  0  0  0
 45 48  1  0  0  0  0
 45 49  1  0  0  0  0
 21 29  1  0  0  0  0
 21 30  1  0  0  0  0
 35 40  1  0  0  0  0
  8 13  1  0  0  0  0
 18 28  1  0  0  0  0
 23 31  1  0  0  0  0
 44 46  1  0  0  0  0
  7 12  1  0  0  0  0
 34 39  1  0  0  0  0
 17 27  1  0  0  0  0
M  END
$$$$

  -OEChem-05262214473D

 49 49  0     1  0  0  0  0  0999 V2000
   -1.5619    0.5658    3.7981 C   0  0  0  0  0  0  0  0  0  0  0  0
   -0.6145   -0.0489    3.3224 O   0  0  0  0  0  0  0  0  0  0  0  0
   -1.9938    0.2834    5.1988 C   0  0  0  0  0  0  0  0  0  0  0  0
   -2.7535   -0.5129    5.2522 H   0  0  0  0  0  0  0  0  0  0  0  0
   -1.1626   -0.0642    5.8331 H   0  0  0  0  0  0  0  0  0  0  0  0
   -2.4318    1.1383    5.7384 H   0  0  0  0  0  0  0  0  0  0  0  0
   -2.3116    1.5383    3.1570 N   0  0  0  0  0  0  0  0  0  0  0  0
   -2.0648    1.9643    1.8046 C   0  0  2  0  0  0  0  0  0  0  0  0
   -0.7298    1.3789    1.3634 C   0  0  0  0  0  0  0  0  0  0  0  0
    0.1423    1.0262    2.1547 O   0  0  0  0  0  0  0  0  0  0  0  0
   -2.0560    3.4811    1.6952 C   0  0  0  0  0  0  0  0  0  0  0  0
   -3.0767    1.9741    3.6688 H   0  0  0  0  0  0  0  0  0  0  0  0
   -2.8689    1.5458    1.1895 H   0  0  0  0  0  0  0  0  0  0  0  0
   -1.2569    3.9183    2.3049 H   0  0  0  0  0  0  0  0  0  0  0  0
   -1.8965    3.8033    0.6609 H   0  0  0  0  0  0  0  0  0  0  0  0
   -3.0062    3.9023    2.0409 H   0  0  0  0  0  0  0  0  0  0  0  0
   -0.6071    1.3358   -0.0200 N   0  0  0  0  0  0  0  0  0  0  0  0
    0.5702    0.8350   -0.6836 C   0  0  2  0  0  0  0  0  0  0  0  0
    1.3348    2.0413   -1.2170 C   0  0  0  0  0  0  0  0  0  0  0  0
    1.5656    3.0403   -0.5391 O   0  0  0  0  0  0  0  0  0  0  0  0
    0.2255   -0.1257   -1.8275 C   0  0  0  0  0  0  0  0  0  0  0  0
   -0.4603   -1.3817   -1.3480 C   0  0  0  0  0  0  0  0  0  0  0  0
    0.2069   -2.3926   -0.7154 N   0  0  0  0  0  0  0  0  0  0  0  0
   -1.7675   -1.8041   -1.4048 C   0  0  0  0  0  0  0  0  0  0  0  0
   -0.7071   -3.3662   -0.4220 C   0  0  0  0  0  0  0  0  0  0  0  0
   -1.9146   -3.0400   -0.8264 N   0  0  0  0  0  0  0  0  0  0  0  0
   -1.3903    1.6325   -0.5973 H   0  0  0  0  0  0  0  0  0  0  0  0
    1.1743    0.3382    0.0846 H   0  0  0  0  0  0  0  0  0  0  0  0
    1.1323   -0.3909   -2.3879 H   0  0  0  0  0  0  0  0  0  0  0  0
   -0.4303    0.3668   -2.5576 H   0  0  0  0  0  0  0  0  0  0  0  0
    1.1956   -2.4194   -0.5029 H   0  0  0  0  0  0  0  0  0  0  0  0
   -2.6122   -1.2829   -1.8322 H   0  0  0  0  0  0  0  0  0  0  0  0
   -0.4299   -4.2805    0.0832 H   0  0  0  0  0  0  0  0  0  0  0  0
    1.7693    1.8462   -2.5206 N   0  0  0  0  0  0  0  0  0  0  0  0
    2.5375    2.8249   -3.2560 C   0  0  2  0  0  0  0  0  0  0  0  0
    1.8238    4.1654   -3.1417 C   0  0  0  0  0  0  0  0  0  0  0  0
    0.6263    4.2680   -2.8836 O   0  0  0  0  0  0  0  0  0  0  0  0
    2.7016    2.4190   -4.7123 C   0  0  0  0  0  0  0  0  0  0  0  0
    1.5356    0.9714   -2.9811 H   0  0  0  0  0  0  0  0  0  0  0  0
    3.5167    2.8892   -2.7691 H   0  0  0  0  0  0  0  0  0  0  0  0
    1.7309    2.3494   -5.2168 H   0  0  0  0  0  0  0  0  0  0  0  0
    3.3079    3.1471   -5.2613 H   0  0  0  0  0  0  0  0  0  0  0  0
    3.1883    1.4409   -4.7918 H   0  0  0  0  0  0  0  0  0  0  0  0
    2.6718    5.2323   -3.4042 N   0  0  0  0  0  0  0  0  0  0  0  0
    2.2289    6.6066   -3.3717 C   0  0  0  0  0  0  0  0  0  0  0  0
    3.6544    5.0553   -3.5908 H   0  0  0  0  0  0  0  0  0  0  0  0
    1.9159    6.9155   -4.3799 H   0  0  0  0  0  0  0  0  0  0  0  0
    1.3796    6.7017   -2.6790 H   0  0  0  0  0  0  0  0  0  0  0  0
    3.0538    7.2495   -3.0308 H   0  0  0  0  0  0  0  0  0  0  0  0
 22 24  2  0  0  0  0
 24 26  1  0  0  0  0
 25 26  2  0  0  0  0
 23 25  1  0  0  0  0
 21 22  1  0  0  0  0
 22 23  1  0  0  0  0
  1  3  1  0  0  0  0
  1  7  1  0  0  0  0
  1  2  2  0  0  0  0
 35 36  1  0  0  0  0
 36 44  1  0  0  0  0
 36 37  2  0  0  0  0
  8  9  1  0  0  0  0
  9 17  1  0  0  0  0
  9 10  2  0  0  0  0
 18 19  1  0  0  0  0
 19 34  1  0  0  0  0
 19 20  2  0  0  0  0
 35 38  1  0  0  0  0
  8 11  1  0  0  0  0
 44 45  1  0  0  0  0
 18 21  1  0  0  0  0
 34 35  1  0  0  0  0
  7  8  1  0  0  0  0
 17 18  1  0  0  0  0
 24 32  1  0  0  0  0
 25 33  1  0  0  0  0
  3  4  1  0  0  0  0
  3  5  1  0  0  0  0
  3  6  1  0  0  0  0
 38 41  1  0  0  0  0
 38 42  1  0  0  0  0
 38 43  1  0  0  0  0
 11 14  1  0  0  0  0
 11 15  1  0  0  0  0
 11 16  1  0  0  0  0
 45 47  1  0  0  0  0
 45 48  1  0  0  0  0
 45 49  1  0  0  0  0
 21 29  1  0  0  0  0
 21 30  1  0  0  0  0
 35 40  1  0  0  0  0
  8 13  1  0  0  0  0
 18 28  1  0  0  0  0
 23 31  1  0  0  0  0
 44 46  1  0  0  0  0
  7 12  1  0  0  0  0
 34 39  1  0  0  0  0
 17 27  1  0  0  0  0
M  END
$$$$

  -OEChem-05262214473D

 49 49  0     1  0  0  0  0  0999 V2000
   -1.5619    0.5658    3.7981 C   0  0  0  0  0  0  0  0  0  0  0  0
   -0.6145   -0.0489    3.3224 O   0  0  0  0  0  0  0  0  0  0  0  0
   -1.9938    0.2834    5.1988 C   0  0  0  0  0  0  0  0  0  0  0  0
   -2.7535   -0.5129    5.2522 H   0  0  0  0  0  0  0  0  0  0  0  0
   -1.1626   -0.0642    5.8331 H   0  0  0  0  0  0  0  0  0  0  0  0
   -2.4318    1.1383    5.7384 H   0  0  0  0  0  0  0  0  0  0  0  0
   -2.3116    1.5383    3.1570 N   0  0  0  0  0  0  0  0  0  0  0  0
   -2.0648    1.9643    1.8046 C   0  0  2  0  0  0  0  0  0  0  0  0
   -0.7298    1.3789    1.3634 C   0  0  0  0  0  0  0  0  0  0  0  0
    0.1423    1.0262    2.1547 O   0  0  0  0  0  0  0  0  0  0  0  0
   -2.0560    3.4811    1.6952 C   0  0  0  0  0  0  0  0  0  0  0  0
   -3.0767    1.9741    3.6688 H   0  0  0  0  0  0  0  0  0  0  0  0
   -2.8689    1.5458    1.1895 H   0  0  0  0  0  0  0  0  0  0  0  0
   -1.2569    3.9183    2.3049 H   0  0  0  0  0  0  0  0  0  0  0  0
   -1.8965    3.8033    0.6609 H   0  0  0  0  0  0  0  0  0  0  0  0
   -3.0062    3.9023    2.0409 H   0  0  0  0  0  0  0  0  0  0  0  0
   -0.6071    1.3358   -0.0200 N   0  0  0  0  0  0  0  0  0  0  0  0
    0.5702    0.8350   -0.6836 C   0  0  2  0  0  0  0  0  0  0  0  0
    1.3348    2.0413   -1.2170 C   0  0  0  0  0  0  0  0  0  0  0  0
    1.7985    2.9154   -0.4877 O   0  0  0  0  0  0  0  0  0  0  0  0
    0.2255   -0.1257   -1.8275 C   0  0  0  0  0  0  0  0  0  0  0  0
   -0.4603   -1.3817   -1.3480 C   0  0  0  0  0  0  0  0  0  0  0  0
    0.2069   -2.3926   -0.7154 N   0  0  0  0  0  0  0  0  0  0  0  0
   -1.7675   -1.8041   -1.4048 C   0  0  0  0  0  0  0  0  0  0  0  0
   -0.7071   -3.3662   -0.4220 C   0  0  0  0  0  0  0  0  0  0  0  0
   -1.9146   -3.0400   -0.8264 N   0  0  0  0  0  0  0  0  0  0  0  0
   -1.3903    1.6325   -0.5973 H   0  0  0  0  0  0  0  0  0  0  0  0
    1.1743    0.3382    0.0846 H   0  0  0  0  0  0  0  0  0  0  0  0
    1.1323   -0.3909   -2.3879 H   0  0  0  0  0  0  0  0  0  0  0  0
   -0.4303    0.3668   -2.5576 H   0  0  0  0  0  0  0  0  0  0  0  0
    1.1956   -2.4194   -0.5029 H   0  0  0  0  0  0  0  0  0  0  0  0
   -2.6122   -1.2829   -1.8322 H   0  0  0  0  0  0  0  0  0  0  0  0
   -0.4299   -4.2805    0.0832 H   0  0  0  0  0  0  0  0  0  0  0  0
    1.4787    1.9967   -2.5967 N   0  0  0  0  0  0  0  0  0  0  0  0
    2.1830    3.0062   -3.3542 C   0  0  2  0  0  0  0  0  0  0  0  0
    1.6497    4.3687   -2.9315 C   0  0  0  0  0  0  0  0  0  0  0  0
    0.5447    4.5262   -2.4164 O   0  0  0  0  0  0  0  0  0  0  0  0
    2.0111    2.7956   -4.8505 C   0  0  0  0  0  0  0  0  0  0  0  0
    1.0684    1.2152   -3.0995 H   0  0  0  0  0  0  0  0  0  0  0  0
    3.2407    2.9264   -3.0805 H   0  0  0  0  0  0  0  0  0  0  0  0
    0.9577    2.8719   -5.1436 H   0  0  0  0  0  0  0  0  0  0  0  0
    2.5686    3.5442   -5.4231 H   0  0  0  0  0  0  0  0  0  0  0  0
    2.3678    1.8036   -5.1479 H   0  0  0  0  0  0  0  0  0  0  0  0
    2.5349    5.3932   -3.2365 N   0  0  0  0  0  0  0  0  0  0  0  0
    2.2528    6.7796   -2.9461 C   0  0  0  0  0  0  0  0  0  0  0  0
    3.4369    5.1687   -3.6460 H   0  0  0  0  0  0  0  0  0  0  0  0
    1.7795    7.2491   -3.8211 H   0  0  0  0  0  0  0  0  0  0  0  0
    1.5728    6.8424   -2.0838 H   0  0  0  0  0  0  0  0  0  0  0  0
    3.1913    7.3033   -2.7120 H   0  0  0  0  0  0  0  0  0  0  0  0
 22 24  2  0  0  0  0
 24 26  1  0  0  0  0
 25 26  2  0  0  0  0
 23 25  1  0  0  0  0
 21 22  1  0  0  0  0
 22 23  1  0  0  0  0
  1  3  1  0  0  0  0
  1  7  1  0  0  0  0
  1  2  2  0  0  0  0
 35 36  1  0  0  0  0
 36 44  1  0  0  0  0
 36 37  2  0  0  0  0
  8  9  1  0  0  0  0
  9 17  1  0  0  0  0
  9 10  2  0  0  0  0
 18 19  1  0  0  0  0
 19 34  1  0  0  0  0
 19 20  2  0  0  0  0
 35 38  1  0  0  0  0
  8 11  1  0  0  0  0
 44 45  1  0  0  0  0
 18 21  1  0  0  0  0
 34 35  1  0  0  0  0
  7  8  1  0  0  0  0
 17 18  1  0  0  0  0
 24 32  1  0  0  0  0
 25 33  1  0  0  0  0
  3  4  1  0  0  0  0
  3  5  1  0  0  0  0
  3  6  1  0  0  0  0
 38 41  1  0  0  0  0
 38 42  1  0  0  0  0
 38 43  1  0  0  0  0
 11 14  1  0  0  0  0
 11 15  1  0  0  0  0
 11 16  1  0  0  0  0
 45 47  1  0  0  0  0
 45 48  1  0  0  0  0
 45 49  1  0  0  0  0
 21 29  1  0  0  0  0
 21 30  1  0  0  0  0
 35 40  1  0  0  0  0
  8 13  1  0  0  0  0
 18 28  1  0  0  0  0
 23 31  1  0  0  0  0
 44 46  1  0  0  0  0
  7 12  1  0  0  0  0
 34 39  1  0  0  0  0
 17 27  1  0  0  0  0
M  END
$$$$

  -OEChem-05262214473D

 49 49  0     1  0  0  0  0  0999 V2000
   -1.5619    0.5658    3.7981 C   0  0  0  0  0  0  0  0  0  0  0  0
   -0.6145   -0.0489    3.3224 O   0  0  0  0  0  0  0  0  0  0  0  0
   -1.9938    0.2834    5.1988 C   0  0  0  0  0  0  0  0  0  0  0  0
   -2.7535   -0.5129    5.2522 H   0  0  0  0  0  0  0  0  0  0  0  0
   -1.1626   -0.0642    5.8331 H   0  0  0  0  0  0  0  0  0  0  0  0
   -2.4318    1.1383    5.7384 H   0  0  0  0  0  0  0  0  0  0  0  0
   -2.3116    1.5383    3.1570 N   0  0  0  0  0  0  0  0  0  0  0  0
   -2.0648    1.9643    1.8046 C   0  0  2  0  0  0  0  0  0  0  0  0
   -0.7298    1.3789    1.3634 C   0  0  0  0  0  0  0  0  0  0  0  0
    0.1423    1.0262    2.1547 O   0  0  0  0  0  0  0  0  0  0  0  0
   -2.0560    3.4811    1.6952 C   0  0  0  0  0  0  0  0  0  0  0  0
   -3.0767    1.9741    3.6688 H   0  0  0  0  0  0  0  0  0  0  0  0
   -2.8689    1.5458    1.1895 H   0  0  0  0  0  0  0  0  0  0  0  0
   -1.2569    3.9183    2.3049 H   0  0  0  0  0  0  0  0  0  0  0  0
   -1.8965    3.8033    0.6609 H   0  0  0  0  0  0  0  0  0  0  0  0
   -3.0062    3.9023    2.0409 H   0  0  0  0  0  0  0  0  0  0  0  0
   -0.6071    1.3358   -0.0200 N   0  0  0  0  0  0  0  0  0  0  0  0
    0.5702    0.8350   -0.6836 C   0  0  2  0  0  0  0  0  0  0  0  0
    1.3348    2.0413   -1.2170 C   0  0  0  0  0  0  0  0  0  0  0  0
    2.0226    2.7670   -0.5021 O   0  0  0  0  0  0  0  0  0  0  0  0
    0.2255   -0.1257   -1.8275 C   0  0  0  0  0  0  0  0  0  0  0  0
   -0.4603   -1.3817   -1.3480 C   0  0  0  0  0  0  0  0  0  0  0  0
    0.2069   -2.3926   -0.7154 N   0  0  0  0  0  0  0  0  0  0  0  0
   -1.7675   -1.8041   -1.4048 C   0  0  0  0  0  0  0  0  0  0  0  0
   -0.7071   -3.3662   -0.4220 C   0  0  0  0  0  0  0  0  0  0  0  0
   -1.9146   -3.0400   -0.8264 N   0  0  0  0  0  0  0  0  0  0  0  0
   -1.3903    1.6325   -0.5973 H   0  0  0  0  0  0  0  0  0  0  0  0
    1.1743    0.3382    0.0846 H   0  0  0  0  0  0  0  0  0  0  0  0
    1.1323   -0.3909   -2.3879 H   0  0  0  0  0  0  0  0  0  0  0  0
   -0.4303    0.3668   -2.5576 H   0  0  0  0  0  0  0  0  0  0  0  0
    1.1956   -2.4194   -0.5029 H   0  0  0  0  0  0  0  0  0  0  0  0
   -2.6122   -1.2829   -1.8322 H   0  0  0  0  0  0  0  0  0  0  0  0
   -0.4299   -4.2805    0.0832 H   0  0  0  0  0  0  0  0  0  0  0  0
    1.1961    2.1783   -2.5912 N   0  0  0  0  0  0  0  0  0  0  0  0
    1.8368    3.2262   -3.3529 C   0  0  2  0  0  0  0  0  0  0  0  0
    1.5430    4.5535   -2.6664 C   0  0  0  0  0  0  0  0  0  0  0  0
    0.5850    4.7224   -1.9149 O   0  0  0  0  0  0  0  0  0  0  0  0
    1.3500    3.2398   -4.7936 C   0  0  0  0  0  0  0  0  0  0  0  0
    0.6150    1.5084   -3.0865 H   0  0  0  0  0  0  0  0  0  0  0  0
    2.9137    3.0278   -3.3200 H   0  0  0  0  0  0  0  0  0  0  0  0
    0.2731    3.4370   -4.8467 H   0  0  0  0  0  0  0  0  0  0  0  0
    1.8572    4.0156   -5.3765 H   0  0  0  0  0  0  0  0  0  0  0  0
    1.5352    2.2743   -5.2767 H   0  0  0  0  0  0  0  0  0  0  0  0
    2.4516    5.5392   -3.0256 N   0  0  0  0  0  0  0  0  0  0  0  0
    2.3787    6.8893   -2.5176 C   0  0  0  0  0  0  0  0  0  0  0  0
    3.2259    5.3052   -3.6400 H   0  0  0  0  0  0  0  0  0  0  0  0
    1.7924    7.5110   -3.2101 H   0  0  0  0  0  0  0  0  0  0  0  0
    1.8940    6.8836   -1.5301 H   0  0  0  0  0  0  0  0  0  0  0  0
    3.3943    7.3014   -2.4252 H   0  0  0  0  0  0  0  0  0  0  0  0
 22 24  2  0  0  0  0
 24 26  1  0  0  0  0
 25 26  2  0  0  0  0
 23 25  1  0  0  0  0
 21 22  1  0  0  0  0
 22 23  1  0  0  0  0
  1  3  1  0  0  0  0
  1  7  1  0  0  0  0
  1  2  2  0  0  0  0
 35 36  1  0  0  0  0
 36 44  1  0  0  0  0
 36 37  2  0  0  0  0
  8  9  1  0  0  0  0
  9 17  1  0  0  0  0
  9 10  2  0  0  0  0
 18 19  1  0  0  0  0
 19 34  1  0  0  0  0
 19 20  2  0  0  0  0
 35 38  1  0  0  0  0
  8 11  1  0  0  0  0
 44 45  1  0  0  0  0
 18 21  1  0  0  0  0
 34 35  1  0  0  0  0
  7  8  1  0  0  0  0
 17 18  1  0  0  0  0
 24 32  1  0  0  0  0
 25 33  1  0  0  0  0
  3  4  1  0  0  0  0
  3  5  1  0  0  0  0
  3  6  1  0  0  0  0
 38 41  1  0  0  0  0
 38 42  1  0  0  0  0
 38 43  1  0  0  0  0
 11 14  1  0  0  0  0
 11 15  1  0  0  0  0
 11 16  1  0  0  0  0
 45 47  1  0  0  0  0
 45 48  1  0  0  0  0
 45 49  1  0  0  0  0
 21 29  1  0  0  0  0
 21 30  1  0  0  0  0
 35 40  1  0  0  0  0
  8 13  1  0  0  0  0
 18 28  1  0  0  0  0
 23 31  1  0  0  0  0
 44 46  1  0  0  0  0
  7 12  1  0  0  0  0
 34 39  1  0  0  0  0
 17 27  1  0  0  0  0
M  END
$$$$

  -OEChem-05262214473D

 49 49  0     1  0  0  0  0  0999 V2000
   -1.5619    0.5658    3.7981 C   0  0  0  0  0  0  0  0  0  0  0  0
   -0.6145   -0.0489    3.3224 O   0  0  0  0  0  0  0  0  0  0  0  0
   -1.9938    0.2834    5.1988 C   0  0  0  0  0  0  0  0  0  0  0  0
   -2.7535   -0.5129    5.2522 H   0  0  0  0  0  0  0  0  0  0  0  0
   -1.1626   -0.0642    5.8331 H   0  0  0  0  0  0  0  0  0  0  0  0
   -2.4318    1.1383    5.7384 H   0  0  0  0  0  0  0  0  0  0  0  0
   -2.3116    1.5383    3.1570 N   0  0  0  0  0  0  0  0  0  0  0  0
   -2.0648    1.9643    1.8046 C   0  0  2  0  0  0  0  0  0  0  0  0
   -0.7298    1.3789    1.3634 C   0  0  0  0  0  0  0  0  0  0  0  0
    0.1423    1.0262    2.1547 O   0  0  0  0  0  0  0  0  0  0  0  0
   -2.0560    3.4811    1.6952 C   0  0  0  0  0  0  0  0  0  0  0  0
   -3.0767    1.9741    3.6688 H   0  0  0  0  0  0  0  0  0  0  0  0
   -2.8689    1.5458    1.1895 H   0  0  0  0  0  0  0  0  0  0  0  0
   -1.2569    3.9183    2.3049 H   0  0  0  0  0  0  0  0  0  0  0  0
   -1.8965    3.8033    0.6609 H   0  0  0  0  0  0  0  0  0  0  0  0
   -3.0062    3.9023    2.0409 H   0  0  0  0  0  0  0  0  0  0  0  0
   -0.6071    1.3358   -0.0200 N   0  0  0  0  0  0  0  0  0  0  0  0
    0.5702    0.8350   -0.6836 C   0  0  2  0  0  0  0  0  0  0  0  0
    1.3348    2.0413   -1.2170 C   0  0  0  0  0  0  0  0  0  0  0  0
    2.2227    2.6053   -0.5811 O   0  0  0  0  0  0  0  0  0  0  0  0
    0.2255   -0.1257   -1.8275 C   0  0  0  0  0  0  0  0  0  0  0  0
   -0.4603   -1.3817   -1.3480 C   0  0  0  0  0  0  0  0  0  0  0  0
    0.2069   -2.3926   -0.7154 N   0  0  0  0  0  0  0  0  0  0  0  0
   -1.7675   -1.8041   -1.4048 C   0  0  0  0  0  0  0  0  0  0  0  0
   -0.7071   -3.3662   -0.4220 C   0  0  0  0  0  0  0  0  0  0  0  0
   -1.9146   -3.0400   -0.8264 N   0  0  0  0  0  0  0  0  0  0  0  0
   -1.3903    1.6325   -0.5973 H   0  0  0  0  0  0  0  0  0  0  0  0
    1.1743    0.3382    0.0846 H   0  0  0  0  0  0  0  0  0  0  0  0
    1.1323   -0.3909   -2.3879 H   0  0  0  0  0  0  0  0  0  0  0  0
   -0.4303    0.3668   -2.5576 H   0  0  0  0  0  0  0  0  0  0  0  0
    1.1956   -2.4194   -0.5029 H   0  0  0  0  0  0  0  0  0  0  0  0
   -2.6122   -1.2829   -1.8322 H   0  0  0  0  0  0  0  0  0  0  0  0
   -0.4299   -4.2805    0.0832 H   0  0  0  0  0  0  0  0  0  0  0  0
    0.9407    2.3786   -2.5044 N   0  0  0  0  0  0  0  0  0  0  0  0
    1.5227    3.4698   -3.2522 C   0  0  2  0  0  0  0  0  0  0  0  0
    1.5109    4.7073   -2.3646 C   0  0  0  0  0  0  0  0  0  0  0  0
    0.7444    4.8432   -1.4133 O   0  0  0  0  0  0  0  0  0  0  0  0
    0.7632    3.7213   -4.5456 C   0  0  0  0  0  0  0  0  0  0  0  0
    0.2062    1.8309   -2.9430 H   0  0  0  0  0  0  0  0  0  0  0  0
    2.5580    3.1865   -3.4711 H   0  0  0  0  0  0  0  0  0  0  0  0
   -0.2762    4.0064   -4.3464 H   0  0  0  0  0  0  0  0  0  0  0  0
    1.2224    4.5294   -5.1246 H   0  0  0  0  0  0  0  0  0  0  0  0
    0.7472    2.8212   -5.1695 H   0  0  0  0  0  0  0  0  0  0  0  0
    2.4275    5.6605   -2.7859 N   0  0  0  0  0  0  0  0  0  0  0  0
    2.5980    6.9282   -2.1152 C   0  0  0  0  0  0  0  0  0  0  0  0
    3.0356    5.4553   -3.5732 H   0  0  0  0  0  0  0  0  0  0  0  0
    1.9536    7.6836   -2.5886 H   0  0  0  0  0  0  0  0  0  0  0  0
    2.3214    6.8225   -1.0558 H   0  0  0  0  0  0  0  0  0  0  0  0
    3.6490    7.2440   -2.1900 H   0  0  0  0  0  0  0  0  0  0  0  0
 22 24  2  0  0  0  0
 24 26  1  0  0  0  0
 25 26  2  0  0  0  0
 23 25  1  0  0  0  0
 21 22  1  0  0  0  0
 22 23  1  0  0  0  0
  1  3  1  0  0  0  0
  1  7  1  0  0  0  0
  1  2  2  0  0  0  0
 35 36  1  0  0  0  0
 36 44  1  0  0  0  0
 36 37  2  0  0  0  0
  8  9  1  0  0  0  0
  9 17  1  0  0  0  0
  9 10  2  0  0  0  0
 18 19  1  0  0  0  0
 19 34  1  0  0  0  0
 19 20  2  0  0  0  0
 35 38  1  0  0  0  0
  8 11  1  0  0  0  0
 44 45  1  0  0  0  0
 18 21  1  0  0  0  0
 34 35  1  0  0  0  0
  7  8  1  0  0  0  0
 17 18  1  0  0  0  0
 24 32  1  0  0  0  0
 25 33  1  0  0  0  0
  3  4  1  0  0  0  0
  3  5  1  0  0  0  0
  3  6  1  0  0  0  0
 38 41  1  0  0  0  0
 38 42  1  0  0  0  0
 38 43  1  0  0  0  0
 11 14  1  0  0  0  0
 11 15  1  0  0  0  0
 11 16  1  0  0  0  0
 45 47  1  0  0  0  0
 45 48  1  0  0  0  0
 45 49  1  0  0  0  0
 21 29  1  0  0  0  0
 21 30  1  0  0  0  0
 35 40  1  0  0  0  0
  8 13  1  0  0  0  0
 18 28  1  0  0  0  0
 23 31  1  0  0  0  0
 44 46  1  0  0  0  0
  7 12  1  0  0  0  0
 34 39  1  0  0  0  0
 17 27  1  0  0  0  0
M  END
$$$$

  -OEChem-05262214473D

 49 49  0     1  0  0  0  0  0999 V2000
   -1.5619    0.5658    3.7981 C   0  0  0  0  0  0  0  0  0  0  0  0
   -0.6145   -0.0489    3.3224 O   0  0  0  0  0  0  0  0  0  0  0  0
   -1.9938    0.2834    5.1988 C   0  0  0  0  0  0  0  0  0  0  0  0
   -2.7535   -0.5129    5.2522 H   0  0  0  0  0  0  0  0  0  0  0  0
   -1.1626   -0.0642    5.8331 H   0  0  0  0  0  0  0  0  0  0  0  0
   -2.4318    1.1383    5.7384 H   0  0  0  0  0  0  0  0  0  0  0  0
   -2.3116    1.5383    3.1570 N   0  0  0  0  0  0  0  0  0  0  0  0
   -2.0648    1.9643    1.8046 C   0  0  2  0  0  0  0  0  0  0  0  0
   -0.7298    1.3789    1.3634 C   0  0  0  0  0  0  0  0  0  0  0  0
    0.1423    1.0262    2.1547 O   0  0  0  0  0  0  0  0  0  0  0  0
   -2.0560    3.4811    1.6952 C   0  0  0  0  0  0  0  0  0  0  0  0
   -3.0767    1.9741    3.6688 H   0  0  0  0  0  0  0  0  0  0  0  0
   -2.8689    1.5458    1.1895 H   0  0  0  0  0  0  0  0  0  0  0  0
   -1.2569    3.9183    2.3049 H   0  0  0  0  0  0  0  0  0  0  0  0
   -1.8965    3.8033    0.6609 H   0  0  0  0  0  0  0  0  0  0  0  0
   -3.0062    3.9023    2.0409 H   0  0  0  0  0  0  0  0  0  0  0  0
   -0.6071    1.3358   -0.0200 N   0  0  0  0  0  0  0  0  0  0  0  0
    0.5702    0.8350   -0.6836 C   0  0  2  0  0  0  0  0  0  0  0  0
    1.3348    2.0413   -1.2170 C   0  0  0  0  0  0  0  0  0  0  0  0
    2.3852    2.4412   -0.7194 O   0  0  0  0  0  0  0  0  0  0  0  0
    0.2255   -0.1257   -1.8275 C   0  0  0  0  0  0  0  0  0  0  0  0
   -0.4603   -1.3817   -1.3480 C   0  0  0  0  0  0  0  0  0  0  0  0
    0.2069   -2.3926   -0.7154 N   0  0  0  0  0  0  0  0  0  0  0  0
   -1.7675   -1.8041   -1.4048 C   0  0  0  0  0  0  0  0  0  0  0  0
   -0.7071   -3.3662   -0.4220 C   0  0  0  0  0  0  0  0  0  0  0  0
   -1.9146   -3.0400   -0.8264 N   0  0  0  0  0  0  0  0  0  0  0  0
   -1.3903    1.6325   -0.5973 H   0  0  0  0  0  0  0  0  0  0  0  0
    1.1743    0.3382    0.0846 H   0  0  0  0  0  0  0  0  0  0  0  0
    1.1323   -0.3909   -2.3879 H   0  0  0  0  0  0  0  0  0  0  0  0
   -0.4303    0.3668   -2.5576 H   0  0  0  0  0  0  0  0  0  0  0  0
    1.1956   -2.4194   -0.5029 H   0  0  0  0  0  0  0  0  0  0  0  0
   -2.6122   -1.2829   -1.8322 H   0  0  0  0  0  0  0  0  0  0  0  0
   -0.4299   -4.2805    0.0832 H   0  0  0  0  0  0  0  0  0  0  0  0
    0.7298    2.5839   -2.3422 N   0  0  0  0  0  0  0  0  0  0  0  0
    1.2619    3.7205   -3.0590 C   0  0  2  0  0  0  0  0  0  0  0  0
    1.5557    4.8195   -2.0465 C   0  0  0  0  0  0  0  0  0  0  0  0
    1.0120    4.8803   -0.9457 O   0  0  0  0  0  0  0  0  0  0  0  0
    0.2909    4.2074   -4.1233 C   0  0  0  0  0  0  0  0  0  0  0  0
   -0.1301    2.1608   -2.6788 H   0  0  0  0  0  0  0  0  0  0  0  0
    2.1978    3.3915   -3.5237 H   0  0  0  0  0  0  0  0  0  0  0  0
   -0.6528    4.5412   -3.6767 H   0  0  0  0  0  0  0  0  0  0  0  0
    0.7073    5.0504   -4.6845 H   0  0  0  0  0  0  0  0  0  0  0  0
    0.0576    3.4068   -4.8336 H   0  0  0  0  0  0  0  0  0  0  0  0
    2.4643    5.7486   -2.5336 N   0  0  0  0  0  0  0  0  0  0  0  0
    2.8957    6.8937   -1.7663 C   0  0  0  0  0  0  0  0  0  0  0  0
    2.8790    5.6089   -3.4503 H   0  0  0  0  0  0  0  0  0  0  0  0
    2.2523    7.7550   -1.9988 H   0  0  0  0  0  0  0  0  0  0  0  0
    2.8258    6.6631   -0.6930 H   0  0  0  0  0  0  0  0  0  0  0  0
    3.9379    7.1350   -2.0224 H   0  0  0  0  0  0  0  0  0  0  0  0
 22 24  2  0  0  0  0
 24 26  1  0  0  0  0
 25 26  2  0  0  0  0
 23 25  1  0  0  0  0
 21 22  1  0  0  0  0
 22 23  1  0  0  0  0
  1  3  1  0  0  0  0
  1  7  1  0  0  0  0
  1  2  2  0  0  0  0
 35 36  1  0  0  0  0
 36 44  1  0  0  0  0
 36 37  2  0  0  0  0
  8  9  1  0  0  0  0
  9 17  1  0  0  0  0
  9 10  2  0  0  0  0
 18 19  1  0  0  0  0
 19 34  1  0  0  0  0
 19 20  2  0  0  0  0
 35 38  1  0  0  0  0
  8 11  1  0  0  0  0
 44 45  1  0  0  0  0
 18 21  1  0  0  0  0
 34 35  1  0  0  0  0
  7  8  1  0  0  0  0
 17 18  1  0  0  0  0
 24 32  1  0  0  0  0
 25 33  1  0  0  0  0
  3  4  1  0  0  0  0
  3  5  1  0  0  0  0
  3  6  1  0  0  0  0
 38 41  1  0  0  0  0
 38 42  1  0  0  0  0
 38 43  1  0  0  0  0
 11 14  1  0  0  0  0
 11 15  1  0  0  0  0
 11 16  1  0  0  0  0
 45 47  1  0  0  0  0
 45 48  1  0  0  0  0
 45 49  1  0  0  0  0
 21 29  1  0  0  0  0
 21 30  1  0  0  0  0
 35 40  1  0  0  0  0
  8 13  1  0  0  0  0
 18 28  1  0  0  0  0
 23 31  1  0  0  0  0
 44 46  1  0  0  0  0
  7 12  1  0  0  0  0
 34 39  1  0  0  0  0
 17 27  1  0  0  0  0
M  END
$$$$

  -OEChem-05262214473D

 49 49  0     1  0  0  0  0  0999 V2000
   -1.5619    0.5658    3.7981 C   0  0  0  0  0  0  0  0  0  0  0  0
   -0.6145   -0.0489    3.3224 O   0  0  0  0  0  0  0  0  0  0  0  0
   -1.9938    0.2834    5.1988 C   0  0  0  0  0  0  0  0  0  0  0  0
   -2.7535   -0.5129    5.2522 H   0  0  0  0  0  0  0  0  0  0  0  0
   -1.1626   -0.0642    5.8331 H   0  0  0  0  0  0  0  0  0  0  0  0
   -2.4318    1.1383    5.7384 H   0  0  0  0  0  0  0  0  0  0  0  0
   -2.3116    1.5383    3.1570 N   0  0  0  0  0  0  0  0  0  0  0  0
   -2.0648    1.9643    1.8046 C   0  0  2  0  0  0  0  0  0  0  0  0
   -0.7298    1.3789    1.3634 C   0  0  0  0  0  0  0  0  0  0  0  0
    0.1423    1.0262    2.1547 O   0  0  0  0  0  0  0  0  0  0  0  0
   -2.0560    3.4811    1.6952 C   0  0  0  0  0  0  0  0  0  0  0  0
   -3.0767    1.9741    3.6688 H   0  0  0  0  0  0  0  0  0  0  0  0
   -2.8689    1.5458    1.1895 H   0  0  0  0  0  0  0  0  0  0  0  0
   -1.2569    3.9183    2.3049 H   0  0  0  0  0  0  0  0  0  0  0  0
   -1.8965    3.8033    0.6609 H   0  0  0  0  0  0  0  0  0  0  0  0
   -3.0062    3.9023    2.0409 H   0  0  0  0  0  0  0  0  0  0  0  0
   -0.6071    1.3358   -0.0200 N   0  0  0  0  0  0  0  0  0  0  0  0
    0.5702    0.8350   -0.6836 C   0  0  2  0  0  0  0  0  0  0  0  0
    1.3348    2.0413   -1.2170 C   0  0  0  0  0  0  0  0  0  0  0  0
    2.4989    2.2859   -0.9075 O   0  0  0  0  0  0  0  0  0  0  0  0
    0.2255   -0.1257   -1.8275 C   0  0  0  0  0  0  0  0  0  0  0  0
   -0.4603   -1.3817   -1.3480 C   0  0  0  0  0  0  0  0  0  0  0  0
    0.2069   -2.3926   -0.7154 N   0  0  0  0  0  0  0  0  0  0  0  0
   -1.7675   -1.8041   -1.4048 C   0  0  0  0  0  0  0  0  0  0  0  0
   -0.7071   -3.3662   -0.4220 C   0  0  0  0  0  0  0  0  0  0  0  0
   -1.9146   -3.0400   -0.8264 N   0  0  0  0  0  0  0  0  0  0  0  0
   -1.3903    1.6325   -0.5973 H   0  0  0  0  0  0  0  0  0  0  0  0
    1.1743    0.3382    0.0846 H   0  0  0  0  0  0  0  0  0  0  0  0
    1.1323   -0.3909   -2.3879 H   0  0  0  0  0  0  0  0  0  0  0  0
   -0.4303    0.3668   -2.5576 H   0  0  0  0  0  0  0  0  0  0  0  0
    1.1956   -2.4194   -0.5029 H   0  0  0  0  0  0  0  0  0  0  0  0
   -2.6122   -1.2829   -1.8322 H   0  0  0  0  0  0  0  0  0  0  0  0
   -0.4299   -4.2805    0.0832 H   0  0  0  0  0  0  0  0  0  0  0  0
    0.5780    2.7802   -2.1158 N   0  0  0  0  0  0  0  0  0  0  0  0
    1.0723    3.9612   -2.7865 C   0  0  2  0  0  0  0  0  0  0  0  0
    1.6743    4.8826   -1.7338 C   0  0  0  0  0  0  0  0  0  0  0  0
    1.3696    4.8312   -0.5440 O   0  0  0  0  0  0  0  0  0  0  0  0
   -0.0349    4.6649   -3.5557 C   0  0  0  0  0  0  0  0  0  0  0  0
   -0.3709    2.4757   -2.3120 H   0  0  0  0  0  0  0  0  0  0  0  0
    1.8577    3.6290   -3.4741 H   0  0  0  0  0  0  0  0  0  0  0  0
   -0.8310    5.0049   -2.8833 H   0  0  0  0  0  0  0  0  0  0  0  0
    0.3470    5.5432   -4.0864 H   0  0  0  0  0  0  0  0  0  0  0  0
   -0.4868    3.9914   -4.2919 H   0  0  0  0  0  0  0  0  0  0  0  0
    2.5596    5.7977   -2.2861 N   0  0  0  0  0  0  0  0  0  0  0  0
    3.2517    6.7881   -1.4948 C   0  0  0  0  0  0  0  0  0  0  0  0
    2.7669    5.7555   -3.2796 H   0  0  0  0  0  0  0  0  0  0  0  0
    2.6681    7.7204   -1.4811 H   0  0  0  0  0  0  0  0  0  0  0  0
    3.3729    6.4164   -0.4666 H   0  0  0  0  0  0  0  0  0  0  0  0
    4.2415    6.9817   -1.9338 H   0  0  0  0  0  0  0  0  0  0  0  0
 22 24  2  0  0  0  0
 24 26  1  0  0  0  0
 25 26  2  0  0  0  0
 23 25  1  0  0  0  0
 21 22  1  0  0  0  0
 22 23  1  0  0  0  0
  1  3  1  0  0  0  0
  1  7  1  0  0  0  0
  1  2  2  0  0  0  0
 35 36  1  0  0  0  0
 36 44  1  0  0  0  0
 36 37  2  0  0  0  0
  8  9  1  0  0  0  0
  9 17  1  0  0  0  0
  9 10  2  0  0  0  0
 18 19  1  0  0  0  0
 19 34  1  0  0  0  0
 19 20  2  0  0  0  0
 35 38  1  0  0  0  0
  8 11  1  0  0  0  0
 44 45  1  0  0  0  0
 18 21  1  0  0  0  0
 34 35  1  0  0  0  0
  7  8  1  0  0  0  0
 17 18  1  0  0  0  0
 24 32  1  0  0  0  0
 25 33  1  0  0  0  0
  3  4  1  0  0  0  0
  3  5  1  0  0  0  0
  3  6  1  0  0  0  0
 38 41  1  0  0  0  0
 38 42  1  0  0  0  0
 38 43  1  0  0  0  0
 11 14  1  0  0  0  0
 11 15  1  0  0  0  0
 11 16  1  0  0  0  0
 45 47  1  0  0  0  0
 45 48  1  0  0  0  0
 45 49  1  0  0  0  0
 21 29  1  0  0  0  0
 21 30  1  0  0  0  0
 35 40  1  0  0  0  0
  8 13  1  0  0  0  0
 18 28  1  0  0  0  0
 23 31  1  0  0  0  0
 44 46  1  0  0  0  0
  7 12  1  0  0  0  0
 34 39  1  0  0  0  0
 17 27  1  0  0  0  0
M  END
$$$$

  -OEChem-05262214473D

 49 49  0     1  0  0  0  0  0999 V2000
   -1.5619    0.5658    3.7981 C   0  0  0  0  0  0  0  0  0  0  0  0
   -0.6145   -0.0489    3.3224 O   0  0  0  0  0  0  0  0  0  0  0  0
   -1.9938    0.2834    5.1988 C   0  0  0  0  0  0  0  0  0  0  0  0
   -2.7535   -0.5129    5.2522 H   0  0  0  0  0  0  0  0  0  0  0  0
   -1.1626   -0.0642    5.8331 H   0  0  0  0  0  0  0  0  0  0  0  0
   -2.4318    1.1383    5.7384 H   0  0  0  0  0  0  0  0  0  0  0  0
   -2.3116    1.5383    3.1570 N   0  0  0  0  0  0  0  0  0  0  0  0
   -2.0648    1.9643    1.8046 C   0  0  2  0  0  0  0  0  0  0  0  0
   -0.7298    1.3789    1.3634 C   0  0  0  0  0  0  0  0  0  0  0  0
    0.1423    1.0262    2.1547 O   0  0  0  0  0  0  0  0  0  0  0  0
   -2.0560    3.4811    1.6952 C   0  0  0  0  0  0  0  0  0  0  0  0
   -3.0767    1.9741    3.6688 H   0  0  0  0  0  0  0  0  0  0  0  0
   -2.8689    1.5458    1.1895 H   0  0  0  0  0  0  0  0  0  0  0  0
   -1.2569    3.9183    2.3049 H   0  0  0  0  0  0  0  0  0  0  0  0
   -1.8965    3.8033    0.6609 H   0  0  0  0  0  0  0  0  0  0  0  0
   -3.0062    3.9023    2.0409 H   0  0  0  0  0  0  0  0  0  0  0  0
   -0.6071    1.3358   -0.0200 N   0  0  0  0  0  0  0  0  0  0  0  0
    0.5702    0.8350   -0.6836 C   0  0  2  0  0  0  0  0  0  0  0  0
    1.3348    2.0413   -1.2170 C   0  0  0  0  0  0  0  0  0  0  0  0
    2.5562    2.1500   -1.1327 O   0  0  0  0  0  0  0  0  0  0  0  0
    0.2255   -0.1257   -1.8275 C   0  0  0  0  0  0  0  0  0  0  0  0
   -0.4603   -1.3817   -1.3480 C   0  0  0  0  0  0  0  0  0  0  0  0
    0.2069   -2.3926   -0.7154 N   0  0  0  0  0  0  0  0  0  0  0  0
   -1.7675   -1.8041   -1.4048 C   0  0  0  0  0  0  0  0  0  0  0  0
   -0.7071   -3.3662   -0.4220 C   0  0  0  0  0  0  0  0  0  0  0  0
   -1.9146   -3.0400   -0.8264 N   0  0  0  0  0  0  0  0  0  0  0  0
   -1.3903    1.6325   -0.5973 H   0  0  0  0  0  0  0  0  0  0  0  0
    1.1743    0.3382    0.0846 H   0  0  0  0  0  0  0  0  0  0  0  0
    1.1323   -0.3909   -2.3879 H   0  0  0  0  0  0  0  0  0  0  0  0
   -0.4303    0.3668   -2.5576 H   0  0  0  0  0  0  0  0  0  0  0  0
    1.1956   -2.4194   -0.5029 H   0  0  0  0  0  0  0  0  0  0  0  0
   -2.6122   -1.2829   -1.8322 H   0  0  0  0  0  0  0  0  0  0  0  0
   -0.4299   -4.2805    0.0832 H   0  0  0  0  0  0  0  0  0  0  0  0
    0.4955    2.9543   -1.8404 N   0  0  0  0  0  0  0  0  0  0  0  0
    0.9667    4.1755   -2.4531 C   0  0  2  0  0  0  0  0  0  0  0  0
    1.8585    4.8922   -1.4479 C   0  0  0  0  0  0  0  0  0  0  0  0
    1.7928    4.6993   -0.2357 O   0  0  0  0  0  0  0  0  0  0  0  0
   -0.1919    5.0626   -2.8812 C   0  0  0  0  0  0  0  0  0  0  0  0
   -0.4999    2.7540   -1.8675 H   0  0  0  0  0  0  0  0  0  0  0  0
    1.5608    3.8828   -3.3257 H   0  0  0  0  0  0  0  0  0  0  0  0
   -0.7987    5.3660   -2.0202 H   0  0  0  0  0  0  0  0  0  0  0  0
    0.1662    5.9742   -3.3709 H   0  0  0  0  0  0  0  0  0  0  0  0
   -0.8487    4.5350   -3.5813 H   0  0  0  0  0  0  0  0  0  0  0  0
    2.7067    5.8044   -2.0601 N   0  0  0  0  0  0  0  0  0  0  0  0
    3.6415    6.6187   -1.3191 C   0  0  0  0  0  0  0  0  0  0  0  0
    2.7068    5.8850   -3.0726 H   0  0  0  0  0  0  0  0  0  0  0  0
    3.1726    7.5822   -1.0706 H   0  0  0  0  0  0  0  0  0  0  0  0
    3.9254    6.0992   -0.3920 H   0  0  0  0  0  0  0  0  0  0  0  0
    4.5390    6.7947   -1.9304 H   0  0  0  0  0  0  0  0  0  0  0  0
 22 24  2  0  0  0  0
 24 26  1  0  0  0  0
 25 26  2  0  0  0  0
 23 25  1  0  0  0  0
 21 22  1  0  0  0  0
 22 23  1  0  0  0  0
  1  3  1  0  0  0  0
  1  7  1  0  0  0  0
  1  2  2  0  0  0  0
 35 36  1  0  0  0  0
 36 44  1  0  0  0  0
 36 37  2  0  0  0  0
  8  9  1  0  0  0  0
  9 17  1  0  0  0  0
  9 10  2  0  0  0  0
 18 19  1  0  0  0  0
 19 34  1  0  0  0  0
 19 20  2  0  0  0  0
 35 38  1  0  0  0  0
  8 11  1  0  0  0  0
 44 45  1  0  0  0  0
 18 21  1  0  0  0  0
 34 35  1  0  0  0  0
  7  8  1  0  0  0  0
 17 18  1  0  0  0  0
 24 32  1  0  0  0  0
 25 33  1  0  0  0  0
  3  4  1  0  0  0  0
  3  5  1  0  0  0  0
  3  6  1  0  0  0  0
 38 41  1  0  0  0  0
 38 42  1  0  0  0  0
 38 43  1  0  0  0  0
 11 14  1  0  0  0  0
 11 15  1  0  0  0  0
 11 16  1  0  0  0  0
 45 47  1  0  0  0  0
 45 48  1  0  0  0  0
 45 49  1  0  0  0  0
 21 29  1  0  0  0  0
 21 30  1  0  0  0  0
 35 40  1  0  0  0  0
  8 13  1  0  0  0  0
 18 28  1  0  0  0  0
 23 31  1  0  0  0  0
 44 46  1  0  0  0  0
  7 12  1  0  0  0  0
 34 39  1  0  0  0  0
 17 27  1  0  0  0  0
M  END
$$$$

  -OEChem-05262214473D

 49 49  0     1  0  0  0  0  0999 V2000
   -1.5619    0.5658    3.7981 C   0  0  0  0  0  0  0  0  0  0  0  0
   -0.6145   -0.0489    3.3224 O   0  0  0  0  0  0  0  0  0  0  0  0
   -1.9938    0.2834    5.1988 C   0  0  0  0  0  0  0  0  0  0  0  0
   -2.7535   -0.5129    5.2522 H   0  0  0  0  0  0  0  0  0  0  0  0
   -1.1626   -0.0642    5.8331 H   0  0  0  0  0  0  0  0  0  0  0  0
   -2.4318    1.1383    5.7384 H   0  0  0  0  0  0  0  0  0  0  0  0
   -2.3116    1.5383    3.1570 N   0  0  0  0  0  0  0  0  0  0  0  0
   -2.0648    1.9643    1.8046 C   0  0  2  0  0  0  0  0  0  0  0  0
   -0.7298    1.3789    1.3634 C   0  0  0  0  0  0  0  0  0  0  0  0
    0.1423    1.0262    2.1547 O   0  0  0  0  0  0  0  0  0  0  0  0
   -2.0560    3.4811    1.6952 C   0  0  0  0  0  0  0  0  0  0  0  0
   -3.0767    1.9741    3.6688 H   0  0  0  0  0  0  0  0  0  0  0  0
   -2.8689    1.5458    1.1895 H   0  0  0  0  0  0  0  0  0  0  0  0
   -1.2569    3.9183    2.3049 H   0  0  0  0  0  0  0  0  0  0  0  0
   -1.8965    3.8033    0.6609 H   0  0  0  0  0  0  0  0  0  0  0  0
   -3.0062    3.9023    2.0409 H   0  0  0  0  0  0  0  0  0  0  0  0
   -0.6071    1.3358   -0.0200 N   0  0  0  0  0  0  0  0  0  0  0  0
    0.5702    0.8350   -0.6836 C   0  0  2  0  0  0  0  0  0  0  0  0
    1.3348    2.0413   -1.2170 C   0  0  0  0  0  0  0  0  0  0  0  0
    2.5531    2.0428   -1.3796 O   0  0  0  0  0  0  0  0  0  0  0  0
    0.2255   -0.1257   -1.8275 C   0  0  0  0  0  0  0  0  0  0  0  0
   -0.4603   -1.3817   -1.3480 C   0  0  0  0  0  0  0  0  0  0  0  0
    0.2069   -2.3926   -0.7154 N   0  0  0  0  0  0  0  0  0  0  0  0
   -1.7675   -1.8041   -1.4048 C   0  0  0  0  0  0  0  0  0  0  0  0
   -0.7071   -3.3662   -0.4220 C   0  0  0  0  0  0  0  0  0  0  0  0
   -1.9146   -3.0400   -0.8264 N   0  0  0  0  0  0  0  0  0  0  0  0
   -1.3903    1.6325   -0.5973 H   0  0  0  0  0  0  0  0  0  0  0  0
    1.1743    0.3382    0.0846 H   0  0  0  0  0  0  0  0  0  0  0  0
    1.1323   -0.3909   -2.3879 H   0  0  0  0  0  0  0  0  0  0  0  0
   -0.4303    0.3668   -2.5576 H   0  0  0  0  0  0  0  0  0  0  0  0
    1.1956   -2.4194   -0.5029 H   0  0  0  0  0  0  0  0  0  0  0  0
   -2.6122   -1.2829   -1.8322 H   0  0  0  0  0  0  0  0  0  0  0  0
   -0.4299   -4.2805    0.0832 H   0  0  0  0  0  0  0  0  0  0  0  0
    0.4880    3.0941   -1.5350 N   0  0  0  0  0  0  0  0  0  0  0  0
    0.9524    4.3488   -2.0817 C   0  0  2  0  0  0  0  0  0  0  0  0
    2.0959    4.8477   -1.2082 C   0  0  0  0  0  0  0  0  0  0  0  0
    2.2528    4.4935   -0.0416 O   0  0  0  0  0  0  0  0  0  0  0  0
   -0.1695    5.3734   -2.1460 C   0  0  0  0  0  0  0  0  0  0  0  0
   -0.5083    2.9768   -1.3755 H   0  0  0  0  0  0  0  0  0  0  0  0
    1.3274    4.1355   -3.0886 H   0  0  0  0  0  0  0  0  0  0  0  0
   -0.5580    5.5998   -1.1464 H   0  0  0  0  0  0  0  0  0  0  0  0
    0.1770    6.3140   -2.5867 H   0  0  0  0  0  0  0  0  0  0  0  0
   -1.0036    5.0006   -2.7502 H   0  0  0  0  0  0  0  0  0  0  0  0
    2.8957    5.7682   -1.8711 N   0  0  0  0  0  0  0  0  0  0  0  0
    4.0387    6.3969   -1.2513 C   0  0  0  0  0  0  0  0  0  0  0  0
    2.7028    5.9887   -2.8437 H   0  0  0  0  0  0  0  0  0  0  0  0
    3.7314    7.3496   -0.7954 H   0  0  0  0  0  0  0  0  0  0  0  0
    4.4457    5.7331   -0.4743 H   0  0  0  0  0  0  0  0  0  0  0  0
    4.8101    6.5867   -2.0122 H   0  0  0  0  0  0  0  0  0  0  0  0
 22 24  2  0  0  0  0
 24 26  1  0  0  0  0
 25 26  2  0  0  0  0
 23 25  1  0  0  0  0
 21 22  1  0  0  0  0
 22 23  1  0  0  0  0
  1  3  1  0  0  0  0
  1  7  1  0  0  0  0
  1  2  2  0  0  0  0
 35 36  1  0  0  0  0
 36 44  1  0  0  0  0
 36 37  2  0  0  0  0
  8  9  1  0  0  0  0
  9 17  1  0  0  0  0
  9 10  2  0  0  0  0
 18 19  1  0  0  0  0
 19 34  1  0  0  0  0
 19 20  2  0  0  0  0
 35 38  1  0  0  0  0
  8 11  1  0  0  0  0
 44 45  1  0  0  0  0
 18 21  1  0  0  0  0
 34 35  1  0  0  0  0
  7  8  1  0  0  0  0
 17 18  1  0  0  0  0
 24 32  1  0  0  0  0
 25 33  1  0  0  0  0
  3  4  1  0  0  0  0
  3  5  1  0  0  0  0
  3  6  1  0  0  0  0
 38 41  1  0  0  0  0
 38 42  1  0  0  0  0
 38 43  1  0  0  0  0
 11 14  1  0  0  0  0
 11 15  1  0  0  0  0
 11 16  1  0  0  0  0
 45 47  1  0  0  0  0
 45 48  1  0  0  0  0
 45 49  1  0  0  0  0
 21 29  1  0  0  0  0
 21 30  1  0  0  0  0
 35 40  1  0  0  0  0
  8 13  1  0  0  0  0
 18 28  1  0  0  0  0
 23 31  1  0  0  0  0
 44 46  1  0  0  0  0
  7 12  1  0  0  0  0
 34 39  1  0  0  0  0
 17 27  1  0  0  0  0
M  END
$$$$

  -OEChem-05262214473D

 49 49  0     1  0  0  0  0  0999 V2000
   -1.5619    0.5658    3.7981 C   0  0  0  0  0  0  0  0  0  0  0  0
   -0.6145   -0.0489    3.3224 O   0  0  0  0  0  0  0  0  0  0  0  0
   -1.9938    0.2834    5.1988 C   0  0  0  0  0  0  0  0  0  0  0  0
   -2.7535   -0.5129    5.2522 H   0  0  0  0  0  0  0  0  0  0  0  0
   -1.1626   -0.0642    5.8331 H   0  0  0  0  0  0  0  0  0  0  0  0
   -2.4318    1.1383    5.7384 H   0  0  0  0  0  0  0  0  0  0  0  0
   -2.3116    1.5383    3.1570 N   0  0  0  0  0  0  0  0  0  0  0  0
   -2.0648    1.9643    1.8046 C   0  0  2  0  0  0  0  0  0  0  0  0
   -0.7298    1.3789    1.3634 C   0  0  0  0  0  0  0  0  0  0  0  0
    0.1423    1.0262    2.1547 O   0  0  0  0  0  0  0  0  0  0  0  0
   -2.0560    3.4811    1.6952 C   0  0  0  0  0  0  0  0  0  0  0  0
   -3.0767    1.9741    3.6688 H   0  0  0  0  0  0  0  0  0  0  0  0
   -2.8689    1.5458    1.1895 H   0  0  0  0  0  0  0  0  0  0  0  0
   -1.2569    3.9183    2.3049 H   0  0  0  0  0  0  0  0  0  0  0  0
   -1.8965    3.8033    0.6609 H   0  0  0  0  0  0  0  0  0  0  0  0
   -3.0062    3.9023    2.0409 H   0  0  0  0  0  0  0  0  0  0  0  0
   -0.6071    1.3358   -0.0200 N   0  0  0  0  0  0  0  0  0  0  0  0
    0.5702    0.8350   -0.6836 C   0  0  2  0  0  0  0  0  0  0  0  0
    1.3348    2.0413   -1.2170 C   0  0  0  0  0  0  0  0  0  0  0  0
    2.4899    1.9716   -1.6313 O   0  0  0  0  0  0  0  0  0  0  0  0
    0.2255   -0.1257   -1.8275 C   0  0  0  0  0  0  0  0  0  0  0  0
   -0.4603   -1.3817   -1.3480 C   0  0  0  0  0  0  0  0  0  0  0  0
    0.2069   -2.3926   -0.7154 N   0  0  0  0  0  0  0  0  0  0  0  0
   -1.7675   -1.8041   -1.4048 C   0  0  0  0  0  0  0  0  0  0  0  0
   -0.7071   -3.3662   -0.4220 C   0  0  0  0  0  0  0  0  0  0  0  0
   -1.9146   -3.0400   -0.8264 N   0  0  0  0  0  0  0  0  0  0  0  0
   -1.3903    1.6325   -0.5973 H   0  0  0  0  0  0  0  0  0  0  0  0
    1.1743    0.3382    0.0846 H   0  0  0  0  0  0  0  0  0  0  0  0
    1.1323   -0.3909   -2.3879 H   0  0  0  0  0  0  0  0  0  0  0  0
   -0.4303    0.3668   -2.5576 H   0  0  0  0  0  0  0  0  0  0  0  0
    1.1956   -2.4194   -0.5029 H   0  0  0  0  0  0  0  0  0  0  0  0
   -2.6122   -1.2829   -1.8322 H   0  0  0  0  0  0  0  0  0  0  0  0
   -0.4299   -4.2805    0.0832 H   0  0  0  0  0  0  0  0  0  0  0  0
    0.5559    3.1902   -1.2203 N   0  0  0  0  0  0  0  0  0  0  0  0
    1.0304    4.4692   -1.6975 C   0  0  2  0  0  0  0  0  0  0  0  0
    2.3703    4.7521   -1.0311 C   0  0  0  0  0  0  0  0  0  0  0  0
    2.7183    4.2279    0.0249 O   0  0  0  0  0  0  0  0  0  0  0  0
    0.0309    5.5762   -1.4001 C   0  0  0  0  0  0  0  0  0  0  0  0
   -0.3955    3.1289   -0.8697 H   0  0  0  0  0  0  0  0  0  0  0  0
    1.1734    4.3700   -2.7790 H   0  0  0  0  0  0  0  0  0  0  0  0
   -0.1254    5.6904   -0.3212 H   0  0  0  0  0  0  0  0  0  0  0  0
    0.3789    6.5394   -1.7875 H   0  0  0  0  0  0  0  0  0  0  0  0
   -0.9408    5.3565   -1.8553 H   0  0  0  0  0  0  0  0  0  0  0  0
    3.1137    5.6915   -1.7319 N   0  0  0  0  0  0  0  0  0  0  0  0
    4.4162    6.1379   -1.2959 C   0  0  0  0  0  0  0  0  0  0  0  0
    2.7553    6.0596   -2.6082 H   0  0  0  0  0  0  0  0  0  0  0  0
    4.3065    7.0387   -0.6741 H   0  0  0  0  0  0  0  0  0  0  0  0
    4.8982    5.3431   -0.7078 H   0  0  0  0  0  0  0  0  0  0  0  0
    5.0363    6.3718   -2.1738 H   0  0  0  0  0  0  0  0  0  0  0  0
 22 24  2  0  0  0  0
 24 26  1  0  0  0  0
 25 26  2  0  0  0  0
 23 25  1  0  0  0  0
 21 22  1  0  0  0  0
 22 23  1  0  0  0  0
  1  3  1  0  0  0  0
  1  7  1  0  0  0  0
  1  2  2  0  0  0  0
 35 36  1  0  0  0  0
 36 44  1  0  0  0  0
 36 37  2  0  0  0  0
  8  9  1  0  0  0  0
  9 17  1  0  0  0  0
  9 10  2  0  0  0  0
 18 19  1  0  0  0  0
 19 34  1  0  0  0  0
 19 20  2  0  0  0  0
 35 38  1  0  0  0  0
  8 11  1  0  0  0  0
 44 45  1  0  0  0  0
 18 21  1  0  0  0  0
 34 35  1  0  0  0  0
  7  8  1  0  0  0  0
 17 18  1  0  0  0  0
 24 32  1  0  0  0  0
 25 33  1  0  0  0  0
  3  4  1  0  0  0  0
  3  5  1  0  0  0  0
  3  6  1  0  0  0  0
 38 41  1  0  0  0  0
 38 42  1  0  0  0  0
 38 43  1  0  0  0  0
 11 14  1  0  0  0  0
 11 15  1  0  0  0  0
 11 16  1  0  0  0  0
 45 47  1  0  0  0  0
 45 48  1  0  0  0  0
 45 49  1  0  0  0  0
 21 29  1  0  0  0  0
 21 30  1  0  0  0  0
 35 40  1  0  0  0  0
  8 13  1  0  0  0  0
 18 28  1  0  0  0  0
 23 31  1  0  0  0  0
 44 46  1  0  0  0  0
  7 12  1  0  0  0  0
 34 39  1  0  0  0  0
 17 27  1  0  0  0  0
M  END
$$$$

  -OEChem-05262214473D

 49 49  0     1  0  0  0  0  0999 V2000
   -1.5619    0.5658    3.7981 C   0  0  0  0  0  0  0  0  0  0  0  0
   -0.6145   -0.0489    3.3224 O   0  0  0  0  0  0  0  0  0  0  0  0
   -1.9938    0.2834    5.1988 C   0  0  0  0  0  0  0  0  0  0  0  0
   -2.7535   -0.5129    5.2522 H   0  0  0  0  0  0  0  0  0  0  0  0
   -1.1626   -0.0642    5.8331 H   0  0  0  0  0  0  0  0  0  0  0  0
   -2.4318    1.1383    5.7384 H   0  0  0  0  0  0  0  0  0  0  0  0
   -2.3116    1.5383    3.1570 N   0  0  0  0  0  0  0  0  0  0  0  0
   -2.0648    1.9643    1.8046 C   0  0  2  0  0  0  0  0  0  0  0  0
   -0.7298    1.3789    1.3634 C   0  0  0  0  0  0  0  0  0  0  0  0
    0.1423    1.0262    2.1547 O   0  0  0  0  0  0  0  0  0  0  0  0
   -2.0560    3.4811    1.6952 C   0  0  0  0  0  0  0  0  0  0  0  0
   -3.0767    1.9741    3.6688 H   0  0  0  0  0  0  0  0  0  0  0  0
   -2.8689    1.5458    1.1895 H   0  0  0  0  0  0  0  0  0  0  0  0
   -1.2569    3.9183    2.3049 H   0  0  0  0  0  0  0  0  0  0  0  0
   -1.8965    3.8033    0.6609 H   0  0  0  0  0  0  0  0  0  0  0  0
   -3.0062    3.9023    2.0409 H   0  0  0  0  0  0  0  0  0  0  0  0
   -0.6071    1.3358   -0.0200 N   0  0  0  0  0  0  0  0  0  0  0  0
    0.5702    0.8350   -0.6836 C   0  0  2  0  0  0  0  0  0  0  0  0
    1.3348    2.0413   -1.2170 C   0  0  0  0  0  0  0  0  0  0  0  0
    2.3708    1.9412   -1.8708 O   0  0  0  0  0  0  0  0  0  0  0  0
    0.2255   -0.1257   -1.8275 C   0  0  0  0  0  0  0  0  0  0  0  0
   -0.4603   -1.3817   -1.3480 C   0  0  0  0  0  0  0  0  0  0  0  0
    0.2069   -2.3926   -0.7154 N   0  0  0  0  0  0  0  0  0  0  0  0
   -1.7675   -1.8041   -1.4048 C   0  0  0  0  0  0  0  0  0  0  0  0
   -0.7071   -3.3662   -0.4220 C   0  0  0  0  0  0  0  0  0  0  0  0
   -1.9146   -3.0400   -0.8264 N   0  0  0  0  0  0  0  0  0  0  0  0
   -1.3903    1.6325   -0.5973 H   0  0  0  0  0  0  0  0  0  0  0  0
    1.1743    0.3382    0.0846 H   0  0  0  0  0  0  0  0  0  0  0  0
    1.1323   -0.3909   -2.3879 H   0  0  0  0  0  0  0  0  0  0  0  0
   -0.4303    0.3668   -2.5576 H   0  0  0  0  0  0  0  0  0  0  0  0
    1.1956   -2.4194   -0.5029 H   0  0  0  0  0  0  0  0  0  0  0  0
   -2.6122   -1.2829   -1.8322 H   0  0  0  0  0  0  0  0  0  0  0  0
   -0.4299   -4.2805    0.0832 H   0  0  0  0  0  0  0  0  0  0  0  0
    0.6947    3.2360   -0.9178 N   0  0  0  0  0  0  0  0  0  0  0  0
    1.1953    4.5286   -1.3267 C   0  0  2  0  0  0  0  0  0  0  0  0
    2.6630    4.6120   -0.9286 C   0  0  0  0  0  0  0  0  0  0  0  0
    3.1574    3.9206   -0.0406 O   0  0  0  0  0  0  0  0  0  0  0  0
    0.3956    5.6570   -0.6943 C   0  0  0  0  0  0  0  0  0  0  0  0
   -0.1691    3.2000   -0.3845 H   0  0  0  0  0  0  0  0  0  0  0  0
    1.1093    4.5703   -2.4180 H   0  0  0  0  0  0  0  0  0  0  0  0
    0.4697    5.6316    0.3990 H   0  0  0  0  0  0  0  0  0  0  0  0
    0.7579    6.6352   -1.0275 H   0  0  0  0  0  0  0  0  0  0  0  0
   -0.6647    5.5784   -0.9575 H   0  0  0  0  0  0  0  0  0  0  0  0
    3.3458    5.5797   -1.6521 N   0  0  0  0  0  0  0  0  0  0  0  0
    4.7482    5.8594   -1.4499 C   0  0  0  0  0  0  0  0  0  0  0  0
    2.8607    6.0927   -2.3823 H   0  0  0  0  0  0  0  0  0  0  0  0
    4.8587    6.6706   -0.7152 H   0  0  0  0  0  0  0  0  0  0  0  0
    5.2521    4.9556   -1.0766 H   0  0  0  0  0  0  0  0  0  0  0  0
    5.2024    6.1648   -2.4041 H   0  0  0  0  0  0  0  0  0  0  0  0
 22 24  2  0  0  0  0
 24 26  1  0  0  0  0
 25 26  2  0  0  0  0
 23 25  1  0  0  0  0
 21 22  1  0  0  0  0
 22 23  1  0  0  0  0
  1  3  1  0  0  0  0
  1  7  1  0  0  0  0
  1  2  2  0  0  0  0
 35 36  1  0  0  0  0
 36 44  1  0  0  0  0
 36 37  2  0  0  0  0
  8  9  1  0  0  0  0
  9 17  1  0  0  0  0
  9 10  2  0  0  0  0
 18 19  1  0  0  0  0
 19 34  1  0  0  0  0
 19 20  2  0  0  0  0
 35 38  1  0  0  0  0
  8 11  1  0  0  0  0
 44 45  1  0  0  0  0
 18 21  1  0  0  0  0
 34 35  1  0  0  0  0
  7  8  1  0  0  0  0
 17 18  1  0  0  0  0
 24 32  1  0  0  0  0
 25 33  1  0  0  0  0
  3  4  1  0  0  0  0
  3  5  1  0  0  0  0
  3  6  1  0  0  0  0
 38 41  1  0  0  0  0
 38 42  1  0  0  0  0
 38 43  1  0  0  0  0
 11 14  1  0  0  0  0
 11 15  1  0  0  0  0
 11 16  1  0  0  0  0
 45 47  1  0  0  0  0
 45 48  1  0  0  0  0
 45 49  1  0  0  0  0
 21 29  1  0  0  0  0
 21 30  1  0  0  0  0
 35 40  1  0  0  0  0
  8 13  1  0  0  0  0
 18 28  1  0  0  0  0
 23 31  1  0  0  0  0
 44 46  1  0  0  0  0
  7 12  1  0  0  0  0
 34 39  1  0  0  0  0
 17 27  1  0  0  0  0
M  END
$$$$

  -OEChem-05262214473D

 49 49  0     1  0  0  0  0  0999 V2000
   -1.5619    0.5658    3.7981 C   0  0  0  0  0  0  0  0  0  0  0  0
   -0.6145   -0.0489    3.3224 O   0  0  0  0  0  0  0  0  0  0  0  0
   -1.9938    0.2834    5.1988 C   0  0  0  0  0  0  0  0  0  0  0  0
   -2.7535   -0.5129    5.2522 H   0  0  0  0  0  0  0  0  0  0  0  0
   -1.1626   -0.0642    5.8331 H   0  0  0  0  0  0  0  0  0  0  0  0
   -2.4318    1.1383    5.7384 H   0  0  0  0  0  0  0  0  0  0  0  0
   -2.3116    1.5383    3.1570 N   0  0  0  0  0  0  0  0  0  0  0  0
   -2.0648    1.9643    1.8046 C   0  0  2  0  0  0  0  0  0  0  0  0
   -0.7298    1.3789    1.3634 C   0  0  0  0  0  0  0  0  0  0  0  0
    0.1423    1.0262    2.1547 O   0  0  0  0  0  0  0  0  0  0  0  0
   -2.0560    3.4811    1.6952 C   0  0  0  0  0  0  0  0  0  0  0  0
   -3.0767    1.9741    3.6688 H   0  0  0  0  0  0  0  0  0  0  0  0
   -2.8689    1.5458    1.1895 H   0  0  0  0  0  0  0  0  0  0  0  0
   -1.2569    3.9183    2.3049 H   0  0  0  0  0  0  0  0  0  0  0  0
   -1.8965    3.8033    0.6609 H   0  0  0  0  0  0  0  0  0  0  0  0
   -3.0062    3.9023    2.0409 H   0  0  0  0  0  0  0  0  0  0  0  0
   -0.6071    1.3358   -0.0200 N   0  0  0  0  0  0  0  0  0  0  0  0
    0.5702    0.8350   -0.6836 C   0  0  2  0  0  0  0  0  0  0  0  0
    1.3348    2.0413   -1.2170 C   0  0  0  0  0  0  0  0  0  0  0  0
    2.2040    1.9537   -2.0817 O   0  0  0  0  0  0  0  0  0  0  0  0
    0.2255   -0.1257   -1.8275 C   0  0  0  0  0  0  0  0  0  0  0  0
   -0.4603   -1.3817   -1.3480 C   0  0  0  0  0  0  0  0  0  0  0  0
    0.2069   -2.3926   -0.7154 N   0  0  0  0  0  0  0  0  0  0  0  0
   -1.7675   -1.8041   -1.4048 C   0  0  0  0  0  0  0  0  0  0  0  0
   -0.7071   -3.3662   -0.4220 C   0  0  0  0  0  0  0  0  0  0  0  0
   -1.9146   -3.0400   -0.8264 N   0  0  0  0  0  0  0  0  0  0  0  0
   -1.3903    1.6325   -0.5973 H   0  0  0  0  0  0  0  0  0  0  0  0
    1.1743    0.3382    0.0846 H   0  0  0  0  0  0  0  0  0  0  0  0
    1.1323   -0.3909   -2.3879 H   0  0  0  0  0  0  0  0  0  0  0  0
   -0.4303    0.3668   -2.5576 H   0  0  0  0  0  0  0  0  0  0  0  0
    1.1956   -2.4194   -0.5029 H   0  0  0  0  0  0  0  0  0  0  0  0
   -2.6122   -1.2829   -1.8322 H   0  0  0  0  0  0  0  0  0  0  0  0
   -0.4299   -4.2805    0.0832 H   0  0  0  0  0  0  0  0  0  0  0  0
    0.8948    3.2284   -0.6480 N   0  0  0  0  0  0  0  0  0  0  0  0
    1.4359    4.5229   -0.9946 C   0  0  2  0  0  0  0  0  0  0  0  0
    2.9539    4.4368   -0.9078 C   0  0  0  0  0  0  0  0  0  0  0  0
    3.5404    3.5925   -0.2338 O   0  0  0  0  0  0  0  0  0  0  0  0
    0.8998    5.6105   -0.0768 C   0  0  0  0  0  0  0  0  0  0  0  0
    0.1553    3.1851    0.0470 H   0  0  0  0  0  0  0  0  0  0  0  0
    1.1395    4.7226   -2.0302 H   0  0  0  0  0  0  0  0  0  0  0  0
    1.1867    5.4275    0.9652 H   0  0  0  0  0  0  0  0  0  0  0  0
    1.2884    6.5947   -0.3586 H   0  0  0  0  0  0  0  0  0  0  0  0
   -0.1941    5.6512   -0.1181 H   0  0  0  0  0  0  0  0  0  0  0  0
    3.5762    5.4403   -1.6370 N   0  0  0  0  0  0  0  0  0  0  0  0
    5.0122    5.5803   -1.7028 C   0  0  0  0  0  0  0  0  0  0  0  0
    3.0117    6.0858   -2.1814 H   0  0  0  0  0  0  0  0  0  0  0  0
    5.3503    6.2703   -0.9157 H   0  0  0  0  0  0  0  0  0  0  0  0
    5.4834    4.5973   -1.5557 H   0  0  0  0  0  0  0  0  0  0  0  0
    5.2968    5.9796   -2.6874 H   0  0  0  0  0  0  0  0  0  0  0  0
 22 24  2  0  0  0  0
 24 26  1  0  0  0  0
 25 26  2  0  0  0  0
 23 25  1  0  0  0  0
 21 22  1  0  0  0  0
 22 23  1  0  0  0  0
  1  3  1  0  0  0  0
  1  7  1  0  0  0  0
  1  2  2  0  0  0  0
 35 36  1  0  0  0  0
 36 44  1  0  0  0  0
 36 37  2  0  0  0  0
  8  9  1  0  0  0  0
  9 17  1  0  0  0  0
  9 10  2  0  0  0  0
 18 19  1  0  0  0  0
 19 34  1  0  0  0  0
 19 20  2  0  0  0  0
 35 38  1  0  0  0  0
  8 11  1  0  0  0  0
 44 45  1  0  0  0  0
 18 21  1  0  0  0  0
 34 35  1  0  0  0  0
  7  8  1  0  0  0  0
 17 18  1  0  0  0  0
 24 32  1  0  0  0  0
 25 33  1  0  0  0  0
  3  4  1  0  0  0  0
  3  5  1  0  0  0  0
  3  6  1  0  0  0  0
 38 41  1  0  0  0  0
 38 42  1  0  0  0  0
 38 43  1  0  0  0  0
 11 14  1  0  0  0  0
 11 15  1  0  0  0  0
 11 16  1  0  0  0  0
 45 47  1  0  0  0  0
 45 48  1  0  0  0  0
 45 49  1  0  0  0  0
 21 29  1  0  0  0  0
 21 30  1  0  0  0  0
 35 40  1  0  0  0  0
  8 13  1  0  0  0  0
 18 28  1  0  0  0  0
 23 31  1  0  0  0  0
 44 46  1  0  0  0  0
  7 12  1  0  0  0  0
 34 39  1  0  0  0  0
 17 27  1  0  0  0  0
M  END
$$$$

  -OEChem-05262214473D

 49 49  0     1  0  0  0  0  0999 V2000
   -1.5619    0.5658    3.7981 C   0  0  0  0  0  0  0  0  0  0  0  0
   -0.6145   -0.0489    3.3224 O   0  0  0  0  0  0  0  0  0  0  0  0
   -1.9938    0.2834    5.1988 C   0  0  0  0  0  0  0  0  0  0  0  0
   -2.7535   -0.5129    5.2522 H   0  0  0  0  0  0  0  0  0  0  0  0
   -1.1626   -0.0642    5.8331 H   0  0  0  0  0  0  0  0  0  0  0  0
   -2.4318    1.1383    5.7384 H   0  0  0  0  0  0  0  0  0  0  0  0
   -2.3116    1.5383    3.1570 N   0  0  0  0  0  0  0  0  0  0  0  0
   -2.0648    1.9643    1.8046 C   0  0  2  0  0  0  0  0  0  0  0  0
   -0.7298    1.3789    1.3634 C   0  0  0  0  0  0  0  0  0  0  0  0
    0.1423    1.0262    2.1547 O   0  0  0  0  0  0  0  0  0  0  0  0
   -2.0560    3.4811    1.6952 C   0  0  0  0  0  0  0  0  0  0  0  0
   -3.0767    1.9741    3.6688 H   0  0  0  0  0  0  0  0  0  0  0  0
   -2.8689    1.5458    1.1895 H   0  0  0  0  0  0  0  0  0  0  0  0
   -1.2569    3.9183    2.3049 H   0  0  0  0  0  0  0  0  0  0  0  0
   -1.8965    3.8033    0.6609 H   0  0  0  0  0  0  0  0  0  0  0  0
   -3.0062    3.9023    2.0409 H   0  0  0  0  0  0  0  0  0  0  0  0
   -0.6071    1.3358   -0.0200 N   0  0  0  0  0  0  0  0  0  0  0  0
    0.5702    0.8350   -0.6836 C   0  0  2  0  0  0  0  0  0  0  0  0
    1.3348    2.0413   -1.2170 C   0  0  0  0  0  0  0  0  0  0  0  0
    2.0008    2.0083   -2.2496 O   0  0  0  0  0  0  0  0  0  0  0  0
    0.2255   -0.1257   -1.8275 C   0  0  0  0  0  0  0  0  0  0  0  0
   -0.4603   -1.3817   -1.3480 C   0  0  0  0  0  0  0  0  0  0  0  0
    0.2069   -2.3926   -0.7154 N   0  0  0  0  0  0  0  0  0  0  0  0
   -1.7675   -1.8041   -1.4048 C   0  0  0  0  0  0  0  0  0  0  0  0
   -0.7071   -3.3662   -0.4220 C   0  0  0  0  0  0  0  0  0  0  0  0
   -1.9146   -3.0400   -0.8264 N   0  0  0  0  0  0  0  0  0  0  0  0
   -1.3903    1.6325   -0.5973 H   0  0  0  0  0  0  0  0  0  0  0  0
    1.1743    0.3382    0.0846 H   0  0  0  0  0  0  0  0  0  0  0  0
    1.1323   -0.3909   -2.3879 H   0  0  0  0  0  0  0  0  0  0  0  0
   -0.4303    0.3668   -2.5576 H   0  0  0  0  0  0  0  0  0  0  0  0
    1.1956   -2.4194   -0.5029 H   0  0  0  0  0  0  0  0  0  0  0  0
   -2.6122   -1.2829   -1.8322 H   0  0  0  0  0  0  0  0  0  0  0  0
   -0.4299   -4.2805    0.0832 H   0  0  0  0  0  0  0  0  0  0  0  0
    1.1427    3.1679   -0.4294 N   0  0  0  0  0  0  0  0  0  0  0  0
    1.7357    4.4526   -0.7239 C   0  0  2  0  0  0  0  0  0  0  0  0
    3.2234    4.2385   -0.9699 C   0  0  0  0  0  0  0  0  0  0  0  0
    3.8410    3.2659   -0.5413 O   0  0  0  0  0  0  0  0  0  0  0  0
    1.5090    5.4398    0.4105 C   0  0  0  0  0  0  0  0  0  0  0  0
    0.5557    3.0854    0.3955 H   0  0  0  0  0  0  0  0  0  0  0  0
    1.2618    4.8167   -1.6419 H   0  0  0  0  0  0  0  0  0  0  0  0
    1.9767    5.0919    1.3387 H   0  0  0  0  0  0  0  0  0  0  0  0
    1.9341    6.4207    0.1736 H   0  0  0  0  0  0  0  0  0  0  0  0
    0.4391    5.5699    0.6058 H   0  0  0  0  0  0  0  0  0  0  0  0
    3.7893    5.2829   -1.6877 N   0  0  0  0  0  0  0  0  0  0  0  0
    5.1901    5.3196   -2.0374 C   0  0  0  0  0  0  0  0  0  0  0  0
    3.1980    6.0394   -2.0192 H   0  0  0  0  0  0  0  0  0  0  0  0
    5.7479    5.8652   -1.2620 H   0  0  0  0  0  0  0  0  0  0  0  0
    5.5762    4.2923   -2.1123 H   0  0  0  0  0  0  0  0  0  0  0  0
    5.3133    5.8291   -3.0045 H   0  0  0  0  0  0  0  0  0  0  0  0
 22 24  2  0  0  0  0
 24 26  1  0  0  0  0
 25 26  2  0  0  0  0
 23 25  1  0  0  0  0
 21 22  1  0  0  0  0
 22 23  1  0  0  0  0
  1  3  1  0  0  0  0
  1  7  1  0  0  0  0
  1  2  2  0  0  0  0
 35 36  1  0  0  0  0
 36 44  1  0  0  0  0
 36 37  2  0  0  0  0
  8  9  1  0  0  0  0
  9 17  1  0  0  0  0
  9 10  2  0  0  0  0
 18 19  1  0  0  0  0
 19 34  1  0  0  0  0
 19 20  2  0  0  0  0
 35 38  1  0  0  0  0
  8 11  1  0  0  0  0
 44 45  1  0  0  0  0
 18 21  1  0  0  0  0
 34 35  1  0  0  0  0
  7  8  1  0  0  0  0
 17 18  1  0  0  0  0
 24 32  1  0  0  0  0
 25 33  1  0  0  0  0
  3  4  1  0  0  0  0
  3  5  1  0  0  0  0
  3  6  1  0  0  0  0
 38 41  1  0  0  0  0
 38 42  1  0  0  0  0
 38 43  1  0  0  0  0
 11 14  1  0  0  0  0
 11 15  1  0  0  0  0
 11 16  1  0  0  0  0
 45 47  1  0  0  0  0
 45 48  1  0  0  0  0
 45 49  1  0  0  0  0
 21 29  1  0  0  0  0
 21 30  1  0  0  0  0
 35 40  1  0  0  0  0
  8 13  1  0  0  0  0
 18 28  1  0  0  0  0
 23 31  1  0  0  0  0
 44 46  1  0  0  0  0
  7 12  1  0  0  0  0
 34 39  1  0  0  0  0
 17 27  1  0  0  0  0
M  END
$$$$

  -OEChem-05262214473D

 49 49  0     1  0  0  0  0  0999 V2000
   -1.5619    0.5658    3.7981 C   0  0  0  0  0  0  0  0  0  0  0  0
   -0.6145   -0.0489    3.3224 O   0  0  0  0  0  0  0  0  0  0  0  0
   -1.9938    0.2834    5.1988 C   0  0  0  0  0  0  0  0  0  0  0  0
   -2.7535   -0.5129    5.2522 H   0  0  0  0  0  0  0  0  0  0  0  0
   -1.1626   -0.0642    5.8331 H   0  0  0  0  0  0  0  0  0  0  0  0
   -2.4318    1.1383    5.7384 H   0  0  0  0  0  0  0  0  0  0  0  0
   -2.3116    1.5383    3.1570 N   0  0  0  0  0  0  0  0  0  0  0  0
   -2.0648    1.9643    1.8046 C   0  0  2  0  0  0  0  0  0  0  0  0
   -0.7298    1.3789    1.3634 C   0  0  0  0  0  0  0  0  0  0  0  0
    0.1423    1.0262    2.1547 O   0  0  0  0  0  0  0  0  0  0  0  0
   -2.0560    3.4811    1.6952 C   0  0  0  0  0  0  0  0  0  0  0  0
   -3.0767    1.9741    3.6688 H   0  0  0  0  0  0  0  0  0  0  0  0
   -2.8689    1.5458    1.1895 H   0  0  0  0  0  0  0  0  0  0  0  0
   -1.2569    3.9183    2.3049 H   0  0  0  0  0  0  0  0  0  0  0  0
   -1.8965    3.8033    0.6609 H   0  0  0  0  0  0  0  0  0  0  0  0
   -3.0062    3.9023    2.0409 H   0  0  0  0  0  0  0  0  0  0  0  0
   -0.6071    1.3358   -0.0200 N   0  0  0  0  0  0  0  0  0  0  0  0
    0.5702    0.8350   -0.6836 C   0  0  2  0  0  0  0  0  0  0  0  0
    1.3348    2.0413   -1.2170 C   0  0  0  0  0  0  0  0  0  0  0  0
    1.7750    2.1012   -2.3630 O   0  0  0  0  0  0  0  0  0  0  0  0
    0.2255   -0.1257   -1.8275 C   0  0  0  0  0  0  0  0  0  0  0  0
   -0.4603   -1.3817   -1.3480 C   0  0  0  0  0  0  0  0  0  0  0  0
    0.2069   -2.3926   -0.7154 N   0  0  0  0  0  0  0  0  0  0  0  0
   -1.7675   -1.8041   -1.4048 C   0  0  0  0  0  0  0  0  0  0  0  0
   -0.7071   -3.3662   -0.4220 C   0  0  0  0  0  0  0  0  0  0  0  0
   -1.9146   -3.0400   -0.8264 N   0  0  0  0  0  0  0  0  0  0  0  0
   -1.3903    1.6325   -0.5973 H   0  0  0  0  0  0  0  0  0  0  0  0
    1.1743    0.3382    0.0846 H   0  0  0  0  0  0  0  0  0  0  0  0
    1.1323   -0.3909   -2.3879 H   0  0  0  0  0  0  0  0  0  0  0  0
   -0.4303    0.3668   -2.5576 H   0  0  0  0  0  0  0  0  0  0  0  0
    1.1956   -2.4194   -0.5029 H   0  0  0  0  0  0  0  0  0  0  0  0
   -2.6122   -1.2829   -1.8322 H   0  0  0  0  0  0  0  0  0  0  0  0
   -0.4299   -4.2805    0.0832 H   0  0  0  0  0  0  0  0  0  0  0  0
    1.4214    3.0587   -0.2768 N   0  0  0  0  0  0  0  0  0  0  0  0
    2.0745    4.3223   -0.5329 C   0  0  2  0  0  0  0  0  0  0  0  0
    3.4530    4.0306   -1.1109 C   0  0  0  0  0  0  0  0  0  0  0  0
    4.0389    2.9632   -0.9424 O   0  0  0  0  0  0  0  0  0  0  0  0
    2.1818    5.1565    0.7341 C   0  0  0  0  0  0  0  0  0  0  0  0
    1.0048    2.9076    0.6372 H   0  0  0  0  0  0  0  0  0  0  0  0
    1.4680    4.8461   -1.2798 H   0  0  0  0  0  0  0  0  0  0  0  0
    2.7859    4.6478    1.4942 H   0  0  0  0  0  0  0  0  0  0  0  0
    2.6510    6.1252    0.5329 H   0  0  0  0  0  0  0  0  0  0  0  0
    1.1915    5.3401    1.1649 H   0  0  0  0  0  0  0  0  0  0  0  0
    3.9704    5.1181   -1.8008 N   0  0  0  0  0  0  0  0  0  0  0  0
    5.2698    5.0951   -2.4308 C   0  0  0  0  0  0  0  0  0  0  0  0
    3.4071    5.9566   -1.9067 H   0  0  0  0  0  0  0  0  0  0  0  0
    6.0243    5.4828   -1.7306 H   0  0  0  0  0  0  0  0  0  0  0  0
    5.5243    4.0616   -2.7086 H   0  0  0  0  0  0  0  0  0  0  0  0
    5.2506    5.7233   -3.3336 H   0  0  0  0  0  0  0  0  0  0  0  0
 22 24  2  0  0  0  0
 24 26  1  0  0  0  0
 25 26  2  0  0  0  0
 23 25  1  0  0  0  0
 21 22  1  0  0  0  0
 22 23  1  0  0  0  0
  1  3  1  0  0  0  0
  1  7  1  0  0  0  0
  1  2  2  0  0  0  0
 35 36  1  0  0  0  0
 36 44  1  0  0  0  0
 36 37  2  0  0  0  0
  8  9  1  0  0  0  0
  9 17  1  0  0  0  0
  9 10  2  0  0  0  0
 18 19  1  0  0  0  0
 19 34  1  0  0  0  0
 19 20  2  0  0  0  0
 35 38  1  0  0  0  0
  8 11  1  0  0  0  0
 44 45  1  0  0  0  0
 18 21  1  0  0  0  0
 34 35  1  0  0  0  0
  7  8  1  0  0  0  0
 17 18  1  0  0  0  0
 24 32  1  0  0  0  0
 25 33  1  0  0  0  0
  3  4  1  0  0  0  0
  3  5  1  0  0  0  0
  3  6  1  0  0  0  0
 38 41  1  0  0  0  0
 38 42  1  0  0  0  0
 38 43  1  0  0  0  0
 11 14  1  0  0  0  0
 11 15  1  0  0  0  0
 11 16  1  0  0  0  0
 45 47  1  0  0  0  0
 45 48  1  0  0  0  0
 45 49  1  0  0  0  0
 21 29  1  0  0  0  0
 21 30  1  0  0  0  0
 35 40  1  0  0  0  0
  8 13  1  0  0  0  0
 18 28  1  0  0  0  0
 23 31  1  0  0  0  0
 44 46  1  0  0  0  0
  7 12  1  0  0  0  0
 34 39  1  0  0  0  0
 17 27  1  0  0  0  0
M  END
$$$$

  -OEChem-05262214473D

 49 49  0     1  0  0  0  0  0999 V2000
   -1.5619    0.5658    3.7981 C   0  0  0  0  0  0  0  0  0  0  0  0
   -0.6145   -0.0489    3.3224 O   0  0  0  0  0  0  0  0  0  0  0  0
   -1.9938    0.2834    5.1988 C   0  0  0  0  0  0  0  0  0  0  0  0
   -2.7535   -0.5129    5.2522 H   0  0  0  0  0  0  0  0  0  0  0  0
   -1.1626   -0.0642    5.8331 H   0  0  0  0  0  0  0  0  0  0  0  0
   -2.4318    1.1383    5.7384 H   0  0  0  0  0  0  0  0  0  0  0  0
   -2.3116    1.5383    3.1570 N   0  0  0  0  0  0  0  0  0  0  0  0
   -2.0648    1.9643    1.8046 C   0  0  2  0  0  0  0  0  0  0  0  0
   -0.7298    1.3789    1.3634 C   0  0  0  0  0  0  0  0  0  0  0  0
    0.1423    1.0262    2.1547 O   0  0  0  0  0  0  0  0  0  0  0  0
   -2.0560    3.4811    1.6952 C   0  0  0  0  0  0  0  0  0  0  0  0
   -3.0767    1.9741    3.6688 H   0  0  0  0  0  0  0  0  0  0  0  0
   -2.8689    1.5458    1.1895 H   0  0  0  0  0  0  0  0  0  0  0  0
   -1.2569    3.9183    2.3049 H   0  0  0  0  0  0  0  0  0  0  0  0
   -1.8965    3.8033    0.6609 H   0  0  0  0  0  0  0  0  0  0  0  0
   -3.0062    3.9023    2.0409 H   0  0  0  0  0  0  0  0  0  0  0  0
   -0.6071    1.3358   -0.0200 N   0  0  0  0  0  0  0  0  0  0  0  0
    0.5702    0.8350   -0.6836 C   0  0  2  0  0  0  0  0  0  0  0  0
    1.3348    2.0413   -1.2170 C   0  0  0  0  0  0  0  0  0  0  0  0
    1.5422    2.2261   -2.4144 O   0  0  0  0  0  0  0  0  0  0  0  0
    0.2255   -0.1257   -1.8275 C   0  0  0  0  0  0  0  0  0  0  0  0
   -0.4603   -1.3817   -1.3480 C   0  0  0  0  0  0  0  0  0  0  0  0
    0.2069   -2.3926   -0.7154 N   0  0  0  0  0  0  0  0  0  0  0  0
   -1.7675   -1.8041   -1.4048 C   0  0  0  0  0  0  0  0  0  0  0  0
   -0.7071   -3.3662   -0.4220 C   0  0  0  0  0  0  0  0  0  0  0  0
   -1.9146   -3.0400   -0.8264 N   0  0  0  0  0  0  0  0  0  0  0  0
   -1.3903    1.6325   -0.5973 H   0  0  0  0  0  0  0  0  0  0  0  0
    1.1743    0.3382    0.0846 H   0  0  0  0  0  0  0  0  0  0  0  0
    1.1323   -0.3909   -2.3879 H   0  0  0  0  0  0  0  0  0  0  0  0
   -0.4303    0.3668   -2.5576 H   0  0  0  0  0  0  0  0  0  0  0  0
    1.1956   -2.4194   -0.5029 H   0  0  0  0  0  0  0  0  0  0  0  0
   -2.6122   -1.2829   -1.8322 H   0  0  0  0  0  0  0  0  0  0  0  0
   -0.4299   -4.2805    0.0832 H   0  0  0  0  0  0  0  0  0  0  0  0
    1.7120    2.9082   -0.2007 N   0  0  0  0  0  0  0  0  0  0  0  0
    2.4290    4.1410   -0.4347 C   0  0  2  0  0  0  0  0  0  0  0  0
    3.6271    3.8274   -1.3211 C   0  0  0  0  0  0  0  0  0  0  0  0
    4.1204    2.7049   -1.4096 O   0  0  0  0  0  0  0  0  0  0  0  0
    2.8722    4.7799    0.8723 C   0  0  0  0  0  0  0  0  0  0  0  0
    1.4720    2.6638    0.7555 H   0  0  0  0  0  0  0  0  0  0  0  0
    1.7440    4.8089   -0.9683 H   0  0  0  0  0  0  0  0  0  0  0  0
    3.5591    4.1253    1.4210 H   0  0  0  0  0  0  0  0  0  0  0  0
    3.3903    5.7281    0.6947 H   0  0  0  0  0  0  0  0  0  0  0  0
    2.0120    4.9775    1.5209 H   0  0  0  0  0  0  0  0  0  0  0  0
    4.1073    4.9572   -1.9685 N   0  0  0  0  0  0  0  0  0  0  0  0
    5.2459    4.9221   -2.8563 C   0  0  0  0  0  0  0  0  0  0  0  0
    3.6245    5.8432   -1.8515 H   0  0  0  0  0  0  0  0  0  0  0  0
    6.1608    5.1493   -2.2894 H   0  0  0  0  0  0  0  0  0  0  0  0
    5.3311    3.9209   -3.3038 H   0  0  0  0  0  0  0  0  0  0  0  0
    5.1130    5.6695   -3.6525 H   0  0  0  0  0  0  0  0  0  0  0  0
 22 24  2  0  0  0  0
 24 26  1  0  0  0  0
 25 26  2  0  0  0  0
 23 25  1  0  0  0  0
 21 22  1  0  0  0  0
 22 23  1  0  0  0  0
  1  3  1  0  0  0  0
  1  7  1  0  0  0  0
  1  2  2  0  0  0  0
 35 36  1  0  0  0  0
 36 44  1  0  0  0  0
 36 37  2  0  0  0  0
  8  9  1  0  0  0  0
  9 17  1  0  0  0  0
  9 10  2  0  0  0  0
 18 19  1  0  0  0  0
 19 34  1  0  0  0  0
 19 20  2  0  0  0  0
 35 38  1  0  0  0  0
  8 11  1  0  0  0  0
 44 45  1  0  0  0  0
 18 21  1  0  0  0  0
 34 35  1  0  0  0  0
  7  8  1  0  0  0  0
 17 18  1  0  0  0  0
 24 32  1  0  0  0  0
 25 33  1  0  0  0  0
  3  4  1  0  0  0  0
  3  5  1  0  0  0  0
  3  6  1  0  0  0  0
 38 41  1  0  0  0  0
 38 42  1  0  0  0  0
 38 43  1  0  0  0  0
 11 14  1  0  0  0  0
 11 15  1  0  0  0  0
 11 16  1  0  0  0  0
 45 47  1  0  0  0  0
 45 48  1  0  0  0  0
 45 49  1  0  0  0  0
 21 29  1  0  0  0  0
 21 30  1  0  0  0  0
 35 40  1  0  0  0  0
  8 13  1  0  0  0  0
 18 28  1  0  0  0  0
 23 31  1  0  0  0  0
 44 46  1  0  0  0  0
  7 12  1  0  0  0  0
 34 39  1  0  0  0  0
 17 27  1  0  0  0  0
M  END
$$$$

  -OEChem-05262214473D

 49 49  0     1  0  0  0  0  0999 V2000
   -1.5619    0.5658    3.7981 C   0  0  0  0  0  0  0  0  0  0  0  0
   -0.6145   -0.0489    3.3224 O   0  0  0  0  0  0  0  0  0  0  0  0
   -1.9938    0.2834    5.1988 C   0  0  0  0  0  0  0  0  0  0  0  0
   -2.7535   -0.5129    5.2522 H   0  0  0  0  0  0  0  0  0  0  0  0
   -1.1626   -0.0642    5.8331 H   0  0  0  0  0  0  0  0  0  0  0  0
   -2.4318    1.1383    5.7384 H   0  0  0  0  0  0  0  0  0  0  0  0
   -2.3116    1.5383    3.1570 N   0  0  0  0  0  0  0  0  0  0  0  0
   -2.0648    1.9643    1.8046 C   0  0  2  0  0  0  0  0  0  0  0  0
   -0.7298    1.3789    1.3634 C   0  0  0  0  0  0  0  0  0  0  0  0
    0.1423    1.0262    2.1547 O   0  0  0  0  0  0  0  0  0  0  0  0
   -2.0560    3.4811    1.6952 C   0  0  0  0  0  0  0  0  0  0  0  0
   -3.0767    1.9741    3.6688 H   0  0  0  0  0  0  0  0  0  0  0  0
   -2.8689    1.5458    1.1895 H   0  0  0  0  0  0  0  0  0  0  0  0
   -1.2569    3.9183    2.3049 H   0  0  0  0  0  0  0  0  0  0  0  0
   -1.8965    3.8033    0.6609 H   0  0  0  0  0  0  0  0  0  0  0  0
   -3.0062    3.9023    2.0409 H   0  0  0  0  0  0  0  0  0  0  0  0
   -0.6071    1.3358   -0.0200 N   0  0  0  0  0  0  0  0  0  0  0  0
    0.5702    0.8350   -0.6836 C   0  0  2  0  0  0  0  0  0  0  0  0
    1.3348    2.0413   -1.2170 C   0  0  0  0  0  0  0  0  0  0  0  0
    1.3181    2.3745   -2.4000 O   0  0  0  0  0  0  0  0  0  0  0  0
    0.2255   -0.1257   -1.8275 C   0  0  0  0  0  0  0  0  0  0  0  0
   -0.4603   -1.3817   -1.3480 C   0  0  0  0  0  0  0  0  0  0  0  0
    0.2069   -2.3926   -0.7154 N   0  0  0  0  0  0  0  0  0  0  0  0
   -1.7675   -1.8041   -1.4048 C   0  0  0  0  0  0  0  0  0  0  0  0
   -0.7071   -3.3662   -0.4220 C   0  0  0  0  0  0  0  0  0  0  0  0
   -1.9146   -3.0400   -0.8264 N   0  0  0  0  0  0  0  0  0  0  0  0
   -1.3903    1.6325   -0.5973 H   0  0  0  0  0  0  0  0  0  0  0  0
    1.1743    0.3382    0.0846 H   0  0  0  0  0  0  0  0  0  0  0  0
    1.1323   -0.3909   -2.3879 H   0  0  0  0  0  0  0  0  0  0  0  0
   -0.4303    0.3668   -2.5576 H   0  0  0  0  0  0  0  0  0  0  0  0
    1.1956   -2.4194   -0.5029 H   0  0  0  0  0  0  0  0  0  0  0  0
   -2.6122   -1.2829   -1.8322 H   0  0  0  0  0  0  0  0  0  0  0  0
   -0.4299   -4.2805    0.0832 H   0  0  0  0  0  0  0  0  0  0  0  0
    1.9946    2.7266   -0.2063 N   0  0  0  0  0  0  0  0  0  0  0  0
    2.7751    3.9211   -0.4360 C   0  0  2  0  0  0  0  0  0  0  0  0
    3.7338    3.6426   -1.5861 C   0  0  0  0  0  0  0  0  0  0  0  0
    4.0802    2.5088   -1.9111 O   0  0  0  0  0  0  0  0  0  0  0  0
    3.5334    4.3357    0.8154 C   0  0  0  0  0  0  0  0  0  0  0  0
    1.9255    2.3706    0.7425 H   0  0  0  0  0  0  0  0  0  0  0  0
    2.0710    4.7075   -0.7289 H   0  0  0  0  0  0  0  0  0  0  0  0
    4.2438    3.5601    1.1242 H   0  0  0  0  0  0  0  0  0  0  0  0
    4.1016    5.2566    0.6481 H   0  0  0  0  0  0  0  0  0  0  0  0
    2.8446    4.5067    1.6497 H   0  0  0  0  0  0  0  0  0  0  0  0
    4.1906    4.8111   -2.1794 N   0  0  0  0  0  0  0  0  0  0  0  0
    5.1200    4.8124   -3.2849 C   0  0  0  0  0  0  0  0  0  0  0  0
    3.8356    5.7067   -1.8575 H   0  0  0  0  0  0  0  0  0  0  0  0
    6.1479    4.8873   -2.9004 H   0  0  0  0  0  0  0  0  0  0  0  0
    5.0099    3.8797   -3.8575 H   0  0  0  0  0  0  0  0  0  0  0  0
    4.9100    5.6713   -3.9393 H   0  0  0  0  0  0  0  0  0  0  0  0
 22 24  2  0  0  0  0
 24 26  1  0  0  0  0
 25 26  2  0  0  0  0
 23 25  1  0  0  0  0
 21 22  1  0  0  0  0
 22 23  1  0  0  0  0
  1  3  1  0  0  0  0
  1  7  1  0  0  0  0
  1  2  2  0  0  0  0
 35 36  1  0  0  0  0
 36 44  1  0  0  0  0
 36 37  2  0  0  0  0
  8  9  1  0  0  0  0
  9 17  1  0  0  0  0
  9 10  2  0  0  0  0
 18 19  1  0  0  0  0
 19 34  1  0  0  0  0
 19 20  2  0  0  0  0
 35 38  1  0  0  0  0
  8 11  1  0  0  0  0
 44 45  1  0  0  0  0
 18 21  1  0  0  0  0
 34 35  1  0  0  0  0
  7  8  1  0  0  0  0
 17 18  1  0  0  0  0
 24 32  1  0  0  0  0
 25 33  1  0  0  0  0
  3  4  1  0  0  0  0
  3  5  1  0  0  0  0
  3  6  1  0  0  0  0
 38 41  1  0  0  0  0
 38 42  1  0  0  0  0
 38 43  1  0  0  0  0
 11 14  1  0  0  0  0
 11 15  1  0  0  0  0
 11 16  1  0  0  0  0
 45 47  1  0  0  0  0
 45 48  1  0  0  0  0
 45 49  1  0  0  0  0
 21 29  1  0  0  0  0
 21 30  1  0  0  0  0
 35 40  1  0  0  0  0
  8 13  1  0  0  0  0
 18 28  1  0  0  0  0
 23 31  1  0  0  0  0
 44 46  1  0  0  0  0
  7 12  1  0  0  0  0
 34 39  1  0  0  0  0
 17 27  1  0  0  0  0
M  END
$$$$

  -OEChem-05262214473D

 49 49  0     1  0  0  0  0  0999 V2000
   -1.5619    0.5658    3.7981 C   0  0  0  0  0  0  0  0  0  0  0  0
   -0.6145   -0.0489    3.3224 O   0  0  0  0  0  0  0  0  0  0  0  0
   -1.9938    0.2834    5.1988 C   0  0  0  0  0  0  0  0  0  0  0  0
   -2.7535   -0.5129    5.2522 H   0  0  0  0  0  0  0  0  0  0  0  0
   -1.1626   -0.0642    5.8331 H   0  0  0  0  0  0  0  0  0  0  0  0
   -2.4318    1.1383    5.7384 H   0  0  0  0  0  0  0  0  0  0  0  0
   -2.3116    1.5383    3.1570 N   0  0  0  0  0  0  0  0  0  0  0  0
   -2.0648    1.9643    1.8046 C   0  0  2  0  0  0  0  0  0  0  0  0
   -0.7298    1.3789    1.3634 C   0  0  0  0  0  0  0  0  0  0  0  0
    0.1423    1.0262    2.1547 O   0  0  0  0  0  0  0  0  0  0  0  0
   -2.0560    3.4811    1.6952 C   0  0  0  0  0  0  0  0  0  0  0  0
   -3.0767    1.9741    3.6688 H   0  0  0  0  0  0  0  0  0  0  0  0
   -2.8689    1.5458    1.1895 H   0  0  0  0  0  0  0  0  0  0  0  0
   -1.2569    3.9183    2.3049 H   0  0  0  0  0  0  0  0  0  0  0  0
   -1.8965    3.8033    0.6609 H   0  0  0  0  0  0  0  0  0  0  0  0
   -3.0062    3.9023    2.0409 H   0  0  0  0  0  0  0  0  0  0  0  0
   -0.6071    1.3358   -0.0200 N   0  0  0  0  0  0  0  0  0  0  0  0
    0.5702    0.8350   -0.6836 C   0  0  2  0  0  0  0  0  0  0  0  0
    1.3348    2.0413   -1.2170 C   0  0  0  0  0  0  0  0  0  0  0  0
    1.1180    2.5362   -2.3210 O   0  0  0  0  0  0  0  0  0  0  0  0
    0.2255   -0.1257   -1.8275 C   0  0  0  0  0  0  0  0  0  0  0  0
   -0.4603   -1.3817   -1.3480 C   0  0  0  0  0  0  0  0  0  0  0  0
    0.2069   -2.3926   -0.7154 N   0  0  0  0  0  0  0  0  0  0  0  0
   -1.7675   -1.8041   -1.4048 C   0  0  0  0  0  0  0  0  0  0  0  0
   -0.7071   -3.3662   -0.4220 C   0  0  0  0  0  0  0  0  0  0  0  0
   -1.9146   -3.0400   -0.8264 N   0  0  0  0  0  0  0  0  0  0  0  0
   -1.3903    1.6325   -0.5973 H   0  0  0  0  0  0  0  0  0  0  0  0
    1.1743    0.3382    0.0846 H   0  0  0  0  0  0  0  0  0  0  0  0
    1.1323   -0.3909   -2.3879 H   0  0  0  0  0  0  0  0  0  0  0  0
   -0.4303    0.3668   -2.5576 H   0  0  0  0  0  0  0  0  0  0  0  0
    1.1956   -2.4194   -0.5029 H   0  0  0  0  0  0  0  0  0  0  0  0
   -2.6122   -1.2829   -1.8322 H   0  0  0  0  0  0  0  0  0  0  0  0
   -0.4299   -4.2805    0.0832 H   0  0  0  0  0  0  0  0  0  0  0  0
    2.2500    2.5263   -0.2931 N   0  0  0  0  0  0  0  0  0  0  0  0
    3.0893    3.6774   -0.5366 C   0  0  2  0  0  0  0  0  0  0  0  0
    3.7658    3.4888   -1.8880 C   0  0  0  0  0  0  0  0  0  0  0  0
    3.9208    2.3880   -2.4127 O   0  0  0  0  0  0  0  0  0  0  0  0
    4.1201    3.8541    0.5674 C   0  0  0  0  0  0  0  0  0  0  0  0
    2.3342    2.0481    0.5991 H   0  0  0  0  0  0  0  0  0  0  0  0
    2.4267    4.5489   -0.5777 H   0  0  0  0  0  0  0  0  0  0  0  0
    4.7931    2.9908    0.6238 H   0  0  0  0  0  0  0  0  0  0  0  0
    4.7365    4.7429    0.3962 H   0  0  0  0  0  0  0  0  0  0  0  0
    3.6326    3.9599    1.5425 H   0  0  0  0  0  0  0  0  0  0  0  0
    4.2147    4.6899   -2.4192 N   0  0  0  0  0  0  0  0  0  0  0  0
    4.9007    4.7735   -3.6873 C   0  0  0  0  0  0  0  0  0  0  0  0
    4.0259    5.5566   -1.9243 H   0  0  0  0  0  0  0  0  0  0  0  0
    5.9866    4.7147   -3.5219 H   0  0  0  0  0  0  0  0  0  0  0  0
    4.5825    3.9409   -4.3318 H   0  0  0  0  0  0  0  0  0  0  0  0
    4.6554    5.7288   -4.1745 H   0  0  0  0  0  0  0  0  0  0  0  0
 22 24  2  0  0  0  0
 24 26  1  0  0  0  0
 25 26  2  0  0  0  0
 23 25  1  0  0  0  0
 21 22  1  0  0  0  0
 22 23  1  0  0  0  0
  1  3  1  0  0  0  0
  1  7  1  0  0  0  0
  1  2  2  0  0  0  0
 35 36  1  0  0  0  0
 36 44  1  0  0  0  0
 36 37  2  0  0  0  0
  8  9  1  0  0  0  0
  9 17  1  0  0  0  0
  9 10  2  0  0  0  0
 18 19  1  0  0  0  0
 19 34  1  0  0  0  0
 19 20  2  0  0  0  0
 35 38  1  0  0  0  0
  8 11  1  0  0  0  0
 44 45  1  0  0  0  0
 18 21  1  0  0  0  0
 34 35  1  0  0  0  0
  7  8  1  0  0  0  0
 17 18  1  0  0  0  0
 24 32  1  0  0  0  0
 25 33  1  0  0  0  0
  3  4  1  0  0  0  0
  3  5  1  0  0  0  0
  3  6  1  0  0  0  0
 38 41  1  0  0  0  0
 38 42  1  0  0  0  0
 38 43  1  0  0  0  0
 11 14  1  0  0  0  0
 11 15  1  0  0  0  0
 11 16  1  0  0  0  0
 45 47  1  0  0  0  0
 45 48  1  0  0  0  0
 45 49  1  0  0  0  0
 21 29  1  0  0  0  0
 21 30  1  0  0  0  0
 35 40  1  0  0  0  0
  8 13  1  0  0  0  0
 18 28  1  0  0  0  0
 23 31  1  0  0  0  0
 44 46  1  0  0  0  0
  7 12  1  0  0  0  0
 34 39  1  0  0  0  0
 17 27  1  0  0  0  0
M  END
$$$$

  -OEChem-05262214473D

 49 49  0     1  0  0  0  0  0999 V2000
   -1.5619    0.5658    3.7981 C   0  0  0  0  0  0  0  0  0  0  0  0
   -0.6145   -0.0489    3.3224 O   0  0  0  0  0  0  0  0  0  0  0  0
   -1.9938    0.2834    5.1988 C   0  0  0  0  0  0  0  0  0  0  0  0
   -2.7535   -0.5129    5.2522 H   0  0  0  0  0  0  0  0  0  0  0  0
   -1.1626   -0.0642    5.8331 H   0  0  0  0  0  0  0  0  0  0  0  0
   -2.4318    1.1383    5.7384 H   0  0  0  0  0  0  0  0  0  0  0  0
   -2.3116    1.5383    3.1570 N   0  0  0  0  0  0  0  0  0  0  0  0
   -2.0648    1.9643    1.8046 C   0  0  2  0  0  0  0  0  0  0  0  0
   -0.7298    1.3789    1.3634 C   0  0  0  0  0  0  0  0  0  0  0  0
    0.1423    1.0262    2.1547 O   0  0  0  0  0  0  0  0  0  0  0  0
   -2.0560    3.4811    1.6952 C   0  0  0  0  0  0  0  0  0  0  0  0
   -3.0767    1.9741    3.6688 H   0  0  0  0  0  0  0  0  0  0  0  0
   -2.8689    1.5458    1.1895 H   0  0  0  0  0  0  0  0  0  0  0  0
   -1.2569    3.9183    2.3049 H   0  0  0  0  0  0  0  0  0  0  0  0
   -1.8965    3.8033    0.6609 H   0  0  0  0  0  0  0  0  0  0  0  0
   -3.0062    3.9023    2.0409 H   0  0  0  0  0  0  0  0  0  0  0  0
   -0.6071    1.3358   -0.0200 N   0  0  0  0  0  0  0  0  0  0  0  0
    0.5702    0.8350   -0.6836 C   0  0  2  0  0  0  0  0  0  0  0  0
    1.3348    2.0413   -1.2170 C   0  0  0  0  0  0  0  0  0  0  0  0
    0.9555    2.7004   -2.1827 O   0  0  0  0  0  0  0  0  0  0  0  0
    0.2255   -0.1257   -1.8275 C   0  0  0  0  0  0  0  0  0  0  0  0
   -0.4603   -1.3817   -1.3480 C   0  0  0  0  0  0  0  0  0  0  0  0
    0.2069   -2.3926   -0.7154 N   0  0  0  0  0  0  0  0  0  0  0  0
   -1.7675   -1.8041   -1.4048 C   0  0  0  0  0  0  0  0  0  0  0  0
   -0.7071   -3.3662   -0.4220 C   0  0  0  0  0  0  0  0  0  0  0  0
   -1.9146   -3.0400   -0.8264 N   0  0  0  0  0  0  0  0  0  0  0  0
   -1.3903    1.6325   -0.5973 H   0  0  0  0  0  0  0  0  0  0  0  0
    1.1743    0.3382    0.0846 H   0  0  0  0  0  0  0  0  0  0  0  0
    1.1323   -0.3909   -2.3879 H   0  0  0  0  0  0  0  0  0  0  0  0
   -0.4303    0.3668   -2.5576 H   0  0  0  0  0  0  0  0  0  0  0  0
    1.1956   -2.4194   -0.5029 H   0  0  0  0  0  0  0  0  0  0  0  0
   -2.6122   -1.2829   -1.8322 H   0  0  0  0  0  0  0  0  0  0  0  0
   -0.4299   -4.2805    0.0832 H   0  0  0  0  0  0  0  0  0  0  0  0
    2.4608    2.3210   -0.4553 N   0  0  0  0  0  0  0  0  0  0  0  0
    3.3501    3.4267   -0.7298 C   0  0  2  0  0  0  0  0  0  0  0  0
    3.7210    3.3765   -2.2061 C   0  0  0  0  0  0  0  0  0  0  0  0
    3.6532    2.3509   -2.8803 O   0  0  0  0  0  0  0  0  0  0  0  0
    4.5925    3.3681    0.1451 C   0  0  0  0  0  0  0  0  0  0  0  0
    2.6705    1.7182    0.3349 H   0  0  0  0  0  0  0  0  0  0  0  0
    2.7869    4.3438   -0.5252 H   0  0  0  0  0  0  0  0  0  0  0  0
    5.1697    2.4560   -0.0458 H   0  0  0  0  0  0  0  0  0  0  0  0
    5.2516    4.2219   -0.0438 H   0  0  0  0  0  0  0  0  0  0  0  0
    4.3223    3.3742    1.2066 H   0  0  0  0  0  0  0  0  0  0  0  0
    4.1778    4.6017   -2.6714 N   0  0  0  0  0  0  0  0  0  0  0  0
    4.6030    4.8080   -4.0362 C   0  0  0  0  0  0  0  0  0  0  0  0
    4.1825    5.4030   -2.0472 H   0  0  0  0  0  0  0  0  0  0  0  0
    5.6880    4.6433   -4.1117 H   0  0  0  0  0  0  0  0  0  0  0  0
    4.0781    4.1002   -4.6946 H   0  0  0  0  0  0  0  0  0  0  0  0
    4.3664    5.8378   -4.3421 H   0  0  0  0  0  0  0  0  0  0  0  0
 22 24  2  0  0  0  0
 24 26  1  0  0  0  0
 25 26  2  0  0  0  0
 23 25  1  0  0  0  0
 21 22  1  0  0  0  0
 22 23  1  0  0  0  0
  1  3  1  0  0  0  0
  1  7  1  0  0  0  0
  1  2  2  0  0  0  0
 35 36  1  0  0  0  0
 36 44  1  0  0  0  0
 36 37  2  0  0  0  0
  8  9  1  0  0  0  0
  9 17  1  0  0  0  0
  9 10  2  0  0  0  0
 18 19  1  0  0  0  0
 19 34  1  0  0  0  0
 19 20  2  0  0  0  0
 35 38  1  0  0  0  0
  8 11  1  0  0  0  0
 44 45  1  0  0  0  0
 18 21  1  0  0  0  0
 34 35  1  0  0  0  0
  7  8  1  0  0  0  0
 17 18  1  0  0  0  0
 24 32  1  0  0  0  0
 25 33  1  0  0  0  0
  3  4  1  0  0  0  0
  3  5  1  0  0  0  0
  3  6  1  0  0  0  0
 38 41  1  0  0  0  0
 38 42  1  0  0  0  0
 38 43  1  0  0  0  0
 11 14  1  0  0  0  0
 11 15  1  0  0  0  0
 11 16  1  0  0  0  0
 45 47  1  0  0  0  0
 45 48  1  0  0  0  0
 45 49  1  0  0  0  0
 21 29  1  0  0  0  0
 21 30  1  0  0  0  0
 35 40  1  0  0  0  0
  8 13  1  0  0  0  0
 18 28  1  0  0  0  0
 23 31  1  0  0  0  0
 44 46  1  0  0  0  0
  7 12  1  0  0  0  0
 34 39  1  0  0  0  0
 17 27  1  0  0  0  0
M  END
$$$$

  -OEChem-05262214473D

 49 49  0     1  0  0  0  0  0999 V2000
   -1.5619    0.5658    3.7981 C   0  0  0  0  0  0  0  0  0  0  0  0
   -0.6145   -0.0489    3.3224 O   0  0  0  0  0  0  0  0  0  0  0  0
   -1.9938    0.2834    5.1988 C   0  0  0  0  0  0  0  0  0  0  0  0
   -2.7535   -0.5129    5.2522 H   0  0  0  0  0  0  0  0  0  0  0  0
   -1.1626   -0.0642    5.8331 H   0  0  0  0  0  0  0  0  0  0  0  0
   -2.4318    1.1383    5.7384 H   0  0  0  0  0  0  0  0  0  0  0  0
   -2.3116    1.5383    3.1570 N   0  0  0  0  0  0  0  0  0  0  0  0
   -2.0648    1.9643    1.8046 C   0  0  2  0  0  0  0  0  0  0  0  0
   -0.7298    1.3789    1.3634 C   0  0  0  0  0  0  0  0  0  0  0  0
    0.1423    1.0262    2.1547 O   0  0  0  0  0  0  0  0  0  0  0  0
   -2.0560    3.4811    1.6952 C   0  0  0  0  0  0  0  0  0  0  0  0
   -3.0767    1.9741    3.6688 H   0  0  0  0  0  0  0  0  0  0  0  0
   -2.8689    1.5458    1.1895 H   0  0  0  0  0  0  0  0  0  0  0  0
   -1.2569    3.9183    2.3049 H   0  0  0  0  0  0  0  0  0  0  0  0
   -1.8965    3.8033    0.6609 H   0  0  0  0  0  0  0  0  0  0  0  0
   -3.0062    3.9023    2.0409 H   0  0  0  0  0  0  0  0  0  0  0  0
   -0.6071    1.3358   -0.0200 N   0  0  0  0  0  0  0  0  0  0  0  0
    0.5702    0.8350   -0.6836 C   0  0  2  0  0  0  0  0  0  0  0  0
    1.3348    2.0413   -1.2170 C   0  0  0  0  0  0  0  0  0  0  0  0
    0.8417    2.8556   -1.9946 O   0  0  0  0  0  0  0  0  0  0  0  0
    0.2255   -0.1257   -1.8275 C   0  0  0  0  0  0  0  0  0  0  0  0
   -0.4603   -1.3817   -1.3480 C   0  0  0  0  0  0  0  0  0  0  0  0
    0.2069   -2.3926   -0.7154 N   0  0  0  0  0  0  0  0  0  0  0  0
   -1.7675   -1.8041   -1.4048 C   0  0  0  0  0  0  0  0  0  0  0  0
   -0.7071   -3.3662   -0.4220 C   0  0  0  0  0  0  0  0  0  0  0  0
   -1.9146   -3.0400   -0.8264 N   0  0  0  0  0  0  0  0  0  0  0  0
   -1.3903    1.6325   -0.5973 H   0  0  0  0  0  0  0  0  0  0  0  0
    1.1743    0.3382    0.0846 H   0  0  0  0  0  0  0  0  0  0  0  0
    1.1323   -0.3909   -2.3879 H   0  0  0  0  0  0  0  0  0  0  0  0
   -0.4303    0.3668   -2.5576 H   0  0  0  0  0  0  0  0  0  0  0  0
    1.1956   -2.4194   -0.5029 H   0  0  0  0  0  0  0  0  0  0  0  0
   -2.6122   -1.2829   -1.8322 H   0  0  0  0  0  0  0  0  0  0  0  0
   -0.4299   -4.2805    0.0832 H   0  0  0  0  0  0  0  0  0  0  0  0
    2.6127    2.1246   -0.6817 N   0  0  0  0  0  0  0  0  0  0  0  0
    3.5397    3.1860   -1.0024 C   0  0  2  0  0  0  0  0  0  0  0  0
    3.6025    3.3134   -2.5188 C   0  0  0  0  0  0  0  0  0  0  0  0
    3.2956    2.4000   -3.2819 O   0  0  0  0  0  0  0  0  0  0  0  0
    4.9183    2.9106   -0.4225 C   0  0  0  0  0  0  0  0  0  0  0  0
    2.9114    1.4033   -0.0319 H   0  0  0  0  0  0  0  0  0  0  0  0
    3.1270    4.1063   -0.5748 H   0  0  0  0  0  0  0  0  0  0  0  0
    5.3479    1.9923   -0.8392 H   0  0  0  0  0  0  0  0  0  0  0  0
    5.6118    3.7291   -0.6420 H   0  0  0  0  0  0  0  0  0  0  0  0
    4.8667    2.7897    0.6649 H   0  0  0  0  0  0  0  0  0  0  0  0
    4.0826    4.5526   -2.9189 N   0  0  0  0  0  0  0  0  0  0  0  0
    4.2470    4.9136   -4.3077 C   0  0  0  0  0  0  0  0  0  0  0  0
    4.2946    5.2565   -2.2180 H   0  0  0  0  0  0  0  0  0  0  0  0
    5.2722    4.6779   -4.6294 H   0  0  0  0  0  0  0  0  0  0  0  0
    3.5310    4.3469   -4.9210 H   0  0  0  0  0  0  0  0  0  0  0  0
    4.0629    5.9911   -4.4306 H   0  0  0  0  0  0  0  0  0  0  0  0
 22 24  2  0  0  0  0
 24 26  1  0  0  0  0
 25 26  2  0  0  0  0
 23 25  1  0  0  0  0
 21 22  1  0  0  0  0
 22 23  1  0  0  0  0
  1  3  1  0  0  0  0
  1  7  1  0  0  0  0
  1  2  2  0  0  0  0
 35 36  1  0  0  0  0
 36 44  1  0  0  0  0
 36 37  2  0  0  0  0
  8  9  1  0  0  0  0
  9 17  1  0  0  0  0
  9 10  2  0  0  0  0
 18 19  1  0  0  0  0
 19 34  1  0  0  0  0
 19 20  2  0  0  0  0
 35 38  1  0  0  0  0
  8 11  1  0  0  0  0
 44 45  1  0  0  0  0
 18 21  1  0  0  0  0
 34 35  1  0  0  0  0
  7  8  1  0  0  0  0
 17 18  1  0  0  0  0
 24 32  1  0  0  0  0
 25 33  1  0  0  0  0
  3  4  1  0  0  0  0
  3  5  1  0  0  0  0
  3  6  1  0  0  0  0
 38 41  1  0  0  0  0
 38 42  1  0  0  0  0
 38 43  1  0  0  0  0
 11 14  1  0  0  0  0
 11 15  1  0  0  0  0
 11 16  1  0  0  0  0
 45 47  1  0  0  0  0
 45 48  1  0  0  0  0
 45 49  1  0  0  0  0
 21 29  1  0  0  0  0
 21 30  1  0  0  0  0
 35 40  1  0  0  0  0
  8 13  1  0  0  0  0
 18 28  1  0  0  0  0
 23 31  1  0  0  0  0
 44 46  1  0  0  0  0
  7 12  1  0  0  0  0
 34 39  1  0  0  0  0
 17 27  1  0  0  0  0
M  END
$$$$

  -OEChem-05262214473D

 49 49  0     1  0  0  0  0  0999 V2000
   -1.5619    0.5658    3.7981 C   0  0  0  0  0  0  0  0  0  0  0  0
   -0.6145   -0.0489    3.3224 O   0  0  0  0  0  0  0  0  0  0  0  0
   -1.9938    0.2834    5.1988 C   0  0  0  0  0  0  0  0  0  0  0  0
   -2.7535   -0.5129    5.2522 H   0  0  0  0  0  0  0  0  0  0  0  0
   -1.1626   -0.0642    5.8331 H   0  0  0  0  0  0  0  0  0  0  0  0
   -2.4318    1.1383    5.7384 H   0  0  0  0  0  0  0  0  0  0  0  0
   -2.3116    1.5383    3.1570 N   0  0  0  0  0  0  0  0  0  0  0  0
   -2.0648    1.9643    1.8046 C   0  0  2  0  0  0  0  0  0  0  0  0
   -0.7298    1.3789    1.3634 C   0  0  0  0  0  0  0  0  0  0  0  0
    0.1423    1.0262    2.1547 O   0  0  0  0  0  0  0  0  0  0  0  0
   -2.0560    3.4811    1.6952 C   0  0  0  0  0  0  0  0  0  0  0  0
   -3.0767    1.9741    3.6688 H   0  0  0  0  0  0  0  0  0  0  0  0
   -2.8689    1.5458    1.1895 H   0  0  0  0  0  0  0  0  0  0  0  0
   -1.2569    3.9183    2.3049 H   0  0  0  0  0  0  0  0  0  0  0  0
   -1.8965    3.8033    0.6609 H   0  0  0  0  0  0  0  0  0  0  0  0
   -3.0062    3.9023    2.0409 H   0  0  0  0  0  0  0  0  0  0  0  0
   -0.6071    1.3358   -0.0200 N   0  0  0  0  0  0  0  0  0  0  0  0
    0.5702    0.8350   -0.6836 C   0  0  2  0  0  0  0  0  0  0  0  0
    1.3348    2.0413   -1.2170 C   0  0  0  0  0  0  0  0  0  0  0  0
    0.7844    2.9915   -1.7694 O   0  0  0  0  0  0  0  0  0  0  0  0
    0.2255   -0.1257   -1.8275 C   0  0  0  0  0  0  0  0  0  0  0  0
   -0.4603   -1.3817   -1.3480 C   0  0  0  0  0  0  0  0  0  0  0  0
    0.2069   -2.3926   -0.7154 N   0  0  0  0  0  0  0  0  0  0  0  0
   -1.7675   -1.8041   -1.4048 C   0  0  0  0  0  0  0  0  0  0  0  0
   -0.7071   -3.3662   -0.4220 C   0  0  0  0  0  0  0  0  0  0  0  0
   -1.9146   -3.0400   -0.8264 N   0  0  0  0  0  0  0  0  0  0  0  0
   -1.3903    1.6325   -0.5973 H   0  0  0  0  0  0  0  0  0  0  0  0
    1.1743    0.3382    0.0846 H   0  0  0  0  0  0  0  0  0  0  0  0
    1.1323   -0.3909   -2.3879 H   0  0  0  0  0  0  0  0  0  0  0  0
   -0.4303    0.3668   -2.5576 H   0  0  0  0  0  0  0  0  0  0  0  0
    1.1956   -2.4194   -0.5029 H   0  0  0  0  0  0  0  0  0  0  0  0
   -2.6122   -1.2829   -1.8322 H   0  0  0  0  0  0  0  0  0  0  0  0
   -0.4299   -4.2805    0.0832 H   0  0  0  0  0  0  0  0  0  0  0  0
    2.6951    1.9506   -0.9570 N   0  0  0  0  0  0  0  0  0  0  0  0
    3.6452    2.9718   -1.3358 C   0  0  2  0  0  0  0  0  0  0  0  0
    3.4182    3.3038   -2.8047 C   0  0  0  0  0  0  0  0  0  0  0  0
    2.8724    2.5319   -3.5903 O   0  0  0  0  0  0  0  0  0  0  0  0
    5.0753    2.5129   -1.0970 C   0  0  0  0  0  0  0  0  0  0  0  0
    3.0404    1.1250   -0.4765 H   0  0  0  0  0  0  0  0  0  0  0  0
    3.4239    3.8525   -0.7232 H   0  0  0  0  0  0  0  0  0  0  0  0
    5.3155    1.6312   -1.7023 H   0  0  0  0  0  0  0  0  0  0  0  0
    5.7927    3.2981   -1.3575 H   0  0  0  0  0  0  0  0  0  0  0  0
    5.2286    2.2461   -0.0457 H   0  0  0  0  0  0  0  0  0  0  0  0
    3.9355    4.5459   -3.1449 N   0  0  0  0  0  0  0  0  0  0  0  0
    3.8572    5.0830   -4.4833 C   0  0  0  0  0  0  0  0  0  0  0  0
    4.3547    5.1269   -2.4249 H   0  0  0  0  0  0  0  0  0  0  0  0
    4.7677    4.8162   -5.0399 H   0  0  0  0  0  0  0  0  0  0  0  0
    2.9785    4.6641   -4.9956 H   0  0  0  0  0  0  0  0  0  0  0  0
    3.7654    6.1781   -4.4341 H   0  0  0  0  0  0  0  0  0  0  0  0
 22 24  2  0  0  0  0
 24 26  1  0  0  0  0
 25 26  2  0  0  0  0
 23 25  1  0  0  0  0
 21 22  1  0  0  0  0
 22 23  1  0  0  0  0
  1  3  1  0  0  0  0
  1  7  1  0  0  0  0
  1  2  2  0  0  0  0
 35 36  1  0  0  0  0
 36 44  1  0  0  0  0
 36 37  2  0  0  0  0
  8  9  1  0  0  0  0
  9 17  1  0  0  0  0
  9 10  2  0  0  0  0
 18 19  1  0  0  0  0
 19 34  1  0  0  0  0
 19 20  2  0  0  0  0
 35 38  1  0  0  0  0
  8 11  1  0  0  0  0
 44 45  1  0  0  0  0
 18 21  1  0  0  0  0
 34 35  1  0  0  0  0
  7  8  1  0  0  0  0
 17 18  1  0  0  0  0
 24 32  1  0  0  0  0
 25 33  1  0  0  0  0
  3  4  1  0  0  0  0
  3  5  1  0  0  0  0
  3  6  1  0  0  0  0
 38 41  1  0  0  0  0
 38 42  1  0  0  0  0
 38 43  1  0  0  0  0
 11 14  1  0  0  0  0
 11 15  1  0  0  0  0
 11 16  1  0  0  0  0
 45 47  1  0  0  0  0
 45 48  1  0  0  0  0
 45 49  1  0  0  0  0
 21 29  1  0  0  0  0
 21 30  1  0  0  0  0
 35 40  1  0  0  0  0
  8 13  1  0  0  0  0
 18 28  1  0  0  0  0
 23 31  1  0  0  0  0
 44 46  1  0  0  0  0
  7 12  1  0  0  0  0
 34 39  1  0  0  0  0
 17 27  1  0  0  0  0
M  END
$$$$

  -OEChem-05262214473D

 49 49  0     1  0  0  0  0  0999 V2000
   -1.5619    0.5658    3.7981 C   0  0  0  0  0  0  0  0  0  0  0  0
   -0.6145   -0.0489    3.3224 O   0  0  0  0  0  0  0  0  0  0  0  0
   -1.9938    0.2834    5.1988 C   0  0  0  0  0  0  0  0  0  0  0  0
   -2.7535   -0.5129    5.2522 H   0  0  0  0  0  0  0  0  0  0  0  0
   -1.1626   -0.0642    5.8331 H   0  0  0  0  0  0  0  0  0  0  0  0
   -2.4318    1.1383    5.7384 H   0  0  0  0  0  0  0  0  0  0  0  0
   -2.3116    1.5383    3.1570 N   0  0  0  0  0  0  0  0  0  0  0  0
   -2.0648    1.9643    1.8046 C   0  0  2  0  0  0  0  0  0  0  0  0
   -0.7298    1.3789    1.3634 C   0  0  0  0  0  0  0  0  0  0  0  0
    0.1423    1.0262    2.1547 O   0  0  0  0  0  0  0  0  0  0  0  0
   -2.0560    3.4811    1.6952 C   0  0  0  0  0  0  0  0  0  0  0  0
   -3.0767    1.9741    3.6688 H   0  0  0  0  0  0  0  0  0  0  0  0
   -2.8689    1.5458    1.1895 H   0  0  0  0  0  0  0  0  0  0  0  0
   -1.2569    3.9183    2.3049 H   0  0  0  0  0  0  0  0  0  0  0  0
   -1.8965    3.8033    0.6609 H   0  0  0  0  0  0  0  0  0  0  0  0
   -3.0062    3.9023    2.0409 H   0  0  0  0  0  0  0  0  0  0  0  0
   -0.6071    1.3358   -0.0200 N   0  0  0  0  0  0  0  0  0  0  0  0
    0.5702    0.8350   -0.6836 C   0  0  2  0  0  0  0  0  0  0  0  0
    1.3348    2.0413   -1.2170 C   0  0  0  0  0  0  0  0  0  0  0  0
    0.7875    3.0987   -1.5225 O   0  0  0  0  0  0  0  0  0  0  0  0
    0.2255   -0.1257   -1.8275 C   0  0  0  0  0  0  0  0  0  0  0  0
   -0.4603   -1.3817   -1.3480 C   0  0  0  0  0  0  0  0  0  0  0  0
    0.2069   -2.3926   -0.7154 N   0  0  0  0  0  0  0  0  0  0  0  0
   -1.7675   -1.8041   -1.4048 C   0  0  0  0  0  0  0  0  0  0  0  0
   -0.7071   -3.3662   -0.4220 C   0  0  0  0  0  0  0  0  0  0  0  0
   -1.9146   -3.0400   -0.8264 N   0  0  0  0  0  0  0  0  0  0  0  0
   -1.3903    1.6325   -0.5973 H   0  0  0  0  0  0  0  0  0  0  0  0
    1.1743    0.3382    0.0846 H   0  0  0  0  0  0  0  0  0  0  0  0
    1.1323   -0.3909   -2.3879 H   0  0  0  0  0  0  0  0  0  0  0  0
   -0.4303    0.3668   -2.5576 H   0  0  0  0  0  0  0  0  0  0  0  0
    1.1956   -2.4194   -0.5029 H   0  0  0  0  0  0  0  0  0  0  0  0
   -2.6122   -1.2829   -1.8322 H   0  0  0  0  0  0  0  0  0  0  0  0
   -0.4299   -4.2805    0.0832 H   0  0  0  0  0  0  0  0  0  0  0  0
    2.7027    1.8108   -1.2625 N   0  0  0  0  0  0  0  0  0  0  0  0
    3.6595    2.7985   -1.7072 C   0  0  2  0  0  0  0  0  0  0  0  0
    3.1808    3.3483   -3.0444 C   0  0  0  0  0  0  0  0  0  0  0  0
    2.4123    2.7377   -3.7844 O   0  0  0  0  0  0  0  0  0  0  0  0
    5.0528    2.2021   -1.8322 C   0  0  0  0  0  0  0  0  0  0  0  0
    3.0487    0.9022   -0.9684 H   0  0  0  0  0  0  0  0  0  0  0  0
    3.6573    3.5998   -0.9603 H   0  0  0  0  0  0  0  0  0  0  0  0
    5.0748    1.3974   -2.5762 H   0  0  0  0  0  0  0  0  0  0  0  0
    5.7818    2.9583   -2.1416 H   0  0  0  0  0  0  0  0  0  0  0  0
    5.3835    1.7805   -0.8768 H   0  0  0  0  0  0  0  0  0  0  0  0
    3.7465    4.5822   -3.3339 N   0  0  0  0  0  0  0  0  0  0  0  0
    3.4600    5.3048   -4.5512 C   0  0  0  0  0  0  0  0  0  0  0  0
    4.3587    5.0232   -2.6539 H   0  0  0  0  0  0  0  0  0  0  0  0
    4.2089    5.0487   -5.3151 H   0  0  0  0  0  0  0  0  0  0  0  0
    2.4583    5.0302   -4.9133 H   0  0  0  0  0  0  0  0  0  0  0  0
    3.4943    6.3861   -4.3522 H   0  0  0  0  0  0  0  0  0  0  0  0
 22 24  2  0  0  0  0
 24 26  1  0  0  0  0
 25 26  2  0  0  0  0
 23 25  1  0  0  0  0
 21 22  1  0  0  0  0
 22 23  1  0  0  0  0
  1  3  1  0  0  0  0
  1  7  1  0  0  0  0
  1  2  2  0  0  0  0
 35 36  1  0  0  0  0
 36 44  1  0  0  0  0
 36 37  2  0  0  0  0
  8  9  1  0  0  0  0
  9 17  1  0  0  0  0
  9 10  2  0  0  0  0
 18 19  1  0  0  0  0
 19 34  1  0  0  0  0
 19 20  2  0  0  0  0
 35 38  1  0  0  0  0
  8 11  1  0  0  0  0
 44 45  1  0  0  0  0
 18 21  1  0  0  0  0
 34 35  1  0  0  0  0
  7  8  1  0  0  0  0
 17 18  1  0  0  0  0
 24 32  1  0  0  0  0
 25 33  1  0  0  0  0
  3  4  1  0  0  0  0
  3  5  1  0  0  0  0
  3  6  1  0  0  0  0
 38 41  1  0  0  0  0
 38 42  1  0  0  0  0
 38 43  1  0  0  0  0
 11 14  1  0  0  0  0
 11 15  1  0  0  0  0
 11 16  1  0  0  0  0
 45 47  1  0  0  0  0
 45 48  1  0  0  0  0
 45 49  1  0  0  0  0
 21 29  1  0  0  0  0
 21 30  1  0  0  0  0
 35 40  1  0  0  0  0
  8 13  1  0  0  0  0
 18 28  1  0  0  0  0
 23 31  1  0  0  0  0
 44 46  1  0  0  0  0
  7 12  1  0  0  0  0
 34 39  1  0  0  0  0
 17 27  1  0  0  0  0
M  END
$$$$

  -OEChem-05262214473D

 49 49  0     1  0  0  0  0  0999 V2000
   -1.5619    0.5658    3.7981 C   0  0  0  0  0  0  0  0  0  0  0  0
   -0.6145   -0.0489    3.3224 O   0  0  0  0  0  0  0  0  0  0  0  0
   -1.9938    0.2834    5.1988 C   0  0  0  0  0  0  0  0  0  0  0  0
   -2.7535   -0.5129    5.2522 H   0  0  0  0  0  0  0  0  0  0  0  0
   -1.1626   -0.0642    5.8331 H   0  0  0  0  0  0  0  0  0  0  0  0
   -2.4318    1.1383    5.7384 H   0  0  0  0  0  0  0  0  0  0  0  0
   -2.3116    1.5383    3.1570 N   0  0  0  0  0  0  0  0  0  0  0  0
   -2.0648    1.9643    1.8046 C   0  0  2  0  0  0  0  0  0  0  0  0
   -0.7298    1.3789    1.3634 C   0  0  0  0  0  0  0  0  0  0  0  0
    0.1423    1.0262    2.1547 O   0  0  0  0  0  0  0  0  0  0  0  0
   -2.0560    3.4811    1.6952 C   0  0  0  0  0  0  0  0  0  0  0  0
   -3.0767    1.9741    3.6688 H   0  0  0  0  0  0  0  0  0  0  0  0
   -2.8689    1.5458    1.1895 H   0  0  0  0  0  0  0  0  0  0  0  0
   -1.2569    3.9183    2.3049 H   0  0  0  0  0  0  0  0  0  0  0  0
   -1.8965    3.8033    0.6609 H   0  0  0  0  0  0  0  0  0  0  0  0
   -3.0062    3.9023    2.0409 H   0  0  0  0  0  0  0  0  0  0  0  0
   -0.6071    1.3358   -0.0200 N   0  0  0  0  0  0  0  0  0  0  0  0
    0.5702    0.8350   -0.6836 C   0  0  2  0  0  0  0  0  0  0  0  0
    1.3348    2.0413   -1.2170 C   0  0  0  0  0  0  0  0  0  0  0  0
    0.8508    3.1699   -1.2708 O   0  0  0  0  0  0  0  0  0  0  0  0
    0.2255   -0.1257   -1.8275 C   0  0  0  0  0  0  0  0  0  0  0  0
   -0.4603   -1.3817   -1.3480 C   0  0  0  0  0  0  0  0  0  0  0  0
    0.2069   -2.3926   -0.7154 N   0  0  0  0  0  0  0  0  0  0  0  0
   -1.7675   -1.8041   -1.4048 C   0  0  0  0  0  0  0  0  0  0  0  0
   -0.7071   -3.3662   -0.4220 C   0  0  0  0  0  0  0  0  0  0  0  0
   -1.9146   -3.0400   -0.8264 N   0  0  0  0  0  0  0  0  0  0  0  0
   -1.3903    1.6325   -0.5973 H   0  0  0  0  0  0  0  0  0  0  0  0
    1.1743    0.3382    0.0846 H   0  0  0  0  0  0  0  0  0  0  0  0
    1.1323   -0.3909   -2.3879 H   0  0  0  0  0  0  0  0  0  0  0  0
   -0.4303    0.3668   -2.5576 H   0  0  0  0  0  0  0  0  0  0  0  0
    1.1956   -2.4194   -0.5029 H   0  0  0  0  0  0  0  0  0  0  0  0
   -2.6122   -1.2829   -1.8322 H   0  0  0  0  0  0  0  0  0  0  0  0
   -0.4299   -4.2805    0.0832 H   0  0  0  0  0  0  0  0  0  0  0  0
    2.6348    1.7147   -1.5772 N   0  0  0  0  0  0  0  0  0  0  0  0
    3.5816    2.6780   -2.0914 C   0  0  2  0  0  0  0  0  0  0  0  0
    2.9064    3.4439   -3.2215 C   0  0  0  0  0  0  0  0  0  0  0  0
    1.9469    3.0033   -3.8509 O   0  0  0  0  0  0  0  0  0  0  0  0
    4.8524    1.9993   -2.5781 C   0  0  0  0  0  0  0  0  0  0  0  0
    2.9359    0.7501   -1.4742 H   0  0  0  0  0  0  0  0  0  0  0  0
    3.8112    3.3653   -1.2699 H   0  0  0  0  0  0  0  0  0  0  0  0
    4.6422    1.3068   -3.4013 H   0  0  0  0  0  0  0  0  0  0  0  0
    5.5800    2.7328   -2.9409 H   0  0  0  0  0  0  0  0  0  0  0  0
    5.3207    1.4246   -1.7717 H   0  0  0  0  0  0  0  0  0  0  0  0
    3.5285    4.6588   -3.4731 N   0  0  0  0  0  0  0  0  0  0  0  0
    3.0825    5.5638   -4.5066 C   0  0  0  0  0  0  0  0  0  0  0  0
    4.3062    4.9523   -2.8893 H   0  0  0  0  0  0  0  0  0  0  0  0
    3.6338    5.3597   -5.4364 H   0  0  0  0  0  0  0  0  0  0  0  0
    2.0058    5.4202   -4.6798 H   0  0  0  0  0  0  0  0  0  0  0  0
    3.2680    6.6010   -4.1907 H   0  0  0  0  0  0  0  0  0  0  0  0
 22 24  2  0  0  0  0
 24 26  1  0  0  0  0
 25 26  2  0  0  0  0
 23 25  1  0  0  0  0
 21 22  1  0  0  0  0
 22 23  1  0  0  0  0
  1  3  1  0  0  0  0
  1  7  1  0  0  0  0
  1  2  2  0  0  0  0
 35 36  1  0  0  0  0
 36 44  1  0  0  0  0
 36 37  2  0  0  0  0
  8  9  1  0  0  0  0
  9 17  1  0  0  0  0
  9 10  2  0  0  0  0
 18 19  1  0  0  0  0
 19 34  1  0  0  0  0
 19 20  2  0  0  0  0
 35 38  1  0  0  0  0
  8 11  1  0  0  0  0
 44 45  1  0  0  0  0
 18 21  1  0  0  0  0
 34 35  1  0  0  0  0
  7  8  1  0  0  0  0
 17 18  1  0  0  0  0
 24 32  1  0  0  0  0
 25 33  1  0  0  0  0
  3  4  1  0  0  0  0
  3  5  1  0  0  0  0
  3  6  1  0  0  0  0
 38 41  1  0  0  0  0
 38 42  1  0  0  0  0
 38 43  1  0  0  0  0
 11 14  1  0  0  0  0
 11 15  1  0  0  0  0
 11 16  1  0  0  0  0
 45 47  1  0  0  0  0
 45 48  1  0  0  0  0
 45 49  1  0  0  0  0
 21 29  1  0  0  0  0
 21 30  1  0  0  0  0
 35 40  1  0  0  0  0
  8 13  1  0  0  0  0
 18 28  1  0  0  0  0
 23 31  1  0  0  0  0
 44 46  1  0  0  0  0
  7 12  1  0  0  0  0
 34 39  1  0  0  0  0
 17 27  1  0  0  0  0
M  END
$$$$

  -OEChem-05262214473D

 49 49  0     1  0  0  0  0  0999 V2000
   -1.5619    0.5658    3.7981 C   0  0  0  0  0  0  0  0  0  0  0  0
   -0.6145   -0.0489    3.3224 O   0  0  0  0  0  0  0  0  0  0  0  0
   -1.9938    0.2834    5.1988 C   0  0  0  0  0  0  0  0  0  0  0  0
   -2.7535   -0.5129    5.2522 H   0  0  0  0  0  0  0  0  0  0  0  0
   -1.1626   -0.0642    5.8331 H   0  0  0  0  0  0  0  0  0  0  0  0
   -2.4318    1.1383    5.7384 H   0  0  0  0  0  0  0  0  0  0  0  0
   -2.3116    1.5383    3.1570 N   0  0  0  0  0  0  0  0  0  0  0  0
   -2.0648    1.9643    1.8046 C   0  0  2  0  0  0  0  0  0  0  0  0
   -0.7298    1.3789    1.3634 C   0  0  0  0  0  0  0  0  0  0  0  0
    0.1423    1.0262    2.1547 O   0  0  0  0  0  0  0  0  0  0  0  0
   -2.0560    3.4811    1.6952 C   0  0  0  0  0  0  0  0  0  0  0  0
   -3.0767    1.9741    3.6688 H   0  0  0  0  0  0  0  0  0  0  0  0
   -2.8689    1.5458    1.1895 H   0  0  0  0  0  0  0  0  0  0  0  0
   -1.2569    3.9183    2.3049 H   0  0  0  0  0  0  0  0  0  0  0  0
   -1.8965    3.8033    0.6609 H   0  0  0  0  0  0  0  0  0  0  0  0
   -3.0062    3.9023    2.0409 H   0  0  0  0  0  0  0  0  0  0  0  0
   -0.6071    1.3358   -0.0200 N   0  0  0  0  0  0  0  0  0  0  0  0
    0.5702    0.8350   -0.6836 C   0  0  2  0  0  0  0  0  0  0  0  0
    1.5130    2.0165   -0.8821 C   0  0  0  0  0  0  0  0  0  0  0  0
    1.2601    3.1496   -0.4782 O   0  0  0  0  0  0  0  0  0  0  0  0
    0.2417    0.1831   -2.0317 C   0  0  0  0  0  0  0  0  0  0  0  0
   -0.6231   -1.0457   -1.8904 C   0  0  0  0  0  0  0  0  0  0  0  0
   -0.1392   -2.2426   -1.4425 N   0  0  0  0  0  0  0  0  0  0  0  0
   -1.9559   -1.2753   -2.1381 C   0  0  0  0  0  0  0  0  0  0  0  0
   -1.1796   -3.1297   -1.4386 C   0  0  0  0  0  0  0  0  0  0  0  0
   -2.2961   -2.5744   -1.8546 N   0  0  0  0  0  0  0  0  0  0  0  0
   -1.3903    1.6325   -0.5973 H   0  0  0  0  0  0  0  0  0  0  0  0
    1.0341    0.1170    0.0028 H   0  0  0  0  0  0  0  0  0  0  0  0
    1.1668   -0.0756   -2.5646 H   0  0  0  0  0  0  0  0  0  0  0  0
   -0.2777    0.8957   -2.6860 H   0  0  0  0  0  0  0  0  0  0  0  0
    0.8135   -2.4397   -1.1653 H   0  0  0  0  0  0  0  0  0  0  0  0
   -2.6900   -0.5728   -2.5061 H   0  0  0  0  0  0  0  0  0  0  0  0
   -1.0575   -4.1563   -1.1239 H   0  0  0  0  0  0  0  0  0  0  0  0
    2.6884    1.6421   -1.5183 N   0  0  0  0  0  0  0  0  0  0  0  0
    3.7624    2.5647   -1.8081 C   0  0  2  0  0  0  0  0  0  0  0  0
    3.1629    3.7822   -2.4993 C   0  0  0  0  0  0  0  0  0  0  0  0
    2.0869    3.7545   -3.0929 O   0  0  0  0  0  0  0  0  0  0  0  0
    4.8291    1.9167   -2.6770 C   0  0  0  0  0  0  0  0  0  0  0  0
    2.7993    0.6708   -1.7940 H   0  0  0  0  0  0  0  0  0  0  0  0
    4.1904    2.8645   -0.8453 H   0  0  0  0  0  0  0  0  0  0  0  0
    4.4190    1.6097   -3.6461 H   0  0  0  0  0  0  0  0  0  0  0  0
    5.6558    2.6079   -2.8720 H   0  0  0  0  0  0  0  0  0  0  0  0
    5.2382    1.0242   -2.1914 H   0  0  0  0  0  0  0  0  0  0  0  0
    3.9913    4.8924   -2.4122 N   0  0  0  0  0  0  0  0  0  0  0  0
    3.6511    6.1670   -3.0000 C   0  0  0  0  0  0  0  0  0  0  0  0
    4.8568    4.8299   -1.8842 H   0  0  0  0  0  0  0  0  0  0  0  0
    4.0730    6.2280   -4.0141 H   0  0  0  0  0  0  0  0  0  0  0  0
    2.5568    6.2664   -3.0518 H   0  0  0  0  0  0  0  0  0  0  0  0
    4.0641    6.9777   -2.3818 H   0  0  0  0  0  0  0  0  0  0  0  0
 22 24  2  0  0  0  0
 24 26  1  0  0  0  0
 25 26  2  0  0  0  0
 23 25  1  0  0  0  0
 21 22  1  0  0  0  0
 22 23  1  0  0  0  0
  1  3  1  0  0  0  0
  1  7  1  0  0  0  0
  1  2  2  0  0  0  0
 35 36  1  0  0  0  0
 36 44  1  0  0  0  0
 36 37  2  0  0  0  0
  8  9  1  0  0  0  0
  9 17  1  0  0  0  0
  9 10  2  0  0  0  0
 18 19  1  0  0  0  0
 19 34  1  0  0  0  0
 19 20  2  0  0  0  0
 35 38  1  0  0  0  0
  8 11  1  0  0  0  0
 44 45  1  0  0  0  0
 18 21  1  0  0  0  0
 34 35  1  0  0  0  0
  7  8  1  0  0  0  0
 17 18  1  0  0  0  0
 24 32  1  0  0  0  0
 25 33  1  0  0  0  0
  3  4  1  0  0  0  0
  3  5  1  0  0  0  0
  3  6  1  0  0  0  0
 38 41  1  0  0  0  0
 38 42  1  0  0  0  0
 38 43  1  0  0  0  0
 11 14  1  0  0  0  0
 11 15  1  0  0  0  0
 11 16  1  0  0  0  0
 45 47  1  0  0  0  0
 45 48  1  0  0  0  0
 45 49  1  0  0  0  0
 21 29  1  0  0  0  0
 21 30  1  0  0  0  0
 35 40  1  0  0  0  0
  8 13  1  0  0  0  0
 18 28  1  0  0  0  0
 23 31  1  0  0  0  0
 44 46  1  0  0  0  0
  7 12  1  0  0  0  0
 34 39  1  0  0  0  0
 17 27  1  0  0  0  0
M  END
$$$$

  -OEChem-05262214473D

 49 49  0     1  0  0  0  0  0999 V2000
   -1.5619    0.5658    3.7981 C   0  0  0  0  0  0  0  0  0  0  0  0
   -0.6145   -0.0489    3.3224 O   0  0  0  0  0  0  0  0  0  0  0  0
   -1.9938    0.2834    5.1988 C   0  0  0  0  0  0  0  0  0  0  0  0
   -2.7535   -0.5129    5.2522 H   0  0  0  0  0  0  0  0  0  0  0  0
   -1.1626   -0.0642    5.8331 H   0  0  0  0  0  0  0  0  0  0  0  0
   -2.4318    1.1383    5.7384 H   0  0  0  0  0  0  0  0  0  0  0  0
   -2.3116    1.5383    3.1570 N   0  0  0  0  0  0  0  0  0  0  0  0
   -2.0648    1.9643    1.8046 C   0  0  2  0  0  0  0  0  0  0  0  0
   -0.7298    1.3789    1.3634 C   0  0  0  0  0  0  0  0  0  0  0  0
    0.1423    1.0262    2.1547 O   0  0  0  0  0  0  0  0  0  0  0  0
   -2.0560    3.4811    1.6952 C   0  0  0  0  0  0  0  0  0  0  0  0
   -3.0767    1.9741    3.6688 H   0  0  0  0  0  0  0  0  0  0  0  0
   -2.8689    1.5458    1.1895 H   0  0  0  0  0  0  0  0  0  0  0  0
   -1.2569    3.9183    2.3049 H   0  0  0  0  0  0  0  0  0  0  0  0
   -1.8965    3.8033    0.6609 H   0  0  0  0  0  0  0  0  0  0  0  0
   -3.0062    3.9023    2.0409 H   0  0  0  0  0  0  0  0  0  0  0  0
   -0.6071    1.3358   -0.0200 N   0  0  0  0  0  0  0  0  0  0  0  0
    0.5702    0.8350   -0.6836 C   0  0  2  0  0  0  0  0  0  0  0  0
    1.5130    2.0165   -0.8821 C   0  0  0  0  0  0  0  0  0  0  0  0
    1.4020    3.0725   -0.2628 O   0  0  0  0  0  0  0  0  0  0  0  0
    0.2417    0.1831   -2.0317 C   0  0  0  0  0  0  0  0  0  0  0  0
   -0.6231   -1.0457   -1.8904 C   0  0  0  0  0  0  0  0  0  0  0  0
   -0.1392   -2.2426   -1.4425 N   0  0  0  0  0  0  0  0  0  0  0  0
   -1.9559   -1.2753   -2.1381 C   0  0  0  0  0  0  0  0  0  0  0  0
   -1.1796   -3.1297   -1.4386 C   0  0  0  0  0  0  0  0  0  0  0  0
   -2.2961   -2.5744   -1.8546 N   0  0  0  0  0  0  0  0  0  0  0  0
   -1.3903    1.6325   -0.5973 H   0  0  0  0  0  0  0  0  0  0  0  0
    1.0341    0.1170    0.0028 H   0  0  0  0  0  0  0  0  0  0  0  0
    1.1668   -0.0756   -2.5646 H   0  0  0  0  0  0  0  0  0  0  0  0
   -0.2777    0.8957   -2.6860 H   0  0  0  0  0  0  0  0  0  0  0  0
    0.8135   -2.4397   -1.1653 H   0  0  0  0  0  0  0  0  0  0  0  0
   -2.6900   -0.5728   -2.5061 H   0  0  0  0  0  0  0  0  0  0  0  0
   -1.0575   -4.1563   -1.1239 H   0  0  0  0  0  0  0  0  0  0  0  0
    2.5191    1.7308   -1.7946 N   0  0  0  0  0  0  0  0  0  0  0  0
    3.5593    2.6696   -2.1486 C   0  0  2  0  0  0  0  0  0  0  0  0
    2.8966    3.9940   -2.5040 C   0  0  0  0  0  0  0  0  0  0  0  0
    1.7243    4.0823   -2.8633 O   0  0  0  0  0  0  0  0  0  0  0  0
    4.3993    2.1540   -3.3068 C   0  0  0  0  0  0  0  0  0  0  0  0
    2.5245    0.8159   -2.2358 H   0  0  0  0  0  0  0  0  0  0  0  0
    4.1837    2.8004   -1.2581 H   0  0  0  0  0  0  0  0  0  0  0  0
    3.7907    2.0167   -4.2081 H   0  0  0  0  0  0  0  0  0  0  0  0
    5.2045    2.8532   -3.5551 H   0  0  0  0  0  0  0  0  0  0  0  0
    4.8511    1.1871   -3.0604 H   0  0  0  0  0  0  0  0  0  0  0  0
    3.7803    5.0604   -2.4144 N   0  0  0  0  0  0  0  0  0  0  0  0
    3.3947    6.4197   -2.7137 C   0  0  0  0  0  0  0  0  0  0  0  0
    4.7289    4.8974   -2.0898 H   0  0  0  0  0  0  0  0  0  0  0  0
    3.6102    6.6384   -3.7700 H   0  0  0  0  0  0  0  0  0  0  0  0
    2.3182    6.5452   -2.5257 H   0  0  0  0  0  0  0  0  0  0  0  0
    3.9618    7.1111   -2.0732 H   0  0  0  0  0  0  0  0  0  0  0  0
 22 24  2  0  0  0  0
 24 26  1  0  0  0  0
 25 26  2  0  0  0  0
 23 25  1  0  0  0  0
 21 22  1  0  0  0  0
 22 23  1  0  0  0  0
  1  3  1  0  0  0  0
  1  7  1  0  0  0  0
  1  2  2  0  0  0  0
 35 36  1  0  0  0  0
 36 44  1  0  0  0  0
 36 37  2  0  0  0  0
  8  9  1  0  0  0  0
  9 17  1  0  0  0  0
  9 10  2  0  0  0  0
 18 19  1  0  0  0  0
 19 34  1  0  0  0  0
 19 20  2  0  0  0  0
 35 38  1  0  0  0  0
  8 11  1  0  0  0  0
 44 45  1  0  0  0  0
 18 21  1  0  0  0  0
 34 35  1  0  0  0  0
  7  8  1  0  0  0  0
 17 18  1  0  0  0  0
 24 32  1  0  0  0  0
 25 33  1  0  0  0  0
  3  4  1  0  0  0  0
  3  5  1  0  0  0  0
  3  6  1  0  0  0  0
 38 41  1  0  0  0  0
 38 42  1  0  0  0  0
 38 43  1  0  0  0  0
 11 14  1  0  0  0  0
 11 15  1  0  0  0  0
 11 16  1  0  0  0  0
 45 47  1  0  0  0  0
 45 48  1  0  0  0  0
 45 49  1  0  0  0  0
 21 29  1  0  0  0  0
 21 30  1  0  0  0  0
 35 40  1  0  0  0  0
  8 13  1  0  0  0  0
 18 28  1  0  0  0  0
 23 31  1  0  0  0  0
 44 46  1  0  0  0  0
  7 12  1  0  0  0  0
 34 39  1  0  0  0  0
 17 27  1  0  0  0  0
M  END
$$$$

  -OEChem-05262214473D

 49 49  0     1  0  0  0  0  0999 V2000
   -1.5619    0.5658    3.7981 C   0  0  0  0  0  0  0  0  0  0  0  0
   -0.6145   -0.0489    3.3224 O   0  0  0  0  0  0  0  0  0  0  0  0
   -1.9938    0.2834    5.1988 C   0  0  0  0  0  0  0  0  0  0  0  0
   -2.7535   -0.5129    5.2522 H   0  0  0  0  0  0  0  0  0  0  0  0
   -1.1626   -0.0642    5.8331 H   0  0  0  0  0  0  0  0  0  0  0  0
   -2.4318    1.1383    5.7384 H   0  0  0  0  0  0  0  0  0  0  0  0
   -2.3116    1.5383    3.1570 N   0  0  0  0  0  0  0  0  0  0  0  0
   -2.0648    1.9643    1.8046 C   0  0  2  0  0  0  0  0  0  0  0  0
   -0.7298    1.3789    1.3634 C   0  0  0  0  0  0  0  0  0  0  0  0
    0.1423    1.0262    2.1547 O   0  0  0  0  0  0  0  0  0  0  0  0
   -2.0560    3.4811    1.6952 C   0  0  0  0  0  0  0  0  0  0  0  0
   -3.0767    1.9741    3.6688 H   0  0  0  0  0  0  0  0  0  0  0  0
   -2.8689    1.5458    1.1895 H   0  0  0  0  0  0  0  0  0  0  0  0
   -1.2569    3.9183    2.3049 H   0  0  0  0  0  0  0  0  0  0  0  0
   -1.8965    3.8033    0.6609 H   0  0  0  0  0  0  0  0  0  0  0  0
   -3.0062    3.9023    2.0409 H   0  0  0  0  0  0  0  0  0  0  0  0
   -0.6071    1.3358   -0.0200 N   0  0  0  0  0  0  0  0  0  0  0  0
    0.5702    0.8350   -0.6836 C   0  0  2  0  0  0  0  0  0  0  0  0
    1.5130    2.0165   -0.8821 C   0  0  0  0  0  0  0  0  0  0  0  0
    1.5797    2.9588   -0.0956 O   0  0  0  0  0  0  0  0  0  0  0  0
    0.2417    0.1831   -2.0317 C   0  0  0  0  0  0  0  0  0  0  0  0
   -0.6231   -1.0457   -1.8904 C   0  0  0  0  0  0  0  0  0  0  0  0
   -0.1392   -2.2426   -1.4425 N   0  0  0  0  0  0  0  0  0  0  0  0
   -1.9559   -1.2753   -2.1381 C   0  0  0  0  0  0  0  0  0  0  0  0
   -1.1796   -3.1297   -1.4386 C   0  0  0  0  0  0  0  0  0  0  0  0
   -2.2961   -2.5744   -1.8546 N   0  0  0  0  0  0  0  0  0  0  0  0
   -1.3903    1.6325   -0.5973 H   0  0  0  0  0  0  0  0  0  0  0  0
    1.0341    0.1170    0.0028 H   0  0  0  0  0  0  0  0  0  0  0  0
    1.1668   -0.0756   -2.5646 H   0  0  0  0  0  0  0  0  0  0  0  0
   -0.2777    0.8957   -2.6860 H   0  0  0  0  0  0  0  0  0  0  0  0
    0.8135   -2.4397   -1.1653 H   0  0  0  0  0  0  0  0  0  0  0  0
   -2.6900   -0.5728   -2.5061 H   0  0  0  0  0  0  0  0  0  0  0  0
   -1.0575   -4.1563   -1.1239 H   0  0  0  0  0  0  0  0  0  0  0  0
    2.3031    1.8664   -2.0133 N   0  0  0  0  0  0  0  0  0  0  0  0
    3.2984    2.8323   -2.4199 C   0  0  2  0  0  0  0  0  0  0  0  0
    2.6455    4.2082   -2.4213 C   0  0  0  0  0  0  0  0  0  0  0  0
    1.4313    4.3745   -2.5164 O   0  0  0  0  0  0  0  0  0  0  0  0
    3.8657    2.4985   -3.7909 C   0  0  0  0  0  0  0  0  0  0  0  0
    2.1754    1.0360   -2.5841 H   0  0  0  0  0  0  0  0  0  0  0  0
    4.0924    2.8049   -1.6657 H   0  0  0  0  0  0  0  0  0  0  0  0
    3.0848    2.5210   -4.5597 H   0  0  0  0  0  0  0  0  0  0  0  0
    4.6399    3.2148   -4.0851 H   0  0  0  0  0  0  0  0  0  0  0  0
    4.3084    1.4966   -3.7960 H   0  0  0  0  0  0  0  0  0  0  0  0
    3.5817    5.2301   -2.3473 N   0  0  0  0  0  0  0  0  0  0  0  0
    3.2130    6.6266   -2.3453 C   0  0  0  0  0  0  0  0  0  0  0  0
    4.5664    4.9998   -2.2520 H   0  0  0  0  0  0  0  0  0  0  0  0
    3.2259    7.0112   -3.3758 H   0  0  0  0  0  0  0  0  0  0  0  0
    2.2026    6.7383   -1.9250 H   0  0  0  0  0  0  0  0  0  0  0  0
    3.9295    7.1940   -1.7333 H   0  0  0  0  0  0  0  0  0  0  0  0
 22 24  2  0  0  0  0
 24 26  1  0  0  0  0
 25 26  2  0  0  0  0
 23 25  1  0  0  0  0
 21 22  1  0  0  0  0
 22 23  1  0  0  0  0
  1  3  1  0  0  0  0
  1  7  1  0  0  0  0
  1  2  2  0  0  0  0
 35 36  1  0  0  0  0
 36 44  1  0  0  0  0
 36 37  2  0  0  0  0
  8  9  1  0  0  0  0
  9 17  1  0  0  0  0
  9 10  2  0  0  0  0
 18 19  1  0  0  0  0
 19 34  1  0  0  0  0
 19 20  2  0  0  0  0
 35 38  1  0  0  0  0
  8 11  1  0  0  0  0
 44 45  1  0  0  0  0
 18 21  1  0  0  0  0
 34 35  1  0  0  0  0
  7  8  1  0  0  0  0
 17 18  1  0  0  0  0
 24 32  1  0  0  0  0
 25 33  1  0  0  0  0
  3  4  1  0  0  0  0
  3  5  1  0  0  0  0
  3  6  1  0  0  0  0
 38 41  1  0  0  0  0
 38 42  1  0  0  0  0
 38 43  1  0  0  0  0
 11 14  1  0  0  0  0
 11 15  1  0  0  0  0
 11 16  1  0  0  0  0
 45 47  1  0  0  0  0
 45 48  1  0  0  0  0
 45 49  1  0  0  0  0
 21 29  1  0  0  0  0
 21 30  1  0  0  0  0
 35 40  1  0  0  0  0
  8 13  1  0  0  0  0
 18 28  1  0  0  0  0
 23 31  1  0  0  0  0
 44 46  1  0  0  0  0
  7 12  1  0  0  0  0
 34 39  1  0  0  0  0
 17 27  1  0  0  0  0
M  END
$$$$

  -OEChem-05262214473D

 49 49  0     1  0  0  0  0  0999 V2000
   -1.5619    0.5658    3.7981 C   0  0  0  0  0  0  0  0  0  0  0  0
   -0.6145   -0.0489    3.3224 O   0  0  0  0  0  0  0  0  0  0  0  0
   -1.9938    0.2834    5.1988 C   0  0  0  0  0  0  0  0  0  0  0  0
   -2.7535   -0.5129    5.2522 H   0  0  0  0  0  0  0  0  0  0  0  0
   -1.1626   -0.0642    5.8331 H   0  0  0  0  0  0  0  0  0  0  0  0
   -2.4318    1.1383    5.7384 H   0  0  0  0  0  0  0  0  0  0  0  0
   -2.3116    1.5383    3.1570 N   0  0  0  0  0  0  0  0  0  0  0  0
   -2.0648    1.9643    1.8046 C   0  0  2  0  0  0  0  0  0  0  0  0
   -0.7298    1.3789    1.3634 C   0  0  0  0  0  0  0  0  0  0  0  0
    0.1423    1.0262    2.1547 O   0  0  0  0  0  0  0  0  0  0  0  0
   -2.0560    3.4811    1.6952 C   0  0  0  0  0  0  0  0  0  0  0  0
   -3.0767    1.9741    3.6688 H   0  0  0  0  0  0  0  0  0  0  0  0
   -2.8689    1.5458    1.1895 H   0  0  0  0  0  0  0  0  0  0  0  0
   -1.2569    3.9183    2.3049 H   0  0  0  0  0  0  0  0  0  0  0  0
   -1.8965    3.8033    0.6609 H   0  0  0  0  0  0  0  0  0  0  0  0
   -3.0062    3.9023    2.0409 H   0  0  0  0  0  0  0  0  0  0  0  0
   -0.6071    1.3358   -0.0200 N   0  0  0  0  0  0  0  0  0  0  0  0
    0.5702    0.8350   -0.6836 C   0  0  2  0  0  0  0  0  0  0  0  0
    1.5130    2.0165   -0.8821 C   0  0  0  0  0  0  0  0  0  0  0  0
    1.7810    2.8162    0.0121 O   0  0  0  0  0  0  0  0  0  0  0  0
    0.2417    0.1831   -2.0317 C   0  0  0  0  0  0  0  0  0  0  0  0
   -0.6231   -1.0457   -1.8904 C   0  0  0  0  0  0  0  0  0  0  0  0
   -0.1392   -2.2426   -1.4425 N   0  0  0  0  0  0  0  0  0  0  0  0
   -1.9559   -1.2753   -2.1381 C   0  0  0  0  0  0  0  0  0  0  0  0
   -1.1796   -3.1297   -1.4386 C   0  0  0  0  0  0  0  0  0  0  0  0
   -2.2961   -2.5744   -1.8546 N   0  0  0  0  0  0  0  0  0  0  0  0
   -1.3903    1.6325   -0.5973 H   0  0  0  0  0  0  0  0  0  0  0  0
    1.0341    0.1170    0.0028 H   0  0  0  0  0  0  0  0  0  0  0  0
    1.1668   -0.0756   -2.5646 H   0  0  0  0  0  0  0  0  0  0  0  0
   -0.2777    0.8957   -2.6860 H   0  0  0  0  0  0  0  0  0  0  0  0
    0.8135   -2.4397   -1.1653 H   0  0  0  0  0  0  0  0  0  0  0  0
   -2.6900   -0.5728   -2.5061 H   0  0  0  0  0  0  0  0  0  0  0  0
   -1.0575   -4.1563   -1.1239 H   0  0  0  0  0  0  0  0  0  0  0  0
    2.0552    2.0397   -2.1596 N   0  0  0  0  0  0  0  0  0  0  0  0
    2.9974    3.0416   -2.6037 C   0  0  2  0  0  0  0  0  0  0  0  0
    2.4268    4.4104   -2.2567 C   0  0  0  0  0  0  0  0  0  0  0  0
    1.2276    4.6110   -2.0757 O   0  0  0  0  0  0  0  0  0  0  0  0
    3.2648    2.9267   -4.0963 C   0  0  0  0  0  0  0  0  0  0  0  0
    1.7757    1.3161   -2.8154 H   0  0  0  0  0  0  0  0  0  0  0  0
    3.9225    2.8775   -2.0404 H   0  0  0  0  0  0  0  0  0  0  0  0
    2.3494    3.0881   -4.6771 H   0  0  0  0  0  0  0  0  0  0  0  0
    4.0004    3.6679   -4.4258 H   0  0  0  0  0  0  0  0  0  0  0  0
    3.6471    1.9316   -4.3482 H   0  0  0  0  0  0  0  0  0  0  0  0
    3.4090    5.3901   -2.2155 N   0  0  0  0  0  0  0  0  0  0  0  0
    3.1183    6.7736   -1.9199 C   0  0  0  0  0  0  0  0  0  0  0  0
    4.3803    5.1302   -2.3597 H   0  0  0  0  0  0  0  0  0  0  0  0
    2.9463    7.3212   -2.8583 H   0  0  0  0  0  0  0  0  0  0  0  0
    2.2179    6.8326   -1.2908 H   0  0  0  0  0  0  0  0  0  0  0  0
    3.9692    7.2208   -1.3852 H   0  0  0  0  0  0  0  0  0  0  0  0
 22 24  2  0  0  0  0
 24 26  1  0  0  0  0
 25 26  2  0  0  0  0
 23 25  1  0  0  0  0
 21 22  1  0  0  0  0
 22 23  1  0  0  0  0
  1  3  1  0  0  0  0
  1  7  1  0  0  0  0
  1  2  2  0  0  0  0
 35 36  1  0  0  0  0
 36 44  1  0  0  0  0
 36 37  2  0  0  0  0
  8  9  1  0  0  0  0
  9 17  1  0  0  0  0
  9 10  2  0  0  0  0
 18 19  1  0  0  0  0
 19 34  1  0  0  0  0
 19 20  2  0  0  0  0
 35 38  1  0  0  0  0
  8 11  1  0  0  0  0
 44 45  1  0  0  0  0
 18 21  1  0  0  0  0
 34 35  1  0  0  0  0
  7  8  1  0  0  0  0
 17 18  1  0  0  0  0
 24 32  1  0  0  0  0
 25 33  1  0  0  0  0
  3  4  1  0  0  0  0
  3  5  1  0  0  0  0
  3  6  1  0  0  0  0
 38 41  1  0  0  0  0
 38 42  1  0  0  0  0
 38 43  1  0  0  0  0
 11 14  1  0  0  0  0
 11 15  1  0  0  0  0
 11 16  1  0  0  0  0
 45 47  1  0  0  0  0
 45 48  1  0  0  0  0
 45 49  1  0  0  0  0
 21 29  1  0  0  0  0
 21 30  1  0  0  0  0
 35 40  1  0  0  0  0
  8 13  1  0  0  0  0
 18 28  1  0  0  0  0
 23 31  1  0  0  0  0
 44 46  1  0  0  0  0
  7 12  1  0  0  0  0
 34 39  1  0  0  0  0
 17 27  1  0  0  0  0
M  END
$$$$

  -OEChem-05262214473D

 49 49  0     1  0  0  0  0  0999 V2000
   -1.5619    0.5658    3.7981 C   0  0  0  0  0  0  0  0  0  0  0  0
   -0.6145   -0.0489    3.3224 O   0  0  0  0  0  0  0  0  0  0  0  0
   -1.9938    0.2834    5.1988 C   0  0  0  0  0  0  0  0  0  0  0  0
   -2.7535   -0.5129    5.2522 H   0  0  0  0  0  0  0  0  0  0  0  0
   -1.1626   -0.0642    5.8331 H   0  0  0  0  0  0  0  0  0  0  0  0
   -2.4318    1.1383    5.7384 H   0  0  0  0  0  0  0  0  0  0  0  0
   -2.3116    1.5383    3.1570 N   0  0  0  0  0  0  0  0  0  0  0  0
   -2.0648    1.9643    1.8046 C   0  0  2  0  0  0  0  0  0  0  0  0
   -0.7298    1.3789    1.3634 C   0  0  0  0  0  0  0  0  0  0  0  0
    0.1423    1.0262    2.1547 O   0  0  0  0  0  0  0  0  0  0  0  0
   -2.0560    3.4811    1.6952 C   0  0  0  0  0  0  0  0  0  0  0  0
   -3.0767    1.9741    3.6688 H   0  0  0  0  0  0  0  0  0  0  0  0
   -2.8689    1.5458    1.1895 H   0  0  0  0  0  0  0  0  0  0  0  0
   -1.2569    3.9183    2.3049 H   0  0  0  0  0  0  0  0  0  0  0  0
   -1.8965    3.8033    0.6609 H   0  0  0  0  0  0  0  0  0  0  0  0
   -3.0062    3.9023    2.0409 H   0  0  0  0  0  0  0  0  0  0  0  0
   -0.6071    1.3358   -0.0200 N   0  0  0  0  0  0  0  0  0  0  0  0
    0.5702    0.8350   -0.6836 C   0  0  2  0  0  0  0  0  0  0  0  0
    1.5130    2.0165   -0.8821 C   0  0  0  0  0  0  0  0  0  0  0  0
    1.9922    2.6545    0.0529 O   0  0  0  0  0  0  0  0  0  0  0  0
    0.2417    0.1831   -2.0317 C   0  0  0  0  0  0  0  0  0  0  0  0
   -0.6231   -1.0457   -1.8904 C   0  0  0  0  0  0  0  0  0  0  0  0
   -0.1392   -2.2426   -1.4425 N   0  0  0  0  0  0  0  0  0  0  0  0
   -1.9559   -1.2753   -2.1381 C   0  0  0  0  0  0  0  0  0  0  0  0
   -1.1796   -3.1297   -1.4386 C   0  0  0  0  0  0  0  0  0  0  0  0
   -2.2961   -2.5744   -1.8546 N   0  0  0  0  0  0  0  0  0  0  0  0
   -1.3903    1.6325   -0.5973 H   0  0  0  0  0  0  0  0  0  0  0  0
    1.0341    0.1170    0.0028 H   0  0  0  0  0  0  0  0  0  0  0  0
    1.1668   -0.0756   -2.5646 H   0  0  0  0  0  0  0  0  0  0  0  0
   -0.2777    0.8957   -2.6860 H   0  0  0  0  0  0  0  0  0  0  0  0
    0.8135   -2.4397   -1.1653 H   0  0  0  0  0  0  0  0  0  0  0  0
   -2.6900   -0.5728   -2.5061 H   0  0  0  0  0  0  0  0  0  0  0  0
   -1.0575   -4.1563   -1.1239 H   0  0  0  0  0  0  0  0  0  0  0  0
    1.7922    2.2389   -2.2234 N   0  0  0  0  0  0  0  0  0  0  0  0
    2.6768    3.2834   -2.6873 C   0  0  2  0  0  0  0  0  0  0  0  0
    2.2554    4.5867   -2.0216 C   0  0  0  0  0  0  0  0  0  0  0  0
    1.1272    4.7758   -1.5713 O   0  0  0  0  0  0  0  0  0  0  0  0
    2.6376    3.4094   -4.2023 C   0  0  0  0  0  0  0  0  0  0  0  0
    1.3526    1.6372   -2.9137 H   0  0  0  0  0  0  0  0  0  0  0  0
    3.6857    3.0133   -2.3567 H   0  0  0  0  0  0  0  0  0  0  0  0
    1.6346    3.6795   -4.5522 H   0  0  0  0  0  0  0  0  0  0  0  0
    3.3295    4.1816   -4.5542 H   0  0  0  0  0  0  0  0  0  0  0  0
    2.9122    2.4624   -4.6794 H   0  0  0  0  0  0  0  0  0  0  0  0
    3.2741    5.5293   -2.0280 N   0  0  0  0  0  0  0  0  0  0  0  0
    3.1171    6.8507   -1.4665 C   0  0  0  0  0  0  0  0  0  0  0  0
    4.1834    5.2796   -2.4055 H   0  0  0  0  0  0  0  0  0  0  0  0
    2.7906    7.5473   -2.2526 H   0  0  0  0  0  0  0  0  0  0  0  0
    2.3631    6.8216   -0.6661 H   0  0  0  0  0  0  0  0  0  0  0  0
    4.0783    7.1896   -1.0526 H   0  0  0  0  0  0  0  0  0  0  0  0
 22 24  2  0  0  0  0
 24 26  1  0  0  0  0
 25 26  2  0  0  0  0
 23 25  1  0  0  0  0
 21 22  1  0  0  0  0
 22 23  1  0  0  0  0
  1  3  1  0  0  0  0
  1  7  1  0  0  0  0
  1  2  2  0  0  0  0
 35 36  1  0  0  0  0
 36 44  1  0  0  0  0
 36 37  2  0  0  0  0
  8  9  1  0  0  0  0
  9 17  1  0  0  0  0
  9 10  2  0  0  0  0
 18 19  1  0  0  0  0
 19 34  1  0  0  0  0
 19 20  2  0  0  0  0
 35 38  1  0  0  0  0
  8 11  1  0  0  0  0
 44 45  1  0  0  0  0
 18 21  1  0  0  0  0
 34 35  1  0  0  0  0
  7  8  1  0  0  0  0
 17 18  1  0  0  0  0
 24 32  1  0  0  0  0
 25 33  1  0  0  0  0
  3  4  1  0  0  0  0
  3  5  1  0  0  0  0
  3  6  1  0  0  0  0
 38 41  1  0  0  0  0
 38 42  1  0  0  0  0
 38 43  1  0  0  0  0
 11 14  1  0  0  0  0
 11 15  1  0  0  0  0
 11 16  1  0  0  0  0
 45 47  1  0  0  0  0
 45 48  1  0  0  0  0
 45 49  1  0  0  0  0
 21 29  1  0  0  0  0
 21 30  1  0  0  0  0
 35 40  1  0  0  0  0
  8 13  1  0  0  0  0
 18 28  1  0  0  0  0
 23 31  1  0  0  0  0
 44 46  1  0  0  0  0
  7 12  1  0  0  0  0
 34 39  1  0  0  0  0
 17 27  1  0  0  0  0
M  END
$$$$

  -OEChem-05262214473D

 49 49  0     1  0  0  0  0  0999 V2000
   -1.5619    0.5658    3.7981 C   0  0  0  0  0  0  0  0  0  0  0  0
   -0.6145   -0.0489    3.3224 O   0  0  0  0  0  0  0  0  0  0  0  0
   -1.9938    0.2834    5.1988 C   0  0  0  0  0  0  0  0  0  0  0  0
   -2.7535   -0.5129    5.2522 H   0  0  0  0  0  0  0  0  0  0  0  0
   -1.1626   -0.0642    5.8331 H   0  0  0  0  0  0  0  0  0  0  0  0
   -2.4318    1.1383    5.7384 H   0  0  0  0  0  0  0  0  0  0  0  0
   -2.3116    1.5383    3.1570 N   0  0  0  0  0  0  0  0  0  0  0  0
   -2.0648    1.9643    1.8046 C   0  0  2  0  0  0  0  0  0  0  0  0
   -0.7298    1.3789    1.3634 C   0  0  0  0  0  0  0  0  0  0  0  0
    0.1423    1.0262    2.1547 O   0  0  0  0  0  0  0  0  0  0  0  0
   -2.0560    3.4811    1.6952 C   0  0  0  0  0  0  0  0  0  0  0  0
   -3.0767    1.9741    3.6688 H   0  0  0  0  0  0  0  0  0  0  0  0
   -2.8689    1.5458    1.1895 H   0  0  0  0  0  0  0  0  0  0  0  0
   -1.2569    3.9183    2.3049 H   0  0  0  0  0  0  0  0  0  0  0  0
   -1.8965    3.8033    0.6609 H   0  0  0  0  0  0  0  0  0  0  0  0
   -3.0062    3.9023    2.0409 H   0  0  0  0  0  0  0  0  0  0  0  0
   -0.6071    1.3358   -0.0200 N   0  0  0  0  0  0  0  0  0  0  0  0
    0.5702    0.8350   -0.6836 C   0  0  2  0  0  0  0  0  0  0  0  0
    1.5130    2.0165   -0.8821 C   0  0  0  0  0  0  0  0  0  0  0  0
    2.1990    2.4846    0.0240 O   0  0  0  0  0  0  0  0  0  0  0  0
    0.2417    0.1831   -2.0317 C   0  0  0  0  0  0  0  0  0  0  0  0
   -0.6231   -1.0457   -1.8904 C   0  0  0  0  0  0  0  0  0  0  0  0
   -0.1392   -2.2426   -1.4425 N   0  0  0  0  0  0  0  0  0  0  0  0
   -1.9559   -1.2753   -2.1381 C   0  0  0  0  0  0  0  0  0  0  0  0
   -1.1796   -3.1297   -1.4386 C   0  0  0  0  0  0  0  0  0  0  0  0
   -2.2961   -2.5744   -1.8546 N   0  0  0  0  0  0  0  0  0  0  0  0
   -1.3903    1.6325   -0.5973 H   0  0  0  0  0  0  0  0  0  0  0  0
    1.0341    0.1170    0.0028 H   0  0  0  0  0  0  0  0  0  0  0  0
    1.1668   -0.0756   -2.5646 H   0  0  0  0  0  0  0  0  0  0  0  0
   -0.2777    0.8957   -2.6860 H   0  0  0  0  0  0  0  0  0  0  0  0
    0.8135   -2.4397   -1.1653 H   0  0  0  0  0  0  0  0  0  0  0  0
   -2.6900   -0.5728   -2.5061 H   0  0  0  0  0  0  0  0  0  0  0  0
   -1.0575   -4.1563   -1.1239 H   0  0  0  0  0  0  0  0  0  0  0  0
    1.5321    2.4503   -2.2004 N   0  0  0  0  0  0  0  0  0  0  0  0
    2.3586    3.5411   -2.6650 C   0  0  2  0  0  0  0  0  0  0  0  0
    2.1429    4.7252   -1.7318 C   0  0  0  0  0  0  0  0  0  0  0  0
    1.1370    4.8576   -1.0377 O   0  0  0  0  0  0  0  0  0  0  0  0
    2.0268    3.9137   -4.1016 C   0  0  0  0  0  0  0  0  0  0  0  0
    0.9351    1.9773   -2.8725 H   0  0  0  0  0  0  0  0  0  0  0  0
    3.3981    3.2032   -2.5929 H   0  0  0  0  0  0  0  0  0  0  0  0
    0.9891    4.2548   -4.1935 H   0  0  0  0  0  0  0  0  0  0  0  0
    2.6731    4.7210   -4.4615 H   0  0  0  0  0  0  0  0  0  0  0  0
    2.1538    3.0529   -4.7668 H   0  0  0  0  0  0  0  0  0  0  0  0
    3.1860    5.6382   -1.7975 N   0  0  0  0  0  0  0  0  0  0  0  0
    3.2096    6.8526   -1.0159 C   0  0  0  0  0  0  0  0  0  0  0  0
    3.9890    5.4380   -2.3864 H   0  0  0  0  0  0  0  0  0  0  0  0
    2.7692    7.6739   -1.6002 H   0  0  0  0  0  0  0  0  0  0  0  0
    2.6283    6.7062   -0.0936 H   0  0  0  0  0  0  0  0  0  0  0  0
    4.2494    7.1025   -0.7583 H   0  0  0  0  0  0  0  0  0  0  0  0
 22 24  2  0  0  0  0
 24 26  1  0  0  0  0
 25 26  2  0  0  0  0
 23 25  1  0  0  0  0
 21 22  1  0  0  0  0
 22 23  1  0  0  0  0
  1  3  1  0  0  0  0
  1  7  1  0  0  0  0
  1  2  2  0  0  0  0
 35 36  1  0  0  0  0
 36 44  1  0  0  0  0
 36 37  2  0  0  0  0
  8  9  1  0  0  0  0
  9 17  1  0  0  0  0
  9 10  2  0  0  0  0
 18 19  1  0  0  0  0
 19 34  1  0  0  0  0
 19 20  2  0  0  0  0
 35 38  1  0  0  0  0
  8 11  1  0  0  0  0
 44 45  1  0  0  0  0
 18 21  1  0  0  0  0
 34 35  1  0  0  0  0
  7  8  1  0  0  0  0
 17 18  1  0  0  0  0
 24 32  1  0  0  0  0
 25 33  1  0  0  0  0
  3  4  1  0  0  0  0
  3  5  1  0  0  0  0
  3  6  1  0  0  0  0
 38 41  1  0  0  0  0
 38 42  1  0  0  0  0
 38 43  1  0  0  0  0
 11 14  1  0  0  0  0
 11 15  1  0  0  0  0
 11 16  1  0  0  0  0
 45 47  1  0  0  0  0
 45 48  1  0  0  0  0
 45 49  1  0  0  0  0
 21 29  1  0  0  0  0
 21 30  1  0  0  0  0
 35 40  1  0  0  0  0
  8 13  1  0  0  0  0
 18 28  1  0  0  0  0
 23 31  1  0  0  0  0
 44 46  1  0  0  0  0
  7 12  1  0  0  0  0
 34 39  1  0  0  0  0
 17 27  1  0  0  0  0
M  END
$$$$

  -OEChem-05262214473D

 49 49  0     1  0  0  0  0  0999 V2000
   -1.5619    0.5658    3.7981 C   0  0  0  0  0  0  0  0  0  0  0  0
   -0.6145   -0.0489    3.3224 O   0  0  0  0  0  0  0  0  0  0  0  0
   -1.9938    0.2834    5.1988 C   0  0  0  0  0  0  0  0  0  0  0  0
   -2.7535   -0.5129    5.2522 H   0  0  0  0  0  0  0  0  0  0  0  0
   -1.1626   -0.0642    5.8331 H   0  0  0  0  0  0  0  0  0  0  0  0
   -2.4318    1.1383    5.7384 H   0  0  0  0  0  0  0  0  0  0  0  0
   -2.3116    1.5383    3.1570 N   0  0  0  0  0  0  0  0  0  0  0  0
   -2.0648    1.9643    1.8046 C   0  0  2  0  0  0  0  0  0  0  0  0
   -0.7298    1.3789    1.3634 C   0  0  0  0  0  0  0  0  0  0  0  0
    0.1423    1.0262    2.1547 O   0  0  0  0  0  0  0  0  0  0  0  0
   -2.0560    3.4811    1.6952 C   0  0  0  0  0  0  0  0  0  0  0  0
   -3.0767    1.9741    3.6688 H   0  0  0  0  0  0  0  0  0  0  0  0
   -2.8689    1.5458    1.1895 H   0  0  0  0  0  0  0  0  0  0  0  0
   -1.2569    3.9183    2.3049 H   0  0  0  0  0  0  0  0  0  0  0  0
   -1.8965    3.8033    0.6609 H   0  0  0  0  0  0  0  0  0  0  0  0
   -3.0062    3.9023    2.0409 H   0  0  0  0  0  0  0  0  0  0  0  0
   -0.6071    1.3358   -0.0200 N   0  0  0  0  0  0  0  0  0  0  0  0
    0.5702    0.8350   -0.6836 C   0  0  2  0  0  0  0  0  0  0  0  0
    1.5130    2.0165   -0.8821 C   0  0  0  0  0  0  0  0  0  0  0  0
    2.3873    2.3182   -0.0725 O   0  0  0  0  0  0  0  0  0  0  0  0
    0.2417    0.1831   -2.0317 C   0  0  0  0  0  0  0  0  0  0  0  0
   -0.6231   -1.0457   -1.8904 C   0  0  0  0  0  0  0  0  0  0  0  0
   -0.1392   -2.2426   -1.4425 N   0  0  0  0  0  0  0  0  0  0  0  0
   -1.9559   -1.2753   -2.1381 C   0  0  0  0  0  0  0  0  0  0  0  0
   -1.1796   -3.1297   -1.4386 C   0  0  0  0  0  0  0  0  0  0  0  0
   -2.2961   -2.5744   -1.8546 N   0  0  0  0  0  0  0  0  0  0  0  0
   -1.3903    1.6325   -0.5973 H   0  0  0  0  0  0  0  0  0  0  0  0
    1.0341    0.1170    0.0028 H   0  0  0  0  0  0  0  0  0  0  0  0
    1.1668   -0.0756   -2.5646 H   0  0  0  0  0  0  0  0  0  0  0  0
   -0.2777    0.8957   -2.6860 H   0  0  0  0  0  0  0  0  0  0  0  0
    0.8135   -2.4397   -1.1653 H   0  0  0  0  0  0  0  0  0  0  0  0
   -2.6900   -0.5728   -2.5061 H   0  0  0  0  0  0  0  0  0  0  0  0
   -1.0575   -4.1563   -1.1239 H   0  0  0  0  0  0  0  0  0  0  0  0
    1.2926    2.6596   -2.0922 N   0  0  0  0  0  0  0  0  0  0  0  0
    2.0643    3.7972   -2.5384 C   0  0  2  0  0  0  0  0  0  0  0  0
    2.0970    4.8163   -1.4071 C   0  0  0  0  0  0  0  0  0  0  0  0
    1.2563    4.8509   -0.5110 O   0  0  0  0  0  0  0  0  0  0  0  0
    1.4739    4.4054   -3.8010 C   0  0  0  0  0  0  0  0  0  0  0  0
    0.5515    2.3133   -2.6944 H   0  0  0  0  0  0  0  0  0  0  0  0
    3.0793    3.4340   -2.7330 H   0  0  0  0  0  0  0  0  0  0  0  0
    0.4570    4.7749   -3.6255 H   0  0  0  0  0  0  0  0  0  0  0  0
    2.0759    5.2493   -4.1539 H   0  0  0  0  0  0  0  0  0  0  0  0
    1.4236    3.6628   -4.6047 H   0  0  0  0  0  0  0  0  0  0  0  0
    3.1509    5.7096   -1.5397 N   0  0  0  0  0  0  0  0  0  0  0  0
    3.3893    6.7792   -0.5990 C   0  0  0  0  0  0  0  0  0  0  0  0
    3.8105    5.5944   -2.3035 H   0  0  0  0  0  0  0  0  0  0  0  0
    2.8836    7.6925   -0.9455 H   0  0  0  0  0  0  0  0  0  0  0  0
    2.9954    6.4941    0.3877 H   0  0  0  0  0  0  0  0  0  0  0  0
    4.4707    6.9655   -0.5222 H   0  0  0  0  0  0  0  0  0  0  0  0
 22 24  2  0  0  0  0
 24 26  1  0  0  0  0
 25 26  2  0  0  0  0
 23 25  1  0  0  0  0
 21 22  1  0  0  0  0
 22 23  1  0  0  0  0
  1  3  1  0  0  0  0
  1  7  1  0  0  0  0
  1  2  2  0  0  0  0
 35 36  1  0  0  0  0
 36 44  1  0  0  0  0
 36 37  2  0  0  0  0
  8  9  1  0  0  0  0
  9 17  1  0  0  0  0
  9 10  2  0  0  0  0
 18 19  1  0  0  0  0
 19 34  1  0  0  0  0
 19 20  2  0  0  0  0
 35 38  1  0  0  0  0
  8 11  1  0  0  0  0
 44 45  1  0  0  0  0
 18 21  1  0  0  0  0
 34 35  1  0  0  0  0
  7  8  1  0  0  0  0
 17 18  1  0  0  0  0
 24 32  1  0  0  0  0
 25 33  1  0  0  0  0
  3  4  1  0  0  0  0
  3  5  1  0  0  0  0
  3  6  1  0  0  0  0
 38 41  1  0  0  0  0
 38 42  1  0  0  0  0
 38 43  1  0  0  0  0
 11 14  1  0  0  0  0
 11 15  1  0  0  0  0
 11 16  1  0  0  0  0
 45 47  1  0  0  0  0
 45 48  1  0  0  0  0
 45 49  1  0  0  0  0
 21 29  1  0  0  0  0
 21 30  1  0  0  0  0
 35 40  1  0  0  0  0
  8 13  1  0  0  0  0
 18 28  1  0  0  0  0
 23 31  1  0  0  0  0
 44 46  1  0  0  0  0
  7 12  1  0  0  0  0
 34 39  1  0  0  0  0
 17 27  1  0  0  0  0
M  END
$$$$

  -OEChem-05262214473D

 49 49  0     1  0  0  0  0  0999 V2000
   -1.5619    0.5658    3.7981 C   0  0  0  0  0  0  0  0  0  0  0  0
   -0.6145   -0.0489    3.3224 O   0  0  0  0  0  0  0  0  0  0  0  0
   -1.9938    0.2834    5.1988 C   0  0  0  0  0  0  0  0  0  0  0  0
   -2.7535   -0.5129    5.2522 H   0  0  0  0  0  0  0  0  0  0  0  0
   -1.1626   -0.0642    5.8331 H   0  0  0  0  0  0  0  0  0  0  0  0
   -2.4318    1.1383    5.7384 H   0  0  0  0  0  0  0  0  0  0  0  0
   -2.3116    1.5383    3.1570 N   0  0  0  0  0  0  0  0  0  0  0  0
   -2.0648    1.9643    1.8046 C   0  0  2  0  0  0  0  0  0  0  0  0
   -0.7298    1.3789    1.3634 C   0  0  0  0  0  0  0  0  0  0  0  0
    0.1423    1.0262    2.1547 O   0  0  0  0  0  0  0  0  0  0  0  0
   -2.0560    3.4811    1.6952 C   0  0  0  0  0  0  0  0  0  0  0  0
   -3.0767    1.9741    3.6688 H   0  0  0  0  0  0  0  0  0  0  0  0
   -2.8689    1.5458    1.1895 H   0  0  0  0  0  0  0  0  0  0  0  0
   -1.2569    3.9183    2.3049 H   0  0  0  0  0  0  0  0  0  0  0  0
   -1.8965    3.8033    0.6609 H   0  0  0  0  0  0  0  0  0  0  0  0
   -3.0062    3.9023    2.0409 H   0  0  0  0  0  0  0  0  0  0  0  0
   -0.6071    1.3358   -0.0200 N   0  0  0  0  0  0  0  0  0  0  0  0
    0.5702    0.8350   -0.6836 C   0  0  2  0  0  0  0  0  0  0  0  0
    1.5130    2.0165   -0.8821 C   0  0  0  0  0  0  0  0  0  0  0  0
    2.5442    2.1665   -0.2301 O   0  0  0  0  0  0  0  0  0  0  0  0
    0.2417    0.1831   -2.0317 C   0  0  0  0  0  0  0  0  0  0  0  0
   -0.6231   -1.0457   -1.8904 C   0  0  0  0  0  0  0  0  0  0  0  0
   -0.1392   -2.2426   -1.4425 N   0  0  0  0  0  0  0  0  0  0  0  0
   -1.9559   -1.2753   -2.1381 C   0  0  0  0  0  0  0  0  0  0  0  0
   -1.1796   -3.1297   -1.4386 C   0  0  0  0  0  0  0  0  0  0  0  0
   -2.2961   -2.5744   -1.8546 N   0  0  0  0  0  0  0  0  0  0  0  0
   -1.3903    1.6325   -0.5973 H   0  0  0  0  0  0  0  0  0  0  0  0
    1.0341    0.1170    0.0028 H   0  0  0  0  0  0  0  0  0  0  0  0
    1.1668   -0.0756   -2.5646 H   0  0  0  0  0  0  0  0  0  0  0  0
   -0.2777    0.8957   -2.6860 H   0  0  0  0  0  0  0  0  0  0  0  0
    0.8135   -2.4397   -1.1653 H   0  0  0  0  0  0  0  0  0  0  0  0
   -2.6900   -0.5728   -2.5061 H   0  0  0  0  0  0  0  0  0  0  0  0
   -1.0575   -4.1563   -1.1239 H   0  0  0  0  0  0  0  0  0  0  0  0
    1.0900    2.8525   -1.9061 N   0  0  0  0  0  0  0  0  0  0  0  0
    1.8141    4.0342   -2.3161 C   0  0  2  0  0  0  0  0  0  0  0  0
    2.1209    4.8539   -1.0698 C   0  0  0  0  0  0  0  0  0  0  0  0
    1.4769    4.7561   -0.0273 O   0  0  0  0  0  0  0  0  0  0  0  0
    1.0167    4.8508   -3.3212 C   0  0  0  0  0  0  0  0  0  0  0  0
    0.2281    2.6223   -2.3918 H   0  0  0  0  0  0  0  0  0  0  0  0
    2.7511    3.6901   -2.7675 H   0  0  0  0  0  0  0  0  0  0  0  0
    0.0744    5.2042   -2.8869 H   0  0  0  0  0  0  0  0  0  0  0  0
    1.5784    5.7305   -3.6524 H   0  0  0  0  0  0  0  0  0  0  0  0
    0.7714    4.2506   -4.2040 H   0  0  0  0  0  0  0  0  0  0  0  0
    3.1710    5.7384   -1.2723 N   0  0  0  0  0  0  0  0  0  0  0  0
    3.6441    6.6355   -0.2440 C   0  0  0  0  0  0  0  0  0  0  0  0
    3.6599    5.7382   -2.1627 H   0  0  0  0  0  0  0  0  0  0  0  0
    3.1262    7.6019   -0.3331 H   0  0  0  0  0  0  0  0  0  0  0  0
    3.4394    6.1998    0.7451 H   0  0  0  0  0  0  0  0  0  0  0  0
    4.7272    6.7880   -0.3605 H   0  0  0  0  0  0  0  0  0  0  0  0
 22 24  2  0  0  0  0
 24 26  1  0  0  0  0
 25 26  2  0  0  0  0
 23 25  1  0  0  0  0
 21 22  1  0  0  0  0
 22 23  1  0  0  0  0
  1  3  1  0  0  0  0
  1  7  1  0  0  0  0
  1  2  2  0  0  0  0
 35 36  1  0  0  0  0
 36 44  1  0  0  0  0
 36 37  2  0  0  0  0
  8  9  1  0  0  0  0
  9 17  1  0  0  0  0
  9 10  2  0  0  0  0
 18 19  1  0  0  0  0
 19 34  1  0  0  0  0
 19 20  2  0  0  0  0
 35 38  1  0  0  0  0
  8 11  1  0  0  0  0
 44 45  1  0  0  0  0
 18 21  1  0  0  0  0
 34 35  1  0  0  0  0
  7  8  1  0  0  0  0
 17 18  1  0  0  0  0
 24 32  1  0  0  0  0
 25 33  1  0  0  0  0
  3  4  1  0  0  0  0
  3  5  1  0  0  0  0
  3  6  1  0  0  0  0
 38 41  1  0  0  0  0
 38 42  1  0  0  0  0
 38 43  1  0  0  0  0
 11 14  1  0  0  0  0
 11 15  1  0  0  0  0
 11 16  1  0  0  0  0
 45 47  1  0  0  0  0
 45 48  1  0  0  0  0
 45 49  1  0  0  0  0
 21 29  1  0  0  0  0
 21 30  1  0  0  0  0
 35 40  1  0  0  0  0
  8 13  1  0  0  0  0
 18 28  1  0  0  0  0
 23 31  1  0  0  0  0
 44 46  1  0  0  0  0
  7 12  1  0  0  0  0
 34 39  1  0  0  0  0
 17 27  1  0  0  0  0
M  END
$$$$

  -OEChem-05262214473D

 49 49  0     1  0  0  0  0  0999 V2000
   -1.5619    0.5658    3.7981 C   0  0  0  0  0  0  0  0  0  0  0  0
   -0.6145   -0.0489    3.3224 O   0  0  0  0  0  0  0  0  0  0  0  0
   -1.9938    0.2834    5.1988 C   0  0  0  0  0  0  0  0  0  0  0  0
   -2.7535   -0.5129    5.2522 H   0  0  0  0  0  0  0  0  0  0  0  0
   -1.1626   -0.0642    5.8331 H   0  0  0  0  0  0  0  0  0  0  0  0
   -2.4318    1.1383    5.7384 H   0  0  0  0  0  0  0  0  0  0  0  0
   -2.3116    1.5383    3.1570 N   0  0  0  0  0  0  0  0  0  0  0  0
   -2.0648    1.9643    1.8046 C   0  0  2  0  0  0  0  0  0  0  0  0
   -0.7298    1.3789    1.3634 C   0  0  0  0  0  0  0  0  0  0  0  0
    0.1423    1.0262    2.1547 O   0  0  0  0  0  0  0  0  0  0  0  0
   -2.0560    3.4811    1.6952 C   0  0  0  0  0  0  0  0  0  0  0  0
   -3.0767    1.9741    3.6688 H   0  0  0  0  0  0  0  0  0  0  0  0
   -2.8689    1.5458    1.1895 H   0  0  0  0  0  0  0  0  0  0  0  0
   -1.2569    3.9183    2.3049 H   0  0  0  0  0  0  0  0  0  0  0  0
   -1.8965    3.8033    0.6609 H   0  0  0  0  0  0  0  0  0  0  0  0
   -3.0062    3.9023    2.0409 H   0  0  0  0  0  0  0  0  0  0  0  0
   -0.6071    1.3358   -0.0200 N   0  0  0  0  0  0  0  0  0  0  0  0
    0.5702    0.8350   -0.6836 C   0  0  2  0  0  0  0  0  0  0  0  0
    1.5130    2.0165   -0.8821 C   0  0  0  0  0  0  0  0  0  0  0  0
    2.6589    2.0400   -0.4381 O   0  0  0  0  0  0  0  0  0  0  0  0
    0.2417    0.1831   -2.0317 C   0  0  0  0  0  0  0  0  0  0  0  0
   -0.6231   -1.0457   -1.8904 C   0  0  0  0  0  0  0  0  0  0  0  0
   -0.1392   -2.2426   -1.4425 N   0  0  0  0  0  0  0  0  0  0  0  0
   -1.9559   -1.2753   -2.1381 C   0  0  0  0  0  0  0  0  0  0  0  0
   -1.1796   -3.1297   -1.4386 C   0  0  0  0  0  0  0  0  0  0  0  0
   -2.2961   -2.5744   -1.8546 N   0  0  0  0  0  0  0  0  0  0  0  0
   -1.3903    1.6325   -0.5973 H   0  0  0  0  0  0  0  0  0  0  0  0
    1.0341    0.1170    0.0028 H   0  0  0  0  0  0  0  0  0  0  0  0
    1.1668   -0.0756   -2.5646 H   0  0  0  0  0  0  0  0  0  0  0  0
   -0.2777    0.8957   -2.6860 H   0  0  0  0  0  0  0  0  0  0  0  0
    0.8135   -2.4397   -1.1653 H   0  0  0  0  0  0  0  0  0  0  0  0
   -2.6900   -0.5728   -2.5061 H   0  0  0  0  0  0  0  0  0  0  0  0
   -1.0575   -4.1563   -1.1239 H   0  0  0  0  0  0  0  0  0  0  0  0
    0.9381    3.0159   -1.6548 N   0  0  0  0  0  0  0  0  0  0  0  0
    1.6250    4.2359   -2.0133 C   0  0  2  0  0  0  0  0  0  0  0  0
    2.2129    4.8354   -0.7427 C   0  0  0  0  0  0  0  0  0  0  0  0
    1.7838    4.5797    0.3805 O   0  0  0  0  0  0  0  0  0  0  0  0
    0.6864    5.2196   -2.6946 C   0  0  0  0  0  0  0  0  0  0  0  0
   -0.0133    2.8832   -1.9851 H   0  0  0  0  0  0  0  0  0  0  0  0
    2.4357    3.9541   -2.6940 H   0  0  0  0  0  0  0  0  0  0  0  0
   -0.1325    5.5136   -2.0280 H   0  0  0  0  0  0  0  0  0  0  0  0
    1.2148    6.1317   -2.9912 H   0  0  0  0  0  0  0  0  0  0  0  0
    0.2416    4.7762   -3.5920 H   0  0  0  0  0  0  0  0  0  0  0  0
    3.2451    5.7228   -1.0134 N   0  0  0  0  0  0  0  0  0  0  0  0
    3.9565    6.4313    0.0248 C   0  0  0  0  0  0  0  0  0  0  0  0
    3.5475    5.8597   -1.9734 H   0  0  0  0  0  0  0  0  0  0  0  0
    3.4802    7.4081    0.1953 H   0  0  0  0  0  0  0  0  0  0  0  0
    3.9301    5.8434    0.9541 H   0  0  0  0  0  0  0  0  0  0  0  0
    5.0014    6.5820   -0.2842 H   0  0  0  0  0  0  0  0  0  0  0  0
 22 24  2  0  0  0  0
 24 26  1  0  0  0  0
 25 26  2  0  0  0  0
 23 25  1  0  0  0  0
 21 22  1  0  0  0  0
 22 23  1  0  0  0  0
  1  3  1  0  0  0  0
  1  7  1  0  0  0  0
  1  2  2  0  0  0  0
 35 36  1  0  0  0  0
 36 44  1  0  0  0  0
 36 37  2  0  0  0  0
  8  9  1  0  0  0  0
  9 17  1  0  0  0  0
  9 10  2  0  0  0  0
 18 19  1  0  0  0  0
 19 34  1  0  0  0  0
 19 20  2  0  0  0  0
 35 38  1  0  0  0  0
  8 11  1  0  0  0  0
 44 45  1  0  0  0  0
 18 21  1  0  0  0  0
 34 35  1  0  0  0  0
  7  8  1  0  0  0  0
 17 18  1  0  0  0  0
 24 32  1  0  0  0  0
 25 33  1  0  0  0  0
  3  4  1  0  0  0  0
  3  5  1  0  0  0  0
  3  6  1  0  0  0  0
 38 41  1  0  0  0  0
 38 42  1  0  0  0  0
 38 43  1  0  0  0  0
 11 14  1  0  0  0  0
 11 15  1  0  0  0  0
 11 16  1  0  0  0  0
 45 47  1  0  0  0  0
 45 48  1  0  0  0  0
 45 49  1  0  0  0  0
 21 29  1  0  0  0  0
 21 30  1  0  0  0  0
 35 40  1  0  0  0  0
  8 13  1  0  0  0  0
 18 28  1  0  0  0  0
 23 31  1  0  0  0  0
 44 46  1  0  0  0  0
  7 12  1  0  0  0  0
 34 39  1  0  0  0  0
 17 27  1  0  0  0  0
M  END
$$$$

  -OEChem-05262214473D

 49 49  0     1  0  0  0  0  0999 V2000
   -1.5619    0.5658    3.7981 C   0  0  0  0  0  0  0  0  0  0  0  0
   -0.6145   -0.0489    3.3224 O   0  0  0  0  0  0  0  0  0  0  0  0
   -1.9938    0.2834    5.1988 C   0  0  0  0  0  0  0  0  0  0  0  0
   -2.7535   -0.5129    5.2522 H   0  0  0  0  0  0  0  0  0  0  0  0
   -1.1626   -0.0642    5.8331 H   0  0  0  0  0  0  0  0  0  0  0  0
   -2.4318    1.1383    5.7384 H   0  0  0  0  0  0  0  0  0  0  0  0
   -2.3116    1.5383    3.1570 N   0  0  0  0  0  0  0  0  0  0  0  0
   -2.0648    1.9643    1.8046 C   0  0  2  0  0  0  0  0  0  0  0  0
   -0.7298    1.3789    1.3634 C   0  0  0  0  0  0  0  0  0  0  0  0
    0.1423    1.0262    2.1547 O   0  0  0  0  0  0  0  0  0  0  0  0
   -2.0560    3.4811    1.6952 C   0  0  0  0  0  0  0  0  0  0  0  0
   -3.0767    1.9741    3.6688 H   0  0  0  0  0  0  0  0  0  0  0  0
   -2.8689    1.5458    1.1895 H   0  0  0  0  0  0  0  0  0  0  0  0
   -1.2569    3.9183    2.3049 H   0  0  0  0  0  0  0  0  0  0  0  0
   -1.8965    3.8033    0.6609 H   0  0  0  0  0  0  0  0  0  0  0  0
   -3.0062    3.9023    2.0409 H   0  0  0  0  0  0  0  0  0  0  0  0
   -0.6071    1.3358   -0.0200 N   0  0  0  0  0  0  0  0  0  0  0  0
    0.5702    0.8350   -0.6836 C   0  0  2  0  0  0  0  0  0  0  0  0
    1.5130    2.0165   -0.8821 C   0  0  0  0  0  0  0  0  0  0  0  0
    2.7238    1.9472   -0.6823 O   0  0  0  0  0  0  0  0  0  0  0  0
    0.2417    0.1831   -2.0317 C   0  0  0  0  0  0  0  0  0  0  0  0
   -0.6231   -1.0457   -1.8904 C   0  0  0  0  0  0  0  0  0  0  0  0
   -0.1392   -2.2426   -1.4425 N   0  0  0  0  0  0  0  0  0  0  0  0
   -1.9559   -1.2753   -2.1381 C   0  0  0  0  0  0  0  0  0  0  0  0
   -1.1796   -3.1297   -1.4386 C   0  0  0  0  0  0  0  0  0  0  0  0
   -2.2961   -2.5744   -1.8546 N   0  0  0  0  0  0  0  0  0  0  0  0
   -1.3903    1.6325   -0.5973 H   0  0  0  0  0  0  0  0  0  0  0  0
    1.0341    0.1170    0.0028 H   0  0  0  0  0  0  0  0  0  0  0  0
    1.1668   -0.0756   -2.5646 H   0  0  0  0  0  0  0  0  0  0  0  0
   -0.2777    0.8957   -2.6860 H   0  0  0  0  0  0  0  0  0  0  0  0
    0.8135   -2.4397   -1.1653 H   0  0  0  0  0  0  0  0  0  0  0  0
   -2.6900   -0.5728   -2.5061 H   0  0  0  0  0  0  0  0  0  0  0  0
   -1.0575   -4.1563   -1.1239 H   0  0  0  0  0  0  0  0  0  0  0  0
    0.8473    3.1386   -1.3555 N   0  0  0  0  0  0  0  0  0  0  0  0
    1.5098    4.3887   -1.6506 C   0  0  2  0  0  0  0  0  0  0  0  0
    2.3667    4.7621   -0.4482 C   0  0  0  0  0  0  0  0  0  0  0  0
    2.1561    4.3337    0.6846 O   0  0  0  0  0  0  0  0  0  0  0  0
    0.5054    5.4867   -1.9642 C   0  0  0  0  0  0  0  0  0  0  0  0
   -0.1560    3.0782   -1.5020 H   0  0  0  0  0  0  0  0  0  0  0  0
    2.1548    4.2080   -2.5174 H   0  0  0  0  0  0  0  0  0  0  0  0
   -0.1496    5.6819   -1.1073 H   0  0  0  0  0  0  0  0  0  0  0  0
    1.0096    6.4257   -2.2154 H   0  0  0  0  0  0  0  0  0  0  0  0
   -0.1298    5.2038   -2.8105 H   0  0  0  0  0  0  0  0  0  0  0  0
    3.3681    5.6637   -0.7807 N   0  0  0  0  0  0  0  0  0  0  0  0
    4.3053    6.1805    0.1890 C   0  0  0  0  0  0  0  0  0  0  0  0
    3.4810    5.9505   -1.7486 H   0  0  0  0  0  0  0  0  0  0  0  0
    3.9217    7.1244    0.6037 H   0  0  0  0  0  0  0  0  0  0  0  0
    4.4339    5.4491    1.0005 H   0  0  0  0  0  0  0  0  0  0  0  0
    5.2747    6.3616   -0.2984 H   0  0  0  0  0  0  0  0  0  0  0  0
 22 24  2  0  0  0  0
 24 26  1  0  0  0  0
 25 26  2  0  0  0  0
 23 25  1  0  0  0  0
 21 22  1  0  0  0  0
 22 23  1  0  0  0  0
  1  3  1  0  0  0  0
  1  7  1  0  0  0  0
  1  2  2  0  0  0  0
 35 36  1  0  0  0  0
 36 44  1  0  0  0  0
 36 37  2  0  0  0  0
  8  9  1  0  0  0  0
  9 17  1  0  0  0  0
  9 10  2  0  0  0  0
 18 19  1  0  0  0  0
 19 34  1  0  0  0  0
 19 20  2  0  0  0  0
 35 38  1  0  0  0  0
  8 11  1  0  0  0  0
 44 45  1  0  0  0  0
 18 21  1  0  0  0  0
 34 35  1  0  0  0  0
  7  8  1  0  0  0  0
 17 18  1  0  0  0  0
 24 32  1  0  0  0  0
 25 33  1  0  0  0  0
  3  4  1  0  0  0  0
  3  5  1  0  0  0  0
  3  6  1  0  0  0  0
 38 41  1  0  0  0  0
 38 42  1  0  0  0  0
 38 43  1  0  0  0  0
 11 14  1  0  0  0  0
 11 15  1  0  0  0  0
 11 16  1  0  0  0  0
 45 47  1  0  0  0  0
 45 48  1  0  0  0  0
 45 49  1  0  0  0  0
 21 29  1  0  0  0  0
 21 30  1  0  0  0  0
 35 40  1  0  0  0  0
  8 13  1  0  0  0  0
 18 28  1  0  0  0  0
 23 31  1  0  0  0  0
 44 46  1  0  0  0  0
  7 12  1  0  0  0  0
 34 39  1  0  0  0  0
 17 27  1  0  0  0  0
M  END
$$$$

  -OEChem-05262214473D

 49 49  0     1  0  0  0  0  0999 V2000
   -1.5619    0.5658    3.7981 C   0  0  0  0  0  0  0  0  0  0  0  0
   -0.6145   -0.0489    3.3224 O   0  0  0  0  0  0  0  0  0  0  0  0
   -1.9938    0.2834    5.1988 C   0  0  0  0  0  0  0  0  0  0  0  0
   -2.7535   -0.5129    5.2522 H   0  0  0  0  0  0  0  0  0  0  0  0
   -1.1626   -0.0642    5.8331 H   0  0  0  0  0  0  0  0  0  0  0  0
   -2.4318    1.1383    5.7384 H   0  0  0  0  0  0  0  0  0  0  0  0
   -2.3116    1.5383    3.1570 N   0  0  0  0  0  0  0  0  0  0  0  0
   -2.0648    1.9643    1.8046 C   0  0  2  0  0  0  0  0  0  0  0  0
   -0.7298    1.3789    1.3634 C   0  0  0  0  0  0  0  0  0  0  0  0
    0.1423    1.0262    2.1547 O   0  0  0  0  0  0  0  0  0  0  0  0
   -2.0560    3.4811    1.6952 C   0  0  0  0  0  0  0  0  0  0  0  0
   -3.0767    1.9741    3.6688 H   0  0  0  0  0  0  0  0  0  0  0  0
   -2.8689    1.5458    1.1895 H   0  0  0  0  0  0  0  0  0  0  0  0
   -1.2569    3.9183    2.3049 H   0  0  0  0  0  0  0  0  0  0  0  0
   -1.8965    3.8033    0.6609 H   0  0  0  0  0  0  0  0  0  0  0  0
   -3.0062    3.9023    2.0409 H   0  0  0  0  0  0  0  0  0  0  0  0
   -0.6071    1.3358   -0.0200 N   0  0  0  0  0  0  0  0  0  0  0  0
    0.5702    0.8350   -0.6836 C   0  0  2  0  0  0  0  0  0  0  0  0
    1.5130    2.0165   -0.8821 C   0  0  0  0  0  0  0  0  0  0  0  0
    2.7344    1.8945   -0.9461 O   0  0  0  0  0  0  0  0  0  0  0  0
    0.2417    0.1831   -2.0317 C   0  0  0  0  0  0  0  0  0  0  0  0
   -0.6231   -1.0457   -1.8904 C   0  0  0  0  0  0  0  0  0  0  0  0
   -0.1392   -2.2426   -1.4425 N   0  0  0  0  0  0  0  0  0  0  0  0
   -1.9559   -1.2753   -2.1381 C   0  0  0  0  0  0  0  0  0  0  0  0
   -1.1796   -3.1297   -1.4386 C   0  0  0  0  0  0  0  0  0  0  0  0
   -2.2961   -2.5744   -1.8546 N   0  0  0  0  0  0  0  0  0  0  0  0
   -1.3903    1.6325   -0.5973 H   0  0  0  0  0  0  0  0  0  0  0  0
    1.0341    0.1170    0.0028 H   0  0  0  0  0  0  0  0  0  0  0  0
    1.1668   -0.0756   -2.5646 H   0  0  0  0  0  0  0  0  0  0  0  0
   -0.2777    0.8957   -2.6860 H   0  0  0  0  0  0  0  0  0  0  0  0
    0.8135   -2.4397   -1.1653 H   0  0  0  0  0  0  0  0  0  0  0  0
   -2.6900   -0.5728   -2.5061 H   0  0  0  0  0  0  0  0  0  0  0  0
   -1.0575   -4.1563   -1.1239 H   0  0  0  0  0  0  0  0  0  0  0  0
    0.8238    3.2123   -1.0286 N   0  0  0  0  0  0  0  0  0  0  0  0
    1.4765    4.4822   -1.2526 C   0  0  2  0  0  0  0  0  0  0  0  0
    2.5720    4.6390   -0.2063 C   0  0  0  0  0  0  0  0  0  0  0  0
    2.5684    4.0349    0.8643 O   0  0  0  0  0  0  0  0  0  0  0  0
    0.4861    5.6339   -1.1796 C   0  0  0  0  0  0  0  0  0  0  0  0
   -0.1904    3.1941   -0.9756 H   0  0  0  0  0  0  0  0  0  0  0  0
    1.9274    4.4344   -2.2499 H   0  0  0  0  0  0  0  0  0  0  0  0
    0.0241    5.6977   -0.1876 H   0  0  0  0  0  0  0  0  0  0  0  0
    0.9770    6.5925   -1.3778 H   0  0  0  0  0  0  0  0  0  0  0  0
   -0.3173    5.5042   -1.9127 H   0  0  0  0  0  0  0  0  0  0  0  0
    3.5315    5.5653   -0.5900 N   0  0  0  0  0  0  0  0  0  0  0  0
    4.6668    5.9003    0.2376 C   0  0  0  0  0  0  0  0  0  0  0  0
    3.4650    6.0044   -1.5035 H   0  0  0  0  0  0  0  0  0  0  0  0
    4.4204    6.7701    0.8642 H   0  0  0  0  0  0  0  0  0  0  0  0
    4.9166    5.0439    0.8812 H   0  0  0  0  0  0  0  0  0  0  0  0
    5.5284    6.1417   -0.4023 H   0  0  0  0  0  0  0  0  0  0  0  0
 22 24  2  0  0  0  0
 24 26  1  0  0  0  0
 25 26  2  0  0  0  0
 23 25  1  0  0  0  0
 21 22  1  0  0  0  0
 22 23  1  0  0  0  0
  1  3  1  0  0  0  0
  1  7  1  0  0  0  0
  1  2  2  0  0  0  0
 35 36  1  0  0  0  0
 36 44  1  0  0  0  0
 36 37  2  0  0  0  0
  8  9  1  0  0  0  0
  9 17  1  0  0  0  0
  9 10  2  0  0  0  0
 18 19  1  0  0  0  0
 19 34  1  0  0  0  0
 19 20  2  0  0  0  0
 35 38  1  0  0  0  0
  8 11  1  0  0  0  0
 44 45  1  0  0  0  0
 18 21  1  0  0  0  0
 34 35  1  0  0  0  0
  7  8  1  0  0  0  0
 17 18  1  0  0  0  0
 24 32  1  0  0  0  0
 25 33  1  0  0  0  0
  3  4  1  0  0  0  0
  3  5  1  0  0  0  0
  3  6  1  0  0  0  0
 38 41  1  0  0  0  0
 38 42  1  0  0  0  0
 38 43  1  0  0  0  0
 11 14  1  0  0  0  0
 11 15  1  0  0  0  0
 11 16  1  0  0  0  0
 45 47  1  0  0  0  0
 45 48  1  0  0  0  0
 45 49  1  0  0  0  0
 21 29  1  0  0  0  0
 21 30  1  0  0  0  0
 35 40  1  0  0  0  0
  8 13  1  0  0  0  0
 18 28  1  0  0  0  0
 23 31  1  0  0  0  0
 44 46  1  0  0  0  0
  7 12  1  0  0  0  0
 34 39  1  0  0  0  0
 17 27  1  0  0  0  0
M  END
$$$$

  -OEChem-05262214473D

 49 49  0     1  0  0  0  0  0999 V2000
   -1.5619    0.5658    3.7981 C   0  0  0  0  0  0  0  0  0  0  0  0
   -0.6145   -0.0489    3.3224 O   0  0  0  0  0  0  0  0  0  0  0  0
   -1.9938    0.2834    5.1988 C   0  0  0  0  0  0  0  0  0  0  0  0
   -2.7535   -0.5129    5.2522 H   0  0  0  0  0  0  0  0  0  0  0  0
   -1.1626   -0.0642    5.8331 H   0  0  0  0  0  0  0  0  0  0  0  0
   -2.4318    1.1383    5.7384 H   0  0  0  0  0  0  0  0  0  0  0  0
   -2.3116    1.5383    3.1570 N   0  0  0  0  0  0  0  0  0  0  0  0
   -2.0648    1.9643    1.8046 C   0  0  2  0  0  0  0  0  0  0  0  0
   -0.7298    1.3789    1.3634 C   0  0  0  0  0  0  0  0  0  0  0  0
    0.1423    1.0262    2.1547 O   0  0  0  0  0  0  0  0  0  0  0  0
   -2.0560    3.4811    1.6952 C   0  0  0  0  0  0  0  0  0  0  0  0
   -3.0767    1.9741    3.6688 H   0  0  0  0  0  0  0  0  0  0  0  0
   -2.8689    1.5458    1.1895 H   0  0  0  0  0  0  0  0  0  0  0  0
   -1.2569    3.9183    2.3049 H   0  0  0  0  0  0  0  0  0  0  0  0
   -1.8965    3.8033    0.6609 H   0  0  0  0  0  0  0  0  0  0  0  0
   -3.0062    3.9023    2.0409 H   0  0  0  0  0  0  0  0  0  0  0  0
   -0.6071    1.3358   -0.0200 N   0  0  0  0  0  0  0  0  0  0  0  0
    0.5702    0.8350   -0.6836 C   0  0  2  0  0  0  0  0  0  0  0  0
    1.5130    2.0165   -0.8821 C   0  0  0  0  0  0  0  0  0  0  0  0
    2.6900    1.8854   -1.2114 O   0  0  0  0  0  0  0  0  0  0  0  0
    0.2417    0.1831   -2.0317 C   0  0  0  0  0  0  0  0  0  0  0  0
   -0.6231   -1.0457   -1.8904 C   0  0  0  0  0  0  0  0  0  0  0  0
   -0.1392   -2.2426   -1.4425 N   0  0  0  0  0  0  0  0  0  0  0  0
   -1.9559   -1.2753   -2.1381 C   0  0  0  0  0  0  0  0  0  0  0  0
   -1.1796   -3.1297   -1.4386 C   0  0  0  0  0  0  0  0  0  0  0  0
   -2.2961   -2.5744   -1.8546 N   0  0  0  0  0  0  0  0  0  0  0  0
   -1.3903    1.6325   -0.5973 H   0  0  0  0  0  0  0  0  0  0  0  0
    1.0341    0.1170    0.0028 H   0  0  0  0  0  0  0  0  0  0  0  0
    1.1668   -0.0756   -2.5646 H   0  0  0  0  0  0  0  0  0  0  0  0
   -0.2777    0.8957   -2.6860 H   0  0  0  0  0  0  0  0  0  0  0  0
    0.8135   -2.4397   -1.1653 H   0  0  0  0  0  0  0  0  0  0  0  0
   -2.6900   -0.5728   -2.5061 H   0  0  0  0  0  0  0  0  0  0  0  0
   -1.0575   -4.1563   -1.1239 H   0  0  0  0  0  0  0  0  0  0  0  0
    0.8691    3.2320   -0.6962 N   0  0  0  0  0  0  0  0  0  0  0  0
    1.5273    4.5098   -0.8466 C   0  0  2  0  0  0  0  0  0  0  0  0
    2.8146    4.4744   -0.0335 C   0  0  0  0  0  0  0  0  0  0  0  0
    2.9926    3.7035    0.9073 O   0  0  0  0  0  0  0  0  0  0  0  0
    0.6299    5.6511   -0.3942 C   0  0  0  0  0  0  0  0  0  0  0  0
   -0.1142    3.2229   -0.4417 H   0  0  0  0  0  0  0  0  0  0  0  0
    1.7690    4.6179   -1.9096 H   0  0  0  0  0  0  0  0  0  0  0  0
    0.3770    5.5599    0.6684 H   0  0  0  0  0  0  0  0  0  0  0  0
    1.1191    6.6205   -0.5355 H   0  0  0  0  0  0  0  0  0  0  0  0
   -0.3082    5.6570   -0.9598 H   0  0  0  0  0  0  0  0  0  0  0  0
    3.7243    5.4342   -0.4544 N   0  0  0  0  0  0  0  0  0  0  0  0
    5.0162    5.6096    0.1671 C   0  0  0  0  0  0  0  0  0  0  0  0
    3.5004    6.0179   -1.2550 H   0  0  0  0  0  0  0  0  0  0  0  0
    4.9425    6.3695    0.9591 H   0  0  0  0  0  0  0  0  0  0  0  0
    5.3452    4.6553    0.6043 H   0  0  0  0  0  0  0  0  0  0  0  0
    5.7451    5.9374   -0.5886 H   0  0  0  0  0  0  0  0  0  0  0  0
 22 24  2  0  0  0  0
 24 26  1  0  0  0  0
 25 26  2  0  0  0  0
 23 25  1  0  0  0  0
 21 22  1  0  0  0  0
 22 23  1  0  0  0  0
  1  3  1  0  0  0  0
  1  7  1  0  0  0  0
  1  2  2  0  0  0  0
 35 36  1  0  0  0  0
 36 44  1  0  0  0  0
 36 37  2  0  0  0  0
  8  9  1  0  0  0  0
  9 17  1  0  0  0  0
  9 10  2  0  0  0  0
 18 19  1  0  0  0  0
 19 34  1  0  0  0  0
 19 20  2  0  0  0  0
 35 38  1  0  0  0  0
  8 11  1  0  0  0  0
 44 45  1  0  0  0  0
 18 21  1  0  0  0  0
 34 35  1  0  0  0  0
  7  8  1  0  0  0  0
 17 18  1  0  0  0  0
 24 32  1  0  0  0  0
 25 33  1  0  0  0  0
  3  4  1  0  0  0  0
  3  5  1  0  0  0  0
  3  6  1  0  0  0  0
 38 41  1  0  0  0  0
 38 42  1  0  0  0  0
 38 43  1  0  0  0  0
 11 14  1  0  0  0  0
 11 15  1  0  0  0  0
 11 16  1  0  0  0  0
 45 47  1  0  0  0  0
 45 48  1  0  0  0  0
 45 49  1  0  0  0  0
 21 29  1  0  0  0  0
 21 30  1  0  0  0  0
 35 40  1  0  0  0  0
  8 13  1  0  0  0  0
 18 28  1  0  0  0  0
 23 31  1  0  0  0  0
 44 46  1  0  0  0  0
  7 12  1  0  0  0  0
 34 39  1  0  0  0  0
 17 27  1  0  0  0  0
M  END
$$$$

  -OEChem-05262214473D

 49 49  0     1  0  0  0  0  0999 V2000
   -1.5619    0.5658    3.7981 C   0  0  0  0  0  0  0  0  0  0  0  0
   -0.6145   -0.0489    3.3224 O   0  0  0  0  0  0  0  0  0  0  0  0
   -1.9938    0.2834    5.1988 C   0  0  0  0  0  0  0  0  0  0  0  0
   -2.7535   -0.5129    5.2522 H   0  0  0  0  0  0  0  0  0  0  0  0
   -1.1626   -0.0642    5.8331 H   0  0  0  0  0  0  0  0  0  0  0  0
   -2.4318    1.1383    5.7384 H   0  0  0  0  0  0  0  0  0  0  0  0
   -2.3116    1.5383    3.1570 N   0  0  0  0  0  0  0  0  0  0  0  0
   -2.0648    1.9643    1.8046 C   0  0  2  0  0  0  0  0  0  0  0  0
   -0.7298    1.3789    1.3634 C   0  0  0  0  0  0  0  0  0  0  0  0
    0.1423    1.0262    2.1547 O   0  0  0  0  0  0  0  0  0  0  0  0
   -2.0560    3.4811    1.6952 C   0  0  0  0  0  0  0  0  0  0  0  0
   -3.0767    1.9741    3.6688 H   0  0  0  0  0  0  0  0  0  0  0  0
   -2.8689    1.5458    1.1895 H   0  0  0  0  0  0  0  0  0  0  0  0
   -1.2569    3.9183    2.3049 H   0  0  0  0  0  0  0  0  0  0  0  0
   -1.8965    3.8033    0.6609 H   0  0  0  0  0  0  0  0  0  0  0  0
   -3.0062    3.9023    2.0409 H   0  0  0  0  0  0  0  0  0  0  0  0
   -0.6071    1.3358   -0.0200 N   0  0  0  0  0  0  0  0  0  0  0  0
    0.5702    0.8350   -0.6836 C   0  0  2  0  0  0  0  0  0  0  0  0
    1.5130    2.0165   -0.8821 C   0  0  0  0  0  0  0  0  0  0  0  0
    2.5935    1.9206   -1.4602 O   0  0  0  0  0  0  0  0  0  0  0  0
    0.2417    0.1831   -2.0317 C   0  0  0  0  0  0  0  0  0  0  0  0
   -0.6231   -1.0457   -1.8904 C   0  0  0  0  0  0  0  0  0  0  0  0
   -0.1392   -2.2426   -1.4425 N   0  0  0  0  0  0  0  0  0  0  0  0
   -1.9559   -1.2753   -2.1381 C   0  0  0  0  0  0  0  0  0  0  0  0
   -1.1796   -3.1297   -1.4386 C   0  0  0  0  0  0  0  0  0  0  0  0
   -2.2961   -2.5744   -1.8546 N   0  0  0  0  0  0  0  0  0  0  0  0
   -1.3903    1.6325   -0.5973 H   0  0  0  0  0  0  0  0  0  0  0  0
    1.0341    0.1170    0.0028 H   0  0  0  0  0  0  0  0  0  0  0  0
    1.1668   -0.0756   -2.5646 H   0  0  0  0  0  0  0  0  0  0  0  0
   -0.2777    0.8957   -2.6860 H   0  0  0  0  0  0  0  0  0  0  0  0
    0.8135   -2.4397   -1.1653 H   0  0  0  0  0  0  0  0  0  0  0  0
   -2.6900   -0.5728   -2.5061 H   0  0  0  0  0  0  0  0  0  0  0  0
   -1.0575   -4.1563   -1.1239 H   0  0  0  0  0  0  0  0  0  0  0  0
    0.9802    3.1962   -0.3812 N   0  0  0  0  0  0  0  0  0  0  0  0
    1.6587    4.4699   -0.4602 C   0  0  2  0  0  0  0  0  0  0  0  0
    3.0780    4.2796    0.0584 C   0  0  0  0  0  0  0  0  0  0  0  0
    3.3999    3.3623    0.8108 O   0  0  0  0  0  0  0  0  0  0  0  0
    0.9268    5.5372    0.3383 C   0  0  0  0  0  0  0  0  0  0  0  0
    0.0675    3.1627    0.0633 H   0  0  0  0  0  0  0  0  0  0  0  0
    1.6905    4.7461   -1.5198 H   0  0  0  0  0  0  0  0  0  0  0  0
    0.8849    5.2779    1.4024 H   0  0  0  0  0  0  0  0  0  0  0  0
    1.4263    6.5080    0.2541 H   0  0  0  0  0  0  0  0  0  0  0  0
   -0.1031    5.6518   -0.0167 H   0  0  0  0  0  0  0  0  0  0  0  0
    3.9334    5.2794   -0.3831 N   0  0  0  0  0  0  0  0  0  0  0  0
    5.3298    5.3283   -0.0175 C   0  0  0  0  0  0  0  0  0  0  0  0
    3.5850    5.9899   -1.0199 H   0  0  0  0  0  0  0  0  0  0  0  0
    5.4523    5.9497    0.8819 H   0  0  0  0  0  0  0  0  0  0  0  0
    5.6906    4.3099    0.1886 H   0  0  0  0  0  0  0  0  0  0  0  0
    5.9103    5.7626   -0.8449 H   0  0  0  0  0  0  0  0  0  0  0  0
 22 24  2  0  0  0  0
 24 26  1  0  0  0  0
 25 26  2  0  0  0  0
 23 25  1  0  0  0  0
 21 22  1  0  0  0  0
 22 23  1  0  0  0  0
  1  3  1  0  0  0  0
  1  7  1  0  0  0  0
  1  2  2  0  0  0  0
 35 36  1  0  0  0  0
 36 44  1  0  0  0  0
 36 37  2  0  0  0  0
  8  9  1  0  0  0  0
  9 17  1  0  0  0  0
  9 10  2  0  0  0  0
 18 19  1  0  0  0  0
 19 34  1  0  0  0  0
 19 20  2  0  0  0  0
 35 38  1  0  0  0  0
  8 11  1  0  0  0  0
 44 45  1  0  0  0  0
 18 21  1  0  0  0  0
 34 35  1  0  0  0  0
  7  8  1  0  0  0  0
 17 18  1  0  0  0  0
 24 32  1  0  0  0  0
 25 33  1  0  0  0  0
  3  4  1  0  0  0  0
  3  5  1  0  0  0  0
  3  6  1  0  0  0  0
 38 41  1  0  0  0  0
 38 42  1  0  0  0  0
 38 43  1  0  0  0  0
 11 14  1  0  0  0  0
 11 15  1  0  0  0  0
 11 16  1  0  0  0  0
 45 47  1  0  0  0  0
 45 48  1  0  0  0  0
 45 49  1  0  0  0  0
 21 29  1  0  0  0  0
 21 30  1  0  0  0  0
 35 40  1  0  0  0  0
  8 13  1  0  0  0  0
 18 28  1  0  0  0  0
 23 31  1  0  0  0  0
 44 46  1  0  0  0  0
  7 12  1  0  0  0  0
 34 39  1  0  0  0  0
 17 27  1  0  0  0  0
M  END
$$$$

  -OEChem-05262214473D

 49 49  0     1  0  0  0  0  0999 V2000
   -1.5619    0.5658    3.7981 C   0  0  0  0  0  0  0  0  0  0  0  0
   -0.6145   -0.0489    3.3224 O   0  0  0  0  0  0  0  0  0  0  0  0
   -1.9938    0.2834    5.1988 C   0  0  0  0  0  0  0  0  0  0  0  0
   -2.7535   -0.5129    5.2522 H   0  0  0  0  0  0  0  0  0  0  0  0
   -1.1626   -0.0642    5.8331 H   0  0  0  0  0  0  0  0  0  0  0  0
   -2.4318    1.1383    5.7384 H   0  0  0  0  0  0  0  0  0  0  0  0
   -2.3116    1.5383    3.1570 N   0  0  0  0  0  0  0  0  0  0  0  0
   -2.0648    1.9643    1.8046 C   0  0  2  0  0  0  0  0  0  0  0  0
   -0.7298    1.3789    1.3634 C   0  0  0  0  0  0  0  0  0  0  0  0
    0.1423    1.0262    2.1547 O   0  0  0  0  0  0  0  0  0  0  0  0
   -2.0560    3.4811    1.6952 C   0  0  0  0  0  0  0  0  0  0  0  0
   -3.0767    1.9741    3.6688 H   0  0  0  0  0  0  0  0  0  0  0  0
   -2.8689    1.5458    1.1895 H   0  0  0  0  0  0  0  0  0  0  0  0
   -1.2569    3.9183    2.3049 H   0  0  0  0  0  0  0  0  0  0  0  0
   -1.8965    3.8033    0.6609 H   0  0  0  0  0  0  0  0  0  0  0  0
   -3.0062    3.9023    2.0409 H   0  0  0  0  0  0  0  0  0  0  0  0
   -0.6071    1.3358   -0.0200 N   0  0  0  0  0  0  0  0  0  0  0  0
    0.5702    0.8350   -0.6836 C   0  0  2  0  0  0  0  0  0  0  0  0
    1.5130    2.0165   -0.8821 C   0  0  0  0  0  0  0  0  0  0  0  0
    2.4516    1.9976   -1.6755 O   0  0  0  0  0  0  0  0  0  0  0  0
    0.2417    0.1831   -2.0317 C   0  0  0  0  0  0  0  0  0  0  0  0
   -0.6231   -1.0457   -1.8904 C   0  0  0  0  0  0  0  0  0  0  0  0
   -0.1392   -2.2426   -1.4425 N   0  0  0  0  0  0  0  0  0  0  0  0
   -1.9559   -1.2753   -2.1381 C   0  0  0  0  0  0  0  0  0  0  0  0
   -1.1796   -3.1297   -1.4386 C   0  0  0  0  0  0  0  0  0  0  0  0
   -2.2961   -2.5744   -1.8546 N   0  0  0  0  0  0  0  0  0  0  0  0
   -1.3903    1.6325   -0.5973 H   0  0  0  0  0  0  0  0  0  0  0  0
    1.0341    0.1170    0.0028 H   0  0  0  0  0  0  0  0  0  0  0  0
    1.1668   -0.0756   -2.5646 H   0  0  0  0  0  0  0  0  0  0  0  0
   -0.2777    0.8957   -2.6860 H   0  0  0  0  0  0  0  0  0  0  0  0
    0.8135   -2.4397   -1.1653 H   0  0  0  0  0  0  0  0  0  0  0  0
   -2.6900   -0.5728   -2.5061 H   0  0  0  0  0  0  0  0  0  0  0  0
   -1.0575   -4.1563   -1.1239 H   0  0  0  0  0  0  0  0  0  0  0  0
    1.1495    3.1075   -0.1049 N   0  0  0  0  0  0  0  0  0  0  0  0
    1.8619    4.3650   -0.1197 C   0  0  2  0  0  0  0  0  0  0  0  0
    3.3443    4.0679    0.0632 C   0  0  0  0  0  0  0  0  0  0  0  0
    3.7624    3.0345    0.5812 O   0  0  0  0  0  0  0  0  0  0  0  0
    1.3566    5.3000    0.9680 C   0  0  0  0  0  0  0  0  0  0  0  0
    0.3423    3.0177    0.5051 H   0  0  0  0  0  0  0  0  0  0  0  0
    1.6971    4.8101   -1.1070 H   0  0  0  0  0  0  0  0  0  0  0  0
    1.5132    4.8709    1.9644 H   0  0  0  0  0  0  0  0  0  0  0  0
    1.8775    6.2627    0.9372 H   0  0  0  0  0  0  0  0  0  0  0  0
    0.2839    5.4888    0.8523 H   0  0  0  0  0  0  0  0  0  0  0  0
    4.1444    5.1114   -0.3809 N   0  0  0  0  0  0  0  0  0  0  0  0
    5.5862    5.0757   -0.3038 C   0  0  0  0  0  0  0  0  0  0  0  0
    3.7129    5.9224   -0.8142 H   0  0  0  0  0  0  0  0  0  0  0  0
    5.9152    5.5393    0.6379 H   0  0  0  0  0  0  0  0  0  0  0  0
    5.9293    4.0311   -0.3375 H   0  0  0  0  0  0  0  0  0  0  0  0
    6.0125    5.6292   -1.1534 H   0  0  0  0  0  0  0  0  0  0  0  0
 22 24  2  0  0  0  0
 24 26  1  0  0  0  0
 25 26  2  0  0  0  0
 23 25  1  0  0  0  0
 21 22  1  0  0  0  0
 22 23  1  0  0  0  0
  1  3  1  0  0  0  0
  1  7  1  0  0  0  0
  1  2  2  0  0  0  0
 35 36  1  0  0  0  0
 36 44  1  0  0  0  0
 36 37  2  0  0  0  0
  8  9  1  0  0  0  0
  9 17  1  0  0  0  0
  9 10  2  0  0  0  0
 18 19  1  0  0  0  0
 19 34  1  0  0  0  0
 19 20  2  0  0  0  0
 35 38  1  0  0  0  0
  8 11  1  0  0  0  0
 44 45  1  0  0  0  0
 18 21  1  0  0  0  0
 34 35  1  0  0  0  0
  7  8  1  0  0  0  0
 17 18  1  0  0  0  0
 24 32  1  0  0  0  0
 25 33  1  0  0  0  0
  3  4  1  0  0  0  0
  3  5  1  0  0  0  0
  3  6  1  0  0  0  0
 38 41  1  0  0  0  0
 38 42  1  0  0  0  0
 38 43  1  0  0  0  0
 11 14  1  0  0  0  0
 11 15  1  0  0  0  0
 11 16  1  0  0  0  0
 45 47  1  0  0  0  0
 45 48  1  0  0  0  0
 45 49  1  0  0  0  0
 21 29  1  0  0  0  0
 21 30  1  0  0  0  0
 35 40  1  0  0  0  0
  8 13  1  0  0  0  0
 18 28  1  0  0  0  0
 23 31  1  0  0  0  0
 44 46  1  0  0  0  0
  7 12  1  0  0  0  0
 34 39  1  0  0  0  0
 17 27  1  0  0  0  0
M  END
$$$$

  -OEChem-05262214473D

 49 49  0     1  0  0  0  0  0999 V2000
   -1.5619    0.5658    3.7981 C   0  0  0  0  0  0  0  0  0  0  0  0
   -0.6145   -0.0489    3.3224 O   0  0  0  0  0  0  0  0  0  0  0  0
   -1.9938    0.2834    5.1988 C   0  0  0  0  0  0  0  0  0  0  0  0
   -2.7535   -0.5129    5.2522 H   0  0  0  0  0  0  0  0  0  0  0  0
   -1.1626   -0.0642    5.8331 H   0  0  0  0  0  0  0  0  0  0  0  0
   -2.4318    1.1383    5.7384 H   0  0  0  0  0  0  0  0  0  0  0  0
   -2.3116    1.5383    3.1570 N   0  0  0  0  0  0  0  0  0  0  0  0
   -2.0648    1.9643    1.8046 C   0  0  2  0  0  0  0  0  0  0  0  0
   -0.7298    1.3789    1.3634 C   0  0  0  0  0  0  0  0  0  0  0  0
    0.1423    1.0262    2.1547 O   0  0  0  0  0  0  0  0  0  0  0  0
   -2.0560    3.4811    1.6952 C   0  0  0  0  0  0  0  0  0  0  0  0
   -3.0767    1.9741    3.6688 H   0  0  0  0  0  0  0  0  0  0  0  0
   -2.8689    1.5458    1.1895 H   0  0  0  0  0  0  0  0  0  0  0  0
   -1.2569    3.9183    2.3049 H   0  0  0  0  0  0  0  0  0  0  0  0
   -1.8965    3.8033    0.6609 H   0  0  0  0  0  0  0  0  0  0  0  0
   -3.0062    3.9023    2.0409 H   0  0  0  0  0  0  0  0  0  0  0  0
   -0.6071    1.3358   -0.0200 N   0  0  0  0  0  0  0  0  0  0  0  0
    0.5702    0.8350   -0.6836 C   0  0  2  0  0  0  0  0  0  0  0  0
    1.5130    2.0165   -0.8821 C   0  0  0  0  0  0  0  0  0  0  0  0
    2.2739    2.1113   -1.8428 O   0  0  0  0  0  0  0  0  0  0  0  0
    0.2417    0.1831   -2.0317 C   0  0  0  0  0  0  0  0  0  0  0  0
   -0.6231   -1.0457   -1.8904 C   0  0  0  0  0  0  0  0  0  0  0  0
   -0.1392   -2.2426   -1.4425 N   0  0  0  0  0  0  0  0  0  0  0  0
   -1.9559   -1.2753   -2.1381 C   0  0  0  0  0  0  0  0  0  0  0  0
   -1.1796   -3.1297   -1.4386 C   0  0  0  0  0  0  0  0  0  0  0  0
   -2.2961   -2.5744   -1.8546 N   0  0  0  0  0  0  0  0  0  0  0  0
   -1.3903    1.6325   -0.5973 H   0  0  0  0  0  0  0  0  0  0  0  0
    1.0341    0.1170    0.0028 H   0  0  0  0  0  0  0  0  0  0  0  0
    1.1668   -0.0756   -2.5646 H   0  0  0  0  0  0  0  0  0  0  0  0
   -0.2777    0.8957   -2.6860 H   0  0  0  0  0  0  0  0  0  0  0  0
    0.8135   -2.4397   -1.1653 H   0  0  0  0  0  0  0  0  0  0  0  0
   -2.6900   -0.5728   -2.5061 H   0  0  0  0  0  0  0  0  0  0  0  0
   -1.0575   -4.1563   -1.1239 H   0  0  0  0  0  0  0  0  0  0  0  0
    1.3655    2.9719    0.1139 N   0  0  0  0  0  0  0  0  0  0  0  0
    2.1228    4.2023    0.1516 C   0  0  2  0  0  0  0  0  0  0  0  0
    3.5954    3.8536   -0.0196 C   0  0  0  0  0  0  0  0  0  0  0  0
    4.0555    2.7423    0.2343 O   0  0  0  0  0  0  0  0  0  0  0  0
    1.8902    4.9555    1.4521 C   0  0  0  0  0  0  0  0  0  0  0  0
    0.6914    2.7976    0.8534 H   0  0  0  0  0  0  0  0  0  0  0  0
    1.7885    4.8057   -0.6994 H   0  0  0  0  0  0  0  0  0  0  0  0
    2.2191    4.3666    2.3161 H   0  0  0  0  0  0  0  0  0  0  0  0
    2.4422    5.9011    1.4671 H   0  0  0  0  0  0  0  0  0  0  0  0
    0.8266    5.1794    1.5879 H   0  0  0  0  0  0  0  0  0  0  0  0
    4.3430    4.9416   -0.4479 N   0  0  0  0  0  0  0  0  0  0  0  0
    5.7679    4.8688   -0.6722 C   0  0  0  0  0  0  0  0  0  0  0  0
    3.8754    5.8199   -0.6520 H   0  0  0  0  0  0  0  0  0  0  0  0
    6.2995    5.1665    0.2437 H   0  0  0  0  0  0  0  0  0  0  0  0
    6.0449    3.8380   -0.9381 H   0  0  0  0  0  0  0  0  0  0  0  0
    6.0448    5.5463   -1.4934 H   0  0  0  0  0  0  0  0  0  0  0  0
 22 24  2  0  0  0  0
 24 26  1  0  0  0  0
 25 26  2  0  0  0  0
 23 25  1  0  0  0  0
 21 22  1  0  0  0  0
 22 23  1  0  0  0  0
  1  3  1  0  0  0  0
  1  7  1  0  0  0  0
  1  2  2  0  0  0  0
 35 36  1  0  0  0  0
 36 44  1  0  0  0  0
 36 37  2  0  0  0  0
  8  9  1  0  0  0  0
  9 17  1  0  0  0  0
  9 10  2  0  0  0  0
 18 19  1  0  0  0  0
 19 34  1  0  0  0  0
 19 20  2  0  0  0  0
 35 38  1  0  0  0  0
  8 11  1  0  0  0  0
 44 45  1  0  0  0  0
 18 21  1  0  0  0  0
 34 35  1  0  0  0  0
  7  8  1  0  0  0  0
 17 18  1  0  0  0  0
 24 32  1  0  0  0  0
 25 33  1  0  0  0  0
  3  4  1  0  0  0  0
  3  5  1  0  0  0  0
  3  6  1  0  0  0  0
 38 41  1  0  0  0  0
 38 42  1  0  0  0  0
 38 43  1  0  0  0  0
 11 14  1  0  0  0  0
 11 15  1  0  0  0  0
 11 16  1  0  0  0  0
 45 47  1  0  0  0  0
 45 48  1  0  0  0  0
 45 49  1  0  0  0  0
 21 29  1  0  0  0  0
 21 30  1  0  0  0  0
 35 40  1  0  0  0  0
  8 13  1  0  0  0  0
 18 28  1  0  0  0  0
 23 31  1  0  0  0  0
 44 46  1  0  0  0  0
  7 12  1  0  0  0  0
 34 39  1  0  0  0  0
 17 27  1  0  0  0  0
M  END
$$$$

  -OEChem-05262214473D

 49 49  0     1  0  0  0  0  0999 V2000
   -1.5619    0.5658    3.7981 C   0  0  0  0  0  0  0  0  0  0  0  0
   -0.6145   -0.0489    3.3224 O   0  0  0  0  0  0  0  0  0  0  0  0
   -1.9938    0.2834    5.1988 C   0  0  0  0  0  0  0  0  0  0  0  0
   -2.7535   -0.5129    5.2522 H   0  0  0  0  0  0  0  0  0  0  0  0
   -1.1626   -0.0642    5.8331 H   0  0  0  0  0  0  0  0  0  0  0  0
   -2.4318    1.1383    5.7384 H   0  0  0  0  0  0  0  0  0  0  0  0
   -2.3116    1.5383    3.1570 N   0  0  0  0  0  0  0  0  0  0  0  0
   -2.0648    1.9643    1.8046 C   0  0  2  0  0  0  0  0  0  0  0  0
   -0.7298    1.3789    1.3634 C   0  0  0  0  0  0  0  0  0  0  0  0
    0.1423    1.0262    2.1547 O   0  0  0  0  0  0  0  0  0  0  0  0
   -2.0560    3.4811    1.6952 C   0  0  0  0  0  0  0  0  0  0  0  0
   -3.0767    1.9741    3.6688 H   0  0  0  0  0  0  0  0  0  0  0  0
   -2.8689    1.5458    1.1895 H   0  0  0  0  0  0  0  0  0  0  0  0
   -1.2569    3.9183    2.3049 H   0  0  0  0  0  0  0  0  0  0  0  0
   -1.8965    3.8033    0.6609 H   0  0  0  0  0  0  0  0  0  0  0  0
   -3.0062    3.9023    2.0409 H   0  0  0  0  0  0  0  0  0  0  0  0
   -0.6071    1.3358   -0.0200 N   0  0  0  0  0  0  0  0  0  0  0  0
    0.5702    0.8350   -0.6836 C   0  0  2  0  0  0  0  0  0  0  0  0
    1.5130    2.0165   -0.8821 C   0  0  0  0  0  0  0  0  0  0  0  0
    2.0726    2.2539   -1.9504 O   0  0  0  0  0  0  0  0  0  0  0  0
    0.2417    0.1831   -2.0317 C   0  0  0  0  0  0  0  0  0  0  0  0
   -0.6231   -1.0457   -1.8904 C   0  0  0  0  0  0  0  0  0  0  0  0
   -0.1392   -2.2426   -1.4425 N   0  0  0  0  0  0  0  0  0  0  0  0
   -1.9559   -1.2753   -2.1381 C   0  0  0  0  0  0  0  0  0  0  0  0
   -1.1796   -3.1297   -1.4386 C   0  0  0  0  0  0  0  0  0  0  0  0
   -2.2961   -2.5744   -1.8546 N   0  0  0  0  0  0  0  0  0  0  0  0
   -1.3903    1.6325   -0.5973 H   0  0  0  0  0  0  0  0  0  0  0  0
    1.0341    0.1170    0.0028 H   0  0  0  0  0  0  0  0  0  0  0  0
    1.1668   -0.0756   -2.5646 H   0  0  0  0  0  0  0  0  0  0  0  0
   -0.2777    0.8957   -2.6860 H   0  0  0  0  0  0  0  0  0  0  0  0
    0.8135   -2.4397   -1.1653 H   0  0  0  0  0  0  0  0  0  0  0  0
   -2.6900   -0.5728   -2.5061 H   0  0  0  0  0  0  0  0  0  0  0  0
   -1.0575   -4.1563   -1.1239 H   0  0  0  0  0  0  0  0  0  0  0  0
    1.6135    2.7986    0.2601 N   0  0  0  0  0  0  0  0  0  0  0  0
    2.4238    3.9930    0.3354 C   0  0  2  0  0  0  0  0  0  0  0  0
    3.8141    3.6514   -0.1841 C   0  0  0  0  0  0  0  0  0  0  0  0
    4.2592    2.5058   -0.2064 O   0  0  0  0  0  0  0  0  0  0  0  0
    2.4910    4.5273    1.7575 C   0  0  0  0  0  0  0  0  0  0  0  0
    1.0911    2.5174    1.0847 H   0  0  0  0  0  0  0  0  0  0  0  0
    1.9583    4.7331   -0.3246 H   0  0  0  0  0  0  0  0  0  0  0  0
    2.9545    3.7995    2.4335 H   0  0  0  0  0  0  0  0  0  0  0  0
    3.0817    5.4480    1.8079 H   0  0  0  0  0  0  0  0  0  0  0  0
    1.4879    4.7444    2.1402 H   0  0  0  0  0  0  0  0  0  0  0  0
    4.5156    4.7817   -0.5797 N   0  0  0  0  0  0  0  0  0  0  0  0
    5.8626    4.7218   -1.0976 C   0  0  0  0  0  0  0  0  0  0  0  0
    4.0614    5.6896   -0.5444 H   0  0  0  0  0  0  0  0  0  0  0  0
    6.5790    4.8565   -0.2739 H   0  0  0  0  0  0  0  0  0  0  0  0
    6.0295    3.7437   -1.5724 H   0  0  0  0  0  0  0  0  0  0  0  0
    6.0051    5.5195   -1.8415 H   0  0  0  0  0  0  0  0  0  0  0  0
 22 24  2  0  0  0  0
 24 26  1  0  0  0  0
 25 26  2  0  0  0  0
 23 25  1  0  0  0  0
 21 22  1  0  0  0  0
 22 23  1  0  0  0  0
  1  3  1  0  0  0  0
  1  7  1  0  0  0  0
  1  2  2  0  0  0  0
 35 36  1  0  0  0  0
 36 44  1  0  0  0  0
 36 37  2  0  0  0  0
  8  9  1  0  0  0  0
  9 17  1  0  0  0  0
  9 10  2  0  0  0  0
 18 19  1  0  0  0  0
 19 34  1  0  0  0  0
 19 20  2  0  0  0  0
 35 38  1  0  0  0  0
  8 11  1  0  0  0  0
 44 45  1  0  0  0  0
 18 21  1  0  0  0  0
 34 35  1  0  0  0  0
  7  8  1  0  0  0  0
 17 18  1  0  0  0  0
 24 32  1  0  0  0  0
 25 33  1  0  0  0  0
  3  4  1  0  0  0  0
  3  5  1  0  0  0  0
  3  6  1  0  0  0  0
 38 41  1  0  0  0  0
 38 42  1  0  0  0  0
 38 43  1  0  0  0  0
 11 14  1  0  0  0  0
 11 15  1  0  0  0  0
 11 16  1  0  0  0  0
 45 47  1  0  0  0  0
 45 48  1  0  0  0  0
 45 49  1  0  0  0  0
 21 29  1  0  0  0  0
 21 30  1  0  0  0  0
 35 40  1  0  0  0  0
  8 13  1  0  0  0  0
 18 28  1  0  0  0  0
 23 31  1  0  0  0  0
 44 46  1  0  0  0  0
  7 12  1  0  0  0  0
 34 39  1  0  0  0  0
 17 27  1  0  0  0  0
M  END
$$$$

  -OEChem-05262214473D

 49 49  0     1  0  0  0  0  0999 V2000
   -1.5619    0.5658    3.7981 C   0  0  0  0  0  0  0  0  0  0  0  0
   -0.6145   -0.0489    3.3224 O   0  0  0  0  0  0  0  0  0  0  0  0
   -1.9938    0.2834    5.1988 C   0  0  0  0  0  0  0  0  0  0  0  0
   -2.7535   -0.5129    5.2522 H   0  0  0  0  0  0  0  0  0  0  0  0
   -1.1626   -0.0642    5.8331 H   0  0  0  0  0  0  0  0  0  0  0  0
   -2.4318    1.1383    5.7384 H   0  0  0  0  0  0  0  0  0  0  0  0
   -2.3116    1.5383    3.1570 N   0  0  0  0  0  0  0  0  0  0  0  0
   -2.0648    1.9643    1.8046 C   0  0  2  0  0  0  0  0  0  0  0  0
   -0.7298    1.3789    1.3634 C   0  0  0  0  0  0  0  0  0  0  0  0
    0.1423    1.0262    2.1547 O   0  0  0  0  0  0  0  0  0  0  0  0
   -2.0560    3.4811    1.6952 C   0  0  0  0  0  0  0  0  0  0  0  0
   -3.0767    1.9741    3.6688 H   0  0  0  0  0  0  0  0  0  0  0  0
   -2.8689    1.5458    1.1895 H   0  0  0  0  0  0  0  0  0  0  0  0
   -1.2569    3.9183    2.3049 H   0  0  0  0  0  0  0  0  0  0  0  0
   -1.8965    3.8033    0.6609 H   0  0  0  0  0  0  0  0  0  0  0  0
   -3.0062    3.9023    2.0409 H   0  0  0  0  0  0  0  0  0  0  0  0
   -0.6071    1.3358   -0.0200 N   0  0  0  0  0  0  0  0  0  0  0  0
    0.5702    0.8350   -0.6836 C   0  0  2  0  0  0  0  0  0  0  0  0
    1.5130    2.0165   -0.8821 C   0  0  0  0  0  0  0  0  0  0  0  0
    1.8613    2.4156   -1.9913 O   0  0  0  0  0  0  0  0  0  0  0  0
    0.2417    0.1831   -2.0317 C   0  0  0  0  0  0  0  0  0  0  0  0
   -0.6231   -1.0457   -1.8904 C   0  0  0  0  0  0  0  0  0  0  0  0
   -0.1392   -2.2426   -1.4425 N   0  0  0  0  0  0  0  0  0  0  0  0
   -1.9559   -1.2753   -2.1381 C   0  0  0  0  0  0  0  0  0  0  0  0
   -1.1796   -3.1297   -1.4386 C   0  0  0  0  0  0  0  0  0  0  0  0
   -2.2961   -2.5744   -1.8546 N   0  0  0  0  0  0  0  0  0  0  0  0
   -1.3903    1.6325   -0.5973 H   0  0  0  0  0  0  0  0  0  0  0  0
    1.0341    0.1170    0.0028 H   0  0  0  0  0  0  0  0  0  0  0  0
    1.1668   -0.0756   -2.5646 H   0  0  0  0  0  0  0  0  0  0  0  0
   -0.2777    0.8957   -2.6860 H   0  0  0  0  0  0  0  0  0  0  0  0
    0.8135   -2.4397   -1.1653 H   0  0  0  0  0  0  0  0  0  0  0  0
   -2.6900   -0.5728   -2.5061 H   0  0  0  0  0  0  0  0  0  0  0  0
   -1.0575   -4.1563   -1.1239 H   0  0  0  0  0  0  0  0  0  0  0  0
    1.8764    2.5995    0.3239 N   0  0  0  0  0  0  0  0  0  0  0  0
    2.7444    3.7512    0.4189 C   0  0  2  0  0  0  0  0  0  0  0  0
    3.9856    3.4751   -0.4193 C   0  0  0  0  0  0  0  0  0  0  0  0
    4.3595    2.3410   -0.7108 O   0  0  0  0  0  0  0  0  0  0  0  0
    3.1183    4.0446    1.8635 C   0  0  0  0  0  0  0  0  0  0  0  0
    1.5142    2.1964    1.1830 H   0  0  0  0  0  0  0  0  0  0  0  0
    2.1951    4.5972   -0.0084 H   0  0  0  0  0  0  0  0  0  0  0  0
    3.6693    3.2081    2.3086 H   0  0  0  0  0  0  0  0  0  0  0  0
    3.7525    4.9342    1.9363 H   0  0  0  0  0  0  0  0  0  0  0  0
    2.2228    4.2136    2.4713 H   0  0  0  0  0  0  0  0  0  0  0  0
    4.6506    4.6425   -0.7673 N   0  0  0  0  0  0  0  0  0  0  0  0
    5.8637    4.6447   -1.5511 C   0  0  0  0  0  0  0  0  0  0  0  0
    4.2583    5.5401   -0.4985 H   0  0  0  0  0  0  0  0  0  0  0  0
    6.7348    4.6304   -0.8795 H   0  0  0  0  0  0  0  0  0  0  0  0
    5.8843    3.7546   -2.1971 H   0  0  0  0  0  0  0  0  0  0  0  0
    5.8960    5.5507   -2.1740 H   0  0  0  0  0  0  0  0  0  0  0  0
 22 24  2  0  0  0  0
 24 26  1  0  0  0  0
 25 26  2  0  0  0  0
 23 25  1  0  0  0  0
 21 22  1  0  0  0  0
 22 23  1  0  0  0  0
  1  3  1  0  0  0  0
  1  7  1  0  0  0  0
  1  2  2  0  0  0  0
 35 36  1  0  0  0  0
 36 44  1  0  0  0  0
 36 37  2  0  0  0  0
  8  9  1  0  0  0  0
  9 17  1  0  0  0  0
  9 10  2  0  0  0  0
 18 19  1  0  0  0  0
 19 34  1  0  0  0  0
 19 20  2  0  0  0  0
 35 38  1  0  0  0  0
  8 11  1  0  0  0  0
 44 45  1  0  0  0  0
 18 21  1  0  0  0  0
 34 35  1  0  0  0  0
  7  8  1  0  0  0  0
 17 18  1  0  0  0  0
 24 32  1  0  0  0  0
 25 33  1  0  0  0  0
  3  4  1  0  0  0  0
  3  5  1  0  0  0  0
  3  6  1  0  0  0  0
 38 41  1  0  0  0  0
 38 42  1  0  0  0  0
 38 43  1  0  0  0  0
 11 14  1  0  0  0  0
 11 15  1  0  0  0  0
 11 16  1  0  0  0  0
 45 47  1  0  0  0  0
 45 48  1  0  0  0  0
 45 49  1  0  0  0  0
 21 29  1  0  0  0  0
 21 30  1  0  0  0  0
 35 40  1  0  0  0  0
  8 13  1  0  0  0  0
 18 28  1  0  0  0  0
 23 31  1  0  0  0  0
 44 46  1  0  0  0  0
  7 12  1  0  0  0  0
 34 39  1  0  0  0  0
 17 27  1  0  0  0  0
M  END
$$$$

  -OEChem-05262214473D

 49 49  0     1  0  0  0  0  0999 V2000
   -1.5619    0.5658    3.7981 C   0  0  0  0  0  0  0  0  0  0  0  0
   -0.6145   -0.0489    3.3224 O   0  0  0  0  0  0  0  0  0  0  0  0
   -1.9938    0.2834    5.1988 C   0  0  0  0  0  0  0  0  0  0  0  0
   -2.7535   -0.5129    5.2522 H   0  0  0  0  0  0  0  0  0  0  0  0
   -1.1626   -0.0642    5.8331 H   0  0  0  0  0  0  0  0  0  0  0  0
   -2.4318    1.1383    5.7384 H   0  0  0  0  0  0  0  0  0  0  0  0
   -2.3116    1.5383    3.1570 N   0  0  0  0  0  0  0  0  0  0  0  0
   -2.0648    1.9643    1.8046 C   0  0  2  0  0  0  0  0  0  0  0  0
   -0.7298    1.3789    1.3634 C   0  0  0  0  0  0  0  0  0  0  0  0
    0.1423    1.0262    2.1547 O   0  0  0  0  0  0  0  0  0  0  0  0
   -2.0560    3.4811    1.6952 C   0  0  0  0  0  0  0  0  0  0  0  0
   -3.0767    1.9741    3.6688 H   0  0  0  0  0  0  0  0  0  0  0  0
   -2.8689    1.5458    1.1895 H   0  0  0  0  0  0  0  0  0  0  0  0
   -1.2569    3.9183    2.3049 H   0  0  0  0  0  0  0  0  0  0  0  0
   -1.8965    3.8033    0.6609 H   0  0  0  0  0  0  0  0  0  0  0  0
   -3.0062    3.9023    2.0409 H   0  0  0  0  0  0  0  0  0  0  0  0
   -0.6071    1.3358   -0.0200 N   0  0  0  0  0  0  0  0  0  0  0  0
    0.5702    0.8350   -0.6836 C   0  0  2  0  0  0  0  0  0  0  0  0
    1.5130    2.0165   -0.8821 C   0  0  0  0  0  0  0  0  0  0  0  0
    1.6545    2.5855   -1.9624 O   0  0  0  0  0  0  0  0  0  0  0  0
    0.2417    0.1831   -2.0317 C   0  0  0  0  0  0  0  0  0  0  0  0
   -0.6231   -1.0457   -1.8904 C   0  0  0  0  0  0  0  0  0  0  0  0
   -0.1392   -2.2426   -1.4425 N   0  0  0  0  0  0  0  0  0  0  0  0
   -1.9559   -1.2753   -2.1381 C   0  0  0  0  0  0  0  0  0  0  0  0
   -1.1796   -3.1297   -1.4386 C   0  0  0  0  0  0  0  0  0  0  0  0
   -2.2961   -2.5744   -1.8546 N   0  0  0  0  0  0  0  0  0  0  0  0
   -1.3903    1.6325   -0.5973 H   0  0  0  0  0  0  0  0  0  0  0  0
    1.0341    0.1170    0.0028 H   0  0  0  0  0  0  0  0  0  0  0  0
    1.1668   -0.0756   -2.5646 H   0  0  0  0  0  0  0  0  0  0  0  0
   -0.2777    0.8957   -2.6860 H   0  0  0  0  0  0  0  0  0  0  0  0
    0.8135   -2.4397   -1.1653 H   0  0  0  0  0  0  0  0  0  0  0  0
   -2.6900   -0.5728   -2.5061 H   0  0  0  0  0  0  0  0  0  0  0  0
   -1.0575   -4.1563   -1.1239 H   0  0  0  0  0  0  0  0  0  0  0  0
    2.1365    2.3881    0.3009 N   0  0  0  0  0  0  0  0  0  0  0  0
    3.0626    3.4935    0.3967 C   0  0  2  0  0  0  0  0  0  0  0  0
    4.0981    3.3367   -0.7091 C   0  0  0  0  0  0  0  0  0  0  0  0
    4.3498    2.2591   -1.2445 O   0  0  0  0  0  0  0  0  0  0  0  0
    3.7291    3.5402    1.7628 C   0  0  0  0  0  0  0  0  0  0  0  0
    1.9317    1.8563    1.1418 H   0  0  0  0  0  0  0  0  0  0  0  0
    2.4827    4.4074    0.2279 H   0  0  0  0  0  0  0  0  0  0  0  0
    4.3148    2.6328    1.9499 H   0  0  0  0  0  0  0  0  0  0  0  0
    4.4089    4.3949    1.8436 H   0  0  0  0  0  0  0  0  0  0  0  0
    2.9812    3.6231    2.5587 H   0  0  0  0  0  0  0  0  0  0  0  0
    4.7386    4.5336   -0.9978 N   0  0  0  0  0  0  0  0  0  0  0  0
    5.7713    4.6428   -2.0016 C   0  0  0  0  0  0  0  0  0  0  0  0
    4.4527    5.3818   -0.5177 H   0  0  0  0  0  0  0  0  0  0  0  0
    6.7562    4.5038   -1.5319 H   0  0  0  0  0  0  0  0  0  0  0  0
    5.6191    3.8701   -2.7696 H   0  0  0  0  0  0  0  0  0  0  0  0
    5.7249    5.6378   -2.4684 H   0  0  0  0  0  0  0  0  0  0  0  0
 22 24  2  0  0  0  0
 24 26  1  0  0  0  0
 25 26  2  0  0  0  0
 23 25  1  0  0  0  0
 21 22  1  0  0  0  0
 22 23  1  0  0  0  0
  1  3  1  0  0  0  0
  1  7  1  0  0  0  0
  1  2  2  0  0  0  0
 35 36  1  0  0  0  0
 36 44  1  0  0  0  0
 36 37  2  0  0  0  0
  8  9  1  0  0  0  0
  9 17  1  0  0  0  0
  9 10  2  0  0  0  0
 18 19  1  0  0  0  0
 19 34  1  0  0  0  0
 19 20  2  0  0  0  0
 35 38  1  0  0  0  0
  8 11  1  0  0  0  0
 44 45  1  0  0  0  0
 18 21  1  0  0  0  0
 34 35  1  0  0  0  0
  7  8  1  0  0  0  0
 17 18  1  0  0  0  0
 24 32  1  0  0  0  0
 25 33  1  0  0  0  0
  3  4  1  0  0  0  0
  3  5  1  0  0  0  0
  3  6  1  0  0  0  0
 38 41  1  0  0  0  0
 38 42  1  0  0  0  0
 38 43  1  0  0  0  0
 11 14  1  0  0  0  0
 11 15  1  0  0  0  0
 11 16  1  0  0  0  0
 45 47  1  0  0  0  0
 45 48  1  0  0  0  0
 45 49  1  0  0  0  0
 21 29  1  0  0  0  0
 21 30  1  0  0  0  0
 35 40  1  0  0  0  0
  8 13  1  0  0  0  0
 18 28  1  0  0  0  0
 23 31  1  0  0  0  0
 44 46  1  0  0  0  0
  7 12  1  0  0  0  0
 34 39  1  0  0  0  0
 17 27  1  0  0  0  0
M  END
$$$$

  -OEChem-05262214473D

 49 49  0     1  0  0  0  0  0999 V2000
   -1.5619    0.5658    3.7981 C   0  0  0  0  0  0  0  0  0  0  0  0
   -0.6145   -0.0489    3.3224 O   0  0  0  0  0  0  0  0  0  0  0  0
   -1.9938    0.2834    5.1988 C   0  0  0  0  0  0  0  0  0  0  0  0
   -2.7535   -0.5129    5.2522 H   0  0  0  0  0  0  0  0  0  0  0  0
   -1.1626   -0.0642    5.8331 H   0  0  0  0  0  0  0  0  0  0  0  0
   -2.4318    1.1383    5.7384 H   0  0  0  0  0  0  0  0  0  0  0  0
   -2.3116    1.5383    3.1570 N   0  0  0  0  0  0  0  0  0  0  0  0
   -2.0648    1.9643    1.8046 C   0  0  2  0  0  0  0  0  0  0  0  0
   -0.7298    1.3789    1.3634 C   0  0  0  0  0  0  0  0  0  0  0  0
    0.1423    1.0262    2.1547 O   0  0  0  0  0  0  0  0  0  0  0  0
   -2.0560    3.4811    1.6952 C   0  0  0  0  0  0  0  0  0  0  0  0
   -3.0767    1.9741    3.6688 H   0  0  0  0  0  0  0  0  0  0  0  0
   -2.8689    1.5458    1.1895 H   0  0  0  0  0  0  0  0  0  0  0  0
   -1.2569    3.9183    2.3049 H   0  0  0  0  0  0  0  0  0  0  0  0
   -1.8965    3.8033    0.6609 H   0  0  0  0  0  0  0  0  0  0  0  0
   -3.0062    3.9023    2.0409 H   0  0  0  0  0  0  0  0  0  0  0  0
   -0.6071    1.3358   -0.0200 N   0  0  0  0  0  0  0  0  0  0  0  0
    0.5702    0.8350   -0.6836 C   0  0  2  0  0  0  0  0  0  0  0  0
    1.5130    2.0165   -0.8821 C   0  0  0  0  0  0  0  0  0  0  0  0
    1.4663    2.7519   -1.8659 O   0  0  0  0  0  0  0  0  0  0  0  0
    0.2417    0.1831   -2.0317 C   0  0  0  0  0  0  0  0  0  0  0  0
   -0.6231   -1.0457   -1.8904 C   0  0  0  0  0  0  0  0  0  0  0  0
   -0.1392   -2.2426   -1.4425 N   0  0  0  0  0  0  0  0  0  0  0  0
   -1.9559   -1.2753   -2.1381 C   0  0  0  0  0  0  0  0  0  0  0  0
   -1.1796   -3.1297   -1.4386 C   0  0  0  0  0  0  0  0  0  0  0  0
   -2.2961   -2.5744   -1.8546 N   0  0  0  0  0  0  0  0  0  0  0  0
   -1.3903    1.6325   -0.5973 H   0  0  0  0  0  0  0  0  0  0  0  0
    1.0341    0.1170    0.0028 H   0  0  0  0  0  0  0  0  0  0  0  0
    1.1668   -0.0756   -2.5646 H   0  0  0  0  0  0  0  0  0  0  0  0
   -0.2777    0.8957   -2.6860 H   0  0  0  0  0  0  0  0  0  0  0  0
    0.8135   -2.4397   -1.1653 H   0  0  0  0  0  0  0  0  0  0  0  0
   -2.6900   -0.5728   -2.5061 H   0  0  0  0  0  0  0  0  0  0  0  0
   -1.0575   -4.1563   -1.1239 H   0  0  0  0  0  0  0  0  0  0  0  0
    2.3761    2.1787    0.1927 N   0  0  0  0  0  0  0  0  0  0  0  0
    3.3569    3.2374    0.2701 C   0  0  2  0  0  0  0  0  0  0  0  0
    4.1439    3.2456   -1.0337 C   0  0  0  0  0  0  0  0  0  0  0  0
    4.2305    2.2659   -1.7711 O   0  0  0  0  0  0  0  0  0  0  0  0
    4.2820    3.0486    1.4623 C   0  0  0  0  0  0  0  0  0  0  0  0
    2.3153    1.5203    0.9637 H   0  0  0  0  0  0  0  0  0  0  0  0
    2.8015    4.1766    0.3680 H   0  0  0  0  0  0  0  0  0  0  0  0
    4.8469    2.1127    1.3819 H   0  0  0  0  0  0  0  0  0  0  0  0
    5.0062    3.8666    1.5360 H   0  0  0  0  0  0  0  0  0  0  0  0
    3.7114    3.0131    2.3966 H   0  0  0  0  0  0  0  0  0  0  0  0
    4.7738    4.4622   -1.2555 N   0  0  0  0  0  0  0  0  0  0  0  0
    5.5915    4.7162   -2.4186 C   0  0  0  0  0  0  0  0  0  0  0  0
    4.6313    5.2254   -0.6005 H   0  0  0  0  0  0  0  0  0  0  0  0
    6.6417    4.4852   -2.1866 H   0  0  0  0  0  0  0  0  0  0  0  0
    5.2520    4.0822   -3.2509 H   0  0  0  0  0  0  0  0  0  0  0  0
    5.5036    5.7747   -2.7044 H   0  0  0  0  0  0  0  0  0  0  0  0
 22 24  2  0  0  0  0
 24 26  1  0  0  0  0
 25 26  2  0  0  0  0
 23 25  1  0  0  0  0
 21 22  1  0  0  0  0
 22 23  1  0  0  0  0
  1  3  1  0  0  0  0
  1  7  1  0  0  0  0
  1  2  2  0  0  0  0
 35 36  1  0  0  0  0
 36 44  1  0  0  0  0
 36 37  2  0  0  0  0
  8  9  1  0  0  0  0
  9 17  1  0  0  0  0
  9 10  2  0  0  0  0
 18 19  1  0  0  0  0
 19 34  1  0  0  0  0
 19 20  2  0  0  0  0
 35 38  1  0  0  0  0
  8 11  1  0  0  0  0
 44 45  1  0  0  0  0
 18 21  1  0  0  0  0
 34 35  1  0  0  0  0
  7  8  1  0  0  0  0
 17 18  1  0  0  0  0
 24 32  1  0  0  0  0
 25 33  1  0  0  0  0
  3  4  1  0  0  0  0
  3  5  1  0  0  0  0
  3  6  1  0  0  0  0
 38 41  1  0  0  0  0
 38 42  1  0  0  0  0
 38 43  1  0  0  0  0
 11 14  1  0  0  0  0
 11 15  1  0  0  0  0
 11 16  1  0  0  0  0
 45 47  1  0  0  0  0
 45 48  1  0  0  0  0
 45 49  1  0  0  0  0
 21 29  1  0  0  0  0
 21 30  1  0  0  0  0
 35 40  1  0  0  0  0
  8 13  1  0  0  0  0
 18 28  1  0  0  0  0
 23 31  1  0  0  0  0
 44 46  1  0  0  0  0
  7 12  1  0  0  0  0
 34 39  1  0  0  0  0
 17 27  1  0  0  0  0
M  END
$$$$

  -OEChem-05262214473D

 49 49  0     1  0  0  0  0  0999 V2000
   -1.5619    0.5658    3.7981 C   0  0  0  0  0  0  0  0  0  0  0  0
   -0.6145   -0.0489    3.3224 O   0  0  0  0  0  0  0  0  0  0  0  0
   -1.9938    0.2834    5.1988 C   0  0  0  0  0  0  0  0  0  0  0  0
   -2.7535   -0.5129    5.2522 H   0  0  0  0  0  0  0  0  0  0  0  0
   -1.1626   -0.0642    5.8331 H   0  0  0  0  0  0  0  0  0  0  0  0
   -2.4318    1.1383    5.7384 H   0  0  0  0  0  0  0  0  0  0  0  0
   -2.3116    1.5383    3.1570 N   0  0  0  0  0  0  0  0  0  0  0  0
   -2.0648    1.9643    1.8046 C   0  0  2  0  0  0  0  0  0  0  0  0
   -0.7298    1.3789    1.3634 C   0  0  0  0  0  0  0  0  0  0  0  0
    0.1423    1.0262    2.1547 O   0  0  0  0  0  0  0  0  0  0  0  0
   -2.0560    3.4811    1.6952 C   0  0  0  0  0  0  0  0  0  0  0  0
   -3.0767    1.9741    3.6688 H   0  0  0  0  0  0  0  0  0  0  0  0
   -2.8689    1.5458    1.1895 H   0  0  0  0  0  0  0  0  0  0  0  0
   -1.2569    3.9183    2.3049 H   0  0  0  0  0  0  0  0  0  0  0  0
   -1.8965    3.8033    0.6609 H   0  0  0  0  0  0  0  0  0  0  0  0
   -3.0062    3.9023    2.0409 H   0  0  0  0  0  0  0  0  0  0  0  0
   -0.6071    1.3358   -0.0200 N   0  0  0  0  0  0  0  0  0  0  0  0
    0.5702    0.8350   -0.6836 C   0  0  2  0  0  0  0  0  0  0  0  0
    1.5130    2.0165   -0.8821 C   0  0  0  0  0  0  0  0  0  0  0  0
    1.3094    2.9036   -1.7083 O   0  0  0  0  0  0  0  0  0  0  0  0
    0.2417    0.1831   -2.0317 C   0  0  0  0  0  0  0  0  0  0  0  0
   -0.6231   -1.0457   -1.8904 C   0  0  0  0  0  0  0  0  0  0  0  0
   -0.1392   -2.2426   -1.4425 N   0  0  0  0  0  0  0  0  0  0  0  0
   -1.9559   -1.2753   -2.1381 C   0  0  0  0  0  0  0  0  0  0  0  0
   -1.1796   -3.1297   -1.4386 C   0  0  0  0  0  0  0  0  0  0  0  0
   -2.2961   -2.5744   -1.8546 N   0  0  0  0  0  0  0  0  0  0  0  0
   -1.3903    1.6325   -0.5973 H   0  0  0  0  0  0  0  0  0  0  0  0
    1.0341    0.1170    0.0028 H   0  0  0  0  0  0  0  0  0  0  0  0
    1.1668   -0.0756   -2.5646 H   0  0  0  0  0  0  0  0  0  0  0  0
   -0.2777    0.8957   -2.6860 H   0  0  0  0  0  0  0  0  0  0  0  0
    0.8135   -2.4397   -1.1653 H   0  0  0  0  0  0  0  0  0  0  0  0
   -2.6900   -0.5728   -2.5061 H   0  0  0  0  0  0  0  0  0  0  0  0
   -1.0575   -4.1563   -1.1239 H   0  0  0  0  0  0  0  0  0  0  0  0
    2.5787    1.9858    0.0067 N   0  0  0  0  0  0  0  0  0  0  0  0
    3.6071    3.0004    0.0478 C   0  0  2  0  0  0  0  0  0  0  0  0
    4.1200    3.2080   -1.3711 C   0  0  0  0  0  0  0  0  0  0  0  0
    4.0099    2.3606   -2.2548 O   0  0  0  0  0  0  0  0  0  0  0  0
    4.7391    2.6032    0.9824 C   0  0  0  0  0  0  0  0  0  0  0  0
    2.6388    1.2113    0.6611 H   0  0  0  0  0  0  0  0  0  0  0  0
    3.1297    3.9204    0.4024 H   0  0  0  0  0  0  0  0  0  0  0  0
    5.2295    1.6834    0.6433 H   0  0  0  0  0  0  0  0  0  0  0  0
    5.5036    3.3854    1.0345 H   0  0  0  0  0  0  0  0  0  0  0  0
    4.3636    2.4254    1.9959 H   0  0  0  0  0  0  0  0  0  0  0  0
    4.7536    4.4334   -1.5230 N   0  0  0  0  0  0  0  0  0  0  0  0
    5.3368    4.8599   -2.7736 C   0  0  0  0  0  0  0  0  0  0  0  0
    4.7819    5.0816   -0.7414 H   0  0  0  0  0  0  0  0  0  0  0  0
    6.3992    4.5758   -2.7991 H   0  0  0  0  0  0  0  0  0  0  0  0
    4.8080    4.3765   -3.6083 H   0  0  0  0  0  0  0  0  0  0  0  0
    5.2471    5.9523   -2.8662 H   0  0  0  0  0  0  0  0  0  0  0  0
 22 24  2  0  0  0  0
 24 26  1  0  0  0  0
 25 26  2  0  0  0  0
 23 25  1  0  0  0  0
 21 22  1  0  0  0  0
 22 23  1  0  0  0  0
  1  3  1  0  0  0  0
  1  7  1  0  0  0  0
  1  2  2  0  0  0  0
 35 36  1  0  0  0  0
 36 44  1  0  0  0  0
 36 37  2  0  0  0  0
  8  9  1  0  0  0  0
  9 17  1  0  0  0  0
  9 10  2  0  0  0  0
 18 19  1  0  0  0  0
 19 34  1  0  0  0  0
 19 20  2  0  0  0  0
 35 38  1  0  0  0  0
  8 11  1  0  0  0  0
 44 45  1  0  0  0  0
 18 21  1  0  0  0  0
 34 35  1  0  0  0  0
  7  8  1  0  0  0  0
 17 18  1  0  0  0  0
 24 32  1  0  0  0  0
 25 33  1  0  0  0  0
  3  4  1  0  0  0  0
  3  5  1  0  0  0  0
  3  6  1  0  0  0  0
 38 41  1  0  0  0  0
 38 42  1  0  0  0  0
 38 43  1  0  0  0  0
 11 14  1  0  0  0  0
 11 15  1  0  0  0  0
 11 16  1  0  0  0  0
 45 47  1  0  0  0  0
 45 48  1  0  0  0  0
 45 49  1  0  0  0  0
 21 29  1  0  0  0  0
 21 30  1  0  0  0  0
 35 40  1  0  0  0  0
  8 13  1  0  0  0  0
 18 28  1  0  0  0  0
 23 31  1  0  0  0  0
 44 46  1  0  0  0  0
  7 12  1  0  0  0  0
 34 39  1  0  0  0  0
 17 27  1  0  0  0  0
M  END
$$$$

  -OEChem-05262214473D

 49 49  0     1  0  0  0  0  0999 V2000
   -1.5619    0.5658    3.7981 C   0  0  0  0  0  0  0  0  0  0  0  0
   -0.6145   -0.0489    3.3224 O   0  0  0  0  0  0  0  0  0  0  0  0
   -1.9938    0.2834    5.1988 C   0  0  0  0  0  0  0  0  0  0  0  0
   -2.7535   -0.5129    5.2522 H   0  0  0  0  0  0  0  0  0  0  0  0
   -1.1626   -0.0642    5.8331 H   0  0  0  0  0  0  0  0  0  0  0  0
   -2.4318    1.1383    5.7384 H   0  0  0  0  0  0  0  0  0  0  0  0
   -2.3116    1.5383    3.1570 N   0  0  0  0  0  0  0  0  0  0  0  0
   -2.0648    1.9643    1.8046 C   0  0  2  0  0  0  0  0  0  0  0  0
   -0.7298    1.3789    1.3634 C   0  0  0  0  0  0  0  0  0  0  0  0
    0.1423    1.0262    2.1547 O   0  0  0  0  0  0  0  0  0  0  0  0
   -2.0560    3.4811    1.6952 C   0  0  0  0  0  0  0  0  0  0  0  0
   -3.0767    1.9741    3.6688 H   0  0  0  0  0  0  0  0  0  0  0  0
   -2.8689    1.5458    1.1895 H   0  0  0  0  0  0  0  0  0  0  0  0
   -1.2569    3.9183    2.3049 H   0  0  0  0  0  0  0  0  0  0  0  0
   -1.8965    3.8033    0.6609 H   0  0  0  0  0  0  0  0  0  0  0  0
   -3.0062    3.9023    2.0409 H   0  0  0  0  0  0  0  0  0  0  0  0
   -0.6071    1.3358   -0.0200 N   0  0  0  0  0  0  0  0  0  0  0  0
    0.5702    0.8350   -0.6836 C   0  0  2  0  0  0  0  0  0  0  0  0
    1.5130    2.0165   -0.8821 C   0  0  0  0  0  0  0  0  0  0  0  0
    1.1946    3.0301   -1.5003 O   0  0  0  0  0  0  0  0  0  0  0  0
    0.2417    0.1831   -2.0317 C   0  0  0  0  0  0  0  0  0  0  0  0
   -0.6231   -1.0457   -1.8904 C   0  0  0  0  0  0  0  0  0  0  0  0
   -0.1392   -2.2426   -1.4425 N   0  0  0  0  0  0  0  0  0  0  0  0
   -1.9559   -1.2753   -2.1381 C   0  0  0  0  0  0  0  0  0  0  0  0
   -1.1796   -3.1297   -1.4386 C   0  0  0  0  0  0  0  0  0  0  0  0
   -2.2961   -2.5744   -1.8546 N   0  0  0  0  0  0  0  0  0  0  0  0
   -1.3903    1.6325   -0.5973 H   0  0  0  0  0  0  0  0  0  0  0  0
    1.0341    0.1170    0.0028 H   0  0  0  0  0  0  0  0  0  0  0  0
    1.1668   -0.0756   -2.5646 H   0  0  0  0  0  0  0  0  0  0  0  0
   -0.2777    0.8957   -2.6860 H   0  0  0  0  0  0  0  0  0  0  0  0
    0.8135   -2.4397   -1.1653 H   0  0  0  0  0  0  0  0  0  0  0  0
   -2.6900   -0.5728   -2.5061 H   0  0  0  0  0  0  0  0  0  0  0  0
   -1.0575   -4.1563   -1.1239 H   0  0  0  0  0  0  0  0  0  0  0  0
    2.7305    1.8224   -0.2446 N   0  0  0  0  0  0  0  0  0  0  0  0
    3.7962    2.7986   -0.2550 C   0  0  2  0  0  0  0  0  0  0  0  0
    4.0280    3.2264   -1.6982 C   0  0  0  0  0  0  0  0  0  0  0  0
    3.7030    2.5371   -2.6626 O   0  0  0  0  0  0  0  0  0  0  0  0
    5.0695    2.2344    0.3559 C   0  0  0  0  0  0  0  0  0  0  0  0
    2.8801    0.9504    0.2544 H   0  0  0  0  0  0  0  0  0  0  0  0
    3.4451    3.6564    0.3289 H   0  0  0  0  0  0  0  0  0  0  0  0
    5.4364    1.3740   -0.2157 H   0  0  0  0  0  0  0  0  0  0  0  0
    5.8673    2.9842    0.3733 H   0  0  0  0  0  0  0  0  0  0  0  0
    4.8934    1.8998    1.3839 H   0  0  0  0  0  0  0  0  0  0  0  0
    4.6795    4.4490   -1.7818 N   0  0  0  0  0  0  0  0  0  0  0  0
    5.0243    5.0640   -3.0423 C   0  0  0  0  0  0  0  0  0  0  0  0
    4.8942    4.9601   -0.9307 H   0  0  0  0  0  0  0  0  0  0  0  0
    6.0451    4.7696   -3.3275 H   0  0  0  0  0  0  0  0  0  0  0  0
    4.3174    4.7329   -3.8173 H   0  0  0  0  0  0  0  0  0  0  0  0
    4.9729    6.1583   -2.9425 H   0  0  0  0  0  0  0  0  0  0  0  0
 22 24  2  0  0  0  0
 24 26  1  0  0  0  0
 25 26  2  0  0  0  0
 23 25  1  0  0  0  0
 21 22  1  0  0  0  0
 22 23  1  0  0  0  0
  1  3  1  0  0  0  0
  1  7  1  0  0  0  0
  1  2  2  0  0  0  0
 35 36  1  0  0  0  0
 36 44  1  0  0  0  0
 36 37  2  0  0  0  0
  8  9  1  0  0  0  0
  9 17  1  0  0  0  0
  9 10  2  0  0  0  0
 18 19  1  0  0  0  0
 19 34  1  0  0  0  0
 19 20  2  0  0  0  0
 35 38  1  0  0  0  0
  8 11  1  0  0  0  0
 44 45  1  0  0  0  0
 18 21  1  0  0  0  0
 34 35  1  0  0  0  0
  7  8  1  0  0  0  0
 17 18  1  0  0  0  0
 24 32  1  0  0  0  0
 25 33  1  0  0  0  0
  3  4  1  0  0  0  0
  3  5  1  0  0  0  0
  3  6  1  0  0  0  0
 38 41  1  0  0  0  0
 38 42  1  0  0  0  0
 38 43  1  0  0  0  0
 11 14  1  0  0  0  0
 11 15  1  0  0  0  0
 11 16  1  0  0  0  0
 45 47  1  0  0  0  0
 45 48  1  0  0  0  0
 45 49  1  0  0  0  0
 21 29  1  0  0  0  0
 21 30  1  0  0  0  0
 35 40  1  0  0  0  0
  8 13  1  0  0  0  0
 18 28  1  0  0  0  0
 23 31  1  0  0  0  0
 44 46  1  0  0  0  0
  7 12  1  0  0  0  0
 34 39  1  0  0  0  0
 17 27  1  0  0  0  0
M  END
$$$$

  -OEChem-05262214473D

 49 49  0     1  0  0  0  0  0999 V2000
   -1.5619    0.5658    3.7981 C   0  0  0  0  0  0  0  0  0  0  0  0
   -0.6145   -0.0489    3.3224 O   0  0  0  0  0  0  0  0  0  0  0  0
   -1.9938    0.2834    5.1988 C   0  0  0  0  0  0  0  0  0  0  0  0
   -2.7535   -0.5129    5.2522 H   0  0  0  0  0  0  0  0  0  0  0  0
   -1.1626   -0.0642    5.8331 H   0  0  0  0  0  0  0  0  0  0  0  0
   -2.4318    1.1383    5.7384 H   0  0  0  0  0  0  0  0  0  0  0  0
   -2.3116    1.5383    3.1570 N   0  0  0  0  0  0  0  0  0  0  0  0
   -2.0648    1.9643    1.8046 C   0  0  2  0  0  0  0  0  0  0  0  0
   -0.7298    1.3789    1.3634 C   0  0  0  0  0  0  0  0  0  0  0  0
    0.1423    1.0262    2.1547 O   0  0  0  0  0  0  0  0  0  0  0  0
   -2.0560    3.4811    1.6952 C   0  0  0  0  0  0  0  0  0  0  0  0
   -3.0767    1.9741    3.6688 H   0  0  0  0  0  0  0  0  0  0  0  0
   -2.8689    1.5458    1.1895 H   0  0  0  0  0  0  0  0  0  0  0  0
   -1.2569    3.9183    2.3049 H   0  0  0  0  0  0  0  0  0  0  0  0
   -1.8965    3.8033    0.6609 H   0  0  0  0  0  0  0  0  0  0  0  0
   -3.0062    3.9023    2.0409 H   0  0  0  0  0  0  0  0  0  0  0  0
   -0.6071    1.3358   -0.0200 N   0  0  0  0  0  0  0  0  0  0  0  0
    0.5702    0.8350   -0.6836 C   0  0  2  0  0  0  0  0  0  0  0  0
    1.5130    2.0165   -0.8821 C   0  0  0  0  0  0  0  0  0  0  0  0
    1.1297    3.1229   -1.2561 O   0  0  0  0  0  0  0  0  0  0  0  0
    0.2417    0.1831   -2.0317 C   0  0  0  0  0  0  0  0  0  0  0  0
   -0.6231   -1.0457   -1.8904 C   0  0  0  0  0  0  0  0  0  0  0  0
   -0.1392   -2.2426   -1.4425 N   0  0  0  0  0  0  0  0  0  0  0  0
   -1.9559   -1.2753   -2.1381 C   0  0  0  0  0  0  0  0  0  0  0  0
   -1.1796   -3.1297   -1.4386 C   0  0  0  0  0  0  0  0  0  0  0  0
   -2.2961   -2.5744   -1.8546 N   0  0  0  0  0  0  0  0  0  0  0  0
   -1.3903    1.6325   -0.5973 H   0  0  0  0  0  0  0  0  0  0  0  0
    1.0341    0.1170    0.0028 H   0  0  0  0  0  0  0  0  0  0  0  0
    1.1668   -0.0756   -2.5646 H   0  0  0  0  0  0  0  0  0  0  0  0
   -0.2777    0.8957   -2.6860 H   0  0  0  0  0  0  0  0  0  0  0  0
    0.8135   -2.4397   -1.1653 H   0  0  0  0  0  0  0  0  0  0  0  0
   -2.6900   -0.5728   -2.5061 H   0  0  0  0  0  0  0  0  0  0  0  0
   -1.0575   -4.1563   -1.1239 H   0  0  0  0  0  0  0  0  0  0  0  0
    2.8213    1.6997   -0.5439 N   0  0  0  0  0  0  0  0  0  0  0  0
    3.9114    2.6458   -0.6177 C   0  0  2  0  0  0  0  0  0  0  0  0
    3.8742    3.2997   -1.9927 C   0  0  0  0  0  0  0  0  0  0  0  0
    3.3307    2.7831   -2.9667 O   0  0  0  0  0  0  0  0  0  0  0  0
    5.2504    1.9673   -0.3746 C   0  0  0  0  0  0  0  0  0  0  0  0
    3.0228    0.7554   -0.2286 H   0  0  0  0  0  0  0  0  0  0  0  0
    3.7260    3.4026    0.1523 H   0  0  0  0  0  0  0  0  0  0  0  0
    5.4535    1.2057   -1.1363 H   0  0  0  0  0  0  0  0  0  0  0  0
    6.0724    2.6902   -0.4025 H   0  0  0  0  0  0  0  0  0  0  0  0
    5.2648    1.4722    0.6024 H   0  0  0  0  0  0  0  0  0  0  0  0
    4.5566    4.5081   -2.0145 N   0  0  0  0  0  0  0  0  0  0  0  0
    4.6755    5.3148   -3.2066 C   0  0  0  0  0  0  0  0  0  0  0  0
    4.9607    4.8693   -1.1555 H   0  0  0  0  0  0  0  0  0  0  0  0
    5.6037    5.0533   -3.7359 H   0  0  0  0  0  0  0  0  0  0  0  0
    3.8135    5.1272   -3.8637 H   0  0  0  0  0  0  0  0  0  0  0  0
    4.6996    6.3787   -2.9283 H   0  0  0  0  0  0  0  0  0  0  0  0
 22 24  2  0  0  0  0
 24 26  1  0  0  0  0
 25 26  2  0  0  0  0
 23 25  1  0  0  0  0
 21 22  1  0  0  0  0
 22 23  1  0  0  0  0
  1  3  1  0  0  0  0
  1  7  1  0  0  0  0
  1  2  2  0  0  0  0
 35 36  1  0  0  0  0
 36 44  1  0  0  0  0
 36 37  2  0  0  0  0
  8  9  1  0  0  0  0
  9 17  1  0  0  0  0
  9 10  2  0  0  0  0
 18 19  1  0  0  0  0
 19 34  1  0  0  0  0
 19 20  2  0  0  0  0
 35 38  1  0  0  0  0
  8 11  1  0  0  0  0
 44 45  1  0  0  0  0
 18 21  1  0  0  0  0
 34 35  1  0  0  0  0
  7  8  1  0  0  0  0
 17 18  1  0  0  0  0
 24 32  1  0  0  0  0
 25 33  1  0  0  0  0
  3  4  1  0  0  0  0
  3  5  1  0  0  0  0
  3  6  1  0  0  0  0
 38 41  1  0  0  0  0
 38 42  1  0  0  0  0
 38 43  1  0  0  0  0
 11 14  1  0  0  0  0
 11 15  1  0  0  0  0
 11 16  1  0  0  0  0
 45 47  1  0  0  0  0
 45 48  1  0  0  0  0
 45 49  1  0  0  0  0
 21 29  1  0  0  0  0
 21 30  1  0  0  0  0
 35 40  1  0  0  0  0
  8 13  1  0  0  0  0
 18 28  1  0  0  0  0
 23 31  1  0  0  0  0
 44 46  1  0  0  0  0
  7 12  1  0  0  0  0
 34 39  1  0  0  0  0
 17 27  1  0  0  0  0
M  END
$$$$

  -OEChem-05262214473D

 49 49  0     1  0  0  0  0  0999 V2000
   -1.5619    0.5658    3.7981 C   0  0  0  0  0  0  0  0  0  0  0  0
   -0.6145   -0.0489    3.3224 O   0  0  0  0  0  0  0  0  0  0  0  0
   -1.9938    0.2834    5.1988 C   0  0  0  0  0  0  0  0  0  0  0  0
   -2.7535   -0.5129    5.2522 H   0  0  0  0  0  0  0  0  0  0  0  0
   -1.1626   -0.0642    5.8331 H   0  0  0  0  0  0  0  0  0  0  0  0
   -2.4318    1.1383    5.7384 H   0  0  0  0  0  0  0  0  0  0  0  0
   -2.3116    1.5383    3.1570 N   0  0  0  0  0  0  0  0  0  0  0  0
   -2.0648    1.9643    1.8046 C   0  0  2  0  0  0  0  0  0  0  0  0
   -0.7298    1.3789    1.3634 C   0  0  0  0  0  0  0  0  0  0  0  0
    0.1423    1.0262    2.1547 O   0  0  0  0  0  0  0  0  0  0  0  0
   -2.0560    3.4811    1.6952 C   0  0  0  0  0  0  0  0  0  0  0  0
   -3.0767    1.9741    3.6688 H   0  0  0  0  0  0  0  0  0  0  0  0
   -2.8689    1.5458    1.1895 H   0  0  0  0  0  0  0  0  0  0  0  0
   -1.2569    3.9183    2.3049 H   0  0  0  0  0  0  0  0  0  0  0  0
   -1.8965    3.8033    0.6609 H   0  0  0  0  0  0  0  0  0  0  0  0
   -3.0062    3.9023    2.0409 H   0  0  0  0  0  0  0  0  0  0  0  0
   -0.6071    1.3358   -0.0200 N   0  0  0  0  0  0  0  0  0  0  0  0
    0.5702    0.8350   -0.6836 C   0  0  2  0  0  0  0  0  0  0  0  0
    1.5130    2.0165   -0.8821 C   0  0  0  0  0  0  0  0  0  0  0  0
    1.1192    3.1757   -0.9923 O   0  0  0  0  0  0  0  0  0  0  0  0
    0.2417    0.1831   -2.0317 C   0  0  0  0  0  0  0  0  0  0  0  0
   -0.6231   -1.0457   -1.8904 C   0  0  0  0  0  0  0  0  0  0  0  0
   -0.1392   -2.2426   -1.4425 N   0  0  0  0  0  0  0  0  0  0  0  0
   -1.9559   -1.2753   -2.1381 C   0  0  0  0  0  0  0  0  0  0  0  0
   -1.1796   -3.1297   -1.4386 C   0  0  0  0  0  0  0  0  0  0  0  0
   -2.2961   -2.5744   -1.8546 N   0  0  0  0  0  0  0  0  0  0  0  0
   -1.3903    1.6325   -0.5973 H   0  0  0  0  0  0  0  0  0  0  0  0
    1.0341    0.1170    0.0028 H   0  0  0  0  0  0  0  0  0  0  0  0
    1.1668   -0.0756   -2.5646 H   0  0  0  0  0  0  0  0  0  0  0  0
   -0.2777    0.8957   -2.6860 H   0  0  0  0  0  0  0  0  0  0  0  0
    0.8135   -2.4397   -1.1653 H   0  0  0  0  0  0  0  0  0  0  0  0
   -2.6900   -0.5728   -2.5061 H   0  0  0  0  0  0  0  0  0  0  0  0
   -1.0575   -4.1563   -1.1239 H   0  0  0  0  0  0  0  0  0  0  0  0
    2.8448    1.6260   -0.8709 N   0  0  0  0  0  0  0  0  0  0  0  0
    3.9447    2.5524   -1.0157 C   0  0  2  0  0  0  0  0  0  0  0  0
    3.6690    3.4229   -2.2346 C   0  0  0  0  0  0  0  0  0  0  0  0
    2.9184    3.0819   -3.1464 O   0  0  0  0  0  0  0  0  0  0  0  0
    5.2697    1.8201   -1.1592 C   0  0  0  0  0  0  0  0  0  0  0  0
    3.0573    0.6395   -0.7550 H   0  0  0  0  0  0  0  0  0  0  0  0
    3.9534    3.1762   -0.1152 H   0  0  0  0  0  0  0  0  0  0  0  0
    5.2798    1.1899   -2.0560 H   0  0  0  0  0  0  0  0  0  0  0  0
    6.1051    2.5234   -1.2401 H   0  0  0  0  0  0  0  0  0  0  0  0
    5.4523    1.1718   -0.2954 H   0  0  0  0  0  0  0  0  0  0  0  0
    4.3931    4.6065   -2.2052 N   0  0  0  0  0  0  0  0  0  0  0  0
    4.3141    5.5951   -3.2552 C   0  0  0  0  0  0  0  0  0  0  0  0
    4.9768    4.8153   -1.4005 H   0  0  0  0  0  0  0  0  0  0  0  0
    5.1049    5.4075   -3.9964 H   0  0  0  0  0  0  0  0  0  0  0  0
    3.3309    5.5324   -3.7444 H   0  0  0  0  0  0  0  0  0  0  0  0
    4.4460    6.5986   -2.8244 H   0  0  0  0  0  0  0  0  0  0  0  0
 22 24  2  0  0  0  0
 24 26  1  0  0  0  0
 25 26  2  0  0  0  0
 23 25  1  0  0  0  0
 21 22  1  0  0  0  0
 22 23  1  0  0  0  0
  1  3  1  0  0  0  0
  1  7  1  0  0  0  0
  1  2  2  0  0  0  0
 35 36  1  0  0  0  0
 36 44  1  0  0  0  0
 36 37  2  0  0  0  0
  8  9  1  0  0  0  0
  9 17  1  0  0  0  0
  9 10  2  0  0  0  0
 18 19  1  0  0  0  0
 19 34  1  0  0  0  0
 19 20  2  0  0  0  0
 35 38  1  0  0  0  0
  8 11  1  0  0  0  0
 44 45  1  0  0  0  0
 18 21  1  0  0  0  0
 34 35  1  0  0  0  0
  7  8  1  0  0  0  0
 17 18  1  0  0  0  0
 24 32  1  0  0  0  0
 25 33  1  0  0  0  0
  3  4  1  0  0  0  0
  3  5  1  0  0  0  0
  3  6  1  0  0  0  0
 38 41  1  0  0  0  0
 38 42  1  0  0  0  0
 38 43  1  0  0  0  0
 11 14  1  0  0  0  0
 11 15  1  0  0  0  0
 11 16  1  0  0  0  0
 45 47  1  0  0  0  0
 45 48  1  0  0  0  0
 45 49  1  0  0  0  0
 21 29  1  0  0  0  0
 21 30  1  0  0  0  0
 35 40  1  0  0  0  0
  8 13  1  0  0  0  0
 18 28  1  0  0  0  0
 23 31  1  0  0  0  0
 44 46  1  0  0  0  0
  7 12  1  0  0  0  0
 34 39  1  0  0  0  0
 17 27  1  0  0  0  0
M  END
$$$$

  -OEChem-05262214473D

 49 49  0     1  0  0  0  0  0999 V2000
   -1.5619    0.5658    3.7981 C   0  0  0  0  0  0  0  0  0  0  0  0
   -0.6145   -0.0489    3.3224 O   0  0  0  0  0  0  0  0  0  0  0  0
   -1.9938    0.2834    5.1988 C   0  0  0  0  0  0  0  0  0  0  0  0
   -2.7535   -0.5129    5.2522 H   0  0  0  0  0  0  0  0  0  0  0  0
   -1.1626   -0.0642    5.8331 H   0  0  0  0  0  0  0  0  0  0  0  0
   -2.4318    1.1383    5.7384 H   0  0  0  0  0  0  0  0  0  0  0  0
   -2.3116    1.5383    3.1570 N   0  0  0  0  0  0  0  0  0  0  0  0
   -2.0648    1.9643    1.8046 C   0  0  2  0  0  0  0  0  0  0  0  0
   -0.7298    1.3789    1.3634 C   0  0  0  0  0  0  0  0  0  0  0  0
    0.1423    1.0262    2.1547 O   0  0  0  0  0  0  0  0  0  0  0  0
   -2.0560    3.4811    1.6952 C   0  0  0  0  0  0  0  0  0  0  0  0
   -3.0767    1.9741    3.6688 H   0  0  0  0  0  0  0  0  0  0  0  0
   -2.8689    1.5458    1.1895 H   0  0  0  0  0  0  0  0  0  0  0  0
   -1.2569    3.9183    2.3049 H   0  0  0  0  0  0  0  0  0  0  0  0
   -1.8965    3.8033    0.6609 H   0  0  0  0  0  0  0  0  0  0  0  0
   -3.0062    3.9023    2.0409 H   0  0  0  0  0  0  0  0  0  0  0  0
   -0.6071    1.3358   -0.0200 N   0  0  0  0  0  0  0  0  0  0  0  0
    0.5702    0.8350   -0.6836 C   0  0  2  0  0  0  0  0  0  0  0  0
    1.5130    2.0165   -0.8821 C   0  0  0  0  0  0  0  0  0  0  0  0
    1.1636    3.1847   -0.7270 O   0  0  0  0  0  0  0  0  0  0  0  0
    0.2417    0.1831   -2.0317 C   0  0  0  0  0  0  0  0  0  0  0  0
   -0.6231   -1.0457   -1.8904 C   0  0  0  0  0  0  0  0  0  0  0  0
   -0.1392   -2.2426   -1.4425 N   0  0  0  0  0  0  0  0  0  0  0  0
   -1.9559   -1.2753   -2.1381 C   0  0  0  0  0  0  0  0  0  0  0  0
   -1.1796   -3.1297   -1.4386 C   0  0  0  0  0  0  0  0  0  0  0  0
   -2.2961   -2.5744   -1.8546 N   0  0  0  0  0  0  0  0  0  0  0  0
   -1.3903    1.6325   -0.5973 H   0  0  0  0  0  0  0  0  0  0  0  0
    1.0341    0.1170    0.0028 H   0  0  0  0  0  0  0  0  0  0  0  0
    1.1668   -0.0756   -2.5646 H   0  0  0  0  0  0  0  0  0  0  0  0
   -0.2777    0.8957   -2.6860 H   0  0  0  0  0  0  0  0  0  0  0  0
    0.8135   -2.4397   -1.1653 H   0  0  0  0  0  0  0  0  0  0  0  0
   -2.6900   -0.5728   -2.5061 H   0  0  0  0  0  0  0  0  0  0  0  0
   -1.0575   -4.1563   -1.1239 H   0  0  0  0  0  0  0  0  0  0  0  0
    2.7995    1.6064   -1.2032 N   0  0  0  0  0  0  0  0  0  0  0  0
    3.8939    2.5247   -1.4217 C   0  0  2  0  0  0  0  0  0  0  0  0
    3.4264    3.5874   -2.4074 C   0  0  0  0  0  0  0  0  0  0  0  0
    2.4941    3.4132   -3.1895 O   0  0  0  0  0  0  0  0  0  0  0  0
    5.1260    1.8028   -1.9445 C   0  0  0  0  0  0  0  0  0  0  0  0
    2.9810    0.6107   -1.2890 H   0  0  0  0  0  0  0  0  0  0  0  0
    4.1118    2.9926   -0.4554 H   0  0  0  0  0  0  0  0  0  0  0  0
    4.9269    1.3277   -2.9120 H   0  0  0  0  0  0  0  0  0  0  0  0
    5.9630    2.4954   -2.0824 H   0  0  0  0  0  0  0  0  0  0  0  0
    5.4432    1.0190   -1.2483 H   0  0  0  0  0  0  0  0  0  0  0  0
    4.2003    4.7376   -2.3408 N   0  0  0  0  0  0  0  0  0  0  0  0
    3.9647    5.8858   -3.1847 C   0  0  0  0  0  0  0  0  0  0  0  0
    4.9413    4.8019   -1.6491 H   0  0  0  0  0  0  0  0  0  0  0  0
    4.5828    5.8082   -4.0913 H   0  0  0  0  0  0  0  0  0  0  0  0
    2.9022    5.9210   -3.4674 H   0  0  0  0  0  0  0  0  0  0  0  0
    4.2292    6.8029   -2.6380 H   0  0  0  0  0  0  0  0  0  0  0  0
 22 24  2  0  0  0  0
 24 26  1  0  0  0  0
 25 26  2  0  0  0  0
 23 25  1  0  0  0  0
 21 22  1  0  0  0  0
 22 23  1  0  0  0  0
  1  3  1  0  0  0  0
  1  7  1  0  0  0  0
  1  2  2  0  0  0  0
 35 36  1  0  0  0  0
 36 44  1  0  0  0  0
 36 37  2  0  0  0  0
  8  9  1  0  0  0  0
  9 17  1  0  0  0  0
  9 10  2  0  0  0  0
 18 19  1  0  0  0  0
 19 34  1  0  0  0  0
 19 20  2  0  0  0  0
 35 38  1  0  0  0  0
  8 11  1  0  0  0  0
 44 45  1  0  0  0  0
 18 21  1  0  0  0  0
 34 35  1  0  0  0  0
  7  8  1  0  0  0  0
 17 18  1  0  0  0  0
 24 32  1  0  0  0  0
 25 33  1  0  0  0  0
  3  4  1  0  0  0  0
  3  5  1  0  0  0  0
  3  6  1  0  0  0  0
 38 41  1  0  0  0  0
 38 42  1  0  0  0  0
 38 43  1  0  0  0  0
 11 14  1  0  0  0  0
 11 15  1  0  0  0  0
 11 16  1  0  0  0  0
 45 47  1  0  0  0  0
 45 48  1  0  0  0  0
 45 49  1  0  0  0  0
 21 29  1  0  0  0  0
 21 30  1  0  0  0  0
 35 40  1  0  0  0  0
  8 13  1  0  0  0  0
 18 28  1  0  0  0  0
 23 31  1  0  0  0  0
 44 46  1  0  0  0  0
  7 12  1  0  0  0  0
 34 39  1  0  0  0  0
 17 27  1  0  0  0  0
M  END
$$$$

  -OEChem-05262214473D

 49 49  0     1  0  0  0  0  0999 V2000
   -1.5619    0.5658    3.7981 C   0  0  0  0  0  0  0  0  0  0  0  0
   -0.6145   -0.0489    3.3224 O   0  0  0  0  0  0  0  0  0  0  0  0
   -1.9938    0.2834    5.1988 C   0  0  0  0  0  0  0  0  0  0  0  0
   -2.7535   -0.5129    5.2522 H   0  0  0  0  0  0  0  0  0  0  0  0
   -1.1626   -0.0642    5.8331 H   0  0  0  0  0  0  0  0  0  0  0  0
   -2.4318    1.1383    5.7384 H   0  0  0  0  0  0  0  0  0  0  0  0
   -2.3116    1.5383    3.1570 N   0  0  0  0  0  0  0  0  0  0  0  0
   -2.0648    1.9643    1.8046 C   0  0  2  0  0  0  0  0  0  0  0  0
   -0.7298    1.3789    1.3634 C   0  0  0  0  0  0  0  0  0  0  0  0
    0.1423    1.0262    2.1547 O   0  0  0  0  0  0  0  0  0  0  0  0
   -2.0560    3.4811    1.6952 C   0  0  0  0  0  0  0  0  0  0  0  0
   -3.0767    1.9741    3.6688 H   0  0  0  0  0  0  0  0  0  0  0  0
   -2.8689    1.5458    1.1895 H   0  0  0  0  0  0  0  0  0  0  0  0
   -1.2569    3.9183    2.3049 H   0  0  0  0  0  0  0  0  0  0  0  0
   -1.8965    3.8033    0.6609 H   0  0  0  0  0  0  0  0  0  0  0  0
   -3.0062    3.9023    2.0409 H   0  0  0  0  0  0  0  0  0  0  0  0
   -0.6071    1.3358   -0.0200 N   0  0  0  0  0  0  0  0  0  0  0  0
    0.5702    0.8350   -0.6836 C   0  0  2  0  0  0  0  0  0  0  0  0
    1.6521    1.9005   -0.5478 C   0  0  0  0  0  0  0  0  0  0  0  0
    1.4846    2.9490    0.0714 O   0  0  0  0  0  0  0  0  0  0  0  0
    0.3126    0.5226   -2.1622 C   0  0  0  0  0  0  0  0  0  0  0  0
   -0.6915   -0.5871   -2.3579 C   0  0  0  0  0  0  0  0  0  0  0  0
   -0.3902   -1.9027   -2.1443 N   0  0  0  0  0  0  0  0  0  0  0  0
   -2.0089   -0.5870   -2.7515 C   0  0  0  0  0  0  0  0  0  0  0  0
   -1.5163   -2.6299   -2.4131 C   0  0  0  0  0  0  0  0  0  0  0  0
   -2.5166   -1.8617   -2.7835 N   0  0  0  0  0  0  0  0  0  0  0  0
   -1.3903    1.6325   -0.5973 H   0  0  0  0  0  0  0  0  0  0  0  0
    0.8797   -0.0627   -0.1356 H   0  0  0  0  0  0  0  0  0  0  0  0
    1.2536    0.2623   -2.6656 H   0  0  0  0  0  0  0  0  0  0  0  0
   -0.0557    1.4155   -2.6844 H   0  0  0  0  0  0  0  0  0  0  0  0
    0.5016   -2.2737   -1.8438 H   0  0  0  0  0  0  0  0  0  0  0  0
   -2.6200    0.2648   -3.0139 H   0  0  0  0  0  0  0  0  0  0  0  0
   -1.5404   -3.7064   -2.3200 H   0  0  0  0  0  0  0  0  0  0  0  0
    2.8385    1.5169   -1.1575 N   0  0  0  0  0  0  0  0  0  0  0  0
    4.0312    2.3332   -1.1566 C   0  0  2  0  0  0  0  0  0  0  0  0
    3.6428    3.7338   -1.6114 C   0  0  0  0  0  0  0  0  0  0  0  0
    2.6369    3.9678   -2.2781 O   0  0  0  0  0  0  0  0  0  0  0  0
    5.1041    1.7461   -2.0605 C   0  0  0  0  0  0  0  0  0  0  0  0
    2.8701    0.6172   -1.6279 H   0  0  0  0  0  0  0  0  0  0  0  0
    4.3882    2.3705   -0.1216 H   0  0  0  0  0  0  0  0  0  0  0  0
    4.7646    1.7007   -3.1017 H   0  0  0  0  0  0  0  0  0  0  0  0
    6.0171    2.3502   -2.0366 H   0  0  0  0  0  0  0  0  0  0  0  0
    5.3609    0.7276   -1.7499 H   0  0  0  0  0  0  0  0  0  0  0  0
    4.5744    4.6860   -1.2221 N   0  0  0  0  0  0  0  0  0  0  0  0
    4.4380    6.0874   -1.5439 C   0  0  0  0  0  0  0  0  0  0  0  0
    5.3690    4.4051   -0.6551 H   0  0  0  0  0  0  0  0  0  0  0  0
    4.9661    6.3011   -2.4850 H   0  0  0  0  0  0  0  0  0  0  0  0
    3.3724    6.3355   -1.6571 H   0  0  0  0  0  0  0  0  0  0  0  0
    4.8716    6.6932   -0.7346 H   0  0  0  0  0  0  0  0  0  0  0  0
 22 24  2  0  0  0  0
 24 26  1  0  0  0  0
 25 26  2  0  0  0  0
 23 25  1  0  0  0  0
 21 22  1  0  0  0  0
 22 23  1  0  0  0  0
  1  3  1  0  0  0  0
  1  7  1  0  0  0  0
  1  2  2  0  0  0  0
 35 36  1  0  0  0  0
 36 44  1  0  0  0  0
 36 37  2  0  0  0  0
  8  9  1  0  0  0  0
  9 17  1  0  0  0  0
  9 10  2  0  0  0  0
 18 19  1  0  0  0  0
 19 34  1  0  0  0  0
 19 20  2  0  0  0  0
 35 38  1  0  0  0  0
  8 11  1  0  0  0  0
 44 45  1  0  0  0  0
 18 21  1  0  0  0  0
 34 35  1  0  0  0  0
  7  8  1  0  0  0  0
 17 18  1  0  0  0  0
 24 32  1  0  0  0  0
 25 33  1  0  0  0  0
  3  4  1  0  0  0  0
  3  5  1  0  0  0  0
  3  6  1  0  0  0  0
 38 41  1  0  0  0  0
 38 42  1  0  0  0  0
 38 43  1  0  0  0  0
 11 14  1  0  0  0  0
 11 15  1  0  0  0  0
 11 16  1  0  0  0  0
 45 47  1  0  0  0  0
 45 48  1  0  0  0  0
 45 49  1  0  0  0  0
 21 29  1  0  0  0  0
 21 30  1  0  0  0  0
 35 40  1  0  0  0  0
  8 13  1  0  0  0  0
 18 28  1  0  0  0  0
 23 31  1  0  0  0  0
 44 46  1  0  0  0  0
  7 12  1  0  0  0  0
 34 39  1  0  0  0  0
 17 27  1  0  0  0  0
M  END
$$$$

  -OEChem-05262214473D

 49 49  0     1  0  0  0  0  0999 V2000
   -1.5619    0.5658    3.7981 C   0  0  0  0  0  0  0  0  0  0  0  0
   -0.6145   -0.0489    3.3224 O   0  0  0  0  0  0  0  0  0  0  0  0
   -1.9938    0.2834    5.1988 C   0  0  0  0  0  0  0  0  0  0  0  0
   -2.7535   -0.5129    5.2522 H   0  0  0  0  0  0  0  0  0  0  0  0
   -1.1626   -0.0642    5.8331 H   0  0  0  0  0  0  0  0  0  0  0  0
   -2.4318    1.1383    5.7384 H   0  0  0  0  0  0  0  0  0  0  0  0
   -2.3116    1.5383    3.1570 N   0  0  0  0  0  0  0  0  0  0  0  0
   -2.0648    1.9643    1.8046 C   0  0  2  0  0  0  0  0  0  0  0  0
   -0.7298    1.3789    1.3634 C   0  0  0  0  0  0  0  0  0  0  0  0
    0.1423    1.0262    2.1547 O   0  0  0  0  0  0  0  0  0  0  0  0
   -2.0560    3.4811    1.6952 C   0  0  0  0  0  0  0  0  0  0  0  0
   -3.0767    1.9741    3.6688 H   0  0  0  0  0  0  0  0  0  0  0  0
   -2.8689    1.5458    1.1895 H   0  0  0  0  0  0  0  0  0  0  0  0
   -1.2569    3.9183    2.3049 H   0  0  0  0  0  0  0  0  0  0  0  0
   -1.8965    3.8033    0.6609 H   0  0  0  0  0  0  0  0  0  0  0  0
   -3.0062    3.9023    2.0409 H   0  0  0  0  0  0  0  0  0  0  0  0
   -0.6071    1.3358   -0.0200 N   0  0  0  0  0  0  0  0  0  0  0  0
    0.5702    0.8350   -0.6836 C   0  0  2  0  0  0  0  0  0  0  0  0
    1.6521    1.9005   -0.5478 C   0  0  0  0  0  0  0  0  0  0  0  0
    1.5943    2.8116    0.2752 O   0  0  0  0  0  0  0  0  0  0  0  0
    0.3126    0.5226   -2.1622 C   0  0  0  0  0  0  0  0  0  0  0  0
   -0.6915   -0.5871   -2.3579 C   0  0  0  0  0  0  0  0  0  0  0  0
   -0.3902   -1.9027   -2.1443 N   0  0  0  0  0  0  0  0  0  0  0  0
   -2.0089   -0.5870   -2.7515 C   0  0  0  0  0  0  0  0  0  0  0  0
   -1.5163   -2.6299   -2.4131 C   0  0  0  0  0  0  0  0  0  0  0  0
   -2.5166   -1.8617   -2.7835 N   0  0  0  0  0  0  0  0  0  0  0  0
   -1.3903    1.6325   -0.5973 H   0  0  0  0  0  0  0  0  0  0  0  0
    0.8797   -0.0627   -0.1356 H   0  0  0  0  0  0  0  0  0  0  0  0
    1.2536    0.2623   -2.6656 H   0  0  0  0  0  0  0  0  0  0  0  0
   -0.0557    1.4155   -2.6844 H   0  0  0  0  0  0  0  0  0  0  0  0
    0.5016   -2.2737   -1.8438 H   0  0  0  0  0  0  0  0  0  0  0  0
   -2.6200    0.2648   -3.0139 H   0  0  0  0  0  0  0  0  0  0  0  0
   -1.5404   -3.7064   -2.3200 H   0  0  0  0  0  0  0  0  0  0  0  0
    2.7092    1.6817   -1.4202 N   0  0  0  0  0  0  0  0  0  0  0  0
    3.8769    2.5312   -1.4809 C   0  0  2  0  0  0  0  0  0  0  0  0
    3.4032    3.9745   -1.5907 C   0  0  0  0  0  0  0  0  0  0  0  0
    2.2908    4.2852   -2.0116 O   0  0  0  0  0  0  0  0  0  0  0  0
    4.7698    2.1614   -2.6550 C   0  0  0  0  0  0  0  0  0  0  0  0
    2.6597    0.8843   -2.0475 H   0  0  0  0  0  0  0  0  0  0  0  0
    4.4170    2.3943   -0.5377 H   0  0  0  0  0  0  0  0  0  0  0  0
    4.2457    2.2922   -3.6088 H   0  0  0  0  0  0  0  0  0  0  0  0
    5.6680    2.7870   -2.6829 H   0  0  0  0  0  0  0  0  0  0  0  0
    5.0853    1.1145   -2.5901 H   0  0  0  0  0  0  0  0  0  0  0  0
    4.3844    4.8767   -1.2040 N   0  0  0  0  0  0  0  0  0  0  0  0
    4.1828    6.3066   -1.2303 C   0  0  0  0  0  0  0  0  0  0  0  0
    5.2710    4.5294   -0.8504 H   0  0  0  0  0  0  0  0  0  0  0  0
    4.5283    6.7085   -2.1942 H   0  0  0  0  0  0  0  0  0  0  0  0
    3.1129    6.5283   -1.1031 H   0  0  0  0  0  0  0  0  0  0  0  0
    4.7534    6.7723   -0.4133 H   0  0  0  0  0  0  0  0  0  0  0  0
 22 24  2  0  0  0  0
 24 26  1  0  0  0  0
 25 26  2  0  0  0  0
 23 25  1  0  0  0  0
 21 22  1  0  0  0  0
 22 23  1  0  0  0  0
  1  3  1  0  0  0  0
  1  7  1  0  0  0  0
  1  2  2  0  0  0  0
 35 36  1  0  0  0  0
 36 44  1  0  0  0  0
 36 37  2  0  0  0  0
  8  9  1  0  0  0  0
  9 17  1  0  0  0  0
  9 10  2  0  0  0  0
 18 19  1  0  0  0  0
 19 34  1  0  0  0  0
 19 20  2  0  0  0  0
 35 38  1  0  0  0  0
  8 11  1  0  0  0  0
 44 45  1  0  0  0  0
 18 21  1  0  0  0  0
 34 35  1  0  0  0  0
  7  8  1  0  0  0  0
 17 18  1  0  0  0  0
 24 32  1  0  0  0  0
 25 33  1  0  0  0  0
  3  4  1  0  0  0  0
  3  5  1  0  0  0  0
  3  6  1  0  0  0  0
 38 41  1  0  0  0  0
 38 42  1  0  0  0  0
 38 43  1  0  0  0  0
 11 14  1  0  0  0  0
 11 15  1  0  0  0  0
 11 16  1  0  0  0  0
 45 47  1  0  0  0  0
 45 48  1  0  0  0  0
 45 49  1  0  0  0  0
 21 29  1  0  0  0  0
 21 30  1  0  0  0  0
 35 40  1  0  0  0  0
  8 13  1  0  0  0  0
 18 28  1  0  0  0  0
 23 31  1  0  0  0  0
 44 46  1  0  0  0  0
  7 12  1  0  0  0  0
 34 39  1  0  0  0  0
 17 27  1  0  0  0  0
M  END
$$$$

  -OEChem-05262214473D

 49 49  0     1  0  0  0  0  0999 V2000
   -1.5619    0.5658    3.7981 C   0  0  0  0  0  0  0  0  0  0  0  0
   -0.6145   -0.0489    3.3224 O   0  0  0  0  0  0  0  0  0  0  0  0
   -1.9938    0.2834    5.1988 C   0  0  0  0  0  0  0  0  0  0  0  0
   -2.7535   -0.5129    5.2522 H   0  0  0  0  0  0  0  0  0  0  0  0
   -1.1626   -0.0642    5.8331 H   0  0  0  0  0  0  0  0  0  0  0  0
   -2.4318    1.1383    5.7384 H   0  0  0  0  0  0  0  0  0  0  0  0
   -2.3116    1.5383    3.1570 N   0  0  0  0  0  0  0  0  0  0  0  0
   -2.0648    1.9643    1.8046 C   0  0  2  0  0  0  0  0  0  0  0  0
   -0.7298    1.3789    1.3634 C   0  0  0  0  0  0  0  0  0  0  0  0
    0.1423    1.0262    2.1547 O   0  0  0  0  0  0  0  0  0  0  0  0
   -2.0560    3.4811    1.6952 C   0  0  0  0  0  0  0  0  0  0  0  0
   -3.0767    1.9741    3.6688 H   0  0  0  0  0  0  0  0  0  0  0  0
   -2.8689    1.5458    1.1895 H   0  0  0  0  0  0  0  0  0  0  0  0
   -1.2569    3.9183    2.3049 H   0  0  0  0  0  0  0  0  0  0  0  0
   -1.8965    3.8033    0.6609 H   0  0  0  0  0  0  0  0  0  0  0  0
   -3.0062    3.9023    2.0409 H   0  0  0  0  0  0  0  0  0  0  0  0
   -0.6071    1.3358   -0.0200 N   0  0  0  0  0  0  0  0  0  0  0  0
    0.5702    0.8350   -0.6836 C   0  0  2  0  0  0  0  0  0  0  0  0
    1.6521    1.9005   -0.5478 C   0  0  0  0  0  0  0  0  0  0  0  0
    1.7404    2.6440    0.4270 O   0  0  0  0  0  0  0  0  0  0  0  0
    0.3126    0.5226   -2.1622 C   0  0  0  0  0  0  0  0  0  0  0  0
   -0.6915   -0.5871   -2.3579 C   0  0  0  0  0  0  0  0  0  0  0  0
   -0.3902   -1.9027   -2.1443 N   0  0  0  0  0  0  0  0  0  0  0  0
   -2.0089   -0.5870   -2.7515 C   0  0  0  0  0  0  0  0  0  0  0  0
   -1.5163   -2.6299   -2.4131 C   0  0  0  0  0  0  0  0  0  0  0  0
   -2.5166   -1.8617   -2.7835 N   0  0  0  0  0  0  0  0  0  0  0  0
   -1.3903    1.6325   -0.5973 H   0  0  0  0  0  0  0  0  0  0  0  0
    0.8797   -0.0627   -0.1356 H   0  0  0  0  0  0  0  0  0  0  0  0
    1.2536    0.2623   -2.6656 H   0  0  0  0  0  0  0  0  0  0  0  0
   -0.0557    1.4155   -2.6844 H   0  0  0  0  0  0  0  0  0  0  0  0
    0.5016   -2.2737   -1.8438 H   0  0  0  0  0  0  0  0  0  0  0  0
   -2.6200    0.2648   -3.0139 H   0  0  0  0  0  0  0  0  0  0  0  0
   -1.5404   -3.7064   -2.3200 H   0  0  0  0  0  0  0  0  0  0  0  0
    2.5330    1.8861   -1.6203 N   0  0  0  0  0  0  0  0  0  0  0  0
    3.6646    2.7785   -1.7298 C   0  0  2  0  0  0  0  0  0  0  0  0
    3.1699    4.1977   -1.4831 C   0  0  0  0  0  0  0  0  0  0  0  0
    1.9974    4.5349   -1.6332 O   0  0  0  0  0  0  0  0  0  0  0  0
    4.3298    2.6640   -3.0926 C   0  0  0  0  0  0  0  0  0  0  0  0
    2.3745    1.2146   -2.3657 H   0  0  0  0  0  0  0  0  0  0  0  0
    4.3690    2.4943   -0.9405 H   0  0  0  0  0  0  0  0  0  0  0  0
    3.6392    2.9448   -3.8961 H   0  0  0  0  0  0  0  0  0  0  0  0
    5.2038    3.3197   -3.1638 H   0  0  0  0  0  0  0  0  0  0  0  0
    4.6583    1.6361   -3.2807 H   0  0  0  0  0  0  0  0  0  0  0  0
    4.1998    5.0531   -1.1173 N   0  0  0  0  0  0  0  0  0  0  0  0
    3.9879    6.4548   -0.8409 C   0  0  0  0  0  0  0  0  0  0  0  0
    5.1383    4.6832   -0.9986 H   0  0  0  0  0  0  0  0  0  0  0  0
    4.1487    7.0385   -1.7593 H   0  0  0  0  0  0  0  0  0  0  0  0
    2.9581    6.6068   -0.4856 H   0  0  0  0  0  0  0  0  0  0  0  0
    4.6956    6.7868   -0.0670 H   0  0  0  0  0  0  0  0  0  0  0  0
 22 24  2  0  0  0  0
 24 26  1  0  0  0  0
 25 26  2  0  0  0  0
 23 25  1  0  0  0  0
 21 22  1  0  0  0  0
 22 23  1  0  0  0  0
  1  3  1  0  0  0  0
  1  7  1  0  0  0  0
  1  2  2  0  0  0  0
 35 36  1  0  0  0  0
 36 44  1  0  0  0  0
 36 37  2  0  0  0  0
  8  9  1  0  0  0  0
  9 17  1  0  0  0  0
  9 10  2  0  0  0  0
 18 19  1  0  0  0  0
 19 34  1  0  0  0  0
 19 20  2  0  0  0  0
 35 38  1  0  0  0  0
  8 11  1  0  0  0  0
 44 45  1  0  0  0  0
 18 21  1  0  0  0  0
 34 35  1  0  0  0  0
  7  8  1  0  0  0  0
 17 18  1  0  0  0  0
 24 32  1  0  0  0  0
 25 33  1  0  0  0  0
  3  4  1  0  0  0  0
  3  5  1  0  0  0  0
  3  6  1  0  0  0  0
 38 41  1  0  0  0  0
 38 42  1  0  0  0  0
 38 43  1  0  0  0  0
 11 14  1  0  0  0  0
 11 15  1  0  0  0  0
 11 16  1  0  0  0  0
 45 47  1  0  0  0  0
 45 48  1  0  0  0  0
 45 49  1  0  0  0  0
 21 29  1  0  0  0  0
 21 30  1  0  0  0  0
 35 40  1  0  0  0  0
  8 13  1  0  0  0  0
 18 28  1  0  0  0  0
 23 31  1  0  0  0  0
 44 46  1  0  0  0  0
  7 12  1  0  0  0  0
 34 39  1  0  0  0  0
 17 27  1  0  0  0  0
M  END
$$$$

  -OEChem-05262214473D

 49 49  0     1  0  0  0  0  0999 V2000
   -1.5619    0.5658    3.7981 C   0  0  0  0  0  0  0  0  0  0  0  0
   -0.6145   -0.0489    3.3224 O   0  0  0  0  0  0  0  0  0  0  0  0
   -1.9938    0.2834    5.1988 C   0  0  0  0  0  0  0  0  0  0  0  0
   -2.7535   -0.5129    5.2522 H   0  0  0  0  0  0  0  0  0  0  0  0
   -1.1626   -0.0642    5.8331 H   0  0  0  0  0  0  0  0  0  0  0  0
   -2.4318    1.1383    5.7384 H   0  0  0  0  0  0  0  0  0  0  0  0
   -2.3116    1.5383    3.1570 N   0  0  0  0  0  0  0  0  0  0  0  0
   -2.0648    1.9643    1.8046 C   0  0  2  0  0  0  0  0  0  0  0  0
   -0.7298    1.3789    1.3634 C   0  0  0  0  0  0  0  0  0  0  0  0
    0.1423    1.0262    2.1547 O   0  0  0  0  0  0  0  0  0  0  0  0
   -2.0560    3.4811    1.6952 C   0  0  0  0  0  0  0  0  0  0  0  0
   -3.0767    1.9741    3.6688 H   0  0  0  0  0  0  0  0  0  0  0  0
   -2.8689    1.5458    1.1895 H   0  0  0  0  0  0  0  0  0  0  0  0
   -1.2569    3.9183    2.3049 H   0  0  0  0  0  0  0  0  0  0  0  0
   -1.8965    3.8033    0.6609 H   0  0  0  0  0  0  0  0  0  0  0  0
   -3.0062    3.9023    2.0409 H   0  0  0  0  0  0  0  0  0  0  0  0
   -0.6071    1.3358   -0.0200 N   0  0  0  0  0  0  0  0  0  0  0  0
    0.5702    0.8350   -0.6836 C   0  0  2  0  0  0  0  0  0  0  0  0
    1.6521    1.9005   -0.5478 C   0  0  0  0  0  0  0  0  0  0  0  0
    1.9127    2.4576    0.5164 O   0  0  0  0  0  0  0  0  0  0  0  0
    0.3126    0.5226   -2.1622 C   0  0  0  0  0  0  0  0  0  0  0  0
   -0.6915   -0.5871   -2.3579 C   0  0  0  0  0  0  0  0  0  0  0  0
   -0.3902   -1.9027   -2.1443 N   0  0  0  0  0  0  0  0  0  0  0  0
   -2.0089   -0.5870   -2.7515 C   0  0  0  0  0  0  0  0  0  0  0  0
   -1.5163   -2.6299   -2.4131 C   0  0  0  0  0  0  0  0  0  0  0  0
   -2.5166   -1.8617   -2.7835 N   0  0  0  0  0  0  0  0  0  0  0  0
   -1.3903    1.6325   -0.5973 H   0  0  0  0  0  0  0  0  0  0  0  0
    0.8797   -0.0627   -0.1356 H   0  0  0  0  0  0  0  0  0  0  0  0
    1.2536    0.2623   -2.6656 H   0  0  0  0  0  0  0  0  0  0  0  0
   -0.0557    1.4155   -2.6844 H   0  0  0  0  0  0  0  0  0  0  0  0
    0.5016   -2.2737   -1.8438 H   0  0  0  0  0  0  0  0  0  0  0  0
   -2.6200    0.2648   -3.0139 H   0  0  0  0  0  0  0  0  0  0  0  0
   -1.5404   -3.7064   -2.3200 H   0  0  0  0  0  0  0  0  0  0  0  0
    2.3219    2.1163   -1.7442 N   0  0  0  0  0  0  0  0  0  0  0  0
    3.4088    3.0582   -1.8864 C   0  0  2  0  0  0  0  0  0  0  0  0
    2.9589    4.3881   -1.2960 C   0  0  0  0  0  0  0  0  0  0  0  0
    1.7767    4.6999   -1.1688 O   0  0  0  0  0  0  0  0  0  0  0  0
    3.8140    3.2197   -3.3433 C   0  0  0  0  0  0  0  0  0  0  0  0
    2.0337    1.5855   -2.5608 H   0  0  0  0  0  0  0  0  0  0  0  0
    4.2476    2.6638   -1.3025 H   0  0  0  0  0  0  0  0  0  0  0  0
    2.9863    3.6139   -3.9441 H   0  0  0  0  0  0  0  0  0  0  0  0
    4.6562    3.9118   -3.4465 H   0  0  0  0  0  0  0  0  0  0  0  0
    4.1088    2.2570   -3.7748 H   0  0  0  0  0  0  0  0  0  0  0  0
    4.0330    5.2033   -0.9676 N   0  0  0  0  0  0  0  0  0  0  0  0
    3.8667    6.5220   -0.4023 C   0  0  0  0  0  0  0  0  0  0  0  0
    4.9797    4.8558   -1.0894 H   0  0  0  0  0  0  0  0  0  0  0  0
    3.8531    7.2686   -1.2100 H   0  0  0  0  0  0  0  0  0  0  0  0
    2.9184    6.5656    0.1533 H   0  0  0  0  0  0  0  0  0  0  0  0
    4.7021    6.7360    0.2806 H   0  0  0  0  0  0  0  0  0  0  0  0
 22 24  2  0  0  0  0
 24 26  1  0  0  0  0
 25 26  2  0  0  0  0
 23 25  1  0  0  0  0
 21 22  1  0  0  0  0
 22 23  1  0  0  0  0
  1  3  1  0  0  0  0
  1  7  1  0  0  0  0
  1  2  2  0  0  0  0
 35 36  1  0  0  0  0
 36 44  1  0  0  0  0
 36 37  2  0  0  0  0
  8  9  1  0  0  0  0
  9 17  1  0  0  0  0
  9 10  2  0  0  0  0
 18 19  1  0  0  0  0
 19 34  1  0  0  0  0
 19 20  2  0  0  0  0
 35 38  1  0  0  0  0
  8 11  1  0  0  0  0
 44 45  1  0  0  0  0
 18 21  1  0  0  0  0
 34 35  1  0  0  0  0
  7  8  1  0  0  0  0
 17 18  1  0  0  0  0
 24 32  1  0  0  0  0
 25 33  1  0  0  0  0
  3  4  1  0  0  0  0
  3  5  1  0  0  0  0
  3  6  1  0  0  0  0
 38 41  1  0  0  0  0
 38 42  1  0  0  0  0
 38 43  1  0  0  0  0
 11 14  1  0  0  0  0
 11 15  1  0  0  0  0
 11 16  1  0  0  0  0
 45 47  1  0  0  0  0
 45 48  1  0  0  0  0
 45 49  1  0  0  0  0
 21 29  1  0  0  0  0
 21 30  1  0  0  0  0
 35 40  1  0  0  0  0
  8 13  1  0  0  0  0
 18 28  1  0  0  0  0
 23 31  1  0  0  0  0
 44 46  1  0  0  0  0
  7 12  1  0  0  0  0
 34 39  1  0  0  0  0
 17 27  1  0  0  0  0
M  END
$$$$

  -OEChem-05262214473D

 49 49  0     1  0  0  0  0  0999 V2000
   -1.5619    0.5658    3.7981 C   0  0  0  0  0  0  0  0  0  0  0  0
   -0.6145   -0.0489    3.3224 O   0  0  0  0  0  0  0  0  0  0  0  0
   -1.9938    0.2834    5.1988 C   0  0  0  0  0  0  0  0  0  0  0  0
   -2.7535   -0.5129    5.2522 H   0  0  0  0  0  0  0  0  0  0  0  0
   -1.1626   -0.0642    5.8331 H   0  0  0  0  0  0  0  0  0  0  0  0
   -2.4318    1.1383    5.7384 H   0  0  0  0  0  0  0  0  0  0  0  0
   -2.3116    1.5383    3.1570 N   0  0  0  0  0  0  0  0  0  0  0  0
   -2.0648    1.9643    1.8046 C   0  0  2  0  0  0  0  0  0  0  0  0
   -0.7298    1.3789    1.3634 C   0  0  0  0  0  0  0  0  0  0  0  0
    0.1423    1.0262    2.1547 O   0  0  0  0  0  0  0  0  0  0  0  0
   -2.0560    3.4811    1.6952 C   0  0  0  0  0  0  0  0  0  0  0  0
   -3.0767    1.9741    3.6688 H   0  0  0  0  0  0  0  0  0  0  0  0
   -2.8689    1.5458    1.1895 H   0  0  0  0  0  0  0  0  0  0  0  0
   -1.2569    3.9183    2.3049 H   0  0  0  0  0  0  0  0  0  0  0  0
   -1.8965    3.8033    0.6609 H   0  0  0  0  0  0  0  0  0  0  0  0
   -3.0062    3.9023    2.0409 H   0  0  0  0  0  0  0  0  0  0  0  0
   -0.6071    1.3358   -0.0200 N   0  0  0  0  0  0  0  0  0  0  0  0
    0.5702    0.8350   -0.6836 C   0  0  2  0  0  0  0  0  0  0  0  0
    1.6521    1.9005   -0.5478 C   0  0  0  0  0  0  0  0  0  0  0  0
    2.0997    2.2650    0.5374 O   0  0  0  0  0  0  0  0  0  0  0  0
    0.3126    0.5226   -2.1622 C   0  0  0  0  0  0  0  0  0  0  0  0
   -0.6915   -0.5871   -2.3579 C   0  0  0  0  0  0  0  0  0  0  0  0
   -0.3902   -1.9027   -2.1443 N   0  0  0  0  0  0  0  0  0  0  0  0
   -2.0089   -0.5870   -2.7515 C   0  0  0  0  0  0  0  0  0  0  0  0
   -1.5163   -2.6299   -2.4131 C   0  0  0  0  0  0  0  0  0  0  0  0
   -2.5166   -1.8617   -2.7835 N   0  0  0  0  0  0  0  0  0  0  0  0
   -1.3903    1.6325   -0.5973 H   0  0  0  0  0  0  0  0  0  0  0  0
    0.8797   -0.0627   -0.1356 H   0  0  0  0  0  0  0  0  0  0  0  0
    1.2536    0.2623   -2.6656 H   0  0  0  0  0  0  0  0  0  0  0  0
   -0.0557    1.4155   -2.6844 H   0  0  0  0  0  0  0  0  0  0  0  0
    0.5016   -2.2737   -1.8438 H   0  0  0  0  0  0  0  0  0  0  0  0
   -2.6200    0.2648   -3.0139 H   0  0  0  0  0  0  0  0  0  0  0  0
   -1.5404   -3.7064   -2.3200 H   0  0  0  0  0  0  0  0  0  0  0  0
    2.0903    2.3565   -1.7834 N   0  0  0  0  0  0  0  0  0  0  0  0
    3.1269    3.3513   -1.9400 C   0  0  2  0  0  0  0  0  0  0  0  0
    2.7846    4.5327   -1.0421 C   0  0  0  0  0  0  0  0  0  0  0  0
    1.6437    4.7688   -0.6499 O   0  0  0  0  0  0  0  0  0  0  0  0
    3.2576    3.7906   -3.3901 C   0  0  0  0  0  0  0  0  0  0  0  0
    1.6607    1.9717   -2.6195 H   0  0  0  0  0  0  0  0  0  0  0  0
    4.0608    2.8912   -1.5991 H   0  0  0  0  0  0  0  0  0  0  0  0
    2.3315    4.2539   -3.7494 H   0  0  0  0  0  0  0  0  0  0  0  0
    4.0624    4.5230   -3.5118 H   0  0  0  0  0  0  0  0  0  0  0  0
    3.4744    2.9348   -4.0385 H   0  0  0  0  0  0  0  0  0  0  0  0
    3.8956    5.3171   -0.7653 N   0  0  0  0  0  0  0  0  0  0  0  0
    3.8275    6.5035    0.0555 C   0  0  0  0  0  0  0  0  0  0  0  0
    4.8061    5.0356   -1.1168 H   0  0  0  0  0  0  0  0  0  0  0  0
    3.6616    7.3832   -0.5836 H   0  0  0  0  0  0  0  0  0  0  0  0
    2.9966    6.4076    0.7700 H   0  0  0  0  0  0  0  0  0  0  0  0
    4.7723    6.6231    0.6059 H   0  0  0  0  0  0  0  0  0  0  0  0
 22 24  2  0  0  0  0
 24 26  1  0  0  0  0
 25 26  2  0  0  0  0
 23 25  1  0  0  0  0
 21 22  1  0  0  0  0
 22 23  1  0  0  0  0
  1  3  1  0  0  0  0
  1  7  1  0  0  0  0
  1  2  2  0  0  0  0
 35 36  1  0  0  0  0
 36 44  1  0  0  0  0
 36 37  2  0  0  0  0
  8  9  1  0  0  0  0
  9 17  1  0  0  0  0
  9 10  2  0  0  0  0
 18 19  1  0  0  0  0
 19 34  1  0  0  0  0
 19 20  2  0  0  0  0
 35 38  1  0  0  0  0
  8 11  1  0  0  0  0
 44 45  1  0  0  0  0
 18 21  1  0  0  0  0
 34 35  1  0  0  0  0
  7  8  1  0  0  0  0
 17 18  1  0  0  0  0
 24 32  1  0  0  0  0
 25 33  1  0  0  0  0
  3  4  1  0  0  0  0
  3  5  1  0  0  0  0
  3  6  1  0  0  0  0
 38 41  1  0  0  0  0
 38 42  1  0  0  0  0
 38 43  1  0  0  0  0
 11 14  1  0  0  0  0
 11 15  1  0  0  0  0
 11 16  1  0  0  0  0
 45 47  1  0  0  0  0
 45 48  1  0  0  0  0
 45 49  1  0  0  0  0
 21 29  1  0  0  0  0
 21 30  1  0  0  0  0
 35 40  1  0  0  0  0
  8 13  1  0  0  0  0
 18 28  1  0  0  0  0
 23 31  1  0  0  0  0
 44 46  1  0  0  0  0
  7 12  1  0  0  0  0
 34 39  1  0  0  0  0
 17 27  1  0  0  0  0
M  END
$$$$

  -OEChem-05262214473D

 49 49  0     1  0  0  0  0  0999 V2000
   -1.5619    0.5658    3.7981 C   0  0  0  0  0  0  0  0  0  0  0  0
   -0.6145   -0.0489    3.3224 O   0  0  0  0  0  0  0  0  0  0  0  0
   -1.9938    0.2834    5.1988 C   0  0  0  0  0  0  0  0  0  0  0  0
   -2.7535   -0.5129    5.2522 H   0  0  0  0  0  0  0  0  0  0  0  0
   -1.1626   -0.0642    5.8331 H   0  0  0  0  0  0  0  0  0  0  0  0
   -2.4318    1.1383    5.7384 H   0  0  0  0  0  0  0  0  0  0  0  0
   -2.3116    1.5383    3.1570 N   0  0  0  0  0  0  0  0  0  0  0  0
   -2.0648    1.9643    1.8046 C   0  0  2  0  0  0  0  0  0  0  0  0
   -0.7298    1.3789    1.3634 C   0  0  0  0  0  0  0  0  0  0  0  0
    0.1423    1.0262    2.1547 O   0  0  0  0  0  0  0  0  0  0  0  0
   -2.0560    3.4811    1.6952 C   0  0  0  0  0  0  0  0  0  0  0  0
   -3.0767    1.9741    3.6688 H   0  0  0  0  0  0  0  0  0  0  0  0
   -2.8689    1.5458    1.1895 H   0  0  0  0  0  0  0  0  0  0  0  0
   -1.2569    3.9183    2.3049 H   0  0  0  0  0  0  0  0  0  0  0  0
   -1.8965    3.8033    0.6609 H   0  0  0  0  0  0  0  0  0  0  0  0
   -3.0062    3.9023    2.0409 H   0  0  0  0  0  0  0  0  0  0  0  0
   -0.6071    1.3358   -0.0200 N   0  0  0  0  0  0  0  0  0  0  0  0
    0.5702    0.8350   -0.6836 C   0  0  2  0  0  0  0  0  0  0  0  0
    1.6521    1.9005   -0.5478 C   0  0  0  0  0  0  0  0  0  0  0  0
    2.2885    2.0796    0.4884 O   0  0  0  0  0  0  0  0  0  0  0  0
    0.3126    0.5226   -2.1622 C   0  0  0  0  0  0  0  0  0  0  0  0
   -0.6915   -0.5871   -2.3579 C   0  0  0  0  0  0  0  0  0  0  0  0
   -0.3902   -1.9027   -2.1443 N   0  0  0  0  0  0  0  0  0  0  0  0
   -2.0089   -0.5870   -2.7515 C   0  0  0  0  0  0  0  0  0  0  0  0
   -1.5163   -2.6299   -2.4131 C   0  0  0  0  0  0  0  0  0  0  0  0
   -2.5166   -1.8617   -2.7835 N   0  0  0  0  0  0  0  0  0  0  0  0
   -1.3903    1.6325   -0.5973 H   0  0  0  0  0  0  0  0  0  0  0  0
    0.8797   -0.0627   -0.1356 H   0  0  0  0  0  0  0  0  0  0  0  0
    1.2536    0.2623   -2.6656 H   0  0  0  0  0  0  0  0  0  0  0  0
   -0.0557    1.4155   -2.6844 H   0  0  0  0  0  0  0  0  0  0  0  0
    0.5016   -2.2737   -1.8438 H   0  0  0  0  0  0  0  0  0  0  0  0
   -2.6200    0.2648   -3.0139 H   0  0  0  0  0  0  0  0  0  0  0  0
   -1.5404   -3.7064   -2.3200 H   0  0  0  0  0  0  0  0  0  0  0  0
    1.8539    2.5904   -1.7352 N   0  0  0  0  0  0  0  0  0  0  0  0
    2.8382    3.6377   -1.8870 C   0  0  2  0  0  0  0  0  0  0  0  0
    2.6587    4.6218   -0.7387 C   0  0  0  0  0  0  0  0  0  0  0  0
    1.6075    4.7370   -0.1121 O   0  0  0  0  0  0  0  0  0  0  0  0
    2.6986    4.3378   -3.2298 C   0  0  0  0  0  0  0  0  0  0  0  0
    1.2809    2.3469   -2.5378 H   0  0  0  0  0  0  0  0  0  0  0  0
    3.8215    3.1611   -1.8100 H   0  0  0  0  0  0  0  0  0  0  0  0
    1.7195    4.8213   -3.3254 H   0  0  0  0  0  0  0  0  0  0  0  0
    3.4630    5.1117   -3.3551 H   0  0  0  0  0  0  0  0  0  0  0  0
    2.7983    3.6234   -4.0541 H   0  0  0  0  0  0  0  0  0  0  0  0
    3.7968    5.3867   -0.5242 N   0  0  0  0  0  0  0  0  0  0  0  0
    3.8728    6.4006    0.5015 C   0  0  0  0  0  0  0  0  0  0  0  0
    4.6293    5.2102   -1.0788 H   0  0  0  0  0  0  0  0  0  0  0  0
    3.5873    7.3745    0.0771 H   0  0  0  0  0  0  0  0  0  0  0  0
    3.1873    6.1435    1.3226 H   0  0  0  0  0  0  0  0  0  0  0  0
    4.9017    6.4560    0.8867 H   0  0  0  0  0  0  0  0  0  0  0  0
 22 24  2  0  0  0  0
 24 26  1  0  0  0  0
 25 26  2  0  0  0  0
 23 25  1  0  0  0  0
 21 22  1  0  0  0  0
 22 23  1  0  0  0  0
  1  3  1  0  0  0  0
  1  7  1  0  0  0  0
  1  2  2  0  0  0  0
 35 36  1  0  0  0  0
 36 44  1  0  0  0  0
 36 37  2  0  0  0  0
  8  9  1  0  0  0  0
  9 17  1  0  0  0  0
  9 10  2  0  0  0  0
 18 19  1  0  0  0  0
 19 34  1  0  0  0  0
 19 20  2  0  0  0  0
 35 38  1  0  0  0  0
  8 11  1  0  0  0  0
 44 45  1  0  0  0  0
 18 21  1  0  0  0  0
 34 35  1  0  0  0  0
  7  8  1  0  0  0  0
 17 18  1  0  0  0  0
 24 32  1  0  0  0  0
 25 33  1  0  0  0  0
  3  4  1  0  0  0  0
  3  5  1  0  0  0  0
  3  6  1  0  0  0  0
 38 41  1  0  0  0  0
 38 42  1  0  0  0  0
 38 43  1  0  0  0  0
 11 14  1  0  0  0  0
 11 15  1  0  0  0  0
 11 16  1  0  0  0  0
 45 47  1  0  0  0  0
 45 48  1  0  0  0  0
 45 49  1  0  0  0  0
 21 29  1  0  0  0  0
 21 30  1  0  0  0  0
 35 40  1  0  0  0  0
  8 13  1  0  0  0  0
 18 28  1  0  0  0  0
 23 31  1  0  0  0  0
 44 46  1  0  0  0  0
  7 12  1  0  0  0  0
 34 39  1  0  0  0  0
 17 27  1  0  0  0  0
M  END
$$$$

  -OEChem-05262214473D

 49 49  0     1  0  0  0  0  0999 V2000
   -1.5619    0.5658    3.7981 C   0  0  0  0  0  0  0  0  0  0  0  0
   -0.6145   -0.0489    3.3224 O   0  0  0  0  0  0  0  0  0  0  0  0
   -1.9938    0.2834    5.1988 C   0  0  0  0  0  0  0  0  0  0  0  0
   -2.7535   -0.5129    5.2522 H   0  0  0  0  0  0  0  0  0  0  0  0
   -1.1626   -0.0642    5.8331 H   0  0  0  0  0  0  0  0  0  0  0  0
   -2.4318    1.1383    5.7384 H   0  0  0  0  0  0  0  0  0  0  0  0
   -2.3116    1.5383    3.1570 N   0  0  0  0  0  0  0  0  0  0  0  0
   -2.0648    1.9643    1.8046 C   0  0  2  0  0  0  0  0  0  0  0  0
   -0.7298    1.3789    1.3634 C   0  0  0  0  0  0  0  0  0  0  0  0
    0.1423    1.0262    2.1547 O   0  0  0  0  0  0  0  0  0  0  0  0
   -2.0560    3.4811    1.6952 C   0  0  0  0  0  0  0  0  0  0  0  0
   -3.0767    1.9741    3.6688 H   0  0  0  0  0  0  0  0  0  0  0  0
   -2.8689    1.5458    1.1895 H   0  0  0  0  0  0  0  0  0  0  0  0
   -1.2569    3.9183    2.3049 H   0  0  0  0  0  0  0  0  0  0  0  0
   -1.8965    3.8033    0.6609 H   0  0  0  0  0  0  0  0  0  0  0  0
   -3.0062    3.9023    2.0409 H   0  0  0  0  0  0  0  0  0  0  0  0
   -0.6071    1.3358   -0.0200 N   0  0  0  0  0  0  0  0  0  0  0  0
    0.5702    0.8350   -0.6836 C   0  0  2  0  0  0  0  0  0  0  0  0
    1.6521    1.9005   -0.5478 C   0  0  0  0  0  0  0  0  0  0  0  0
    2.4663    1.9137    0.3729 O   0  0  0  0  0  0  0  0  0  0  0  0
    0.3126    0.5226   -2.1622 C   0  0  0  0  0  0  0  0  0  0  0  0
   -0.6915   -0.5871   -2.3579 C   0  0  0  0  0  0  0  0  0  0  0  0
   -0.3902   -1.9027   -2.1443 N   0  0  0  0  0  0  0  0  0  0  0  0
   -2.0089   -0.5870   -2.7515 C   0  0  0  0  0  0  0  0  0  0  0  0
   -1.5163   -2.6299   -2.4131 C   0  0  0  0  0  0  0  0  0  0  0  0
   -2.5166   -1.8617   -2.7835 N   0  0  0  0  0  0  0  0  0  0  0  0
   -1.3903    1.6325   -0.5973 H   0  0  0  0  0  0  0  0  0  0  0  0
    0.8797   -0.0627   -0.1356 H   0  0  0  0  0  0  0  0  0  0  0  0
    1.2536    0.2623   -2.6656 H   0  0  0  0  0  0  0  0  0  0  0  0
   -0.0557    1.4155   -2.6844 H   0  0  0  0  0  0  0  0  0  0  0  0
    0.5016   -2.2737   -1.8438 H   0  0  0  0  0  0  0  0  0  0  0  0
   -2.6200    0.2648   -3.0139 H   0  0  0  0  0  0  0  0  0  0  0  0
   -1.5404   -3.7064   -2.3200 H   0  0  0  0  0  0  0  0  0  0  0  0
    1.6289    2.8020   -1.6030 N   0  0  0  0  0  0  0  0  0  0  0  0
    2.5623    3.8979   -1.7310 C   0  0  2  0  0  0  0  0  0  0  0  0
    2.5900    4.6493   -0.4066 C   0  0  0  0  0  0  0  0  0  0  0  0
    1.6705    4.6066    0.4082 O   0  0  0  0  0  0  0  0  0  0  0  0
    2.1749    4.8240   -2.8734 C   0  0  0  0  0  0  0  0  0  0  0  0
    0.9202    2.6856   -2.3213 H   0  0  0  0  0  0  0  0  0  0  0  0
    3.5461    3.4549   -1.9209 H   0  0  0  0  0  0  0  0  0  0  0  0
    1.1920    5.2773   -2.7008 H   0  0  0  0  0  0  0  0  0  0  0  0
    2.8987    5.6378   -2.9873 H   0  0  0  0  0  0  0  0  0  0  0  0
    2.1265    4.2757   -3.8203 H   0  0  0  0  0  0  0  0  0  0  0  0
    3.7434    5.4073   -0.2606 N   0  0  0  0  0  0  0  0  0  0  0  0
    3.9996    6.2204    0.9053 C   0  0  0  0  0  0  0  0  0  0  0  0
    4.4613    5.3679   -0.9780 H   0  0  0  0  0  0  0  0  0  0  0  0
    3.6353    7.2429    0.7271 H   0  0  0  0  0  0  0  0  0  0  0  0
    3.4776    5.7914    1.7733 H   0  0  0  0  0  0  0  0  0  0  0  0
    5.0812    6.2460    1.1038 H   0  0  0  0  0  0  0  0  0  0  0  0
 22 24  2  0  0  0  0
 24 26  1  0  0  0  0
 25 26  2  0  0  0  0
 23 25  1  0  0  0  0
 21 22  1  0  0  0  0
 22 23  1  0  0  0  0
  1  3  1  0  0  0  0
  1  7  1  0  0  0  0
  1  2  2  0  0  0  0
 35 36  1  0  0  0  0
 36 44  1  0  0  0  0
 36 37  2  0  0  0  0
  8  9  1  0  0  0  0
  9 17  1  0  0  0  0
  9 10  2  0  0  0  0
 18 19  1  0  0  0  0
 19 34  1  0  0  0  0
 19 20  2  0  0  0  0
 35 38  1  0  0  0  0
  8 11  1  0  0  0  0
 44 45  1  0  0  0  0
 18 21  1  0  0  0  0
 34 35  1  0  0  0  0
  7  8  1  0  0  0  0
 17 18  1  0  0  0  0
 24 32  1  0  0  0  0
 25 33  1  0  0  0  0
  3  4  1  0  0  0  0
  3  5  1  0  0  0  0
  3  6  1  0  0  0  0
 38 41  1  0  0  0  0
 38 42  1  0  0  0  0
 38 43  1  0  0  0  0
 11 14  1  0  0  0  0
 11 15  1  0  0  0  0
 11 16  1  0  0  0  0
 45 47  1  0  0  0  0
 45 48  1  0  0  0  0
 45 49  1  0  0  0  0
 21 29  1  0  0  0  0
 21 30  1  0  0  0  0
 35 40  1  0  0  0  0
  8 13  1  0  0  0  0
 18 28  1  0  0  0  0
 23 31  1  0  0  0  0
 44 46  1  0  0  0  0
  7 12  1  0  0  0  0
 34 39  1  0  0  0  0
 17 27  1  0  0  0  0
M  END
$$$$

  -OEChem-05262214473D

 49 49  0     1  0  0  0  0  0999 V2000
   -1.5619    0.5658    3.7981 C   0  0  0  0  0  0  0  0  0  0  0  0
   -0.6145   -0.0489    3.3224 O   0  0  0  0  0  0  0  0  0  0  0  0
   -1.9938    0.2834    5.1988 C   0  0  0  0  0  0  0  0  0  0  0  0
   -2.7535   -0.5129    5.2522 H   0  0  0  0  0  0  0  0  0  0  0  0
   -1.1626   -0.0642    5.8331 H   0  0  0  0  0  0  0  0  0  0  0  0
   -2.4318    1.1383    5.7384 H   0  0  0  0  0  0  0  0  0  0  0  0
   -2.3116    1.5383    3.1570 N   0  0  0  0  0  0  0  0  0  0  0  0
   -2.0648    1.9643    1.8046 C   0  0  2  0  0  0  0  0  0  0  0  0
   -0.7298    1.3789    1.3634 C   0  0  0  0  0  0  0  0  0  0  0  0
    0.1423    1.0262    2.1547 O   0  0  0  0  0  0  0  0  0  0  0  0
   -2.0560    3.4811    1.6952 C   0  0  0  0  0  0  0  0  0  0  0  0
   -3.0767    1.9741    3.6688 H   0  0  0  0  0  0  0  0  0  0  0  0
   -2.8689    1.5458    1.1895 H   0  0  0  0  0  0  0  0  0  0  0  0
   -1.2569    3.9183    2.3049 H   0  0  0  0  0  0  0  0  0  0  0  0
   -1.8965    3.8033    0.6609 H   0  0  0  0  0  0  0  0  0  0  0  0
   -3.0062    3.9023    2.0409 H   0  0  0  0  0  0  0  0  0  0  0  0
   -0.6071    1.3358   -0.0200 N   0  0  0  0  0  0  0  0  0  0  0  0
    0.5702    0.8350   -0.6836 C   0  0  2  0  0  0  0  0  0  0  0  0
    1.6521    1.9005   -0.5478 C   0  0  0  0  0  0  0  0  0  0  0  0
    2.6210    1.7789    0.1987 O   0  0  0  0  0  0  0  0  0  0  0  0
    0.3126    0.5226   -2.1622 C   0  0  0  0  0  0  0  0  0  0  0  0
   -0.6915   -0.5871   -2.3579 C   0  0  0  0  0  0  0  0  0  0  0  0
   -0.3902   -1.9027   -2.1443 N   0  0  0  0  0  0  0  0  0  0  0  0
   -2.0089   -0.5870   -2.7515 C   0  0  0  0  0  0  0  0  0  0  0  0
   -1.5163   -2.6299   -2.4131 C   0  0  0  0  0  0  0  0  0  0  0  0
   -2.5166   -1.8617   -2.7835 N   0  0  0  0  0  0  0  0  0  0  0  0
   -1.3903    1.6325   -0.5973 H   0  0  0  0  0  0  0  0  0  0  0  0
    0.8797   -0.0627   -0.1356 H   0  0  0  0  0  0  0  0  0  0  0  0
    1.2536    0.2623   -2.6656 H   0  0  0  0  0  0  0  0  0  0  0  0
   -0.0557    1.4155   -2.6844 H   0  0  0  0  0  0  0  0  0  0  0  0
    0.5016   -2.2737   -1.8438 H   0  0  0  0  0  0  0  0  0  0  0  0
   -2.6200    0.2648   -3.0139 H   0  0  0  0  0  0  0  0  0  0  0  0
   -1.5404   -3.7064   -2.3200 H   0  0  0  0  0  0  0  0  0  0  0  0
    1.4306    2.9769   -1.3957 N   0  0  0  0  0  0  0  0  0  0  0  0
    2.3181    4.1143   -1.4826 C   0  0  2  0  0  0  0  0  0  0  0  0
    2.5831    4.6132   -0.0683 C   0  0  0  0  0  0  0  0  0  0  0  0
    1.8285    4.3866    0.8753 O   0  0  0  0  0  0  0  0  0  0  0  0
    1.7224    5.2162   -2.3450 C   0  0  0  0  0  0  0  0  0  0  0  0
    0.6032    2.9646   -1.9847 H   0  0  0  0  0  0  0  0  0  0  0  0
    3.2531    3.7528   -1.9242 H   0  0  0  0  0  0  0  0  0  0  0  0
    0.7849    5.5910   -1.9184 H   0  0  0  0  0  0  0  0  0  0  0  0
    2.4081    6.0653   -2.4332 H   0  0  0  0  0  0  0  0  0  0  0  0
    1.5049    4.8474   -3.3532 H   0  0  0  0  0  0  0  0  0  0  0  0
    3.7390    5.3776    0.0075 N   0  0  0  0  0  0  0  0  0  0  0  0
    4.1992    5.9751    1.2392 C   0  0  0  0  0  0  0  0  0  0  0  0
    4.3137    5.4978   -0.8214 H   0  0  0  0  0  0  0  0  0  0  0  0
    3.8022    6.9976    1.3221 H   0  0  0  0  0  0  0  0  0  0  0  0
    3.8476    5.3751    2.0914 H   0  0  0  0  0  0  0  0  0  0  0  0
    5.2988    6.0075    1.2424 H   0  0  0  0  0  0  0  0  0  0  0  0
 22 24  2  0  0  0  0
 24 26  1  0  0  0  0
 25 26  2  0  0  0  0
 23 25  1  0  0  0  0
 21 22  1  0  0  0  0
 22 23  1  0  0  0  0
  1  3  1  0  0  0  0
  1  7  1  0  0  0  0
  1  2  2  0  0  0  0
 35 36  1  0  0  0  0
 36 44  1  0  0  0  0
 36 37  2  0  0  0  0
  8  9  1  0  0  0  0
  9 17  1  0  0  0  0
  9 10  2  0  0  0  0
 18 19  1  0  0  0  0
 19 34  1  0  0  0  0
 19 20  2  0  0  0  0
 35 38  1  0  0  0  0
  8 11  1  0  0  0  0
 44 45  1  0  0  0  0
 18 21  1  0  0  0  0
 34 35  1  0  0  0  0
  7  8  1  0  0  0  0
 17 18  1  0  0  0  0
 24 32  1  0  0  0  0
 25 33  1  0  0  0  0
  3  4  1  0  0  0  0
  3  5  1  0  0  0  0
  3  6  1  0  0  0  0
 38 41  1  0  0  0  0
 38 42  1  0  0  0  0
 38 43  1  0  0  0  0
 11 14  1  0  0  0  0
 11 15  1  0  0  0  0
 11 16  1  0  0  0  0
 45 47  1  0  0  0  0
 45 48  1  0  0  0  0
 45 49  1  0  0  0  0
 21 29  1  0  0  0  0
 21 30  1  0  0  0  0
 35 40  1  0  0  0  0
  8 13  1  0  0  0  0
 18 28  1  0  0  0  0
 23 31  1  0  0  0  0
 44 46  1  0  0  0  0
  7 12  1  0  0  0  0
 34 39  1  0  0  0  0
 17 27  1  0  0  0  0
M  END
$$$$

  -OEChem-05262214473D

 49 49  0     1  0  0  0  0  0999 V2000
   -1.5619    0.5658    3.7981 C   0  0  0  0  0  0  0  0  0  0  0  0
   -0.6145   -0.0489    3.3224 O   0  0  0  0  0  0  0  0  0  0  0  0
   -1.9938    0.2834    5.1988 C   0  0  0  0  0  0  0  0  0  0  0  0
   -2.7535   -0.5129    5.2522 H   0  0  0  0  0  0  0  0  0  0  0  0
   -1.1626   -0.0642    5.8331 H   0  0  0  0  0  0  0  0  0  0  0  0
   -2.4318    1.1383    5.7384 H   0  0  0  0  0  0  0  0  0  0  0  0
   -2.3116    1.5383    3.1570 N   0  0  0  0  0  0  0  0  0  0  0  0
   -2.0648    1.9643    1.8046 C   0  0  2  0  0  0  0  0  0  0  0  0
   -0.7298    1.3789    1.3634 C   0  0  0  0  0  0  0  0  0  0  0  0
    0.1423    1.0262    2.1547 O   0  0  0  0  0  0  0  0  0  0  0  0
   -2.0560    3.4811    1.6952 C   0  0  0  0  0  0  0  0  0  0  0  0
   -3.0767    1.9741    3.6688 H   0  0  0  0  0  0  0  0  0  0  0  0
   -2.8689    1.5458    1.1895 H   0  0  0  0  0  0  0  0  0  0  0  0
   -1.2569    3.9183    2.3049 H   0  0  0  0  0  0  0  0  0  0  0  0
   -1.8965    3.8033    0.6609 H   0  0  0  0  0  0  0  0  0  0  0  0
   -3.0062    3.9023    2.0409 H   0  0  0  0  0  0  0  0  0  0  0  0
   -0.6071    1.3358   -0.0200 N   0  0  0  0  0  0  0  0  0  0  0  0
    0.5702    0.8350   -0.6836 C   0  0  2  0  0  0  0  0  0  0  0  0
    1.6521    1.9005   -0.5478 C   0  0  0  0  0  0  0  0  0  0  0  0
    2.7420    1.6842   -0.0223 O   0  0  0  0  0  0  0  0  0  0  0  0
    0.3126    0.5226   -2.1622 C   0  0  0  0  0  0  0  0  0  0  0  0
   -0.6915   -0.5871   -2.3579 C   0  0  0  0  0  0  0  0  0  0  0  0
   -0.3902   -1.9027   -2.1443 N   0  0  0  0  0  0  0  0  0  0  0  0
   -2.0089   -0.5870   -2.7515 C   0  0  0  0  0  0  0  0  0  0  0  0
   -1.5163   -2.6299   -2.4131 C   0  0  0  0  0  0  0  0  0  0  0  0
   -2.5166   -1.8617   -2.7835 N   0  0  0  0  0  0  0  0  0  0  0  0
   -1.3903    1.6325   -0.5973 H   0  0  0  0  0  0  0  0  0  0  0  0
    0.8797   -0.0627   -0.1356 H   0  0  0  0  0  0  0  0  0  0  0  0
    1.2536    0.2623   -2.6656 H   0  0  0  0  0  0  0  0  0  0  0  0
   -0.0557    1.4155   -2.6844 H   0  0  0  0  0  0  0  0  0  0  0  0
    0.5016   -2.2737   -1.8438 H   0  0  0  0  0  0  0  0  0  0  0  0
   -2.6200    0.2648   -3.0139 H   0  0  0  0  0  0  0  0  0  0  0  0
   -1.5404   -3.7064   -2.3200 H   0  0  0  0  0  0  0  0  0  0  0  0
    1.2725    3.1032   -1.1274 N   0  0  0  0  0  0  0  0  0  0  0  0
    2.1221    4.2720   -1.1587 C   0  0  2  0  0  0  0  0  0  0  0  0
    2.6384    4.5160    0.2531 C   0  0  0  0  0  0  0  0  0  0  0  0
    2.0707    4.0920    1.2576 O   0  0  0  0  0  0  0  0  0  0  0  0
    1.3719    5.4875   -1.6808 C   0  0  0  0  0  0  0  0  0  0  0  0
    0.3513    3.1650   -1.5509 H   0  0  0  0  0  0  0  0  0  0  0  0
    2.9627    4.0344   -1.8197 H   0  0  0  0  0  0  0  0  0  0  0  0
    0.5259    5.7408   -1.0314 H   0  0  0  0  0  0  0  0  0  0  0  0
    2.0246    6.3653   -1.7308 H   0  0  0  0  0  0  0  0  0  0  0  0
    0.9757    5.2994   -2.6845 H   0  0  0  0  0  0  0  0  0  0  0  0
    3.7839    5.2996    0.2617 N   0  0  0  0  0  0  0  0  0  0  0  0
    4.4582    5.6814    1.4805 C   0  0  0  0  0  0  0  0  0  0  0  0
    4.1965    5.5911   -0.6195 H   0  0  0  0  0  0  0  0  0  0  0  0
    4.0767    6.6551    1.8216 H   0  0  0  0  0  0  0  0  0  0  0  0
    4.2721    4.9231    2.2554 H   0  0  0  0  0  0  0  0  0  0  0  0
    5.5395    5.7566    1.2932 H   0  0  0  0  0  0  0  0  0  0  0  0
 22 24  2  0  0  0  0
 24 26  1  0  0  0  0
 25 26  2  0  0  0  0
 23 25  1  0  0  0  0
 21 22  1  0  0  0  0
 22 23  1  0  0  0  0
  1  3  1  0  0  0  0
  1  7  1  0  0  0  0
  1  2  2  0  0  0  0
 35 36  1  0  0  0  0
 36 44  1  0  0  0  0
 36 37  2  0  0  0  0
  8  9  1  0  0  0  0
  9 17  1  0  0  0  0
  9 10  2  0  0  0  0
 18 19  1  0  0  0  0
 19 34  1  0  0  0  0
 19 20  2  0  0  0  0
 35 38  1  0  0  0  0
  8 11  1  0  0  0  0
 44 45  1  0  0  0  0
 18 21  1  0  0  0  0
 34 35  1  0  0  0  0
  7  8  1  0  0  0  0
 17 18  1  0  0  0  0
 24 32  1  0  0  0  0
 25 33  1  0  0  0  0
  3  4  1  0  0  0  0
  3  5  1  0  0  0  0
  3  6  1  0  0  0  0
 38 41  1  0  0  0  0
 38 42  1  0  0  0  0
 38 43  1  0  0  0  0
 11 14  1  0  0  0  0
 11 15  1  0  0  0  0
 11 16  1  0  0  0  0
 45 47  1  0  0  0  0
 45 48  1  0  0  0  0
 45 49  1  0  0  0  0
 21 29  1  0  0  0  0
 21 30  1  0  0  0  0
 35 40  1  0  0  0  0
  8 13  1  0  0  0  0
 18 28  1  0  0  0  0
 23 31  1  0  0  0  0
 44 46  1  0  0  0  0
  7 12  1  0  0  0  0
 34 39  1  0  0  0  0
 17 27  1  0  0  0  0
M  END
$$$$

  -OEChem-05262214473D

 49 49  0     1  0  0  0  0  0999 V2000
   -1.5619    0.5658    3.7981 C   0  0  0  0  0  0  0  0  0  0  0  0
   -0.6145   -0.0489    3.3224 O   0  0  0  0  0  0  0  0  0  0  0  0
   -1.9938    0.2834    5.1988 C   0  0  0  0  0  0  0  0  0  0  0  0
   -2.7535   -0.5129    5.2522 H   0  0  0  0  0  0  0  0  0  0  0  0
   -1.1626   -0.0642    5.8331 H   0  0  0  0  0  0  0  0  0  0  0  0
   -2.4318    1.1383    5.7384 H   0  0  0  0  0  0  0  0  0  0  0  0
   -2.3116    1.5383    3.1570 N   0  0  0  0  0  0  0  0  0  0  0  0
   -2.0648    1.9643    1.8046 C   0  0  2  0  0  0  0  0  0  0  0  0
   -0.7298    1.3789    1.3634 C   0  0  0  0  0  0  0  0  0  0  0  0
    0.1423    1.0262    2.1547 O   0  0  0  0  0  0  0  0  0  0  0  0
   -2.0560    3.4811    1.6952 C   0  0  0  0  0  0  0  0  0  0  0  0
   -3.0767    1.9741    3.6688 H   0  0  0  0  0  0  0  0  0  0  0  0
   -2.8689    1.5458    1.1895 H   0  0  0  0  0  0  0  0  0  0  0  0
   -1.2569    3.9183    2.3049 H   0  0  0  0  0  0  0  0  0  0  0  0
   -1.8965    3.8033    0.6609 H   0  0  0  0  0  0  0  0  0  0  0  0
   -3.0062    3.9023    2.0409 H   0  0  0  0  0  0  0  0  0  0  0  0
   -0.6071    1.3358   -0.0200 N   0  0  0  0  0  0  0  0  0  0  0  0
    0.5702    0.8350   -0.6836 C   0  0  2  0  0  0  0  0  0  0  0  0
    1.6521    1.9005   -0.5478 C   0  0  0  0  0  0  0  0  0  0  0  0
    2.8211    1.6361   -0.2751 O   0  0  0  0  0  0  0  0  0  0  0  0
    0.3126    0.5226   -2.1622 C   0  0  0  0  0  0  0  0  0  0  0  0
   -0.6915   -0.5871   -2.3579 C   0  0  0  0  0  0  0  0  0  0  0  0
   -0.3902   -1.9027   -2.1443 N   0  0  0  0  0  0  0  0  0  0  0  0
   -2.0089   -0.5870   -2.7515 C   0  0  0  0  0  0  0  0  0  0  0  0
   -1.5163   -2.6299   -2.4131 C   0  0  0  0  0  0  0  0  0  0  0  0
   -2.5166   -1.8617   -2.7835 N   0  0  0  0  0  0  0  0  0  0  0  0
   -1.3903    1.6325   -0.5973 H   0  0  0  0  0  0  0  0  0  0  0  0
    0.8797   -0.0627   -0.1356 H   0  0  0  0  0  0  0  0  0  0  0  0
    1.2536    0.2623   -2.6656 H   0  0  0  0  0  0  0  0  0  0  0  0
   -0.0557    1.4155   -2.6844 H   0  0  0  0  0  0  0  0  0  0  0  0
    0.5016   -2.2737   -1.8438 H   0  0  0  0  0  0  0  0  0  0  0  0
   -2.6200    0.2648   -3.0139 H   0  0  0  0  0  0  0  0  0  0  0  0
   -1.5404   -3.7064   -2.3200 H   0  0  0  0  0  0  0  0  0  0  0  0
    1.1655    3.1723   -0.8166 N   0  0  0  0  0  0  0  0  0  0  0  0
    1.9877    4.3604   -0.7815 C   0  0  2  0  0  0  0  0  0  0  0  0
    2.7522    4.3644    0.5357 C   0  0  0  0  0  0  0  0  0  0  0  0
    2.3806    3.7427    1.5289 O   0  0  0  0  0  0  0  0  0  0  0  0
    1.1471    5.6194   -0.9260 C   0  0  0  0  0  0  0  0  0  0  0  0
    0.1820    3.2731   -1.0496 H   0  0  0  0  0  0  0  0  0  0  0  0
    2.6946    4.2804   -1.6145 H   0  0  0  0  0  0  0  0  0  0  0  0
    0.4328    5.7167   -0.1003 H   0  0  0  0  0  0  0  0  0  0  0  0
    1.7743    6.5171   -0.9279 H   0  0  0  0  0  0  0  0  0  0  0  0
    0.5751    5.6011   -1.8599 H   0  0  0  0  0  0  0  0  0  0  0  0
    3.8751    5.1785    0.4848 N   0  0  0  0  0  0  0  0  0  0  0  0
    4.7587    5.3594    1.6129 C   0  0  0  0  0  0  0  0  0  0  0  0
    4.1176    5.6415   -0.3861 H   0  0  0  0  0  0  0  0  0  0  0  0
    4.4401    6.2390    2.1915 H   0  0  0  0  0  0  0  0  0  0  0  0
    4.7223    4.4662    2.2539 H   0  0  0  0  0  0  0  0  0  0  0  0
    5.7870    5.5104    1.2526 H   0  0  0  0  0  0  0  0  0  0  0  0
 22 24  2  0  0  0  0
 24 26  1  0  0  0  0
 25 26  2  0  0  0  0
 23 25  1  0  0  0  0
 21 22  1  0  0  0  0
 22 23  1  0  0  0  0
  1  3  1  0  0  0  0
  1  7  1  0  0  0  0
  1  2  2  0  0  0  0
 35 36  1  0  0  0  0
 36 44  1  0  0  0  0
 36 37  2  0  0  0  0
  8  9  1  0  0  0  0
  9 17  1  0  0  0  0
  9 10  2  0  0  0  0
 18 19  1  0  0  0  0
 19 34  1  0  0  0  0
 19 20  2  0  0  0  0
 35 38  1  0  0  0  0
  8 11  1  0  0  0  0
 44 45  1  0  0  0  0
 18 21  1  0  0  0  0
 34 35  1  0  0  0  0
  7  8  1  0  0  0  0
 17 18  1  0  0  0  0
 24 32  1  0  0  0  0
 25 33  1  0  0  0  0
  3  4  1  0  0  0  0
  3  5  1  0  0  0  0
  3  6  1  0  0  0  0
 38 41  1  0  0  0  0
 38 42  1  0  0  0  0
 38 43  1  0  0  0  0
 11 14  1  0  0  0  0
 11 15  1  0  0  0  0
 11 16  1  0  0  0  0
 45 47  1  0  0  0  0
 45 48  1  0  0  0  0
 45 49  1  0  0  0  0
 21 29  1  0  0  0  0
 21 30  1  0  0  0  0
 35 40  1  0  0  0  0
  8 13  1  0  0  0  0
 18 28  1  0  0  0  0
 23 31  1  0  0  0  0
 44 46  1  0  0  0  0
  7 12  1  0  0  0  0
 34 39  1  0  0  0  0
 17 27  1  0  0  0  0
M  END
$$$$

  -OEChem-05262214473D

 49 49  0     1  0  0  0  0  0999 V2000
   -1.5619    0.5658    3.7981 C   0  0  0  0  0  0  0  0  0  0  0  0
   -0.6145   -0.0489    3.3224 O   0  0  0  0  0  0  0  0  0  0  0  0
   -1.9938    0.2834    5.1988 C   0  0  0  0  0  0  0  0  0  0  0  0
   -2.7535   -0.5129    5.2522 H   0  0  0  0  0  0  0  0  0  0  0  0
   -1.1626   -0.0642    5.8331 H   0  0  0  0  0  0  0  0  0  0  0  0
   -2.4318    1.1383    5.7384 H   0  0  0  0  0  0  0  0  0  0  0  0
   -2.3116    1.5383    3.1570 N   0  0  0  0  0  0  0  0  0  0  0  0
   -2.0648    1.9643    1.8046 C   0  0  2  0  0  0  0  0  0  0  0  0
   -0.7298    1.3789    1.3634 C   0  0  0  0  0  0  0  0  0  0  0  0
    0.1423    1.0262    2.1547 O   0  0  0  0  0  0  0  0  0  0  0  0
   -2.0560    3.4811    1.6952 C   0  0  0  0  0  0  0  0  0  0  0  0
   -3.0767    1.9741    3.6688 H   0  0  0  0  0  0  0  0  0  0  0  0
   -2.8689    1.5458    1.1895 H   0  0  0  0  0  0  0  0  0  0  0  0
   -1.2569    3.9183    2.3049 H   0  0  0  0  0  0  0  0  0  0  0  0
   -1.8965    3.8033    0.6609 H   0  0  0  0  0  0  0  0  0  0  0  0
   -3.0062    3.9023    2.0409 H   0  0  0  0  0  0  0  0  0  0  0  0
   -0.6071    1.3358   -0.0200 N   0  0  0  0  0  0  0  0  0  0  0  0
    0.5702    0.8350   -0.6836 C   0  0  2  0  0  0  0  0  0  0  0  0
    1.6521    1.9005   -0.5478 C   0  0  0  0  0  0  0  0  0  0  0  0
    2.8529    1.6379   -0.5424 O   0  0  0  0  0  0  0  0  0  0  0  0
    0.3126    0.5226   -2.1622 C   0  0  0  0  0  0  0  0  0  0  0  0
   -0.6915   -0.5871   -2.3579 C   0  0  0  0  0  0  0  0  0  0  0  0
   -0.3902   -1.9027   -2.1443 N   0  0  0  0  0  0  0  0  0  0  0  0
   -2.0089   -0.5870   -2.7515 C   0  0  0  0  0  0  0  0  0  0  0  0
   -1.5163   -2.6299   -2.4131 C   0  0  0  0  0  0  0  0  0  0  0  0
   -2.5166   -1.8617   -2.7835 N   0  0  0  0  0  0  0  0  0  0  0  0
   -1.3903    1.6325   -0.5973 H   0  0  0  0  0  0  0  0  0  0  0  0
    0.8797   -0.0627   -0.1356 H   0  0  0  0  0  0  0  0  0  0  0  0
    1.2536    0.2623   -2.6656 H   0  0  0  0  0  0  0  0  0  0  0  0
   -0.0557    1.4155   -2.6844 H   0  0  0  0  0  0  0  0  0  0  0  0
    0.5016   -2.2737   -1.8438 H   0  0  0  0  0  0  0  0  0  0  0  0
   -2.6200    0.2648   -3.0139 H   0  0  0  0  0  0  0  0  0  0  0  0
   -1.5404   -3.7064   -2.3200 H   0  0  0  0  0  0  0  0  0  0  0  0
    1.1167    3.1795   -0.4842 N   0  0  0  0  0  0  0  0  0  0  0  0
    1.9241    4.3733   -0.3765 C   0  0  2  0  0  0  0  0  0  0  0  0
    2.9168    4.1687    0.7602 C   0  0  0  0  0  0  0  0  0  0  0  0
    2.7371    3.3627    1.6708 O   0  0  0  0  0  0  0  0  0  0  0  0
    1.0636    5.6031   -0.1320 C   0  0  0  0  0  0  0  0  0  0  0  0
    0.1065    3.2815   -0.5149 H   0  0  0  0  0  0  0  0  0  0  0  0
    2.4671    4.4743   -1.3226 H   0  0  0  0  0  0  0  0  0  0  0  0
    0.5119    5.5202    0.8115 H   0  0  0  0  0  0  0  0  0  0  0  0
    1.6742    6.5105   -0.0791 H   0  0  0  0  0  0  0  0  0  0  0  0
    0.3304    5.7318   -0.9355 H   0  0  0  0  0  0  0  0  0  0  0  0
    4.0063    5.0227    0.6617 N   0  0  0  0  0  0  0  0  0  0  0  0
    5.0804    5.0309    1.6273 C   0  0  0  0  0  0  0  0  0  0  0  0
    4.0825    5.6454   -0.1372 H   0  0  0  0  0  0  0  0  0  0  0  0
    4.8677    5.7774    2.4067 H   0  0  0  0  0  0  0  0  0  0  0  0
    5.1674    4.0355    2.0871 H   0  0  0  0  0  0  0  0  0  0  0  0
    6.0243    5.2859    1.1234 H   0  0  0  0  0  0  0  0  0  0  0  0
 22 24  2  0  0  0  0
 24 26  1  0  0  0  0
 25 26  2  0  0  0  0
 23 25  1  0  0  0  0
 21 22  1  0  0  0  0
 22 23  1  0  0  0  0
  1  3  1  0  0  0  0
  1  7  1  0  0  0  0
  1  2  2  0  0  0  0
 35 36  1  0  0  0  0
 36 44  1  0  0  0  0
 36 37  2  0  0  0  0
  8  9  1  0  0  0  0
  9 17  1  0  0  0  0
  9 10  2  0  0  0  0
 18 19  1  0  0  0  0
 19 34  1  0  0  0  0
 19 20  2  0  0  0  0
 35 38  1  0  0  0  0
  8 11  1  0  0  0  0
 44 45  1  0  0  0  0
 18 21  1  0  0  0  0
 34 35  1  0  0  0  0
  7  8  1  0  0  0  0
 17 18  1  0  0  0  0
 24 32  1  0  0  0  0
 25 33  1  0  0  0  0
  3  4  1  0  0  0  0
  3  5  1  0  0  0  0
  3  6  1  0  0  0  0
 38 41  1  0  0  0  0
 38 42  1  0  0  0  0
 38 43  1  0  0  0  0
 11 14  1  0  0  0  0
 11 15  1  0  0  0  0
 11 16  1  0  0  0  0
 45 47  1  0  0  0  0
 45 48  1  0  0  0  0
 45 49  1  0  0  0  0
 21 29  1  0  0  0  0
 21 30  1  0  0  0  0
 35 40  1  0  0  0  0
  8 13  1  0  0  0  0
 18 28  1  0  0  0  0
 23 31  1  0  0  0  0
 44 46  1  0  0  0  0
  7 12  1  0  0  0  0
 34 39  1  0  0  0  0
 17 27  1  0  0  0  0
M  END
$$$$

  -OEChem-05262214473D

 49 49  0     1  0  0  0  0  0999 V2000
   -1.5619    0.5658    3.7981 C   0  0  0  0  0  0  0  0  0  0  0  0
   -0.6145   -0.0489    3.3224 O   0  0  0  0  0  0  0  0  0  0  0  0
   -1.9938    0.2834    5.1988 C   0  0  0  0  0  0  0  0  0  0  0  0
   -2.7535   -0.5129    5.2522 H   0  0  0  0  0  0  0  0  0  0  0  0
   -1.1626   -0.0642    5.8331 H   0  0  0  0  0  0  0  0  0  0  0  0
   -2.4318    1.1383    5.7384 H   0  0  0  0  0  0  0  0  0  0  0  0
   -2.3116    1.5383    3.1570 N   0  0  0  0  0  0  0  0  0  0  0  0
   -2.0648    1.9643    1.8046 C   0  0  2  0  0  0  0  0  0  0  0  0
   -0.7298    1.3789    1.3634 C   0  0  0  0  0  0  0  0  0  0  0  0
    0.1423    1.0262    2.1547 O   0  0  0  0  0  0  0  0  0  0  0  0
   -2.0560    3.4811    1.6952 C   0  0  0  0  0  0  0  0  0  0  0  0
   -3.0767    1.9741    3.6688 H   0  0  0  0  0  0  0  0  0  0  0  0
   -2.8689    1.5458    1.1895 H   0  0  0  0  0  0  0  0  0  0  0  0
   -1.2569    3.9183    2.3049 H   0  0  0  0  0  0  0  0  0  0  0  0
   -1.8965    3.8033    0.6609 H   0  0  0  0  0  0  0  0  0  0  0  0
   -3.0062    3.9023    2.0409 H   0  0  0  0  0  0  0  0  0  0  0  0
   -0.6071    1.3358   -0.0200 N   0  0  0  0  0  0  0  0  0  0  0  0
    0.5702    0.8350   -0.6836 C   0  0  2  0  0  0  0  0  0  0  0  0
    1.6521    1.9005   -0.5478 C   0  0  0  0  0  0  0  0  0  0  0  0
    2.8352    1.6895   -0.8060 O   0  0  0  0  0  0  0  0  0  0  0  0
    0.3126    0.5226   -2.1622 C   0  0  0  0  0  0  0  0  0  0  0  0
   -0.6915   -0.5871   -2.3579 C   0  0  0  0  0  0  0  0  0  0  0  0
   -0.3902   -1.9027   -2.1443 N   0  0  0  0  0  0  0  0  0  0  0  0
   -2.0089   -0.5870   -2.7515 C   0  0  0  0  0  0  0  0  0  0  0  0
   -1.5163   -2.6299   -2.4131 C   0  0  0  0  0  0  0  0  0  0  0  0
   -2.5166   -1.8617   -2.7835 N   0  0  0  0  0  0  0  0  0  0  0  0
   -1.3903    1.6325   -0.5973 H   0  0  0  0  0  0  0  0  0  0  0  0
    0.8797   -0.0627   -0.1356 H   0  0  0  0  0  0  0  0  0  0  0  0
    1.2536    0.2623   -2.6656 H   0  0  0  0  0  0  0  0  0  0  0  0
   -0.0557    1.4155   -2.6844 H   0  0  0  0  0  0  0  0  0  0  0  0
    0.5016   -2.2737   -1.8438 H   0  0  0  0  0  0  0  0  0  0  0  0
   -2.6200    0.2648   -3.0139 H   0  0  0  0  0  0  0  0  0  0  0  0
   -1.5404   -3.7064   -2.3200 H   0  0  0  0  0  0  0  0  0  0  0  0
    1.1295    3.1242   -0.1530 N   0  0  0  0  0  0  0  0  0  0  0  0
    1.9356    4.3100    0.0285 C   0  0  2  0  0  0  0  0  0  0  0  0
    3.1208    3.9423    0.9114 C   0  0  0  0  0  0  0  0  0  0  0  0
    3.1158    2.9778    1.6735 O   0  0  0  0  0  0  0  0  0  0  0  0
    1.1268    5.4396    0.6471 C   0  0  0  0  0  0  0  0  0  0  0  0
    0.1302    3.1897    0.0169 H   0  0  0  0  0  0  0  0  0  0  0  0
    2.2956    4.6026   -0.9639 H   0  0  0  0  0  0  0  0  0  0  0  0
    0.7577    5.1647    1.6419 H   0  0  0  0  0  0  0  0  0  0  0  0
    1.7312    6.3459    0.7576 H   0  0  0  0  0  0  0  0  0  0  0  0
    0.2582    5.6826    0.0256 H   0  0  0  0  0  0  0  0  0  0  0  0
    4.1687    4.8428    0.7801 N   0  0  0  0  0  0  0  0  0  0  0  0
    5.4012    4.7185    1.5226 C   0  0  0  0  0  0  0  0  0  0  0  0
    4.0935    5.6027    0.1103 H   0  0  0  0  0  0  0  0  0  0  0  0
    5.3302    5.3019    2.4524 H   0  0  0  0  0  0  0  0  0  0  0  0
    5.5771    3.6603    1.7664 H   0  0  0  0  0  0  0  0  0  0  0  0
    6.2354    5.0982    0.9144 H   0  0  0  0  0  0  0  0  0  0  0  0
 22 24  2  0  0  0  0
 24 26  1  0  0  0  0
 25 26  2  0  0  0  0
 23 25  1  0  0  0  0
 21 22  1  0  0  0  0
 22 23  1  0  0  0  0
  1  3  1  0  0  0  0
  1  7  1  0  0  0  0
  1  2  2  0  0  0  0
 35 36  1  0  0  0  0
 36 44  1  0  0  0  0
 36 37  2  0  0  0  0
  8  9  1  0  0  0  0
  9 17  1  0  0  0  0
  9 10  2  0  0  0  0
 18 19  1  0  0  0  0
 19 34  1  0  0  0  0
 19 20  2  0  0  0  0
 35 38  1  0  0  0  0
  8 11  1  0  0  0  0
 44 45  1  0  0  0  0
 18 21  1  0  0  0  0
 34 35  1  0  0  0  0
  7  8  1  0  0  0  0
 17 18  1  0  0  0  0
 24 32  1  0  0  0  0
 25 33  1  0  0  0  0
  3  4  1  0  0  0  0
  3  5  1  0  0  0  0
  3  6  1  0  0  0  0
 38 41  1  0  0  0  0
 38 42  1  0  0  0  0
 38 43  1  0  0  0  0
 11 14  1  0  0  0  0
 11 15  1  0  0  0  0
 11 16  1  0  0  0  0
 45 47  1  0  0  0  0
 45 48  1  0  0  0  0
 45 49  1  0  0  0  0
 21 29  1  0  0  0  0
 21 30  1  0  0  0  0
 35 40  1  0  0  0  0
  8 13  1  0  0  0  0
 18 28  1  0  0  0  0
 23 31  1  0  0  0  0
 44 46  1  0  0  0  0
  7 12  1  0  0  0  0
 34 39  1  0  0  0  0
 17 27  1  0  0  0  0
M  END
$$$$

  -OEChem-05262214473D

 49 49  0     1  0  0  0  0  0999 V2000
   -1.5619    0.5658    3.7981 C   0  0  0  0  0  0  0  0  0  0  0  0
   -0.6145   -0.0489    3.3224 O   0  0  0  0  0  0  0  0  0  0  0  0
   -1.9938    0.2834    5.1988 C   0  0  0  0  0  0  0  0  0  0  0  0
   -2.7535   -0.5129    5.2522 H   0  0  0  0  0  0  0  0  0  0  0  0
   -1.1626   -0.0642    5.8331 H   0  0  0  0  0  0  0  0  0  0  0  0
   -2.4318    1.1383    5.7384 H   0  0  0  0  0  0  0  0  0  0  0  0
   -2.3116    1.5383    3.1570 N   0  0  0  0  0  0  0  0  0  0  0  0
   -2.0648    1.9643    1.8046 C   0  0  2  0  0  0  0  0  0  0  0  0
   -0.7298    1.3789    1.3634 C   0  0  0  0  0  0  0  0  0  0  0  0
    0.1423    1.0262    2.1547 O   0  0  0  0  0  0  0  0  0  0  0  0
   -2.0560    3.4811    1.6952 C   0  0  0  0  0  0  0  0  0  0  0  0
   -3.0767    1.9741    3.6688 H   0  0  0  0  0  0  0  0  0  0  0  0
   -2.8689    1.5458    1.1895 H   0  0  0  0  0  0  0  0  0  0  0  0
   -1.2569    3.9183    2.3049 H   0  0  0  0  0  0  0  0  0  0  0  0
   -1.8965    3.8033    0.6609 H   0  0  0  0  0  0  0  0  0  0  0  0
   -3.0062    3.9023    2.0409 H   0  0  0  0  0  0  0  0  0  0  0  0
   -0.6071    1.3358   -0.0200 N   0  0  0  0  0  0  0  0  0  0  0  0
    0.5702    0.8350   -0.6836 C   0  0  2  0  0  0  0  0  0  0  0  0
    1.6521    1.9005   -0.5478 C   0  0  0  0  0  0  0  0  0  0  0  0
    2.7692    1.7873   -1.0479 O   0  0  0  0  0  0  0  0  0  0  0  0
    0.3126    0.5226   -2.1622 C   0  0  0  0  0  0  0  0  0  0  0  0
   -0.6915   -0.5871   -2.3579 C   0  0  0  0  0  0  0  0  0  0  0  0
   -0.3902   -1.9027   -2.1443 N   0  0  0  0  0  0  0  0  0  0  0  0
   -2.0089   -0.5870   -2.7515 C   0  0  0  0  0  0  0  0  0  0  0  0
   -1.5163   -2.6299   -2.4131 C   0  0  0  0  0  0  0  0  0  0  0  0
   -2.5166   -1.8617   -2.7835 N   0  0  0  0  0  0  0  0  0  0  0  0
   -1.3903    1.6325   -0.5973 H   0  0  0  0  0  0  0  0  0  0  0  0
    0.8797   -0.0627   -0.1356 H   0  0  0  0  0  0  0  0  0  0  0  0
    1.2536    0.2623   -2.6656 H   0  0  0  0  0  0  0  0  0  0  0  0
   -0.0557    1.4155   -2.6844 H   0  0  0  0  0  0  0  0  0  0  0  0
    0.5016   -2.2737   -1.8438 H   0  0  0  0  0  0  0  0  0  0  0  0
   -2.6200    0.2648   -3.0139 H   0  0  0  0  0  0  0  0  0  0  0  0
   -1.5404   -3.7064   -2.3200 H   0  0  0  0  0  0  0  0  0  0  0  0
    1.2031    3.0103    0.1544 N   0  0  0  0  0  0  0  0  0  0  0  0
    2.0215    4.1747    0.4060 C   0  0  2  0  0  0  0  0  0  0  0  0
    3.3505    3.7004    0.9789 C   0  0  0  0  0  0  0  0  0  0  0  0
    3.4910    2.6142    1.5370 O   0  0  0  0  0  0  0  0  0  0  0  0
    1.3326    5.1399    1.3581 C   0  0  0  0  0  0  0  0  0  0  0  0
    0.2514    3.0039    0.5093 H   0  0  0  0  0  0  0  0  0  0  0  0
    2.1920    4.6568   -0.5628 H   0  0  0  0  0  0  0  0  0  0  0  0
    1.1535    4.6746    2.3342 H   0  0  0  0  0  0  0  0  0  0  0  0
    1.9415    6.0346    1.5252 H   0  0  0  0  0  0  0  0  0  0  0  0
    0.3634    5.4568    0.9581 H   0  0  0  0  0  0  0  0  0  0  0  0
    4.3511    4.6510    0.8321 N   0  0  0  0  0  0  0  0  0  0  0  0
    5.6994    4.4432    1.3061 C   0  0  0  0  0  0  0  0  0  0  0  0
    4.1498    5.5162    0.3395 H   0  0  0  0  0  0  0  0  0  0  0  0
    5.7962    4.8449    2.3255 H   0  0  0  0  0  0  0  0  0  0  0  0
    5.9235    3.3663    1.3136 H   0  0  0  0  0  0  0  0  0  0  0  0
    6.4059    4.9601    0.6399 H   0  0  0  0  0  0  0  0  0  0  0  0
 22 24  2  0  0  0  0
 24 26  1  0  0  0  0
 25 26  2  0  0  0  0
 23 25  1  0  0  0  0
 21 22  1  0  0  0  0
 22 23  1  0  0  0  0
  1  3  1  0  0  0  0
  1  7  1  0  0  0  0
  1  2  2  0  0  0  0
 35 36  1  0  0  0  0
 36 44  1  0  0  0  0
 36 37  2  0  0  0  0
  8  9  1  0  0  0  0
  9 17  1  0  0  0  0
  9 10  2  0  0  0  0
 18 19  1  0  0  0  0
 19 34  1  0  0  0  0
 19 20  2  0  0  0  0
 35 38  1  0  0  0  0
  8 11  1  0  0  0  0
 44 45  1  0  0  0  0
 18 21  1  0  0  0  0
 34 35  1  0  0  0  0
  7  8  1  0  0  0  0
 17 18  1  0  0  0  0
 24 32  1  0  0  0  0
 25 33  1  0  0  0  0
  3  4  1  0  0  0  0
  3  5  1  0  0  0  0
  3  6  1  0  0  0  0
 38 41  1  0  0  0  0
 38 42  1  0  0  0  0
 38 43  1  0  0  0  0
 11 14  1  0  0  0  0
 11 15  1  0  0  0  0
 11 16  1  0  0  0  0
 45 47  1  0  0  0  0
 45 48  1  0  0  0  0
 45 49  1  0  0  0  0
 21 29  1  0  0  0  0
 21 30  1  0  0  0  0
 35 40  1  0  0  0  0
  8 13  1  0  0  0  0
 18 28  1  0  0  0  0
 23 31  1  0  0  0  0
 44 46  1  0  0  0  0
  7 12  1  0  0  0  0
 34 39  1  0  0  0  0
 17 27  1  0  0  0  0
M  END
$$$$

  -OEChem-05262214473D

 49 49  0     1  0  0  0  0  0999 V2000
   -1.5619    0.5658    3.7981 C   0  0  0  0  0  0  0  0  0  0  0  0
   -0.6145   -0.0489    3.3224 O   0  0  0  0  0  0  0  0  0  0  0  0
   -1.9938    0.2834    5.1988 C   0  0  0  0  0  0  0  0  0  0  0  0
   -2.7535   -0.5129    5.2522 H   0  0  0  0  0  0  0  0  0  0  0  0
   -1.1626   -0.0642    5.8331 H   0  0  0  0  0  0  0  0  0  0  0  0
   -2.4318    1.1383    5.7384 H   0  0  0  0  0  0  0  0  0  0  0  0
   -2.3116    1.5383    3.1570 N   0  0  0  0  0  0  0  0  0  0  0  0
   -2.0648    1.9643    1.8046 C   0  0  2  0  0  0  0  0  0  0  0  0
   -0.7298    1.3789    1.3634 C   0  0  0  0  0  0  0  0  0  0  0  0
    0.1423    1.0262    2.1547 O   0  0  0  0  0  0  0  0  0  0  0  0
   -2.0560    3.4811    1.6952 C   0  0  0  0  0  0  0  0  0  0  0  0
   -3.0767    1.9741    3.6688 H   0  0  0  0  0  0  0  0  0  0  0  0
   -2.8689    1.5458    1.1895 H   0  0  0  0  0  0  0  0  0  0  0  0
   -1.2569    3.9183    2.3049 H   0  0  0  0  0  0  0  0  0  0  0  0
   -1.8965    3.8033    0.6609 H   0  0  0  0  0  0  0  0  0  0  0  0
   -3.0062    3.9023    2.0409 H   0  0  0  0  0  0  0  0  0  0  0  0
   -0.6071    1.3358   -0.0200 N   0  0  0  0  0  0  0  0  0  0  0  0
    0.5702    0.8350   -0.6836 C   0  0  2  0  0  0  0  0  0  0  0  0
    1.6521    1.9005   -0.5478 C   0  0  0  0  0  0  0  0  0  0  0  0
    2.6595    1.9247   -1.2517 O   0  0  0  0  0  0  0  0  0  0  0  0
    0.3126    0.5226   -2.1622 C   0  0  0  0  0  0  0  0  0  0  0  0
   -0.6915   -0.5871   -2.3579 C   0  0  0  0  0  0  0  0  0  0  0  0
   -0.3902   -1.9027   -2.1443 N   0  0  0  0  0  0  0  0  0  0  0  0
   -2.0089   -0.5870   -2.7515 C   0  0  0  0  0  0  0  0  0  0  0  0
   -1.5163   -2.6299   -2.4131 C   0  0  0  0  0  0  0  0  0  0  0  0
   -2.5166   -1.8617   -2.7835 N   0  0  0  0  0  0  0  0  0  0  0  0
   -1.3903    1.6325   -0.5973 H   0  0  0  0  0  0  0  0  0  0  0  0
    0.8797   -0.0627   -0.1356 H   0  0  0  0  0  0  0  0  0  0  0  0
    1.2536    0.2623   -2.6656 H   0  0  0  0  0  0  0  0  0  0  0  0
   -0.0557    1.4155   -2.6844 H   0  0  0  0  0  0  0  0  0  0  0  0
    0.5016   -2.2737   -1.8438 H   0  0  0  0  0  0  0  0  0  0  0  0
   -2.6200    0.2648   -3.0139 H   0  0  0  0  0  0  0  0  0  0  0  0
   -1.5404   -3.7064   -2.3200 H   0  0  0  0  0  0  0  0  0  0  0  0
    1.3324    2.8456    0.4171 N   0  0  0  0  0  0  0  0  0  0  0  0
    2.1758    3.9766    0.7303 C   0  0  2  0  0  0  0  0  0  0  0  0
    3.5902    3.4597    0.9581 C   0  0  0  0  0  0  0  0  0  0  0  0
    3.8371    2.2967    1.2704 O   0  0  0  0  0  0  0  0  0  0  0  0
    1.6670    4.7247    1.9526 C   0  0  0  0  0  0  0  0  0  0  0  0
    0.4618    2.7368    0.9289 H   0  0  0  0  0  0  0  0  0  0  0  0
    2.1631    4.6330   -0.1467 H   0  0  0  0  0  0  0  0  0  0  0  0
    1.6724    4.0831    2.8413 H   0  0  0  0  0  0  0  0  0  0  0  0
    2.2906    5.5978    2.1715 H   0  0  0  0  0  0  0  0  0  0  0  0
    0.6390    5.0700    1.7982 H   0  0  0  0  0  0  0  0  0  0  0  0
    4.5410    4.4604    0.8140 N   0  0  0  0  0  0  0  0  0  0  0  0
    5.9547    4.2241    0.9924 C   0  0  0  0  0  0  0  0  0  0  0  0
    4.2478    5.3919    0.5349 H   0  0  0  0  0  0  0  0  0  0  0  0
    6.2339    4.4375    2.0348 H   0  0  0  0  0  0  0  0  0  0  0  0
    6.1829    3.1735    0.7596 H   0  0  0  0  0  0  0  0  0  0  0  0
    6.5240    4.8811    0.3185 H   0  0  0  0  0  0  0  0  0  0  0  0
 22 24  2  0  0  0  0
 24 26  1  0  0  0  0
 25 26  2  0  0  0  0
 23 25  1  0  0  0  0
 21 22  1  0  0  0  0
 22 23  1  0  0  0  0
  1  3  1  0  0  0  0
  1  7  1  0  0  0  0
  1  2  2  0  0  0  0
 35 36  1  0  0  0  0
 36 44  1  0  0  0  0
 36 37  2  0  0  0  0
  8  9  1  0  0  0  0
  9 17  1  0  0  0  0
  9 10  2  0  0  0  0
 18 19  1  0  0  0  0
 19 34  1  0  0  0  0
 19 20  2  0  0  0  0
 35 38  1  0  0  0  0
  8 11  1  0  0  0  0
 44 45  1  0  0  0  0
 18 21  1  0  0  0  0
 34 35  1  0  0  0  0
  7  8  1  0  0  0  0
 17 18  1  0  0  0  0
 24 32  1  0  0  0  0
 25 33  1  0  0  0  0
  3  4  1  0  0  0  0
  3  5  1  0  0  0  0
  3  6  1  0  0  0  0
 38 41  1  0  0  0  0
 38 42  1  0  0  0  0
 38 43  1  0  0  0  0
 11 14  1  0  0  0  0
 11 15  1  0  0  0  0
 11 16  1  0  0  0  0
 45 47  1  0  0  0  0
 45 48  1  0  0  0  0
 45 49  1  0  0  0  0
 21 29  1  0  0  0  0
 21 30  1  0  0  0  0
 35 40  1  0  0  0  0
  8 13  1  0  0  0  0
 18 28  1  0  0  0  0
 23 31  1  0  0  0  0
 44 46  1  0  0  0  0
  7 12  1  0  0  0  0
 34 39  1  0  0  0  0
 17 27  1  0  0  0  0
M  END
$$$$

  -OEChem-05262214473D

 49 49  0     1  0  0  0  0  0999 V2000
   -1.5619    0.5658    3.7981 C   0  0  0  0  0  0  0  0  0  0  0  0
   -0.6145   -0.0489    3.3224 O   0  0  0  0  0  0  0  0  0  0  0  0
   -1.9938    0.2834    5.1988 C   0  0  0  0  0  0  0  0  0  0  0  0
   -2.7535   -0.5129    5.2522 H   0  0  0  0  0  0  0  0  0  0  0  0
   -1.1626   -0.0642    5.8331 H   0  0  0  0  0  0  0  0  0  0  0  0
   -2.4318    1.1383    5.7384 H   0  0  0  0  0  0  0  0  0  0  0  0
   -2.3116    1.5383    3.1570 N   0  0  0  0  0  0  0  0  0  0  0  0
   -2.0648    1.9643    1.8046 C   0  0  2  0  0  0  0  0  0  0  0  0
   -0.7298    1.3789    1.3634 C   0  0  0  0  0  0  0  0  0  0  0  0
    0.1423    1.0262    2.1547 O   0  0  0  0  0  0  0  0  0  0  0  0
   -2.0560    3.4811    1.6952 C   0  0  0  0  0  0  0  0  0  0  0  0
   -3.0767    1.9741    3.6688 H   0  0  0  0  0  0  0  0  0  0  0  0
   -2.8689    1.5458    1.1895 H   0  0  0  0  0  0  0  0  0  0  0  0
   -1.2569    3.9183    2.3049 H   0  0  0  0  0  0  0  0  0  0  0  0
   -1.8965    3.8033    0.6609 H   0  0  0  0  0  0  0  0  0  0  0  0
   -3.0062    3.9023    2.0409 H   0  0  0  0  0  0  0  0  0  0  0  0
   -0.6071    1.3358   -0.0200 N   0  0  0  0  0  0  0  0  0  0  0  0
    0.5702    0.8350   -0.6836 C   0  0  2  0  0  0  0  0  0  0  0  0
    1.6521    1.9005   -0.5478 C   0  0  0  0  0  0  0  0  0  0  0  0
    2.5135    2.0923   -1.4035 O   0  0  0  0  0  0  0  0  0  0  0  0
    0.3126    0.5226   -2.1622 C   0  0  0  0  0  0  0  0  0  0  0  0
   -0.6915   -0.5871   -2.3579 C   0  0  0  0  0  0  0  0  0  0  0  0
   -0.3902   -1.9027   -2.1443 N   0  0  0  0  0  0  0  0  0  0  0  0
   -2.0089   -0.5870   -2.7515 C   0  0  0  0  0  0  0  0  0  0  0  0
   -1.5163   -2.6299   -2.4131 C   0  0  0  0  0  0  0  0  0  0  0  0
   -2.5166   -1.8617   -2.7835 N   0  0  0  0  0  0  0  0  0  0  0  0
   -1.3903    1.6325   -0.5973 H   0  0  0  0  0  0  0  0  0  0  0  0
    0.8797   -0.0627   -0.1356 H   0  0  0  0  0  0  0  0  0  0  0  0
    1.2536    0.2623   -2.6656 H   0  0  0  0  0  0  0  0  0  0  0  0
   -0.0557    1.4155   -2.6844 H   0  0  0  0  0  0  0  0  0  0  0  0
    0.5016   -2.2737   -1.8438 H   0  0  0  0  0  0  0  0  0  0  0  0
   -2.6200    0.2648   -3.0139 H   0  0  0  0  0  0  0  0  0  0  0  0
   -1.5404   -3.7064   -2.3200 H   0  0  0  0  0  0  0  0  0  0  0  0
    1.5086    2.6411    0.6172 N   0  0  0  0  0  0  0  0  0  0  0  0
    2.3881    3.7293    0.9792 C   0  0  2  0  0  0  0  0  0  0  0  0
    3.8234    3.2366    0.8505 C   0  0  0  0  0  0  0  0  0  0  0  0
    4.1306    2.0470    0.8920 O   0  0  0  0  0  0  0  0  0  0  0  0
    2.1070    4.2221    2.3901 C   0  0  0  0  0  0  0  0  0  0  0  0
    0.7470    2.4065    1.2471 H   0  0  0  0  0  0  0  0  0  0  0  0
    2.2111    4.5330    0.2561 H   0  0  0  0  0  0  0  0  0  0  0  0
    2.2789    3.4305    3.1286 H   0  0  0  0  0  0  0  0  0  0  0  0
    2.7547    5.0651    2.6524 H   0  0  0  0  0  0  0  0  0  0  0  0
    1.0660    4.5483    2.4889 H   0  0  0  0  0  0  0  0  0  0  0  0
    4.7257    4.2839    0.7273 N   0  0  0  0  0  0  0  0  0  0  0  0
    6.1495    4.0758    0.6031 C   0  0  0  0  0  0  0  0  0  0  0  0
    4.3805    5.2382    0.6831 H   0  0  0  0  0  0  0  0  0  0  0  0
    6.6135    4.1075    1.5999 H   0  0  0  0  0  0  0  0  0  0  0  0
    6.3378    3.0950    0.1421 H   0  0  0  0  0  0  0  0  0  0  0  0
    6.5819    4.8665   -0.0277 H   0  0  0  0  0  0  0  0  0  0  0  0
 22 24  2  0  0  0  0
 24 26  1  0  0  0  0
 25 26  2  0  0  0  0
 23 25  1  0  0  0  0
 21 22  1  0  0  0  0
 22 23  1  0  0  0  0
  1  3  1  0  0  0  0
  1  7  1  0  0  0  0
  1  2  2  0  0  0  0
 35 36  1  0  0  0  0
 36 44  1  0  0  0  0
 36 37  2  0  0  0  0
  8  9  1  0  0  0  0
  9 17  1  0  0  0  0
  9 10  2  0  0  0  0
 18 19  1  0  0  0  0
 19 34  1  0  0  0  0
 19 20  2  0  0  0  0
 35 38  1  0  0  0  0
  8 11  1  0  0  0  0
 44 45  1  0  0  0  0
 18 21  1  0  0  0  0
 34 35  1  0  0  0  0
  7  8  1  0  0  0  0
 17 18  1  0  0  0  0
 24 32  1  0  0  0  0
 25 33  1  0  0  0  0
  3  4  1  0  0  0  0
  3  5  1  0  0  0  0
  3  6  1  0  0  0  0
 38 41  1  0  0  0  0
 38 42  1  0  0  0  0
 38 43  1  0  0  0  0
 11 14  1  0  0  0  0
 11 15  1  0  0  0  0
 11 16  1  0  0  0  0
 45 47  1  0  0  0  0
 45 48  1  0  0  0  0
 45 49  1  0  0  0  0
 21 29  1  0  0  0  0
 21 30  1  0  0  0  0
 35 40  1  0  0  0  0
  8 13  1  0  0  0  0
 18 28  1  0  0  0  0
 23 31  1  0  0  0  0
 44 46  1  0  0  0  0
  7 12  1  0  0  0  0
 34 39  1  0  0  0  0
 17 27  1  0  0  0  0
M  END
$$$$

  -OEChem-05262214473D

 49 49  0     1  0  0  0  0  0999 V2000
   -1.5619    0.5658    3.7981 C   0  0  0  0  0  0  0  0  0  0  0  0
   -0.6145   -0.0489    3.3224 O   0  0  0  0  0  0  0  0  0  0  0  0
   -1.9938    0.2834    5.1988 C   0  0  0  0  0  0  0  0  0  0  0  0
   -2.7535   -0.5129    5.2522 H   0  0  0  0  0  0  0  0  0  0  0  0
   -1.1626   -0.0642    5.8331 H   0  0  0  0  0  0  0  0  0  0  0  0
   -2.4318    1.1383    5.7384 H   0  0  0  0  0  0  0  0  0  0  0  0
   -2.3116    1.5383    3.1570 N   0  0  0  0  0  0  0  0  0  0  0  0
   -2.0648    1.9643    1.8046 C   0  0  2  0  0  0  0  0  0  0  0  0
   -0.7298    1.3789    1.3634 C   0  0  0  0  0  0  0  0  0  0  0  0
    0.1423    1.0262    2.1547 O   0  0  0  0  0  0  0  0  0  0  0  0
   -2.0560    3.4811    1.6952 C   0  0  0  0  0  0  0  0  0  0  0  0
   -3.0767    1.9741    3.6688 H   0  0  0  0  0  0  0  0  0  0  0  0
   -2.8689    1.5458    1.1895 H   0  0  0  0  0  0  0  0  0  0  0  0
   -1.2569    3.9183    2.3049 H   0  0  0  0  0  0  0  0  0  0  0  0
   -1.8965    3.8033    0.6609 H   0  0  0  0  0  0  0  0  0  0  0  0
   -3.0062    3.9023    2.0409 H   0  0  0  0  0  0  0  0  0  0  0  0
   -0.6071    1.3358   -0.0200 N   0  0  0  0  0  0  0  0  0  0  0  0
    0.5702    0.8350   -0.6836 C   0  0  2  0  0  0  0  0  0  0  0  0
    1.6521    1.9005   -0.5478 C   0  0  0  0  0  0  0  0  0  0  0  0
    2.3411    2.2787   -1.4929 O   0  0  0  0  0  0  0  0  0  0  0  0
    0.3126    0.5226   -2.1622 C   0  0  0  0  0  0  0  0  0  0  0  0
   -0.6915   -0.5871   -2.3579 C   0  0  0  0  0  0  0  0  0  0  0  0
   -0.3902   -1.9027   -2.1443 N   0  0  0  0  0  0  0  0  0  0  0  0
   -2.0089   -0.5870   -2.7515 C   0  0  0  0  0  0  0  0  0  0  0  0
   -1.5163   -2.6299   -2.4131 C   0  0  0  0  0  0  0  0  0  0  0  0
   -2.5166   -1.8617   -2.7835 N   0  0  0  0  0  0  0  0  0  0  0  0
   -1.3903    1.6325   -0.5973 H   0  0  0  0  0  0  0  0  0  0  0  0
    0.8797   -0.0627   -0.1356 H   0  0  0  0  0  0  0  0  0  0  0  0
    1.2536    0.2623   -2.6656 H   0  0  0  0  0  0  0  0  0  0  0  0
   -0.0557    1.4155   -2.6844 H   0  0  0  0  0  0  0  0  0  0  0  0
    0.5016   -2.2737   -1.8438 H   0  0  0  0  0  0  0  0  0  0  0  0
   -2.6200    0.2648   -3.0139 H   0  0  0  0  0  0  0  0  0  0  0  0
   -1.5404   -3.7064   -2.3200 H   0  0  0  0  0  0  0  0  0  0  0  0
    1.7197    2.4110    0.7411 N   0  0  0  0  0  0  0  0  0  0  0  0
    2.6439    3.4496    1.1358 C   0  0  2  0  0  0  0  0  0  0  0  0
    4.0344    3.0462    0.6634 C   0  0  0  0  0  0  0  0  0  0  0  0
    4.3513    1.8821    0.4276 O   0  0  0  0  0  0  0  0  0  0  0  0
    2.6228    3.6664    2.6409 C   0  0  0  0  0  0  0  0  0  0  0  0
    1.0878    2.0357    1.4422 H   0  0  0  0  0  0  0  0  0  0  0  0
    2.3326    4.3635    0.6181 H   0  0  0  0  0  0  0  0  0  0  0  0
    2.9318    2.7614    3.1765 H   0  0  0  0  0  0  0  0  0  0  0  0
    3.3024    4.4730    2.9351 H   0  0  0  0  0  0  0  0  0  0  0  0
    1.6155    3.9274    2.9829 H   0  0  0  0  0  0  0  0  0  0  0  0
    4.8924    4.1337    0.5776 N   0  0  0  0  0  0  0  0  0  0  0  0
    6.2707    4.0087    0.1645 C   0  0  0  0  0  0  0  0  0  0  0  0
    4.5391    5.0656    0.7739 H   0  0  0  0  0  0  0  0  0  0  0  0
    6.9092    3.8773    1.0506 H   0  0  0  0  0  0  0  0  0  0  0  0
    6.3775    3.1361   -0.4968 H   0  0  0  0  0  0  0  0  0  0  0  0
    6.5754    4.9174   -0.3754 H   0  0  0  0  0  0  0  0  0  0  0  0
 22 24  2  0  0  0  0
 24 26  1  0  0  0  0
 25 26  2  0  0  0  0
 23 25  1  0  0  0  0
 21 22  1  0  0  0  0
 22 23  1  0  0  0  0
  1  3  1  0  0  0  0
  1  7  1  0  0  0  0
  1  2  2  0  0  0  0
 35 36  1  0  0  0  0
 36 44  1  0  0  0  0
 36 37  2  0  0  0  0
  8  9  1  0  0  0  0
  9 17  1  0  0  0  0
  9 10  2  0  0  0  0
 18 19  1  0  0  0  0
 19 34  1  0  0  0  0
 19 20  2  0  0  0  0
 35 38  1  0  0  0  0
  8 11  1  0  0  0  0
 44 45  1  0  0  0  0
 18 21  1  0  0  0  0
 34 35  1  0  0  0  0
  7  8  1  0  0  0  0
 17 18  1  0  0  0  0
 24 32  1  0  0  0  0
 25 33  1  0  0  0  0
  3  4  1  0  0  0  0
  3  5  1  0  0  0  0
  3  6  1  0  0  0  0
 38 41  1  0  0  0  0
 38 42  1  0  0  0  0
 38 43  1  0  0  0  0
 11 14  1  0  0  0  0
 11 15  1  0  0  0  0
 11 16  1  0  0  0  0
 45 47  1  0  0  0  0
 45 48  1  0  0  0  0
 45 49  1  0  0  0  0
 21 29  1  0  0  0  0
 21 30  1  0  0  0  0
 35 40  1  0  0  0  0
  8 13  1  0  0  0  0
 18 28  1  0  0  0  0
 23 31  1  0  0  0  0
 44 46  1  0  0  0  0
  7 12  1  0  0  0  0
 34 39  1  0  0  0  0
 17 27  1  0  0  0  0
M  END
$$$$

  -OEChem-05262214473D

 49 49  0     1  0  0  0  0  0999 V2000
   -1.5619    0.5658    3.7981 C   0  0  0  0  0  0  0  0  0  0  0  0
   -0.6145   -0.0489    3.3224 O   0  0  0  0  0  0  0  0  0  0  0  0
   -1.9938    0.2834    5.1988 C   0  0  0  0  0  0  0  0  0  0  0  0
   -2.7535   -0.5129    5.2522 H   0  0  0  0  0  0  0  0  0  0  0  0
   -1.1626   -0.0642    5.8331 H   0  0  0  0  0  0  0  0  0  0  0  0
   -2.4318    1.1383    5.7384 H   0  0  0  0  0  0  0  0  0  0  0  0
   -2.3116    1.5383    3.1570 N   0  0  0  0  0  0  0  0  0  0  0  0
   -2.0648    1.9643    1.8046 C   0  0  2  0  0  0  0  0  0  0  0  0
   -0.7298    1.3789    1.3634 C   0  0  0  0  0  0  0  0  0  0  0  0
    0.1423    1.0262    2.1547 O   0  0  0  0  0  0  0  0  0  0  0  0
   -2.0560    3.4811    1.6952 C   0  0  0  0  0  0  0  0  0  0  0  0
   -3.0767    1.9741    3.6688 H   0  0  0  0  0  0  0  0  0  0  0  0
   -2.8689    1.5458    1.1895 H   0  0  0  0  0  0  0  0  0  0  0  0
   -1.2569    3.9183    2.3049 H   0  0  0  0  0  0  0  0  0  0  0  0
   -1.8965    3.8033    0.6609 H   0  0  0  0  0  0  0  0  0  0  0  0
   -3.0062    3.9023    2.0409 H   0  0  0  0  0  0  0  0  0  0  0  0
   -0.6071    1.3358   -0.0200 N   0  0  0  0  0  0  0  0  0  0  0  0
    0.5702    0.8350   -0.6836 C   0  0  2  0  0  0  0  0  0  0  0  0
    1.6521    1.9005   -0.5478 C   0  0  0  0  0  0  0  0  0  0  0  0
    2.1541    2.4712   -1.5138 O   0  0  0  0  0  0  0  0  0  0  0  0
    0.3126    0.5226   -2.1622 C   0  0  0  0  0  0  0  0  0  0  0  0
   -0.6915   -0.5871   -2.3579 C   0  0  0  0  0  0  0  0  0  0  0  0
   -0.3902   -1.9027   -2.1443 N   0  0  0  0  0  0  0  0  0  0  0  0
   -2.0089   -0.5870   -2.7515 C   0  0  0  0  0  0  0  0  0  0  0  0
   -1.5163   -2.6299   -2.4131 C   0  0  0  0  0  0  0  0  0  0  0  0
   -2.5166   -1.8617   -2.7835 N   0  0  0  0  0  0  0  0  0  0  0  0
   -1.3903    1.6325   -0.5973 H   0  0  0  0  0  0  0  0  0  0  0  0
    0.8797   -0.0627   -0.1356 H   0  0  0  0  0  0  0  0  0  0  0  0
    1.2536    0.2623   -2.6656 H   0  0  0  0  0  0  0  0  0  0  0  0
   -0.0557    1.4155   -2.6844 H   0  0  0  0  0  0  0  0  0  0  0  0
    0.5016   -2.2737   -1.8438 H   0  0  0  0  0  0  0  0  0  0  0  0
   -2.6200    0.2648   -3.0139 H   0  0  0  0  0  0  0  0  0  0  0  0
   -1.5404   -3.7064   -2.3200 H   0  0  0  0  0  0  0  0  0  0  0  0
    1.9513    2.1708    0.7803 N   0  0  0  0  0  0  0  0  0  0  0  0
    2.9258    3.1566    1.1894 C   0  0  2  0  0  0  0  0  0  0  0  0
    4.2088    2.9015    0.4095 C   0  0  0  0  0  0  0  0  0  0  0  0
    4.4843    1.8132   -0.0912 O   0  0  0  0  0  0  0  0  0  0  0  0
    3.1791    3.0955    2.6877 C   0  0  0  0  0  0  0  0  0  0  0  0
    1.4608    1.6495    1.5009 H   0  0  0  0  0  0  0  0  0  0  0  0
    2.5193    4.1360    0.9147 H   0  0  0  0  0  0  0  0  0  0  0  0
    3.5866    2.1214    2.9819 H   0  0  0  0  0  0  0  0  0  0  0  0
    3.8962    3.8618    3.0004 H   0  0  0  0  0  0  0  0  0  0  0  0
    2.2499    3.2496    3.2467 H   0  0  0  0  0  0  0  0  0  0  0  0
    5.0299    4.0199    0.3753 N   0  0  0  0  0  0  0  0  0  0  0  0
    6.3100    4.0272   -0.2934 C   0  0  0  0  0  0  0  0  0  0  0  0
    4.7128    4.8858    0.8013 H   0  0  0  0  0  0  0  0  0  0  0  0
    7.1006    3.7627    0.4242 H   0  0  0  0  0  0  0  0  0  0  0  0
    6.2993    3.2941   -1.1135 H   0  0  0  0  0  0  0  0  0  0  0  0
    6.5051    5.0302   -0.7006 H   0  0  0  0  0  0  0  0  0  0  0  0
 22 24  2  0  0  0  0
 24 26  1  0  0  0  0
 25 26  2  0  0  0  0
 23 25  1  0  0  0  0
 21 22  1  0  0  0  0
 22 23  1  0  0  0  0
  1  3  1  0  0  0  0
  1  7  1  0  0  0  0
  1  2  2  0  0  0  0
 35 36  1  0  0  0  0
 36 44  1  0  0  0  0
 36 37  2  0  0  0  0
  8  9  1  0  0  0  0
  9 17  1  0  0  0  0
  9 10  2  0  0  0  0
 18 19  1  0  0  0  0
 19 34  1  0  0  0  0
 19 20  2  0  0  0  0
 35 38  1  0  0  0  0
  8 11  1  0  0  0  0
 44 45  1  0  0  0  0
 18 21  1  0  0  0  0
 34 35  1  0  0  0  0
  7  8  1  0  0  0  0
 17 18  1  0  0  0  0
 24 32  1  0  0  0  0
 25 33  1  0  0  0  0
  3  4  1  0  0  0  0
  3  5  1  0  0  0  0
  3  6  1  0  0  0  0
 38 41  1  0  0  0  0
 38 42  1  0  0  0  0
 38 43  1  0  0  0  0
 11 14  1  0  0  0  0
 11 15  1  0  0  0  0
 11 16  1  0  0  0  0
 45 47  1  0  0  0  0
 45 48  1  0  0  0  0
 45 49  1  0  0  0  0
 21 29  1  0  0  0  0
 21 30  1  0  0  0  0
 35 40  1  0  0  0  0
  8 13  1  0  0  0  0
 18 28  1  0  0  0  0
 23 31  1  0  0  0  0
 44 46  1  0  0  0  0
  7 12  1  0  0  0  0
 34 39  1  0  0  0  0
 17 27  1  0  0  0  0
M  END
$$$$

  -OEChem-05262214473D

 49 49  0     1  0  0  0  0  0999 V2000
   -1.5619    0.5658    3.7981 C   0  0  0  0  0  0  0  0  0  0  0  0
   -0.6145   -0.0489    3.3224 O   0  0  0  0  0  0  0  0  0  0  0  0
   -1.9938    0.2834    5.1988 C   0  0  0  0  0  0  0  0  0  0  0  0
   -2.7535   -0.5129    5.2522 H   0  0  0  0  0  0  0  0  0  0  0  0
   -1.1626   -0.0642    5.8331 H   0  0  0  0  0  0  0  0  0  0  0  0
   -2.4318    1.1383    5.7384 H   0  0  0  0  0  0  0  0  0  0  0  0
   -2.3116    1.5383    3.1570 N   0  0  0  0  0  0  0  0  0  0  0  0
   -2.0648    1.9643    1.8046 C   0  0  2  0  0  0  0  0  0  0  0  0
   -0.7298    1.3789    1.3634 C   0  0  0  0  0  0  0  0  0  0  0  0
    0.1423    1.0262    2.1547 O   0  0  0  0  0  0  0  0  0  0  0  0
   -2.0560    3.4811    1.6952 C   0  0  0  0  0  0  0  0  0  0  0  0
   -3.0767    1.9741    3.6688 H   0  0  0  0  0  0  0  0  0  0  0  0
   -2.8689    1.5458    1.1895 H   0  0  0  0  0  0  0  0  0  0  0  0
   -1.2569    3.9183    2.3049 H   0  0  0  0  0  0  0  0  0  0  0  0
   -1.8965    3.8033    0.6609 H   0  0  0  0  0  0  0  0  0  0  0  0
   -3.0062    3.9023    2.0409 H   0  0  0  0  0  0  0  0  0  0  0  0
   -0.6071    1.3358   -0.0200 N   0  0  0  0  0  0  0  0  0  0  0  0
    0.5702    0.8350   -0.6836 C   0  0  2  0  0  0  0  0  0  0  0  0
    1.6521    1.9005   -0.5478 C   0  0  0  0  0  0  0  0  0  0  0  0
    1.9653    2.6567   -1.4648 O   0  0  0  0  0  0  0  0  0  0  0  0
    0.3126    0.5226   -2.1622 C   0  0  0  0  0  0  0  0  0  0  0  0
   -0.6915   -0.5871   -2.3579 C   0  0  0  0  0  0  0  0  0  0  0  0
   -0.3902   -1.9027   -2.1443 N   0  0  0  0  0  0  0  0  0  0  0  0
   -2.0089   -0.5870   -2.7515 C   0  0  0  0  0  0  0  0  0  0  0  0
   -1.5163   -2.6299   -2.4131 C   0  0  0  0  0  0  0  0  0  0  0  0
   -2.5166   -1.8617   -2.7835 N   0  0  0  0  0  0  0  0  0  0  0  0
   -1.3903    1.6325   -0.5973 H   0  0  0  0  0  0  0  0  0  0  0  0
    0.8797   -0.0627   -0.1356 H   0  0  0  0  0  0  0  0  0  0  0  0
    1.2536    0.2623   -2.6656 H   0  0  0  0  0  0  0  0  0  0  0  0
   -0.0557    1.4155   -2.6844 H   0  0  0  0  0  0  0  0  0  0  0  0
    0.5016   -2.2737   -1.8438 H   0  0  0  0  0  0  0  0  0  0  0  0
   -2.6200    0.2648   -3.0139 H   0  0  0  0  0  0  0  0  0  0  0  0
   -1.5404   -3.7064   -2.3200 H   0  0  0  0  0  0  0  0  0  0  0  0
    2.1877    1.9369    0.7321 N   0  0  0  0  0  0  0  0  0  0  0  0
    3.2145    2.8702    1.1364 C   0  0  2  0  0  0  0  0  0  0  0  0
    4.3346    2.8124    0.1062 C   0  0  0  0  0  0  0  0  0  0  0  0
    4.5205    1.8450   -0.6291 O   0  0  0  0  0  0  0  0  0  0  0  0
    3.7382    2.5483    2.5274 C   0  0  0  0  0  0  0  0  0  0  0  0
    1.8406    1.2743    1.4192 H   0  0  0  0  0  0  0  0  0  0  0  0
    2.7586    3.8662    1.1256 H   0  0  0  0  0  0  0  0  0  0  0  0
    4.1986    1.5540    2.5578 H   0  0  0  0  0  0  0  0  0  0  0  0
    4.4956    3.2731    2.8437 H   0  0  0  0  0  0  0  0  0  0  0  0
    2.9260    2.5611    3.2622 H   0  0  0  0  0  0  0  0  0  0  0  0
    5.1287    3.9503    0.1342 N   0  0  0  0  0  0  0  0  0  0  0  0
    6.2647    4.1300   -0.7394 C   0  0  0  0  0  0  0  0  0  0  0  0
    4.8895    4.7111    0.7633 H   0  0  0  0  0  0  0  0  0  0  0  0
    7.1749    3.7715   -0.2365 H   0  0  0  0  0  0  0  0  0  0  0  0
    6.1085    3.5582   -1.6661 H   0  0  0  0  0  0  0  0  0  0  0  0
    6.3758    5.1973   -0.9814 H   0  0  0  0  0  0  0  0  0  0  0  0
 22 24  2  0  0  0  0
 24 26  1  0  0  0  0
 25 26  2  0  0  0  0
 23 25  1  0  0  0  0
 21 22  1  0  0  0  0
 22 23  1  0  0  0  0
  1  3  1  0  0  0  0
  1  7  1  0  0  0  0
  1  2  2  0  0  0  0
 35 36  1  0  0  0  0
 36 44  1  0  0  0  0
 36 37  2  0  0  0  0
  8  9  1  0  0  0  0
  9 17  1  0  0  0  0
  9 10  2  0  0  0  0
 18 19  1  0  0  0  0
 19 34  1  0  0  0  0
 19 20  2  0  0  0  0
 35 38  1  0  0  0  0
  8 11  1  0  0  0  0
 44 45  1  0  0  0  0
 18 21  1  0  0  0  0
 34 35  1  0  0  0  0
  7  8  1  0  0  0  0
 17 18  1  0  0  0  0
 24 32  1  0  0  0  0
 25 33  1  0  0  0  0
  3  4  1  0  0  0  0
  3  5  1  0  0  0  0
  3  6  1  0  0  0  0
 38 41  1  0  0  0  0
 38 42  1  0  0  0  0
 38 43  1  0  0  0  0
 11 14  1  0  0  0  0
 11 15  1  0  0  0  0
 11 16  1  0  0  0  0
 45 47  1  0  0  0  0
 45 48  1  0  0  0  0
 45 49  1  0  0  0  0
 21 29  1  0  0  0  0
 21 30  1  0  0  0  0
 35 40  1  0  0  0  0
  8 13  1  0  0  0  0
 18 28  1  0  0  0  0
 23 31  1  0  0  0  0
 44 46  1  0  0  0  0
  7 12  1  0  0  0  0
 34 39  1  0  0  0  0
 17 27  1  0  0  0  0
M  END
$$$$

  -OEChem-05262214473D

 49 49  0     1  0  0  0  0  0999 V2000
   -1.5619    0.5658    3.7981 C   0  0  0  0  0  0  0  0  0  0  0  0
   -0.6145   -0.0489    3.3224 O   0  0  0  0  0  0  0  0  0  0  0  0
   -1.9938    0.2834    5.1988 C   0  0  0  0  0  0  0  0  0  0  0  0
   -2.7535   -0.5129    5.2522 H   0  0  0  0  0  0  0  0  0  0  0  0
   -1.1626   -0.0642    5.8331 H   0  0  0  0  0  0  0  0  0  0  0  0
   -2.4318    1.1383    5.7384 H   0  0  0  0  0  0  0  0  0  0  0  0
   -2.3116    1.5383    3.1570 N   0  0  0  0  0  0  0  0  0  0  0  0
   -2.0648    1.9643    1.8046 C   0  0  2  0  0  0  0  0  0  0  0  0
   -0.7298    1.3789    1.3634 C   0  0  0  0  0  0  0  0  0  0  0  0
    0.1423    1.0262    2.1547 O   0  0  0  0  0  0  0  0  0  0  0  0
   -2.0560    3.4811    1.6952 C   0  0  0  0  0  0  0  0  0  0  0  0
   -3.0767    1.9741    3.6688 H   0  0  0  0  0  0  0  0  0  0  0  0
   -2.8689    1.5458    1.1895 H   0  0  0  0  0  0  0  0  0  0  0  0
   -1.2569    3.9183    2.3049 H   0  0  0  0  0  0  0  0  0  0  0  0
   -1.8965    3.8033    0.6609 H   0  0  0  0  0  0  0  0  0  0  0  0
   -3.0062    3.9023    2.0409 H   0  0  0  0  0  0  0  0  0  0  0  0
   -0.6071    1.3358   -0.0200 N   0  0  0  0  0  0  0  0  0  0  0  0
    0.5702    0.8350   -0.6836 C   0  0  2  0  0  0  0  0  0  0  0  0
    1.6521    1.9005   -0.5478 C   0  0  0  0  0  0  0  0  0  0  0  0
    1.7875    2.8225   -1.3493 O   0  0  0  0  0  0  0  0  0  0  0  0
    0.3126    0.5226   -2.1622 C   0  0  0  0  0  0  0  0  0  0  0  0
   -0.6915   -0.5871   -2.3579 C   0  0  0  0  0  0  0  0  0  0  0  0
   -0.3902   -1.9027   -2.1443 N   0  0  0  0  0  0  0  0  0  0  0  0
   -2.0089   -0.5870   -2.7515 C   0  0  0  0  0  0  0  0  0  0  0  0
   -1.5163   -2.6299   -2.4131 C   0  0  0  0  0  0  0  0  0  0  0  0
   -2.5166   -1.8617   -2.7835 N   0  0  0  0  0  0  0  0  0  0  0  0
   -1.3903    1.6325   -0.5973 H   0  0  0  0  0  0  0  0  0  0  0  0
    0.8797   -0.0627   -0.1356 H   0  0  0  0  0  0  0  0  0  0  0  0
    1.2536    0.2623   -2.6656 H   0  0  0  0  0  0  0  0  0  0  0  0
   -0.0557    1.4155   -2.6844 H   0  0  0  0  0  0  0  0  0  0  0  0
    0.5016   -2.2737   -1.8438 H   0  0  0  0  0  0  0  0  0  0  0  0
   -2.6200    0.2648   -3.0139 H   0  0  0  0  0  0  0  0  0  0  0  0
   -1.5404   -3.7064   -2.3200 H   0  0  0  0  0  0  0  0  0  0  0  0
    2.4127    1.7253    0.5999 N   0  0  0  0  0  0  0  0  0  0  0  0
    3.4904    2.6099    0.9804 C   0  0  2  0  0  0  0  0  0  0  0  0
    4.4034    2.7850   -0.2260 C   0  0  0  0  0  0  0  0  0  0  0  0
    4.4574    1.9753   -1.1494 O   0  0  0  0  0  0  0  0  0  0  0  0
    4.2618    2.0620    2.1709 C   0  0  0  0  0  0  0  0  0  0  0  0
    2.2013    0.9356    1.2027 H   0  0  0  0  0  0  0  0  0  0  0  0
    3.0341    3.5723    1.2365 H   0  0  0  0  0  0  0  0  0  0  0  0
    4.7261    1.0980    1.9333 H   0  0  0  0  0  0  0  0  0  0  0  0
    5.0598    2.7470    2.4759 H   0  0  0  0  0  0  0  0  0  0  0  0
    3.5978    1.9087    3.0285 H   0  0  0  0  0  0  0  0  0  0  0  0
    5.1821    3.9297   -0.1294 N   0  0  0  0  0  0  0  0  0  0  0  0
    6.1379    4.3102   -1.1431 C   0  0  0  0  0  0  0  0  0  0  0  0
    5.0575    4.5535    0.6625 H   0  0  0  0  0  0  0  0  0  0  0  0
    7.1270    3.9031   -0.8865 H   0  0  0  0  0  0  0  0  0  0  0  0
    5.8183    3.9104   -2.1168 H   0  0  0  0  0  0  0  0  0  0  0  0
    6.1962    5.4073   -1.1985 H   0  0  0  0  0  0  0  0  0  0  0  0
 22 24  2  0  0  0  0
 24 26  1  0  0  0  0
 25 26  2  0  0  0  0
 23 25  1  0  0  0  0
 21 22  1  0  0  0  0
 22 23  1  0  0  0  0
  1  3  1  0  0  0  0
  1  7  1  0  0  0  0
  1  2  2  0  0  0  0
 35 36  1  0  0  0  0
 36 44  1  0  0  0  0
 36 37  2  0  0  0  0
  8  9  1  0  0  0  0
  9 17  1  0  0  0  0
  9 10  2  0  0  0  0
 18 19  1  0  0  0  0
 19 34  1  0  0  0  0
 19 20  2  0  0  0  0
 35 38  1  0  0  0  0
  8 11  1  0  0  0  0
 44 45  1  0  0  0  0
 18 21  1  0  0  0  0
 34 35  1  0  0  0  0
  7  8  1  0  0  0  0
 17 18  1  0  0  0  0
 24 32  1  0  0  0  0
 25 33  1  0  0  0  0
  3  4  1  0  0  0  0
  3  5  1  0  0  0  0
  3  6  1  0  0  0  0
 38 41  1  0  0  0  0
 38 42  1  0  0  0  0
 38 43  1  0  0  0  0
 11 14  1  0  0  0  0
 11 15  1  0  0  0  0
 11 16  1  0  0  0  0
 45 47  1  0  0  0  0
 45 48  1  0  0  0  0
 45 49  1  0  0  0  0
 21 29  1  0  0  0  0
 21 30  1  0  0  0  0
 35 40  1  0  0  0  0
  8 13  1  0  0  0  0
 18 28  1  0  0  0  0
 23 31  1  0  0  0  0
 44 46  1  0  0  0  0
  7 12  1  0  0  0  0
 34 39  1  0  0  0  0
 17 27  1  0  0  0  0
M  END
$$$$

  -OEChem-05262214473D

 49 49  0     1  0  0  0  0  0999 V2000
   -1.5619    0.5658    3.7981 C   0  0  0  0  0  0  0  0  0  0  0  0
   -0.6145   -0.0489    3.3224 O   0  0  0  0  0  0  0  0  0  0  0  0
   -1.9938    0.2834    5.1988 C   0  0  0  0  0  0  0  0  0  0  0  0
   -2.7535   -0.5129    5.2522 H   0  0  0  0  0  0  0  0  0  0  0  0
   -1.1626   -0.0642    5.8331 H   0  0  0  0  0  0  0  0  0  0  0  0
   -2.4318    1.1383    5.7384 H   0  0  0  0  0  0  0  0  0  0  0  0
   -2.3116    1.5383    3.1570 N   0  0  0  0  0  0  0  0  0  0  0  0
   -2.0648    1.9643    1.8046 C   0  0  2  0  0  0  0  0  0  0  0  0
   -0.7298    1.3789    1.3634 C   0  0  0  0  0  0  0  0  0  0  0  0
    0.1423    1.0262    2.1547 O   0  0  0  0  0  0  0  0  0  0  0  0
   -2.0560    3.4811    1.6952 C   0  0  0  0  0  0  0  0  0  0  0  0
   -3.0767    1.9741    3.6688 H   0  0  0  0  0  0  0  0  0  0  0  0
   -2.8689    1.5458    1.1895 H   0  0  0  0  0  0  0  0  0  0  0  0
   -1.2569    3.9183    2.3049 H   0  0  0  0  0  0  0  0  0  0  0  0
   -1.8965    3.8033    0.6609 H   0  0  0  0  0  0  0  0  0  0  0  0
   -3.0062    3.9023    2.0409 H   0  0  0  0  0  0  0  0  0  0  0  0
   -0.6071    1.3358   -0.0200 N   0  0  0  0  0  0  0  0  0  0  0  0
    0.5702    0.8350   -0.6836 C   0  0  2  0  0  0  0  0  0  0  0  0
    1.6521    1.9005   -0.5478 C   0  0  0  0  0  0  0  0  0  0  0  0
    1.6328    2.9574   -1.1751 O   0  0  0  0  0  0  0  0  0  0  0  0
    0.3126    0.5226   -2.1622 C   0  0  0  0  0  0  0  0  0  0  0  0
   -0.6915   -0.5871   -2.3579 C   0  0  0  0  0  0  0  0  0  0  0  0
   -0.3902   -1.9027   -2.1443 N   0  0  0  0  0  0  0  0  0  0  0  0
   -2.0089   -0.5870   -2.7515 C   0  0  0  0  0  0  0  0  0  0  0  0
   -1.5163   -2.6299   -2.4131 C   0  0  0  0  0  0  0  0  0  0  0  0
   -2.5166   -1.8617   -2.7835 N   0  0  0  0  0  0  0  0  0  0  0  0
   -1.3903    1.6325   -0.5973 H   0  0  0  0  0  0  0  0  0  0  0  0
    0.8797   -0.0627   -0.1356 H   0  0  0  0  0  0  0  0  0  0  0  0
    1.2536    0.2623   -2.6656 H   0  0  0  0  0  0  0  0  0  0  0  0
   -0.0557    1.4155   -2.6844 H   0  0  0  0  0  0  0  0  0  0  0  0
    0.5016   -2.2737   -1.8438 H   0  0  0  0  0  0  0  0  0  0  0  0
   -2.6200    0.2648   -3.0139 H   0  0  0  0  0  0  0  0  0  0  0  0
   -1.5404   -3.7064   -2.3200 H   0  0  0  0  0  0  0  0  0  0  0  0
    2.6110    1.5504    0.3926 N   0  0  0  0  0  0  0  0  0  0  0  0
    3.7346    2.3936    0.7320 C   0  0  2  0  0  0  0  0  0  0  0  0
    4.4103    2.8210   -0.5643 C   0  0  0  0  0  0  0  0  0  0  0  0
    4.2994    2.1953   -1.6165 O   0  0  0  0  0  0  0  0  0  0  0  0
    4.7143    1.6699    1.6426 C   0  0  0  0  0  0  0  0  0  0  0  0
    2.5183    0.6565    0.8661 H   0  0  0  0  0  0  0  0  0  0  0  0
    3.3270    3.2745    1.2398 H   0  0  0  0  0  0  0  0  0  0  0  0
    5.1332    0.7843    1.1509 H   0  0  0  0  0  0  0  0  0  0  0  0
    5.5504    2.3195    1.9219 H   0  0  0  0  0  0  0  0  0  0  0  0
    4.2194    1.3370    2.5614 H   0  0  0  0  0  0  0  0  0  0  0  0
    5.1865    3.9594   -0.3975 N   0  0  0  0  0  0  0  0  0  0  0  0
    5.9382    4.5555   -1.4770 C   0  0  0  0  0  0  0  0  0  0  0  0
    5.2051    4.4236    0.5059 H   0  0  0  0  0  0  0  0  0  0  0  0
    6.9601    4.1484   -1.4815 H   0  0  0  0  0  0  0  0  0  0  0  0
    5.4483    4.3267   -2.4349 H   0  0  0  0  0  0  0  0  0  0  0  0
    5.9787    5.6459   -1.3371 H   0  0  0  0  0  0  0  0  0  0  0  0
 22 24  2  0  0  0  0
 24 26  1  0  0  0  0
 25 26  2  0  0  0  0
 23 25  1  0  0  0  0
 21 22  1  0  0  0  0
 22 23  1  0  0  0  0
  1  3  1  0  0  0  0
  1  7  1  0  0  0  0
  1  2  2  0  0  0  0
 35 36  1  0  0  0  0
 36 44  1  0  0  0  0
 36 37  2  0  0  0  0
  8  9  1  0  0  0  0
  9 17  1  0  0  0  0
  9 10  2  0  0  0  0
 18 19  1  0  0  0  0
 19 34  1  0  0  0  0
 19 20  2  0  0  0  0
 35 38  1  0  0  0  0
  8 11  1  0  0  0  0
 44 45  1  0  0  0  0
 18 21  1  0  0  0  0
 34 35  1  0  0  0  0
  7  8  1  0  0  0  0
 17 18  1  0  0  0  0
 24 32  1  0  0  0  0
 25 33  1  0  0  0  0
  3  4  1  0  0  0  0
  3  5  1  0  0  0  0
  3  6  1  0  0  0  0
 38 41  1  0  0  0  0
 38 42  1  0  0  0  0
 38 43  1  0  0  0  0
 11 14  1  0  0  0  0
 11 15  1  0  0  0  0
 11 16  1  0  0  0  0
 45 47  1  0  0  0  0
 45 48  1  0  0  0  0
 45 49  1  0  0  0  0
 21 29  1  0  0  0  0
 21 30  1  0  0  0  0
 35 40  1  0  0  0  0
  8 13  1  0  0  0  0
 18 28  1  0  0  0  0
 23 31  1  0  0  0  0
 44 46  1  0  0  0  0
  7 12  1  0  0  0  0
 34 39  1  0  0  0  0
 17 27  1  0  0  0  0
M  END
$$$$

  -OEChem-05262214473D

 49 49  0     1  0  0  0  0  0999 V2000
   -1.5619    0.5658    3.7981 C   0  0  0  0  0  0  0  0  0  0  0  0
   -0.6145   -0.0489    3.3224 O   0  0  0  0  0  0  0  0  0  0  0  0
   -1.9938    0.2834    5.1988 C   0  0  0  0  0  0  0  0  0  0  0  0
   -2.7535   -0.5129    5.2522 H   0  0  0  0  0  0  0  0  0  0  0  0
   -1.1626   -0.0642    5.8331 H   0  0  0  0  0  0  0  0  0  0  0  0
   -2.4318    1.1383    5.7384 H   0  0  0  0  0  0  0  0  0  0  0  0
   -2.3116    1.5383    3.1570 N   0  0  0  0  0  0  0  0  0  0  0  0
   -2.0648    1.9643    1.8046 C   0  0  2  0  0  0  0  0  0  0  0  0
   -0.7298    1.3789    1.3634 C   0  0  0  0  0  0  0  0  0  0  0  0
    0.1423    1.0262    2.1547 O   0  0  0  0  0  0  0  0  0  0  0  0
   -2.0560    3.4811    1.6952 C   0  0  0  0  0  0  0  0  0  0  0  0
   -3.0767    1.9741    3.6688 H   0  0  0  0  0  0  0  0  0  0  0  0
   -2.8689    1.5458    1.1895 H   0  0  0  0  0  0  0  0  0  0  0  0
   -1.2569    3.9183    2.3049 H   0  0  0  0  0  0  0  0  0  0  0  0
   -1.8965    3.8033    0.6609 H   0  0  0  0  0  0  0  0  0  0  0  0
   -3.0062    3.9023    2.0409 H   0  0  0  0  0  0  0  0  0  0  0  0
   -0.6071    1.3358   -0.0200 N   0  0  0  0  0  0  0  0  0  0  0  0
    0.5702    0.8350   -0.6836 C   0  0  2  0  0  0  0  0  0  0  0  0
    1.6521    1.9005   -0.5478 C   0  0  0  0  0  0  0  0  0  0  0  0
    1.5118    3.0521   -0.9541 O   0  0  0  0  0  0  0  0  0  0  0  0
    0.3126    0.5226   -2.1622 C   0  0  0  0  0  0  0  0  0  0  0  0
   -0.6915   -0.5871   -2.3579 C   0  0  0  0  0  0  0  0  0  0  0  0
   -0.3902   -1.9027   -2.1443 N   0  0  0  0  0  0  0  0  0  0  0  0
   -2.0089   -0.5870   -2.7515 C   0  0  0  0  0  0  0  0  0  0  0  0
   -1.5163   -2.6299   -2.4131 C   0  0  0  0  0  0  0  0  0  0  0  0
   -2.5166   -1.8617   -2.7835 N   0  0  0  0  0  0  0  0  0  0  0  0
   -1.3903    1.6325   -0.5973 H   0  0  0  0  0  0  0  0  0  0  0  0
    0.8797   -0.0627   -0.1356 H   0  0  0  0  0  0  0  0  0  0  0  0
    1.2536    0.2623   -2.6656 H   0  0  0  0  0  0  0  0  0  0  0  0
   -0.0557    1.4155   -2.6844 H   0  0  0  0  0  0  0  0  0  0  0  0
    0.5016   -2.2737   -1.8438 H   0  0  0  0  0  0  0  0  0  0  0  0
   -2.6200    0.2648   -3.0139 H   0  0  0  0  0  0  0  0  0  0  0  0
   -1.5404   -3.7064   -2.3200 H   0  0  0  0  0  0  0  0  0  0  0  0
    2.7690    1.4241    0.1243 N   0  0  0  0  0  0  0  0  0  0  0  0
    3.9306    2.2358    0.4081 C   0  0  2  0  0  0  0  0  0  0  0  0
    4.3550    2.9182   -0.8857 C   0  0  0  0  0  0  0  0  0  0  0  0
    4.0572    2.4900   -1.9988 O   0  0  0  0  0  0  0  0  0  0  0  0
    5.0649    1.3986    0.9784 C   0  0  0  0  0  0  0  0  0  0  0  0
    2.7702    0.4561    0.4323 H   0  0  0  0  0  0  0  0  0  0  0  0
    3.6174    2.9929    1.1353 H   0  0  0  0  0  0  0  0  0  0  0  0
    5.3922    0.6345    0.2639 H   0  0  0  0  0  0  0  0  0  0  0  0
    5.9340    2.0195    1.2195 H   0  0  0  0  0  0  0  0  0  0  0  0
    4.7486    0.8850    1.8927 H   0  0  0  0  0  0  0  0  0  0  0  0
    5.1415    4.0374   -0.6517 N   0  0  0  0  0  0  0  0  0  0  0  0
    5.6793    4.8492   -1.7184 C   0  0  0  0  0  0  0  0  0  0  0  0
    5.3223    4.3302    0.3040 H   0  0  0  0  0  0  0  0  0  0  0  0
    6.6856    4.4908   -1.9810 H   0  0  0  0  0  0  0  0  0  0  0  0
    5.0237    4.7787   -2.5989 H   0  0  0  0  0  0  0  0  0  0  0  0
    5.7380    5.8968   -1.3879 H   0  0  0  0  0  0  0  0  0  0  0  0
 22 24  2  0  0  0  0
 24 26  1  0  0  0  0
 25 26  2  0  0  0  0
 23 25  1  0  0  0  0
 21 22  1  0  0  0  0
 22 23  1  0  0  0  0
  1  3  1  0  0  0  0
  1  7  1  0  0  0  0
  1  2  2  0  0  0  0
 35 36  1  0  0  0  0
 36 44  1  0  0  0  0
 36 37  2  0  0  0  0
  8  9  1  0  0  0  0
  9 17  1  0  0  0  0
  9 10  2  0  0  0  0
 18 19  1  0  0  0  0
 19 34  1  0  0  0  0
 19 20  2  0  0  0  0
 35 38  1  0  0  0  0
  8 11  1  0  0  0  0
 44 45  1  0  0  0  0
 18 21  1  0  0  0  0
 34 35  1  0  0  0  0
  7  8  1  0  0  0  0
 17 18  1  0  0  0  0
 24 32  1  0  0  0  0
 25 33  1  0  0  0  0
  3  4  1  0  0  0  0
  3  5  1  0  0  0  0
  3  6  1  0  0  0  0
 38 41  1  0  0  0  0
 38 42  1  0  0  0  0
 38 43  1  0  0  0  0
 11 14  1  0  0  0  0
 11 15  1  0  0  0  0
 11 16  1  0  0  0  0
 45 47  1  0  0  0  0
 45 48  1  0  0  0  0
 45 49  1  0  0  0  0
 21 29  1  0  0  0  0
 21 30  1  0  0  0  0
 35 40  1  0  0  0  0
  8 13  1  0  0  0  0
 18 28  1  0  0  0  0
 23 31  1  0  0  0  0
 44 46  1  0  0  0  0
  7 12  1  0  0  0  0
 34 39  1  0  0  0  0
 17 27  1  0  0  0  0
M  END
$$$$

  -OEChem-05262214473D

 49 49  0     1  0  0  0  0  0999 V2000
   -1.5619    0.5658    3.7981 C   0  0  0  0  0  0  0  0  0  0  0  0
   -0.6145   -0.0489    3.3224 O   0  0  0  0  0  0  0  0  0  0  0  0
   -1.9938    0.2834    5.1988 C   0  0  0  0  0  0  0  0  0  0  0  0
   -2.7535   -0.5129    5.2522 H   0  0  0  0  0  0  0  0  0  0  0  0
   -1.1626   -0.0642    5.8331 H   0  0  0  0  0  0  0  0  0  0  0  0
   -2.4318    1.1383    5.7384 H   0  0  0  0  0  0  0  0  0  0  0  0
   -2.3116    1.5383    3.1570 N   0  0  0  0  0  0  0  0  0  0  0  0
   -2.0648    1.9643    1.8046 C   0  0  2  0  0  0  0  0  0  0  0  0
   -0.7298    1.3789    1.3634 C   0  0  0  0  0  0  0  0  0  0  0  0
    0.1423    1.0262    2.1547 O   0  0  0  0  0  0  0  0  0  0  0  0
   -2.0560    3.4811    1.6952 C   0  0  0  0  0  0  0  0  0  0  0  0
   -3.0767    1.9741    3.6688 H   0  0  0  0  0  0  0  0  0  0  0  0
   -2.8689    1.5458    1.1895 H   0  0  0  0  0  0  0  0  0  0  0  0
   -1.2569    3.9183    2.3049 H   0  0  0  0  0  0  0  0  0  0  0  0
   -1.8965    3.8033    0.6609 H   0  0  0  0  0  0  0  0  0  0  0  0
   -3.0062    3.9023    2.0409 H   0  0  0  0  0  0  0  0  0  0  0  0
   -0.6071    1.3358   -0.0200 N   0  0  0  0  0  0  0  0  0  0  0  0
    0.5702    0.8350   -0.6836 C   0  0  2  0  0  0  0  0  0  0  0  0
    1.6521    1.9005   -0.5478 C   0  0  0  0  0  0  0  0  0  0  0  0
    1.4327    3.1002   -0.7014 O   0  0  0  0  0  0  0  0  0  0  0  0
    0.3126    0.5226   -2.1622 C   0  0  0  0  0  0  0  0  0  0  0  0
   -0.6915   -0.5871   -2.3579 C   0  0  0  0  0  0  0  0  0  0  0  0
   -0.3902   -1.9027   -2.1443 N   0  0  0  0  0  0  0  0  0  0  0  0
   -2.0089   -0.5870   -2.7515 C   0  0  0  0  0  0  0  0  0  0  0  0
   -1.5163   -2.6299   -2.4131 C   0  0  0  0  0  0  0  0  0  0  0  0
   -2.5166   -1.8617   -2.7835 N   0  0  0  0  0  0  0  0  0  0  0  0
   -1.3903    1.6325   -0.5973 H   0  0  0  0  0  0  0  0  0  0  0  0
    0.8797   -0.0627   -0.1356 H   0  0  0  0  0  0  0  0  0  0  0  0
    1.2536    0.2623   -2.6656 H   0  0  0  0  0  0  0  0  0  0  0  0
   -0.0557    1.4155   -2.6844 H   0  0  0  0  0  0  0  0  0  0  0  0
    0.5016   -2.2737   -1.8438 H   0  0  0  0  0  0  0  0  0  0  0  0
   -2.6200    0.2648   -3.0139 H   0  0  0  0  0  0  0  0  0  0  0  0
   -1.5404   -3.7064   -2.3200 H   0  0  0  0  0  0  0  0  0  0  0  0
    2.8761    1.3550   -0.1865 N   0  0  0  0  0  0  0  0  0  0  0  0
    4.0650    2.1475    0.0308 C   0  0  2  0  0  0  0  0  0  0  0  0
    4.2411    3.0698   -1.1682 C   0  0  0  0  0  0  0  0  0  0  0  0
    3.7473    2.8392   -2.2701 O   0  0  0  0  0  0  0  0  0  0  0  0
    5.2896    1.2666    0.2236 C   0  0  0  0  0  0  0  0  0  0  0  0
    2.9395    0.3480   -0.0690 H   0  0  0  0  0  0  0  0  0  0  0  0
    3.8855    2.7468    0.9301 H   0  0  0  0  0  0  0  0  0  0  0  0
    5.4853    0.6586   -0.6672 H   0  0  0  0  0  0  0  0  0  0  0  0
    6.1843    1.8677    0.4165 H   0  0  0  0  0  0  0  0  0  0  0  0
    5.1492    0.5833    1.0681 H   0  0  0  0  0  0  0  0  0  0  0  0
    5.0503    4.1585   -0.8748 N   0  0  0  0  0  0  0  0  0  0  0  0
    5.3788    5.1713   -1.8508 C   0  0  0  0  0  0  0  0  0  0  0  0
    5.4012    4.2799    0.0706 H   0  0  0  0  0  0  0  0  0  0  0  0
    6.3221    4.9070   -2.3510 H   0  0  0  0  0  0  0  0  0  0  0  0
    4.5735    5.2356   -2.5974 H   0  0  0  0  0  0  0  0  0  0  0  0
    5.4905    6.1429   -1.3473 H   0  0  0  0  0  0  0  0  0  0  0  0
 22 24  2  0  0  0  0
 24 26  1  0  0  0  0
 25 26  2  0  0  0  0
 23 25  1  0  0  0  0
 21 22  1  0  0  0  0
 22 23  1  0  0  0  0
  1  3  1  0  0  0  0
  1  7  1  0  0  0  0
  1  2  2  0  0  0  0
 35 36  1  0  0  0  0
 36 44  1  0  0  0  0
 36 37  2  0  0  0  0
  8  9  1  0  0  0  0
  9 17  1  0  0  0  0
  9 10  2  0  0  0  0
 18 19  1  0  0  0  0
 19 34  1  0  0  0  0
 19 20  2  0  0  0  0
 35 38  1  0  0  0  0
  8 11  1  0  0  0  0
 44 45  1  0  0  0  0
 18 21  1  0  0  0  0
 34 35  1  0  0  0  0
  7  8  1  0  0  0  0
 17 18  1  0  0  0  0
 24 32  1  0  0  0  0
 25 33  1  0  0  0  0
  3  4  1  0  0  0  0
  3  5  1  0  0  0  0
  3  6  1  0  0  0  0
 38 41  1  0  0  0  0
 38 42  1  0  0  0  0
 38 43  1  0  0  0  0
 11 14  1  0  0  0  0
 11 15  1  0  0  0  0
 11 16  1  0  0  0  0
 45 47  1  0  0  0  0
 45 48  1  0  0  0  0
 45 49  1  0  0  0  0
 21 29  1  0  0  0  0
 21 30  1  0  0  0  0
 35 40  1  0  0  0  0
  8 13  1  0  0  0  0
 18 28  1  0  0  0  0
 23 31  1  0  0  0  0
 44 46  1  0  0  0  0
  7 12  1  0  0  0  0
 34 39  1  0  0  0  0
 17 27  1  0  0  0  0
M  END
$$$$

  -OEChem-05262214473D

 49 49  0     1  0  0  0  0  0999 V2000
   -1.5619    0.5658    3.7981 C   0  0  0  0  0  0  0  0  0  0  0  0
   -0.6145   -0.0489    3.3224 O   0  0  0  0  0  0  0  0  0  0  0  0
   -1.9938    0.2834    5.1988 C   0  0  0  0  0  0  0  0  0  0  0  0
   -2.7535   -0.5129    5.2522 H   0  0  0  0  0  0  0  0  0  0  0  0
   -1.1626   -0.0642    5.8331 H   0  0  0  0  0  0  0  0  0  0  0  0
   -2.4318    1.1383    5.7384 H   0  0  0  0  0  0  0  0  0  0  0  0
   -2.3116    1.5383    3.1570 N   0  0  0  0  0  0  0  0  0  0  0  0
   -2.0648    1.9643    1.8046 C   0  0  2  0  0  0  0  0  0  0  0  0
   -0.7298    1.3789    1.3634 C   0  0  0  0  0  0  0  0  0  0  0  0
    0.1423    1.0262    2.1547 O   0  0  0  0  0  0  0  0  0  0  0  0
   -2.0560    3.4811    1.6952 C   0  0  0  0  0  0  0  0  0  0  0  0
   -3.0767    1.9741    3.6688 H   0  0  0  0  0  0  0  0  0  0  0  0
   -2.8689    1.5458    1.1895 H   0  0  0  0  0  0  0  0  0  0  0  0
   -1.2569    3.9183    2.3049 H   0  0  0  0  0  0  0  0  0  0  0  0
   -1.8965    3.8033    0.6609 H   0  0  0  0  0  0  0  0  0  0  0  0
   -3.0062    3.9023    2.0409 H   0  0  0  0  0  0  0  0  0  0  0  0
   -0.6071    1.3358   -0.0200 N   0  0  0  0  0  0  0  0  0  0  0  0
    0.5702    0.8350   -0.6836 C   0  0  2  0  0  0  0  0  0  0  0  0
    1.6521    1.9005   -0.5478 C   0  0  0  0  0  0  0  0  0  0  0  0
    1.4010    3.0984   -0.4341 O   0  0  0  0  0  0  0  0  0  0  0  0
    0.3126    0.5226   -2.1622 C   0  0  0  0  0  0  0  0  0  0  0  0
   -0.6915   -0.5871   -2.3579 C   0  0  0  0  0  0  0  0  0  0  0  0
   -0.3902   -1.9027   -2.1443 N   0  0  0  0  0  0  0  0  0  0  0  0
   -2.0089   -0.5870   -2.7515 C   0  0  0  0  0  0  0  0  0  0  0  0
   -1.5163   -2.6299   -2.4131 C   0  0  0  0  0  0  0  0  0  0  0  0
   -2.5166   -1.8617   -2.7835 N   0  0  0  0  0  0  0  0  0  0  0  0
   -1.3903    1.6325   -0.5973 H   0  0  0  0  0  0  0  0  0  0  0  0
    0.8797   -0.0627   -0.1356 H   0  0  0  0  0  0  0  0  0  0  0  0
    1.2536    0.2623   -2.6656 H   0  0  0  0  0  0  0  0  0  0  0  0
   -0.0557    1.4155   -2.6844 H   0  0  0  0  0  0  0  0  0  0  0  0
    0.5016   -2.2737   -1.8438 H   0  0  0  0  0  0  0  0  0  0  0  0
   -2.6200    0.2648   -3.0139 H   0  0  0  0  0  0  0  0  0  0  0  0
   -1.5404   -3.7064   -2.3200 H   0  0  0  0  0  0  0  0  0  0  0  0
    2.9249    1.3478   -0.5189 N   0  0  0  0  0  0  0  0  0  0  0  0
    4.1286    2.1345   -0.3741 C   0  0  2  0  0  0  0  0  0  0  0  0
    4.0766    3.2655   -1.3928 C   0  0  0  0  0  0  0  0  0  0  0  0
    3.3909    3.2193   -2.4120 O   0  0  0  0  0  0  0  0  0  0  0  0
    5.3732    1.2830   -0.5704 C   0  0  0  0  0  0  0  0  0  0  0  0
    3.0150    0.3396   -0.6037 H   0  0  0  0  0  0  0  0  0  0  0  0
    4.1130    2.5530    0.6382 H   0  0  0  0  0  0  0  0  0  0  0  0
    5.4062    0.8551   -1.5790 H   0  0  0  0  0  0  0  0  0  0  0  0
    6.2844    1.8743   -0.4322 H   0  0  0  0  0  0  0  0  0  0  0  0
    5.3939    0.4526    0.1437 H   0  0  0  0  0  0  0  0  0  0  0  0
    4.9191    4.3143   -1.0517 N   0  0  0  0  0  0  0  0  0  0  0  0
    5.0571    5.4997   -1.8651 C   0  0  0  0  0  0  0  0  0  0  0  0
    5.4363    4.2759   -0.1783 H   0  0  0  0  0  0  0  0  0  0  0  0
    5.8946    5.3686   -2.5661 H   0  0  0  0  0  0  0  0  0  0  0  0
    4.1284    5.6663   -2.4306 H   0  0  0  0  0  0  0  0  0  0  0  0
    5.2531    6.3675   -1.2181 H   0  0  0  0  0  0  0  0  0  0  0  0
 22 24  2  0  0  0  0
 24 26  1  0  0  0  0
 25 26  2  0  0  0  0
 23 25  1  0  0  0  0
 21 22  1  0  0  0  0
 22 23  1  0  0  0  0
  1  3  1  0  0  0  0
  1  7  1  0  0  0  0
  1  2  2  0  0  0  0
 35 36  1  0  0  0  0
 36 44  1  0  0  0  0
 36 37  2  0  0  0  0
  8  9  1  0  0  0  0
  9 17  1  0  0  0  0
  9 10  2  0  0  0  0
 18 19  1  0  0  0  0
 19 34  1  0  0  0  0
 19 20  2  0  0  0  0
 35 38  1  0  0  0  0
  8 11  1  0  0  0  0
 44 45  1  0  0  0  0
 18 21  1  0  0  0  0
 34 35  1  0  0  0  0
  7  8  1  0  0  0  0
 17 18  1  0  0  0  0
 24 32  1  0  0  0  0
 25 33  1  0  0  0  0
  3  4  1  0  0  0  0
  3  5  1  0  0  0  0
  3  6  1  0  0  0  0
 38 41  1  0  0  0  0
 38 42  1  0  0  0  0
 38 43  1  0  0  0  0
 11 14  1  0  0  0  0
 11 15  1  0  0  0  0
 11 16  1  0  0  0  0
 45 47  1  0  0  0  0
 45 48  1  0  0  0  0
 45 49  1  0  0  0  0
 21 29  1  0  0  0  0
 21 30  1  0  0  0  0
 35 40  1  0  0  0  0
  8 13  1  0  0  0  0
 18 28  1  0  0  0  0
 23 31  1  0  0  0  0
 44 46  1  0  0  0  0
  7 12  1  0  0  0  0
 34 39  1  0  0  0  0
 17 27  1  0  0  0  0
M  END
$$$$

  -OEChem-05262214473D

 49 49  0     1  0  0  0  0  0999 V2000
   -1.5619    0.5658    3.7981 C   0  0  0  0  0  0  0  0  0  0  0  0
   -0.6145   -0.0489    3.3224 O   0  0  0  0  0  0  0  0  0  0  0  0
   -1.9938    0.2834    5.1988 C   0  0  0  0  0  0  0  0  0  0  0  0
   -2.7535   -0.5129    5.2522 H   0  0  0  0  0  0  0  0  0  0  0  0
   -1.1626   -0.0642    5.8331 H   0  0  0  0  0  0  0  0  0  0  0  0
   -2.4318    1.1383    5.7384 H   0  0  0  0  0  0  0  0  0  0  0  0
   -2.3116    1.5383    3.1570 N   0  0  0  0  0  0  0  0  0  0  0  0
   -2.0648    1.9643    1.8046 C   0  0  2  0  0  0  0  0  0  0  0  0
   -0.7298    1.3789    1.3634 C   0  0  0  0  0  0  0  0  0  0  0  0
    0.1423    1.0262    2.1547 O   0  0  0  0  0  0  0  0  0  0  0  0
   -2.0560    3.4811    1.6952 C   0  0  0  0  0  0  0  0  0  0  0  0
   -3.0767    1.9741    3.6688 H   0  0  0  0  0  0  0  0  0  0  0  0
   -2.8689    1.5458    1.1895 H   0  0  0  0  0  0  0  0  0  0  0  0
   -1.2569    3.9183    2.3049 H   0  0  0  0  0  0  0  0  0  0  0  0
   -1.8965    3.8033    0.6609 H   0  0  0  0  0  0  0  0  0  0  0  0
   -3.0062    3.9023    2.0409 H   0  0  0  0  0  0  0  0  0  0  0  0
   -0.6071    1.3358   -0.0200 N   0  0  0  0  0  0  0  0  0  0  0  0
    0.5702    0.8350   -0.6836 C   0  0  2  0  0  0  0  0  0  0  0  0
    1.6521    1.9005   -0.5478 C   0  0  0  0  0  0  0  0  0  0  0  0
    1.4187    3.0468   -0.1705 O   0  0  0  0  0  0  0  0  0  0  0  0
    0.3126    0.5226   -2.1622 C   0  0  0  0  0  0  0  0  0  0  0  0
   -0.6915   -0.5871   -2.3579 C   0  0  0  0  0  0  0  0  0  0  0  0
   -0.3902   -1.9027   -2.1443 N   0  0  0  0  0  0  0  0  0  0  0  0
   -2.0089   -0.5870   -2.7515 C   0  0  0  0  0  0  0  0  0  0  0  0
   -1.5163   -2.6299   -2.4131 C   0  0  0  0  0  0  0  0  0  0  0  0
   -2.5166   -1.8617   -2.7835 N   0  0  0  0  0  0  0  0  0  0  0  0
   -1.3903    1.6325   -0.5973 H   0  0  0  0  0  0  0  0  0  0  0  0
    0.8797   -0.0627   -0.1356 H   0  0  0  0  0  0  0  0  0  0  0  0
    1.2536    0.2623   -2.6656 H   0  0  0  0  0  0  0  0  0  0  0  0
   -0.0557    1.4155   -2.6844 H   0  0  0  0  0  0  0  0  0  0  0  0
    0.5016   -2.2737   -1.8438 H   0  0  0  0  0  0  0  0  0  0  0  0
   -2.6200    0.2648   -3.0139 H   0  0  0  0  0  0  0  0  0  0  0  0
   -1.5404   -3.7064   -2.3200 H   0  0  0  0  0  0  0  0  0  0  0  0
    2.9121    1.4030   -0.8501 N   0  0  0  0  0  0  0  0  0  0  0  0
    4.1171    2.1979   -0.7791 C   0  0  2  0  0  0  0  0  0  0  0  0
    3.8725    3.4920   -1.5439 C   0  0  0  0  0  0  0  0  0  0  0  0
    3.0121    3.6042   -2.4147 O   0  0  0  0  0  0  0  0  0  0  0  0
    5.3099    1.4465   -1.3495 C   0  0  0  0  0  0  0  0  0  0  0  0
    2.9913    0.4314   -1.1355 H   0  0  0  0  0  0  0  0  0  0  0  0
    4.2845    2.4246    0.2794 H   0  0  0  0  0  0  0  0  0  0  0  0
    5.1604    1.2105   -2.4094 H   0  0  0  0  0  0  0  0  0  0  0  0
    6.2273    2.0389   -1.2689 H   0  0  0  0  0  0  0  0  0  0  0  0
    5.4661    0.5019   -0.8175 H   0  0  0  0  0  0  0  0  0  0  0  0
    4.7568    4.4942   -1.1701 N   0  0  0  0  0  0  0  0  0  0  0  0
    4.7362    5.8122   -1.7605 C   0  0  0  0  0  0  0  0  0  0  0  0
    5.4253    4.3187   -0.4258 H   0  0  0  0  0  0  0  0  0  0  0  0
    5.4321    5.8440   -2.6118 H   0  0  0  0  0  0  0  0  0  0  0  0
    3.7187    6.0415   -2.1099 H   0  0  0  0  0  0  0  0  0  0  0  0
    5.0420    6.5552   -1.0091 H   0  0  0  0  0  0  0  0  0  0  0  0
 22 24  2  0  0  0  0
 24 26  1  0  0  0  0
 25 26  2  0  0  0  0
 23 25  1  0  0  0  0
 21 22  1  0  0  0  0
 22 23  1  0  0  0  0
  1  3  1  0  0  0  0
  1  7  1  0  0  0  0
  1  2  2  0  0  0  0
 35 36  1  0  0  0  0
 36 44  1  0  0  0  0
 36 37  2  0  0  0  0
  8  9  1  0  0  0  0
  9 17  1  0  0  0  0
  9 10  2  0  0  0  0
 18 19  1  0  0  0  0
 19 34  1  0  0  0  0
 19 20  2  0  0  0  0
 35 38  1  0  0  0  0
  8 11  1  0  0  0  0
 44 45  1  0  0  0  0
 18 21  1  0  0  0  0
 34 35  1  0  0  0  0
  7  8  1  0  0  0  0
 17 18  1  0  0  0  0
 24 32  1  0  0  0  0
 25 33  1  0  0  0  0
  3  4  1  0  0  0  0
  3  5  1  0  0  0  0
  3  6  1  0  0  0  0
 38 41  1  0  0  0  0
 38 42  1  0  0  0  0
 38 43  1  0  0  0  0
 11 14  1  0  0  0  0
 11 15  1  0  0  0  0
 11 16  1  0  0  0  0
 45 47  1  0  0  0  0
 45 48  1  0  0  0  0
 45 49  1  0  0  0  0
 21 29  1  0  0  0  0
 21 30  1  0  0  0  0
 35 40  1  0  0  0  0
  8 13  1  0  0  0  0
 18 28  1  0  0  0  0
 23 31  1  0  0  0  0
 44 46  1  0  0  0  0
  7 12  1  0  0  0  0
 34 39  1  0  0  0  0
 17 27  1  0  0  0  0
M  END
$$$$

  -OEChem-05262214473D

 49 49  0     1  0  0  0  0  0999 V2000
   -1.5619    0.5658    3.7981 C   0  0  0  0  0  0  0  0  0  0  0  0
   -0.6145   -0.0489    3.3224 O   0  0  0  0  0  0  0  0  0  0  0  0
   -1.9938    0.2834    5.1988 C   0  0  0  0  0  0  0  0  0  0  0  0
   -2.7535   -0.5129    5.2522 H   0  0  0  0  0  0  0  0  0  0  0  0
   -1.1626   -0.0642    5.8331 H   0  0  0  0  0  0  0  0  0  0  0  0
   -2.4318    1.1383    5.7384 H   0  0  0  0  0  0  0  0  0  0  0  0
   -2.3116    1.5383    3.1570 N   0  0  0  0  0  0  0  0  0  0  0  0
   -2.0648    1.9643    1.8046 C   0  0  2  0  0  0  0  0  0  0  0  0
   -0.7298    1.3789    1.3634 C   0  0  0  0  0  0  0  0  0  0  0  0
    0.1423    1.0262    2.1547 O   0  0  0  0  0  0  0  0  0  0  0  0
   -2.0560    3.4811    1.6952 C   0  0  0  0  0  0  0  0  0  0  0  0
   -3.0767    1.9741    3.6688 H   0  0  0  0  0  0  0  0  0  0  0  0
   -2.8689    1.5458    1.1895 H   0  0  0  0  0  0  0  0  0  0  0  0
   -1.2569    3.9183    2.3049 H   0  0  0  0  0  0  0  0  0  0  0  0
   -1.8965    3.8033    0.6609 H   0  0  0  0  0  0  0  0  0  0  0  0
   -3.0062    3.9023    2.0409 H   0  0  0  0  0  0  0  0  0  0  0  0
   -0.6071    1.3358   -0.0200 N   0  0  0  0  0  0  0  0  0  0  0  0
    0.5702    0.8350   -0.6836 C   0  0  2  0  0  0  0  0  0  0  0  0
    1.7425    1.7012   -0.2370 C   0  0  0  0  0  0  0  0  0  0  0  0
    1.6282    2.6123    0.5801 O   0  0  0  0  0  0  0  0  0  0  0  0
    0.4332    0.8696   -2.2101 C   0  0  0  0  0  0  0  0  0  0  0  0
   -0.6609   -0.0371   -2.7186 C   0  0  0  0  0  0  0  0  0  0  0  0
   -0.5290   -1.3961   -2.7728 N   0  0  0  0  0  0  0  0  0  0  0  0
   -1.9229    0.2138   -3.2032 C   0  0  0  0  0  0  0  0  0  0  0  0
   -1.6944   -1.9011   -3.2790 C   0  0  0  0  0  0  0  0  0  0  0  0
   -2.5612   -0.9507   -3.5500 N   0  0  0  0  0  0  0  0  0  0  0  0
   -1.3903    1.6325   -0.5973 H   0  0  0  0  0  0  0  0  0  0  0  0
    0.7216   -0.1885   -0.3211 H   0  0  0  0  0  0  0  0  0  0  0  0
    1.3867    0.5996   -2.6839 H   0  0  0  0  0  0  0  0  0  0  0  0
    0.2205    1.8908   -2.5531 H   0  0  0  0  0  0  0  0  0  0  0  0
    0.2812   -1.9328   -2.4921 H   0  0  0  0  0  0  0  0  0  0  0  0
   -2.4068    1.1729   -3.3210 H   0  0  0  0  0  0  0  0  0  0  0  0
   -1.8457   -2.9613   -3.4237 H   0  0  0  0  0  0  0  0  0  0  0  0
    2.9361    1.3018   -0.8219 N   0  0  0  0  0  0  0  0  0  0  0  0
    4.2046    1.9397   -0.5521 C   0  0  2  0  0  0  0  0  0  0  0  0
    4.0208    3.4421   -0.7209 C   0  0  0  0  0  0  0  0  0  0  0  0
    3.1204    3.9360   -1.3966 O   0  0  0  0  0  0  0  0  0  0  0  0
    5.2939    1.4182   -1.4763 C   0  0  0  0  0  0  0  0  0  0  0  0
    2.9172    0.5219   -1.4724 H   0  0  0  0  0  0  0  0  0  0  0  0
    4.4553    1.7168    0.4907 H   0  0  0  0  0  0  0  0  0  0  0  0
    5.0603    1.6324   -2.5256 H   0  0  0  0  0  0  0  0  0  0  0  0
    6.2603    1.8816   -1.2517 H   0  0  0  0  0  0  0  0  0  0  0  0
    5.4043    0.3331   -1.3752 H   0  0  0  0  0  0  0  0  0  0  0  0
    5.0060    4.1656   -0.0637 N   0  0  0  0  0  0  0  0  0  0  0  0
    5.0577    5.6088   -0.0835 C   0  0  0  0  0  0  0  0  0  0  0  0
    5.7026    3.6739    0.4885 H   0  0  0  0  0  0  0  0  0  0  0  0
    5.6999    5.9419   -0.9122 H   0  0  0  0  0  0  0  0  0  0  0  0
    4.0429    6.0101   -0.2220 H   0  0  0  0  0  0  0  0  0  0  0  0
    5.4696    5.9740    0.8689 H   0  0  0  0  0  0  0  0  0  0  0  0
 22 24  2  0  0  0  0
 24 26  1  0  0  0  0
 25 26  2  0  0  0  0
 23 25  1  0  0  0  0
 21 22  1  0  0  0  0
 22 23  1  0  0  0  0
  1  3  1  0  0  0  0
  1  7  1  0  0  0  0
  1  2  2  0  0  0  0
 35 36  1  0  0  0  0
 36 44  1  0  0  0  0
 36 37  2  0  0  0  0
  8  9  1  0  0  0  0
  9 17  1  0  0  0  0
  9 10  2  0  0  0  0
 18 19  1  0  0  0  0
 19 34  1  0  0  0  0
 19 20  2  0  0  0  0
 35 38  1  0  0  0  0
  8 11  1  0  0  0  0
 44 45  1  0  0  0  0
 18 21  1  0  0  0  0
 34 35  1  0  0  0  0
  7  8  1  0  0  0  0
 17 18  1  0  0  0  0
 24 32  1  0  0  0  0
 25 33  1  0  0  0  0
  3  4  1  0  0  0  0
  3  5  1  0  0  0  0
  3  6  1  0  0  0  0
 38 41  1  0  0  0  0
 38 42  1  0  0  0  0
 38 43  1  0  0  0  0
 11 14  1  0  0  0  0
 11 15  1  0  0  0  0
 11 16  1  0  0  0  0
 45 47  1  0  0  0  0
 45 48  1  0  0  0  0
 45 49  1  0  0  0  0
 21 29  1  0  0  0  0
 21 30  1  0  0  0  0
 35 40  1  0  0  0  0
  8 13  1  0  0  0  0
 18 28  1  0  0  0  0
 23 31  1  0  0  0  0
 44 46  1  0  0  0  0
  7 12  1  0  0  0  0
 34 39  1  0  0  0  0
 17 27  1  0  0  0  0
M  END
$$$$

  -OEChem-05262214473D

 49 49  0     1  0  0  0  0  0999 V2000
   -1.5619    0.5658    3.7981 C   0  0  0  0  0  0  0  0  0  0  0  0
   -0.6145   -0.0489    3.3224 O   0  0  0  0  0  0  0  0  0  0  0  0
   -1.9938    0.2834    5.1988 C   0  0  0  0  0  0  0  0  0  0  0  0
   -2.7535   -0.5129    5.2522 H   0  0  0  0  0  0  0  0  0  0  0  0
   -1.1626   -0.0642    5.8331 H   0  0  0  0  0  0  0  0  0  0  0  0
   -2.4318    1.1383    5.7384 H   0  0  0  0  0  0  0  0  0  0  0  0
   -2.3116    1.5383    3.1570 N   0  0  0  0  0  0  0  0  0  0  0  0
   -2.0648    1.9643    1.8046 C   0  0  2  0  0  0  0  0  0  0  0  0
   -0.7298    1.3789    1.3634 C   0  0  0  0  0  0  0  0  0  0  0  0
    0.1423    1.0262    2.1547 O   0  0  0  0  0  0  0  0  0  0  0  0
   -2.0560    3.4811    1.6952 C   0  0  0  0  0  0  0  0  0  0  0  0
   -3.0767    1.9741    3.6688 H   0  0  0  0  0  0  0  0  0  0  0  0
   -2.8689    1.5458    1.1895 H   0  0  0  0  0  0  0  0  0  0  0  0
   -1.2569    3.9183    2.3049 H   0  0  0  0  0  0  0  0  0  0  0  0
   -1.8965    3.8033    0.6609 H   0  0  0  0  0  0  0  0  0  0  0  0
   -3.0062    3.9023    2.0409 H   0  0  0  0  0  0  0  0  0  0  0  0
   -0.6071    1.3358   -0.0200 N   0  0  0  0  0  0  0  0  0  0  0  0
    0.5702    0.8350   -0.6836 C   0  0  2  0  0  0  0  0  0  0  0  0
    1.7425    1.7012   -0.2370 C   0  0  0  0  0  0  0  0  0  0  0  0
    1.7007    2.4229    0.7571 O   0  0  0  0  0  0  0  0  0  0  0  0
    0.4332    0.8696   -2.2101 C   0  0  0  0  0  0  0  0  0  0  0  0
   -0.6609   -0.0371   -2.7186 C   0  0  0  0  0  0  0  0  0  0  0  0
   -0.5290   -1.3961   -2.7728 N   0  0  0  0  0  0  0  0  0  0  0  0
   -1.9229    0.2138   -3.2032 C   0  0  0  0  0  0  0  0  0  0  0  0
   -1.6944   -1.9011   -3.2790 C   0  0  0  0  0  0  0  0  0  0  0  0
   -2.5612   -0.9507   -3.5500 N   0  0  0  0  0  0  0  0  0  0  0  0
   -1.3903    1.6325   -0.5973 H   0  0  0  0  0  0  0  0  0  0  0  0
    0.7216   -0.1885   -0.3211 H   0  0  0  0  0  0  0  0  0  0  0  0
    1.3867    0.5996   -2.6839 H   0  0  0  0  0  0  0  0  0  0  0  0
    0.2205    1.8908   -2.5531 H   0  0  0  0  0  0  0  0  0  0  0  0
    0.2812   -1.9328   -2.4921 H   0  0  0  0  0  0  0  0  0  0  0  0
   -2.4068    1.1729   -3.3210 H   0  0  0  0  0  0  0  0  0  0  0  0
   -1.8457   -2.9613   -3.4237 H   0  0  0  0  0  0  0  0  0  0  0  0
    2.8534    1.5324   -1.0518 N   0  0  0  0  0  0  0  0  0  0  0  0
    4.1070    2.2185   -0.8366 C   0  0  2  0  0  0  0  0  0  0  0  0
    3.8081    3.7022   -0.6670 C   0  0  0  0  0  0  0  0  0  0  0  0
    2.7856    4.2337   -1.0950 O   0  0  0  0  0  0  0  0  0  0  0  0
    5.0700    1.9866   -1.9906 C   0  0  0  0  0  0  0  0  0  0  0  0
    2.7816    0.8945   -1.8391 H   0  0  0  0  0  0  0  0  0  0  0  0
    4.5291    1.8218    0.0931 H   0  0  0  0  0  0  0  0  0  0  0  0
    4.6642    2.3775   -2.9308 H   0  0  0  0  0  0  0  0  0  0  0  0
    6.0294    2.4835   -1.8128 H   0  0  0  0  0  0  0  0  0  0  0  0
    5.2606    0.9170   -2.1301 H   0  0  0  0  0  0  0  0  0  0  0  0
    4.8372    4.3713   -0.0194 N   0  0  0  0  0  0  0  0  0  0  0  0
    4.7972    5.7897    0.2496 C   0  0  0  0  0  0  0  0  0  0  0  0
    5.6395    3.8474    0.3178 H   0  0  0  0  0  0  0  0  0  0  0  0
    5.2818    6.3336   -0.5746 H   0  0  0  0  0  0  0  0  0  0  0  0
    3.7506    6.1165    0.3389 H   0  0  0  0  0  0  0  0  0  0  0  0
    5.3284    5.9997    1.1896 H   0  0  0  0  0  0  0  0  0  0  0  0
 22 24  2  0  0  0  0
 24 26  1  0  0  0  0
 25 26  2  0  0  0  0
 23 25  1  0  0  0  0
 21 22  1  0  0  0  0
 22 23  1  0  0  0  0
  1  3  1  0  0  0  0
  1  7  1  0  0  0  0
  1  2  2  0  0  0  0
 35 36  1  0  0  0  0
 36 44  1  0  0  0  0
 36 37  2  0  0  0  0
  8  9  1  0  0  0  0
  9 17  1  0  0  0  0
  9 10  2  0  0  0  0
 18 19  1  0  0  0  0
 19 34  1  0  0  0  0
 19 20  2  0  0  0  0
 35 38  1  0  0  0  0
  8 11  1  0  0  0  0
 44 45  1  0  0  0  0
 18 21  1  0  0  0  0
 34 35  1  0  0  0  0
  7  8  1  0  0  0  0
 17 18  1  0  0  0  0
 24 32  1  0  0  0  0
 25 33  1  0  0  0  0
  3  4  1  0  0  0  0
  3  5  1  0  0  0  0
  3  6  1  0  0  0  0
 38 41  1  0  0  0  0
 38 42  1  0  0  0  0
 38 43  1  0  0  0  0
 11 14  1  0  0  0  0
 11 15  1  0  0  0  0
 11 16  1  0  0  0  0
 45 47  1  0  0  0  0
 45 48  1  0  0  0  0
 45 49  1  0  0  0  0
 21 29  1  0  0  0  0
 21 30  1  0  0  0  0
 35 40  1  0  0  0  0
  8 13  1  0  0  0  0
 18 28  1  0  0  0  0
 23 31  1  0  0  0  0
 44 46  1  0  0  0  0
  7 12  1  0  0  0  0
 34 39  1  0  0  0  0
 17 27  1  0  0  0  0
M  END
$$$$

  -OEChem-05262214473D

 49 49  0     1  0  0  0  0  0999 V2000
   -1.5619    0.5658    3.7981 C   0  0  0  0  0  0  0  0  0  0  0  0
   -0.6145   -0.0489    3.3224 O   0  0  0  0  0  0  0  0  0  0  0  0
   -1.9938    0.2834    5.1988 C   0  0  0  0  0  0  0  0  0  0  0  0
   -2.7535   -0.5129    5.2522 H   0  0  0  0  0  0  0  0  0  0  0  0
   -1.1626   -0.0642    5.8331 H   0  0  0  0  0  0  0  0  0  0  0  0
   -2.4318    1.1383    5.7384 H   0  0  0  0  0  0  0  0  0  0  0  0
   -2.3116    1.5383    3.1570 N   0  0  0  0  0  0  0  0  0  0  0  0
   -2.0648    1.9643    1.8046 C   0  0  2  0  0  0  0  0  0  0  0  0
   -0.7298    1.3789    1.3634 C   0  0  0  0  0  0  0  0  0  0  0  0
    0.1423    1.0262    2.1547 O   0  0  0  0  0  0  0  0  0  0  0  0
   -2.0560    3.4811    1.6952 C   0  0  0  0  0  0  0  0  0  0  0  0
   -3.0767    1.9741    3.6688 H   0  0  0  0  0  0  0  0  0  0  0  0
   -2.8689    1.5458    1.1895 H   0  0  0  0  0  0  0  0  0  0  0  0
   -1.2569    3.9183    2.3049 H   0  0  0  0  0  0  0  0  0  0  0  0
   -1.8965    3.8033    0.6609 H   0  0  0  0  0  0  0  0  0  0  0  0
   -3.0062    3.9023    2.0409 H   0  0  0  0  0  0  0  0  0  0  0  0
   -0.6071    1.3358   -0.0200 N   0  0  0  0  0  0  0  0  0  0  0  0
    0.5702    0.8350   -0.6836 C   0  0  2  0  0  0  0  0  0  0  0  0
    1.7425    1.7012   -0.2370 C   0  0  0  0  0  0  0  0  0  0  0  0
    1.8111    2.2102    0.8797 O   0  0  0  0  0  0  0  0  0  0  0  0
    0.4332    0.8696   -2.2101 C   0  0  0  0  0  0  0  0  0  0  0  0
   -0.6609   -0.0371   -2.7186 C   0  0  0  0  0  0  0  0  0  0  0  0
   -0.5290   -1.3961   -2.7728 N   0  0  0  0  0  0  0  0  0  0  0  0
   -1.9229    0.2138   -3.2032 C   0  0  0  0  0  0  0  0  0  0  0  0
   -1.6944   -1.9011   -3.2790 C   0  0  0  0  0  0  0  0  0  0  0  0
   -2.5612   -0.9507   -3.5500 N   0  0  0  0  0  0  0  0  0  0  0  0
   -1.3903    1.6325   -0.5973 H   0  0  0  0  0  0  0  0  0  0  0  0
    0.7216   -0.1885   -0.3211 H   0  0  0  0  0  0  0  0  0  0  0  0
    1.3867    0.5996   -2.6839 H   0  0  0  0  0  0  0  0  0  0  0  0
    0.2205    1.8908   -2.5531 H   0  0  0  0  0  0  0  0  0  0  0  0
    0.2812   -1.9328   -2.4921 H   0  0  0  0  0  0  0  0  0  0  0  0
   -2.4068    1.1729   -3.3210 H   0  0  0  0  0  0  0  0  0  0  0  0
   -1.8457   -2.9613   -3.4237 H   0  0  0  0  0  0  0  0  0  0  0  0
    2.7221    1.7946   -1.2158 N   0  0  0  0  0  0  0  0  0  0  0  0
    3.9498    2.5370   -1.0416 C   0  0  2  0  0  0  0  0  0  0  0  0
    3.5908    3.9266   -0.5319 C   0  0  0  0  0  0  0  0  0  0  0  0
    2.4840    4.4358   -0.6952 O   0  0  0  0  0  0  0  0  0  0  0  0
    4.7349    2.6209   -2.3413 C   0  0  0  0  0  0  0  0  0  0  0  0
    2.5684    1.3172   -2.0991 H   0  0  0  0  0  0  0  0  0  0  0  0
    4.5341    2.0080   -0.2808 H   0  0  0  0  0  0  0  0  0  0  0  0
    4.1655    3.1478   -3.1157 H   0  0  0  0  0  0  0  0  0  0  0  0
    5.6782    3.1590   -2.2010 H   0  0  0  0  0  0  0  0  0  0  0  0
    4.9665    1.6203   -2.7220 H   0  0  0  0  0  0  0  0  0  0  0  0
    4.6651    4.5483    0.0890 N   0  0  0  0  0  0  0  0  0  0  0  0
    4.5808    5.8784    0.6456 C   0  0  0  0  0  0  0  0  0  0  0  0
    5.5402    4.0441    0.1967 H   0  0  0  0  0  0  0  0  0  0  0  0
    4.8980    6.6131   -0.1092 H   0  0  0  0  0  0  0  0  0  0  0  0
    3.5427    6.0854    0.9449 H   0  0  0  0  0  0  0  0  0  0  0  0
    5.2372    5.9499    1.5253 H   0  0  0  0  0  0  0  0  0  0  0  0
 22 24  2  0  0  0  0
 24 26  1  0  0  0  0
 25 26  2  0  0  0  0
 23 25  1  0  0  0  0
 21 22  1  0  0  0  0
 22 23  1  0  0  0  0
  1  3  1  0  0  0  0
  1  7  1  0  0  0  0
  1  2  2  0  0  0  0
 35 36  1  0  0  0  0
 36 44  1  0  0  0  0
 36 37  2  0  0  0  0
  8  9  1  0  0  0  0
  9 17  1  0  0  0  0
  9 10  2  0  0  0  0
 18 19  1  0  0  0  0
 19 34  1  0  0  0  0
 19 20  2  0  0  0  0
 35 38  1  0  0  0  0
  8 11  1  0  0  0  0
 44 45  1  0  0  0  0
 18 21  1  0  0  0  0
 34 35  1  0  0  0  0
  7  8  1  0  0  0  0
 17 18  1  0  0  0  0
 24 32  1  0  0  0  0
 25 33  1  0  0  0  0
  3  4  1  0  0  0  0
  3  5  1  0  0  0  0
  3  6  1  0  0  0  0
 38 41  1  0  0  0  0
 38 42  1  0  0  0  0
 38 43  1  0  0  0  0
 11 14  1  0  0  0  0
 11 15  1  0  0  0  0
 11 16  1  0  0  0  0
 45 47  1  0  0  0  0
 45 48  1  0  0  0  0
 45 49  1  0  0  0  0
 21 29  1  0  0  0  0
 21 30  1  0  0  0  0
 35 40  1  0  0  0  0
  8 13  1  0  0  0  0
 18 28  1  0  0  0  0
 23 31  1  0  0  0  0
 44 46  1  0  0  0  0
  7 12  1  0  0  0  0
 34 39  1  0  0  0  0
 17 27  1  0  0  0  0
M  END
$$$$

  -OEChem-05262214473D

 49 49  0     1  0  0  0  0  0999 V2000
   -1.5619    0.5658    3.7981 C   0  0  0  0  0  0  0  0  0  0  0  0
   -0.6145   -0.0489    3.3224 O   0  0  0  0  0  0  0  0  0  0  0  0
   -1.9938    0.2834    5.1988 C   0  0  0  0  0  0  0  0  0  0  0  0
   -2.7535   -0.5129    5.2522 H   0  0  0  0  0  0  0  0  0  0  0  0
   -1.1626   -0.0642    5.8331 H   0  0  0  0  0  0  0  0  0  0  0  0
   -2.4318    1.1383    5.7384 H   0  0  0  0  0  0  0  0  0  0  0  0
   -2.3116    1.5383    3.1570 N   0  0  0  0  0  0  0  0  0  0  0  0
   -2.0648    1.9643    1.8046 C   0  0  2  0  0  0  0  0  0  0  0  0
   -0.7298    1.3789    1.3634 C   0  0  0  0  0  0  0  0  0  0  0  0
    0.1423    1.0262    2.1547 O   0  0  0  0  0  0  0  0  0  0  0  0
   -2.0560    3.4811    1.6952 C   0  0  0  0  0  0  0  0  0  0  0  0
   -3.0767    1.9741    3.6688 H   0  0  0  0  0  0  0  0  0  0  0  0
   -2.8689    1.5458    1.1895 H   0  0  0  0  0  0  0  0  0  0  0  0
   -1.2569    3.9183    2.3049 H   0  0  0  0  0  0  0  0  0  0  0  0
   -1.8965    3.8033    0.6609 H   0  0  0  0  0  0  0  0  0  0  0  0
   -3.0062    3.9023    2.0409 H   0  0  0  0  0  0  0  0  0  0  0  0
   -0.6071    1.3358   -0.0200 N   0  0  0  0  0  0  0  0  0  0  0  0
    0.5702    0.8350   -0.6836 C   0  0  2  0  0  0  0  0  0  0  0  0
    1.7425    1.7012   -0.2370 C   0  0  0  0  0  0  0  0  0  0  0  0
    1.9519    1.9888    0.9396 O   0  0  0  0  0  0  0  0  0  0  0  0
    0.4332    0.8696   -2.2101 C   0  0  0  0  0  0  0  0  0  0  0  0
   -0.6609   -0.0371   -2.7186 C   0  0  0  0  0  0  0  0  0  0  0  0
   -0.5290   -1.3961   -2.7728 N   0  0  0  0  0  0  0  0  0  0  0  0
   -1.9229    0.2138   -3.2032 C   0  0  0  0  0  0  0  0  0  0  0  0
   -1.6944   -1.9011   -3.2790 C   0  0  0  0  0  0  0  0  0  0  0  0
   -2.5612   -0.9507   -3.5500 N   0  0  0  0  0  0  0  0  0  0  0  0
   -1.3903    1.6325   -0.5973 H   0  0  0  0  0  0  0  0  0  0  0  0
    0.7216   -0.1885   -0.3211 H   0  0  0  0  0  0  0  0  0  0  0  0
    1.3867    0.5996   -2.6839 H   0  0  0  0  0  0  0  0  0  0  0  0
    0.2205    1.8908   -2.5531 H   0  0  0  0  0  0  0  0  0  0  0  0
    0.2812   -1.9328   -2.4921 H   0  0  0  0  0  0  0  0  0  0  0  0
   -2.4068    1.1729   -3.3210 H   0  0  0  0  0  0  0  0  0  0  0  0
   -1.8457   -2.9613   -3.4237 H   0  0  0  0  0  0  0  0  0  0  0  0
    2.5513    2.0706   -1.3028 N   0  0  0  0  0  0  0  0  0  0  0  0
    3.7436    2.8736   -1.1531 C   0  0  2  0  0  0  0  0  0  0  0  0
    3.3838    4.0999   -0.3248 C   0  0  0  0  0  0  0  0  0  0  0  0
    2.2361    4.5285   -0.2245 O   0  0  0  0  0  0  0  0  0  0  0  0
    4.3116    3.2780   -2.5046 C   0  0  0  0  0  0  0  0  0  0  0  0
    2.2922    1.7610   -2.2348 H   0  0  0  0  0  0  0  0  0  0  0  0
    4.4697    2.2626   -0.6057 H   0  0  0  0  0  0  0  0  0  0  0  0
    3.5982    3.8908   -3.0676 H   0  0  0  0  0  0  0  0  0  0  0  0
    5.2307    3.8622   -2.3900 H   0  0  0  0  0  0  0  0  0  0  0  0
    4.5420    2.3951   -3.1105 H   0  0  0  0  0  0  0  0  0  0  0  0
    4.5013    4.6847    0.2544 N   0  0  0  0  0  0  0  0  0  0  0  0
    4.4232    5.8689    1.0776 C   0  0  0  0  0  0  0  0  0  0  0  0
    5.4117    4.2507    0.1335 H   0  0  0  0  0  0  0  0  0  0  0  0
    4.5745    6.7613    0.4525 H   0  0  0  0  0  0  0  0  0  0  0  0
    3.4333    5.9190    1.5547 H   0  0  0  0  0  0  0  0  0  0  0  0
    5.2023    5.8282    1.8531 H   0  0  0  0  0  0  0  0  0  0  0  0
 22 24  2  0  0  0  0
 24 26  1  0  0  0  0
 25 26  2  0  0  0  0
 23 25  1  0  0  0  0
 21 22  1  0  0  0  0
 22 23  1  0  0  0  0
  1  3  1  0  0  0  0
  1  7  1  0  0  0  0
  1  2  2  0  0  0  0
 35 36  1  0  0  0  0
 36 44  1  0  0  0  0
 36 37  2  0  0  0  0
  8  9  1  0  0  0  0
  9 17  1  0  0  0  0
  9 10  2  0  0  0  0
 18 19  1  0  0  0  0
 19 34  1  0  0  0  0
 19 20  2  0  0  0  0
 35 38  1  0  0  0  0
  8 11  1  0  0  0  0
 44 45  1  0  0  0  0
 18 21  1  0  0  0  0
 34 35  1  0  0  0  0
  7  8  1  0  0  0  0
 17 18  1  0  0  0  0
 24 32  1  0  0  0  0
 25 33  1  0  0  0  0
  3  4  1  0  0  0  0
  3  5  1  0  0  0  0
  3  6  1  0  0  0  0
 38 41  1  0  0  0  0
 38 42  1  0  0  0  0
 38 43  1  0  0  0  0
 11 14  1  0  0  0  0
 11 15  1  0  0  0  0
 11 16  1  0  0  0  0
 45 47  1  0  0  0  0
 45 48  1  0  0  0  0
 45 49  1  0  0  0  0
 21 29  1  0  0  0  0
 21 30  1  0  0  0  0
 35 40  1  0  0  0  0
  8 13  1  0  0  0  0
 18 28  1  0  0  0  0
 23 31  1  0  0  0  0
 44 46  1  0  0  0  0
  7 12  1  0  0  0  0
 34 39  1  0  0  0  0
 17 27  1  0  0  0  0
M  END
$$$$

  -OEChem-05262214473D

 49 49  0     1  0  0  0  0  0999 V2000
   -1.5619    0.5658    3.7981 C   0  0  0  0  0  0  0  0  0  0  0  0
   -0.6145   -0.0489    3.3224 O   0  0  0  0  0  0  0  0  0  0  0  0
   -1.9938    0.2834    5.1988 C   0  0  0  0  0  0  0  0  0  0  0  0
   -2.7535   -0.5129    5.2522 H   0  0  0  0  0  0  0  0  0  0  0  0
   -1.1626   -0.0642    5.8331 H   0  0  0  0  0  0  0  0  0  0  0  0
   -2.4318    1.1383    5.7384 H   0  0  0  0  0  0  0  0  0  0  0  0
   -2.3116    1.5383    3.1570 N   0  0  0  0  0  0  0  0  0  0  0  0
   -2.0648    1.9643    1.8046 C   0  0  2  0  0  0  0  0  0  0  0  0
   -0.7298    1.3789    1.3634 C   0  0  0  0  0  0  0  0  0  0  0  0
    0.1423    1.0262    2.1547 O   0  0  0  0  0  0  0  0  0  0  0  0
   -2.0560    3.4811    1.6952 C   0  0  0  0  0  0  0  0  0  0  0  0
   -3.0767    1.9741    3.6688 H   0  0  0  0  0  0  0  0  0  0  0  0
   -2.8689    1.5458    1.1895 H   0  0  0  0  0  0  0  0  0  0  0  0
   -1.2569    3.9183    2.3049 H   0  0  0  0  0  0  0  0  0  0  0  0
   -1.8965    3.8033    0.6609 H   0  0  0  0  0  0  0  0  0  0  0  0
   -3.0062    3.9023    2.0409 H   0  0  0  0  0  0  0  0  0  0  0  0
   -0.6071    1.3358   -0.0200 N   0  0  0  0  0  0  0  0  0  0  0  0
    0.5702    0.8350   -0.6836 C   0  0  2  0  0  0  0  0  0  0  0  0
    1.7425    1.7012   -0.2370 C   0  0  0  0  0  0  0  0  0  0  0  0
    2.1135    1.7736    0.9326 O   0  0  0  0  0  0  0  0  0  0  0  0
    0.4332    0.8696   -2.2101 C   0  0  0  0  0  0  0  0  0  0  0  0
   -0.6609   -0.0371   -2.7186 C   0  0  0  0  0  0  0  0  0  0  0  0
   -0.5290   -1.3961   -2.7728 N   0  0  0  0  0  0  0  0  0  0  0  0
   -1.9229    0.2138   -3.2032 C   0  0  0  0  0  0  0  0  0  0  0  0
   -1.6944   -1.9011   -3.2790 C   0  0  0  0  0  0  0  0  0  0  0  0
   -2.5612   -0.9507   -3.5500 N   0  0  0  0  0  0  0  0  0  0  0  0
   -1.3903    1.6325   -0.5973 H   0  0  0  0  0  0  0  0  0  0  0  0
    0.7216   -0.1885   -0.3211 H   0  0  0  0  0  0  0  0  0  0  0  0
    1.3867    0.5996   -2.6839 H   0  0  0  0  0  0  0  0  0  0  0  0
    0.2205    1.8908   -2.5531 H   0  0  0  0  0  0  0  0  0  0  0  0
    0.2812   -1.9328   -2.4921 H   0  0  0  0  0  0  0  0  0  0  0  0
   -2.4068    1.1729   -3.3210 H   0  0  0  0  0  0  0  0  0  0  0  0
   -1.8457   -2.9613   -3.4237 H   0  0  0  0  0  0  0  0  0  0  0  0
    2.3526    2.3415   -1.3067 N   0  0  0  0  0  0  0  0  0  0  0  0
    3.5026    3.2052   -1.1635 C   0  0  2  0  0  0  0  0  0  0  0  0
    3.2012    4.2104   -0.0598 C   0  0  0  0  0  0  0  0  0  0  0  0
    2.0588    4.5057    0.2850 O   0  0  0  0  0  0  0  0  0  0  0  0
    3.8289    3.9132   -2.4692 C   0  0  0  0  0  0  0  0  0  0  0  0
    1.9717    2.1958   -2.2370 H   0  0  0  0  0  0  0  0  0  0  0  0
    4.3405    2.5684   -0.8594 H   0  0  0  0  0  0  0  0  0  0  0  0
    3.0009    4.5559   -2.7898 H   0  0  0  0  0  0  0  0  0  0  0  0
    4.7173    4.5451   -2.3667 H   0  0  0  0  0  0  0  0  0  0  0  0
    4.0161    3.1887   -3.2691 H   0  0  0  0  0  0  0  0  0  0  0  0
    4.3571    4.7712    0.4653 N   0  0  0  0  0  0  0  0  0  0  0  0
    4.3353    5.7617    1.5162 C   0  0  0  0  0  0  0  0  0  0  0  0
    5.2625    4.4531    0.1324 H   0  0  0  0  0  0  0  0  0  0  0  0
    4.3334    6.7681    1.0722 H   0  0  0  0  0  0  0  0  0  0  0  0
    3.4300    5.6286    2.1266 H   0  0  0  0  0  0  0  0  0  0  0  0
    5.2260    5.6427    2.1506 H   0  0  0  0  0  0  0  0  0  0  0  0
 22 24  2  0  0  0  0
 24 26  1  0  0  0  0
 25 26  2  0  0  0  0
 23 25  1  0  0  0  0
 21 22  1  0  0  0  0
 22 23  1  0  0  0  0
  1  3  1  0  0  0  0
  1  7  1  0  0  0  0
  1  2  2  0  0  0  0
 35 36  1  0  0  0  0
 36 44  1  0  0  0  0
 36 37  2  0  0  0  0
  8  9  1  0  0  0  0
  9 17  1  0  0  0  0
  9 10  2  0  0  0  0
 18 19  1  0  0  0  0
 19 34  1  0  0  0  0
 19 20  2  0  0  0  0
 35 38  1  0  0  0  0
  8 11  1  0  0  0  0
 44 45  1  0  0  0  0
 18 21  1  0  0  0  0
 34 35  1  0  0  0  0
  7  8  1  0  0  0  0
 17 18  1  0  0  0  0
 24 32  1  0  0  0  0
 25 33  1  0  0  0  0
  3  4  1  0  0  0  0
  3  5  1  0  0  0  0
  3  6  1  0  0  0  0
 38 41  1  0  0  0  0
 38 42  1  0  0  0  0
 38 43  1  0  0  0  0
 11 14  1  0  0  0  0
 11 15  1  0  0  0  0
 11 16  1  0  0  0  0
 45 47  1  0  0  0  0
 45 48  1  0  0  0  0
 45 49  1  0  0  0  0
 21 29  1  0  0  0  0
 21 30  1  0  0  0  0
 35 40  1  0  0  0  0
  8 13  1  0  0  0  0
 18 28  1  0  0  0  0
 23 31  1  0  0  0  0
 44 46  1  0  0  0  0
  7 12  1  0  0  0  0
 34 39  1  0  0  0  0
 17 27  1  0  0  0  0
M  END
$$$$

  -OEChem-05262214473D

 49 49  0     1  0  0  0  0  0999 V2000
   -1.5619    0.5658    3.7981 C   0  0  0  0  0  0  0  0  0  0  0  0
   -0.6145   -0.0489    3.3224 O   0  0  0  0  0  0  0  0  0  0  0  0
   -1.9938    0.2834    5.1988 C   0  0  0  0  0  0  0  0  0  0  0  0
   -2.7535   -0.5129    5.2522 H   0  0  0  0  0  0  0  0  0  0  0  0
   -1.1626   -0.0642    5.8331 H   0  0  0  0  0  0  0  0  0  0  0  0
   -2.4318    1.1383    5.7384 H   0  0  0  0  0  0  0  0  0  0  0  0
   -2.3116    1.5383    3.1570 N   0  0  0  0  0  0  0  0  0  0  0  0
   -2.0648    1.9643    1.8046 C   0  0  2  0  0  0  0  0  0  0  0  0
   -0.7298    1.3789    1.3634 C   0  0  0  0  0  0  0  0  0  0  0  0
    0.1423    1.0262    2.1547 O   0  0  0  0  0  0  0  0  0  0  0  0
   -2.0560    3.4811    1.6952 C   0  0  0  0  0  0  0  0  0  0  0  0
   -3.0767    1.9741    3.6688 H   0  0  0  0  0  0  0  0  0  0  0  0
   -2.8689    1.5458    1.1895 H   0  0  0  0  0  0  0  0  0  0  0  0
   -1.2569    3.9183    2.3049 H   0  0  0  0  0  0  0  0  0  0  0  0
   -1.8965    3.8033    0.6609 H   0  0  0  0  0  0  0  0  0  0  0  0
   -3.0062    3.9023    2.0409 H   0  0  0  0  0  0  0  0  0  0  0  0
   -0.6071    1.3358   -0.0200 N   0  0  0  0  0  0  0  0  0  0  0  0
    0.5702    0.8350   -0.6836 C   0  0  2  0  0  0  0  0  0  0  0  0
    1.7425    1.7012   -0.2370 C   0  0  0  0  0  0  0  0  0  0  0  0
    2.2849    1.5795    0.8593 O   0  0  0  0  0  0  0  0  0  0  0  0
    0.4332    0.8696   -2.2101 C   0  0  0  0  0  0  0  0  0  0  0  0
   -0.6609   -0.0371   -2.7186 C   0  0  0  0  0  0  0  0  0  0  0  0
   -0.5290   -1.3961   -2.7728 N   0  0  0  0  0  0  0  0  0  0  0  0
   -1.9229    0.2138   -3.2032 C   0  0  0  0  0  0  0  0  0  0  0  0
   -1.6944   -1.9011   -3.2790 C   0  0  0  0  0  0  0  0  0  0  0  0
   -2.5612   -0.9507   -3.5500 N   0  0  0  0  0  0  0  0  0  0  0  0
   -1.3903    1.6325   -0.5973 H   0  0  0  0  0  0  0  0  0  0  0  0
    0.7216   -0.1885   -0.3211 H   0  0  0  0  0  0  0  0  0  0  0  0
    1.3867    0.5996   -2.6839 H   0  0  0  0  0  0  0  0  0  0  0  0
    0.2205    1.8908   -2.5531 H   0  0  0  0  0  0  0  0  0  0  0  0
    0.2812   -1.9328   -2.4921 H   0  0  0  0  0  0  0  0  0  0  0  0
   -2.4068    1.1729   -3.3210 H   0  0  0  0  0  0  0  0  0  0  0  0
   -1.8457   -2.9613   -3.4237 H   0  0  0  0  0  0  0  0  0  0  0  0
    2.1396    2.5889   -1.2273 N   0  0  0  0  0  0  0  0  0  0  0  0
    3.2430    3.5093   -1.0720 C   0  0  2  0  0  0  0  0  0  0  0  0
    3.0554    4.2506    0.2451 C   0  0  0  0  0  0  0  0  0  0  0  0
    1.9643    4.3687    0.7988 O   0  0  0  0  0  0  0  0  0  0  0  0
    3.3196    4.4830   -2.2377 C   0  0  0  0  0  0  0  0  0  0  0  0
    1.6290    2.5919   -2.1054 H   0  0  0  0  0  0  0  0  0  0  0  0
    4.1551    2.9044   -1.0246 H   0  0  0  0  0  0  0  0  0  0  0  0
    2.4144    5.0978   -2.3013 H   0  0  0  0  0  0  0  0  0  0  0  0
    4.1730    5.1611   -2.1328 H   0  0  0  0  0  0  0  0  0  0  0  0
    3.4247    3.9469   -3.1871 H   0  0  0  0  0  0  0  0  0  0  0  0
    4.2423    4.8017    0.7074 N   0  0  0  0  0  0  0  0  0  0  0  0
    4.3230    5.5642    1.9314 C   0  0  0  0  0  0  0  0  0  0  0  0
    5.1030    4.6375    0.1937 H   0  0  0  0  0  0  0  0  0  0  0  0
    4.1911    6.6331    1.7075 H   0  0  0  0  0  0  0  0  0  0  0  0
    3.5328    5.2341    2.6217 H   0  0  0  0  0  0  0  0  0  0  0  0
    5.3067    5.4061    2.3975 H   0  0  0  0  0  0  0  0  0  0  0  0
 22 24  2  0  0  0  0
 24 26  1  0  0  0  0
 25 26  2  0  0  0  0
 23 25  1  0  0  0  0
 21 22  1  0  0  0  0
 22 23  1  0  0  0  0
  1  3  1  0  0  0  0
  1  7  1  0  0  0  0
  1  2  2  0  0  0  0
 35 36  1  0  0  0  0
 36 44  1  0  0  0  0
 36 37  2  0  0  0  0
  8  9  1  0  0  0  0
  9 17  1  0  0  0  0
  9 10  2  0  0  0  0
 18 19  1  0  0  0  0
 19 34  1  0  0  0  0
 19 20  2  0  0  0  0
 35 38  1  0  0  0  0
  8 11  1  0  0  0  0
 44 45  1  0  0  0  0
 18 21  1  0  0  0  0
 34 35  1  0  0  0  0
  7  8  1  0  0  0  0
 17 18  1  0  0  0  0
 24 32  1  0  0  0  0
 25 33  1  0  0  0  0
  3  4  1  0  0  0  0
  3  5  1  0  0  0  0
  3  6  1  0  0  0  0
 38 41  1  0  0  0  0
 38 42  1  0  0  0  0
 38 43  1  0  0  0  0
 11 14  1  0  0  0  0
 11 15  1  0  0  0  0
 11 16  1  0  0  0  0
 45 47  1  0  0  0  0
 45 48  1  0  0  0  0
 45 49  1  0  0  0  0
 21 29  1  0  0  0  0
 21 30  1  0  0  0  0
 35 40  1  0  0  0  0
  8 13  1  0  0  0  0
 18 28  1  0  0  0  0
 23 31  1  0  0  0  0
 44 46  1  0  0  0  0
  7 12  1  0  0  0  0
 34 39  1  0  0  0  0
 17 27  1  0  0  0  0
M  END
$$$$

  -OEChem-05262214473D

 49 49  0     1  0  0  0  0  0999 V2000
   -1.5619    0.5658    3.7981 C   0  0  0  0  0  0  0  0  0  0  0  0
   -0.6145   -0.0489    3.3224 O   0  0  0  0  0  0  0  0  0  0  0  0
   -1.9938    0.2834    5.1988 C   0  0  0  0  0  0  0  0  0  0  0  0
   -2.7535   -0.5129    5.2522 H   0  0  0  0  0  0  0  0  0  0  0  0
   -1.1626   -0.0642    5.8331 H   0  0  0  0  0  0  0  0  0  0  0  0
   -2.4318    1.1383    5.7384 H   0  0  0  0  0  0  0  0  0  0  0  0
   -2.3116    1.5383    3.1570 N   0  0  0  0  0  0  0  0  0  0  0  0
   -2.0648    1.9643    1.8046 C   0  0  2  0  0  0  0  0  0  0  0  0
   -0.7298    1.3789    1.3634 C   0  0  0  0  0  0  0  0  0  0  0  0
    0.1423    1.0262    2.1547 O   0  0  0  0  0  0  0  0  0  0  0  0
   -2.0560    3.4811    1.6952 C   0  0  0  0  0  0  0  0  0  0  0  0
   -3.0767    1.9741    3.6688 H   0  0  0  0  0  0  0  0  0  0  0  0
   -2.8689    1.5458    1.1895 H   0  0  0  0  0  0  0  0  0  0  0  0
   -1.2569    3.9183    2.3049 H   0  0  0  0  0  0  0  0  0  0  0  0
   -1.8965    3.8033    0.6609 H   0  0  0  0  0  0  0  0  0  0  0  0
   -3.0062    3.9023    2.0409 H   0  0  0  0  0  0  0  0  0  0  0  0
   -0.6071    1.3358   -0.0200 N   0  0  0  0  0  0  0  0  0  0  0  0
    0.5702    0.8350   -0.6836 C   0  0  2  0  0  0  0  0  0  0  0  0
    1.7425    1.7012   -0.2370 C   0  0  0  0  0  0  0  0  0  0  0  0
    2.4544    1.4195    0.7247 O   0  0  0  0  0  0  0  0  0  0  0  0
    0.4332    0.8696   -2.2101 C   0  0  0  0  0  0  0  0  0  0  0  0
   -0.6609   -0.0371   -2.7186 C   0  0  0  0  0  0  0  0  0  0  0  0
   -0.5290   -1.3961   -2.7728 N   0  0  0  0  0  0  0  0  0  0  0  0
   -1.9229    0.2138   -3.2032 C   0  0  0  0  0  0  0  0  0  0  0  0
   -1.6944   -1.9011   -3.2790 C   0  0  0  0  0  0  0  0  0  0  0  0
   -2.5612   -0.9507   -3.5500 N   0  0  0  0  0  0  0  0  0  0  0  0
   -1.3903    1.6325   -0.5973 H   0  0  0  0  0  0  0  0  0  0  0  0
    0.7216   -0.1885   -0.3211 H   0  0  0  0  0  0  0  0  0  0  0  0
    1.3867    0.5996   -2.6839 H   0  0  0  0  0  0  0  0  0  0  0  0
    0.2205    1.8908   -2.5531 H   0  0  0  0  0  0  0  0  0  0  0  0
    0.2812   -1.9328   -2.4921 H   0  0  0  0  0  0  0  0  0  0  0  0
   -2.4068    1.1729   -3.3210 H   0  0  0  0  0  0  0  0  0  0  0  0
   -1.8457   -2.9613   -3.4237 H   0  0  0  0  0  0  0  0  0  0  0  0
    1.9267    2.7960   -1.0701 N   0  0  0  0  0  0  0  0  0  0  0  0
    2.9828    3.7652   -0.8850 C   0  0  2  0  0  0  0  0  0  0  0  0
    2.9563    4.2177    0.5689 C   0  0  0  0  0  0  0  0  0  0  0  0
    1.9589    4.1270    1.2817 O   0  0  0  0  0  0  0  0  0  0  0  0
    2.8186    4.9487   -1.8257 C   0  0  0  0  0  0  0  0  0  0  0  0
    1.2872    2.9223   -1.8490 H   0  0  0  0  0  0  0  0  0  0  0  0
    3.9263    3.2478   -1.0900 H   0  0  0  0  0  0  0  0  0  0  0  0
    1.8786    5.4796   -1.6354 H   0  0  0  0  0  0  0  0  0  0  0  0
    3.6350    5.6683   -1.7043 H   0  0  0  0  0  0  0  0  0  0  0  0
    2.8079    4.6181   -2.8699 H   0  0  0  0  0  0  0  0  0  0  0  0
    4.1646    4.7743    0.9643 N   0  0  0  0  0  0  0  0  0  0  0  0
    4.3872    5.2899    2.2950 C   0  0  0  0  0  0  0  0  0  0  0  0
    4.9439    4.7913    0.3130 H   0  0  0  0  0  0  0  0  0  0  0  0
    4.1573    6.3654    2.3152 H   0  0  0  0  0  0  0  0  0  0  0  0
    3.7349    4.7622    3.0064 H   0  0  0  0  0  0  0  0  0  0  0  0
    5.4390    5.1345    2.5771 H   0  0  0  0  0  0  0  0  0  0  0  0
 22 24  2  0  0  0  0
 24 26  1  0  0  0  0
 25 26  2  0  0  0  0
 23 25  1  0  0  0  0
 21 22  1  0  0  0  0
 22 23  1  0  0  0  0
  1  3  1  0  0  0  0
  1  7  1  0  0  0  0
  1  2  2  0  0  0  0
 35 36  1  0  0  0  0
 36 44  1  0  0  0  0
 36 37  2  0  0  0  0
  8  9  1  0  0  0  0
  9 17  1  0  0  0  0
  9 10  2  0  0  0  0
 18 19  1  0  0  0  0
 19 34  1  0  0  0  0
 19 20  2  0  0  0  0
 35 38  1  0  0  0  0
  8 11  1  0  0  0  0
 44 45  1  0  0  0  0
 18 21  1  0  0  0  0
 34 35  1  0  0  0  0
  7  8  1  0  0  0  0
 17 18  1  0  0  0  0
 24 32  1  0  0  0  0
 25 33  1  0  0  0  0
  3  4  1  0  0  0  0
  3  5  1  0  0  0  0
  3  6  1  0  0  0  0
 38 41  1  0  0  0  0
 38 42  1  0  0  0  0
 38 43  1  0  0  0  0
 11 14  1  0  0  0  0
 11 15  1  0  0  0  0
 11 16  1  0  0  0  0
 45 47  1  0  0  0  0
 45 48  1  0  0  0  0
 45 49  1  0  0  0  0
 21 29  1  0  0  0  0
 21 30  1  0  0  0  0
 35 40  1  0  0  0  0
  8 13  1  0  0  0  0
 18 28  1  0  0  0  0
 23 31  1  0  0  0  0
 44 46  1  0  0  0  0
  7 12  1  0  0  0  0
 34 39  1  0  0  0  0
 17 27  1  0  0  0  0
M  END
$$$$

  -OEChem-05262214473D

 49 49  0     1  0  0  0  0  0999 V2000
   -1.5619    0.5658    3.7981 C   0  0  0  0  0  0  0  0  0  0  0  0
   -0.6145   -0.0489    3.3224 O   0  0  0  0  0  0  0  0  0  0  0  0
   -1.9938    0.2834    5.1988 C   0  0  0  0  0  0  0  0  0  0  0  0
   -2.7535   -0.5129    5.2522 H   0  0  0  0  0  0  0  0  0  0  0  0
   -1.1626   -0.0642    5.8331 H   0  0  0  0  0  0  0  0  0  0  0  0
   -2.4318    1.1383    5.7384 H   0  0  0  0  0  0  0  0  0  0  0  0
   -2.3116    1.5383    3.1570 N   0  0  0  0  0  0  0  0  0  0  0  0
   -2.0648    1.9643    1.8046 C   0  0  2  0  0  0  0  0  0  0  0  0
   -0.7298    1.3789    1.3634 C   0  0  0  0  0  0  0  0  0  0  0  0
    0.1423    1.0262    2.1547 O   0  0  0  0  0  0  0  0  0  0  0  0
   -2.0560    3.4811    1.6952 C   0  0  0  0  0  0  0  0  0  0  0  0
   -3.0767    1.9741    3.6688 H   0  0  0  0  0  0  0  0  0  0  0  0
   -2.8689    1.5458    1.1895 H   0  0  0  0  0  0  0  0  0  0  0  0
   -1.2569    3.9183    2.3049 H   0  0  0  0  0  0  0  0  0  0  0  0
   -1.8965    3.8033    0.6609 H   0  0  0  0  0  0  0  0  0  0  0  0
   -3.0062    3.9023    2.0409 H   0  0  0  0  0  0  0  0  0  0  0  0
   -0.6071    1.3358   -0.0200 N   0  0  0  0  0  0  0  0  0  0  0  0
    0.5702    0.8350   -0.6836 C   0  0  2  0  0  0  0  0  0  0  0  0
    1.7425    1.7012   -0.2370 C   0  0  0  0  0  0  0  0  0  0  0  0
    2.6104    1.3046    0.5378 O   0  0  0  0  0  0  0  0  0  0  0  0
    0.4332    0.8696   -2.2101 C   0  0  0  0  0  0  0  0  0  0  0  0
   -0.6609   -0.0371   -2.7186 C   0  0  0  0  0  0  0  0  0  0  0  0
   -0.5290   -1.3961   -2.7728 N   0  0  0  0  0  0  0  0  0  0  0  0
   -1.9229    0.2138   -3.2032 C   0  0  0  0  0  0  0  0  0  0  0  0
   -1.6944   -1.9011   -3.2790 C   0  0  0  0  0  0  0  0  0  0  0  0
   -2.5612   -0.9507   -3.5500 N   0  0  0  0  0  0  0  0  0  0  0  0
   -1.3903    1.6325   -0.5973 H   0  0  0  0  0  0  0  0  0  0  0  0
    0.7216   -0.1885   -0.3211 H   0  0  0  0  0  0  0  0  0  0  0  0
    1.3867    0.5996   -2.6839 H   0  0  0  0  0  0  0  0  0  0  0  0
    0.2205    1.8908   -2.5531 H   0  0  0  0  0  0  0  0  0  0  0  0
    0.2812   -1.9328   -2.4921 H   0  0  0  0  0  0  0  0  0  0  0  0
   -2.4068    1.1729   -3.3210 H   0  0  0  0  0  0  0  0  0  0  0  0
   -1.8457   -2.9613   -3.4237 H   0  0  0  0  0  0  0  0  0  0  0  0
    1.7286    2.9485   -0.8457 N   0  0  0  0  0  0  0  0  0  0  0  0
    2.7394    3.9554   -0.6152 C   0  0  2  0  0  0  0  0  0  0  0  0
    2.9108    4.1139    0.8898 C   0  0  0  0  0  0  0  0  0  0  0  0
    2.0430    3.7970    1.7008 O   0  0  0  0  0  0  0  0  0  0  0  0
    2.3598    5.2786   -1.2614 C   0  0  0  0  0  0  0  0  0  0  0  0
    0.9697    3.1645   -1.4854 H   0  0  0  0  0  0  0  0  0  0  0  0
    3.6697    3.5752   -1.0512 H   0  0  0  0  0  0  0  0  0  0  0  0
    1.4301    5.6751   -0.8373 H   0  0  0  0  0  0  0  0  0  0  0  0
    3.1398    6.0322   -1.1103 H   0  0  0  0  0  0  0  0  0  0  0  0
    2.2079    5.1566   -2.3393 H   0  0  0  0  0  0  0  0  0  0  0  0
    4.1295    4.6909    1.2184 N   0  0  0  0  0  0  0  0  0  0  0  0
    4.5234    4.9574    2.5821 C   0  0  0  0  0  0  0  0  0  0  0  0
    4.7960    4.9041    0.4822 H   0  0  0  0  0  0  0  0  0  0  0  0
    4.2343    5.9834    2.8539 H   0  0  0  0  0  0  0  0  0  0  0  0
    4.0225    4.2452    3.2542 H   0  0  0  0  0  0  0  0  0  0  0  0
    5.6137    4.8465    2.6771 H   0  0  0  0  0  0  0  0  0  0  0  0
 22 24  2  0  0  0  0
 24 26  1  0  0  0  0
 25 26  2  0  0  0  0
 23 25  1  0  0  0  0
 21 22  1  0  0  0  0
 22 23  1  0  0  0  0
  1  3  1  0  0  0  0
  1  7  1  0  0  0  0
  1  2  2  0  0  0  0
 35 36  1  0  0  0  0
 36 44  1  0  0  0  0
 36 37  2  0  0  0  0
  8  9  1  0  0  0  0
  9 17  1  0  0  0  0
  9 10  2  0  0  0  0
 18 19  1  0  0  0  0
 19 34  1  0  0  0  0
 19 20  2  0  0  0  0
 35 38  1  0  0  0  0
  8 11  1  0  0  0  0
 44 45  1  0  0  0  0
 18 21  1  0  0  0  0
 34 35  1  0  0  0  0
  7  8  1  0  0  0  0
 17 18  1  0  0  0  0
 24 32  1  0  0  0  0
 25 33  1  0  0  0  0
  3  4  1  0  0  0  0
  3  5  1  0  0  0  0
  3  6  1  0  0  0  0
 38 41  1  0  0  0  0
 38 42  1  0  0  0  0
 38 43  1  0  0  0  0
 11 14  1  0  0  0  0
 11 15  1  0  0  0  0
 11 16  1  0  0  0  0
 45 47  1  0  0  0  0
 45 48  1  0  0  0  0
 45 49  1  0  0  0  0
 21 29  1  0  0  0  0
 21 30  1  0  0  0  0
 35 40  1  0  0  0  0
  8 13  1  0  0  0  0
 18 28  1  0  0  0  0
 23 31  1  0  0  0  0
 44 46  1  0  0  0  0
  7 12  1  0  0  0  0
 34 39  1  0  0  0  0
 17 27  1  0  0  0  0
M  END
$$$$

  -OEChem-05262214473D

 49 49  0     1  0  0  0  0  0999 V2000
   -1.5619    0.5658    3.7981 C   0  0  0  0  0  0  0  0  0  0  0  0
   -0.6145   -0.0489    3.3224 O   0  0  0  0  0  0  0  0  0  0  0  0
   -1.9938    0.2834    5.1988 C   0  0  0  0  0  0  0  0  0  0  0  0
   -2.7535   -0.5129    5.2522 H   0  0  0  0  0  0  0  0  0  0  0  0
   -1.1626   -0.0642    5.8331 H   0  0  0  0  0  0  0  0  0  0  0  0
   -2.4318    1.1383    5.7384 H   0  0  0  0  0  0  0  0  0  0  0  0
   -2.3116    1.5383    3.1570 N   0  0  0  0  0  0  0  0  0  0  0  0
   -2.0648    1.9643    1.8046 C   0  0  2  0  0  0  0  0  0  0  0  0
   -0.7298    1.3789    1.3634 C   0  0  0  0  0  0  0  0  0  0  0  0
    0.1423    1.0262    2.1547 O   0  0  0  0  0  0  0  0  0  0  0  0
   -2.0560    3.4811    1.6952 C   0  0  0  0  0  0  0  0  0  0  0  0
   -3.0767    1.9741    3.6688 H   0  0  0  0  0  0  0  0  0  0  0  0
   -2.8689    1.5458    1.1895 H   0  0  0  0  0  0  0  0  0  0  0  0
   -1.2569    3.9183    2.3049 H   0  0  0  0  0  0  0  0  0  0  0  0
   -1.8965    3.8033    0.6609 H   0  0  0  0  0  0  0  0  0  0  0  0
   -3.0062    3.9023    2.0409 H   0  0  0  0  0  0  0  0  0  0  0  0
   -0.6071    1.3358   -0.0200 N   0  0  0  0  0  0  0  0  0  0  0  0
    0.5702    0.8350   -0.6836 C   0  0  2  0  0  0  0  0  0  0  0  0
    1.7425    1.7012   -0.2370 C   0  0  0  0  0  0  0  0  0  0  0  0
    2.7424    1.2427    0.3116 O   0  0  0  0  0  0  0  0  0  0  0  0
    0.4332    0.8696   -2.2101 C   0  0  0  0  0  0  0  0  0  0  0  0
   -0.6609   -0.0371   -2.7186 C   0  0  0  0  0  0  0  0  0  0  0  0
   -0.5290   -1.3961   -2.7728 N   0  0  0  0  0  0  0  0  0  0  0  0
   -1.9229    0.2138   -3.2032 C   0  0  0  0  0  0  0  0  0  0  0  0
   -1.6944   -1.9011   -3.2790 C   0  0  0  0  0  0  0  0  0  0  0  0
   -2.5612   -0.9507   -3.5500 N   0  0  0  0  0  0  0  0  0  0  0  0
   -1.3903    1.6325   -0.5973 H   0  0  0  0  0  0  0  0  0  0  0  0
    0.7216   -0.1885   -0.3211 H   0  0  0  0  0  0  0  0  0  0  0  0
    1.3867    0.5996   -2.6839 H   0  0  0  0  0  0  0  0  0  0  0  0
    0.2205    1.8908   -2.5531 H   0  0  0  0  0  0  0  0  0  0  0  0
    0.2812   -1.9328   -2.4921 H   0  0  0  0  0  0  0  0  0  0  0  0
   -2.4068    1.1729   -3.3210 H   0  0  0  0  0  0  0  0  0  0  0  0
   -1.8457   -2.9613   -3.4237 H   0  0  0  0  0  0  0  0  0  0  0  0
    1.5585    3.0361   -0.5695 N   0  0  0  0  0  0  0  0  0  0  0  0
    2.5296    4.0669   -0.2809 C   0  0  2  0  0  0  0  0  0  0  0  0
    2.9218    3.9463    1.1857 C   0  0  0  0  0  0  0  0  0  0  0  0
    2.2109    3.4012    2.0275 O   0  0  0  0  0  0  0  0  0  0  0  0
    1.9747    5.4502   -0.5833 C   0  0  0  0  0  0  0  0  0  0  0  0
    0.6981    3.3020   -1.0392 H   0  0  0  0  0  0  0  0  0  0  0  0
    3.4027    3.8642   -0.9109 H   0  0  0  0  0  0  0  0  0  0  0  0
    1.0994    5.6712    0.0384 H   0  0  0  0  0  0  0  0  0  0  0  0
    2.7213    6.2279   -0.3912 H   0  0  0  0  0  0  0  0  0  0  0  0
    1.6656    5.5255   -1.6314 H   0  0  0  0  0  0  0  0  0  0  0  0
    4.1392    4.5570    1.4524 N   0  0  0  0  0  0  0  0  0  0  0  0
    4.7224    4.5895    2.7733 C   0  0  0  0  0  0  0  0  0  0  0  0
    4.6696    4.9682    0.6899 H   0  0  0  0  0  0  0  0  0  0  0  0
    4.4169    5.5130    3.2869 H   0  0  0  0  0  0  0  0  0  0  0  0
    4.3759    3.7183    3.3485 H   0  0  0  0  0  0  0  0  0  0  0  0
    5.8190    4.5617    2.6906 H   0  0  0  0  0  0  0  0  0  0  0  0
 22 24  2  0  0  0  0
 24 26  1  0  0  0  0
 25 26  2  0  0  0  0
 23 25  1  0  0  0  0
 21 22  1  0  0  0  0
 22 23  1  0  0  0  0
  1  3  1  0  0  0  0
  1  7  1  0  0  0  0
  1  2  2  0  0  0  0
 35 36  1  0  0  0  0
 36 44  1  0  0  0  0
 36 37  2  0  0  0  0
  8  9  1  0  0  0  0
  9 17  1  0  0  0  0
  9 10  2  0  0  0  0
 18 19  1  0  0  0  0
 19 34  1  0  0  0  0
 19 20  2  0  0  0  0
 35 38  1  0  0  0  0
  8 11  1  0  0  0  0
 44 45  1  0  0  0  0
 18 21  1  0  0  0  0
 34 35  1  0  0  0  0
  7  8  1  0  0  0  0
 17 18  1  0  0  0  0
 24 32  1  0  0  0  0
 25 33  1  0  0  0  0
  3  4  1  0  0  0  0
  3  5  1  0  0  0  0
  3  6  1  0  0  0  0
 38 41  1  0  0  0  0
 38 42  1  0  0  0  0
 38 43  1  0  0  0  0
 11 14  1  0  0  0  0
 11 15  1  0  0  0  0
 11 16  1  0  0  0  0
 45 47  1  0  0  0  0
 45 48  1  0  0  0  0
 45 49  1  0  0  0  0
 21 29  1  0  0  0  0
 21 30  1  0  0  0  0
 35 40  1  0  0  0  0
  8 13  1  0  0  0  0
 18 28  1  0  0  0  0
 23 31  1  0  0  0  0
 44 46  1  0  0  0  0
  7 12  1  0  0  0  0
 34 39  1  0  0  0  0
 17 27  1  0  0  0  0
M  END
$$$$

  -OEChem-05262214473D

 49 49  0     1  0  0  0  0  0999 V2000
   -1.5619    0.5658    3.7981 C   0  0  0  0  0  0  0  0  0  0  0  0
   -0.6145   -0.0489    3.3224 O   0  0  0  0  0  0  0  0  0  0  0  0
   -1.9938    0.2834    5.1988 C   0  0  0  0  0  0  0  0  0  0  0  0
   -2.7535   -0.5129    5.2522 H   0  0  0  0  0  0  0  0  0  0  0  0
   -1.1626   -0.0642    5.8331 H   0  0  0  0  0  0  0  0  0  0  0  0
   -2.4318    1.1383    5.7384 H   0  0  0  0  0  0  0  0  0  0  0  0
   -2.3116    1.5383    3.1570 N   0  0  0  0  0  0  0  0  0  0  0  0
   -2.0648    1.9643    1.8046 C   0  0  2  0  0  0  0  0  0  0  0  0
   -0.7298    1.3789    1.3634 C   0  0  0  0  0  0  0  0  0  0  0  0
    0.1423    1.0262    2.1547 O   0  0  0  0  0  0  0  0  0  0  0  0
   -2.0560    3.4811    1.6952 C   0  0  0  0  0  0  0  0  0  0  0  0
   -3.0767    1.9741    3.6688 H   0  0  0  0  0  0  0  0  0  0  0  0
   -2.8689    1.5458    1.1895 H   0  0  0  0  0  0  0  0  0  0  0  0
   -1.2569    3.9183    2.3049 H   0  0  0  0  0  0  0  0  0  0  0  0
   -1.8965    3.8033    0.6609 H   0  0  0  0  0  0  0  0  0  0  0  0
   -3.0062    3.9023    2.0409 H   0  0  0  0  0  0  0  0  0  0  0  0
   -0.6071    1.3358   -0.0200 N   0  0  0  0  0  0  0  0  0  0  0  0
    0.5702    0.8350   -0.6836 C   0  0  2  0  0  0  0  0  0  0  0  0
    1.7425    1.7012   -0.2370 C   0  0  0  0  0  0  0  0  0  0  0  0
    2.8413    1.2379    0.0613 O   0  0  0  0  0  0  0  0  0  0  0  0
    0.4332    0.8696   -2.2101 C   0  0  0  0  0  0  0  0  0  0  0  0
   -0.6609   -0.0371   -2.7186 C   0  0  0  0  0  0  0  0  0  0  0  0
   -0.5290   -1.3961   -2.7728 N   0  0  0  0  0  0  0  0  0  0  0  0
   -1.9229    0.2138   -3.2032 C   0  0  0  0  0  0  0  0  0  0  0  0
   -1.6944   -1.9011   -3.2790 C   0  0  0  0  0  0  0  0  0  0  0  0
   -2.5612   -0.9507   -3.5500 N   0  0  0  0  0  0  0  0  0  0  0  0
   -1.3903    1.6325   -0.5973 H   0  0  0  0  0  0  0  0  0  0  0  0
    0.7216   -0.1885   -0.3211 H   0  0  0  0  0  0  0  0  0  0  0  0
    1.3867    0.5996   -2.6839 H   0  0  0  0  0  0  0  0  0  0  0  0
    0.2205    1.8908   -2.5531 H   0  0  0  0  0  0  0  0  0  0  0  0
    0.2812   -1.9328   -2.4921 H   0  0  0  0  0  0  0  0  0  0  0  0
   -2.4068    1.1729   -3.3210 H   0  0  0  0  0  0  0  0  0  0  0  0
   -1.8457   -2.9613   -3.4237 H   0  0  0  0  0  0  0  0  0  0  0  0
    1.4283    3.0529   -0.2602 N   0  0  0  0  0  0  0  0  0  0  0  0
    2.3677    4.0922    0.0950 C   0  0  2  0  0  0  0  0  0  0  0  0
    2.9887    3.7264    1.4366 C   0  0  0  0  0  0  0  0  0  0  0  0
    2.4512    2.9666    2.2397 O   0  0  0  0  0  0  0  0  0  0  0  0
    1.6894    5.4517    0.1626 C   0  0  0  0  0  0  0  0  0  0  0  0
    0.4909    3.3255   -0.5410 H   0  0  0  0  0  0  0  0  0  0  0  0
    3.1435    4.0952   -0.6785 H   0  0  0  0  0  0  0  0  0  0  0  0
    0.9090    5.4680    0.9321 H   0  0  0  0  0  0  0  0  0  0  0  0
    2.4079    6.2420    0.4038 H   0  0  0  0  0  0  0  0  0  0  0  0
    1.2178    5.6999   -0.7944 H   0  0  0  0  0  0  0  0  0  0  0  0
    4.1932    4.3819    1.6503 N   0  0  0  0  0  0  0  0  0  0  0  0
    4.9707    4.2111    2.8554 C   0  0  0  0  0  0  0  0  0  0  0  0
    4.5732    4.9791    0.9218 H   0  0  0  0  0  0  0  0  0  0  0  0
    4.6926    4.9862    3.5847 H   0  0  0  0  0  0  0  0  0  0  0  0
    4.7711    3.2173    3.2827 H   0  0  0  0  0  0  0  0  0  0  0  0
    6.0409    4.2994    2.6168 H   0  0  0  0  0  0  0  0  0  0  0  0
 22 24  2  0  0  0  0
 24 26  1  0  0  0  0
 25 26  2  0  0  0  0
 23 25  1  0  0  0  0
 21 22  1  0  0  0  0
 22 23  1  0  0  0  0
  1  3  1  0  0  0  0
  1  7  1  0  0  0  0
  1  2  2  0  0  0  0
 35 36  1  0  0  0  0
 36 44  1  0  0  0  0
 36 37  2  0  0  0  0
  8  9  1  0  0  0  0
  9 17  1  0  0  0  0
  9 10  2  0  0  0  0
 18 19  1  0  0  0  0
 19 34  1  0  0  0  0
 19 20  2  0  0  0  0
 35 38  1  0  0  0  0
  8 11  1  0  0  0  0
 44 45  1  0  0  0  0
 18 21  1  0  0  0  0
 34 35  1  0  0  0  0
  7  8  1  0  0  0  0
 17 18  1  0  0  0  0
 24 32  1  0  0  0  0
 25 33  1  0  0  0  0
  3  4  1  0  0  0  0
  3  5  1  0  0  0  0
  3  6  1  0  0  0  0
 38 41  1  0  0  0  0
 38 42  1  0  0  0  0
 38 43  1  0  0  0  0
 11 14  1  0  0  0  0
 11 15  1  0  0  0  0
 11 16  1  0  0  0  0
 45 47  1  0  0  0  0
 45 48  1  0  0  0  0
 45 49  1  0  0  0  0
 21 29  1  0  0  0  0
 21 30  1  0  0  0  0
 35 40  1  0  0  0  0
  8 13  1  0  0  0  0
 18 28  1  0  0  0  0
 23 31  1  0  0  0  0
 44 46  1  0  0  0  0
  7 12  1  0  0  0  0
 34 39  1  0  0  0  0
 17 27  1  0  0  0  0
M  END
$$$$

  -OEChem-05262214473D

 49 49  0     1  0  0  0  0  0999 V2000
   -1.5619    0.5658    3.7981 C   0  0  0  0  0  0  0  0  0  0  0  0
   -0.6145   -0.0489    3.3224 O   0  0  0  0  0  0  0  0  0  0  0  0
   -1.9938    0.2834    5.1988 C   0  0  0  0  0  0  0  0  0  0  0  0
   -2.7535   -0.5129    5.2522 H   0  0  0  0  0  0  0  0  0  0  0  0
   -1.1626   -0.0642    5.8331 H   0  0  0  0  0  0  0  0  0  0  0  0
   -2.4318    1.1383    5.7384 H   0  0  0  0  0  0  0  0  0  0  0  0
   -2.3116    1.5383    3.1570 N   0  0  0  0  0  0  0  0  0  0  0  0
   -2.0648    1.9643    1.8046 C   0  0  2  0  0  0  0  0  0  0  0  0
   -0.7298    1.3789    1.3634 C   0  0  0  0  0  0  0  0  0  0  0  0
    0.1423    1.0262    2.1547 O   0  0  0  0  0  0  0  0  0  0  0  0
   -2.0560    3.4811    1.6952 C   0  0  0  0  0  0  0  0  0  0  0  0
   -3.0767    1.9741    3.6688 H   0  0  0  0  0  0  0  0  0  0  0  0
   -2.8689    1.5458    1.1895 H   0  0  0  0  0  0  0  0  0  0  0  0
   -1.2569    3.9183    2.3049 H   0  0  0  0  0  0  0  0  0  0  0  0
   -1.8965    3.8033    0.6609 H   0  0  0  0  0  0  0  0  0  0  0  0
   -3.0062    3.9023    2.0409 H   0  0  0  0  0  0  0  0  0  0  0  0
   -0.6071    1.3358   -0.0200 N   0  0  0  0  0  0  0  0  0  0  0  0
    0.5702    0.8350   -0.6836 C   0  0  2  0  0  0  0  0  0  0  0  0
    1.7425    1.7012   -0.2370 C   0  0  0  0  0  0  0  0  0  0  0  0
    2.9004    1.2906   -0.1960 O   0  0  0  0  0  0  0  0  0  0  0  0
    0.4332    0.8696   -2.2101 C   0  0  0  0  0  0  0  0  0  0  0  0
   -0.6609   -0.0371   -2.7186 C   0  0  0  0  0  0  0  0  0  0  0  0
   -0.5290   -1.3961   -2.7728 N   0  0  0  0  0  0  0  0  0  0  0  0
   -1.9229    0.2138   -3.2032 C   0  0  0  0  0  0  0  0  0  0  0  0
   -1.6944   -1.9011   -3.2790 C   0  0  0  0  0  0  0  0  0  0  0  0
   -2.5612   -0.9507   -3.5500 N   0  0  0  0  0  0  0  0  0  0  0  0
   -1.3903    1.6325   -0.5973 H   0  0  0  0  0  0  0  0  0  0  0  0
    0.7216   -0.1885   -0.3211 H   0  0  0  0  0  0  0  0  0  0  0  0
    1.3867    0.5996   -2.6839 H   0  0  0  0  0  0  0  0  0  0  0  0
    0.2205    1.8908   -2.5531 H   0  0  0  0  0  0  0  0  0  0  0  0
    0.2812   -1.9328   -2.4921 H   0  0  0  0  0  0  0  0  0  0  0  0
   -2.4068    1.1729   -3.3210 H   0  0  0  0  0  0  0  0  0  0  0  0
   -1.8457   -2.9613   -3.4237 H   0  0  0  0  0  0  0  0  0  0  0  0
    1.3467    2.9977    0.0610 N   0  0  0  0  0  0  0  0  0  0  0  0
    2.2647    4.0296    0.4870 C   0  0  2  0  0  0  0  0  0  0  0  0
    3.1069    3.4691    1.6254 C   0  0  0  0  0  0  0  0  0  0  0  0
    2.7474    2.5228    2.3228 O   0  0  0  0  0  0  0  0  0  0  0  0
    1.5234    5.2831    0.9253 C   0  0  0  0  0  0  0  0  0  0  0  0
    0.3623    3.2332   -0.0246 H   0  0  0  0  0  0  0  0  0  0  0  0
    2.9097    4.2524   -0.3699 H   0  0  0  0  0  0  0  0  0  0  0  0
    0.8720    5.0794    1.7829 H   0  0  0  0  0  0  0  0  0  0  0  0
    2.2211    6.0737    1.2206 H   0  0  0  0  0  0  0  0  0  0  0  0
    0.8952    5.6678    0.1147 H   0  0  0  0  0  0  0  0  0  0  0  0
    4.2877    4.1774    1.7987 N   0  0  0  0  0  0  0  0  0  0  0  0
    5.2513    3.8481    2.8230 C   0  0  0  0  0  0  0  0  0  0  0  0
    4.5133    4.9362    1.1622 H   0  0  0  0  0  0  0  0  0  0  0  0
    5.0427    4.4391    3.7270 H   0  0  0  0  0  0  0  0  0  0  0  0
    5.1811    2.7765    3.0613 H   0  0  0  0  0  0  0  0  0  0  0  0
    6.2642    4.0776    2.4607 H   0  0  0  0  0  0  0  0  0  0  0  0
 22 24  2  0  0  0  0
 24 26  1  0  0  0  0
 25 26  2  0  0  0  0
 23 25  1  0  0  0  0
 21 22  1  0  0  0  0
 22 23  1  0  0  0  0
  1  3  1  0  0  0  0
  1  7  1  0  0  0  0
  1  2  2  0  0  0  0
 35 36  1  0  0  0  0
 36 44  1  0  0  0  0
 36 37  2  0  0  0  0
  8  9  1  0  0  0  0
  9 17  1  0  0  0  0
  9 10  2  0  0  0  0
 18 19  1  0  0  0  0
 19 34  1  0  0  0  0
 19 20  2  0  0  0  0
 35 38  1  0  0  0  0
  8 11  1  0  0  0  0
 44 45  1  0  0  0  0
 18 21  1  0  0  0  0
 34 35  1  0  0  0  0
  7  8  1  0  0  0  0
 17 18  1  0  0  0  0
 24 32  1  0  0  0  0
 25 33  1  0  0  0  0
  3  4  1  0  0  0  0
  3  5  1  0  0  0  0
  3  6  1  0  0  0  0
 38 41  1  0  0  0  0
 38 42  1  0  0  0  0
 38 43  1  0  0  0  0
 11 14  1  0  0  0  0
 11 15  1  0  0  0  0
 11 16  1  0  0  0  0
 45 47  1  0  0  0  0
 45 48  1  0  0  0  0
 45 49  1  0  0  0  0
 21 29  1  0  0  0  0
 21 30  1  0  0  0  0
 35 40  1  0  0  0  0
  8 13  1  0  0  0  0
 18 28  1  0  0  0  0
 23 31  1  0  0  0  0
 44 46  1  0  0  0  0
  7 12  1  0  0  0  0
 34 39  1  0  0  0  0
 17 27  1  0  0  0  0
M  END
$$$$

  -OEChem-05262214473D

 49 49  0     1  0  0  0  0  0999 V2000
   -1.5619    0.5658    3.7981 C   0  0  0  0  0  0  0  0  0  0  0  0
   -0.6145   -0.0489    3.3224 O   0  0  0  0  0  0  0  0  0  0  0  0
   -1.9938    0.2834    5.1988 C   0  0  0  0  0  0  0  0  0  0  0  0
   -2.7535   -0.5129    5.2522 H   0  0  0  0  0  0  0  0  0  0  0  0
   -1.1626   -0.0642    5.8331 H   0  0  0  0  0  0  0  0  0  0  0  0
   -2.4318    1.1383    5.7384 H   0  0  0  0  0  0  0  0  0  0  0  0
   -2.3116    1.5383    3.1570 N   0  0  0  0  0  0  0  0  0  0  0  0
   -2.0648    1.9643    1.8046 C   0  0  2  0  0  0  0  0  0  0  0  0
   -0.7298    1.3789    1.3634 C   0  0  0  0  0  0  0  0  0  0  0  0
    0.1423    1.0262    2.1547 O   0  0  0  0  0  0  0  0  0  0  0  0
   -2.0560    3.4811    1.6952 C   0  0  0  0  0  0  0  0  0  0  0  0
   -3.0767    1.9741    3.6688 H   0  0  0  0  0  0  0  0  0  0  0  0
   -2.8689    1.5458    1.1895 H   0  0  0  0  0  0  0  0  0  0  0  0
   -1.2569    3.9183    2.3049 H   0  0  0  0  0  0  0  0  0  0  0  0
   -1.8965    3.8033    0.6609 H   0  0  0  0  0  0  0  0  0  0  0  0
   -3.0062    3.9023    2.0409 H   0  0  0  0  0  0  0  0  0  0  0  0
   -0.6071    1.3358   -0.0200 N   0  0  0  0  0  0  0  0  0  0  0  0
    0.5702    0.8350   -0.6836 C   0  0  2  0  0  0  0  0  0  0  0  0
    1.7425    1.7012   -0.2370 C   0  0  0  0  0  0  0  0  0  0  0  0
    2.9156    1.3972   -0.4427 O   0  0  0  0  0  0  0  0  0  0  0  0
    0.4332    0.8696   -2.2101 C   0  0  0  0  0  0  0  0  0  0  0  0
   -0.6609   -0.0371   -2.7186 C   0  0  0  0  0  0  0  0  0  0  0  0
   -0.5290   -1.3961   -2.7728 N   0  0  0  0  0  0  0  0  0  0  0  0
   -1.9229    0.2138   -3.2032 C   0  0  0  0  0  0  0  0  0  0  0  0
   -1.6944   -1.9011   -3.2790 C   0  0  0  0  0  0  0  0  0  0  0  0
   -2.5612   -0.9507   -3.5500 N   0  0  0  0  0  0  0  0  0  0  0  0
   -1.3903    1.6325   -0.5973 H   0  0  0  0  0  0  0  0  0  0  0  0
    0.7216   -0.1885   -0.3211 H   0  0  0  0  0  0  0  0  0  0  0  0
    1.3867    0.5996   -2.6839 H   0  0  0  0  0  0  0  0  0  0  0  0
    0.2205    1.8908   -2.5531 H   0  0  0  0  0  0  0  0  0  0  0  0
    0.2812   -1.9328   -2.4921 H   0  0  0  0  0  0  0  0  0  0  0  0
   -2.4068    1.1729   -3.3210 H   0  0  0  0  0  0  0  0  0  0  0  0
   -1.8457   -2.9613   -3.4237 H   0  0  0  0  0  0  0  0  0  0  0  0
    1.3193    2.8743    0.3723 N   0  0  0  0  0  0  0  0  0  0  0  0
    2.2275    3.8832    0.8683 C   0  0  2  0  0  0  0  0  0  0  0  0
    3.2683    3.1920    1.7391 C   0  0  0  0  0  0  0  0  0  0  0  0
    3.0794    2.1001    2.2712 O   0  0  0  0  0  0  0  0  0  0  0  0
    1.4880    4.9558    1.6528 C   0  0  0  0  0  0  0  0  0  0  0  0
    0.3211    3.0316    0.4748 H   0  0  0  0  0  0  0  0  0  0  0  0
    2.7174    4.3251   -0.0062 H   0  0  0  0  0  0  0  0  0  0  0  0
    0.9907    4.5319    2.5329 H   0  0  0  0  0  0  0  0  0  0  0  0
    2.1735    5.7344    2.0035 H   0  0  0  0  0  0  0  0  0  0  0  0
    0.7197    5.4314    1.0338 H   0  0  0  0  0  0  0  0  0  0  0  0
    4.4164    3.9576    1.8874 N   0  0  0  0  0  0  0  0  0  0  0  0
    5.5450    3.5252    2.6781 C   0  0  0  0  0  0  0  0  0  0  0  0
    4.4940    4.8424    1.3946 H   0  0  0  0  0  0  0  0  0  0  0  0
    5.4432    3.9089    3.7040 H   0  0  0  0  0  0  0  0  0  0  0  0
    5.5780    2.4259    2.6994 H   0  0  0  0  0  0  0  0  0  0  0  0
    6.4739    3.9113    2.2329 H   0  0  0  0  0  0  0  0  0  0  0  0
 22 24  2  0  0  0  0
 24 26  1  0  0  0  0
 25 26  2  0  0  0  0
 23 25  1  0  0  0  0
 21 22  1  0  0  0  0
 22 23  1  0  0  0  0
  1  3  1  0  0  0  0
  1  7  1  0  0  0  0
  1  2  2  0  0  0  0
 35 36  1  0  0  0  0
 36 44  1  0  0  0  0
 36 37  2  0  0  0  0
  8  9  1  0  0  0  0
  9 17  1  0  0  0  0
  9 10  2  0  0  0  0
 18 19  1  0  0  0  0
 19 34  1  0  0  0  0
 19 20  2  0  0  0  0
 35 38  1  0  0  0  0
  8 11  1  0  0  0  0
 44 45  1  0  0  0  0
 18 21  1  0  0  0  0
 34 35  1  0  0  0  0
  7  8  1  0  0  0  0
 17 18  1  0  0  0  0
 24 32  1  0  0  0  0
 25 33  1  0  0  0  0
  3  4  1  0  0  0  0
  3  5  1  0  0  0  0
  3  6  1  0  0  0  0
 38 41  1  0  0  0  0
 38 42  1  0  0  0  0
 38 43  1  0  0  0  0
 11 14  1  0  0  0  0
 11 15  1  0  0  0  0
 11 16  1  0  0  0  0
 45 47  1  0  0  0  0
 45 48  1  0  0  0  0
 45 49  1  0  0  0  0
 21 29  1  0  0  0  0
 21 30  1  0  0  0  0
 35 40  1  0  0  0  0
  8 13  1  0  0  0  0
 18 28  1  0  0  0  0
 23 31  1  0  0  0  0
 44 46  1  0  0  0  0
  7 12  1  0  0  0  0
 34 39  1  0  0  0  0
 17 27  1  0  0  0  0
M  END
$$$$

  -OEChem-05262214473D

 49 49  0     1  0  0  0  0  0999 V2000
   -1.5619    0.5658    3.7981 C   0  0  0  0  0  0  0  0  0  0  0  0
   -0.6145   -0.0489    3.3224 O   0  0  0  0  0  0  0  0  0  0  0  0
   -1.9938    0.2834    5.1988 C   0  0  0  0  0  0  0  0  0  0  0  0
   -2.7535   -0.5129    5.2522 H   0  0  0  0  0  0  0  0  0  0  0  0
   -1.1626   -0.0642    5.8331 H   0  0  0  0  0  0  0  0  0  0  0  0
   -2.4318    1.1383    5.7384 H   0  0  0  0  0  0  0  0  0  0  0  0
   -2.3116    1.5383    3.1570 N   0  0  0  0  0  0  0  0  0  0  0  0
   -2.0648    1.9643    1.8046 C   0  0  2  0  0  0  0  0  0  0  0  0
   -0.7298    1.3789    1.3634 C   0  0  0  0  0  0  0  0  0  0  0  0
    0.1423    1.0262    2.1547 O   0  0  0  0  0  0  0  0  0  0  0  0
   -2.0560    3.4811    1.6952 C   0  0  0  0  0  0  0  0  0  0  0  0
   -3.0767    1.9741    3.6688 H   0  0  0  0  0  0  0  0  0  0  0  0
   -2.8689    1.5458    1.1895 H   0  0  0  0  0  0  0  0  0  0  0  0
   -1.2569    3.9183    2.3049 H   0  0  0  0  0  0  0  0  0  0  0  0
   -1.8965    3.8033    0.6609 H   0  0  0  0  0  0  0  0  0  0  0  0
   -3.0062    3.9023    2.0409 H   0  0  0  0  0  0  0  0  0  0  0  0
   -0.6071    1.3358   -0.0200 N   0  0  0  0  0  0  0  0  0  0  0  0
    0.5702    0.8350   -0.6836 C   0  0  2  0  0  0  0  0  0  0  0  0
    1.7425    1.7012   -0.2370 C   0  0  0  0  0  0  0  0  0  0  0  0
    2.8860    1.5504   -0.6620 O   0  0  0  0  0  0  0  0  0  0  0  0
    0.4332    0.8696   -2.2101 C   0  0  0  0  0  0  0  0  0  0  0  0
   -0.6609   -0.0371   -2.7186 C   0  0  0  0  0  0  0  0  0  0  0  0
   -0.5290   -1.3961   -2.7728 N   0  0  0  0  0  0  0  0  0  0  0  0
   -1.9229    0.2138   -3.2032 C   0  0  0  0  0  0  0  0  0  0  0  0
   -1.6944   -1.9011   -3.2790 C   0  0  0  0  0  0  0  0  0  0  0  0
   -2.5612   -0.9507   -3.5500 N   0  0  0  0  0  0  0  0  0  0  0  0
   -1.3903    1.6325   -0.5973 H   0  0  0  0  0  0  0  0  0  0  0  0
    0.7216   -0.1885   -0.3211 H   0  0  0  0  0  0  0  0  0  0  0  0
    1.3867    0.5996   -2.6839 H   0  0  0  0  0  0  0  0  0  0  0  0
    0.2205    1.8908   -2.5531 H   0  0  0  0  0  0  0  0  0  0  0  0
    0.2812   -1.9328   -2.4921 H   0  0  0  0  0  0  0  0  0  0  0  0
   -2.4068    1.1729   -3.3210 H   0  0  0  0  0  0  0  0  0  0  0  0
   -1.8457   -2.9613   -3.4237 H   0  0  0  0  0  0  0  0  0  0  0  0
    1.3480    2.6910    0.6524 N   0  0  0  0  0  0  0  0  0  0  0  0
    2.2588    3.6632    1.2129 C   0  0  2  0  0  0  0  0  0  0  0  0
    3.4620    2.9139    1.7701 C   0  0  0  0  0  0  0  0  0  0  0  0
    3.4246    1.7272    2.0884 O   0  0  0  0  0  0  0  0  0  0  0  0
    1.5856    4.4922    2.2956 C   0  0  0  0  0  0  0  0  0  0  0  0
    0.3699    2.7343    0.9231 H   0  0  0  0  0  0  0  0  0  0  0  0
    2.5797    4.3084    0.3878 H   0  0  0  0  0  0  0  0  0  0  0  0
    1.2573    3.8628    3.1308 H   0  0  0  0  0  0  0  0  0  0  0  0
    2.2683    5.2472    2.6993 H   0  0  0  0  0  0  0  0  0  0  0  0
    0.7032    5.0069    1.9004 H   0  0  0  0  0  0  0  0  0  0  0  0
    4.5703    3.7373    1.9105 N   0  0  0  0  0  0  0  0  0  0  0  0
    5.8320    3.2644    2.4307 C   0  0  0  0  0  0  0  0  0  0  0  0
    4.5168    4.7040    1.6033 H   0  0  0  0  0  0  0  0  0  0  0  0
    5.8669    3.4316    3.5174 H   0  0  0  0  0  0  0  0  0  0  0  0
    5.9348    2.1894    2.2218 H   0  0  0  0  0  0  0  0  0  0  0  0
    6.6554    3.8120    1.9490 H   0  0  0  0  0  0  0  0  0  0  0  0
 22 24  2  0  0  0  0
 24 26  1  0  0  0  0
 25 26  2  0  0  0  0
 23 25  1  0  0  0  0
 21 22  1  0  0  0  0
 22 23  1  0  0  0  0
  1  3  1  0  0  0  0
  1  7  1  0  0  0  0
  1  2  2  0  0  0  0
 35 36  1  0  0  0  0
 36 44  1  0  0  0  0
 36 37  2  0  0  0  0
  8  9  1  0  0  0  0
  9 17  1  0  0  0  0
  9 10  2  0  0  0  0
 18 19  1  0  0  0  0
 19 34  1  0  0  0  0
 19 20  2  0  0  0  0
 35 38  1  0  0  0  0
  8 11  1  0  0  0  0
 44 45  1  0  0  0  0
 18 21  1  0  0  0  0
 34 35  1  0  0  0  0
  7  8  1  0  0  0  0
 17 18  1  0  0  0  0
 24 32  1  0  0  0  0
 25 33  1  0  0  0  0
  3  4  1  0  0  0  0
  3  5  1  0  0  0  0
  3  6  1  0  0  0  0
 38 41  1  0  0  0  0
 38 42  1  0  0  0  0
 38 43  1  0  0  0  0
 11 14  1  0  0  0  0
 11 15  1  0  0  0  0
 11 16  1  0  0  0  0
 45 47  1  0  0  0  0
 45 48  1  0  0  0  0
 45 49  1  0  0  0  0
 21 29  1  0  0  0  0
 21 30  1  0  0  0  0
 35 40  1  0  0  0  0
  8 13  1  0  0  0  0
 18 28  1  0  0  0  0
 23 31  1  0  0  0  0
 44 46  1  0  0  0  0
  7 12  1  0  0  0  0
 34 39  1  0  0  0  0
 17 27  1  0  0  0  0
M  END
$$$$

  -OEChem-05262214473D

 49 49  0     1  0  0  0  0  0999 V2000
   -1.5619    0.5658    3.7981 C   0  0  0  0  0  0  0  0  0  0  0  0
   -0.6145   -0.0489    3.3224 O   0  0  0  0  0  0  0  0  0  0  0  0
   -1.9938    0.2834    5.1988 C   0  0  0  0  0  0  0  0  0  0  0  0
   -2.7535   -0.5129    5.2522 H   0  0  0  0  0  0  0  0  0  0  0  0
   -1.1626   -0.0642    5.8331 H   0  0  0  0  0  0  0  0  0  0  0  0
   -2.4318    1.1383    5.7384 H   0  0  0  0  0  0  0  0  0  0  0  0
   -2.3116    1.5383    3.1570 N   0  0  0  0  0  0  0  0  0  0  0  0
   -2.0648    1.9643    1.8046 C   0  0  2  0  0  0  0  0  0  0  0  0
   -0.7298    1.3789    1.3634 C   0  0  0  0  0  0  0  0  0  0  0  0
    0.1423    1.0262    2.1547 O   0  0  0  0  0  0  0  0  0  0  0  0
   -2.0560    3.4811    1.6952 C   0  0  0  0  0  0  0  0  0  0  0  0
   -3.0767    1.9741    3.6688 H   0  0  0  0  0  0  0  0  0  0  0  0
   -2.8689    1.5458    1.1895 H   0  0  0  0  0  0  0  0  0  0  0  0
   -1.2569    3.9183    2.3049 H   0  0  0  0  0  0  0  0  0  0  0  0
   -1.8965    3.8033    0.6609 H   0  0  0  0  0  0  0  0  0  0  0  0
   -3.0062    3.9023    2.0409 H   0  0  0  0  0  0  0  0  0  0  0  0
   -0.6071    1.3358   -0.0200 N   0  0  0  0  0  0  0  0  0  0  0  0
    0.5702    0.8350   -0.6836 C   0  0  2  0  0  0  0  0  0  0  0  0
    1.7425    1.7012   -0.2370 C   0  0  0  0  0  0  0  0  0  0  0  0
    2.8135    1.7398   -0.8390 O   0  0  0  0  0  0  0  0  0  0  0  0
    0.4332    0.8696   -2.2101 C   0  0  0  0  0  0  0  0  0  0  0  0
   -0.6609   -0.0371   -2.7186 C   0  0  0  0  0  0  0  0  0  0  0  0
   -0.5290   -1.3961   -2.7728 N   0  0  0  0  0  0  0  0  0  0  0  0
   -1.9229    0.2138   -3.2032 C   0  0  0  0  0  0  0  0  0  0  0  0
   -1.6944   -1.9011   -3.2790 C   0  0  0  0  0  0  0  0  0  0  0  0
   -2.5612   -0.9507   -3.5500 N   0  0  0  0  0  0  0  0  0  0  0  0
   -1.3903    1.6325   -0.5973 H   0  0  0  0  0  0  0  0  0  0  0  0
    0.7216   -0.1885   -0.3211 H   0  0  0  0  0  0  0  0  0  0  0  0
    1.3867    0.5996   -2.6839 H   0  0  0  0  0  0  0  0  0  0  0  0
    0.2205    1.8908   -2.5531 H   0  0  0  0  0  0  0  0  0  0  0  0
    0.2812   -1.9328   -2.4921 H   0  0  0  0  0  0  0  0  0  0  0  0
   -2.4068    1.1729   -3.3210 H   0  0  0  0  0  0  0  0  0  0  0  0
   -1.8457   -2.9613   -3.4237 H   0  0  0  0  0  0  0  0  0  0  0  0
    1.4308    2.4604    0.8823 N   0  0  0  0  0  0  0  0  0  0  0  0
    2.3564    3.3844    1.4974 C   0  0  2  0  0  0  0  0  0  0  0  0
    3.6747    2.6538    1.7162 C   0  0  0  0  0  0  0  0  0  0  0  0
    3.7594    1.4295    1.7869 O   0  0  0  0  0  0  0  0  0  0  0  0
    1.8096    3.9239    2.8099 C   0  0  0  0  0  0  0  0  0  0  0  0
    0.5056    2.3617    1.2897 H   0  0  0  0  0  0  0  0  0  0  0  0
    2.5058    4.2034    0.7854 H   0  0  0  0  0  0  0  0  0  0  0  0
    1.6534    3.1177    3.5360 H   0  0  0  0  0  0  0  0  0  0  0  0
    2.4992    4.6453    3.2604 H   0  0  0  0  0  0  0  0  0  0  0  0
    0.8469    4.4230    2.6553 H   0  0  0  0  0  0  0  0  0  0  0  0
    4.7391    3.5316    1.8662 N   0  0  0  0  0  0  0  0  0  0  0  0
    6.0925    3.0835    2.0976 C   0  0  0  0  0  0  0  0  0  0  0  0
    4.5799    4.5306    1.7740 H   0  0  0  0  0  0  0  0  0  0  0  0
    6.2849    3.0399    3.1798 H   0  0  0  0  0  0  0  0  0  0  0  0
    6.2271    2.0830    1.6608 H   0  0  0  0  0  0  0  0  0  0  0  0
    6.7966    3.7863    1.6282 H   0  0  0  0  0  0  0  0  0  0  0  0
 22 24  2  0  0  0  0
 24 26  1  0  0  0  0
 25 26  2  0  0  0  0
 23 25  1  0  0  0  0
 21 22  1  0  0  0  0
 22 23  1  0  0  0  0
  1  3  1  0  0  0  0
  1  7  1  0  0  0  0
  1  2  2  0  0  0  0
 35 36  1  0  0  0  0
 36 44  1  0  0  0  0
 36 37  2  0  0  0  0
  8  9  1  0  0  0  0
  9 17  1  0  0  0  0
  9 10  2  0  0  0  0
 18 19  1  0  0  0  0
 19 34  1  0  0  0  0
 19 20  2  0  0  0  0
 35 38  1  0  0  0  0
  8 11  1  0  0  0  0
 44 45  1  0  0  0  0
 18 21  1  0  0  0  0
 34 35  1  0  0  0  0
  7  8  1  0  0  0  0
 17 18  1  0  0  0  0
 24 32  1  0  0  0  0
 25 33  1  0  0  0  0
  3  4  1  0  0  0  0
  3  5  1  0  0  0  0
  3  6  1  0  0  0  0
 38 41  1  0  0  0  0
 38 42  1  0  0  0  0
 38 43  1  0  0  0  0
 11 14  1  0  0  0  0
 11 15  1  0  0  0  0
 11 16  1  0  0  0  0
 45 47  1  0  0  0  0
 45 48  1  0  0  0  0
 45 49  1  0  0  0  0
 21 29  1  0  0  0  0
 21 30  1  0  0  0  0
 35 40  1  0  0  0  0
  8 13  1  0  0  0  0
 18 28  1  0  0  0  0
 23 31  1  0  0  0  0
 44 46  1  0  0  0  0
  7 12  1  0  0  0  0
 34 39  1  0  0  0  0
 17 27  1  0  0  0  0
M  END
$$$$

  -OEChem-05262214473D

 49 49  0     1  0  0  0  0  0999 V2000
   -1.5619    0.5658    3.7981 C   0  0  0  0  0  0  0  0  0  0  0  0
   -0.6145   -0.0489    3.3224 O   0  0  0  0  0  0  0  0  0  0  0  0
   -1.9938    0.2834    5.1988 C   0  0  0  0  0  0  0  0  0  0  0  0
   -2.7535   -0.5129    5.2522 H   0  0  0  0  0  0  0  0  0  0  0  0
   -1.1626   -0.0642    5.8331 H   0  0  0  0  0  0  0  0  0  0  0  0
   -2.4318    1.1383    5.7384 H   0  0  0  0  0  0  0  0  0  0  0  0
   -2.3116    1.5383    3.1570 N   0  0  0  0  0  0  0  0  0  0  0  0
   -2.0648    1.9643    1.8046 C   0  0  2  0  0  0  0  0  0  0  0  0
   -0.7298    1.3789    1.3634 C   0  0  0  0  0  0  0  0  0  0  0  0
    0.1423    1.0262    2.1547 O   0  0  0  0  0  0  0  0  0  0  0  0
   -2.0560    3.4811    1.6952 C   0  0  0  0  0  0  0  0  0  0  0  0
   -3.0767    1.9741    3.6688 H   0  0  0  0  0  0  0  0  0  0  0  0
   -2.8689    1.5458    1.1895 H   0  0  0  0  0  0  0  0  0  0  0  0
   -1.2569    3.9183    2.3049 H   0  0  0  0  0  0  0  0  0  0  0  0
   -1.8965    3.8033    0.6609 H   0  0  0  0  0  0  0  0  0  0  0  0
   -3.0062    3.9023    2.0409 H   0  0  0  0  0  0  0  0  0  0  0  0
   -0.6071    1.3358   -0.0200 N   0  0  0  0  0  0  0  0  0  0  0  0
    0.5702    0.8350   -0.6836 C   0  0  2  0  0  0  0  0  0  0  0  0
    1.7425    1.7012   -0.2370 C   0  0  0  0  0  0  0  0  0  0  0  0
    2.7031    1.9525   -0.9616 O   0  0  0  0  0  0  0  0  0  0  0  0
    0.4332    0.8696   -2.2101 C   0  0  0  0  0  0  0  0  0  0  0  0
   -0.6609   -0.0371   -2.7186 C   0  0  0  0  0  0  0  0  0  0  0  0
   -0.5290   -1.3961   -2.7728 N   0  0  0  0  0  0  0  0  0  0  0  0
   -1.9229    0.2138   -3.2032 C   0  0  0  0  0  0  0  0  0  0  0  0
   -1.6944   -1.9011   -3.2790 C   0  0  0  0  0  0  0  0  0  0  0  0
   -2.5612   -0.9507   -3.5500 N   0  0  0  0  0  0  0  0  0  0  0  0
   -1.3903    1.6325   -0.5973 H   0  0  0  0  0  0  0  0  0  0  0  0
    0.7216   -0.1885   -0.3211 H   0  0  0  0  0  0  0  0  0  0  0  0
    1.3867    0.5996   -2.6839 H   0  0  0  0  0  0  0  0  0  0  0  0
    0.2205    1.8908   -2.5531 H   0  0  0  0  0  0  0  0  0  0  0  0
    0.2812   -1.9328   -2.4921 H   0  0  0  0  0  0  0  0  0  0  0  0
   -2.4068    1.1729   -3.3210 H   0  0  0  0  0  0  0  0  0  0  0  0
   -1.8457   -2.9613   -3.4237 H   0  0  0  0  0  0  0  0  0  0  0  0
    1.5621    2.1982    1.0463 N   0  0  0  0  0  0  0  0  0  0  0  0
    2.5136    3.0659    1.7024 C   0  0  2  0  0  0  0  0  0  0  0  0
    3.8919    2.4295    1.5810 C   0  0  0  0  0  0  0  0  0  0  0  0
    4.0610    1.2274    1.3871 O   0  0  0  0  0  0  0  0  0  0  0  0
    2.1447    3.2895    3.1607 C   0  0  0  0  0  0  0  0  0  0  0  0
    0.7188    1.9390    1.5498 H   0  0  0  0  0  0  0  0  0  0  0  0
    2.5009    4.0172    1.1594 H   0  0  0  0  0  0  0  0  0  0  0  0
    2.1521    2.3474    3.7209 H   0  0  0  0  0  0  0  0  0  0  0  0
    2.8504    3.9698    3.6487 H   0  0  0  0  0  0  0  0  0  0  0  0
    1.1411    3.7197    3.2472 H   0  0  0  0  0  0  0  0  0  0  0  0
    4.9113    3.3546    1.7578 N   0  0  0  0  0  0  0  0  0  0  0  0
    6.3089    2.9948    1.7016 C   0  0  0  0  0  0  0  0  0  0  0  0
    4.6791    4.3338    1.8951 H   0  0  0  0  0  0  0  0  0  0  0  0
    6.6688    2.7604    2.7143 H   0  0  0  0  0  0  0  0  0  0  0  0
    6.4350    2.1141    1.0548 H   0  0  0  0  0  0  0  0  0  0  0  0
    6.8878    3.8360    1.2925 H   0  0  0  0  0  0  0  0  0  0  0  0
 22 24  2  0  0  0  0
 24 26  1  0  0  0  0
 25 26  2  0  0  0  0
 23 25  1  0  0  0  0
 21 22  1  0  0  0  0
 22 23  1  0  0  0  0
  1  3  1  0  0  0  0
  1  7  1  0  0  0  0
  1  2  2  0  0  0  0
 35 36  1  0  0  0  0
 36 44  1  0  0  0  0
 36 37  2  0  0  0  0
  8  9  1  0  0  0  0
  9 17  1  0  0  0  0
  9 10  2  0  0  0  0
 18 19  1  0  0  0  0
 19 34  1  0  0  0  0
 19 20  2  0  0  0  0
 35 38  1  0  0  0  0
  8 11  1  0  0  0  0
 44 45  1  0  0  0  0
 18 21  1  0  0  0  0
 34 35  1  0  0  0  0
  7  8  1  0  0  0  0
 17 18  1  0  0  0  0
 24 32  1  0  0  0  0
 25 33  1  0  0  0  0
  3  4  1  0  0  0  0
  3  5  1  0  0  0  0
  3  6  1  0  0  0  0
 38 41  1  0  0  0  0
 38 42  1  0  0  0  0
 38 43  1  0  0  0  0
 11 14  1  0  0  0  0
 11 15  1  0  0  0  0
 11 16  1  0  0  0  0
 45 47  1  0  0  0  0
 45 48  1  0  0  0  0
 45 49  1  0  0  0  0
 21 29  1  0  0  0  0
 21 30  1  0  0  0  0
 35 40  1  0  0  0  0
  8 13  1  0  0  0  0
 18 28  1  0  0  0  0
 23 31  1  0  0  0  0
 44 46  1  0  0  0  0
  7 12  1  0  0  0  0
 34 39  1  0  0  0  0
 17 27  1  0  0  0  0
M  END
$$$$

  -OEChem-05262214473D

 49 49  0     1  0  0  0  0  0999 V2000
   -1.5619    0.5658    3.7981 C   0  0  0  0  0  0  0  0  0  0  0  0
   -0.6145   -0.0489    3.3224 O   0  0  0  0  0  0  0  0  0  0  0  0
   -1.9938    0.2834    5.1988 C   0  0  0  0  0  0  0  0  0  0  0  0
   -2.7535   -0.5129    5.2522 H   0  0  0  0  0  0  0  0  0  0  0  0
   -1.1626   -0.0642    5.8331 H   0  0  0  0  0  0  0  0  0  0  0  0
   -2.4318    1.1383    5.7384 H   0  0  0  0  0  0  0  0  0  0  0  0
   -2.3116    1.5383    3.1570 N   0  0  0  0  0  0  0  0  0  0  0  0
   -2.0648    1.9643    1.8046 C   0  0  2  0  0  0  0  0  0  0  0  0
   -0.7298    1.3789    1.3634 C   0  0  0  0  0  0  0  0  0  0  0  0
    0.1423    1.0262    2.1547 O   0  0  0  0  0  0  0  0  0  0  0  0
   -2.0560    3.4811    1.6952 C   0  0  0  0  0  0  0  0  0  0  0  0
   -3.0767    1.9741    3.6688 H   0  0  0  0  0  0  0  0  0  0  0  0
   -2.8689    1.5458    1.1895 H   0  0  0  0  0  0  0  0  0  0  0  0
   -1.2569    3.9183    2.3049 H   0  0  0  0  0  0  0  0  0  0  0  0
   -1.8965    3.8033    0.6609 H   0  0  0  0  0  0  0  0  0  0  0  0
   -3.0062    3.9023    2.0409 H   0  0  0  0  0  0  0  0  0  0  0  0
   -0.6071    1.3358   -0.0200 N   0  0  0  0  0  0  0  0  0  0  0  0
    0.5702    0.8350   -0.6836 C   0  0  2  0  0  0  0  0  0  0  0  0
    1.7425    1.7012   -0.2370 C   0  0  0  0  0  0  0  0  0  0  0  0
    2.5623    2.1739   -1.0215 O   0  0  0  0  0  0  0  0  0  0  0  0
    0.4332    0.8696   -2.2101 C   0  0  0  0  0  0  0  0  0  0  0  0
   -0.6609   -0.0371   -2.7186 C   0  0  0  0  0  0  0  0  0  0  0  0
   -0.5290   -1.3961   -2.7728 N   0  0  0  0  0  0  0  0  0  0  0  0
   -1.9229    0.2138   -3.2032 C   0  0  0  0  0  0  0  0  0  0  0  0
   -1.6944   -1.9011   -3.2790 C   0  0  0  0  0  0  0  0  0  0  0  0
   -2.5612   -0.9507   -3.5500 N   0  0  0  0  0  0  0  0  0  0  0  0
   -1.3903    1.6325   -0.5973 H   0  0  0  0  0  0  0  0  0  0  0  0
    0.7216   -0.1885   -0.3211 H   0  0  0  0  0  0  0  0  0  0  0  0
    1.3867    0.5996   -2.6839 H   0  0  0  0  0  0  0  0  0  0  0  0
    0.2205    1.8908   -2.5531 H   0  0  0  0  0  0  0  0  0  0  0  0
    0.2812   -1.9328   -2.4921 H   0  0  0  0  0  0  0  0  0  0  0  0
   -2.4068    1.1729   -3.3210 H   0  0  0  0  0  0  0  0  0  0  0  0
   -1.8457   -2.9613   -3.4237 H   0  0  0  0  0  0  0  0  0  0  0  0
    1.7328    1.9222    1.1332 N   0  0  0  0  0  0  0  0  0  0  0  0
    2.7198    2.7294    1.8139 C   0  0  2  0  0  0  0  0  0  0  0  0
    4.0989    2.2561    1.3739 C   0  0  0  0  0  0  0  0  0  0  0  0
    4.3089    1.1347    0.9164 O   0  0  0  0  0  0  0  0  0  0  0  0
    2.5680    2.6324    3.3239 C   0  0  0  0  0  0  0  0  0  0  0  0
    0.9950    1.4952    1.6855 H   0  0  0  0  0  0  0  0  0  0  0  0
    2.5652    3.7626    1.4843 H   0  0  0  0  0  0  0  0  0  0  0  0
    2.7194    1.6044    3.6728 H   0  0  0  0  0  0  0  0  0  0  0  0
    3.2980    3.2666    3.8376 H   0  0  0  0  0  0  0  0  0  0  0  0
    1.5655    2.9449    3.6357 H   0  0  0  0  0  0  0  0  0  0  0  0
    5.0751    3.2182    1.5924 N   0  0  0  0  0  0  0  0  0  0  0  0
    6.4665    3.0044    1.2696 C   0  0  0  0  0  0  0  0  0  0  0  0
    4.8077    4.1272    1.9583 H   0  0  0  0  0  0  0  0  0  0  0  0
    6.9923    2.6122    2.1526 H   0  0  0  0  0  0  0  0  0  0  0  0
    6.5444    2.2804    0.4451 H   0  0  0  0  0  0  0  0  0  0  0  0
    6.9227    3.9578    0.9648 H   0  0  0  0  0  0  0  0  0  0  0  0
 22 24  2  0  0  0  0
 24 26  1  0  0  0  0
 25 26  2  0  0  0  0
 23 25  1  0  0  0  0
 21 22  1  0  0  0  0
 22 23  1  0  0  0  0
  1  3  1  0  0  0  0
  1  7  1  0  0  0  0
  1  2  2  0  0  0  0
 35 36  1  0  0  0  0
 36 44  1  0  0  0  0
 36 37  2  0  0  0  0
  8  9  1  0  0  0  0
  9 17  1  0  0  0  0
  9 10  2  0  0  0  0
 18 19  1  0  0  0  0
 19 34  1  0  0  0  0
 19 20  2  0  0  0  0
 35 38  1  0  0  0  0
  8 11  1  0  0  0  0
 44 45  1  0  0  0  0
 18 21  1  0  0  0  0
 34 35  1  0  0  0  0
  7  8  1  0  0  0  0
 17 18  1  0  0  0  0
 24 32  1  0  0  0  0
 25 33  1  0  0  0  0
  3  4  1  0  0  0  0
  3  5  1  0  0  0  0
  3  6  1  0  0  0  0
 38 41  1  0  0  0  0
 38 42  1  0  0  0  0
 38 43  1  0  0  0  0
 11 14  1  0  0  0  0
 11 15  1  0  0  0  0
 11 16  1  0  0  0  0
 45 47  1  0  0  0  0
 45 48  1  0  0  0  0
 45 49  1  0  0  0  0
 21 29  1  0  0  0  0
 21 30  1  0  0  0  0
 35 40  1  0  0  0  0
  8 13  1  0  0  0  0
 18 28  1  0  0  0  0
 23 31  1  0  0  0  0
 44 46  1  0  0  0  0
  7 12  1  0  0  0  0
 34 39  1  0  0  0  0
 17 27  1  0  0  0  0
M  END
$$$$

  -OEChem-05262214473D

 49 49  0     1  0  0  0  0  0999 V2000
   -1.5619    0.5658    3.7981 C   0  0  0  0  0  0  0  0  0  0  0  0
   -0.6145   -0.0489    3.3224 O   0  0  0  0  0  0  0  0  0  0  0  0
   -1.9938    0.2834    5.1988 C   0  0  0  0  0  0  0  0  0  0  0  0
   -2.7535   -0.5129    5.2522 H   0  0  0  0  0  0  0  0  0  0  0  0
   -1.1626   -0.0642    5.8331 H   0  0  0  0  0  0  0  0  0  0  0  0
   -2.4318    1.1383    5.7384 H   0  0  0  0  0  0  0  0  0  0  0  0
   -2.3116    1.5383    3.1570 N   0  0  0  0  0  0  0  0  0  0  0  0
   -2.0648    1.9643    1.8046 C   0  0  2  0  0  0  0  0  0  0  0  0
   -0.7298    1.3789    1.3634 C   0  0  0  0  0  0  0  0  0  0  0  0
    0.1423    1.0262    2.1547 O   0  0  0  0  0  0  0  0  0  0  0  0
   -2.0560    3.4811    1.6952 C   0  0  0  0  0  0  0  0  0  0  0  0
   -3.0767    1.9741    3.6688 H   0  0  0  0  0  0  0  0  0  0  0  0
   -2.8689    1.5458    1.1895 H   0  0  0  0  0  0  0  0  0  0  0  0
   -1.2569    3.9183    2.3049 H   0  0  0  0  0  0  0  0  0  0  0  0
   -1.8965    3.8033    0.6609 H   0  0  0  0  0  0  0  0  0  0  0  0
   -3.0062    3.9023    2.0409 H   0  0  0  0  0  0  0  0  0  0  0  0
   -0.6071    1.3358   -0.0200 N   0  0  0  0  0  0  0  0  0  0  0  0
    0.5702    0.8350   -0.6836 C   0  0  2  0  0  0  0  0  0  0  0  0
    1.7425    1.7012   -0.2370 C   0  0  0  0  0  0  0  0  0  0  0  0
    2.4006    2.3891   -1.0145 O   0  0  0  0  0  0  0  0  0  0  0  0
    0.4332    0.8696   -2.2101 C   0  0  0  0  0  0  0  0  0  0  0  0
   -0.6609   -0.0371   -2.7186 C   0  0  0  0  0  0  0  0  0  0  0  0
   -0.5290   -1.3961   -2.7728 N   0  0  0  0  0  0  0  0  0  0  0  0
   -1.9229    0.2138   -3.2032 C   0  0  0  0  0  0  0  0  0  0  0  0
   -1.6944   -1.9011   -3.2790 C   0  0  0  0  0  0  0  0  0  0  0  0
   -2.5612   -0.9507   -3.5500 N   0  0  0  0  0  0  0  0  0  0  0  0
   -1.3903    1.6325   -0.5973 H   0  0  0  0  0  0  0  0  0  0  0  0
    0.7216   -0.1885   -0.3211 H   0  0  0  0  0  0  0  0  0  0  0  0
    1.3867    0.5996   -2.6839 H   0  0  0  0  0  0  0  0  0  0  0  0
    0.2205    1.8908   -2.5531 H   0  0  0  0  0  0  0  0  0  0  0  0
    0.2812   -1.9328   -2.4921 H   0  0  0  0  0  0  0  0  0  0  0  0
   -2.4068    1.1729   -3.3210 H   0  0  0  0  0  0  0  0  0  0  0  0
   -1.8457   -2.9613   -3.4237 H   0  0  0  0  0  0  0  0  0  0  0  0
    1.9315    1.6513    1.1371 N   0  0  0  0  0  0  0  0  0  0  0  0
    2.9608    2.3977    1.8242 C   0  0  2  0  0  0  0  0  0  0  0  0
    4.2815    2.1456    1.1089 C   0  0  0  0  0  0  0  0  0  0  0  0
    4.4861    1.1575    0.4068 O   0  0  0  0  0  0  0  0  0  0  0  0
    3.0507    1.9973    3.2886 C   0  0  0  0  0  0  0  0  0  0  0  0
    1.3154    1.0604    1.6876 H   0  0  0  0  0  0  0  0  0  0  0  0
    2.6945    3.4568    1.7380 H   0  0  0  0  0  0  0  0  0  0  0  0
    3.3167    0.9392    3.3950 H   0  0  0  0  0  0  0  0  0  0  0  0
    3.8114    2.5838    3.8143 H   0  0  0  0  0  0  0  0  0  0  0  0
    2.0914    2.1513    3.7943 H   0  0  0  0  0  0  0  0  0  0  0  0
    5.2193    3.1317    1.3815 N   0  0  0  0  0  0  0  0  0  0  0  0
    6.5544    3.1116    0.8310 C   0  0  0  0  0  0  0  0  0  0  0  0
    4.9568    3.9248    1.9593 H   0  0  0  0  0  0  0  0  0  0  0  0
    7.2334    2.6054    1.5330 H   0  0  0  0  0  0  0  0  0  0  0  0
    6.5478    2.5708   -0.1269 H   0  0  0  0  0  0  0  0  0  0  0  0
    6.8990    4.1433    0.6673 H   0  0  0  0  0  0  0  0  0  0  0  0
 22 24  2  0  0  0  0
 24 26  1  0  0  0  0
 25 26  2  0  0  0  0
 23 25  1  0  0  0  0
 21 22  1  0  0  0  0
 22 23  1  0  0  0  0
  1  3  1  0  0  0  0
  1  7  1  0  0  0  0
  1  2  2  0  0  0  0
 35 36  1  0  0  0  0
 36 44  1  0  0  0  0
 36 37  2  0  0  0  0
  8  9  1  0  0  0  0
  9 17  1  0  0  0  0
  9 10  2  0  0  0  0
 18 19  1  0  0  0  0
 19 34  1  0  0  0  0
 19 20  2  0  0  0  0
 35 38  1  0  0  0  0
  8 11  1  0  0  0  0
 44 45  1  0  0  0  0
 18 21  1  0  0  0  0
 34 35  1  0  0  0  0
  7  8  1  0  0  0  0
 17 18  1  0  0  0  0
 24 32  1  0  0  0  0
 25 33  1  0  0  0  0
  3  4  1  0  0  0  0
  3  5  1  0  0  0  0
  3  6  1  0  0  0  0
 38 41  1  0  0  0  0
 38 42  1  0  0  0  0
 38 43  1  0  0  0  0
 11 14  1  0  0  0  0
 11 15  1  0  0  0  0
 11 16  1  0  0  0  0
 45 47  1  0  0  0  0
 45 48  1  0  0  0  0
 45 49  1  0  0  0  0
 21 29  1  0  0  0  0
 21 30  1  0  0  0  0
 35 40  1  0  0  0  0
  8 13  1  0  0  0  0
 18 28  1  0  0  0  0
 23 31  1  0  0  0  0
 44 46  1  0  0  0  0
  7 12  1  0  0  0  0
 34 39  1  0  0  0  0
 17 27  1  0  0  0  0
M  END
$$$$

  -OEChem-05262214473D

 49 49  0     1  0  0  0  0  0999 V2000
   -1.5619    0.5658    3.7981 C   0  0  0  0  0  0  0  0  0  0  0  0
   -0.6145   -0.0489    3.3224 O   0  0  0  0  0  0  0  0  0  0  0  0
   -1.9938    0.2834    5.1988 C   0  0  0  0  0  0  0  0  0  0  0  0
   -2.7535   -0.5129    5.2522 H   0  0  0  0  0  0  0  0  0  0  0  0
   -1.1626   -0.0642    5.8331 H   0  0  0  0  0  0  0  0  0  0  0  0
   -2.4318    1.1383    5.7384 H   0  0  0  0  0  0  0  0  0  0  0  0
   -2.3116    1.5383    3.1570 N   0  0  0  0  0  0  0  0  0  0  0  0
   -2.0648    1.9643    1.8046 C   0  0  2  0  0  0  0  0  0  0  0  0
   -0.7298    1.3789    1.3634 C   0  0  0  0  0  0  0  0  0  0  0  0
    0.1423    1.0262    2.1547 O   0  0  0  0  0  0  0  0  0  0  0  0
   -2.0560    3.4811    1.6952 C   0  0  0  0  0  0  0  0  0  0  0  0
   -3.0767    1.9741    3.6688 H   0  0  0  0  0  0  0  0  0  0  0  0
   -2.8689    1.5458    1.1895 H   0  0  0  0  0  0  0  0  0  0  0  0
   -1.2569    3.9183    2.3049 H   0  0  0  0  0  0  0  0  0  0  0  0
   -1.8965    3.8033    0.6609 H   0  0  0  0  0  0  0  0  0  0  0  0
   -3.0062    3.9023    2.0409 H   0  0  0  0  0  0  0  0  0  0  0  0
   -0.6071    1.3358   -0.0200 N   0  0  0  0  0  0  0  0  0  0  0  0
    0.5702    0.8350   -0.6836 C   0  0  2  0  0  0  0  0  0  0  0  0
    1.7425    1.7012   -0.2370 C   0  0  0  0  0  0  0  0  0  0  0  0
    2.2292    2.5833   -0.9412 O   0  0  0  0  0  0  0  0  0  0  0  0
    0.4332    0.8696   -2.2101 C   0  0  0  0  0  0  0  0  0  0  0  0
   -0.6609   -0.0371   -2.7186 C   0  0  0  0  0  0  0  0  0  0  0  0
   -0.5290   -1.3961   -2.7728 N   0  0  0  0  0  0  0  0  0  0  0  0
   -1.9229    0.2138   -3.2032 C   0  0  0  0  0  0  0  0  0  0  0  0
   -1.6944   -1.9011   -3.2790 C   0  0  0  0  0  0  0  0  0  0  0  0
   -2.5612   -0.9507   -3.5500 N   0  0  0  0  0  0  0  0  0  0  0  0
   -1.3903    1.6325   -0.5973 H   0  0  0  0  0  0  0  0  0  0  0  0
    0.7216   -0.1885   -0.3211 H   0  0  0  0  0  0  0  0  0  0  0  0
    1.3867    0.5996   -2.6839 H   0  0  0  0  0  0  0  0  0  0  0  0
    0.2205    1.8908   -2.5531 H   0  0  0  0  0  0  0  0  0  0  0  0
    0.2812   -1.9328   -2.4921 H   0  0  0  0  0  0  0  0  0  0  0  0
   -2.4068    1.1729   -3.3210 H   0  0  0  0  0  0  0  0  0  0  0  0
   -1.8457   -2.9613   -3.4237 H   0  0  0  0  0  0  0  0  0  0  0  0
    2.1445    1.4039    1.0578 N   0  0  0  0  0  0  0  0  0  0  0  0
    3.2204    2.0936    1.7328 C   0  0  2  0  0  0  0  0  0  0  0  0
    4.4273    2.1054    0.8041 C   0  0  0  0  0  0  0  0  0  0  0  0
    4.5807    1.2945   -0.1069 O   0  0  0  0  0  0  0  0  0  0  0  0
    3.5600    1.4274    3.0570 C   0  0  0  0  0  0  0  0  0  0  0  0
    1.6582    0.6643    1.5560 H   0  0  0  0  0  0  0  0  0  0  0  0
    2.8798    3.1208    1.9031 H   0  0  0  0  0  0  0  0  0  0  0  0
    3.9031    0.3973    2.9065 H   0  0  0  0  0  0  0  0  0  0  0  0
    4.3556    1.9677    3.5805 H   0  0  0  0  0  0  0  0  0  0  0  0
    2.6829    1.3931    3.7123 H   0  0  0  0  0  0  0  0  0  0  0  0
    5.3341    3.1012    1.1394 N   0  0  0  0  0  0  0  0  0  0  0  0
    6.5667    3.3090    0.4158 C   0  0  0  0  0  0  0  0  0  0  0  0
    5.1164    3.7404    1.8981 H   0  0  0  0  0  0  0  0  0  0  0  0
    7.3757    2.7404    0.8977 H   0  0  0  0  0  0  0  0  0  0  0  0
    6.4449    2.9654   -0.6220 H   0  0  0  0  0  0  0  0  0  0  0  0
    6.8183    4.3799    0.4203 H   0  0  0  0  0  0  0  0  0  0  0  0
 22 24  2  0  0  0  0
 24 26  1  0  0  0  0
 25 26  2  0  0  0  0
 23 25  1  0  0  0  0
 21 22  1  0  0  0  0
 22 23  1  0  0  0  0
  1  3  1  0  0  0  0
  1  7  1  0  0  0  0
  1  2  2  0  0  0  0
 35 36  1  0  0  0  0
 36 44  1  0  0  0  0
 36 37  2  0  0  0  0
  8  9  1  0  0  0  0
  9 17  1  0  0  0  0
  9 10  2  0  0  0  0
 18 19  1  0  0  0  0
 19 34  1  0  0  0  0
 19 20  2  0  0  0  0
 35 38  1  0  0  0  0
  8 11  1  0  0  0  0
 44 45  1  0  0  0  0
 18 21  1  0  0  0  0
 34 35  1  0  0  0  0
  7  8  1  0  0  0  0
 17 18  1  0  0  0  0
 24 32  1  0  0  0  0
 25 33  1  0  0  0  0
  3  4  1  0  0  0  0
  3  5  1  0  0  0  0
  3  6  1  0  0  0  0
 38 41  1  0  0  0  0
 38 42  1  0  0  0  0
 38 43  1  0  0  0  0
 11 14  1  0  0  0  0
 11 15  1  0  0  0  0
 11 16  1  0  0  0  0
 45 47  1  0  0  0  0
 45 48  1  0  0  0  0
 45 49  1  0  0  0  0
 21 29  1  0  0  0  0
 21 30  1  0  0  0  0
 35 40  1  0  0  0  0
  8 13  1  0  0  0  0
 18 28  1  0  0  0  0
 23 31  1  0  0  0  0
 44 46  1  0  0  0  0
  7 12  1  0  0  0  0
 34 39  1  0  0  0  0
 17 27  1  0  0  0  0
M  END
$$$$

  -OEChem-05262214473D

 49 49  0     1  0  0  0  0  0999 V2000
   -1.5619    0.5658    3.7981 C   0  0  0  0  0  0  0  0  0  0  0  0
   -0.6145   -0.0489    3.3224 O   0  0  0  0  0  0  0  0  0  0  0  0
   -1.9938    0.2834    5.1988 C   0  0  0  0  0  0  0  0  0  0  0  0
   -2.7535   -0.5129    5.2522 H   0  0  0  0  0  0  0  0  0  0  0  0
   -1.1626   -0.0642    5.8331 H   0  0  0  0  0  0  0  0  0  0  0  0
   -2.4318    1.1383    5.7384 H   0  0  0  0  0  0  0  0  0  0  0  0
   -2.3116    1.5383    3.1570 N   0  0  0  0  0  0  0  0  0  0  0  0
   -2.0648    1.9643    1.8046 C   0  0  2  0  0  0  0  0  0  0  0  0
   -0.7298    1.3789    1.3634 C   0  0  0  0  0  0  0  0  0  0  0  0
    0.1423    1.0262    2.1547 O   0  0  0  0  0  0  0  0  0  0  0  0
   -2.0560    3.4811    1.6952 C   0  0  0  0  0  0  0  0  0  0  0  0
   -3.0767    1.9741    3.6688 H   0  0  0  0  0  0  0  0  0  0  0  0
   -2.8689    1.5458    1.1895 H   0  0  0  0  0  0  0  0  0  0  0  0
   -1.2569    3.9183    2.3049 H   0  0  0  0  0  0  0  0  0  0  0  0
   -1.8965    3.8033    0.6609 H   0  0  0  0  0  0  0  0  0  0  0  0
   -3.0062    3.9023    2.0409 H   0  0  0  0  0  0  0  0  0  0  0  0
   -0.6071    1.3358   -0.0200 N   0  0  0  0  0  0  0  0  0  0  0  0
    0.5702    0.8350   -0.6836 C   0  0  2  0  0  0  0  0  0  0  0  0
    1.7425    1.7012   -0.2370 C   0  0  0  0  0  0  0  0  0  0  0  0
    2.0597    2.7432   -0.8066 O   0  0  0  0  0  0  0  0  0  0  0  0
    0.4332    0.8696   -2.2101 C   0  0  0  0  0  0  0  0  0  0  0  0
   -0.6609   -0.0371   -2.7186 C   0  0  0  0  0  0  0  0  0  0  0  0
   -0.5290   -1.3961   -2.7728 N   0  0  0  0  0  0  0  0  0  0  0  0
   -1.9229    0.2138   -3.2032 C   0  0  0  0  0  0  0  0  0  0  0  0
   -1.6944   -1.9011   -3.2790 C   0  0  0  0  0  0  0  0  0  0  0  0
   -2.5612   -0.9507   -3.5500 N   0  0  0  0  0  0  0  0  0  0  0  0
   -1.3903    1.6325   -0.5973 H   0  0  0  0  0  0  0  0  0  0  0  0
    0.7216   -0.1885   -0.3211 H   0  0  0  0  0  0  0  0  0  0  0  0
    1.3867    0.5996   -2.6839 H   0  0  0  0  0  0  0  0  0  0  0  0
    0.2205    1.8908   -2.5531 H   0  0  0  0  0  0  0  0  0  0  0  0
    0.2812   -1.9328   -2.4921 H   0  0  0  0  0  0  0  0  0  0  0  0
   -2.4068    1.1729   -3.3210 H   0  0  0  0  0  0  0  0  0  0  0  0
   -1.8457   -2.9613   -3.4237 H   0  0  0  0  0  0  0  0  0  0  0  0
    2.3574    1.1969    0.9006 N   0  0  0  0  0  0  0  0  0  0  0  0
    3.4806    1.8378    1.5458 C   0  0  2  0  0  0  0  0  0  0  0  0
    4.5264    2.1384    0.4802 C   0  0  0  0  0  0  0  0  0  0  0  0
    4.5861    1.5362   -0.5898 O   0  0  0  0  0  0  0  0  0  0  0  0
    4.0610    0.9617    2.6451 C   0  0  0  0  0  0  0  0  0  0  0  0
    2.0000    0.3339    1.2996 H   0  0  0  0  0  0  0  0  0  0  0  0
    3.1086    2.7774    1.9686 H   0  0  0  0  0  0  0  0  0  0  0  0
    4.4389    0.0156    2.2406 H   0  0  0  0  0  0  0  0  0  0  0  0
    4.8937    1.4605    3.1519 H   0  0  0  0  0  0  0  0  0  0  0  0
    3.2996    0.7219    3.3951 H   0  0  0  0  0  0  0  0  0  0  0  0
    5.4117    3.1286    0.8825 N   0  0  0  0  0  0  0  0  0  0  0  0
    6.5025    3.5833    0.0522 C   0  0  0  0  0  0  0  0  0  0  0  0
    5.2755    3.5866    1.7788 H   0  0  0  0  0  0  0  0  0  0  0  0
    7.4095    3.0081    0.2899 H   0  0  0  0  0  0  0  0  0  0  0  0
    6.2428    3.4372   -1.0066 H   0  0  0  0  0  0  0  0  0  0  0  0
    6.6861    4.6514    0.2408 H   0  0  0  0  0  0  0  0  0  0  0  0
 22 24  2  0  0  0  0
 24 26  1  0  0  0  0
 25 26  2  0  0  0  0
 23 25  1  0  0  0  0
 21 22  1  0  0  0  0
 22 23  1  0  0  0  0
  1  3  1  0  0  0  0
  1  7  1  0  0  0  0
  1  2  2  0  0  0  0
 35 36  1  0  0  0  0
 36 44  1  0  0  0  0
 36 37  2  0  0  0  0
  8  9  1  0  0  0  0
  9 17  1  0  0  0  0
  9 10  2  0  0  0  0
 18 19  1  0  0  0  0
 19 34  1  0  0  0  0
 19 20  2  0  0  0  0
 35 38  1  0  0  0  0
  8 11  1  0  0  0  0
 44 45  1  0  0  0  0
 18 21  1  0  0  0  0
 34 35  1  0  0  0  0
  7  8  1  0  0  0  0
 17 18  1  0  0  0  0
 24 32  1  0  0  0  0
 25 33  1  0  0  0  0
  3  4  1  0  0  0  0
  3  5  1  0  0  0  0
  3  6  1  0  0  0  0
 38 41  1  0  0  0  0
 38 42  1  0  0  0  0
 38 43  1  0  0  0  0
 11 14  1  0  0  0  0
 11 15  1  0  0  0  0
 11 16  1  0  0  0  0
 45 47  1  0  0  0  0
 45 48  1  0  0  0  0
 45 49  1  0  0  0  0
 21 29  1  0  0  0  0
 21 30  1  0  0  0  0
 35 40  1  0  0  0  0
  8 13  1  0  0  0  0
 18 28  1  0  0  0  0
 23 31  1  0  0  0  0
 44 46  1  0  0  0  0
  7 12  1  0  0  0  0
 34 39  1  0  0  0  0
 17 27  1  0  0  0  0
M  END
$$$$

  -OEChem-05262214473D

 49 49  0     1  0  0  0  0  0999 V2000
   -1.5619    0.5658    3.7981 C   0  0  0  0  0  0  0  0  0  0  0  0
   -0.6145   -0.0489    3.3224 O   0  0  0  0  0  0  0  0  0  0  0  0
   -1.9938    0.2834    5.1988 C   0  0  0  0  0  0  0  0  0  0  0  0
   -2.7535   -0.5129    5.2522 H   0  0  0  0  0  0  0  0  0  0  0  0
   -1.1626   -0.0642    5.8331 H   0  0  0  0  0  0  0  0  0  0  0  0
   -2.4318    1.1383    5.7384 H   0  0  0  0  0  0  0  0  0  0  0  0
   -2.3116    1.5383    3.1570 N   0  0  0  0  0  0  0  0  0  0  0  0
   -2.0648    1.9643    1.8046 C   0  0  2  0  0  0  0  0  0  0  0  0
   -0.7298    1.3789    1.3634 C   0  0  0  0  0  0  0  0  0  0  0  0
    0.1423    1.0262    2.1547 O   0  0  0  0  0  0  0  0  0  0  0  0
   -2.0560    3.4811    1.6952 C   0  0  0  0  0  0  0  0  0  0  0  0
   -3.0767    1.9741    3.6688 H   0  0  0  0  0  0  0  0  0  0  0  0
   -2.8689    1.5458    1.1895 H   0  0  0  0  0  0  0  0  0  0  0  0
   -1.2569    3.9183    2.3049 H   0  0  0  0  0  0  0  0  0  0  0  0
   -1.8965    3.8033    0.6609 H   0  0  0  0  0  0  0  0  0  0  0  0
   -3.0062    3.9023    2.0409 H   0  0  0  0  0  0  0  0  0  0  0  0
   -0.6071    1.3358   -0.0200 N   0  0  0  0  0  0  0  0  0  0  0  0
    0.5702    0.8350   -0.6836 C   0  0  2  0  0  0  0  0  0  0  0  0
    1.7425    1.7012   -0.2370 C   0  0  0  0  0  0  0  0  0  0  0  0
    1.9037    2.8581   -0.6197 O   0  0  0  0  0  0  0  0  0  0  0  0
    0.4332    0.8696   -2.2101 C   0  0  0  0  0  0  0  0  0  0  0  0
   -0.6609   -0.0371   -2.7186 C   0  0  0  0  0  0  0  0  0  0  0  0
   -0.5290   -1.3961   -2.7728 N   0  0  0  0  0  0  0  0  0  0  0  0
   -1.9229    0.2138   -3.2032 C   0  0  0  0  0  0  0  0  0  0  0  0
   -1.6944   -1.9011   -3.2790 C   0  0  0  0  0  0  0  0  0  0  0  0
   -2.5612   -0.9507   -3.5500 N   0  0  0  0  0  0  0  0  0  0  0  0
   -1.3903    1.6325   -0.5973 H   0  0  0  0  0  0  0  0  0  0  0  0
    0.7216   -0.1885   -0.3211 H   0  0  0  0  0  0  0  0  0  0  0  0
    1.3867    0.5996   -2.6839 H   0  0  0  0  0  0  0  0  0  0  0  0
    0.2205    1.8908   -2.5531 H   0  0  0  0  0  0  0  0  0  0  0  0
    0.2812   -1.9328   -2.4921 H   0  0  0  0  0  0  0  0  0  0  0  0
   -2.4068    1.1729   -3.3210 H   0  0  0  0  0  0  0  0  0  0  0  0
   -1.8457   -2.9613   -3.4237 H   0  0  0  0  0  0  0  0  0  0  0  0
    2.5556    1.0443    0.6762 N   0  0  0  0  0  0  0  0  0  0  0  0
    3.7240    1.6476    1.2760 C   0  0  2  0  0  0  0  0  0  0  0  0
    4.5720    2.2422    0.1594 C   0  0  0  0  0  0  0  0  0  0  0  0
    4.5019    1.8662   -1.0089 O   0  0  0  0  0  0  0  0  0  0  0  0
    4.5197    0.6318    2.0808 C   0  0  0  0  0  0  0  0  0  0  0  0
    2.3175    0.0917    0.9360 H   0  0  0  0  0  0  0  0  0  0  0  0
    3.3652    2.4500    1.9298 H   0  0  0  0  0  0  0  0  0  0  0  0
    4.8874   -0.1799    1.4425 H   0  0  0  0  0  0  0  0  0  0  0  0
    5.3888    1.0966    2.5579 H   0  0  0  0  0  0  0  0  0  0  0  0
    3.8996    0.1834    2.8645 H   0  0  0  0  0  0  0  0  0  0  0  0
    5.4469    3.2120    0.6284 N   0  0  0  0  0  0  0  0  0  0  0  0
    6.3663    3.9158   -0.2349 C   0  0  0  0  0  0  0  0  0  0  0  0
    5.4233    3.4738    1.6096 H   0  0  0  0  0  0  0  0  0  0  0  0
    7.3325    3.3901   -0.2488 H   0  0  0  0  0  0  0  0  0  0  0  0
    5.9553    3.9543   -1.2545 H   0  0  0  0  0  0  0  0  0  0  0  0
    6.5113    4.9394    0.1408 H   0  0  0  0  0  0  0  0  0  0  0  0
 22 24  2  0  0  0  0
 24 26  1  0  0  0  0
 25 26  2  0  0  0  0
 23 25  1  0  0  0  0
 21 22  1  0  0  0  0
 22 23  1  0  0  0  0
  1  3  1  0  0  0  0
  1  7  1  0  0  0  0
  1  2  2  0  0  0  0
 35 36  1  0  0  0  0
 36 44  1  0  0  0  0
 36 37  2  0  0  0  0
  8  9  1  0  0  0  0
  9 17  1  0  0  0  0
  9 10  2  0  0  0  0
 18 19  1  0  0  0  0
 19 34  1  0  0  0  0
 19 20  2  0  0  0  0
 35 38  1  0  0  0  0
  8 11  1  0  0  0  0
 44 45  1  0  0  0  0
 18 21  1  0  0  0  0
 34 35  1  0  0  0  0
  7  8  1  0  0  0  0
 17 18  1  0  0  0  0
 24 32  1  0  0  0  0
 25 33  1  0  0  0  0
  3  4  1  0  0  0  0
  3  5  1  0  0  0  0
  3  6  1  0  0  0  0
 38 41  1  0  0  0  0
 38 42  1  0  0  0  0
 38 43  1  0  0  0  0
 11 14  1  0  0  0  0
 11 15  1  0  0  0  0
 11 16  1  0  0  0  0
 45 47  1  0  0  0  0
 45 48  1  0  0  0  0
 45 49  1  0  0  0  0
 21 29  1  0  0  0  0
 21 30  1  0  0  0  0
 35 40  1  0  0  0  0
  8 13  1  0  0  0  0
 18 28  1  0  0  0  0
 23 31  1  0  0  0  0
 44 46  1  0  0  0  0
  7 12  1  0  0  0  0
 34 39  1  0  0  0  0
 17 27  1  0  0  0  0
M  END
$$$$

  -OEChem-05262214473D

 49 49  0     1  0  0  0  0  0999 V2000
   -1.5619    0.5658    3.7981 C   0  0  0  0  0  0  0  0  0  0  0  0
   -0.6145   -0.0489    3.3224 O   0  0  0  0  0  0  0  0  0  0  0  0
   -1.9938    0.2834    5.1988 C   0  0  0  0  0  0  0  0  0  0  0  0
   -2.7535   -0.5129    5.2522 H   0  0  0  0  0  0  0  0  0  0  0  0
   -1.1626   -0.0642    5.8331 H   0  0  0  0  0  0  0  0  0  0  0  0
   -2.4318    1.1383    5.7384 H   0  0  0  0  0  0  0  0  0  0  0  0
   -2.3116    1.5383    3.1570 N   0  0  0  0  0  0  0  0  0  0  0  0
   -2.0648    1.9643    1.8046 C   0  0  2  0  0  0  0  0  0  0  0  0
   -0.7298    1.3789    1.3634 C   0  0  0  0  0  0  0  0  0  0  0  0
    0.1423    1.0262    2.1547 O   0  0  0  0  0  0  0  0  0  0  0  0
   -2.0560    3.4811    1.6952 C   0  0  0  0  0  0  0  0  0  0  0  0
   -3.0767    1.9741    3.6688 H   0  0  0  0  0  0  0  0  0  0  0  0
   -2.8689    1.5458    1.1895 H   0  0  0  0  0  0  0  0  0  0  0  0
   -1.2569    3.9183    2.3049 H   0  0  0  0  0  0  0  0  0  0  0  0
   -1.8965    3.8033    0.6609 H   0  0  0  0  0  0  0  0  0  0  0  0
   -3.0062    3.9023    2.0409 H   0  0  0  0  0  0  0  0  0  0  0  0
   -0.6071    1.3358   -0.0200 N   0  0  0  0  0  0  0  0  0  0  0  0
    0.5702    0.8350   -0.6836 C   0  0  2  0  0  0  0  0  0  0  0  0
    1.7425    1.7012   -0.2370 C   0  0  0  0  0  0  0  0  0  0  0  0
    1.7717    2.9200   -0.3934 O   0  0  0  0  0  0  0  0  0  0  0  0
    0.4332    0.8696   -2.2101 C   0  0  0  0  0  0  0  0  0  0  0  0
   -0.6609   -0.0371   -2.7186 C   0  0  0  0  0  0  0  0  0  0  0  0
   -0.5290   -1.3961   -2.7728 N   0  0  0  0  0  0  0  0  0  0  0  0
   -1.9229    0.2138   -3.2032 C   0  0  0  0  0  0  0  0  0  0  0  0
   -1.6944   -1.9011   -3.2790 C   0  0  0  0  0  0  0  0  0  0  0  0
   -2.5612   -0.9507   -3.5500 N   0  0  0  0  0  0  0  0  0  0  0  0
   -1.3903    1.6325   -0.5973 H   0  0  0  0  0  0  0  0  0  0  0  0
    0.7216   -0.1885   -0.3211 H   0  0  0  0  0  0  0  0  0  0  0  0
    1.3867    0.5996   -2.6839 H   0  0  0  0  0  0  0  0  0  0  0  0
    0.2205    1.8908   -2.5531 H   0  0  0  0  0  0  0  0  0  0  0  0
    0.2812   -1.9328   -2.4921 H   0  0  0  0  0  0  0  0  0  0  0  0
   -2.4068    1.1729   -3.3210 H   0  0  0  0  0  0  0  0  0  0  0  0
   -1.8457   -2.9613   -3.4237 H   0  0  0  0  0  0  0  0  0  0  0  0
    2.7256    0.9567    0.4000 N   0  0  0  0  0  0  0  0  0  0  0  0
    3.9338    1.5360    0.9417 C   0  0  2  0  0  0  0  0  0  0  0  0
    4.5609    2.4097   -0.1366 C   0  0  0  0  0  0  0  0  0  0  0  0
    4.3340    2.2620   -1.3357 O   0  0  0  0  0  0  0  0  0  0  0  0
    4.9049    0.4603    1.4026 C   0  0  0  0  0  0  0  0  0  0  0  0
    2.5891   -0.0458    0.4899 H   0  0  0  0  0  0  0  0  0  0  0  0
    3.6323    2.1610    1.7894 H   0  0  0  0  0  0  0  0  0  0  0  0
    5.2182   -0.1760    0.5668 H   0  0  0  0  0  0  0  0  0  0  0  0
    5.8073    0.9010    1.8389 H   0  0  0  0  0  0  0  0  0  0  0  0
    4.4420   -0.1855    2.1566 H   0  0  0  0  0  0  0  0  0  0  0  0
    5.4371    3.3459    0.3944 N   0  0  0  0  0  0  0  0  0  0  0  0
    6.1673    4.2838   -0.4261 C   0  0  0  0  0  0  0  0  0  0  0  0
    5.5497    3.4098    1.4019 H   0  0  0  0  0  0  0  0  0  0  0  0
    7.1499    3.8605   -0.6818 H   0  0  0  0  0  0  0  0  0  0  0  0
    5.6018    4.4812   -1.3488 H   0  0  0  0  0  0  0  0  0  0  0  0
    6.3060    5.2243    0.1272 H   0  0  0  0  0  0  0  0  0  0  0  0
 22 24  2  0  0  0  0
 24 26  1  0  0  0  0
 25 26  2  0  0  0  0
 23 25  1  0  0  0  0
 21 22  1  0  0  0  0
 22 23  1  0  0  0  0
  1  3  1  0  0  0  0
  1  7  1  0  0  0  0
  1  2  2  0  0  0  0
 35 36  1  0  0  0  0
 36 44  1  0  0  0  0
 36 37  2  0  0  0  0
  8  9  1  0  0  0  0
  9 17  1  0  0  0  0
  9 10  2  0  0  0  0
 18 19  1  0  0  0  0
 19 34  1  0  0  0  0
 19 20  2  0  0  0  0
 35 38  1  0  0  0  0
  8 11  1  0  0  0  0
 44 45  1  0  0  0  0
 18 21  1  0  0  0  0
 34 35  1  0  0  0  0
  7  8  1  0  0  0  0
 17 18  1  0  0  0  0
 24 32  1  0  0  0  0
 25 33  1  0  0  0  0
  3  4  1  0  0  0  0
  3  5  1  0  0  0  0
  3  6  1  0  0  0  0
 38 41  1  0  0  0  0
 38 42  1  0  0  0  0
 38 43  1  0  0  0  0
 11 14  1  0  0  0  0
 11 15  1  0  0  0  0
 11 16  1  0  0  0  0
 45 47  1  0  0  0  0
 45 48  1  0  0  0  0
 45 49  1  0  0  0  0
 21 29  1  0  0  0  0
 21 30  1  0  0  0  0
 35 40  1  0  0  0  0
  8 13  1  0  0  0  0
 18 28  1  0  0  0  0
 23 31  1  0  0  0  0
 44 46  1  0  0  0  0
  7 12  1  0  0  0  0
 34 39  1  0  0  0  0
 17 27  1  0  0  0  0
M  END
$$$$

  -OEChem-05262214473D

 49 49  0     1  0  0  0  0  0999 V2000
   -1.5619    0.5658    3.7981 C   0  0  0  0  0  0  0  0  0  0  0  0
   -0.6145   -0.0489    3.3224 O   0  0  0  0  0  0  0  0  0  0  0  0
   -1.9938    0.2834    5.1988 C   0  0  0  0  0  0  0  0  0  0  0  0
   -2.7535   -0.5129    5.2522 H   0  0  0  0  0  0  0  0  0  0  0  0
   -1.1626   -0.0642    5.8331 H   0  0  0  0  0  0  0  0  0  0  0  0
   -2.4318    1.1383    5.7384 H   0  0  0  0  0  0  0  0  0  0  0  0
   -2.3116    1.5383    3.1570 N   0  0  0  0  0  0  0  0  0  0  0  0
   -2.0648    1.9643    1.8046 C   0  0  2  0  0  0  0  0  0  0  0  0
   -0.7298    1.3789    1.3634 C   0  0  0  0  0  0  0  0  0  0  0  0
    0.1423    1.0262    2.1547 O   0  0  0  0  0  0  0  0  0  0  0  0
   -2.0560    3.4811    1.6952 C   0  0  0  0  0  0  0  0  0  0  0  0
   -3.0767    1.9741    3.6688 H   0  0  0  0  0  0  0  0  0  0  0  0
   -2.8689    1.5458    1.1895 H   0  0  0  0  0  0  0  0  0  0  0  0
   -1.2569    3.9183    2.3049 H   0  0  0  0  0  0  0  0  0  0  0  0
   -1.8965    3.8033    0.6609 H   0  0  0  0  0  0  0  0  0  0  0  0
   -3.0062    3.9023    2.0409 H   0  0  0  0  0  0  0  0  0  0  0  0
   -0.6071    1.3358   -0.0200 N   0  0  0  0  0  0  0  0  0  0  0  0
    0.5702    0.8350   -0.6836 C   0  0  2  0  0  0  0  0  0  0  0  0
    1.7425    1.7012   -0.2370 C   0  0  0  0  0  0  0  0  0  0  0  0
    1.6728    2.9248   -0.1431 O   0  0  0  0  0  0  0  0  0  0  0  0
    0.4332    0.8696   -2.2101 C   0  0  0  0  0  0  0  0  0  0  0  0
   -0.6609   -0.0371   -2.7186 C   0  0  0  0  0  0  0  0  0  0  0  0
   -0.5290   -1.3961   -2.7728 N   0  0  0  0  0  0  0  0  0  0  0  0
   -1.9229    0.2138   -3.2032 C   0  0  0  0  0  0  0  0  0  0  0  0
   -1.6944   -1.9011   -3.2790 C   0  0  0  0  0  0  0  0  0  0  0  0
   -2.5612   -0.9507   -3.5500 N   0  0  0  0  0  0  0  0  0  0  0  0
   -1.3903    1.6325   -0.5973 H   0  0  0  0  0  0  0  0  0  0  0  0
    0.7216   -0.1885   -0.3211 H   0  0  0  0  0  0  0  0  0  0  0  0
    1.3867    0.5996   -2.6839 H   0  0  0  0  0  0  0  0  0  0  0  0
    0.2205    1.8908   -2.5531 H   0  0  0  0  0  0  0  0  0  0  0  0
    0.2812   -1.9328   -2.4921 H   0  0  0  0  0  0  0  0  0  0  0  0
   -2.4068    1.1729   -3.3210 H   0  0  0  0  0  0  0  0  0  0  0  0
   -1.8457   -2.9613   -3.4237 H   0  0  0  0  0  0  0  0  0  0  0  0
    2.8558    0.9399    0.0907 N   0  0  0  0  0  0  0  0  0  0  0  0
    4.0957    1.5107    0.5658 C   0  0  2  0  0  0  0  0  0  0  0  0
    4.4940    2.6296   -0.3875 C   0  0  0  0  0  0  0  0  0  0  0  0
    4.0938    2.6966   -1.5478 O   0  0  0  0  0  0  0  0  0  0  0  0
    5.1901    0.4587    0.6568 C   0  0  0  0  0  0  0  0  0  0  0  0
    2.7962   -0.0693   -0.0084 H   0  0  0  0  0  0  0  0  0  0  0  0
    3.8915    1.9300    1.5570 H   0  0  0  0  0  0  0  0  0  0  0  0
    5.4085    0.0272   -0.3269 H   0  0  0  0  0  0  0  0  0  0  0  0
    6.1207    0.8868    1.0439 H   0  0  0  0  0  0  0  0  0  0  0  0
    4.8897   -0.3599    1.3196 H   0  0  0  0  0  0  0  0  0  0  0  0
    5.3831    3.5210    0.1965 N   0  0  0  0  0  0  0  0  0  0  0  0
    5.9190    4.6621   -0.5082 C   0  0  0  0  0  0  0  0  0  0  0  0
    5.6462    3.3989    1.1700 H   0  0  0  0  0  0  0  0  0  0  0  0
    6.8741    4.3873   -0.9796 H   0  0  0  0  0  0  0  0  0  0  0  0
    5.2067    4.9821   -1.2829 H   0  0  0  0  0  0  0  0  0  0  0  0
    6.0842    5.4866    0.2010 H   0  0  0  0  0  0  0  0  0  0  0  0
 22 24  2  0  0  0  0
 24 26  1  0  0  0  0
 25 26  2  0  0  0  0
 23 25  1  0  0  0  0
 21 22  1  0  0  0  0
 22 23  1  0  0  0  0
  1  3  1  0  0  0  0
  1  7  1  0  0  0  0
  1  2  2  0  0  0  0
 35 36  1  0  0  0  0
 36 44  1  0  0  0  0
 36 37  2  0  0  0  0
  8  9  1  0  0  0  0
  9 17  1  0  0  0  0
  9 10  2  0  0  0  0
 18 19  1  0  0  0  0
 19 34  1  0  0  0  0
 19 20  2  0  0  0  0
 35 38  1  0  0  0  0
  8 11  1  0  0  0  0
 44 45  1  0  0  0  0
 18 21  1  0  0  0  0
 34 35  1  0  0  0  0
  7  8  1  0  0  0  0
 17 18  1  0  0  0  0
 24 32  1  0  0  0  0
 25 33  1  0  0  0  0
  3  4  1  0  0  0  0
  3  5  1  0  0  0  0
  3  6  1  0  0  0  0
 38 41  1  0  0  0  0
 38 42  1  0  0  0  0
 38 43  1  0  0  0  0
 11 14  1  0  0  0  0
 11 15  1  0  0  0  0
 11 16  1  0  0  0  0
 45 47  1  0  0  0  0
 45 48  1  0  0  0  0
 45 49  1  0  0  0  0
 21 29  1  0  0  0  0
 21 30  1  0  0  0  0
 35 40  1  0  0  0  0
  8 13  1  0  0  0  0
 18 28  1  0  0  0  0
 23 31  1  0  0  0  0
 44 46  1  0  0  0  0
  7 12  1  0  0  0  0
 34 39  1  0  0  0  0
 17 27  1  0  0  0  0
M  END
$$$$

  -OEChem-05262214473D

 49 49  0     1  0  0  0  0  0999 V2000
   -1.5619    0.5658    3.7981 C   0  0  0  0  0  0  0  0  0  0  0  0
   -0.6145   -0.0489    3.3224 O   0  0  0  0  0  0  0  0  0  0  0  0
   -1.9938    0.2834    5.1988 C   0  0  0  0  0  0  0  0  0  0  0  0
   -2.7535   -0.5129    5.2522 H   0  0  0  0  0  0  0  0  0  0  0  0
   -1.1626   -0.0642    5.8331 H   0  0  0  0  0  0  0  0  0  0  0  0
   -2.4318    1.1383    5.7384 H   0  0  0  0  0  0  0  0  0  0  0  0
   -2.3116    1.5383    3.1570 N   0  0  0  0  0  0  0  0  0  0  0  0
   -2.0648    1.9643    1.8046 C   0  0  2  0  0  0  0  0  0  0  0  0
   -0.7298    1.3789    1.3634 C   0  0  0  0  0  0  0  0  0  0  0  0
    0.1423    1.0262    2.1547 O   0  0  0  0  0  0  0  0  0  0  0  0
   -2.0560    3.4811    1.6952 C   0  0  0  0  0  0  0  0  0  0  0  0
   -3.0767    1.9741    3.6688 H   0  0  0  0  0  0  0  0  0  0  0  0
   -2.8689    1.5458    1.1895 H   0  0  0  0  0  0  0  0  0  0  0  0
   -1.2569    3.9183    2.3049 H   0  0  0  0  0  0  0  0  0  0  0  0
   -1.8965    3.8033    0.6609 H   0  0  0  0  0  0  0  0  0  0  0  0
   -3.0062    3.9023    2.0409 H   0  0  0  0  0  0  0  0  0  0  0  0
   -0.6071    1.3358   -0.0200 N   0  0  0  0  0  0  0  0  0  0  0  0
    0.5702    0.8350   -0.6836 C   0  0  2  0  0  0  0  0  0  0  0  0
    1.7425    1.7012   -0.2370 C   0  0  0  0  0  0  0  0  0  0  0  0
    1.6138    2.8721    0.1141 O   0  0  0  0  0  0  0  0  0  0  0  0
    0.4332    0.8696   -2.2101 C   0  0  0  0  0  0  0  0  0  0  0  0
   -0.6609   -0.0371   -2.7186 C   0  0  0  0  0  0  0  0  0  0  0  0
   -0.5290   -1.3961   -2.7728 N   0  0  0  0  0  0  0  0  0  0  0  0
   -1.9229    0.2138   -3.2032 C   0  0  0  0  0  0  0  0  0  0  0  0
   -1.6944   -1.9011   -3.2790 C   0  0  0  0  0  0  0  0  0  0  0  0
   -2.5612   -0.9507   -3.5500 N   0  0  0  0  0  0  0  0  0  0  0  0
   -1.3903    1.6325   -0.5973 H   0  0  0  0  0  0  0  0  0  0  0  0
    0.7216   -0.1885   -0.3211 H   0  0  0  0  0  0  0  0  0  0  0  0
    1.3867    0.5996   -2.6839 H   0  0  0  0  0  0  0  0  0  0  0  0
    0.2205    1.8908   -2.5531 H   0  0  0  0  0  0  0  0  0  0  0  0
    0.2812   -1.9328   -2.4921 H   0  0  0  0  0  0  0  0  0  0  0  0
   -2.4068    1.1729   -3.3210 H   0  0  0  0  0  0  0  0  0  0  0  0
   -1.8457   -2.9613   -3.4237 H   0  0  0  0  0  0  0  0  0  0  0  0
    2.9374    0.9951   -0.2305 N   0  0  0  0  0  0  0  0  0  0  0  0
    4.1987    1.5733    0.1738 C   0  0  2  0  0  0  0  0  0  0  0  0
    4.3758    2.8869   -0.5763 C   0  0  0  0  0  0  0  0  0  0  0  0
    3.7975    3.1404   -1.6310 O   0  0  0  0  0  0  0  0  0  0  0  0
    5.3561    0.6274   -0.1059 C   0  0  0  0  0  0  0  0  0  0  0  0
    2.9248    0.0230   -0.5248 H   0  0  0  0  0  0  0  0  0  0  0  0
    4.1252    1.7728    1.2484 H   0  0  0  0  0  0  0  0  0  0  0  0
    5.4456    0.4158   -1.1777 H   0  0  0  0  0  0  0  0  0  0  0  0
    6.3076    1.0551    0.2271 H   0  0  0  0  0  0  0  0  0  0  0  0
    5.2123   -0.3278    0.4105 H   0  0  0  0  0  0  0  0  0  0  0  0
    5.2886    3.7255    0.0481 N   0  0  0  0  0  0  0  0  0  0  0  0
    5.6384    5.0251   -0.4758 C   0  0  0  0  0  0  0  0  0  0  0  0
    5.7060    3.4418    0.9296 H   0  0  0  0  0  0  0  0  0  0  0  0
    6.5241    4.9344   -1.1218 H   0  0  0  0  0  0  0  0  0  0  0  0
    4.7966    5.4229   -1.0616 H   0  0  0  0  0  0  0  0  0  0  0  0
    5.8608    5.7084    0.3572 H   0  0  0  0  0  0  0  0  0  0  0  0
 22 24  2  0  0  0  0
 24 26  1  0  0  0  0
 25 26  2  0  0  0  0
 23 25  1  0  0  0  0
 21 22  1  0  0  0  0
 22 23  1  0  0  0  0
  1  3  1  0  0  0  0
  1  7  1  0  0  0  0
  1  2  2  0  0  0  0
 35 36  1  0  0  0  0
 36 44  1  0  0  0  0
 36 37  2  0  0  0  0
  8  9  1  0  0  0  0
  9 17  1  0  0  0  0
  9 10  2  0  0  0  0
 18 19  1  0  0  0  0
 19 34  1  0  0  0  0
 19 20  2  0  0  0  0
 35 38  1  0  0  0  0
  8 11  1  0  0  0  0
 44 45  1  0  0  0  0
 18 21  1  0  0  0  0
 34 35  1  0  0  0  0
  7  8  1  0  0  0  0
 17 18  1  0  0  0  0
 24 32  1  0  0  0  0
 25 33  1  0  0  0  0
  3  4  1  0  0  0  0
  3  5  1  0  0  0  0
  3  6  1  0  0  0  0
 38 41  1  0  0  0  0
 38 42  1  0  0  0  0
 38 43  1  0  0  0  0
 11 14  1  0  0  0  0
 11 15  1  0  0  0  0
 11 16  1  0  0  0  0
 45 47  1  0  0  0  0
 45 48  1  0  0  0  0
 45 49  1  0  0  0  0
 21 29  1  0  0  0  0
 21 30  1  0  0  0  0
 35 40  1  0  0  0  0
  8 13  1  0  0  0  0
 18 28  1  0  0  0  0
 23 31  1  0  0  0  0
 44 46  1  0  0  0  0
  7 12  1  0  0  0  0
 34 39  1  0  0  0  0
 17 27  1  0  0  0  0
M  END
$$$$

  -OEChem-05262214473D

 49 49  0     1  0  0  0  0  0999 V2000
   -1.5619    0.5658    3.7981 C   0  0  0  0  0  0  0  0  0  0  0  0
   -0.6145   -0.0489    3.3224 O   0  0  0  0  0  0  0  0  0  0  0  0
   -1.9938    0.2834    5.1988 C   0  0  0  0  0  0  0  0  0  0  0  0
   -2.7535   -0.5129    5.2522 H   0  0  0  0  0  0  0  0  0  0  0  0
   -1.1626   -0.0642    5.8331 H   0  0  0  0  0  0  0  0  0  0  0  0
   -2.4318    1.1383    5.7384 H   0  0  0  0  0  0  0  0  0  0  0  0
   -2.3116    1.5383    3.1570 N   0  0  0  0  0  0  0  0  0  0  0  0
   -2.0648    1.9643    1.8046 C   0  0  2  0  0  0  0  0  0  0  0  0
   -0.7298    1.3789    1.3634 C   0  0  0  0  0  0  0  0  0  0  0  0
    0.1423    1.0262    2.1547 O   0  0  0  0  0  0  0  0  0  0  0  0
   -2.0560    3.4811    1.6952 C   0  0  0  0  0  0  0  0  0  0  0  0
   -3.0767    1.9741    3.6688 H   0  0  0  0  0  0  0  0  0  0  0  0
   -2.8689    1.5458    1.1895 H   0  0  0  0  0  0  0  0  0  0  0  0
   -1.2569    3.9183    2.3049 H   0  0  0  0  0  0  0  0  0  0  0  0
   -1.8965    3.8033    0.6609 H   0  0  0  0  0  0  0  0  0  0  0  0
   -3.0062    3.9023    2.0409 H   0  0  0  0  0  0  0  0  0  0  0  0
   -0.6071    1.3358   -0.0200 N   0  0  0  0  0  0  0  0  0  0  0  0
    0.5702    0.8350   -0.6836 C   0  0  2  0  0  0  0  0  0  0  0  0
    1.7425    1.7012   -0.2370 C   0  0  0  0  0  0  0  0  0  0  0  0
    1.5985    2.7655    0.3608 O   0  0  0  0  0  0  0  0  0  0  0  0
    0.4332    0.8696   -2.2101 C   0  0  0  0  0  0  0  0  0  0  0  0
   -0.6609   -0.0371   -2.7186 C   0  0  0  0  0  0  0  0  0  0  0  0
   -0.5290   -1.3961   -2.7728 N   0  0  0  0  0  0  0  0  0  0  0  0
   -1.9229    0.2138   -3.2032 C   0  0  0  0  0  0  0  0  0  0  0  0
   -1.6944   -1.9011   -3.2790 C   0  0  0  0  0  0  0  0  0  0  0  0
   -2.5612   -0.9507   -3.5500 N   0  0  0  0  0  0  0  0  0  0  0  0
   -1.3903    1.6325   -0.5973 H   0  0  0  0  0  0  0  0  0  0  0  0
    0.7216   -0.1885   -0.3211 H   0  0  0  0  0  0  0  0  0  0  0  0
    1.3867    0.5996   -2.6839 H   0  0  0  0  0  0  0  0  0  0  0  0
    0.2205    1.8908   -2.5531 H   0  0  0  0  0  0  0  0  0  0  0  0
    0.2812   -1.9328   -2.4921 H   0  0  0  0  0  0  0  0  0  0  0  0
   -2.4068    1.1729   -3.3210 H   0  0  0  0  0  0  0  0  0  0  0  0
   -1.8457   -2.9613   -3.4237 H   0  0  0  0  0  0  0  0  0  0  0  0
    2.9648    1.1185   -0.5418 N   0  0  0  0  0  0  0  0  0  0  0  0
    4.2359    1.7197   -0.2075 C   0  0  2  0  0  0  0  0  0  0  0  0
    4.2144    3.1641   -0.6900 C   0  0  0  0  0  0  0  0  0  0  0  0
    3.4655    3.5631   -1.5794 O   0  0  0  0  0  0  0  0  0  0  0  0
    5.3915    0.9546   -0.8335 C   0  0  0  0  0  0  0  0  0  0  0  0
    2.9661    0.2246   -1.0241 H   0  0  0  0  0  0  0  0  0  0  0  0
    4.3175    1.7001    0.8847 H   0  0  0  0  0  0  0  0  0  0  0  0
    5.3268    0.9633   -1.9276 H   0  0  0  0  0  0  0  0  0  0  0  0
    6.3552    1.3944   -0.5559 H   0  0  0  0  0  0  0  0  0  0  0  0
    5.3879   -0.0914   -0.5086 H   0  0  0  0  0  0  0  0  0  0  0  0
    5.1600    3.9453   -0.0406 N   0  0  0  0  0  0  0  0  0  0  0  0
    5.3447    5.3480   -0.3309 C   0  0  0  0  0  0  0  0  0  0  0  0
    5.7253    3.5356    0.6972 H   0  0  0  0  0  0  0  0  0  0  0  0
    6.1236    5.4646   -1.0988 H   0  0  0  0  0  0  0  0  0  0  0  0
    4.3997    5.7735   -0.6997 H   0  0  0  0  0  0  0  0  0  0  0  0
    5.6512    5.8746    0.5849 H   0  0  0  0  0  0  0  0  0  0  0  0
 22 24  2  0  0  0  0
 24 26  1  0  0  0  0
 25 26  2  0  0  0  0
 23 25  1  0  0  0  0
 21 22  1  0  0  0  0
 22 23  1  0  0  0  0
  1  3  1  0  0  0  0
  1  7  1  0  0  0  0
  1  2  2  0  0  0  0
 35 36  1  0  0  0  0
 36 44  1  0  0  0  0
 36 37  2  0  0  0  0
  8  9  1  0  0  0  0
  9 17  1  0  0  0  0
  9 10  2  0  0  0  0
 18 19  1  0  0  0  0
 19 34  1  0  0  0  0
 19 20  2  0  0  0  0
 35 38  1  0  0  0  0
  8 11  1  0  0  0  0
 44 45  1  0  0  0  0
 18 21  1  0  0  0  0
 34 35  1  0  0  0  0
  7  8  1  0  0  0  0
 17 18  1  0  0  0  0
 24 32  1  0  0  0  0
 25 33  1  0  0  0  0
  3  4  1  0  0  0  0
  3  5  1  0  0  0  0
  3  6  1  0  0  0  0
 38 41  1  0  0  0  0
 38 42  1  0  0  0  0
 38 43  1  0  0  0  0
 11 14  1  0  0  0  0
 11 15  1  0  0  0  0
 11 16  1  0  0  0  0
 45 47  1  0  0  0  0
 45 48  1  0  0  0  0
 45 49  1  0  0  0  0
 21 29  1  0  0  0  0
 21 30  1  0  0  0  0
 35 40  1  0  0  0  0
  8 13  1  0  0  0  0
 18 28  1  0  0  0  0
 23 31  1  0  0  0  0
 44 46  1  0  0  0  0
  7 12  1  0  0  0  0
 34 39  1  0  0  0  0
 17 27  1  0  0  0  0
M  END
$$$$

  -OEChem-05262214473D

 49 49  0     1  0  0  0  0  0999 V2000
   -1.5619    0.5658    3.7981 C   0  0  0  0  0  0  0  0  0  0  0  0
   -0.6145   -0.0489    3.3224 O   0  0  0  0  0  0  0  0  0  0  0  0
   -1.9938    0.2834    5.1988 C   0  0  0  0  0  0  0  0  0  0  0  0
   -2.7535   -0.5129    5.2522 H   0  0  0  0  0  0  0  0  0  0  0  0
   -1.1626   -0.0642    5.8331 H   0  0  0  0  0  0  0  0  0  0  0  0
   -2.4318    1.1383    5.7384 H   0  0  0  0  0  0  0  0  0  0  0  0
   -2.3116    1.5383    3.1570 N   0  0  0  0  0  0  0  0  0  0  0  0
   -2.0648    1.9643    1.8046 C   0  0  2  0  0  0  0  0  0  0  0  0
   -0.7298    1.3789    1.3634 C   0  0  0  0  0  0  0  0  0  0  0  0
    0.1423    1.0262    2.1547 O   0  0  0  0  0  0  0  0  0  0  0  0
   -2.0560    3.4811    1.6952 C   0  0  0  0  0  0  0  0  0  0  0  0
   -3.0767    1.9741    3.6688 H   0  0  0  0  0  0  0  0  0  0  0  0
   -2.8689    1.5458    1.1895 H   0  0  0  0  0  0  0  0  0  0  0  0
   -1.2569    3.9183    2.3049 H   0  0  0  0  0  0  0  0  0  0  0  0
   -1.8965    3.8033    0.6609 H   0  0  0  0  0  0  0  0  0  0  0  0
   -3.0062    3.9023    2.0409 H   0  0  0  0  0  0  0  0  0  0  0  0
   -0.6071    1.3358   -0.0200 N   0  0  0  0  0  0  0  0  0  0  0  0
    0.5702    0.8350   -0.6836 C   0  0  2  0  0  0  0  0  0  0  0  0
    1.7782    1.4322    0.0293 C   0  0  0  0  0  0  0  0  0  0  0  0
    1.6809    2.1624    1.0132 O   0  0  0  0  0  0  0  0  0  0  0  0
    0.5954    1.2006   -2.1722 C   0  0  0  0  0  0  0  0  0  0  0  0
   -0.5334    0.5668   -2.9481 C   0  0  0  0  0  0  0  0  0  0  0  0
   -0.5462   -0.7573   -3.2853 N   0  0  0  0  0  0  0  0  0  0  0  0
   -1.7038    1.0726   -3.4626 C   0  0  0  0  0  0  0  0  0  0  0  0
   -1.7017   -0.9928   -3.9773 C   0  0  0  0  0  0  0  0  0  0  0  0
   -2.4267    0.0966   -4.1018 N   0  0  0  0  0  0  0  0  0  0  0  0
   -1.3903    1.6325   -0.5973 H   0  0  0  0  0  0  0  0  0  0  0  0
    0.5706   -0.2520   -0.5411 H   0  0  0  0  0  0  0  0  0  0  0  0
    1.5572    0.9134   -2.6183 H   0  0  0  0  0  0  0  0  0  0  0  0
    0.5322    2.2893   -2.3009 H   0  0  0  0  0  0  0  0  0  0  0  0
    0.1672   -1.4402   -3.0661 H   0  0  0  0  0  0  0  0  0  0  0  0
   -2.0651    2.0896   -3.4065 H   0  0  0  0  0  0  0  0  0  0  0  0
   -1.9525   -1.9719   -4.3598 H   0  0  0  0  0  0  0  0  0  0  0  0
    2.9746    1.0114   -0.5346 N   0  0  0  0  0  0  0  0  0  0  0  0
    4.2709    1.4113   -0.0358 C   0  0  2  0  0  0  0  0  0  0  0  0
    4.2710    2.9271    0.1115 C   0  0  0  0  0  0  0  0  0  0  0  0
    3.5043    3.6614   -0.5083 O   0  0  0  0  0  0  0  0  0  0  0  0
    5.3857    0.9553   -0.9643 C   0  0  0  0  0  0  0  0  0  0  0  0
    2.9374    0.3913   -1.3382 H   0  0  0  0  0  0  0  0  0  0  0  0
    4.3871    0.9479    0.9500 H   0  0  0  0  0  0  0  0  0  0  0  0
    5.2859    1.4093   -1.9570 H   0  0  0  0  0  0  0  0  0  0  0  0
    6.3687    1.2341   -0.5707 H   0  0  0  0  0  0  0  0  0  0  0  0
    5.3656   -0.1323   -1.0927 H   0  0  0  0  0  0  0  0  0  0  0  0
    5.2567    3.3666    0.9841 N   0  0  0  0  0  0  0  0  0  0  0  0
    5.4680    4.7640    1.2817 C   0  0  0  0  0  0  0  0  0  0  0  0
    5.8348    2.6862    1.4684 H   0  0  0  0  0  0  0  0  0  0  0  0
    6.2244    5.1750    0.5970 H   0  0  0  0  0  0  0  0  0  0  0  0
    4.5228    5.3125    1.1557 H   0  0  0  0  0  0  0  0  0  0  0  0
    5.8173    4.8690    2.3195 H   0  0  0  0  0  0  0  0  0  0  0  0
 22 24  2  0  0  0  0
 24 26  1  0  0  0  0
 25 26  2  0  0  0  0
 23 25  1  0  0  0  0
 21 22  1  0  0  0  0
 22 23  1  0  0  0  0
  1  3  1  0  0  0  0
  1  7  1  0  0  0  0
  1  2  2  0  0  0  0
 35 36  1  0  0  0  0
 36 44  1  0  0  0  0
 36 37  2  0  0  0  0
  8  9  1  0  0  0  0
  9 17  1  0  0  0  0
  9 10  2  0  0  0  0
 18 19  1  0  0  0  0
 19 34  1  0  0  0  0
 19 20  2  0  0  0  0
 35 38  1  0  0  0  0
  8 11  1  0  0  0  0
 44 45  1  0  0  0  0
 18 21  1  0  0  0  0
 34 35  1  0  0  0  0
  7  8  1  0  0  0  0
 17 18  1  0  0  0  0
 24 32  1  0  0  0  0
 25 33  1  0  0  0  0
  3  4  1  0  0  0  0
  3  5  1  0  0  0  0
  3  6  1  0  0  0  0
 38 41  1  0  0  0  0
 38 42  1  0  0  0  0
 38 43  1  0  0  0  0
 11 14  1  0  0  0  0
 11 15  1  0  0  0  0
 11 16  1  0  0  0  0
 45 47  1  0  0  0  0
 45 48  1  0  0  0  0
 45 49  1  0  0  0  0
 21 29  1  0  0  0  0
 21 30  1  0  0  0  0
 35 40  1  0  0  0  0
  8 13  1  0  0  0  0
 18 28  1  0  0  0  0
 23 31  1  0  0  0  0
 44 46  1  0  0  0  0
  7 12  1  0  0  0  0
 34 39  1  0  0  0  0
 17 27  1  0  0  0  0
M  END
$$$$

  -OEChem-05262214473D

 49 49  0     1  0  0  0  0  0999 V2000
   -1.5619    0.5658    3.7981 C   0  0  0  0  0  0  0  0  0  0  0  0
   -0.6145   -0.0489    3.3224 O   0  0  0  0  0  0  0  0  0  0  0  0
   -1.9938    0.2834    5.1988 C   0  0  0  0  0  0  0  0  0  0  0  0
   -2.7535   -0.5129    5.2522 H   0  0  0  0  0  0  0  0  0  0  0  0
   -1.1626   -0.0642    5.8331 H   0  0  0  0  0  0  0  0  0  0  0  0
   -2.4318    1.1383    5.7384 H   0  0  0  0  0  0  0  0  0  0  0  0
   -2.3116    1.5383    3.1570 N   0  0  0  0  0  0  0  0  0  0  0  0
   -2.0648    1.9643    1.8046 C   0  0  2  0  0  0  0  0  0  0  0  0
   -0.7298    1.3789    1.3634 C   0  0  0  0  0  0  0  0  0  0  0  0
    0.1423    1.0262    2.1547 O   0  0  0  0  0  0  0  0  0  0  0  0
   -2.0560    3.4811    1.6952 C   0  0  0  0  0  0  0  0  0  0  0  0
   -3.0767    1.9741    3.6688 H   0  0  0  0  0  0  0  0  0  0  0  0
   -2.8689    1.5458    1.1895 H   0  0  0  0  0  0  0  0  0  0  0  0
   -1.2569    3.9183    2.3049 H   0  0  0  0  0  0  0  0  0  0  0  0
   -1.8965    3.8033    0.6609 H   0  0  0  0  0  0  0  0  0  0  0  0
   -3.0062    3.9023    2.0409 H   0  0  0  0  0  0  0  0  0  0  0  0
   -0.6071    1.3358   -0.0200 N   0  0  0  0  0  0  0  0  0  0  0  0
    0.5702    0.8350   -0.6836 C   0  0  2  0  0  0  0  0  0  0  0  0
    1.7782    1.4322    0.0293 C   0  0  0  0  0  0  0  0  0  0  0  0
    1.7137    1.9329    1.1500 O   0  0  0  0  0  0  0  0  0  0  0  0
    0.5954    1.2006   -2.1722 C   0  0  0  0  0  0  0  0  0  0  0  0
   -0.5334    0.5668   -2.9481 C   0  0  0  0  0  0  0  0  0  0  0  0
   -0.5462   -0.7573   -3.2853 N   0  0  0  0  0  0  0  0  0  0  0  0
   -1.7038    1.0726   -3.4626 C   0  0  0  0  0  0  0  0  0  0  0  0
   -1.7017   -0.9928   -3.9773 C   0  0  0  0  0  0  0  0  0  0  0  0
   -2.4267    0.0966   -4.1018 N   0  0  0  0  0  0  0  0  0  0  0  0
   -1.3903    1.6325   -0.5973 H   0  0  0  0  0  0  0  0  0  0  0  0
    0.5706   -0.2520   -0.5411 H   0  0  0  0  0  0  0  0  0  0  0  0
    1.5572    0.9134   -2.6183 H   0  0  0  0  0  0  0  0  0  0  0  0
    0.5322    2.2893   -2.3009 H   0  0  0  0  0  0  0  0  0  0  0  0
    0.1672   -1.4402   -3.0661 H   0  0  0  0  0  0  0  0  0  0  0  0
   -2.0651    2.0896   -3.4065 H   0  0  0  0  0  0  0  0  0  0  0  0
   -1.9525   -1.9719   -4.3598 H   0  0  0  0  0  0  0  0  0  0  0  0
    2.9417    1.2932   -0.7147 N   0  0  0  0  0  0  0  0  0  0  0  0
    4.2342    1.7529   -0.2598 C   0  0  2  0  0  0  0  0  0  0  0  0
    4.0836    3.1957    0.2040 C   0  0  0  0  0  0  0  0  0  0  0  0
    3.1749    3.9311   -0.1761 O   0  0  0  0  0  0  0  0  0  0  0  0
    5.2793    1.6414   -1.3588 C   0  0  0  0  0  0  0  0  0  0  0  0
    2.8817    0.8458   -1.6246 H   0  0  0  0  0  0  0  0  0  0  0  0
    4.5125    1.1222    0.5916 H   0  0  0  0  0  0  0  0  0  0  0  0
    5.0175    2.2666   -2.2203 H   0  0  0  0  0  0  0  0  0  0  0  0
    6.2640    1.9632   -1.0040 H   0  0  0  0  0  0  0  0  0  0  0  0
    5.3650    0.6081   -1.7118 H   0  0  0  0  0  0  0  0  0  0  0  0
    5.1078    3.5787    1.0587 N   0  0  0  0  0  0  0  0  0  0  0  0
    5.1959    4.9044    1.6250 C   0  0  0  0  0  0  0  0  0  0  0  0
    5.8090    2.8977    1.3351 H   0  0  0  0  0  0  0  0  0  0  0  0
    5.8194    5.5393    0.9782 H   0  0  0  0  0  0  0  0  0  0  0  0
    4.1879    5.3378    1.7021 H   0  0  0  0  0  0  0  0  0  0  0  0
    5.6475    4.8460    2.6263 H   0  0  0  0  0  0  0  0  0  0  0  0
 22 24  2  0  0  0  0
 24 26  1  0  0  0  0
 25 26  2  0  0  0  0
 23 25  1  0  0  0  0
 21 22  1  0  0  0  0
 22 23  1  0  0  0  0
  1  3  1  0  0  0  0
  1  7  1  0  0  0  0
  1  2  2  0  0  0  0
 35 36  1  0  0  0  0
 36 44  1  0  0  0  0
 36 37  2  0  0  0  0
  8  9  1  0  0  0  0
  9 17  1  0  0  0  0
  9 10  2  0  0  0  0
 18 19  1  0  0  0  0
 19 34  1  0  0  0  0
 19 20  2  0  0  0  0
 35 38  1  0  0  0  0
  8 11  1  0  0  0  0
 44 45  1  0  0  0  0
 18 21  1  0  0  0  0
 34 35  1  0  0  0  0
  7  8  1  0  0  0  0
 17 18  1  0  0  0  0
 24 32  1  0  0  0  0
 25 33  1  0  0  0  0
  3  4  1  0  0  0  0
  3  5  1  0  0  0  0
  3  6  1  0  0  0  0
 38 41  1  0  0  0  0
 38 42  1  0  0  0  0
 38 43  1  0  0  0  0
 11 14  1  0  0  0  0
 11 15  1  0  0  0  0
 11 16  1  0  0  0  0
 45 47  1  0  0  0  0
 45 48  1  0  0  0  0
 45 49  1  0  0  0  0
 21 29  1  0  0  0  0
 21 30  1  0  0  0  0
 35 40  1  0  0  0  0
  8 13  1  0  0  0  0
 18 28  1  0  0  0  0
 23 31  1  0  0  0  0
 44 46  1  0  0  0  0
  7 12  1  0  0  0  0
 34 39  1  0  0  0  0
 17 27  1  0  0  0  0
M  END
$$$$

  -OEChem-05262214473D

 49 49  0     1  0  0  0  0  0999 V2000
   -1.5619    0.5658    3.7981 C   0  0  0  0  0  0  0  0  0  0  0  0
   -0.6145   -0.0489    3.3224 O   0  0  0  0  0  0  0  0  0  0  0  0
   -1.9938    0.2834    5.1988 C   0  0  0  0  0  0  0  0  0  0  0  0
   -2.7535   -0.5129    5.2522 H   0  0  0  0  0  0  0  0  0  0  0  0
   -1.1626   -0.0642    5.8331 H   0  0  0  0  0  0  0  0  0  0  0  0
   -2.4318    1.1383    5.7384 H   0  0  0  0  0  0  0  0  0  0  0  0
   -2.3116    1.5383    3.1570 N   0  0  0  0  0  0  0  0  0  0  0  0
   -2.0648    1.9643    1.8046 C   0  0  2  0  0  0  0  0  0  0  0  0
   -0.7298    1.3789    1.3634 C   0  0  0  0  0  0  0  0  0  0  0  0
    0.1423    1.0262    2.1547 O   0  0  0  0  0  0  0  0  0  0  0  0
   -2.0560    3.4811    1.6952 C   0  0  0  0  0  0  0  0  0  0  0  0
   -3.0767    1.9741    3.6688 H   0  0  0  0  0  0  0  0  0  0  0  0
   -2.8689    1.5458    1.1895 H   0  0  0  0  0  0  0  0  0  0  0  0
   -1.2569    3.9183    2.3049 H   0  0  0  0  0  0  0  0  0  0  0  0
   -1.8965    3.8033    0.6609 H   0  0  0  0  0  0  0  0  0  0  0  0
   -3.0062    3.9023    2.0409 H   0  0  0  0  0  0  0  0  0  0  0  0
   -0.6071    1.3358   -0.0200 N   0  0  0  0  0  0  0  0  0  0  0  0
    0.5702    0.8350   -0.6836 C   0  0  2  0  0  0  0  0  0  0  0  0
    1.7782    1.4322    0.0293 C   0  0  0  0  0  0  0  0  0  0  0  0
    1.7870    1.6872    1.2317 O   0  0  0  0  0  0  0  0  0  0  0  0
    0.5954    1.2006   -2.1722 C   0  0  0  0  0  0  0  0  0  0  0  0
   -0.5334    0.5668   -2.9481 C   0  0  0  0  0  0  0  0  0  0  0  0
   -0.5462   -0.7573   -3.2853 N   0  0  0  0  0  0  0  0  0  0  0  0
   -1.7038    1.0726   -3.4626 C   0  0  0  0  0  0  0  0  0  0  0  0
   -1.7017   -0.9928   -3.9773 C   0  0  0  0  0  0  0  0  0  0  0  0
   -2.4267    0.0966   -4.1018 N   0  0  0  0  0  0  0  0  0  0  0  0
   -1.3903    1.6325   -0.5973 H   0  0  0  0  0  0  0  0  0  0  0  0
    0.5706   -0.2520   -0.5411 H   0  0  0  0  0  0  0  0  0  0  0  0
    1.5572    0.9134   -2.6183 H   0  0  0  0  0  0  0  0  0  0  0  0
    0.5322    2.2893   -2.3009 H   0  0  0  0  0  0  0  0  0  0  0  0
    0.1672   -1.4402   -3.0661 H   0  0  0  0  0  0  0  0  0  0  0  0
   -2.0651    2.0896   -3.4065 H   0  0  0  0  0  0  0  0  0  0  0  0
   -1.9525   -1.9719   -4.3598 H   0  0  0  0  0  0  0  0  0  0  0  0
    2.8575    1.5982   -0.8275 N   0  0  0  0  0  0  0  0  0  0  0  0
    4.1346    2.1243   -0.4023 C   0  0  2  0  0  0  0  0  0  0  0  0
    3.8795    3.4135    0.3674 C   0  0  0  0  0  0  0  0  0  0  0  0
    2.8578    4.0837    0.2335 O   0  0  0  0  0  0  0  0  0  0  0  0
    5.0536    2.3722   -1.5884 C   0  0  0  0  0  0  0  0  0  0  0  0
    2.7440    1.3368   -1.8025 H   0  0  0  0  0  0  0  0  0  0  0  0
    4.5762    1.3792    0.2684 H   0  0  0  0  0  0  0  0  0  0  0  0
    4.6278    3.1161   -2.2716 H   0  0  0  0  0  0  0  0  0  0  0  0
    6.0307    2.7437   -1.2624 H   0  0  0  0  0  0  0  0  0  0  0  0
    5.2121    1.4501   -2.1580 H   0  0  0  0  0  0  0  0  0  0  0  0
    4.9459    3.7503    1.1894 N   0  0  0  0  0  0  0  0  0  0  0  0
    4.9510    4.9368    2.0129 C   0  0  0  0  0  0  0  0  0  0  0  0
    5.7448    3.1263    1.2523 H   0  0  0  0  0  0  0  0  0  0  0  0
    5.4226    5.7640    1.4622 H   0  0  0  0  0  0  0  0  0  0  0  0
    3.9166    5.2097    2.2691 H   0  0  0  0  0  0  0  0  0  0  0  0
    5.5175    4.7404    2.9352 H   0  0  0  0  0  0  0  0  0  0  0  0
 22 24  2  0  0  0  0
 24 26  1  0  0  0  0
 25 26  2  0  0  0  0
 23 25  1  0  0  0  0
 21 22  1  0  0  0  0
 22 23  1  0  0  0  0
  1  3  1  0  0  0  0
  1  7  1  0  0  0  0
  1  2  2  0  0  0  0
 35 36  1  0  0  0  0
 36 44  1  0  0  0  0
 36 37  2  0  0  0  0
  8  9  1  0  0  0  0
  9 17  1  0  0  0  0
  9 10  2  0  0  0  0
 18 19  1  0  0  0  0
 19 34  1  0  0  0  0
 19 20  2  0  0  0  0
 35 38  1  0  0  0  0
  8 11  1  0  0  0  0
 44 45  1  0  0  0  0
 18 21  1  0  0  0  0
 34 35  1  0  0  0  0
  7  8  1  0  0  0  0
 17 18  1  0  0  0  0
 24 32  1  0  0  0  0
 25 33  1  0  0  0  0
  3  4  1  0  0  0  0
  3  5  1  0  0  0  0
  3  6  1  0  0  0  0
 38 41  1  0  0  0  0
 38 42  1  0  0  0  0
 38 43  1  0  0  0  0
 11 14  1  0  0  0  0
 11 15  1  0  0  0  0
 11 16  1  0  0  0  0
 45 47  1  0  0  0  0
 45 48  1  0  0  0  0
 45 49  1  0  0  0  0
 21 29  1  0  0  0  0
 21 30  1  0  0  0  0
 35 40  1  0  0  0  0
  8 13  1  0  0  0  0
 18 28  1  0  0  0  0
 23 31  1  0  0  0  0
 44 46  1  0  0  0  0
  7 12  1  0  0  0  0
 34 39  1  0  0  0  0
 17 27  1  0  0  0  0
M  END
$$$$

  -OEChem-05262214473D

 49 49  0     1  0  0  0  0  0999 V2000
   -1.5619    0.5658    3.7981 C   0  0  0  0  0  0  0  0  0  0  0  0
   -0.6145   -0.0489    3.3224 O   0  0  0  0  0  0  0  0  0  0  0  0
   -1.9938    0.2834    5.1988 C   0  0  0  0  0  0  0  0  0  0  0  0
   -2.7535   -0.5129    5.2522 H   0  0  0  0  0  0  0  0  0  0  0  0
   -1.1626   -0.0642    5.8331 H   0  0  0  0  0  0  0  0  0  0  0  0
   -2.4318    1.1383    5.7384 H   0  0  0  0  0  0  0  0  0  0  0  0
   -2.3116    1.5383    3.1570 N   0  0  0  0  0  0  0  0  0  0  0  0
   -2.0648    1.9643    1.8046 C   0  0  2  0  0  0  0  0  0  0  0  0
   -0.7298    1.3789    1.3634 C   0  0  0  0  0  0  0  0  0  0  0  0
    0.1423    1.0262    2.1547 O   0  0  0  0  0  0  0  0  0  0  0  0
   -2.0560    3.4811    1.6952 C   0  0  0  0  0  0  0  0  0  0  0  0
   -3.0767    1.9741    3.6688 H   0  0  0  0  0  0  0  0  0  0  0  0
   -2.8689    1.5458    1.1895 H   0  0  0  0  0  0  0  0  0  0  0  0
   -1.2569    3.9183    2.3049 H   0  0  0  0  0  0  0  0  0  0  0  0
   -1.8965    3.8033    0.6609 H   0  0  0  0  0  0  0  0  0  0  0  0
   -3.0062    3.9023    2.0409 H   0  0  0  0  0  0  0  0  0  0  0  0
   -0.6071    1.3358   -0.0200 N   0  0  0  0  0  0  0  0  0  0  0  0
    0.5702    0.8350   -0.6836 C   0  0  2  0  0  0  0  0  0  0  0  0
    1.7782    1.4322    0.0293 C   0  0  0  0  0  0  0  0  0  0  0  0
    1.8958    1.4419    1.2528 O   0  0  0  0  0  0  0  0  0  0  0  0
    0.5954    1.2006   -2.1722 C   0  0  0  0  0  0  0  0  0  0  0  0
   -0.5334    0.5668   -2.9481 C   0  0  0  0  0  0  0  0  0  0  0  0
   -0.5462   -0.7573   -3.2853 N   0  0  0  0  0  0  0  0  0  0  0  0
   -1.7038    1.0726   -3.4626 C   0  0  0  0  0  0  0  0  0  0  0  0
   -1.7017   -0.9928   -3.9773 C   0  0  0  0  0  0  0  0  0  0  0  0
   -2.4267    0.0966   -4.1018 N   0  0  0  0  0  0  0  0  0  0  0  0
   -1.3903    1.6325   -0.5973 H   0  0  0  0  0  0  0  0  0  0  0  0
    0.5706   -0.2520   -0.5411 H   0  0  0  0  0  0  0  0  0  0  0  0
    1.5572    0.9134   -2.6183 H   0  0  0  0  0  0  0  0  0  0  0  0
    0.5322    2.2893   -2.3009 H   0  0  0  0  0  0  0  0  0  0  0  0
    0.1672   -1.4402   -3.0661 H   0  0  0  0  0  0  0  0  0  0  0  0
   -2.0651    2.0896   -3.4065 H   0  0  0  0  0  0  0  0  0  0  0  0
   -1.9525   -1.9719   -4.3598 H   0  0  0  0  0  0  0  0  0  0  0  0
    2.7278    1.9058   -0.8654 N   0  0  0  0  0  0  0  0  0  0  0  0
    3.9791    2.5003   -0.4537 C   0  0  2  0  0  0  0  0  0  0  0  0
    3.6726    3.5657    0.5906 C   0  0  0  0  0  0  0  0  0  0  0  0
    2.5745    4.1087    0.6926 O   0  0  0  0  0  0  0  0  0  0  0  0
    4.7238    3.0978   -1.6374 C   0  0  0  0  0  0  0  0  0  0  0  0
    2.5334    1.8309   -1.8596 H   0  0  0  0  0  0  0  0  0  0  0  0
    4.5738    1.7014    0.0025 H   0  0  0  0  0  0  0  0  0  0  0  0
    4.1434    3.9001   -2.1074 H   0  0  0  0  0  0  0  0  0  0  0  0
    5.6846    3.5224   -1.3283 H   0  0  0  0  0  0  0  0  0  0  0  0
    4.9172    2.3364   -2.4007 H   0  0  0  0  0  0  0  0  0  0  0  0
    4.7819    3.8697    1.3672 N   0  0  0  0  0  0  0  0  0  0  0  0
    4.7498    4.8588    2.4191 C   0  0  0  0  0  0  0  0  0  0  0  0
    5.6469    3.3563    1.2256 H   0  0  0  0  0  0  0  0  0  0  0  0
    5.0613    5.8338    2.0160 H   0  0  0  0  0  0  0  0  0  0  0  0
    3.7276    4.9368    2.8179 H   0  0  0  0  0  0  0  0  0  0  0  0
    5.4360    4.5593    3.2250 H   0  0  0  0  0  0  0  0  0  0  0  0
 22 24  2  0  0  0  0
 24 26  1  0  0  0  0
 25 26  2  0  0  0  0
 23 25  1  0  0  0  0
 21 22  1  0  0  0  0
 22 23  1  0  0  0  0
  1  3  1  0  0  0  0
  1  7  1  0  0  0  0
  1  2  2  0  0  0  0
 35 36  1  0  0  0  0
 36 44  1  0  0  0  0
 36 37  2  0  0  0  0
  8  9  1  0  0  0  0
  9 17  1  0  0  0  0
  9 10  2  0  0  0  0
 18 19  1  0  0  0  0
 19 34  1  0  0  0  0
 19 20  2  0  0  0  0
 35 38  1  0  0  0  0
  8 11  1  0  0  0  0
 44 45  1  0  0  0  0
 18 21  1  0  0  0  0
 34 35  1  0  0  0  0
  7  8  1  0  0  0  0
 17 18  1  0  0  0  0
 24 32  1  0  0  0  0
 25 33  1  0  0  0  0
  3  4  1  0  0  0  0
  3  5  1  0  0  0  0
  3  6  1  0  0  0  0
 38 41  1  0  0  0  0
 38 42  1  0  0  0  0
 38 43  1  0  0  0  0
 11 14  1  0  0  0  0
 11 15  1  0  0  0  0
 11 16  1  0  0  0  0
 45 47  1  0  0  0  0
 45 48  1  0  0  0  0
 45 49  1  0  0  0  0
 21 29  1  0  0  0  0
 21 30  1  0  0  0  0
 35 40  1  0  0  0  0
  8 13  1  0  0  0  0
 18 28  1  0  0  0  0
 23 31  1  0  0  0  0
 44 46  1  0  0  0  0
  7 12  1  0  0  0  0
 34 39  1  0  0  0  0
 17 27  1  0  0  0  0
M  END
$$$$

  -OEChem-05262214473D

 49 49  0     1  0  0  0  0  0999 V2000
   -1.5619    0.5658    3.7981 C   0  0  0  0  0  0  0  0  0  0  0  0
   -0.6145   -0.0489    3.3224 O   0  0  0  0  0  0  0  0  0  0  0  0
   -1.9938    0.2834    5.1988 C   0  0  0  0  0  0  0  0  0  0  0  0
   -2.7535   -0.5129    5.2522 H   0  0  0  0  0  0  0  0  0  0  0  0
   -1.1626   -0.0642    5.8331 H   0  0  0  0  0  0  0  0  0  0  0  0
   -2.4318    1.1383    5.7384 H   0  0  0  0  0  0  0  0  0  0  0  0
   -2.3116    1.5383    3.1570 N   0  0  0  0  0  0  0  0  0  0  0  0
   -2.0648    1.9643    1.8046 C   0  0  2  0  0  0  0  0  0  0  0  0
   -0.7298    1.3789    1.3634 C   0  0  0  0  0  0  0  0  0  0  0  0
    0.1423    1.0262    2.1547 O   0  0  0  0  0  0  0  0  0  0  0  0
   -2.0560    3.4811    1.6952 C   0  0  0  0  0  0  0  0  0  0  0  0
   -3.0767    1.9741    3.6688 H   0  0  0  0  0  0  0  0  0  0  0  0
   -2.8689    1.5458    1.1895 H   0  0  0  0  0  0  0  0  0  0  0  0
   -1.2569    3.9183    2.3049 H   0  0  0  0  0  0  0  0  0  0  0  0
   -1.8965    3.8033    0.6609 H   0  0  0  0  0  0  0  0  0  0  0  0
   -3.0062    3.9023    2.0409 H   0  0  0  0  0  0  0  0  0  0  0  0
   -0.6071    1.3358   -0.0200 N   0  0  0  0  0  0  0  0  0  0  0  0
    0.5702    0.8350   -0.6836 C   0  0  2  0  0  0  0  0  0  0  0  0
    1.7782    1.4322    0.0293 C   0  0  0  0  0  0  0  0  0  0  0  0
    2.0327    1.2138    1.2118 O   0  0  0  0  0  0  0  0  0  0  0  0
    0.5954    1.2006   -2.1722 C   0  0  0  0  0  0  0  0  0  0  0  0
   -0.5334    0.5668   -2.9481 C   0  0  0  0  0  0  0  0  0  0  0  0
   -0.5462   -0.7573   -3.2853 N   0  0  0  0  0  0  0  0  0  0  0  0
   -1.7038    1.0726   -3.4626 C   0  0  0  0  0  0  0  0  0  0  0  0
   -1.7017   -0.9928   -3.9773 C   0  0  0  0  0  0  0  0  0  0  0  0
   -2.4267    0.0966   -4.1018 N   0  0  0  0  0  0  0  0  0  0  0  0
   -1.3903    1.6325   -0.5973 H   0  0  0  0  0  0  0  0  0  0  0  0
    0.5706   -0.2520   -0.5411 H   0  0  0  0  0  0  0  0  0  0  0  0
    1.5572    0.9134   -2.6183 H   0  0  0  0  0  0  0  0  0  0  0  0
    0.5322    2.2893   -2.3009 H   0  0  0  0  0  0  0  0  0  0  0  0
    0.1672   -1.4402   -3.0661 H   0  0  0  0  0  0  0  0  0  0  0  0
   -2.0651    2.0896   -3.4065 H   0  0  0  0  0  0  0  0  0  0  0  0
   -1.9525   -1.9719   -4.3598 H   0  0  0  0  0  0  0  0  0  0  0  0
    2.5614    2.1950   -0.8258 N   0  0  0  0  0  0  0  0  0  0  0  0
    3.7782    2.8552   -0.4104 C   0  0  2  0  0  0  0  0  0  0  0  0
    3.4769    3.6418    0.8584 C   0  0  0  0  0  0  0  0  0  0  0  0
    2.3444    4.0044    1.1699 O   0  0  0  0  0  0  0  0  0  0  0  0
    4.3125    3.7688   -1.5024 C   0  0  0  0  0  0  0  0  0  0  0  0
    2.2645    2.2944   -1.7921 H   0  0  0  0  0  0  0  0  0  0  0  0
    4.5056    2.0669   -0.1881 H   0  0  0  0  0  0  0  0  0  0  0  0
    3.5972    4.5651   -1.7389 H   0  0  0  0  0  0  0  0  0  0  0  0
    5.2494    4.2462   -1.1971 H   0  0  0  0  0  0  0  0  0  0  0  0
    4.5005    3.2067   -2.4236 H   0  0  0  0  0  0  0  0  0  0  0  0
    4.6271    3.9286    1.5801 N   0  0  0  0  0  0  0  0  0  0  0  0
    4.6061    4.6759    2.8159 C   0  0  0  0  0  0  0  0  0  0  0  0
    5.5217    3.5720    1.2570 H   0  0  0  0  0  0  0  0  0  0  0  0
    4.7600    5.7438    2.6019 H   0  0  0  0  0  0  0  0  0  0  0  0
    3.6337    4.5377    3.3113 H   0  0  0  0  0  0  0  0  0  0  0  0
    5.4085    4.3150    3.4761 H   0  0  0  0  0  0  0  0  0  0  0  0
 22 24  2  0  0  0  0
 24 26  1  0  0  0  0
 25 26  2  0  0  0  0
 23 25  1  0  0  0  0
 21 22  1  0  0  0  0
 22 23  1  0  0  0  0
  1  3  1  0  0  0  0
  1  7  1  0  0  0  0
  1  2  2  0  0  0  0
 35 36  1  0  0  0  0
 36 44  1  0  0  0  0
 36 37  2  0  0  0  0
  8  9  1  0  0  0  0
  9 17  1  0  0  0  0
  9 10  2  0  0  0  0
 18 19  1  0  0  0  0
 19 34  1  0  0  0  0
 19 20  2  0  0  0  0
 35 38  1  0  0  0  0
  8 11  1  0  0  0  0
 44 45  1  0  0  0  0
 18 21  1  0  0  0  0
 34 35  1  0  0  0  0
  7  8  1  0  0  0  0
 17 18  1  0  0  0  0
 24 32  1  0  0  0  0
 25 33  1  0  0  0  0
  3  4  1  0  0  0  0
  3  5  1  0  0  0  0
  3  6  1  0  0  0  0
 38 41  1  0  0  0  0
 38 42  1  0  0  0  0
 38 43  1  0  0  0  0
 11 14  1  0  0  0  0
 11 15  1  0  0  0  0
 11 16  1  0  0  0  0
 45 47  1  0  0  0  0
 45 48  1  0  0  0  0
 45 49  1  0  0  0  0
 21 29  1  0  0  0  0
 21 30  1  0  0  0  0
 35 40  1  0  0  0  0
  8 13  1  0  0  0  0
 18 28  1  0  0  0  0
 23 31  1  0  0  0  0
 44 46  1  0  0  0  0
  7 12  1  0  0  0  0
 34 39  1  0  0  0  0
 17 27  1  0  0  0  0
M  END
$$$$

  -OEChem-05262214473D

 49 49  0     1  0  0  0  0  0999 V2000
   -1.5619    0.5658    3.7981 C   0  0  0  0  0  0  0  0  0  0  0  0
   -0.6145   -0.0489    3.3224 O   0  0  0  0  0  0  0  0  0  0  0  0
   -1.9938    0.2834    5.1988 C   0  0  0  0  0  0  0  0  0  0  0  0
   -2.7535   -0.5129    5.2522 H   0  0  0  0  0  0  0  0  0  0  0  0
   -1.1626   -0.0642    5.8331 H   0  0  0  0  0  0  0  0  0  0  0  0
   -2.4318    1.1383    5.7384 H   0  0  0  0  0  0  0  0  0  0  0  0
   -2.3116    1.5383    3.1570 N   0  0  0  0  0  0  0  0  0  0  0  0
   -2.0648    1.9643    1.8046 C   0  0  2  0  0  0  0  0  0  0  0  0
   -0.7298    1.3789    1.3634 C   0  0  0  0  0  0  0  0  0  0  0  0
    0.1423    1.0262    2.1547 O   0  0  0  0  0  0  0  0  0  0  0  0
   -2.0560    3.4811    1.6952 C   0  0  0  0  0  0  0  0  0  0  0  0
   -3.0767    1.9741    3.6688 H   0  0  0  0  0  0  0  0  0  0  0  0
   -2.8689    1.5458    1.1895 H   0  0  0  0  0  0  0  0  0  0  0  0
   -1.2569    3.9183    2.3049 H   0  0  0  0  0  0  0  0  0  0  0  0
   -1.8965    3.8033    0.6609 H   0  0  0  0  0  0  0  0  0  0  0  0
   -3.0062    3.9023    2.0409 H   0  0  0  0  0  0  0  0  0  0  0  0
   -0.6071    1.3358   -0.0200 N   0  0  0  0  0  0  0  0  0  0  0  0
    0.5702    0.8350   -0.6836 C   0  0  2  0  0  0  0  0  0  0  0  0
    1.7782    1.4322    0.0293 C   0  0  0  0  0  0  0  0  0  0  0  0
    2.1884    1.0184    1.1116 O   0  0  0  0  0  0  0  0  0  0  0  0
    0.5954    1.2006   -2.1722 C   0  0  0  0  0  0  0  0  0  0  0  0
   -0.5334    0.5668   -2.9481 C   0  0  0  0  0  0  0  0  0  0  0  0
   -0.5462   -0.7573   -3.2853 N   0  0  0  0  0  0  0  0  0  0  0  0
   -1.7038    1.0726   -3.4626 C   0  0  0  0  0  0  0  0  0  0  0  0
   -1.7017   -0.9928   -3.9773 C   0  0  0  0  0  0  0  0  0  0  0  0
   -2.4267    0.0966   -4.1018 N   0  0  0  0  0  0  0  0  0  0  0  0
   -1.3903    1.6325   -0.5973 H   0  0  0  0  0  0  0  0  0  0  0  0
    0.5706   -0.2520   -0.5411 H   0  0  0  0  0  0  0  0  0  0  0  0
    1.5572    0.9134   -2.6183 H   0  0  0  0  0  0  0  0  0  0  0  0
    0.5322    2.2893   -2.3009 H   0  0  0  0  0  0  0  0  0  0  0  0
    0.1672   -1.4402   -3.0661 H   0  0  0  0  0  0  0  0  0  0  0  0
   -2.0651    2.0896   -3.4065 H   0  0  0  0  0  0  0  0  0  0  0  0
   -1.9525   -1.9719   -4.3598 H   0  0  0  0  0  0  0  0  0  0  0  0
    2.3697    2.4461   -0.7113 N   0  0  0  0  0  0  0  0  0  0  0  0
    3.5455    3.1648   -0.2755 C   0  0  2  0  0  0  0  0  0  0  0  0
    3.3058    3.6368    1.1525 C   0  0  0  0  0  0  0  0  0  0  0  0
    2.1831    3.7779    1.6328 O   0  0  0  0  0  0  0  0  0  0  0  0
    3.8476    4.3395   -1.1928 C   0  0  0  0  0  0  0  0  0  0  0  0
    1.9554    2.6957   -1.6045 H   0  0  0  0  0  0  0  0  0  0  0  0
    4.3761    2.4507   -0.2902 H   0  0  0  0  0  0  0  0  0  0  0  0
    3.0265    5.0657   -1.1912 H   0  0  0  0  0  0  0  0  0  0  0  0
    4.7548    4.8657   -0.8779 H   0  0  0  0  0  0  0  0  0  0  0  0
    3.9903    4.0015   -2.2249 H   0  0  0  0  0  0  0  0  0  0  0  0
    4.4921    3.9232    1.8135 N   0  0  0  0  0  0  0  0  0  0  0  0
    4.5297    4.4004    3.1762 C   0  0  0  0  0  0  0  0  0  0  0  0
    5.3778    3.7588    1.3443 H   0  0  0  0  0  0  0  0  0  0  0  0
    4.5393    5.5003    3.1799 H   0  0  0  0  0  0  0  0  0  0  0  0
    3.6413    4.0398    3.7155 H   0  0  0  0  0  0  0  0  0  0  0  0
    5.4370    4.0242    3.6714 H   0  0  0  0  0  0  0  0  0  0  0  0
 22 24  2  0  0  0  0
 24 26  1  0  0  0  0
 25 26  2  0  0  0  0
 23 25  1  0  0  0  0
 21 22  1  0  0  0  0
 22 23  1  0  0  0  0
  1  3  1  0  0  0  0
  1  7  1  0  0  0  0
  1  2  2  0  0  0  0
 35 36  1  0  0  0  0
 36 44  1  0  0  0  0
 36 37  2  0  0  0  0
  8  9  1  0  0  0  0
  9 17  1  0  0  0  0
  9 10  2  0  0  0  0
 18 19  1  0  0  0  0
 19 34  1  0  0  0  0
 19 20  2  0  0  0  0
 35 38  1  0  0  0  0
  8 11  1  0  0  0  0
 44 45  1  0  0  0  0
 18 21  1  0  0  0  0
 34 35  1  0  0  0  0
  7  8  1  0  0  0  0
 17 18  1  0  0  0  0
 24 32  1  0  0  0  0
 25 33  1  0  0  0  0
  3  4  1  0  0  0  0
  3  5  1  0  0  0  0
  3  6  1  0  0  0  0
 38 41  1  0  0  0  0
 38 42  1  0  0  0  0
 38 43  1  0  0  0  0
 11 14  1  0  0  0  0
 11 15  1  0  0  0  0
 11 16  1  0  0  0  0
 45 47  1  0  0  0  0
 45 48  1  0  0  0  0
 45 49  1  0  0  0  0
 21 29  1  0  0  0  0
 21 30  1  0  0  0  0
 35 40  1  0  0  0  0
  8 13  1  0  0  0  0
 18 28  1  0  0  0  0
 23 31  1  0  0  0  0
 44 46  1  0  0  0  0
  7 12  1  0  0  0  0
 34 39  1  0  0  0  0
 17 27  1  0  0  0  0
M  END
$$$$

  -OEChem-05262214473D

 49 49  0     1  0  0  0  0  0999 V2000
   -1.5619    0.5658    3.7981 C   0  0  0  0  0  0  0  0  0  0  0  0
   -0.6145   -0.0489    3.3224 O   0  0  0  0  0  0  0  0  0  0  0  0
   -1.9938    0.2834    5.1988 C   0  0  0  0  0  0  0  0  0  0  0  0
   -2.7535   -0.5129    5.2522 H   0  0  0  0  0  0  0  0  0  0  0  0
   -1.1626   -0.0642    5.8331 H   0  0  0  0  0  0  0  0  0  0  0  0
   -2.4318    1.1383    5.7384 H   0  0  0  0  0  0  0  0  0  0  0  0
   -2.3116    1.5383    3.1570 N   0  0  0  0  0  0  0  0  0  0  0  0
   -2.0648    1.9643    1.8046 C   0  0  2  0  0  0  0  0  0  0  0  0
   -0.7298    1.3789    1.3634 C   0  0  0  0  0  0  0  0  0  0  0  0
    0.1423    1.0262    2.1547 O   0  0  0  0  0  0  0  0  0  0  0  0
   -2.0560    3.4811    1.6952 C   0  0  0  0  0  0  0  0  0  0  0  0
   -3.0767    1.9741    3.6688 H   0  0  0  0  0  0  0  0  0  0  0  0
   -2.8689    1.5458    1.1895 H   0  0  0  0  0  0  0  0  0  0  0  0
   -1.2569    3.9183    2.3049 H   0  0  0  0  0  0  0  0  0  0  0  0
   -1.8965    3.8033    0.6609 H   0  0  0  0  0  0  0  0  0  0  0  0
   -3.0062    3.9023    2.0409 H   0  0  0  0  0  0  0  0  0  0  0  0
   -0.6071    1.3358   -0.0200 N   0  0  0  0  0  0  0  0  0  0  0  0
    0.5702    0.8350   -0.6836 C   0  0  2  0  0  0  0  0  0  0  0  0
    1.7782    1.4322    0.0293 C   0  0  0  0  0  0  0  0  0  0  0  0
    2.3523    0.8691    0.9589 O   0  0  0  0  0  0  0  0  0  0  0  0
    0.5954    1.2006   -2.1722 C   0  0  0  0  0  0  0  0  0  0  0  0
   -0.5334    0.5668   -2.9481 C   0  0  0  0  0  0  0  0  0  0  0  0
   -0.5462   -0.7573   -3.2853 N   0  0  0  0  0  0  0  0  0  0  0  0
   -1.7038    1.0726   -3.4626 C   0  0  0  0  0  0  0  0  0  0  0  0
   -1.7017   -0.9928   -3.9773 C   0  0  0  0  0  0  0  0  0  0  0  0
   -2.4267    0.0966   -4.1018 N   0  0  0  0  0  0  0  0  0  0  0  0
   -1.3903    1.6325   -0.5973 H   0  0  0  0  0  0  0  0  0  0  0  0
    0.5706   -0.2520   -0.5411 H   0  0  0  0  0  0  0  0  0  0  0  0
    1.5572    0.9134   -2.6183 H   0  0  0  0  0  0  0  0  0  0  0  0
    0.5322    2.2893   -2.3009 H   0  0  0  0  0  0  0  0  0  0  0  0
    0.1672   -1.4402   -3.0661 H   0  0  0  0  0  0  0  0  0  0  0  0
   -2.0651    2.0896   -3.4065 H   0  0  0  0  0  0  0  0  0  0  0  0
   -1.9525   -1.9719   -4.3598 H   0  0  0  0  0  0  0  0  0  0  0  0
    2.1658    2.6420   -0.5298 N   0  0  0  0  0  0  0  0  0  0  0  0
    3.2970    3.4080   -0.0581 C   0  0  2  0  0  0  0  0  0  0  0  0
    3.1710    3.5509    1.4529 C   0  0  0  0  0  0  0  0  0  0  0  0
    2.1017    3.4446    2.0499 O   0  0  0  0  0  0  0  0  0  0  0  0
    3.3609    4.7710   -0.7295 C   0  0  0  0  0  0  0  0  0  0  0  0
    1.6274    3.0074   -1.3098 H   0  0  0  0  0  0  0  0  0  0  0  0
    4.1943    2.8268   -0.2971 H   0  0  0  0  0  0  0  0  0  0  0  0
    2.4702    5.3678   -0.5017 H   0  0  0  0  0  0  0  0  0  0  0  0
    4.2344    5.3388   -0.3924 H   0  0  0  0  0  0  0  0  0  0  0  0
    3.4215    4.6667   -1.8182 H   0  0  0  0  0  0  0  0  0  0  0  0
    4.3859    3.8537    2.0516 N   0  0  0  0  0  0  0  0  0  0  0  0
    4.5257    4.0511    3.4755 C   0  0  0  0  0  0  0  0  0  0  0  0
    5.2251    3.9040    1.4815 H   0  0  0  0  0  0  0  0  0  0  0  0
    4.4141    5.1199    3.7107 H   0  0  0  0  0  0  0  0  0  0  0  0
    3.7500    3.4768    4.0030 H   0  0  0  0  0  0  0  0  0  0  0  0
    5.5196    3.7068    3.7974 H   0  0  0  0  0  0  0  0  0  0  0  0
 22 24  2  0  0  0  0
 24 26  1  0  0  0  0
 25 26  2  0  0  0  0
 23 25  1  0  0  0  0
 21 22  1  0  0  0  0
 22 23  1  0  0  0  0
  1  3  1  0  0  0  0
  1  7  1  0  0  0  0
  1  2  2  0  0  0  0
 35 36  1  0  0  0  0
 36 44  1  0  0  0  0
 36 37  2  0  0  0  0
  8  9  1  0  0  0  0
  9 17  1  0  0  0  0
  9 10  2  0  0  0  0
 18 19  1  0  0  0  0
 19 34  1  0  0  0  0
 19 20  2  0  0  0  0
 35 38  1  0  0  0  0
  8 11  1  0  0  0  0
 44 45  1  0  0  0  0
 18 21  1  0  0  0  0
 34 35  1  0  0  0  0
  7  8  1  0  0  0  0
 17 18  1  0  0  0  0
 24 32  1  0  0  0  0
 25 33  1  0  0  0  0
  3  4  1  0  0  0  0
  3  5  1  0  0  0  0
  3  6  1  0  0  0  0
 38 41  1  0  0  0  0
 38 42  1  0  0  0  0
 38 43  1  0  0  0  0
 11 14  1  0  0  0  0
 11 15  1  0  0  0  0
 11 16  1  0  0  0  0
 45 47  1  0  0  0  0
 45 48  1  0  0  0  0
 45 49  1  0  0  0  0
 21 29  1  0  0  0  0
 21 30  1  0  0  0  0
 35 40  1  0  0  0  0
  8 13  1  0  0  0  0
 18 28  1  0  0  0  0
 23 31  1  0  0  0  0
 44 46  1  0  0  0  0
  7 12  1  0  0  0  0
 34 39  1  0  0  0  0
 17 27  1  0  0  0  0
M  END
$$$$

  -OEChem-05262214473D

 49 49  0     1  0  0  0  0  0999 V2000
   -1.5619    0.5658    3.7981 C   0  0  0  0  0  0  0  0  0  0  0  0
   -0.6145   -0.0489    3.3224 O   0  0  0  0  0  0  0  0  0  0  0  0
   -1.9938    0.2834    5.1988 C   0  0  0  0  0  0  0  0  0  0  0  0
   -2.7535   -0.5129    5.2522 H   0  0  0  0  0  0  0  0  0  0  0  0
   -1.1626   -0.0642    5.8331 H   0  0  0  0  0  0  0  0  0  0  0  0
   -2.4318    1.1383    5.7384 H   0  0  0  0  0  0  0  0  0  0  0  0
   -2.3116    1.5383    3.1570 N   0  0  0  0  0  0  0  0  0  0  0  0
   -2.0648    1.9643    1.8046 C   0  0  2  0  0  0  0  0  0  0  0  0
   -0.7298    1.3789    1.3634 C   0  0  0  0  0  0  0  0  0  0  0  0
    0.1423    1.0262    2.1547 O   0  0  0  0  0  0  0  0  0  0  0  0
   -2.0560    3.4811    1.6952 C   0  0  0  0  0  0  0  0  0  0  0  0
   -3.0767    1.9741    3.6688 H   0  0  0  0  0  0  0  0  0  0  0  0
   -2.8689    1.5458    1.1895 H   0  0  0  0  0  0  0  0  0  0  0  0
   -1.2569    3.9183    2.3049 H   0  0  0  0  0  0  0  0  0  0  0  0
   -1.8965    3.8033    0.6609 H   0  0  0  0  0  0  0  0  0  0  0  0
   -3.0062    3.9023    2.0409 H   0  0  0  0  0  0  0  0  0  0  0  0
   -0.6071    1.3358   -0.0200 N   0  0  0  0  0  0  0  0  0  0  0  0
    0.5702    0.8350   -0.6836 C   0  0  2  0  0  0  0  0  0  0  0  0
    1.7782    1.4322    0.0293 C   0  0  0  0  0  0  0  0  0  0  0  0
    2.5132    0.7761    0.7642 O   0  0  0  0  0  0  0  0  0  0  0  0
    0.5954    1.2006   -2.1722 C   0  0  0  0  0  0  0  0  0  0  0  0
   -0.5334    0.5668   -2.9481 C   0  0  0  0  0  0  0  0  0  0  0  0
   -0.5462   -0.7573   -3.2853 N   0  0  0  0  0  0  0  0  0  0  0  0
   -1.7038    1.0726   -3.4626 C   0  0  0  0  0  0  0  0  0  0  0  0
   -1.7017   -0.9928   -3.9773 C   0  0  0  0  0  0  0  0  0  0  0  0
   -2.4267    0.0966   -4.1018 N   0  0  0  0  0  0  0  0  0  0  0  0
   -1.3903    1.6325   -0.5973 H   0  0  0  0  0  0  0  0  0  0  0  0
    0.5706   -0.2520   -0.5411 H   0  0  0  0  0  0  0  0  0  0  0  0
    1.5572    0.9134   -2.6183 H   0  0  0  0  0  0  0  0  0  0  0  0
    0.5322    2.2893   -2.3009 H   0  0  0  0  0  0  0  0  0  0  0  0
    0.1672   -1.4402   -3.0661 H   0  0  0  0  0  0  0  0  0  0  0  0
   -2.0651    2.0896   -3.4065 H   0  0  0  0  0  0  0  0  0  0  0  0
   -1.9525   -1.9719   -4.3598 H   0  0  0  0  0  0  0  0  0  0  0  0
    1.9635    2.7693   -0.2937 N   0  0  0  0  0  0  0  0  0  0  0  0
    3.0495    3.5683    0.2269 C   0  0  2  0  0  0  0  0  0  0  0  0
    3.0816    3.3900    1.7391 C   0  0  0  0  0  0  0  0  0  0  0  0
    2.1057    3.0274    2.3927 O   0  0  0  0  0  0  0  0  0  0  0  0
    2.8855    5.0339   -0.1442 C   0  0  0  0  0  0  0  0  0  0  0  0
    1.3026    3.2084   -0.9278 H   0  0  0  0  0  0  0  0  0  0  0  0
    3.9724    3.1694   -0.2081 H   0  0  0  0  0  0  0  0  0  0  0  0
    1.9662    5.4510    0.2828 H   0  0  0  0  0  0  0  0  0  0  0  0
    3.7236    5.6332    0.2264 H   0  0  0  0  0  0  0  0  0  0  0  0
    2.8327    5.1571   -1.2314 H   0  0  0  0  0  0  0  0  0  0  0  0
    4.3159    3.7250    2.2780 N   0  0  0  0  0  0  0  0  0  0  0  0
    4.5945    3.6519    3.6933 C   0  0  0  0  0  0  0  0  0  0  0  0
    5.0739    3.9976    1.6592 H   0  0  0  0  0  0  0  0  0  0  0  0
    4.3931    4.6284    4.1580 H   0  0  0  0  0  0  0  0  0  0  0  0
    3.9522    2.8871    4.1543 H   0  0  0  0  0  0  0  0  0  0  0  0
    5.6505    3.3843    3.8457 H   0  0  0  0  0  0  0  0  0  0  0  0
 22 24  2  0  0  0  0
 24 26  1  0  0  0  0
 25 26  2  0  0  0  0
 23 25  1  0  0  0  0
 21 22  1  0  0  0  0
 22 23  1  0  0  0  0
  1  3  1  0  0  0  0
  1  7  1  0  0  0  0
  1  2  2  0  0  0  0
 35 36  1  0  0  0  0
 36 44  1  0  0  0  0
 36 37  2  0  0  0  0
  8  9  1  0  0  0  0
  9 17  1  0  0  0  0
  9 10  2  0  0  0  0
 18 19  1  0  0  0  0
 19 34  1  0  0  0  0
 19 20  2  0  0  0  0
 35 38  1  0  0  0  0
  8 11  1  0  0  0  0
 44 45  1  0  0  0  0
 18 21  1  0  0  0  0
 34 35  1  0  0  0  0
  7  8  1  0  0  0  0
 17 18  1  0  0  0  0
 24 32  1  0  0  0  0
 25 33  1  0  0  0  0
  3  4  1  0  0  0  0
  3  5  1  0  0  0  0
  3  6  1  0  0  0  0
 38 41  1  0  0  0  0
 38 42  1  0  0  0  0
 38 43  1  0  0  0  0
 11 14  1  0  0  0  0
 11 15  1  0  0  0  0
 11 16  1  0  0  0  0
 45 47  1  0  0  0  0
 45 48  1  0  0  0  0
 45 49  1  0  0  0  0
 21 29  1  0  0  0  0
 21 30  1  0  0  0  0
 35 40  1  0  0  0  0
  8 13  1  0  0  0  0
 18 28  1  0  0  0  0
 23 31  1  0  0  0  0
 44 46  1  0  0  0  0
  7 12  1  0  0  0  0
 34 39  1  0  0  0  0
 17 27  1  0  0  0  0
M  END
$$$$

  -OEChem-05262214473D

 49 49  0     1  0  0  0  0  0999 V2000
   -1.5619    0.5658    3.7981 C   0  0  0  0  0  0  0  0  0  0  0  0
   -0.6145   -0.0489    3.3224 O   0  0  0  0  0  0  0  0  0  0  0  0
   -1.9938    0.2834    5.1988 C   0  0  0  0  0  0  0  0  0  0  0  0
   -2.7535   -0.5129    5.2522 H   0  0  0  0  0  0  0  0  0  0  0  0
   -1.1626   -0.0642    5.8331 H   0  0  0  0  0  0  0  0  0  0  0  0
   -2.4318    1.1383    5.7384 H   0  0  0  0  0  0  0  0  0  0  0  0
   -2.3116    1.5383    3.1570 N   0  0  0  0  0  0  0  0  0  0  0  0
   -2.0648    1.9643    1.8046 C   0  0  2  0  0  0  0  0  0  0  0  0
   -0.7298    1.3789    1.3634 C   0  0  0  0  0  0  0  0  0  0  0  0
    0.1423    1.0262    2.1547 O   0  0  0  0  0  0  0  0  0  0  0  0
   -2.0560    3.4811    1.6952 C   0  0  0  0  0  0  0  0  0  0  0  0
   -3.0767    1.9741    3.6688 H   0  0  0  0  0  0  0  0  0  0  0  0
   -2.8689    1.5458    1.1895 H   0  0  0  0  0  0  0  0  0  0  0  0
   -1.2569    3.9183    2.3049 H   0  0  0  0  0  0  0  0  0  0  0  0
   -1.8965    3.8033    0.6609 H   0  0  0  0  0  0  0  0  0  0  0  0
   -3.0062    3.9023    2.0409 H   0  0  0  0  0  0  0  0  0  0  0  0
   -0.6071    1.3358   -0.0200 N   0  0  0  0  0  0  0  0  0  0  0  0
    0.5702    0.8350   -0.6836 C   0  0  2  0  0  0  0  0  0  0  0  0
    1.7782    1.4322    0.0293 C   0  0  0  0  0  0  0  0  0  0  0  0
    2.6602    0.7456    0.5408 O   0  0  0  0  0  0  0  0  0  0  0  0
    0.5954    1.2006   -2.1722 C   0  0  0  0  0  0  0  0  0  0  0  0
   -0.5334    0.5668   -2.9481 C   0  0  0  0  0  0  0  0  0  0  0  0
   -0.5462   -0.7573   -3.2853 N   0  0  0  0  0  0  0  0  0  0  0  0
   -1.7038    1.0726   -3.4626 C   0  0  0  0  0  0  0  0  0  0  0  0
   -1.7017   -0.9928   -3.9773 C   0  0  0  0  0  0  0  0  0  0  0  0
   -2.4267    0.0966   -4.1018 N   0  0  0  0  0  0  0  0  0  0  0  0
   -1.3903    1.6325   -0.5973 H   0  0  0  0  0  0  0  0  0  0  0  0
    0.5706   -0.2520   -0.5411 H   0  0  0  0  0  0  0  0  0  0  0  0
    1.5572    0.9134   -2.6183 H   0  0  0  0  0  0  0  0  0  0  0  0
    0.5322    2.2893   -2.3009 H   0  0  0  0  0  0  0  0  0  0  0  0
    0.1672   -1.4402   -3.0661 H   0  0  0  0  0  0  0  0  0  0  0  0
   -2.0651    2.0896   -3.4065 H   0  0  0  0  0  0  0  0  0  0  0  0
   -1.9525   -1.9719   -4.3598 H   0  0  0  0  0  0  0  0  0  0  0  0
    1.7767    2.8193   -0.0190 N   0  0  0  0  0  0  0  0  0  0  0  0
    2.8200    3.6347    0.5602 C   0  0  2  0  0  0  0  0  0  0  0  0
    3.0438    3.1651    1.9916 C   0  0  0  0  0  0  0  0  0  0  0  0
    2.1948    2.5545    2.6378 O   0  0  0  0  0  0  0  0  0  0  0  0
    2.4539    5.1102    0.5232 C   0  0  0  0  0  0  0  0  0  0  0  0
    1.0033    3.2849   -0.4848 H   0  0  0  0  0  0  0  0  0  0  0  0
    3.7256    3.4553   -0.0294 H   0  0  0  0  0  0  0  0  0  0  0  0
    1.5488    5.3094    1.1086 H   0  0  0  0  0  0  0  0  0  0  0  0
    3.2574    5.7289    0.9363 H   0  0  0  0  0  0  0  0  0  0  0  0
    2.2642    5.4391   -0.5042 H   0  0  0  0  0  0  0  0  0  0  0  0
    4.2869    3.5457    2.4774 N   0  0  0  0  0  0  0  0  0  0  0  0
    4.7313    3.2300    3.8149 C   0  0  0  0  0  0  0  0  0  0  0  0
    4.9346    4.0332    1.8655 H   0  0  0  0  0  0  0  0  0  0  0  0
    4.4776    4.0594    4.4915 H   0  0  0  0  0  0  0  0  0  0  0  0
    4.2342    2.3111    4.1590 H   0  0  0  0  0  0  0  0  0  0  0  0
    5.8209    3.0787    3.8130 H   0  0  0  0  0  0  0  0  0  0  0  0
 22 24  2  0  0  0  0
 24 26  1  0  0  0  0
 25 26  2  0  0  0  0
 23 25  1  0  0  0  0
 21 22  1  0  0  0  0
 22 23  1  0  0  0  0
  1  3  1  0  0  0  0
  1  7  1  0  0  0  0
  1  2  2  0  0  0  0
 35 36  1  0  0  0  0
 36 44  1  0  0  0  0
 36 37  2  0  0  0  0
  8  9  1  0  0  0  0
  9 17  1  0  0  0  0
  9 10  2  0  0  0  0
 18 19  1  0  0  0  0
 19 34  1  0  0  0  0
 19 20  2  0  0  0  0
 35 38  1  0  0  0  0
  8 11  1  0  0  0  0
 44 45  1  0  0  0  0
 18 21  1  0  0  0  0
 34 35  1  0  0  0  0
  7  8  1  0  0  0  0
 17 18  1  0  0  0  0
 24 32  1  0  0  0  0
 25 33  1  0  0  0  0
  3  4  1  0  0  0  0
  3  5  1  0  0  0  0
  3  6  1  0  0  0  0
 38 41  1  0  0  0  0
 38 42  1  0  0  0  0
 38 43  1  0  0  0  0
 11 14  1  0  0  0  0
 11 15  1  0  0  0  0
 11 16  1  0  0  0  0
 45 47  1  0  0  0  0
 45 48  1  0  0  0  0
 45 49  1  0  0  0  0
 21 29  1  0  0  0  0
 21 30  1  0  0  0  0
 35 40  1  0  0  0  0
  8 13  1  0  0  0  0
 18 28  1  0  0  0  0
 23 31  1  0  0  0  0
 44 46  1  0  0  0  0
  7 12  1  0  0  0  0
 34 39  1  0  0  0  0
 17 27  1  0  0  0  0
M  END
$$$$

  -OEChem-05262214473D

 49 49  0     1  0  0  0  0  0999 V2000
   -1.5619    0.5658    3.7981 C   0  0  0  0  0  0  0  0  0  0  0  0
   -0.6145   -0.0489    3.3224 O   0  0  0  0  0  0  0  0  0  0  0  0
   -1.9938    0.2834    5.1988 C   0  0  0  0  0  0  0  0  0  0  0  0
   -2.7535   -0.5129    5.2522 H   0  0  0  0  0  0  0  0  0  0  0  0
   -1.1626   -0.0642    5.8331 H   0  0  0  0  0  0  0  0  0  0  0  0
   -2.4318    1.1383    5.7384 H   0  0  0  0  0  0  0  0  0  0  0  0
   -2.3116    1.5383    3.1570 N   0  0  0  0  0  0  0  0  0  0  0  0
   -2.0648    1.9643    1.8046 C   0  0  2  0  0  0  0  0  0  0  0  0
   -0.7298    1.3789    1.3634 C   0  0  0  0  0  0  0  0  0  0  0  0
    0.1423    1.0262    2.1547 O   0  0  0  0  0  0  0  0  0  0  0  0
   -2.0560    3.4811    1.6952 C   0  0  0  0  0  0  0  0  0  0  0  0
   -3.0767    1.9741    3.6688 H   0  0  0  0  0  0  0  0  0  0  0  0
   -2.8689    1.5458    1.1895 H   0  0  0  0  0  0  0  0  0  0  0  0
   -1.2569    3.9183    2.3049 H   0  0  0  0  0  0  0  0  0  0  0  0
   -1.8965    3.8033    0.6609 H   0  0  0  0  0  0  0  0  0  0  0  0
   -3.0062    3.9023    2.0409 H   0  0  0  0  0  0  0  0  0  0  0  0
   -0.6071    1.3358   -0.0200 N   0  0  0  0  0  0  0  0  0  0  0  0
    0.5702    0.8350   -0.6836 C   0  0  2  0  0  0  0  0  0  0  0  0
    1.7782    1.4322    0.0293 C   0  0  0  0  0  0  0  0  0  0  0  0
    2.7831    0.7798    0.3038 O   0  0  0  0  0  0  0  0  0  0  0  0
    0.5954    1.2006   -2.1722 C   0  0  0  0  0  0  0  0  0  0  0  0
   -0.5334    0.5668   -2.9481 C   0  0  0  0  0  0  0  0  0  0  0  0
   -0.5462   -0.7573   -3.2853 N   0  0  0  0  0  0  0  0  0  0  0  0
   -1.7038    1.0726   -3.4626 C   0  0  0  0  0  0  0  0  0  0  0  0
   -1.7017   -0.9928   -3.9773 C   0  0  0  0  0  0  0  0  0  0  0  0
   -2.4267    0.0966   -4.1018 N   0  0  0  0  0  0  0  0  0  0  0  0
   -1.3903    1.6325   -0.5973 H   0  0  0  0  0  0  0  0  0  0  0  0
    0.5706   -0.2520   -0.5411 H   0  0  0  0  0  0  0  0  0  0  0  0
    1.5572    0.9134   -2.6183 H   0  0  0  0  0  0  0  0  0  0  0  0
    0.5322    2.2893   -2.3009 H   0  0  0  0  0  0  0  0  0  0  0  0
    0.1672   -1.4402   -3.0661 H   0  0  0  0  0  0  0  0  0  0  0  0
   -2.0651    2.0896   -3.4065 H   0  0  0  0  0  0  0  0  0  0  0  0
   -1.9525   -1.9719   -4.3598 H   0  0  0  0  0  0  0  0  0  0  0  0
    1.6180    2.7887    0.2756 N   0  0  0  0  0  0  0  0  0  0  0  0
    2.6240    3.6027    0.9191 C   0  0  2  0  0  0  0  0  0  0  0  0
    3.0600    2.8914    2.1933 C   0  0  0  0  0  0  0  0  0  0  0  0
    2.3629    2.0583    2.7685 O   0  0  0  0  0  0  0  0  0  0  0  0
    2.0954    4.9948    1.2274 C   0  0  0  0  0  0  0  0  0  0  0  0
    0.7499    3.2317   -0.0108 H   0  0  0  0  0  0  0  0  0  0  0  0
    3.4708    3.6649    0.2269 H   0  0  0  0  0  0  0  0  0  0  0  0
    1.2465    4.9527    1.9196 H   0  0  0  0  0  0  0  0  0  0  0  0
    2.8675    5.6193    1.6889 H   0  0  0  0  0  0  0  0  0  0  0  0
    1.7546    5.4935    0.3136 H   0  0  0  0  0  0  0  0  0  0  0  0
    4.3007    3.3281    2.6362 N   0  0  0  0  0  0  0  0  0  0  0  0
    4.9269    2.8140    3.8319 C   0  0  0  0  0  0  0  0  0  0  0  0
    4.8166    4.0085    2.0861 H   0  0  0  0  0  0  0  0  0  0  0  0
    4.6619    3.4516    4.6883 H   0  0  0  0  0  0  0  0  0  0  0  0
    4.5768    1.7878    4.0168 H   0  0  0  0  0  0  0  0  0  0  0  0
    6.0191    2.8109    3.7014 H   0  0  0  0  0  0  0  0  0  0  0  0
 22 24  2  0  0  0  0
 24 26  1  0  0  0  0
 25 26  2  0  0  0  0
 23 25  1  0  0  0  0
 21 22  1  0  0  0  0
 22 23  1  0  0  0  0
  1  3  1  0  0  0  0
  1  7  1  0  0  0  0
  1  2  2  0  0  0  0
 35 36  1  0  0  0  0
 36 44  1  0  0  0  0
 36 37  2  0  0  0  0
  8  9  1  0  0  0  0
  9 17  1  0  0  0  0
  9 10  2  0  0  0  0
 18 19  1  0  0  0  0
 19 34  1  0  0  0  0
 19 20  2  0  0  0  0
 35 38  1  0  0  0  0
  8 11  1  0  0  0  0
 44 45  1  0  0  0  0
 18 21  1  0  0  0  0
 34 35  1  0  0  0  0
  7  8  1  0  0  0  0
 17 18  1  0  0  0  0
 24 32  1  0  0  0  0
 25 33  1  0  0  0  0
  3  4  1  0  0  0  0
  3  5  1  0  0  0  0
  3  6  1  0  0  0  0
 38 41  1  0  0  0  0
 38 42  1  0  0  0  0
 38 43  1  0  0  0  0
 11 14  1  0  0  0  0
 11 15  1  0  0  0  0
 11 16  1  0  0  0  0
 45 47  1  0  0  0  0
 45 48  1  0  0  0  0
 45 49  1  0  0  0  0
 21 29  1  0  0  0  0
 21 30  1  0  0  0  0
 35 40  1  0  0  0  0
  8 13  1  0  0  0  0
 18 28  1  0  0  0  0
 23 31  1  0  0  0  0
 44 46  1  0  0  0  0
  7 12  1  0  0  0  0
 34 39  1  0  0  0  0
 17 27  1  0  0  0  0
M  END
$$$$

  -OEChem-05262214473D

 49 49  0     1  0  0  0  0  0999 V2000
   -1.5619    0.5658    3.7981 C   0  0  0  0  0  0  0  0  0  0  0  0
   -0.6145   -0.0489    3.3224 O   0  0  0  0  0  0  0  0  0  0  0  0
   -1.9938    0.2834    5.1988 C   0  0  0  0  0  0  0  0  0  0  0  0
   -2.7535   -0.5129    5.2522 H   0  0  0  0  0  0  0  0  0  0  0  0
   -1.1626   -0.0642    5.8331 H   0  0  0  0  0  0  0  0  0  0  0  0
   -2.4318    1.1383    5.7384 H   0  0  0  0  0  0  0  0  0  0  0  0
   -2.3116    1.5383    3.1570 N   0  0  0  0  0  0  0  0  0  0  0  0
   -2.0648    1.9643    1.8046 C   0  0  2  0  0  0  0  0  0  0  0  0
   -0.7298    1.3789    1.3634 C   0  0  0  0  0  0  0  0  0  0  0  0
    0.1423    1.0262    2.1547 O   0  0  0  0  0  0  0  0  0  0  0  0
   -2.0560    3.4811    1.6952 C   0  0  0  0  0  0  0  0  0  0  0  0
   -3.0767    1.9741    3.6688 H   0  0  0  0  0  0  0  0  0  0  0  0
   -2.8689    1.5458    1.1895 H   0  0  0  0  0  0  0  0  0  0  0  0
   -1.2569    3.9183    2.3049 H   0  0  0  0  0  0  0  0  0  0  0  0
   -1.8965    3.8033    0.6609 H   0  0  0  0  0  0  0  0  0  0  0  0
   -3.0062    3.9023    2.0409 H   0  0  0  0  0  0  0  0  0  0  0  0
   -0.6071    1.3358   -0.0200 N   0  0  0  0  0  0  0  0  0  0  0  0
    0.5702    0.8350   -0.6836 C   0  0  2  0  0  0  0  0  0  0  0  0
    1.7782    1.4322    0.0293 C   0  0  0  0  0  0  0  0  0  0  0  0
    2.8737    0.8763    0.0694 O   0  0  0  0  0  0  0  0  0  0  0  0
    0.5954    1.2006   -2.1722 C   0  0  0  0  0  0  0  0  0  0  0  0
   -0.5334    0.5668   -2.9481 C   0  0  0  0  0  0  0  0  0  0  0  0
   -0.5462   -0.7573   -3.2853 N   0  0  0  0  0  0  0  0  0  0  0  0
   -1.7038    1.0726   -3.4626 C   0  0  0  0  0  0  0  0  0  0  0  0
   -1.7017   -0.9928   -3.9773 C   0  0  0  0  0  0  0  0  0  0  0  0
   -2.4267    0.0966   -4.1018 N   0  0  0  0  0  0  0  0  0  0  0  0
   -1.3903    1.6325   -0.5973 H   0  0  0  0  0  0  0  0  0  0  0  0
    0.5706   -0.2520   -0.5411 H   0  0  0  0  0  0  0  0  0  0  0  0
    1.5572    0.9134   -2.6183 H   0  0  0  0  0  0  0  0  0  0  0  0
    0.5322    2.2893   -2.3009 H   0  0  0  0  0  0  0  0  0  0  0  0
    0.1672   -1.4402   -3.0661 H   0  0  0  0  0  0  0  0  0  0  0  0
   -2.0651    2.0896   -3.4065 H   0  0  0  0  0  0  0  0  0  0  0  0
   -1.9525   -1.9719   -4.3598 H   0  0  0  0  0  0  0  0  0  0  0  0
    1.4982    2.6795    0.5699 N   0  0  0  0  0  0  0  0  0  0  0  0
    2.4750    3.4744    1.2790 C   0  0  2  0  0  0  0  0  0  0  0  0
    3.1293    2.5878    2.3303 C   0  0  0  0  0  0  0  0  0  0  0  0
    2.5987    1.5725    2.7760 O   0  0  0  0  0  0  0  0  0  0  0  0
    1.8344    4.6956    1.9202 C   0  0  0  0  0  0  0  0  0  0  0  0
    0.5596    3.0524    0.4618 H   0  0  0  0  0  0  0  0  0  0  0  0
    3.2252    3.7840    0.5432 H   0  0  0  0  0  0  0  0  0  0  0  0
    1.0799    4.4053    2.6604 H   0  0  0  0  0  0  0  0  0  0  0  0
    2.5804    5.3118    2.4329 H   0  0  0  0  0  0  0  0  0  0  0  0
    1.3387    5.3167    1.1664 H   0  0  0  0  0  0  0  0  0  0  0  0
    4.3566    3.0870    2.7436 N   0  0  0  0  0  0  0  0  0  0  0  0
    5.1679    2.4324    3.7432 C   0  0  0  0  0  0  0  0  0  0  0  0
    4.7280    3.9251    2.3061 H   0  0  0  0  0  0  0  0  0  0  0  0
    4.9334    2.8464    4.7350 H   0  0  0  0  0  0  0  0  0  0  0  0
    4.9566    1.3529    3.7374 H   0  0  0  0  0  0  0  0  0  0  0  0
    6.2317    2.5991    3.5186 H   0  0  0  0  0  0  0  0  0  0  0  0
 22 24  2  0  0  0  0
 24 26  1  0  0  0  0
 25 26  2  0  0  0  0
 23 25  1  0  0  0  0
 21 22  1  0  0  0  0
 22 23  1  0  0  0  0
  1  3  1  0  0  0  0
  1  7  1  0  0  0  0
  1  2  2  0  0  0  0
 35 36  1  0  0  0  0
 36 44  1  0  0  0  0
 36 37  2  0  0  0  0
  8  9  1  0  0  0  0
  9 17  1  0  0  0  0
  9 10  2  0  0  0  0
 18 19  1  0  0  0  0
 19 34  1  0  0  0  0
 19 20  2  0  0  0  0
 35 38  1  0  0  0  0
  8 11  1  0  0  0  0
 44 45  1  0  0  0  0
 18 21  1  0  0  0  0
 34 35  1  0  0  0  0
  7  8  1  0  0  0  0
 17 18  1  0  0  0  0
 24 32  1  0  0  0  0
 25 33  1  0  0  0  0
  3  4  1  0  0  0  0
  3  5  1  0  0  0  0
  3  6  1  0  0  0  0
 38 41  1  0  0  0  0
 38 42  1  0  0  0  0
 38 43  1  0  0  0  0
 11 14  1  0  0  0  0
 11 15  1  0  0  0  0
 11 16  1  0  0  0  0
 45 47  1  0  0  0  0
 45 48  1  0  0  0  0
 45 49  1  0  0  0  0
 21 29  1  0  0  0  0
 21 30  1  0  0  0  0
 35 40  1  0  0  0  0
  8 13  1  0  0  0  0
 18 28  1  0  0  0  0
 23 31  1  0  0  0  0
 44 46  1  0  0  0  0
  7 12  1  0  0  0  0
 34 39  1  0  0  0  0
 17 27  1  0  0  0  0
M  END
$$$$

  -OEChem-05262214473D

 49 49  0     1  0  0  0  0  0999 V2000
   -1.5619    0.5658    3.7981 C   0  0  0  0  0  0  0  0  0  0  0  0
   -0.6145   -0.0489    3.3224 O   0  0  0  0  0  0  0  0  0  0  0  0
   -1.9938    0.2834    5.1988 C   0  0  0  0  0  0  0  0  0  0  0  0
   -2.7535   -0.5129    5.2522 H   0  0  0  0  0  0  0  0  0  0  0  0
   -1.1626   -0.0642    5.8331 H   0  0  0  0  0  0  0  0  0  0  0  0
   -2.4318    1.1383    5.7384 H   0  0  0  0  0  0  0  0  0  0  0  0
   -2.3116    1.5383    3.1570 N   0  0  0  0  0  0  0  0  0  0  0  0
   -2.0648    1.9643    1.8046 C   0  0  2  0  0  0  0  0  0  0  0  0
   -0.7298    1.3789    1.3634 C   0  0  0  0  0  0  0  0  0  0  0  0
    0.1423    1.0262    2.1547 O   0  0  0  0  0  0  0  0  0  0  0  0
   -2.0560    3.4811    1.6952 C   0  0  0  0  0  0  0  0  0  0  0  0
   -3.0767    1.9741    3.6688 H   0  0  0  0  0  0  0  0  0  0  0  0
   -2.8689    1.5458    1.1895 H   0  0  0  0  0  0  0  0  0  0  0  0
   -1.2569    3.9183    2.3049 H   0  0  0  0  0  0  0  0  0  0  0  0
   -1.8965    3.8033    0.6609 H   0  0  0  0  0  0  0  0  0  0  0  0
   -3.0062    3.9023    2.0409 H   0  0  0  0  0  0  0  0  0  0  0  0
   -0.6071    1.3358   -0.0200 N   0  0  0  0  0  0  0  0  0  0  0  0
    0.5702    0.8350   -0.6836 C   0  0  2  0  0  0  0  0  0  0  0  0
    1.7782    1.4322    0.0293 C   0  0  0  0  0  0  0  0  0  0  0  0
    2.9258    1.0285   -0.1464 O   0  0  0  0  0  0  0  0  0  0  0  0
    0.5954    1.2006   -2.1722 C   0  0  0  0  0  0  0  0  0  0  0  0
   -0.5334    0.5668   -2.9481 C   0  0  0  0  0  0  0  0  0  0  0  0
   -0.5462   -0.7573   -3.2853 N   0  0  0  0  0  0  0  0  0  0  0  0
   -1.7038    1.0726   -3.4626 C   0  0  0  0  0  0  0  0  0  0  0  0
   -1.7017   -0.9928   -3.9773 C   0  0  0  0  0  0  0  0  0  0  0  0
   -2.4267    0.0966   -4.1018 N   0  0  0  0  0  0  0  0  0  0  0  0
   -1.3903    1.6325   -0.5973 H   0  0  0  0  0  0  0  0  0  0  0  0
    0.5706   -0.2520   -0.5411 H   0  0  0  0  0  0  0  0  0  0  0  0
    1.5572    0.9134   -2.6183 H   0  0  0  0  0  0  0  0  0  0  0  0
    0.5322    2.2893   -2.3009 H   0  0  0  0  0  0  0  0  0  0  0  0
    0.1672   -1.4402   -3.0661 H   0  0  0  0  0  0  0  0  0  0  0  0
   -2.0651    2.0896   -3.4065 H   0  0  0  0  0  0  0  0  0  0  0  0
   -1.9525   -1.9719   -4.3598 H   0  0  0  0  0  0  0  0  0  0  0  0
    1.4256    2.4992    0.8440 N   0  0  0  0  0  0  0  0  0  0  0  0
    2.3831    3.2587    1.6155 C   0  0  2  0  0  0  0  0  0  0  0  0
    3.2469    2.2747    2.3933 C   0  0  0  0  0  0  0  0  0  0  0  0
    2.8859    1.1303    2.6597 O   0  0  0  0  0  0  0  0  0  0  0  0
    1.6888    4.2328    2.5545 C   0  0  0  0  0  0  0  0  0  0  0  0
    0.4454    2.7593    0.9008 H   0  0  0  0  0  0  0  0  0  0  0  0
    3.0057    3.8044    0.8981 H   0  0  0  0  0  0  0  0  0  0  0  0
    1.0603    3.7045    3.2807 H   0  0  0  0  0  0  0  0  0  0  0  0
    2.4157    4.8276    3.1175 H   0  0  0  0  0  0  0  0  0  0  0  0
    1.0449    4.9207    1.9960 H   0  0  0  0  0  0  0  0  0  0  0  0
    4.4505    2.8389    2.7922 N   0  0  0  0  0  0  0  0  0  0  0  0
    5.4378    2.1112    3.5549 C   0  0  0  0  0  0  0  0  0  0  0  0
    4.6749    3.7887    2.5105 H   0  0  0  0  0  0  0  0  0  0  0  0
    5.2737    2.2852    4.6286 H   0  0  0  0  0  0  0  0  0  0  0  0
    5.3478    1.0362    3.3398 H   0  0  0  0  0  0  0  0  0  0  0  0
    6.4441    2.4578    3.2770 H   0  0  0  0  0  0  0  0  0  0  0  0
 22 24  2  0  0  0  0
 24 26  1  0  0  0  0
 25 26  2  0  0  0  0
 23 25  1  0  0  0  0
 21 22  1  0  0  0  0
 22 23  1  0  0  0  0
  1  3  1  0  0  0  0
  1  7  1  0  0  0  0
  1  2  2  0  0  0  0
 35 36  1  0  0  0  0
 36 44  1  0  0  0  0
 36 37  2  0  0  0  0
  8  9  1  0  0  0  0
  9 17  1  0  0  0  0
  9 10  2  0  0  0  0
 18 19  1  0  0  0  0
 19 34  1  0  0  0  0
 19 20  2  0  0  0  0
 35 38  1  0  0  0  0
  8 11  1  0  0  0  0
 44 45  1  0  0  0  0
 18 21  1  0  0  0  0
 34 35  1  0  0  0  0
  7  8  1  0  0  0  0
 17 18  1  0  0  0  0
 24 32  1  0  0  0  0
 25 33  1  0  0  0  0
  3  4  1  0  0  0  0
  3  5  1  0  0  0  0
  3  6  1  0  0  0  0
 38 41  1  0  0  0  0
 38 42  1  0  0  0  0
 38 43  1  0  0  0  0
 11 14  1  0  0  0  0
 11 15  1  0  0  0  0
 11 16  1  0  0  0  0
 45 47  1  0  0  0  0
 45 48  1  0  0  0  0
 45 49  1  0  0  0  0
 21 29  1  0  0  0  0
 21 30  1  0  0  0  0
 35 40  1  0  0  0  0
  8 13  1  0  0  0  0
 18 28  1  0  0  0  0
 23 31  1  0  0  0  0
 44 46  1  0  0  0  0
  7 12  1  0  0  0  0
 34 39  1  0  0  0  0
 17 27  1  0  0  0  0
M  END
$$$$

  -OEChem-05262214473D

 49 49  0     1  0  0  0  0  0999 V2000
   -1.5619    0.5658    3.7981 C   0  0  0  0  0  0  0  0  0  0  0  0
   -0.6145   -0.0489    3.3224 O   0  0  0  0  0  0  0  0  0  0  0  0
   -1.9938    0.2834    5.1988 C   0  0  0  0  0  0  0  0  0  0  0  0
   -2.7535   -0.5129    5.2522 H   0  0  0  0  0  0  0  0  0  0  0  0
   -1.1626   -0.0642    5.8331 H   0  0  0  0  0  0  0  0  0  0  0  0
   -2.4318    1.1383    5.7384 H   0  0  0  0  0  0  0  0  0  0  0  0
   -2.3116    1.5383    3.1570 N   0  0  0  0  0  0  0  0  0  0  0  0
   -2.0648    1.9643    1.8046 C   0  0  2  0  0  0  0  0  0  0  0  0
   -0.7298    1.3789    1.3634 C   0  0  0  0  0  0  0  0  0  0  0  0
    0.1423    1.0262    2.1547 O   0  0  0  0  0  0  0  0  0  0  0  0
   -2.0560    3.4811    1.6952 C   0  0  0  0  0  0  0  0  0  0  0  0
   -3.0767    1.9741    3.6688 H   0  0  0  0  0  0  0  0  0  0  0  0
   -2.8689    1.5458    1.1895 H   0  0  0  0  0  0  0  0  0  0  0  0
   -1.2569    3.9183    2.3049 H   0  0  0  0  0  0  0  0  0  0  0  0
   -1.8965    3.8033    0.6609 H   0  0  0  0  0  0  0  0  0  0  0  0
   -3.0062    3.9023    2.0409 H   0  0  0  0  0  0  0  0  0  0  0  0
   -0.6071    1.3358   -0.0200 N   0  0  0  0  0  0  0  0  0  0  0  0
    0.5702    0.8350   -0.6836 C   0  0  2  0  0  0  0  0  0  0  0  0
    1.7782    1.4322    0.0293 C   0  0  0  0  0  0  0  0  0  0  0  0
    2.9358    1.2261   -0.3289 O   0  0  0  0  0  0  0  0  0  0  0  0
    0.5954    1.2006   -2.1722 C   0  0  0  0  0  0  0  0  0  0  0  0
   -0.5334    0.5668   -2.9481 C   0  0  0  0  0  0  0  0  0  0  0  0
   -0.5462   -0.7573   -3.2853 N   0  0  0  0  0  0  0  0  0  0  0  0
   -1.7038    1.0726   -3.4626 C   0  0  0  0  0  0  0  0  0  0  0  0
   -1.7017   -0.9928   -3.9773 C   0  0  0  0  0  0  0  0  0  0  0  0
   -2.4267    0.0966   -4.1018 N   0  0  0  0  0  0  0  0  0  0  0  0
   -1.3903    1.6325   -0.5973 H   0  0  0  0  0  0  0  0  0  0  0  0
    0.5706   -0.2520   -0.5411 H   0  0  0  0  0  0  0  0  0  0  0  0
    1.5572    0.9134   -2.6183 H   0  0  0  0  0  0  0  0  0  0  0  0
    0.5322    2.2893   -2.3009 H   0  0  0  0  0  0  0  0  0  0  0  0
    0.1672   -1.4402   -3.0661 H   0  0  0  0  0  0  0  0  0  0  0  0
   -2.0651    2.0896   -3.4065 H   0  0  0  0  0  0  0  0  0  0  0  0
   -1.9525   -1.9719   -4.3598 H   0  0  0  0  0  0  0  0  0  0  0  0
    1.4051    2.2600    1.0791 N   0  0  0  0  0  0  0  0  0  0  0  0
    2.3545    2.9703    1.9055 C   0  0  2  0  0  0  0  0  0  0  0  0
    3.4047    1.9736    2.3780 C   0  0  0  0  0  0  0  0  0  0  0  0
    3.2051    0.7617    2.4276 O   0  0  0  0  0  0  0  0  0  0  0  0
    1.6685    3.6382    3.0871 C   0  0  0  0  0  0  0  0  0  0  0  0
    0.4151    2.3723    1.2764 H   0  0  0  0  0  0  0  0  0  0  0  0
    2.8271    3.7247    1.2673 H   0  0  0  0  0  0  0  0  0  0  0  0
    1.1891    2.8979    3.7380 H   0  0  0  0  0  0  0  0  0  0  0  0
    2.3847    4.1994    3.6963 H   0  0  0  0  0  0  0  0  0  0  0  0
    0.8931    4.3325    2.7460 H   0  0  0  0  0  0  0  0  0  0  0  0
    4.5763    2.6006    2.7787 N   0  0  0  0  0  0  0  0  0  0  0  0
    5.7184    1.8722    3.2797 C   0  0  0  0  0  0  0  0  0  0  0  0
    4.6607    3.6086    2.6853 H   0  0  0  0  0  0  0  0  0  0  0  0
    5.6595    1.8061    4.3761 H   0  0  0  0  0  0  0  0  0  0  0  0
    5.7237    0.8591    2.8511 H   0  0  0  0  0  0  0  0  0  0  0  0
    6.6420    2.3965    2.9931 H   0  0  0  0  0  0  0  0  0  0  0  0
 22 24  2  0  0  0  0
 24 26  1  0  0  0  0
 25 26  2  0  0  0  0
 23 25  1  0  0  0  0
 21 22  1  0  0  0  0
 22 23  1  0  0  0  0
  1  3  1  0  0  0  0
  1  7  1  0  0  0  0
  1  2  2  0  0  0  0
 35 36  1  0  0  0  0
 36 44  1  0  0  0  0
 36 37  2  0  0  0  0
  8  9  1  0  0  0  0
  9 17  1  0  0  0  0
  9 10  2  0  0  0  0
 18 19  1  0  0  0  0
 19 34  1  0  0  0  0
 19 20  2  0  0  0  0
 35 38  1  0  0  0  0
  8 11  1  0  0  0  0
 44 45  1  0  0  0  0
 18 21  1  0  0  0  0
 34 35  1  0  0  0  0
  7  8  1  0  0  0  0
 17 18  1  0  0  0  0
 24 32  1  0  0  0  0
 25 33  1  0  0  0  0
  3  4  1  0  0  0  0
  3  5  1  0  0  0  0
  3  6  1  0  0  0  0
 38 41  1  0  0  0  0
 38 42  1  0  0  0  0
 38 43  1  0  0  0  0
 11 14  1  0  0  0  0
 11 15  1  0  0  0  0
 11 16  1  0  0  0  0
 45 47  1  0  0  0  0
 45 48  1  0  0  0  0
 45 49  1  0  0  0  0
 21 29  1  0  0  0  0
 21 30  1  0  0  0  0
 35 40  1  0  0  0  0
  8 13  1  0  0  0  0
 18 28  1  0  0  0  0
 23 31  1  0  0  0  0
 44 46  1  0  0  0  0
  7 12  1  0  0  0  0
 34 39  1  0  0  0  0
 17 27  1  0  0  0  0
M  END
$$$$

  -OEChem-05262214473D

 49 49  0     1  0  0  0  0  0999 V2000
   -1.5619    0.5658    3.7981 C   0  0  0  0  0  0  0  0  0  0  0  0
   -0.6145   -0.0489    3.3224 O   0  0  0  0  0  0  0  0  0  0  0  0
   -1.9938    0.2834    5.1988 C   0  0  0  0  0  0  0  0  0  0  0  0
   -2.7535   -0.5129    5.2522 H   0  0  0  0  0  0  0  0  0  0  0  0
   -1.1626   -0.0642    5.8331 H   0  0  0  0  0  0  0  0  0  0  0  0
   -2.4318    1.1383    5.7384 H   0  0  0  0  0  0  0  0  0  0  0  0
   -2.3116    1.5383    3.1570 N   0  0  0  0  0  0  0  0  0  0  0  0
   -2.0648    1.9643    1.8046 C   0  0  2  0  0  0  0  0  0  0  0  0
   -0.7298    1.3789    1.3634 C   0  0  0  0  0  0  0  0  0  0  0  0
    0.1423    1.0262    2.1547 O   0  0  0  0  0  0  0  0  0  0  0  0
   -2.0560    3.4811    1.6952 C   0  0  0  0  0  0  0  0  0  0  0  0
   -3.0767    1.9741    3.6688 H   0  0  0  0  0  0  0  0  0  0  0  0
   -2.8689    1.5458    1.1895 H   0  0  0  0  0  0  0  0  0  0  0  0
   -1.2569    3.9183    2.3049 H   0  0  0  0  0  0  0  0  0  0  0  0
   -1.8965    3.8033    0.6609 H   0  0  0  0  0  0  0  0  0  0  0  0
   -3.0062    3.9023    2.0409 H   0  0  0  0  0  0  0  0  0  0  0  0
   -0.6071    1.3358   -0.0200 N   0  0  0  0  0  0  0  0  0  0  0  0
    0.5702    0.8350   -0.6836 C   0  0  2  0  0  0  0  0  0  0  0  0
    1.7782    1.4322    0.0293 C   0  0  0  0  0  0  0  0  0  0  0  0
    2.9031    1.4557   -0.4656 O   0  0  0  0  0  0  0  0  0  0  0  0
    0.5954    1.2006   -2.1722 C   0  0  0  0  0  0  0  0  0  0  0  0
   -0.5334    0.5668   -2.9481 C   0  0  0  0  0  0  0  0  0  0  0  0
   -0.5462   -0.7573   -3.2853 N   0  0  0  0  0  0  0  0  0  0  0  0
   -1.7038    1.0726   -3.4626 C   0  0  0  0  0  0  0  0  0  0  0  0
   -1.7017   -0.9928   -3.9773 C   0  0  0  0  0  0  0  0  0  0  0  0
   -2.4267    0.0966   -4.1018 N   0  0  0  0  0  0  0  0  0  0  0  0
   -1.3903    1.6325   -0.5973 H   0  0  0  0  0  0  0  0  0  0  0  0
    0.5706   -0.2520   -0.5411 H   0  0  0  0  0  0  0  0  0  0  0  0
    1.5572    0.9134   -2.6183 H   0  0  0  0  0  0  0  0  0  0  0  0
    0.5322    2.2893   -2.3009 H   0  0  0  0  0  0  0  0  0  0  0  0
    0.1672   -1.4402   -3.0661 H   0  0  0  0  0  0  0  0  0  0  0  0
   -2.0651    2.0896   -3.4065 H   0  0  0  0  0  0  0  0  0  0  0  0
   -1.9525   -1.9719   -4.3598 H   0  0  0  0  0  0  0  0  0  0  0  0
    1.4381    1.9783    1.2592 N   0  0  0  0  0  0  0  0  0  0  0  0
    2.3912    2.6286    2.1295 C   0  0  2  0  0  0  0  0  0  0  0  0
    3.5921    1.7050    2.2856 C   0  0  0  0  0  0  0  0  0  0  0  0
    3.5345    0.4920    2.0954 O   0  0  0  0  0  0  0  0  0  0  0  0
    1.7748    2.9521    3.4816 C   0  0  0  0  0  0  0  0  0  0  0  0
    0.4707    1.9178    1.5628 H   0  0  0  0  0  0  0  0  0  0  0  0
    2.7018    3.5505    1.6257 H   0  0  0  0  0  0  0  0  0  0  0  0
    1.4575    2.0407    4.0013 H   0  0  0  0  0  0  0  0  0  0  0  0
    2.4894    3.4703    4.1296 H   0  0  0  0  0  0  0  0  0  0  0  0
    0.8936    3.5922    3.3651 H   0  0  0  0  0  0  0  0  0  0  0  0
    4.7252    2.3885    2.7041 N   0  0  0  0  0  0  0  0  0  0  0  0
    5.9904    1.7318    2.9364 C   0  0  0  0  0  0  0  0  0  0  0  0
    4.6866    3.3970    2.8187 H   0  0  0  0  0  0  0  0  0  0  0  0
    6.0646    1.4418    3.9949 H   0  0  0  0  0  0  0  0  0  0  0  0
    6.0587    0.8338    2.3047 H   0  0  0  0  0  0  0  0  0  0  0  0
    6.8117    2.4194    2.6863 H   0  0  0  0  0  0  0  0  0  0  0  0
 22 24  2  0  0  0  0
 24 26  1  0  0  0  0
 25 26  2  0  0  0  0
 23 25  1  0  0  0  0
 21 22  1  0  0  0  0
 22 23  1  0  0  0  0
  1  3  1  0  0  0  0
  1  7  1  0  0  0  0
  1  2  2  0  0  0  0
 35 36  1  0  0  0  0
 36 44  1  0  0  0  0
 36 37  2  0  0  0  0
  8  9  1  0  0  0  0
  9 17  1  0  0  0  0
  9 10  2  0  0  0  0
 18 19  1  0  0  0  0
 19 34  1  0  0  0  0
 19 20  2  0  0  0  0
 35 38  1  0  0  0  0
  8 11  1  0  0  0  0
 44 45  1  0  0  0  0
 18 21  1  0  0  0  0
 34 35  1  0  0  0  0
  7  8  1  0  0  0  0
 17 18  1  0  0  0  0
 24 32  1  0  0  0  0
 25 33  1  0  0  0  0
  3  4  1  0  0  0  0
  3  5  1  0  0  0  0
  3  6  1  0  0  0  0
 38 41  1  0  0  0  0
 38 42  1  0  0  0  0
 38 43  1  0  0  0  0
 11 14  1  0  0  0  0
 11 15  1  0  0  0  0
 11 16  1  0  0  0  0
 45 47  1  0  0  0  0
 45 48  1  0  0  0  0
 45 49  1  0  0  0  0
 21 29  1  0  0  0  0
 21 30  1  0  0  0  0
 35 40  1  0  0  0  0
  8 13  1  0  0  0  0
 18 28  1  0  0  0  0
 23 31  1  0  0  0  0
 44 46  1  0  0  0  0
  7 12  1  0  0  0  0
 34 39  1  0  0  0  0
 17 27  1  0  0  0  0
M  END
$$$$

  -OEChem-05262214473D

 49 49  0     1  0  0  0  0  0999 V2000
   -1.5619    0.5658    3.7981 C   0  0  0  0  0  0  0  0  0  0  0  0
   -0.6145   -0.0489    3.3224 O   0  0  0  0  0  0  0  0  0  0  0  0
   -1.9938    0.2834    5.1988 C   0  0  0  0  0  0  0  0  0  0  0  0
   -2.7535   -0.5129    5.2522 H   0  0  0  0  0  0  0  0  0  0  0  0
   -1.1626   -0.0642    5.8331 H   0  0  0  0  0  0  0  0  0  0  0  0
   -2.4318    1.1383    5.7384 H   0  0  0  0  0  0  0  0  0  0  0  0
   -2.3116    1.5383    3.1570 N   0  0  0  0  0  0  0  0  0  0  0  0
   -2.0648    1.9643    1.8046 C   0  0  2  0  0  0  0  0  0  0  0  0
   -0.7298    1.3789    1.3634 C   0  0  0  0  0  0  0  0  0  0  0  0
    0.1423    1.0262    2.1547 O   0  0  0  0  0  0  0  0  0  0  0  0
   -2.0560    3.4811    1.6952 C   0  0  0  0  0  0  0  0  0  0  0  0
   -3.0767    1.9741    3.6688 H   0  0  0  0  0  0  0  0  0  0  0  0
   -2.8689    1.5458    1.1895 H   0  0  0  0  0  0  0  0  0  0  0  0
   -1.2569    3.9183    2.3049 H   0  0  0  0  0  0  0  0  0  0  0  0
   -1.8965    3.8033    0.6609 H   0  0  0  0  0  0  0  0  0  0  0  0
   -3.0062    3.9023    2.0409 H   0  0  0  0  0  0  0  0  0  0  0  0
   -0.6071    1.3358   -0.0200 N   0  0  0  0  0  0  0  0  0  0  0  0
    0.5702    0.8350   -0.6836 C   0  0  2  0  0  0  0  0  0  0  0  0
    1.7782    1.4322    0.0293 C   0  0  0  0  0  0  0  0  0  0  0  0
    2.8298    1.7014   -0.5473 O   0  0  0  0  0  0  0  0  0  0  0  0
    0.5954    1.2006   -2.1722 C   0  0  0  0  0  0  0  0  0  0  0  0
   -0.5334    0.5668   -2.9481 C   0  0  0  0  0  0  0  0  0  0  0  0
   -0.5462   -0.7573   -3.2853 N   0  0  0  0  0  0  0  0  0  0  0  0
   -1.7038    1.0726   -3.4626 C   0  0  0  0  0  0  0  0  0  0  0  0
   -1.7017   -0.9928   -3.9773 C   0  0  0  0  0  0  0  0  0  0  0  0
   -2.4267    0.0966   -4.1018 N   0  0  0  0  0  0  0  0  0  0  0  0
   -1.3903    1.6325   -0.5973 H   0  0  0  0  0  0  0  0  0  0  0  0
    0.5706   -0.2520   -0.5411 H   0  0  0  0  0  0  0  0  0  0  0  0
    1.5572    0.9134   -2.6183 H   0  0  0  0  0  0  0  0  0  0  0  0
    0.5322    2.2893   -2.3009 H   0  0  0  0  0  0  0  0  0  0  0  0
    0.1672   -1.4402   -3.0661 H   0  0  0  0  0  0  0  0  0  0  0  0
   -2.0651    2.0896   -3.4065 H   0  0  0  0  0  0  0  0  0  0  0  0
   -1.9525   -1.9719   -4.3598 H   0  0  0  0  0  0  0  0  0  0  0  0
    1.5223    1.6732    1.3720 N   0  0  0  0  0  0  0  0  0  0  0  0
    2.4907    2.2572    2.2720 C   0  0  2  0  0  0  0  0  0  0  0  0
    3.7962    1.4872    2.1222 C   0  0  0  0  0  0  0  0  0  0  0  0
    3.8516    0.3394    1.6858 O   0  0  0  0  0  0  0  0  0  0  0  0
    2.0006    2.2213    3.7112 C   0  0  0  0  0  0  0  0  0  0  0  0
    0.6085    1.4268    1.7407 H   0  0  0  0  0  0  0  0  0  0  0  0
    2.6381    3.2935    1.9489 H   0  0  0  0  0  0  0  0  0  0  0  0
    1.8472    1.1911    4.0526 H   0  0  0  0  0  0  0  0  0  0  0  0
    2.7227    2.6898    4.3880 H   0  0  0  0  0  0  0  0  0  0  0  0
    1.0466    2.7501    3.8113 H   0  0  0  0  0  0  0  0  0  0  0  0
    4.8871    2.2169    2.5734 N   0  0  0  0  0  0  0  0  0  0  0  0
    6.2353    1.6994    2.5485 C   0  0  0  0  0  0  0  0  0  0  0  0
    4.7507    3.1684    2.9015 H   0  0  0  0  0  0  0  0  0  0  0  0
    6.4613    1.2171    3.5109 H   0  0  0  0  0  0  0  0  0  0  0  0
    6.3300    0.9620    1.7378 H   0  0  0  0  0  0  0  0  0  0  0  0
    6.9417    2.5251    2.3775 H   0  0  0  0  0  0  0  0  0  0  0  0
 22 24  2  0  0  0  0
 24 26  1  0  0  0  0
 25 26  2  0  0  0  0
 23 25  1  0  0  0  0
 21 22  1  0  0  0  0
 22 23  1  0  0  0  0
  1  3  1  0  0  0  0
  1  7  1  0  0  0  0
  1  2  2  0  0  0  0
 35 36  1  0  0  0  0
 36 44  1  0  0  0  0
 36 37  2  0  0  0  0
  8  9  1  0  0  0  0
  9 17  1  0  0  0  0
  9 10  2  0  0  0  0
 18 19  1  0  0  0  0
 19 34  1  0  0  0  0
 19 20  2  0  0  0  0
 35 38  1  0  0  0  0
  8 11  1  0  0  0  0
 44 45  1  0  0  0  0
 18 21  1  0  0  0  0
 34 35  1  0  0  0  0
  7  8  1  0  0  0  0
 17 18  1  0  0  0  0
 24 32  1  0  0  0  0
 25 33  1  0  0  0  0
  3  4  1  0  0  0  0
  3  5  1  0  0  0  0
  3  6  1  0  0  0  0
 38 41  1  0  0  0  0
 38 42  1  0  0  0  0
 38 43  1  0  0  0  0
 11 14  1  0  0  0  0
 11 15  1  0  0  0  0
 11 16  1  0  0  0  0
 45 47  1  0  0  0  0
 45 48  1  0  0  0  0
 45 49  1  0  0  0  0
 21 29  1  0  0  0  0
 21 30  1  0  0  0  0
 35 40  1  0  0  0  0
  8 13  1  0  0  0  0
 18 28  1  0  0  0  0
 23 31  1  0  0  0  0
 44 46  1  0  0  0  0
  7 12  1  0  0  0  0
 34 39  1  0  0  0  0
 17 27  1  0  0  0  0
M  END
$$$$

  -OEChem-05262214473D

 49 49  0     1  0  0  0  0  0999 V2000
   -1.5619    0.5658    3.7981 C   0  0  0  0  0  0  0  0  0  0  0  0
   -0.6145   -0.0489    3.3224 O   0  0  0  0  0  0  0  0  0  0  0  0
   -1.9938    0.2834    5.1988 C   0  0  0  0  0  0  0  0  0  0  0  0
   -2.7535   -0.5129    5.2522 H   0  0  0  0  0  0  0  0  0  0  0  0
   -1.1626   -0.0642    5.8331 H   0  0  0  0  0  0  0  0  0  0  0  0
   -2.4318    1.1383    5.7384 H   0  0  0  0  0  0  0  0  0  0  0  0
   -2.3116    1.5383    3.1570 N   0  0  0  0  0  0  0  0  0  0  0  0
   -2.0648    1.9643    1.8046 C   0  0  2  0  0  0  0  0  0  0  0  0
   -0.7298    1.3789    1.3634 C   0  0  0  0  0  0  0  0  0  0  0  0
    0.1423    1.0262    2.1547 O   0  0  0  0  0  0  0  0  0  0  0  0
   -2.0560    3.4811    1.6952 C   0  0  0  0  0  0  0  0  0  0  0  0
   -3.0767    1.9741    3.6688 H   0  0  0  0  0  0  0  0  0  0  0  0
   -2.8689    1.5458    1.1895 H   0  0  0  0  0  0  0  0  0  0  0  0
   -1.2569    3.9183    2.3049 H   0  0  0  0  0  0  0  0  0  0  0  0
   -1.8965    3.8033    0.6609 H   0  0  0  0  0  0  0  0  0  0  0  0
   -3.0062    3.9023    2.0409 H   0  0  0  0  0  0  0  0  0  0  0  0
   -0.6071    1.3358   -0.0200 N   0  0  0  0  0  0  0  0  0  0  0  0
    0.5702    0.8350   -0.6836 C   0  0  2  0  0  0  0  0  0  0  0  0
    1.7782    1.4322    0.0293 C   0  0  0  0  0  0  0  0  0  0  0  0
    2.7210    1.9467   -0.5684 O   0  0  0  0  0  0  0  0  0  0  0  0
    0.5954    1.2006   -2.1722 C   0  0  0  0  0  0  0  0  0  0  0  0
   -0.5334    0.5668   -2.9481 C   0  0  0  0  0  0  0  0  0  0  0  0
   -0.5462   -0.7573   -3.2853 N   0  0  0  0  0  0  0  0  0  0  0  0
   -1.7038    1.0726   -3.4626 C   0  0  0  0  0  0  0  0  0  0  0  0
   -1.7017   -0.9928   -3.9773 C   0  0  0  0  0  0  0  0  0  0  0  0
   -2.4267    0.0966   -4.1018 N   0  0  0  0  0  0  0  0  0  0  0  0
   -1.3903    1.6325   -0.5973 H   0  0  0  0  0  0  0  0  0  0  0  0
    0.5706   -0.2520   -0.5411 H   0  0  0  0  0  0  0  0  0  0  0  0
    1.5572    0.9134   -2.6183 H   0  0  0  0  0  0  0  0  0  0  0  0
    0.5322    2.2893   -2.3009 H   0  0  0  0  0  0  0  0  0  0  0  0
    0.1672   -1.4402   -3.0661 H   0  0  0  0  0  0  0  0  0  0  0  0
   -2.0651    2.0896   -3.4065 H   0  0  0  0  0  0  0  0  0  0  0  0
   -1.9525   -1.9719   -4.3598 H   0  0  0  0  0  0  0  0  0  0  0  0
    1.6520    1.3656    1.4099 N   0  0  0  0  0  0  0  0  0  0  0  0
    2.6462    1.8812    2.3234 C   0  0  2  0  0  0  0  0  0  0  0  0
    4.0031    1.3351    1.8990 C   0  0  0  0  0  0  0  0  0  0  0  0
    4.1349    0.3144    1.2267 O   0  0  0  0  0  0  0  0  0  0  0  0
    2.3304    1.4957    3.7602 C   0  0  0  0  0  0  0  0  0  0  0  0
    0.8190    0.9327    1.7978 H   0  0  0  0  0  0  0  0  0  0  0  0
    2.6404    2.9713    2.2148 H   0  0  0  0  0  0  0  0  0  0  0  0
    2.3317    0.4071    3.8884 H   0  0  0  0  0  0  0  0  0  0  0  0
    3.0688    1.9111    4.4539 H   0  0  0  0  0  0  0  0  0  0  0  0
    1.3415    1.8638    4.0541 H   0  0  0  0  0  0  0  0  0  0  0  0
    5.0511    2.0975    2.3955 N   0  0  0  0  0  0  0  0  0  0  0  0
    6.4365    1.7774    2.1423 C   0  0  0  0  0  0  0  0  0  0  0  0
    4.8487    2.9384    2.9281 H   0  0  0  0  0  0  0  0  0  0  0  0
    6.8226    1.1473    2.9571 H   0  0  0  0  0  0  0  0  0  0  0  0
    6.5190    1.2349    1.1889 H   0  0  0  0  0  0  0  0  0  0  0  0
    7.0233    2.7062    2.0876 H   0  0  0  0  0  0  0  0  0  0  0  0
 22 24  2  0  0  0  0
 24 26  1  0  0  0  0
 25 26  2  0  0  0  0
 23 25  1  0  0  0  0
 21 22  1  0  0  0  0
 22 23  1  0  0  0  0
  1  3  1  0  0  0  0
  1  7  1  0  0  0  0
  1  2  2  0  0  0  0
 35 36  1  0  0  0  0
 36 44  1  0  0  0  0
 36 37  2  0  0  0  0
  8  9  1  0  0  0  0
  9 17  1  0  0  0  0
  9 10  2  0  0  0  0
 18 19  1  0  0  0  0
 19 34  1  0  0  0  0
 19 20  2  0  0  0  0
 35 38  1  0  0  0  0
  8 11  1  0  0  0  0
 44 45  1  0  0  0  0
 18 21  1  0  0  0  0
 34 35  1  0  0  0  0
  7  8  1  0  0  0  0
 17 18  1  0  0  0  0
 24 32  1  0  0  0  0
 25 33  1  0  0  0  0
  3  4  1  0  0  0  0
  3  5  1  0  0  0  0
  3  6  1  0  0  0  0
 38 41  1  0  0  0  0
 38 42  1  0  0  0  0
 38 43  1  0  0  0  0
 11 14  1  0  0  0  0
 11 15  1  0  0  0  0
 11 16  1  0  0  0  0
 45 47  1  0  0  0  0
 45 48  1  0  0  0  0
 45 49  1  0  0  0  0
 21 29  1  0  0  0  0
 21 30  1  0  0  0  0
 35 40  1  0  0  0  0
  8 13  1  0  0  0  0
 18 28  1  0  0  0  0
 23 31  1  0  0  0  0
 44 46  1  0  0  0  0
  7 12  1  0  0  0  0
 34 39  1  0  0  0  0
 17 27  1  0  0  0  0
M  END
$$$$

  -OEChem-05262214473D

 49 49  0     1  0  0  0  0  0999 V2000
   -1.5619    0.5658    3.7981 C   0  0  0  0  0  0  0  0  0  0  0  0
   -0.6145   -0.0489    3.3224 O   0  0  0  0  0  0  0  0  0  0  0  0
   -1.9938    0.2834    5.1988 C   0  0  0  0  0  0  0  0  0  0  0  0
   -2.7535   -0.5129    5.2522 H   0  0  0  0  0  0  0  0  0  0  0  0
   -1.1626   -0.0642    5.8331 H   0  0  0  0  0  0  0  0  0  0  0  0
   -2.4318    1.1383    5.7384 H   0  0  0  0  0  0  0  0  0  0  0  0
   -2.3116    1.5383    3.1570 N   0  0  0  0  0  0  0  0  0  0  0  0
   -2.0648    1.9643    1.8046 C   0  0  2  0  0  0  0  0  0  0  0  0
   -0.7298    1.3789    1.3634 C   0  0  0  0  0  0  0  0  0  0  0  0
    0.1423    1.0262    2.1547 O   0  0  0  0  0  0  0  0  0  0  0  0
   -2.0560    3.4811    1.6952 C   0  0  0  0  0  0  0  0  0  0  0  0
   -3.0767    1.9741    3.6688 H   0  0  0  0  0  0  0  0  0  0  0  0
   -2.8689    1.5458    1.1895 H   0  0  0  0  0  0  0  0  0  0  0  0
   -1.2569    3.9183    2.3049 H   0  0  0  0  0  0  0  0  0  0  0  0
   -1.8965    3.8033    0.6609 H   0  0  0  0  0  0  0  0  0  0  0  0
   -3.0062    3.9023    2.0409 H   0  0  0  0  0  0  0  0  0  0  0  0
   -0.6071    1.3358   -0.0200 N   0  0  0  0  0  0  0  0  0  0  0  0
    0.5702    0.8350   -0.6836 C   0  0  2  0  0  0  0  0  0  0  0  0
    1.7782    1.4322    0.0293 C   0  0  0  0  0  0  0  0  0  0  0  0
    2.5841    2.1748   -0.5275 O   0  0  0  0  0  0  0  0  0  0  0  0
    0.5954    1.2006   -2.1722 C   0  0  0  0  0  0  0  0  0  0  0  0
   -0.5334    0.5668   -2.9481 C   0  0  0  0  0  0  0  0  0  0  0  0
   -0.5462   -0.7573   -3.2853 N   0  0  0  0  0  0  0  0  0  0  0  0
   -1.7038    1.0726   -3.4626 C   0  0  0  0  0  0  0  0  0  0  0  0
   -1.7017   -0.9928   -3.9773 C   0  0  0  0  0  0  0  0  0  0  0  0
   -2.4267    0.0966   -4.1018 N   0  0  0  0  0  0  0  0  0  0  0  0
   -1.3903    1.6325   -0.5973 H   0  0  0  0  0  0  0  0  0  0  0  0
    0.5706   -0.2520   -0.5411 H   0  0  0  0  0  0  0  0  0  0  0  0
    1.5572    0.9134   -2.6183 H   0  0  0  0  0  0  0  0  0  0  0  0
    0.5322    2.2893   -2.3009 H   0  0  0  0  0  0  0  0  0  0  0  0
    0.1672   -1.4402   -3.0661 H   0  0  0  0  0  0  0  0  0  0  0  0
   -2.0651    2.0896   -3.4065 H   0  0  0  0  0  0  0  0  0  0  0  0
   -1.9525   -1.9719   -4.3598 H   0  0  0  0  0  0  0  0  0  0  0  0
    1.8184    1.0764    1.3703 N   0  0  0  0  0  0  0  0  0  0  0  0
    2.8472    1.5263    2.2802 C   0  0  2  0  0  0  0  0  0  0  0  0
    4.1988    1.2589    1.6312 C   0  0  0  0  0  0  0  0  0  0  0  0
    4.3650    0.4187    0.7495 O   0  0  0  0  0  0  0  0  0  0  0  0
    2.7417    0.8247    3.6253 C   0  0  0  0  0  0  0  0  0  0  0  0
    1.0880    0.4692    1.7303 H   0  0  0  0  0  0  0  0  0  0  0  0
    2.7087    2.6058    2.4053 H   0  0  0  0  0  0  0  0  0  0  0  0
    2.8779   -0.2578    3.5199 H   0  0  0  0  0  0  0  0  0  0  0  0
    3.5040    1.1873    4.3228 H   0  0  0  0  0  0  0  0  0  0  0  0
    1.7582    0.9936    4.0769 H   0  0  0  0  0  0  0  0  0  0  0  0
    5.2059    2.0386    2.1827 N   0  0  0  0  0  0  0  0  0  0  0  0
    6.5802    1.9603    1.7455 C   0  0  0  0  0  0  0  0  0  0  0  0
    4.9739    2.7227    2.8967 H   0  0  0  0  0  0  0  0  0  0  0  0
    7.1239    1.2373    2.3712 H   0  0  0  0  0  0  0  0  0  0  0  0
    6.6129    1.6339    0.6956 H   0  0  0  0  0  0  0  0  0  0  0  0
    7.0507    2.9505    1.8365 H   0  0  0  0  0  0  0  0  0  0  0  0
 22 24  2  0  0  0  0
 24 26  1  0  0  0  0
 25 26  2  0  0  0  0
 23 25  1  0  0  0  0
 21 22  1  0  0  0  0
 22 23  1  0  0  0  0
  1  3  1  0  0  0  0
  1  7  1  0  0  0  0
  1  2  2  0  0  0  0
 35 36  1  0  0  0  0
 36 44  1  0  0  0  0
 36 37  2  0  0  0  0
  8  9  1  0  0  0  0
  9 17  1  0  0  0  0
  9 10  2  0  0  0  0
 18 19  1  0  0  0  0
 19 34  1  0  0  0  0
 19 20  2  0  0  0  0
 35 38  1  0  0  0  0
  8 11  1  0  0  0  0
 44 45  1  0  0  0  0
 18 21  1  0  0  0  0
 34 35  1  0  0  0  0
  7  8  1  0  0  0  0
 17 18  1  0  0  0  0
 24 32  1  0  0  0  0
 25 33  1  0  0  0  0
  3  4  1  0  0  0  0
  3  5  1  0  0  0  0
  3  6  1  0  0  0  0
 38 41  1  0  0  0  0
 38 42  1  0  0  0  0
 38 43  1  0  0  0  0
 11 14  1  0  0  0  0
 11 15  1  0  0  0  0
 11 16  1  0  0  0  0
 45 47  1  0  0  0  0
 45 48  1  0  0  0  0
 45 49  1  0  0  0  0
 21 29  1  0  0  0  0
 21 30  1  0  0  0  0
 35 40  1  0  0  0  0
  8 13  1  0  0  0  0
 18 28  1  0  0  0  0
 23 31  1  0  0  0  0
 44 46  1  0  0  0  0
  7 12  1  0  0  0  0
 34 39  1  0  0  0  0
 17 27  1  0  0  0  0
M  END
$$$$

  -OEChem-05262214473D

 49 49  0     1  0  0  0  0  0999 V2000
   -1.5619    0.5658    3.7981 C   0  0  0  0  0  0  0  0  0  0  0  0
   -0.6145   -0.0489    3.3224 O   0  0  0  0  0  0  0  0  0  0  0  0
   -1.9938    0.2834    5.1988 C   0  0  0  0  0  0  0  0  0  0  0  0
   -2.7535   -0.5129    5.2522 H   0  0  0  0  0  0  0  0  0  0  0  0
   -1.1626   -0.0642    5.8331 H   0  0  0  0  0  0  0  0  0  0  0  0
   -2.4318    1.1383    5.7384 H   0  0  0  0  0  0  0  0  0  0  0  0
   -2.3116    1.5383    3.1570 N   0  0  0  0  0  0  0  0  0  0  0  0
   -2.0648    1.9643    1.8046 C   0  0  2  0  0  0  0  0  0  0  0  0
   -0.7298    1.3789    1.3634 C   0  0  0  0  0  0  0  0  0  0  0  0
    0.1423    1.0262    2.1547 O   0  0  0  0  0  0  0  0  0  0  0  0
   -2.0560    3.4811    1.6952 C   0  0  0  0  0  0  0  0  0  0  0  0
   -3.0767    1.9741    3.6688 H   0  0  0  0  0  0  0  0  0  0  0  0
   -2.8689    1.5458    1.1895 H   0  0  0  0  0  0  0  0  0  0  0  0
   -1.2569    3.9183    2.3049 H   0  0  0  0  0  0  0  0  0  0  0  0
   -1.8965    3.8033    0.6609 H   0  0  0  0  0  0  0  0  0  0  0  0
   -3.0062    3.9023    2.0409 H   0  0  0  0  0  0  0  0  0  0  0  0
   -0.6071    1.3358   -0.0200 N   0  0  0  0  0  0  0  0  0  0  0  0
    0.5702    0.8350   -0.6836 C   0  0  2  0  0  0  0  0  0  0  0  0
    1.7782    1.4322    0.0293 C   0  0  0  0  0  0  0  0  0  0  0  0
    2.4283    2.3702   -0.4272 O   0  0  0  0  0  0  0  0  0  0  0  0
    0.5954    1.2006   -2.1722 C   0  0  0  0  0  0  0  0  0  0  0  0
   -0.5334    0.5668   -2.9481 C   0  0  0  0  0  0  0  0  0  0  0  0
   -0.5462   -0.7573   -3.2853 N   0  0  0  0  0  0  0  0  0  0  0  0
   -1.7038    1.0726   -3.4626 C   0  0  0  0  0  0  0  0  0  0  0  0
   -1.7017   -0.9928   -3.9773 C   0  0  0  0  0  0  0  0  0  0  0  0
   -2.4267    0.0966   -4.1018 N   0  0  0  0  0  0  0  0  0  0  0  0
   -1.3903    1.6325   -0.5973 H   0  0  0  0  0  0  0  0  0  0  0  0
    0.5706   -0.2520   -0.5411 H   0  0  0  0  0  0  0  0  0  0  0  0
    1.5572    0.9134   -2.6183 H   0  0  0  0  0  0  0  0  0  0  0  0
    0.5322    2.2893   -2.3009 H   0  0  0  0  0  0  0  0  0  0  0  0
    0.1672   -1.4402   -3.0661 H   0  0  0  0  0  0  0  0  0  0  0  0
   -2.0651    2.0896   -3.4065 H   0  0  0  0  0  0  0  0  0  0  0  0
   -1.9525   -1.9719   -4.3598 H   0  0  0  0  0  0  0  0  0  0  0  0
    2.0101    0.8253    1.2558 N   0  0  0  0  0  0  0  0  0  0  0  0
    3.0798    1.2167    2.1453 C   0  0  2  0  0  0  0  0  0  0  0  0
    4.3699    1.2640    1.3371 C   0  0  0  0  0  0  0  0  0  0  0  0
    4.5263    0.6452    0.2865 O   0  0  0  0  0  0  0  0  0  0  0  0
    3.2066    0.2540    3.3156 C   0  0  0  0  0  0  0  0  0  0  0  0
    1.3970    0.0679    1.5427 H   0  0  0  0  0  0  0  0  0  0  0  0
    2.8381    2.2219    2.5075 H   0  0  0  0  0  0  0  0  0  0  0  0
    3.4485   -0.7584    2.9722 H   0  0  0  0  0  0  0  0  0  0  0  0
    3.9986    0.5678    4.0035 H   0  0  0  0  0  0  0  0  0  0  0  0
    2.2684    0.1988    3.8782 H   0  0  0  0  0  0  0  0  0  0  0  0
    5.3409    2.0440    1.9492 N   0  0  0  0  0  0  0  0  0  0  0  0
    6.6566    2.2358    1.3852 C   0  0  0  0  0  0  0  0  0  0  0  0
    5.1177    2.5359    2.8095 H   0  0  0  0  0  0  0  0  0  0  0  0
    7.3447    1.4807    1.7932 H   0  0  0  0  0  0  0  0  0  0  0  0
    6.6052    2.1319    0.2914 H   0  0  0  0  0  0  0  0  0  0  0  0
    7.0222    3.2412    1.6413 H   0  0  0  0  0  0  0  0  0  0  0  0
 22 24  2  0  0  0  0
 24 26  1  0  0  0  0
 25 26  2  0  0  0  0
 23 25  1  0  0  0  0
 21 22  1  0  0  0  0
 22 23  1  0  0  0  0
  1  3  1  0  0  0  0
  1  7  1  0  0  0  0
  1  2  2  0  0  0  0
 35 36  1  0  0  0  0
 36 44  1  0  0  0  0
 36 37  2  0  0  0  0
  8  9  1  0  0  0  0
  9 17  1  0  0  0  0
  9 10  2  0  0  0  0
 18 19  1  0  0  0  0
 19 34  1  0  0  0  0
 19 20  2  0  0  0  0
 35 38  1  0  0  0  0
  8 11  1  0  0  0  0
 44 45  1  0  0  0  0
 18 21  1  0  0  0  0
 34 35  1  0  0  0  0
  7  8  1  0  0  0  0
 17 18  1  0  0  0  0
 24 32  1  0  0  0  0
 25 33  1  0  0  0  0
  3  4  1  0  0  0  0
  3  5  1  0  0  0  0
  3  6  1  0  0  0  0
 38 41  1  0  0  0  0
 38 42  1  0  0  0  0
 38 43  1  0  0  0  0
 11 14  1  0  0  0  0
 11 15  1  0  0  0  0
 11 16  1  0  0  0  0
 45 47  1  0  0  0  0
 45 48  1  0  0  0  0
 45 49  1  0  0  0  0
 21 29  1  0  0  0  0
 21 30  1  0  0  0  0
 35 40  1  0  0  0  0
  8 13  1  0  0  0  0
 18 28  1  0  0  0  0
 23 31  1  0  0  0  0
 44 46  1  0  0  0  0
  7 12  1  0  0  0  0
 34 39  1  0  0  0  0
 17 27  1  0  0  0  0
M  END
$$$$

  -OEChem-05262214473D

 49 49  0     1  0  0  0  0  0999 V2000
   -1.5619    0.5658    3.7981 C   0  0  0  0  0  0  0  0  0  0  0  0
   -0.6145   -0.0489    3.3224 O   0  0  0  0  0  0  0  0  0  0  0  0
   -1.9938    0.2834    5.1988 C   0  0  0  0  0  0  0  0  0  0  0  0
   -2.7535   -0.5129    5.2522 H   0  0  0  0  0  0  0  0  0  0  0  0
   -1.1626   -0.0642    5.8331 H   0  0  0  0  0  0  0  0  0  0  0  0
   -2.4318    1.1383    5.7384 H   0  0  0  0  0  0  0  0  0  0  0  0
   -2.3116    1.5383    3.1570 N   0  0  0  0  0  0  0  0  0  0  0  0
   -2.0648    1.9643    1.8046 C   0  0  2  0  0  0  0  0  0  0  0  0
   -0.7298    1.3789    1.3634 C   0  0  0  0  0  0  0  0  0  0  0  0
    0.1423    1.0262    2.1547 O   0  0  0  0  0  0  0  0  0  0  0  0
   -2.0560    3.4811    1.6952 C   0  0  0  0  0  0  0  0  0  0  0  0
   -3.0767    1.9741    3.6688 H   0  0  0  0  0  0  0  0  0  0  0  0
   -2.8689    1.5458    1.1895 H   0  0  0  0  0  0  0  0  0  0  0  0
   -1.2569    3.9183    2.3049 H   0  0  0  0  0  0  0  0  0  0  0  0
   -1.8965    3.8033    0.6609 H   0  0  0  0  0  0  0  0  0  0  0  0
   -3.0062    3.9023    2.0409 H   0  0  0  0  0  0  0  0  0  0  0  0
   -0.6071    1.3358   -0.0200 N   0  0  0  0  0  0  0  0  0  0  0  0
    0.5702    0.8350   -0.6836 C   0  0  2  0  0  0  0  0  0  0  0  0
    1.7782    1.4322    0.0293 C   0  0  0  0  0  0  0  0  0  0  0  0
    2.2645    2.5195   -0.2746 O   0  0  0  0  0  0  0  0  0  0  0  0
    0.5954    1.2006   -2.1722 C   0  0  0  0  0  0  0  0  0  0  0  0
   -0.5334    0.5668   -2.9481 C   0  0  0  0  0  0  0  0  0  0  0  0
   -0.5462   -0.7573   -3.2853 N   0  0  0  0  0  0  0  0  0  0  0  0
   -1.7038    1.0726   -3.4626 C   0  0  0  0  0  0  0  0  0  0  0  0
   -1.7017   -0.9928   -3.9773 C   0  0  0  0  0  0  0  0  0  0  0  0
   -2.4267    0.0966   -4.1018 N   0  0  0  0  0  0  0  0  0  0  0  0
   -1.3903    1.6325   -0.5973 H   0  0  0  0  0  0  0  0  0  0  0  0
    0.5706   -0.2520   -0.5411 H   0  0  0  0  0  0  0  0  0  0  0  0
    1.5572    0.9134   -2.6183 H   0  0  0  0  0  0  0  0  0  0  0  0
    0.5322    2.2893   -2.3009 H   0  0  0  0  0  0  0  0  0  0  0  0
    0.1672   -1.4402   -3.0661 H   0  0  0  0  0  0  0  0  0  0  0  0
   -2.0651    2.0896   -3.4065 H   0  0  0  0  0  0  0  0  0  0  0  0
   -1.9525   -1.9719   -4.3598 H   0  0  0  0  0  0  0  0  0  0  0  0
    2.2140    0.6294    1.0743 N   0  0  0  0  0  0  0  0  0  0  0  0
    3.3284    0.9735    1.9279 C   0  0  2  0  0  0  0  0  0  0  0  0
    4.5047    1.3499    1.0367 C   0  0  0  0  0  0  0  0  0  0  0  0
    4.6077    0.9784   -0.1306 O   0  0  0  0  0  0  0  0  0  0  0  0
    3.6933   -0.1775    2.8524 C   0  0  0  0  0  0  0  0  0  0  0  0
    1.7251   -0.2438    1.2480 H   0  0  0  0  0  0  0  0  0  0  0  0
    3.0200    1.8459    2.5143 H   0  0  0  0  0  0  0  0  0  0  0  0
    4.0049   -1.0606    2.2827 H   0  0  0  0  0  0  0  0  0  0  0  0
    4.5191    0.0947    3.5180 H   0  0  0  0  0  0  0  0  0  0  0  0
    2.8372   -0.4665    3.4716 H   0  0  0  0  0  0  0  0  0  0  0  0
    5.4471    2.1135    1.7112 N   0  0  0  0  0  0  0  0  0  0  0  0
    6.6606    2.5851    1.0860 C   0  0  0  0  0  0  0  0  0  0  0  0
    5.2704    2.3907    2.6723 H   0  0  0  0  0  0  0  0  0  0  0  0
    7.4699    1.8612    1.2625 H   0  0  0  0  0  0  0  0  0  0  0  0
    6.4966    2.6949    0.0038 H   0  0  0  0  0  0  0  0  0  0  0  0
    6.9397    3.5587    1.5152 H   0  0  0  0  0  0  0  0  0  0  0  0
 22 24  2  0  0  0  0
 24 26  1  0  0  0  0
 25 26  2  0  0  0  0
 23 25  1  0  0  0  0
 21 22  1  0  0  0  0
 22 23  1  0  0  0  0
  1  3  1  0  0  0  0
  1  7  1  0  0  0  0
  1  2  2  0  0  0  0
 35 36  1  0  0  0  0
 36 44  1  0  0  0  0
 36 37  2  0  0  0  0
  8  9  1  0  0  0  0
  9 17  1  0  0  0  0
  9 10  2  0  0  0  0
 18 19  1  0  0  0  0
 19 34  1  0  0  0  0
 19 20  2  0  0  0  0
 35 38  1  0  0  0  0
  8 11  1  0  0  0  0
 44 45  1  0  0  0  0
 18 21  1  0  0  0  0
 34 35  1  0  0  0  0
  7  8  1  0  0  0  0
 17 18  1  0  0  0  0
 24 32  1  0  0  0  0
 25 33  1  0  0  0  0
  3  4  1  0  0  0  0
  3  5  1  0  0  0  0
  3  6  1  0  0  0  0
 38 41  1  0  0  0  0
 38 42  1  0  0  0  0
 38 43  1  0  0  0  0
 11 14  1  0  0  0  0
 11 15  1  0  0  0  0
 11 16  1  0  0  0  0
 45 47  1  0  0  0  0
 45 48  1  0  0  0  0
 45 49  1  0  0  0  0
 21 29  1  0  0  0  0
 21 30  1  0  0  0  0
 35 40  1  0  0  0  0
  8 13  1  0  0  0  0
 18 28  1  0  0  0  0
 23 31  1  0  0  0  0
 44 46  1  0  0  0  0
  7 12  1  0  0  0  0
 34 39  1  0  0  0  0
 17 27  1  0  0  0  0
M  END
$$$$

  -OEChem-05262214473D

 49 49  0     1  0  0  0  0  0999 V2000
   -1.5619    0.5658    3.7981 C   0  0  0  0  0  0  0  0  0  0  0  0
   -0.6145   -0.0489    3.3224 O   0  0  0  0  0  0  0  0  0  0  0  0
   -1.9938    0.2834    5.1988 C   0  0  0  0  0  0  0  0  0  0  0  0
   -2.7535   -0.5129    5.2522 H   0  0  0  0  0  0  0  0  0  0  0  0
   -1.1626   -0.0642    5.8331 H   0  0  0  0  0  0  0  0  0  0  0  0
   -2.4318    1.1383    5.7384 H   0  0  0  0  0  0  0  0  0  0  0  0
   -2.3116    1.5383    3.1570 N   0  0  0  0  0  0  0  0  0  0  0  0
   -2.0648    1.9643    1.8046 C   0  0  2  0  0  0  0  0  0  0  0  0
   -0.7298    1.3789    1.3634 C   0  0  0  0  0  0  0  0  0  0  0  0
    0.1423    1.0262    2.1547 O   0  0  0  0  0  0  0  0  0  0  0  0
   -2.0560    3.4811    1.6952 C   0  0  0  0  0  0  0  0  0  0  0  0
   -3.0767    1.9741    3.6688 H   0  0  0  0  0  0  0  0  0  0  0  0
   -2.8689    1.5458    1.1895 H   0  0  0  0  0  0  0  0  0  0  0  0
   -1.2569    3.9183    2.3049 H   0  0  0  0  0  0  0  0  0  0  0  0
   -1.8965    3.8033    0.6609 H   0  0  0  0  0  0  0  0  0  0  0  0
   -3.0062    3.9023    2.0409 H   0  0  0  0  0  0  0  0  0  0  0  0
   -0.6071    1.3358   -0.0200 N   0  0  0  0  0  0  0  0  0  0  0  0
    0.5702    0.8350   -0.6836 C   0  0  2  0  0  0  0  0  0  0  0  0
    1.7782    1.4322    0.0293 C   0  0  0  0  0  0  0  0  0  0  0  0
    2.1036    2.6125   -0.0799 O   0  0  0  0  0  0  0  0  0  0  0  0
    0.5954    1.2006   -2.1722 C   0  0  0  0  0  0  0  0  0  0  0  0
   -0.5334    0.5668   -2.9481 C   0  0  0  0  0  0  0  0  0  0  0  0
   -0.5462   -0.7573   -3.2853 N   0  0  0  0  0  0  0  0  0  0  0  0
   -1.7038    1.0726   -3.4626 C   0  0  0  0  0  0  0  0  0  0  0  0
   -1.7017   -0.9928   -3.9773 C   0  0  0  0  0  0  0  0  0  0  0  0
   -2.4267    0.0966   -4.1018 N   0  0  0  0  0  0  0  0  0  0  0  0
   -1.3903    1.6325   -0.5973 H   0  0  0  0  0  0  0  0  0  0  0  0
    0.5706   -0.2520   -0.5411 H   0  0  0  0  0  0  0  0  0  0  0  0
    1.5572    0.9134   -2.6183 H   0  0  0  0  0  0  0  0  0  0  0  0
    0.5322    2.2893   -2.3009 H   0  0  0  0  0  0  0  0  0  0  0  0
    0.1672   -1.4402   -3.0661 H   0  0  0  0  0  0  0  0  0  0  0  0
   -2.0651    2.0896   -3.4065 H   0  0  0  0  0  0  0  0  0  0  0  0
   -1.9525   -1.9719   -4.3598 H   0  0  0  0  0  0  0  0  0  0  0  0
    2.4163    0.5022    0.8382 N   0  0  0  0  0  0  0  0  0  0  0  0
    3.5758    0.8132    1.6428 C   0  0  2  0  0  0  0  0  0  0  0  0
    4.5941    1.5107    0.7505 C   0  0  0  0  0  0  0  0  0  0  0  0
    4.6037    1.3957   -0.4733 O   0  0  0  0  0  0  0  0  0  0  0  0
    4.1687   -0.4404    2.2670 C   0  0  0  0  0  0  0  0  0  0  0  0
    2.0498   -0.4448    0.8660 H   0  0  0  0  0  0  0  0  0  0  0  0
    3.2419    1.5032    2.4254 H   0  0  0  0  0  0  0  0  0  0  0  0
    4.5089   -1.1437    1.4983 H   0  0  0  0  0  0  0  0  0  0  0  0
    5.0298   -0.1997    2.8992 H   0  0  0  0  0  0  0  0  0  0  0  0
    3.4259   -0.9568    2.8847 H   0  0  0  0  0  0  0  0  0  0  0  0
    5.5171    2.2422    1.4848 N   0  0  0  0  0  0  0  0  0  0  0  0
    6.5918    2.9843    0.8681 C   0  0  0  0  0  0  0  0  0  0  0  0
    5.4216    2.2971    2.4945 H   0  0  0  0  0  0  0  0  0  0  0  0
    7.4909    2.3527    0.8151 H   0  0  0  0  0  0  0  0  0  0  0  0
    6.2944    3.2845   -0.1475 H   0  0  0  0  0  0  0  0  0  0  0  0
    6.8087    3.8811    1.4669 H   0  0  0  0  0  0  0  0  0  0  0  0
 22 24  2  0  0  0  0
 24 26  1  0  0  0  0
 25 26  2  0  0  0  0
 23 25  1  0  0  0  0
 21 22  1  0  0  0  0
 22 23  1  0  0  0  0
  1  3  1  0  0  0  0
  1  7  1  0  0  0  0
  1  2  2  0  0  0  0
 35 36  1  0  0  0  0
 36 44  1  0  0  0  0
 36 37  2  0  0  0  0
  8  9  1  0  0  0  0
  9 17  1  0  0  0  0
  9 10  2  0  0  0  0
 18 19  1  0  0  0  0
 19 34  1  0  0  0  0
 19 20  2  0  0  0  0
 35 38  1  0  0  0  0
  8 11  1  0  0  0  0
 44 45  1  0  0  0  0
 18 21  1  0  0  0  0
 34 35  1  0  0  0  0
  7  8  1  0  0  0  0
 17 18  1  0  0  0  0
 24 32  1  0  0  0  0
 25 33  1  0  0  0  0
  3  4  1  0  0  0  0
  3  5  1  0  0  0  0
  3  6  1  0  0  0  0
 38 41  1  0  0  0  0
 38 42  1  0  0  0  0
 38 43  1  0  0  0  0
 11 14  1  0  0  0  0
 11 15  1  0  0  0  0
 11 16  1  0  0  0  0
 45 47  1  0  0  0  0
 45 48  1  0  0  0  0
 45 49  1  0  0  0  0
 21 29  1  0  0  0  0
 21 30  1  0  0  0  0
 35 40  1  0  0  0  0
  8 13  1  0  0  0  0
 18 28  1  0  0  0  0
 23 31  1  0  0  0  0
 44 46  1  0  0  0  0
  7 12  1  0  0  0  0
 34 39  1  0  0  0  0
 17 27  1  0  0  0  0
M  END
$$$$

  -OEChem-05262214473D

 49 49  0     1  0  0  0  0  0999 V2000
   -1.5619    0.5658    3.7981 C   0  0  0  0  0  0  0  0  0  0  0  0
   -0.6145   -0.0489    3.3224 O   0  0  0  0  0  0  0  0  0  0  0  0
   -1.9938    0.2834    5.1988 C   0  0  0  0  0  0  0  0  0  0  0  0
   -2.7535   -0.5129    5.2522 H   0  0  0  0  0  0  0  0  0  0  0  0
   -1.1626   -0.0642    5.8331 H   0  0  0  0  0  0  0  0  0  0  0  0
   -2.4318    1.1383    5.7384 H   0  0  0  0  0  0  0  0  0  0  0  0
   -2.3116    1.5383    3.1570 N   0  0  0  0  0  0  0  0  0  0  0  0
   -2.0648    1.9643    1.8046 C   0  0  2  0  0  0  0  0  0  0  0  0
   -0.7298    1.3789    1.3634 C   0  0  0  0  0  0  0  0  0  0  0  0
    0.1423    1.0262    2.1547 O   0  0  0  0  0  0  0  0  0  0  0  0
   -2.0560    3.4811    1.6952 C   0  0  0  0  0  0  0  0  0  0  0  0
   -3.0767    1.9741    3.6688 H   0  0  0  0  0  0  0  0  0  0  0  0
   -2.8689    1.5458    1.1895 H   0  0  0  0  0  0  0  0  0  0  0  0
   -1.2569    3.9183    2.3049 H   0  0  0  0  0  0  0  0  0  0  0  0
   -1.8965    3.8033    0.6609 H   0  0  0  0  0  0  0  0  0  0  0  0
   -3.0062    3.9023    2.0409 H   0  0  0  0  0  0  0  0  0  0  0  0
   -0.6071    1.3358   -0.0200 N   0  0  0  0  0  0  0  0  0  0  0  0
    0.5702    0.8350   -0.6836 C   0  0  2  0  0  0  0  0  0  0  0  0
    1.7782    1.4322    0.0293 C   0  0  0  0  0  0  0  0  0  0  0  0
    1.9566    2.6430    0.1436 O   0  0  0  0  0  0  0  0  0  0  0  0
    0.5954    1.2006   -2.1722 C   0  0  0  0  0  0  0  0  0  0  0  0
   -0.5334    0.5668   -2.9481 C   0  0  0  0  0  0  0  0  0  0  0  0
   -0.5462   -0.7573   -3.2853 N   0  0  0  0  0  0  0  0  0  0  0  0
   -1.7038    1.0726   -3.4626 C   0  0  0  0  0  0  0  0  0  0  0  0
   -1.7017   -0.9928   -3.9773 C   0  0  0  0  0  0  0  0  0  0  0  0
   -2.4267    0.0966   -4.1018 N   0  0  0  0  0  0  0  0  0  0  0  0
   -1.3903    1.6325   -0.5973 H   0  0  0  0  0  0  0  0  0  0  0  0
    0.5706   -0.2520   -0.5411 H   0  0  0  0  0  0  0  0  0  0  0  0
    1.5572    0.9134   -2.6183 H   0  0  0  0  0  0  0  0  0  0  0  0
    0.5322    2.2893   -2.3009 H   0  0  0  0  0  0  0  0  0  0  0  0
    0.1672   -1.4402   -3.0661 H   0  0  0  0  0  0  0  0  0  0  0  0
   -2.0651    2.0896   -3.4065 H   0  0  0  0  0  0  0  0  0  0  0  0
   -1.9525   -1.9719   -4.3598 H   0  0  0  0  0  0  0  0  0  0  0  0
    2.6031    0.4521    0.5635 N   0  0  0  0  0  0  0  0  0  0  0  0
    3.8054    0.7468    1.3095 C   0  0  2  0  0  0  0  0  0  0  0  0
    4.6319    1.7357    0.4979 C   0  0  0  0  0  0  0  0  0  0  0  0
    4.5146    1.8685   -0.7185 O   0  0  0  0  0  0  0  0  0  0  0  0
    4.6003   -0.5167    1.5996 C   0  0  0  0  0  0  0  0  0  0  0  0
    2.3491   -0.5213    0.4230 H   0  0  0  0  0  0  0  0  0  0  0  0
    3.4887    1.2174    2.2467 H   0  0  0  0  0  0  0  0  0  0  0  0
    4.9263   -1.0021    0.6724 H   0  0  0  0  0  0  0  0  0  0  0  0
    5.4960   -0.2954    2.1893 H   0  0  0  0  0  0  0  0  0  0  0  0
    3.9945   -1.2388    2.1576 H   0  0  0  0  0  0  0  0  0  0  0  0
    5.5461    2.4215    1.2853 N   0  0  0  0  0  0  0  0  0  0  0  0
    6.4550    3.4062    0.7465 C   0  0  0  0  0  0  0  0  0  0  0  0
    5.5609    2.2615    2.2883 H   0  0  0  0  0  0  0  0  0  0  0  0
    7.4064    2.9217    0.4817 H   0  0  0  0  0  0  0  0  0  0  0  0
    6.0124    3.8606   -0.1522 H   0  0  0  0  0  0  0  0  0  0  0  0
    6.6384    4.1867    1.4997 H   0  0  0  0  0  0  0  0  0  0  0  0
 22 24  2  0  0  0  0
 24 26  1  0  0  0  0
 25 26  2  0  0  0  0
 23 25  1  0  0  0  0
 21 22  1  0  0  0  0
 22 23  1  0  0  0  0
  1  3  1  0  0  0  0
  1  7  1  0  0  0  0
  1  2  2  0  0  0  0
 35 36  1  0  0  0  0
 36 44  1  0  0  0  0
 36 37  2  0  0  0  0
  8  9  1  0  0  0  0
  9 17  1  0  0  0  0
  9 10  2  0  0  0  0
 18 19  1  0  0  0  0
 19 34  1  0  0  0  0
 19 20  2  0  0  0  0
 35 38  1  0  0  0  0
  8 11  1  0  0  0  0
 44 45  1  0  0  0  0
 18 21  1  0  0  0  0
 34 35  1  0  0  0  0
  7  8  1  0  0  0  0
 17 18  1  0  0  0  0
 24 32  1  0  0  0  0
 25 33  1  0  0  0  0
  3  4  1  0  0  0  0
  3  5  1  0  0  0  0
  3  6  1  0  0  0  0
 38 41  1  0  0  0  0
 38 42  1  0  0  0  0
 38 43  1  0  0  0  0
 11 14  1  0  0  0  0
 11 15  1  0  0  0  0
 11 16  1  0  0  0  0
 45 47  1  0  0  0  0
 45 48  1  0  0  0  0
 45 49  1  0  0  0  0
 21 29  1  0  0  0  0
 21 30  1  0  0  0  0
 35 40  1  0  0  0  0
  8 13  1  0  0  0  0
 18 28  1  0  0  0  0
 23 31  1  0  0  0  0
 44 46  1  0  0  0  0
  7 12  1  0  0  0  0
 34 39  1  0  0  0  0
 17 27  1  0  0  0  0
M  END
$$$$

  -OEChem-05262214473D

 49 49  0     1  0  0  0  0  0999 V2000
   -1.5619    0.5658    3.7981 C   0  0  0  0  0  0  0  0  0  0  0  0
   -0.6145   -0.0489    3.3224 O   0  0  0  0  0  0  0  0  0  0  0  0
   -1.9938    0.2834    5.1988 C   0  0  0  0  0  0  0  0  0  0  0  0
   -2.7535   -0.5129    5.2522 H   0  0  0  0  0  0  0  0  0  0  0  0
   -1.1626   -0.0642    5.8331 H   0  0  0  0  0  0  0  0  0  0  0  0
   -2.4318    1.1383    5.7384 H   0  0  0  0  0  0  0  0  0  0  0  0
   -2.3116    1.5383    3.1570 N   0  0  0  0  0  0  0  0  0  0  0  0
   -2.0648    1.9643    1.8046 C   0  0  2  0  0  0  0  0  0  0  0  0
   -0.7298    1.3789    1.3634 C   0  0  0  0  0  0  0  0  0  0  0  0
    0.1423    1.0262    2.1547 O   0  0  0  0  0  0  0  0  0  0  0  0
   -2.0560    3.4811    1.6952 C   0  0  0  0  0  0  0  0  0  0  0  0
   -3.0767    1.9741    3.6688 H   0  0  0  0  0  0  0  0  0  0  0  0
   -2.8689    1.5458    1.1895 H   0  0  0  0  0  0  0  0  0  0  0  0
   -1.2569    3.9183    2.3049 H   0  0  0  0  0  0  0  0  0  0  0  0
   -1.8965    3.8033    0.6609 H   0  0  0  0  0  0  0  0  0  0  0  0
   -3.0062    3.9023    2.0409 H   0  0  0  0  0  0  0  0  0  0  0  0
   -0.6071    1.3358   -0.0200 N   0  0  0  0  0  0  0  0  0  0  0  0
    0.5702    0.8350   -0.6836 C   0  0  2  0  0  0  0  0  0  0  0  0
    1.7782    1.4322    0.0293 C   0  0  0  0  0  0  0  0  0  0  0  0
    1.8336    2.6088    0.3806 O   0  0  0  0  0  0  0  0  0  0  0  0
    0.5954    1.2006   -2.1722 C   0  0  0  0  0  0  0  0  0  0  0  0
   -0.5334    0.5668   -2.9481 C   0  0  0  0  0  0  0  0  0  0  0  0
   -0.5462   -0.7573   -3.2853 N   0  0  0  0  0  0  0  0  0  0  0  0
   -1.7038    1.0726   -3.4626 C   0  0  0  0  0  0  0  0  0  0  0  0
   -1.7017   -0.9928   -3.9773 C   0  0  0  0  0  0  0  0  0  0  0  0
   -2.4267    0.0966   -4.1018 N   0  0  0  0  0  0  0  0  0  0  0  0
   -1.3903    1.6325   -0.5973 H   0  0  0  0  0  0  0  0  0  0  0  0
    0.5706   -0.2520   -0.5411 H   0  0  0  0  0  0  0  0  0  0  0  0
    1.5572    0.9134   -2.6183 H   0  0  0  0  0  0  0  0  0  0  0  0
    0.5322    2.2893   -2.3009 H   0  0  0  0  0  0  0  0  0  0  0  0
    0.1672   -1.4402   -3.0661 H   0  0  0  0  0  0  0  0  0  0  0  0
   -2.0651    2.0896   -3.4065 H   0  0  0  0  0  0  0  0  0  0  0  0
   -1.9525   -1.9719   -4.3598 H   0  0  0  0  0  0  0  0  0  0  0  0
    2.7618    0.4827    0.2689 N   0  0  0  0  0  0  0  0  0  0  0  0
    4.0013    0.7789    0.9506 C   0  0  2  0  0  0  0  0  0  0  0  0
    4.6156    2.0093    0.2963 C   0  0  0  0  0  0  0  0  0  0  0  0
    4.3465    2.3648   -0.8492 O   0  0  0  0  0  0  0  0  0  0  0  0
    4.9588   -0.4013    0.8954 C   0  0  0  0  0  0  0  0  0  0  0  0
    2.6026   -0.4681   -0.0510 H   0  0  0  0  0  0  0  0  0  0  0  0
    3.7435    1.0078    1.9904 H   0  0  0  0  0  0  0  0  0  0  0  0
    5.2286   -0.6455   -0.1385 H   0  0  0  0  0  0  0  0  0  0  0  0
    5.8859   -0.1858    1.4367 H   0  0  0  0  0  0  0  0  0  0  0  0
    4.5041   -1.2933    1.3397 H   0  0  0  0  0  0  0  0  0  0  0  0
    5.5323    2.6391    1.1265 N   0  0  0  0  0  0  0  0  0  0  0  0
    6.2594    3.8222    0.7295 C   0  0  0  0  0  0  0  0  0  0  0  0
    5.6789    2.2862    2.0677 H   0  0  0  0  0  0  0  0  0  0  0  0
    7.2221    3.5295    0.2849 H   0  0  0  0  0  0  0  0  0  0  0  0
    5.6698    4.3839   -0.0100 H   0  0  0  0  0  0  0  0  0  0  0  0
    6.4401    4.4545    1.6113 H   0  0  0  0  0  0  0  0  0  0  0  0
 22 24  2  0  0  0  0
 24 26  1  0  0  0  0
 25 26  2  0  0  0  0
 23 25  1  0  0  0  0
 21 22  1  0  0  0  0
 22 23  1  0  0  0  0
  1  3  1  0  0  0  0
  1  7  1  0  0  0  0
  1  2  2  0  0  0  0
 35 36  1  0  0  0  0
 36 44  1  0  0  0  0
 36 37  2  0  0  0  0
  8  9  1  0  0  0  0
  9 17  1  0  0  0  0
  9 10  2  0  0  0  0
 18 19  1  0  0  0  0
 19 34  1  0  0  0  0
 19 20  2  0  0  0  0
 35 38  1  0  0  0  0
  8 11  1  0  0  0  0
 44 45  1  0  0  0  0
 18 21  1  0  0  0  0
 34 35  1  0  0  0  0
  7  8  1  0  0  0  0
 17 18  1  0  0  0  0
 24 32  1  0  0  0  0
 25 33  1  0  0  0  0
  3  4  1  0  0  0  0
  3  5  1  0  0  0  0
  3  6  1  0  0  0  0
 38 41  1  0  0  0  0
 38 42  1  0  0  0  0
 38 43  1  0  0  0  0
 11 14  1  0  0  0  0
 11 15  1  0  0  0  0
 11 16  1  0  0  0  0
 45 47  1  0  0  0  0
 45 48  1  0  0  0  0
 45 49  1  0  0  0  0
 21 29  1  0  0  0  0
 21 30  1  0  0  0  0
 35 40  1  0  0  0  0
  8 13  1  0  0  0  0
 18 28  1  0  0  0  0
 23 31  1  0  0  0  0
 44 46  1  0  0  0  0
  7 12  1  0  0  0  0
 34 39  1  0  0  0  0
 17 27  1  0  0  0  0
M  END
$$$$

  -OEChem-05262214473D

 49 49  0     1  0  0  0  0  0999 V2000
   -1.5619    0.5658    3.7981 C   0  0  0  0  0  0  0  0  0  0  0  0
   -0.6145   -0.0489    3.3224 O   0  0  0  0  0  0  0  0  0  0  0  0
   -1.9938    0.2834    5.1988 C   0  0  0  0  0  0  0  0  0  0  0  0
   -2.7535   -0.5129    5.2522 H   0  0  0  0  0  0  0  0  0  0  0  0
   -1.1626   -0.0642    5.8331 H   0  0  0  0  0  0  0  0  0  0  0  0
   -2.4318    1.1383    5.7384 H   0  0  0  0  0  0  0  0  0  0  0  0
   -2.3116    1.5383    3.1570 N   0  0  0  0  0  0  0  0  0  0  0  0
   -2.0648    1.9643    1.8046 C   0  0  2  0  0  0  0  0  0  0  0  0
   -0.7298    1.3789    1.3634 C   0  0  0  0  0  0  0  0  0  0  0  0
    0.1423    1.0262    2.1547 O   0  0  0  0  0  0  0  0  0  0  0  0
   -2.0560    3.4811    1.6952 C   0  0  0  0  0  0  0  0  0  0  0  0
   -3.0767    1.9741    3.6688 H   0  0  0  0  0  0  0  0  0  0  0  0
   -2.8689    1.5458    1.1895 H   0  0  0  0  0  0  0  0  0  0  0  0
   -1.2569    3.9183    2.3049 H   0  0  0  0  0  0  0  0  0  0  0  0
   -1.8965    3.8033    0.6609 H   0  0  0  0  0  0  0  0  0  0  0  0
   -3.0062    3.9023    2.0409 H   0  0  0  0  0  0  0  0  0  0  0  0
   -0.6071    1.3358   -0.0200 N   0  0  0  0  0  0  0  0  0  0  0  0
    0.5702    0.8350   -0.6836 C   0  0  2  0  0  0  0  0  0  0  0  0
    1.7782    1.4322    0.0293 C   0  0  0  0  0  0  0  0  0  0  0  0
    1.7430    2.5123    0.6150 O   0  0  0  0  0  0  0  0  0  0  0  0
    0.5954    1.2006   -2.1722 C   0  0  0  0  0  0  0  0  0  0  0  0
   -0.5334    0.5668   -2.9481 C   0  0  0  0  0  0  0  0  0  0  0  0
   -0.5462   -0.7573   -3.2853 N   0  0  0  0  0  0  0  0  0  0  0  0
   -1.7038    1.0726   -3.4626 C   0  0  0  0  0  0  0  0  0  0  0  0
   -1.7017   -0.9928   -3.9773 C   0  0  0  0  0  0  0  0  0  0  0  0
   -2.4267    0.0966   -4.1018 N   0  0  0  0  0  0  0  0  0  0  0  0
   -1.3903    1.6325   -0.5973 H   0  0  0  0  0  0  0  0  0  0  0  0
    0.5706   -0.2520   -0.5411 H   0  0  0  0  0  0  0  0  0  0  0  0
    1.5572    0.9134   -2.6183 H   0  0  0  0  0  0  0  0  0  0  0  0
    0.5322    2.2893   -2.3009 H   0  0  0  0  0  0  0  0  0  0  0  0
    0.1672   -1.4402   -3.0661 H   0  0  0  0  0  0  0  0  0  0  0  0
   -2.0651    2.0896   -3.4065 H   0  0  0  0  0  0  0  0  0  0  0  0
   -1.9525   -1.9719   -4.3598 H   0  0  0  0  0  0  0  0  0  0  0  0
    2.8816    0.5919   -0.0254 N   0  0  0  0  0  0  0  0  0  0  0  0
    4.1503    0.9071    0.5907 C   0  0  2  0  0  0  0  0  0  0  0  0
    4.5464    2.3130    0.1593 C   0  0  0  0  0  0  0  0  0  0  0  0
    4.1107    2.8506   -0.8567 O   0  0  0  0  0  0  0  0  0  0  0  0
    5.2198   -0.1021    0.2026 C   0  0  0  0  0  0  0  0  0  0  0  0
    2.7928   -0.2888   -0.5236 H   0  0  0  0  0  0  0  0  0  0  0  0
    3.9891    0.8887    1.6741 H   0  0  0  0  0  0  0  0  0  0  0  0
    5.3952   -0.0981   -0.8794 H   0  0  0  0  0  0  0  0  0  0  0  0
    6.1730    0.1217    0.6928 H   0  0  0  0  0  0  0  0  0  0  0  0
    4.9199   -1.1165    0.4869 H   0  0  0  0  0  0  0  0  0  0  0  0
    5.4765    2.8802    1.0192 N   0  0  0  0  0  0  0  0  0  0  0  0
    6.0185    4.2037    0.8182 C   0  0  0  0  0  0  0  0  0  0  0  0
    5.7675    2.3696    1.8477 H   0  0  0  0  0  0  0  0  0  0  0  0
    6.9505    4.1346    0.2381 H   0  0  0  0  0  0  0  0  0  0  0  0
    5.2900    4.8187    0.2695 H   0  0  0  0  0  0  0  0  0  0  0  0
    6.2275    4.6663    1.7941 H   0  0  0  0  0  0  0  0  0  0  0  0
 22 24  2  0  0  0  0
 24 26  1  0  0  0  0
 25 26  2  0  0  0  0
 23 25  1  0  0  0  0
 21 22  1  0  0  0  0
 22 23  1  0  0  0  0
  1  3  1  0  0  0  0
  1  7  1  0  0  0  0
  1  2  2  0  0  0  0
 35 36  1  0  0  0  0
 36 44  1  0  0  0  0
 36 37  2  0  0  0  0
  8  9  1  0  0  0  0
  9 17  1  0  0  0  0
  9 10  2  0  0  0  0
 18 19  1  0  0  0  0
 19 34  1  0  0  0  0
 19 20  2  0  0  0  0
 35 38  1  0  0  0  0
  8 11  1  0  0  0  0
 44 45  1  0  0  0  0
 18 21  1  0  0  0  0
 34 35  1  0  0  0  0
  7  8  1  0  0  0  0
 17 18  1  0  0  0  0
 24 32  1  0  0  0  0
 25 33  1  0  0  0  0
  3  4  1  0  0  0  0
  3  5  1  0  0  0  0
  3  6  1  0  0  0  0
 38 41  1  0  0  0  0
 38 42  1  0  0  0  0
 38 43  1  0  0  0  0
 11 14  1  0  0  0  0
 11 15  1  0  0  0  0
 11 16  1  0  0  0  0
 45 47  1  0  0  0  0
 45 48  1  0  0  0  0
 45 49  1  0  0  0  0
 21 29  1  0  0  0  0
 21 30  1  0  0  0  0
 35 40  1  0  0  0  0
  8 13  1  0  0  0  0
 18 28  1  0  0  0  0
 23 31  1  0  0  0  0
 44 46  1  0  0  0  0
  7 12  1  0  0  0  0
 34 39  1  0  0  0  0
 17 27  1  0  0  0  0
M  END
$$$$

  -OEChem-05262214473D

 49 49  0     1  0  0  0  0  0999 V2000
   -1.5619    0.5658    3.7981 C   0  0  0  0  0  0  0  0  0  0  0  0
   -0.6145   -0.0489    3.3224 O   0  0  0  0  0  0  0  0  0  0  0  0
   -1.9938    0.2834    5.1988 C   0  0  0  0  0  0  0  0  0  0  0  0
   -2.7535   -0.5129    5.2522 H   0  0  0  0  0  0  0  0  0  0  0  0
   -1.1626   -0.0642    5.8331 H   0  0  0  0  0  0  0  0  0  0  0  0
   -2.4318    1.1383    5.7384 H   0  0  0  0  0  0  0  0  0  0  0  0
   -2.3116    1.5383    3.1570 N   0  0  0  0  0  0  0  0  0  0  0  0
   -2.0648    1.9643    1.8046 C   0  0  2  0  0  0  0  0  0  0  0  0
   -0.7298    1.3789    1.3634 C   0  0  0  0  0  0  0  0  0  0  0  0
    0.1423    1.0262    2.1547 O   0  0  0  0  0  0  0  0  0  0  0  0
   -2.0560    3.4811    1.6952 C   0  0  0  0  0  0  0  0  0  0  0  0
   -3.0767    1.9741    3.6688 H   0  0  0  0  0  0  0  0  0  0  0  0
   -2.8689    1.5458    1.1895 H   0  0  0  0  0  0  0  0  0  0  0  0
   -1.2569    3.9183    2.3049 H   0  0  0  0  0  0  0  0  0  0  0  0
   -1.8965    3.8033    0.6609 H   0  0  0  0  0  0  0  0  0  0  0  0
   -3.0062    3.9023    2.0409 H   0  0  0  0  0  0  0  0  0  0  0  0
   -0.6071    1.3358   -0.0200 N   0  0  0  0  0  0  0  0  0  0  0  0
    0.5702    0.8350   -0.6836 C   0  0  2  0  0  0  0  0  0  0  0  0
    1.7782    1.4322    0.0293 C   0  0  0  0  0  0  0  0  0  0  0  0
    1.6909    2.3601    0.8307 O   0  0  0  0  0  0  0  0  0  0  0  0
    0.5954    1.2006   -2.1722 C   0  0  0  0  0  0  0  0  0  0  0  0
   -0.5334    0.5668   -2.9481 C   0  0  0  0  0  0  0  0  0  0  0  0
   -0.5462   -0.7573   -3.2853 N   0  0  0  0  0  0  0  0  0  0  0  0
   -1.7038    1.0726   -3.4626 C   0  0  0  0  0  0  0  0  0  0  0  0
   -1.7017   -0.9928   -3.9773 C   0  0  0  0  0  0  0  0  0  0  0  0
   -2.4267    0.0966   -4.1018 N   0  0  0  0  0  0  0  0  0  0  0  0
   -1.3903    1.6325   -0.5973 H   0  0  0  0  0  0  0  0  0  0  0  0
    0.5706   -0.2520   -0.5411 H   0  0  0  0  0  0  0  0  0  0  0  0
    1.5572    0.9134   -2.6183 H   0  0  0  0  0  0  0  0  0  0  0  0
    0.5322    2.2893   -2.3009 H   0  0  0  0  0  0  0  0  0  0  0  0
    0.1672   -1.4402   -3.0661 H   0  0  0  0  0  0  0  0  0  0  0  0
   -2.0651    2.0896   -3.4065 H   0  0  0  0  0  0  0  0  0  0  0  0
   -1.9525   -1.9719   -4.3598 H   0  0  0  0  0  0  0  0  0  0  0  0
    2.9541    0.7723   -0.2995 N   0  0  0  0  0  0  0  0  0  0  0  0
    4.2423    1.1228    0.2543 C   0  0  2  0  0  0  0  0  0  0  0  0
    4.4288    2.6260    0.0963 C   0  0  0  0  0  0  0  0  0  0  0  0
    3.8235    3.2928   -0.7404 O   0  0  0  0  0  0  0  0  0  0  0  0
    5.3654    0.3607   -0.4317 C   0  0  0  0  0  0  0  0  0  0  0  0
    2.9070    0.0043   -0.9626 H   0  0  0  0  0  0  0  0  0  0  0  0
    4.2086    0.8683    1.3192 H   0  0  0  0  0  0  0  0  0  0  0  0
    5.4147    0.6028   -1.4996 H   0  0  0  0  0  0  0  0  0  0  0  0
    6.3377    0.6059    0.0081 H   0  0  0  0  0  0  0  0  0  0  0  0
    5.2138   -0.7205   -0.3427 H   0  0  0  0  0  0  0  0  0  0  0  0
    5.3825    3.1283    0.9706 N   0  0  0  0  0  0  0  0  0  0  0  0
    5.7485    4.5250    1.0065 C   0  0  0  0  0  0  0  0  0  0  0  0
    5.8207    2.5060    1.6433 H   0  0  0  0  0  0  0  0  0  0  0  0
    6.6102    4.6959    0.3446 H   0  0  0  0  0  0  0  0  0  0  0  0
    4.8988    5.1354    0.6670 H   0  0  0  0  0  0  0  0  0  0  0  0
    6.0151    4.8077    2.0356 H   0  0  0  0  0  0  0  0  0  0  0  0
 22 24  2  0  0  0  0
 24 26  1  0  0  0  0
 25 26  2  0  0  0  0
 23 25  1  0  0  0  0
 21 22  1  0  0  0  0
 22 23  1  0  0  0  0
  1  3  1  0  0  0  0
  1  7  1  0  0  0  0
  1  2  2  0  0  0  0
 35 36  1  0  0  0  0
 36 44  1  0  0  0  0
 36 37  2  0  0  0  0
  8  9  1  0  0  0  0
  9 17  1  0  0  0  0
  9 10  2  0  0  0  0
 18 19  1  0  0  0  0
 19 34  1  0  0  0  0
 19 20  2  0  0  0  0
 35 38  1  0  0  0  0
  8 11  1  0  0  0  0
 44 45  1  0  0  0  0
 18 21  1  0  0  0  0
 34 35  1  0  0  0  0
  7  8  1  0  0  0  0
 17 18  1  0  0  0  0
 24 32  1  0  0  0  0
 25 33  1  0  0  0  0
  3  4  1  0  0  0  0
  3  5  1  0  0  0  0
  3  6  1  0  0  0  0
 38 41  1  0  0  0  0
 38 42  1  0  0  0  0
 38 43  1  0  0  0  0
 11 14  1  0  0  0  0
 11 15  1  0  0  0  0
 11 16  1  0  0  0  0
 45 47  1  0  0  0  0
 45 48  1  0  0  0  0
 45 49  1  0  0  0  0
 21 29  1  0  0  0  0
 21 30  1  0  0  0  0
 35 40  1  0  0  0  0
  8 13  1  0  0  0  0
 18 28  1  0  0  0  0
 23 31  1  0  0  0  0
 44 46  1  0  0  0  0
  7 12  1  0  0  0  0
 34 39  1  0  0  0  0
 17 27  1  0  0  0  0
M  END
$$$$

  -OEChem-05262214473D

 49 49  0     1  0  0  0  0  0999 V2000
   -1.5619    0.5658    3.7981 C   0  0  0  0  0  0  0  0  0  0  0  0
   -0.6145   -0.0489    3.3224 O   0  0  0  0  0  0  0  0  0  0  0  0
   -1.9938    0.2834    5.1988 C   0  0  0  0  0  0  0  0  0  0  0  0
   -2.7535   -0.5129    5.2522 H   0  0  0  0  0  0  0  0  0  0  0  0
   -1.1626   -0.0642    5.8331 H   0  0  0  0  0  0  0  0  0  0  0  0
   -2.4318    1.1383    5.7384 H   0  0  0  0  0  0  0  0  0  0  0  0
   -2.3116    1.5383    3.1570 N   0  0  0  0  0  0  0  0  0  0  0  0
   -2.0648    1.9643    1.8046 C   0  0  2  0  0  0  0  0  0  0  0  0
   -0.7298    1.3789    1.3634 C   0  0  0  0  0  0  0  0  0  0  0  0
    0.1423    1.0262    2.1547 O   0  0  0  0  0  0  0  0  0  0  0  0
   -2.0560    3.4811    1.6952 C   0  0  0  0  0  0  0  0  0  0  0  0
   -3.0767    1.9741    3.6688 H   0  0  0  0  0  0  0  0  0  0  0  0
   -2.8689    1.5458    1.1895 H   0  0  0  0  0  0  0  0  0  0  0  0
   -1.2569    3.9183    2.3049 H   0  0  0  0  0  0  0  0  0  0  0  0
   -1.8965    3.8033    0.6609 H   0  0  0  0  0  0  0  0  0  0  0  0
   -3.0062    3.9023    2.0409 H   0  0  0  0  0  0  0  0  0  0  0  0
   -0.6071    1.3358   -0.0200 N   0  0  0  0  0  0  0  0  0  0  0  0
    0.5702    0.8350   -0.6836 C   0  0  2  0  0  0  0  0  0  0  0  0
    1.7566    1.1118    0.2328 C   0  0  0  0  0  0  0  0  0  0  0  0
    1.6394    1.6301    1.3412 O   0  0  0  0  0  0  0  0  0  0  0  0
    0.7881    1.4930   -2.0510 C   0  0  0  0  0  0  0  0  0  0  0  0
   -0.3176    1.1834   -3.0305 C   0  0  0  0  0  0  0  0  0  0  0  0
   -0.4406   -0.0299   -3.6469 N   0  0  0  0  0  0  0  0  0  0  0  0
   -1.3665    1.9308   -3.5118 C   0  0  0  0  0  0  0  0  0  0  0  0
   -1.5377    0.0331   -4.4604 C   0  0  0  0  0  0  0  0  0  0  0  0
   -2.1224    1.2089   -4.4012 N   0  0  0  0  0  0  0  0  0  0  0  0
   -1.3903    1.6325   -0.5973 H   0  0  0  0  0  0  0  0  0  0  0  0
    0.4369   -0.2489   -0.7807 H   0  0  0  0  0  0  0  0  0  0  0  0
    1.7534    1.1823   -2.4732 H   0  0  0  0  0  0  0  0  0  0  0  0
    0.8580    2.5837   -1.9450 H   0  0  0  0  0  0  0  0  0  0  0  0
    0.1674   -0.8294   -3.5266 H   0  0  0  0  0  0  0  0  0  0  0  0
   -1.6181    2.9523   -3.2645 H   0  0  0  0  0  0  0  0  0  0  0  0
   -1.8535   -0.8057   -5.0643 H   0  0  0  0  0  0  0  0  0  0  0  0
    2.9514    0.6656   -0.3149 N   0  0  0  0  0  0  0  0  0  0  0  0
    4.2254    0.7837    0.3571 C   0  0  2  0  0  0  0  0  0  0  0  0
    4.3764    2.2238    0.8293 C   0  0  0  0  0  0  0  0  0  0  0  0
    3.7625    3.1625    0.3262 O   0  0  0  0  0  0  0  0  0  0  0  0
    5.3731    0.3891   -0.5593 C   0  0  0  0  0  0  0  0  0  0  0  0
    2.9292    0.2344   -1.2343 H   0  0  0  0  0  0  0  0  0  0  0  0
    4.1884    0.1162    1.2249 H   0  0  0  0  0  0  0  0  0  0  0  0
    5.4262    1.0467   -1.4346 H   0  0  0  0  0  0  0  0  0  0  0  0
    6.3351    0.4517   -0.0400 H   0  0  0  0  0  0  0  0  0  0  0  0
    5.2473   -0.6369   -0.9217 H   0  0  0  0  0  0  0  0  0  0  0  0
    5.3095    2.3434    1.8497 N   0  0  0  0  0  0  0  0  0  0  0  0
    5.6407    3.6104    2.4587 C   0  0  0  0  0  0  0  0  0  0  0  0
    5.7567    1.5091    2.2181 H   0  0  0  0  0  0  0  0  0  0  0  0
    6.5040    4.0527    1.9398 H   0  0  0  0  0  0  0  0  0  0  0  0
    4.7794    4.2902    2.3821 H   0  0  0  0  0  0  0  0  0  0  0  0
    5.8909    3.4535    3.5183 H   0  0  0  0  0  0  0  0  0  0  0  0
 22 24  2  0  0  0  0
 24 26  1  0  0  0  0
 25 26  2  0  0  0  0
 23 25  1  0  0  0  0
 21 22  1  0  0  0  0
 22 23  1  0  0  0  0
  1  3  1  0  0  0  0
  1  7  1  0  0  0  0
  1  2  2  0  0  0  0
 35 36  1  0  0  0  0
 36 44  1  0  0  0  0
 36 37  2  0  0  0  0
  8  9  1  0  0  0  0
  9 17  1  0  0  0  0
  9 10  2  0  0  0  0
 18 19  1  0  0  0  0
 19 34  1  0  0  0  0
 19 20  2  0  0  0  0
 35 38  1  0  0  0  0
  8 11  1  0  0  0  0
 44 45  1  0  0  0  0
 18 21  1  0  0  0  0
 34 35  1  0  0  0  0
  7  8  1  0  0  0  0
 17 18  1  0  0  0  0
 24 32  1  0  0  0  0
 25 33  1  0  0  0  0
  3  4  1  0  0  0  0
  3  5  1  0  0  0  0
  3  6  1  0  0  0  0
 38 41  1  0  0  0  0
 38 42  1  0  0  0  0
 38 43  1  0  0  0  0
 11 14  1  0  0  0  0
 11 15  1  0  0  0  0
 11 16  1  0  0  0  0
 45 47  1  0  0  0  0
 45 48  1  0  0  0  0
 45 49  1  0  0  0  0
 21 29  1  0  0  0  0
 21 30  1  0  0  0  0
 35 40  1  0  0  0  0
  8 13  1  0  0  0  0
 18 28  1  0  0  0  0
 23 31  1  0  0  0  0
 44 46  1  0  0  0  0
  7 12  1  0  0  0  0
 34 39  1  0  0  0  0
 17 27  1  0  0  0  0
M  END
$$$$

  -OEChem-05262214473D

 49 49  0     1  0  0  0  0  0999 V2000
   -1.5619    0.5658    3.7981 C   0  0  0  0  0  0  0  0  0  0  0  0
   -0.6145   -0.0489    3.3224 O   0  0  0  0  0  0  0  0  0  0  0  0
   -1.9938    0.2834    5.1988 C   0  0  0  0  0  0  0  0  0  0  0  0
   -2.7535   -0.5129    5.2522 H   0  0  0  0  0  0  0  0  0  0  0  0
   -1.1626   -0.0642    5.8331 H   0  0  0  0  0  0  0  0  0  0  0  0
   -2.4318    1.1383    5.7384 H   0  0  0  0  0  0  0  0  0  0  0  0
   -2.3116    1.5383    3.1570 N   0  0  0  0  0  0  0  0  0  0  0  0
   -2.0648    1.9643    1.8046 C   0  0  2  0  0  0  0  0  0  0  0  0
   -0.7298    1.3789    1.3634 C   0  0  0  0  0  0  0  0  0  0  0  0
    0.1423    1.0262    2.1547 O   0  0  0  0  0  0  0  0  0  0  0  0
   -2.0560    3.4811    1.6952 C   0  0  0  0  0  0  0  0  0  0  0  0
   -3.0767    1.9741    3.6688 H   0  0  0  0  0  0  0  0  0  0  0  0
   -2.8689    1.5458    1.1895 H   0  0  0  0  0  0  0  0  0  0  0  0
   -1.2569    3.9183    2.3049 H   0  0  0  0  0  0  0  0  0  0  0  0
   -1.8965    3.8033    0.6609 H   0  0  0  0  0  0  0  0  0  0  0  0
   -3.0062    3.9023    2.0409 H   0  0  0  0  0  0  0  0  0  0  0  0
   -0.6071    1.3358   -0.0200 N   0  0  0  0  0  0  0  0  0  0  0  0
    0.5702    0.8350   -0.6836 C   0  0  2  0  0  0  0  0  0  0  0  0
    1.7566    1.1118    0.2328 C   0  0  0  0  0  0  0  0  0  0  0  0
    1.6325    1.3750    1.4270 O   0  0  0  0  0  0  0  0  0  0  0  0
    0.7881    1.4930   -2.0510 C   0  0  0  0  0  0  0  0  0  0  0  0
   -0.3176    1.1834   -3.0305 C   0  0  0  0  0  0  0  0  0  0  0  0
   -0.4406   -0.0299   -3.6469 N   0  0  0  0  0  0  0  0  0  0  0  0
   -1.3665    1.9308   -3.5118 C   0  0  0  0  0  0  0  0  0  0  0  0
   -1.5377    0.0331   -4.4604 C   0  0  0  0  0  0  0  0  0  0  0  0
   -2.1224    1.2089   -4.4012 N   0  0  0  0  0  0  0  0  0  0  0  0
   -1.3903    1.6325   -0.5973 H   0  0  0  0  0  0  0  0  0  0  0  0
    0.4369   -0.2489   -0.7807 H   0  0  0  0  0  0  0  0  0  0  0  0
    1.7534    1.1823   -2.4732 H   0  0  0  0  0  0  0  0  0  0  0  0
    0.8580    2.5837   -1.9450 H   0  0  0  0  0  0  0  0  0  0  0  0
    0.1674   -0.8294   -3.5266 H   0  0  0  0  0  0  0  0  0  0  0  0
   -1.6181    2.9523   -3.2645 H   0  0  0  0  0  0  0  0  0  0  0  0
   -1.8535   -0.8057   -5.0643 H   0  0  0  0  0  0  0  0  0  0  0  0
    2.9681    0.9802   -0.4316 N   0  0  0  0  0  0  0  0  0  0  0  0
    4.2496    1.1660    0.2105 C   0  0  2  0  0  0  0  0  0  0  0  0
    4.2111    2.4894    0.9631 C   0  0  0  0  0  0  0  0  0  0  0  0
    3.4323    3.3982    0.6826 O   0  0  0  0  0  0  0  0  0  0  0  0
    5.3836    1.1496   -0.8026 C   0  0  0  0  0  0  0  0  0  0  0  0
    2.9534    0.7414   -1.4188 H   0  0  0  0  0  0  0  0  0  0  0  0
    4.3682    0.3429    0.9236 H   0  0  0  0  0  0  0  0  0  0  0  0
    5.2818    1.9671   -1.5256 H   0  0  0  0  0  0  0  0  0  0  0  0
    6.3559    1.2618   -0.3116 H   0  0  0  0  0  0  0  0  0  0  0  0
    5.3914    0.2088   -1.3637 H   0  0  0  0  0  0  0  0  0  0  0  0
    5.1778    2.5530    1.9568 N   0  0  0  0  0  0  0  0  0  0  0  0
    5.3519    3.7110    2.8022 C   0  0  0  0  0  0  0  0  0  0  0  0
    5.7680    1.7451    2.1322 H   0  0  0  0  0  0  0  0  0  0  0  0
    6.1042    4.3797    2.3586 H   0  0  0  0  0  0  0  0  0  0  0  0
    4.3948    4.2454    2.8935 H   0  0  0  0  0  0  0  0  0  0  0  0
    5.6891    3.3899    3.7988 H   0  0  0  0  0  0  0  0  0  0  0  0
 22 24  2  0  0  0  0
 24 26  1  0  0  0  0
 25 26  2  0  0  0  0
 23 25  1  0  0  0  0
 21 22  1  0  0  0  0
 22 23  1  0  0  0  0
  1  3  1  0  0  0  0
  1  7  1  0  0  0  0
  1  2  2  0  0  0  0
 35 36  1  0  0  0  0
 36 44  1  0  0  0  0
 36 37  2  0  0  0  0
  8  9  1  0  0  0  0
  9 17  1  0  0  0  0
  9 10  2  0  0  0  0
 18 19  1  0  0  0  0
 19 34  1  0  0  0  0
 19 20  2  0  0  0  0
 35 38  1  0  0  0  0
  8 11  1  0  0  0  0
 44 45  1  0  0  0  0
 18 21  1  0  0  0  0
 34 35  1  0  0  0  0
  7  8  1  0  0  0  0
 17 18  1  0  0  0  0
 24 32  1  0  0  0  0
 25 33  1  0  0  0  0
  3  4  1  0  0  0  0
  3  5  1  0  0  0  0
  3  6  1  0  0  0  0
 38 41  1  0  0  0  0
 38 42  1  0  0  0  0
 38 43  1  0  0  0  0
 11 14  1  0  0  0  0
 11 15  1  0  0  0  0
 11 16  1  0  0  0  0
 45 47  1  0  0  0  0
 45 48  1  0  0  0  0
 45 49  1  0  0  0  0
 21 29  1  0  0  0  0
 21 30  1  0  0  0  0
 35 40  1  0  0  0  0
  8 13  1  0  0  0  0
 18 28  1  0  0  0  0
 23 31  1  0  0  0  0
 44 46  1  0  0  0  0
  7 12  1  0  0  0  0
 34 39  1  0  0  0  0
 17 27  1  0  0  0  0
M  END
$$$$

  -OEChem-05262214473D

 49 49  0     1  0  0  0  0  0999 V2000
   -1.5619    0.5658    3.7981 C   0  0  0  0  0  0  0  0  0  0  0  0
   -0.6145   -0.0489    3.3224 O   0  0  0  0  0  0  0  0  0  0  0  0
   -1.9938    0.2834    5.1988 C   0  0  0  0  0  0  0  0  0  0  0  0
   -2.7535   -0.5129    5.2522 H   0  0  0  0  0  0  0  0  0  0  0  0
   -1.1626   -0.0642    5.8331 H   0  0  0  0  0  0  0  0  0  0  0  0
   -2.4318    1.1383    5.7384 H   0  0  0  0  0  0  0  0  0  0  0  0
   -2.3116    1.5383    3.1570 N   0  0  0  0  0  0  0  0  0  0  0  0
   -2.0648    1.9643    1.8046 C   0  0  2  0  0  0  0  0  0  0  0  0
   -0.7298    1.3789    1.3634 C   0  0  0  0  0  0  0  0  0  0  0  0
    0.1423    1.0262    2.1547 O   0  0  0  0  0  0  0  0  0  0  0  0
   -2.0560    3.4811    1.6952 C   0  0  0  0  0  0  0  0  0  0  0  0
   -3.0767    1.9741    3.6688 H   0  0  0  0  0  0  0  0  0  0  0  0
   -2.8689    1.5458    1.1895 H   0  0  0  0  0  0  0  0  0  0  0  0
   -1.2569    3.9183    2.3049 H   0  0  0  0  0  0  0  0  0  0  0  0
   -1.8965    3.8033    0.6609 H   0  0  0  0  0  0  0  0  0  0  0  0
   -3.0062    3.9023    2.0409 H   0  0  0  0  0  0  0  0  0  0  0  0
   -0.6071    1.3358   -0.0200 N   0  0  0  0  0  0  0  0  0  0  0  0
    0.5702    0.8350   -0.6836 C   0  0  2  0  0  0  0  0  0  0  0  0
    1.7566    1.1118    0.2328 C   0  0  0  0  0  0  0  0  0  0  0  0
    1.6697    1.1103    1.4589 O   0  0  0  0  0  0  0  0  0  0  0  0
    0.7881    1.4930   -2.0510 C   0  0  0  0  0  0  0  0  0  0  0  0
   -0.3176    1.1834   -3.0305 C   0  0  0  0  0  0  0  0  0  0  0  0
   -0.4406   -0.0299   -3.6469 N   0  0  0  0  0  0  0  0  0  0  0  0
   -1.3665    1.9308   -3.5118 C   0  0  0  0  0  0  0  0  0  0  0  0
   -1.5377    0.0331   -4.4604 C   0  0  0  0  0  0  0  0  0  0  0  0
   -2.1224    1.2089   -4.4012 N   0  0  0  0  0  0  0  0  0  0  0  0
   -1.3903    1.6325   -0.5973 H   0  0  0  0  0  0  0  0  0  0  0  0
    0.4369   -0.2489   -0.7807 H   0  0  0  0  0  0  0  0  0  0  0  0
    1.7534    1.1823   -2.4732 H   0  0  0  0  0  0  0  0  0  0  0  0
    0.8580    2.5837   -1.9450 H   0  0  0  0  0  0  0  0  0  0  0  0
    0.1674   -0.8294   -3.5266 H   0  0  0  0  0  0  0  0  0  0  0  0
   -1.6181    2.9523   -3.2645 H   0  0  0  0  0  0  0  0  0  0  0  0
   -1.8535   -0.8057   -5.0643 H   0  0  0  0  0  0  0  0  0  0  0  0
    2.9299    1.3103   -0.4817 N   0  0  0  0  0  0  0  0  0  0  0  0
    4.2065    1.5685    0.1446 C   0  0  2  0  0  0  0  0  0  0  0  0
    4.0164    2.6933    1.1536 C   0  0  0  0  0  0  0  0  0  0  0  0
    3.0933    3.5027    1.0898 O   0  0  0  0  0  0  0  0  0  0  0  0
    5.2640    1.9348   -0.8850 C   0  0  0  0  0  0  0  0  0  0  0  0
    2.8892    1.2721   -1.4960 H   0  0  0  0  0  0  0  0  0  0  0  0
    4.4925    0.6506    0.6698 H   0  0  0  0  0  0  0  0  0  0  0  0
    4.9948    2.8520   -1.4213 H   0  0  0  0  0  0  0  0  0  0  0  0
    6.2373    2.1022   -0.4118 H   0  0  0  0  0  0  0  0  0  0  0  0
    5.3783    1.1372   -1.6270 H   0  0  0  0  0  0  0  0  0  0  0  0
    5.0231    2.7134    2.1087 N   0  0  0  0  0  0  0  0  0  0  0  0
    5.0734    3.6940    3.1679 C   0  0  0  0  0  0  0  0  0  0  0  0
    5.7382    1.9921    2.0962 H   0  0  0  0  0  0  0  0  0  0  0  0
    5.6869    4.5491    2.8477 H   0  0  0  0  0  0  0  0  0  0  0  0
    4.0544    4.0393    3.3965 H   0  0  0  0  0  0  0  0  0  0  0  0
    5.5172    3.2406    4.0665 H   0  0  0  0  0  0  0  0  0  0  0  0
 22 24  2  0  0  0  0
 24 26  1  0  0  0  0
 25 26  2  0  0  0  0
 23 25  1  0  0  0  0
 21 22  1  0  0  0  0
 22 23  1  0  0  0  0
  1  3  1  0  0  0  0
  1  7  1  0  0  0  0
  1  2  2  0  0  0  0
 35 36  1  0  0  0  0
 36 44  1  0  0  0  0
 36 37  2  0  0  0  0
  8  9  1  0  0  0  0
  9 17  1  0  0  0  0
  9 10  2  0  0  0  0
 18 19  1  0  0  0  0
 19 34  1  0  0  0  0
 19 20  2  0  0  0  0
 35 38  1  0  0  0  0
  8 11  1  0  0  0  0
 44 45  1  0  0  0  0
 18 21  1  0  0  0  0
 34 35  1  0  0  0  0
  7  8  1  0  0  0  0
 17 18  1  0  0  0  0
 24 32  1  0  0  0  0
 25 33  1  0  0  0  0
  3  4  1  0  0  0  0
  3  5  1  0  0  0  0
  3  6  1  0  0  0  0
 38 41  1  0  0  0  0
 38 42  1  0  0  0  0
 38 43  1  0  0  0  0
 11 14  1  0  0  0  0
 11 15  1  0  0  0  0
 11 16  1  0  0  0  0
 45 47  1  0  0  0  0
 45 48  1  0  0  0  0
 45 49  1  0  0  0  0
 21 29  1  0  0  0  0
 21 30  1  0  0  0  0
 35 40  1  0  0  0  0
  8 13  1  0  0  0  0
 18 28  1  0  0  0  0
 23 31  1  0  0  0  0
 44 46  1  0  0  0  0
  7 12  1  0  0  0  0
 34 39  1  0  0  0  0
 17 27  1  0  0  0  0
M  END
$$$$

  -OEChem-05262214473D

 49 49  0     1  0  0  0  0  0999 V2000
   -1.5619    0.5658    3.7981 C   0  0  0  0  0  0  0  0  0  0  0  0
   -0.6145   -0.0489    3.3224 O   0  0  0  0  0  0  0  0  0  0  0  0
   -1.9938    0.2834    5.1988 C   0  0  0  0  0  0  0  0  0  0  0  0
   -2.7535   -0.5129    5.2522 H   0  0  0  0  0  0  0  0  0  0  0  0
   -1.1626   -0.0642    5.8331 H   0  0  0  0  0  0  0  0  0  0  0  0
   -2.4318    1.1383    5.7384 H   0  0  0  0  0  0  0  0  0  0  0  0
   -2.3116    1.5383    3.1570 N   0  0  0  0  0  0  0  0  0  0  0  0
   -2.0648    1.9643    1.8046 C   0  0  2  0  0  0  0  0  0  0  0  0
   -0.7298    1.3789    1.3634 C   0  0  0  0  0  0  0  0  0  0  0  0
    0.1423    1.0262    2.1547 O   0  0  0  0  0  0  0  0  0  0  0  0
   -2.0560    3.4811    1.6952 C   0  0  0  0  0  0  0  0  0  0  0  0
   -3.0767    1.9741    3.6688 H   0  0  0  0  0  0  0  0  0  0  0  0
   -2.8689    1.5458    1.1895 H   0  0  0  0  0  0  0  0  0  0  0  0
   -1.2569    3.9183    2.3049 H   0  0  0  0  0  0  0  0  0  0  0  0
   -1.8965    3.8033    0.6609 H   0  0  0  0  0  0  0  0  0  0  0  0
   -3.0062    3.9023    2.0409 H   0  0  0  0  0  0  0  0  0  0  0  0
   -0.6071    1.3358   -0.0200 N   0  0  0  0  0  0  0  0  0  0  0  0
    0.5702    0.8350   -0.6836 C   0  0  2  0  0  0  0  0  0  0  0  0
    1.7566    1.1118    0.2328 C   0  0  0  0  0  0  0  0  0  0  0  0
    1.7482    0.8540    1.4346 O   0  0  0  0  0  0  0  0  0  0  0  0
    0.7881    1.4930   -2.0510 C   0  0  0  0  0  0  0  0  0  0  0  0
   -0.3176    1.1834   -3.0305 C   0  0  0  0  0  0  0  0  0  0  0  0
   -0.4406   -0.0299   -3.6469 N   0  0  0  0  0  0  0  0  0  0  0  0
   -1.3665    1.9308   -3.5118 C   0  0  0  0  0  0  0  0  0  0  0  0
   -1.5377    0.0331   -4.4604 C   0  0  0  0  0  0  0  0  0  0  0  0
   -2.1224    1.2089   -4.4012 N   0  0  0  0  0  0  0  0  0  0  0  0
   -1.3903    1.6325   -0.5973 H   0  0  0  0  0  0  0  0  0  0  0  0
    0.4369   -0.2489   -0.7807 H   0  0  0  0  0  0  0  0  0  0  0  0
    1.7534    1.1823   -2.4732 H   0  0  0  0  0  0  0  0  0  0  0  0
    0.8580    2.5837   -1.9450 H   0  0  0  0  0  0  0  0  0  0  0  0
    0.1674   -0.8294   -3.5266 H   0  0  0  0  0  0  0  0  0  0  0  0
   -1.6181    2.9523   -3.2645 H   0  0  0  0  0  0  0  0  0  0  0  0
   -1.8535   -0.8057   -5.0643 H   0  0  0  0  0  0  0  0  0  0  0  0
    2.8392    1.6332   -0.4619 N   0  0  0  0  0  0  0  0  0  0  0  0
    4.0992    1.9638    0.1642 C   0  0  2  0  0  0  0  0  0  0  0  0
    3.8055    2.8216    1.3878 C   0  0  0  0  0  0  0  0  0  0  0  0
    2.7688    3.4689    1.5201 O   0  0  0  0  0  0  0  0  0  0  0  0
    5.0225    2.6912   -0.8007 C   0  0  0  0  0  0  0  0  0  0  0  0
    2.7410    1.7903   -1.4606 H   0  0  0  0  0  0  0  0  0  0  0  0
    4.5528    1.0182    0.4807 H   0  0  0  0  0  0  0  0  0  0  0  0
    4.5848    3.6411   -1.1289 H   0  0  0  0  0  0  0  0  0  0  0  0
    5.9872    2.9157   -0.3338 H   0  0  0  0  0  0  0  0  0  0  0  0
    5.2087    2.0850   -1.6938 H   0  0  0  0  0  0  0  0  0  0  0  0
    4.8558    2.8137    2.2950 N   0  0  0  0  0  0  0  0  0  0  0  0
    4.8243    3.5607    3.5308 C   0  0  0  0  0  0  0  0  0  0  0  0
    5.6692    2.2334    2.1126 H   0  0  0  0  0  0  0  0  0  0  0  0
    5.2804    4.5493    3.3739 H   0  0  0  0  0  0  0  0  0  0  0  0
    3.7812    3.6858    3.8569 H   0  0  0  0  0  0  0  0  0  0  0  0
    5.3870    3.0157    4.3030 H   0  0  0  0  0  0  0  0  0  0  0  0
 22 24  2  0  0  0  0
 24 26  1  0  0  0  0
 25 26  2  0  0  0  0
 23 25  1  0  0  0  0
 21 22  1  0  0  0  0
 22 23  1  0  0  0  0
  1  3  1  0  0  0  0
  1  7  1  0  0  0  0
  1  2  2  0  0  0  0
 35 36  1  0  0  0  0
 36 44  1  0  0  0  0
 36 37  2  0  0  0  0
  8  9  1  0  0  0  0
  9 17  1  0  0  0  0
  9 10  2  0  0  0  0
 18 19  1  0  0  0  0
 19 34  1  0  0  0  0
 19 20  2  0  0  0  0
 35 38  1  0  0  0  0
  8 11  1  0  0  0  0
 44 45  1  0  0  0  0
 18 21  1  0  0  0  0
 34 35  1  0  0  0  0
  7  8  1  0  0  0  0
 17 18  1  0  0  0  0
 24 32  1  0  0  0  0
 25 33  1  0  0  0  0
  3  4  1  0  0  0  0
  3  5  1  0  0  0  0
  3  6  1  0  0  0  0
 38 41  1  0  0  0  0
 38 42  1  0  0  0  0
 38 43  1  0  0  0  0
 11 14  1  0  0  0  0
 11 15  1  0  0  0  0
 11 16  1  0  0  0  0
 45 47  1  0  0  0  0
 45 48  1  0  0  0  0
 45 49  1  0  0  0  0
 21 29  1  0  0  0  0
 21 30  1  0  0  0  0
 35 40  1  0  0  0  0
  8 13  1  0  0  0  0
 18 28  1  0  0  0  0
 23 31  1  0  0  0  0
 44 46  1  0  0  0  0
  7 12  1  0  0  0  0
 34 39  1  0  0  0  0
 17 27  1  0  0  0  0
M  END
$$$$

  -OEChem-05262214473D

 49 49  0     1  0  0  0  0  0999 V2000
   -1.5619    0.5658    3.7981 C   0  0  0  0  0  0  0  0  0  0  0  0
   -0.6145   -0.0489    3.3224 O   0  0  0  0  0  0  0  0  0  0  0  0
   -1.9938    0.2834    5.1988 C   0  0  0  0  0  0  0  0  0  0  0  0
   -2.7535   -0.5129    5.2522 H   0  0  0  0  0  0  0  0  0  0  0  0
   -1.1626   -0.0642    5.8331 H   0  0  0  0  0  0  0  0  0  0  0  0
   -2.4318    1.1383    5.7384 H   0  0  0  0  0  0  0  0  0  0  0  0
   -2.3116    1.5383    3.1570 N   0  0  0  0  0  0  0  0  0  0  0  0
   -2.0648    1.9643    1.8046 C   0  0  2  0  0  0  0  0  0  0  0  0
   -0.7298    1.3789    1.3634 C   0  0  0  0  0  0  0  0  0  0  0  0
    0.1423    1.0262    2.1547 O   0  0  0  0  0  0  0  0  0  0  0  0
   -2.0560    3.4811    1.6952 C   0  0  0  0  0  0  0  0  0  0  0  0
   -3.0767    1.9741    3.6688 H   0  0  0  0  0  0  0  0  0  0  0  0
   -2.8689    1.5458    1.1895 H   0  0  0  0  0  0  0  0  0  0  0  0
   -1.2569    3.9183    2.3049 H   0  0  0  0  0  0  0  0  0  0  0  0
   -1.8965    3.8033    0.6609 H   0  0  0  0  0  0  0  0  0  0  0  0
   -3.0062    3.9023    2.0409 H   0  0  0  0  0  0  0  0  0  0  0  0
   -0.6071    1.3358   -0.0200 N   0  0  0  0  0  0  0  0  0  0  0  0
    0.5702    0.8350   -0.6836 C   0  0  2  0  0  0  0  0  0  0  0  0
    1.7566    1.1118    0.2328 C   0  0  0  0  0  0  0  0  0  0  0  0
    1.8629    0.6236    1.3558 O   0  0  0  0  0  0  0  0  0  0  0  0
    0.7881    1.4930   -2.0510 C   0  0  0  0  0  0  0  0  0  0  0  0
   -0.3176    1.1834   -3.0305 C   0  0  0  0  0  0  0  0  0  0  0  0
   -0.4406   -0.0299   -3.6469 N   0  0  0  0  0  0  0  0  0  0  0  0
   -1.3665    1.9308   -3.5118 C   0  0  0  0  0  0  0  0  0  0  0  0
   -1.5377    0.0331   -4.4604 C   0  0  0  0  0  0  0  0  0  0  0  0
   -2.1224    1.2089   -4.4012 N   0  0  0  0  0  0  0  0  0  0  0  0
   -1.3903    1.6325   -0.5973 H   0  0  0  0  0  0  0  0  0  0  0  0
    0.4369   -0.2489   -0.7807 H   0  0  0  0  0  0  0  0  0  0  0  0
    1.7534    1.1823   -2.4732 H   0  0  0  0  0  0  0  0  0  0  0  0
    0.8580    2.5837   -1.9450 H   0  0  0  0  0  0  0  0  0  0  0  0
    0.1674   -0.8294   -3.5266 H   0  0  0  0  0  0  0  0  0  0  0  0
   -1.6181    2.9523   -3.2645 H   0  0  0  0  0  0  0  0  0  0  0  0
   -1.8535   -0.8057   -5.0643 H   0  0  0  0  0  0  0  0  0  0  0  0
    2.7024    1.9270   -0.3735 N   0  0  0  0  0  0  0  0  0  0  0  0
    3.9349    2.3250    0.2677 C   0  0  2  0  0  0  0  0  0  0  0  0
    3.5929    2.8656    1.6498 C   0  0  0  0  0  0  0  0  0  0  0  0
    2.4809    3.2990    1.9442 O   0  0  0  0  0  0  0  0  0  0  0  0
    4.6754    3.3674   -0.5556 C   0  0  0  0  0  0  0  0  0  0  0  0
    2.5190    2.2606   -1.3152 H   0  0  0  0  0  0  0  0  0  0  0  0
    4.5449    1.4208    0.3693 H   0  0  0  0  0  0  0  0  0  0  0  0
    4.0798    4.2806   -0.6682 H   0  0  0  0  0  0  0  0  0  0  0  0
    5.6227    3.6468   -0.0828 H   0  0  0  0  0  0  0  0  0  0  0  0
    4.8944    2.9876   -1.5594 H   0  0  0  0  0  0  0  0  0  0  0  0
    4.6873    2.8470    2.5031 N   0  0  0  0  0  0  0  0  0  0  0  0
    4.6214    3.3200    3.8661 C   0  0  0  0  0  0  0  0  0  0  0  0
    5.5659    2.4523    2.1803 H   0  0  0  0  0  0  0  0  0  0  0  0
    4.9125    4.3802    3.9013 H   0  0  0  0  0  0  0  0  0  0  0  0
    3.5940    3.2093    4.2432 H   0  0  0  0  0  0  0  0  0  0  0  0
    5.3073    2.7305    4.4922 H   0  0  0  0  0  0  0  0  0  0  0  0
 22 24  2  0  0  0  0
 24 26  1  0  0  0  0
 25 26  2  0  0  0  0
 23 25  1  0  0  0  0
 21 22  1  0  0  0  0
 22 23  1  0  0  0  0
  1  3  1  0  0  0  0
  1  7  1  0  0  0  0
  1  2  2  0  0  0  0
 35 36  1  0  0  0  0
 36 44  1  0  0  0  0
 36 37  2  0  0  0  0
  8  9  1  0  0  0  0
  9 17  1  0  0  0  0
  9 10  2  0  0  0  0
 18 19  1  0  0  0  0
 19 34  1  0  0  0  0
 19 20  2  0  0  0  0
 35 38  1  0  0  0  0
  8 11  1  0  0  0  0
 44 45  1  0  0  0  0
 18 21  1  0  0  0  0
 34 35  1  0  0  0  0
  7  8  1  0  0  0  0
 17 18  1  0  0  0  0
 24 32  1  0  0  0  0
 25 33  1  0  0  0  0
  3  4  1  0  0  0  0
  3  5  1  0  0  0  0
  3  6  1  0  0  0  0
 38 41  1  0  0  0  0
 38 42  1  0  0  0  0
 38 43  1  0  0  0  0
 11 14  1  0  0  0  0
 11 15  1  0  0  0  0
 11 16  1  0  0  0  0
 45 47  1  0  0  0  0
 45 48  1  0  0  0  0
 45 49  1  0  0  0  0
 21 29  1  0  0  0  0
 21 30  1  0  0  0  0
 35 40  1  0  0  0  0
  8 13  1  0  0  0  0
 18 28  1  0  0  0  0
 23 31  1  0  0  0  0
 44 46  1  0  0  0  0
  7 12  1  0  0  0  0
 34 39  1  0  0  0  0
 17 27  1  0  0  0  0
M  END
$$$$

  -OEChem-05262214473D

 49 49  0     1  0  0  0  0  0999 V2000
   -1.5619    0.5658    3.7981 C   0  0  0  0  0  0  0  0  0  0  0  0
   -0.6145   -0.0489    3.3224 O   0  0  0  0  0  0  0  0  0  0  0  0
   -1.9938    0.2834    5.1988 C   0  0  0  0  0  0  0  0  0  0  0  0
   -2.7535   -0.5129    5.2522 H   0  0  0  0  0  0  0  0  0  0  0  0
   -1.1626   -0.0642    5.8331 H   0  0  0  0  0  0  0  0  0  0  0  0
   -2.4318    1.1383    5.7384 H   0  0  0  0  0  0  0  0  0  0  0  0
   -2.3116    1.5383    3.1570 N   0  0  0  0  0  0  0  0  0  0  0  0
   -2.0648    1.9643    1.8046 C   0  0  2  0  0  0  0  0  0  0  0  0
   -0.7298    1.3789    1.3634 C   0  0  0  0  0  0  0  0  0  0  0  0
    0.1423    1.0262    2.1547 O   0  0  0  0  0  0  0  0  0  0  0  0
   -2.0560    3.4811    1.6952 C   0  0  0  0  0  0  0  0  0  0  0  0
   -3.0767    1.9741    3.6688 H   0  0  0  0  0  0  0  0  0  0  0  0
   -2.8689    1.5458    1.1895 H   0  0  0  0  0  0  0  0  0  0  0  0
   -1.2569    3.9183    2.3049 H   0  0  0  0  0  0  0  0  0  0  0  0
   -1.8965    3.8033    0.6609 H   0  0  0  0  0  0  0  0  0  0  0  0
   -3.0062    3.9023    2.0409 H   0  0  0  0  0  0  0  0  0  0  0  0
   -0.6071    1.3358   -0.0200 N   0  0  0  0  0  0  0  0  0  0  0  0
    0.5702    0.8350   -0.6836 C   0  0  2  0  0  0  0  0  0  0  0  0
    1.7566    1.1118    0.2328 C   0  0  0  0  0  0  0  0  0  0  0  0
    2.0057    0.4347    1.2279 O   0  0  0  0  0  0  0  0  0  0  0  0
    0.7881    1.4930   -2.0510 C   0  0  0  0  0  0  0  0  0  0  0  0
   -0.3176    1.1834   -3.0305 C   0  0  0  0  0  0  0  0  0  0  0  0
   -0.4406   -0.0299   -3.6469 N   0  0  0  0  0  0  0  0  0  0  0  0
   -1.3665    1.9308   -3.5118 C   0  0  0  0  0  0  0  0  0  0  0  0
   -1.5377    0.0331   -4.4604 C   0  0  0  0  0  0  0  0  0  0  0  0
   -2.1224    1.2089   -4.4012 N   0  0  0  0  0  0  0  0  0  0  0  0
   -1.3903    1.6325   -0.5973 H   0  0  0  0  0  0  0  0  0  0  0  0
    0.4369   -0.2489   -0.7807 H   0  0  0  0  0  0  0  0  0  0  0  0
    1.7534    1.1823   -2.4732 H   0  0  0  0  0  0  0  0  0  0  0  0
    0.8580    2.5837   -1.9450 H   0  0  0  0  0  0  0  0  0  0  0  0
    0.1674   -0.8294   -3.5266 H   0  0  0  0  0  0  0  0  0  0  0  0
   -1.6181    2.9523   -3.2645 H   0  0  0  0  0  0  0  0  0  0  0  0
   -1.8535   -0.8057   -5.0643 H   0  0  0  0  0  0  0  0  0  0  0  0
    2.5286    2.1717   -0.2224 N   0  0  0  0  0  0  0  0  0  0  0  0
    3.7250    2.6275    0.4482 C   0  0  2  0  0  0  0  0  0  0  0  0
    3.3930    2.8222    1.9218 C   0  0  0  0  0  0  0  0  0  0  0  0
    2.2491    3.0048    2.3332 O   0  0  0  0  0  0  0  0  0  0  0  0
    4.2465    3.9171   -0.1664 C   0  0  0  0  0  0  0  0  0  0  0  0
    2.2381    2.6511   -1.0695 H   0  0  0  0  0  0  0  0  0  0  0  0
    4.4695    1.8309    0.3431 H   0  0  0  0  0  0  0  0  0  0  0  0
    3.5141    4.7270   -0.0707 H   0  0  0  0  0  0  0  0  0  0  0  0
    5.1687    4.2458    0.3241 H   0  0  0  0  0  0  0  0  0  0  0  0
    4.4566    3.7834   -1.2331 H   0  0  0  0  0  0  0  0  0  0  0  0
    4.5292    2.8110    2.7186 N   0  0  0  0  0  0  0  0  0  0  0  0
    4.4786    2.9884    4.1511 C   0  0  0  0  0  0  0  0  0  0  0  0
    5.4351    2.6341    2.2947 H   0  0  0  0  0  0  0  0  0  0  0  0
    4.6082    4.0534    4.3940 H   0  0  0  0  0  0  0  0  0  0  0  0
    3.5055    2.6420    4.5292 H   0  0  0  0  0  0  0  0  0  0  0  0
    5.2836    2.4046    4.6214 H   0  0  0  0  0  0  0  0  0  0  0  0
 22 24  2  0  0  0  0
 24 26  1  0  0  0  0
 25 26  2  0  0  0  0
 23 25  1  0  0  0  0
 21 22  1  0  0  0  0
 22 23  1  0  0  0  0
  1  3  1  0  0  0  0
  1  7  1  0  0  0  0
  1  2  2  0  0  0  0
 35 36  1  0  0  0  0
 36 44  1  0  0  0  0
 36 37  2  0  0  0  0
  8  9  1  0  0  0  0
  9 17  1  0  0  0  0
  9 10  2  0  0  0  0
 18 19  1  0  0  0  0
 19 34  1  0  0  0  0
 19 20  2  0  0  0  0
 35 38  1  0  0  0  0
  8 11  1  0  0  0  0
 44 45  1  0  0  0  0
 18 21  1  0  0  0  0
 34 35  1  0  0  0  0
  7  8  1  0  0  0  0
 17 18  1  0  0  0  0
 24 32  1  0  0  0  0
 25 33  1  0  0  0  0
  3  4  1  0  0  0  0
  3  5  1  0  0  0  0
  3  6  1  0  0  0  0
 38 41  1  0  0  0  0
 38 42  1  0  0  0  0
 38 43  1  0  0  0  0
 11 14  1  0  0  0  0
 11 15  1  0  0  0  0
 11 16  1  0  0  0  0
 45 47  1  0  0  0  0
 45 48  1  0  0  0  0
 45 49  1  0  0  0  0
 21 29  1  0  0  0  0
 21 30  1  0  0  0  0
 35 40  1  0  0  0  0
  8 13  1  0  0  0  0
 18 28  1  0  0  0  0
 23 31  1  0  0  0  0
 44 46  1  0  0  0  0
  7 12  1  0  0  0  0
 34 39  1  0  0  0  0
 17 27  1  0  0  0  0
M  END
$$$$

  -OEChem-05262214473D

 49 49  0     1  0  0  0  0  0999 V2000
   -1.5619    0.5658    3.7981 C   0  0  0  0  0  0  0  0  0  0  0  0
   -0.6145   -0.0489    3.3224 O   0  0  0  0  0  0  0  0  0  0  0  0
   -1.9938    0.2834    5.1988 C   0  0  0  0  0  0  0  0  0  0  0  0
   -2.7535   -0.5129    5.2522 H   0  0  0  0  0  0  0  0  0  0  0  0
   -1.1626   -0.0642    5.8331 H   0  0  0  0  0  0  0  0  0  0  0  0
   -2.4318    1.1383    5.7384 H   0  0  0  0  0  0  0  0  0  0  0  0
   -2.3116    1.5383    3.1570 N   0  0  0  0  0  0  0  0  0  0  0  0
   -2.0648    1.9643    1.8046 C   0  0  2  0  0  0  0  0  0  0  0  0
   -0.7298    1.3789    1.3634 C   0  0  0  0  0  0  0  0  0  0  0  0
    0.1423    1.0262    2.1547 O   0  0  0  0  0  0  0  0  0  0  0  0
   -2.0560    3.4811    1.6952 C   0  0  0  0  0  0  0  0  0  0  0  0
   -3.0767    1.9741    3.6688 H   0  0  0  0  0  0  0  0  0  0  0  0
   -2.8689    1.5458    1.1895 H   0  0  0  0  0  0  0  0  0  0  0  0
   -1.2569    3.9183    2.3049 H   0  0  0  0  0  0  0  0  0  0  0  0
   -1.8965    3.8033    0.6609 H   0  0  0  0  0  0  0  0  0  0  0  0
   -3.0062    3.9023    2.0409 H   0  0  0  0  0  0  0  0  0  0  0  0
   -0.6071    1.3358   -0.0200 N   0  0  0  0  0  0  0  0  0  0  0  0
    0.5702    0.8350   -0.6836 C   0  0  2  0  0  0  0  0  0  0  0  0
    1.7566    1.1118    0.2328 C   0  0  0  0  0  0  0  0  0  0  0  0
    2.1671    0.3002    1.0596 O   0  0  0  0  0  0  0  0  0  0  0  0
    0.7881    1.4930   -2.0510 C   0  0  0  0  0  0  0  0  0  0  0  0
   -0.3176    1.1834   -3.0305 C   0  0  0  0  0  0  0  0  0  0  0  0
   -0.4406   -0.0299   -3.6469 N   0  0  0  0  0  0  0  0  0  0  0  0
   -1.3665    1.9308   -3.5118 C   0  0  0  0  0  0  0  0  0  0  0  0
   -1.5377    0.0331   -4.4604 C   0  0  0  0  0  0  0  0  0  0  0  0
   -2.1224    1.2089   -4.4012 N   0  0  0  0  0  0  0  0  0  0  0  0
   -1.3903    1.6325   -0.5973 H   0  0  0  0  0  0  0  0  0  0  0  0
    0.4369   -0.2489   -0.7807 H   0  0  0  0  0  0  0  0  0  0  0  0
    1.7534    1.1823   -2.4732 H   0  0  0  0  0  0  0  0  0  0  0  0
    0.8580    2.5837   -1.9450 H   0  0  0  0  0  0  0  0  0  0  0  0
    0.1674   -0.8294   -3.5266 H   0  0  0  0  0  0  0  0  0  0  0  0
   -1.6181    2.9523   -3.2645 H   0  0  0  0  0  0  0  0  0  0  0  0
   -1.8535   -0.8057   -5.0643 H   0  0  0  0  0  0  0  0  0  0  0  0
    2.3298    2.3506   -0.0190 N   0  0  0  0  0  0  0  0  0  0  0  0
    3.4835    2.8507    0.6933 C   0  0  2  0  0  0  0  0  0  0  0  0
    3.2194    2.6944    2.1851 C   0  0  0  0  0  0  0  0  0  0  0  0
    2.0893    2.6061    2.6605 O   0  0  0  0  0  0  0  0  0  0  0  0
    3.7650    4.3030    0.3405 C   0  0  0  0  0  0  0  0  0  0  0  0
    1.9176    2.9351   -0.7403 H   0  0  0  0  0  0  0  0  0  0  0  0
    4.3316    2.2205    0.4040 H   0  0  0  0  0  0  0  0  0  0  0  0
    2.9263    4.9497    0.6230 H   0  0  0  0  0  0  0  0  0  0  0  0
    4.6561    4.6718    0.8591 H   0  0  0  0  0  0  0  0  0  0  0  0
    3.9253    4.4182   -0.7369 H   0  0  0  0  0  0  0  0  0  0  0  0
    4.3922    2.7083    2.9270 N   0  0  0  0  0  0  0  0  0  0  0  0
    4.4057    2.5885    4.3663 C   0  0  0  0  0  0  0  0  0  0  0  0
    5.2859    2.7663    2.4479 H   0  0  0  0  0  0  0  0  0  0  0  0
    4.3882    3.5911    4.8184 H   0  0  0  0  0  0  0  0  0  0  0  0
    3.5217    2.0226    4.6953 H   0  0  0  0  0  0  0  0  0  0  0  0
    5.3175    2.0601    4.6816 H   0  0  0  0  0  0  0  0  0  0  0  0
 22 24  2  0  0  0  0
 24 26  1  0  0  0  0
 25 26  2  0  0  0  0
 23 25  1  0  0  0  0
 21 22  1  0  0  0  0
 22 23  1  0  0  0  0
  1  3  1  0  0  0  0
  1  7  1  0  0  0  0
  1  2  2  0  0  0  0
 35 36  1  0  0  0  0
 36 44  1  0  0  0  0
 36 37  2  0  0  0  0
  8  9  1  0  0  0  0
  9 17  1  0  0  0  0
  9 10  2  0  0  0  0
 18 19  1  0  0  0  0
 19 34  1  0  0  0  0
 19 20  2  0  0  0  0
 35 38  1  0  0  0  0
  8 11  1  0  0  0  0
 44 45  1  0  0  0  0
 18 21  1  0  0  0  0
 34 35  1  0  0  0  0
  7  8  1  0  0  0  0
 17 18  1  0  0  0  0
 24 32  1  0  0  0  0
 25 33  1  0  0  0  0
  3  4  1  0  0  0  0
  3  5  1  0  0  0  0
  3  6  1  0  0  0  0
 38 41  1  0  0  0  0
 38 42  1  0  0  0  0
 38 43  1  0  0  0  0
 11 14  1  0  0  0  0
 11 15  1  0  0  0  0
 11 16  1  0  0  0  0
 45 47  1  0  0  0  0
 45 48  1  0  0  0  0
 45 49  1  0  0  0  0
 21 29  1  0  0  0  0
 21 30  1  0  0  0  0
 35 40  1  0  0  0  0
  8 13  1  0  0  0  0
 18 28  1  0  0  0  0
 23 31  1  0  0  0  0
 44 46  1  0  0  0  0
  7 12  1  0  0  0  0
 34 39  1  0  0  0  0
 17 27  1  0  0  0  0
M  END
$$$$

  -OEChem-05262214473D

 49 49  0     1  0  0  0  0  0999 V2000
   -1.5619    0.5658    3.7981 C   0  0  0  0  0  0  0  0  0  0  0  0
   -0.6145   -0.0489    3.3224 O   0  0  0  0  0  0  0  0  0  0  0  0
   -1.9938    0.2834    5.1988 C   0  0  0  0  0  0  0  0  0  0  0  0
   -2.7535   -0.5129    5.2522 H   0  0  0  0  0  0  0  0  0  0  0  0
   -1.1626   -0.0642    5.8331 H   0  0  0  0  0  0  0  0  0  0  0  0
   -2.4318    1.1383    5.7384 H   0  0  0  0  0  0  0  0  0  0  0  0
   -2.3116    1.5383    3.1570 N   0  0  0  0  0  0  0  0  0  0  0  0
   -2.0648    1.9643    1.8046 C   0  0  2  0  0  0  0  0  0  0  0  0
   -0.7298    1.3789    1.3634 C   0  0  0  0  0  0  0  0  0  0  0  0
    0.1423    1.0262    2.1547 O   0  0  0  0  0  0  0  0  0  0  0  0
   -2.0560    3.4811    1.6952 C   0  0  0  0  0  0  0  0  0  0  0  0
   -3.0767    1.9741    3.6688 H   0  0  0  0  0  0  0  0  0  0  0  0
   -2.8689    1.5458    1.1895 H   0  0  0  0  0  0  0  0  0  0  0  0
   -1.2569    3.9183    2.3049 H   0  0  0  0  0  0  0  0  0  0  0  0
   -1.8965    3.8033    0.6609 H   0  0  0  0  0  0  0  0  0  0  0  0
   -3.0062    3.9023    2.0409 H   0  0  0  0  0  0  0  0  0  0  0  0
   -0.6071    1.3358   -0.0200 N   0  0  0  0  0  0  0  0  0  0  0  0
    0.5702    0.8350   -0.6836 C   0  0  2  0  0  0  0  0  0  0  0  0
    1.7566    1.1118    0.2328 C   0  0  0  0  0  0  0  0  0  0  0  0
    2.3360    0.2293    0.8624 O   0  0  0  0  0  0  0  0  0  0  0  0
    0.7881    1.4930   -2.0510 C   0  0  0  0  0  0  0  0  0  0  0  0
   -0.3176    1.1834   -3.0305 C   0  0  0  0  0  0  0  0  0  0  0  0
   -0.4406   -0.0299   -3.6469 N   0  0  0  0  0  0  0  0  0  0  0  0
   -1.3665    1.9308   -3.5118 C   0  0  0  0  0  0  0  0  0  0  0  0
   -1.5377    0.0331   -4.4604 C   0  0  0  0  0  0  0  0  0  0  0  0
   -2.1224    1.2089   -4.4012 N   0  0  0  0  0  0  0  0  0  0  0  0
   -1.3903    1.6325   -0.5973 H   0  0  0  0  0  0  0  0  0  0  0  0
    0.4369   -0.2489   -0.7807 H   0  0  0  0  0  0  0  0  0  0  0  0
    1.7534    1.1823   -2.4732 H   0  0  0  0  0  0  0  0  0  0  0  0
    0.8580    2.5837   -1.9450 H   0  0  0  0  0  0  0  0  0  0  0  0
    0.1674   -0.8294   -3.5266 H   0  0  0  0  0  0  0  0  0  0  0  0
   -1.6181    2.9523   -3.2645 H   0  0  0  0  0  0  0  0  0  0  0  0
   -1.8535   -0.8057   -5.0643 H   0  0  0  0  0  0  0  0  0  0  0  0
    2.1195    2.4515    0.2228 N   0  0  0  0  0  0  0  0  0  0  0  0
    3.2271    2.9794    0.9864 C   0  0  2  0  0  0  0  0  0  0  0  0
    3.0840    2.4909    2.4218 C   0  0  0  0  0  0  0  0  0  0  0  0
    2.0123    2.1302    2.9039 O   0  0  0  0  0  0  0  0  0  0  0  0
    3.2637    4.4987    0.9304 C   0  0  0  0  0  0  0  0  0  0  0  0
    1.5793    3.0932   -0.3501 H   0  0  0  0  0  0  0  0  0  0  0  0
    4.1406    2.5632    0.5477 H   0  0  0  0  0  0  0  0  0  0  0  0
    2.3565    4.9337    1.3655 H   0  0  0  0  0  0  0  0  0  0  0  0
    4.1198    4.8957    1.4858 H   0  0  0  0  0  0  0  0  0  0  0  0
    3.3366    4.8489   -0.1049 H   0  0  0  0  0  0  0  0  0  0  0  0
    4.2856    2.5458    3.1141 N   0  0  0  0  0  0  0  0  0  0  0  0
    4.4076    2.1475    4.4970 C   0  0  0  0  0  0  0  0  0  0  0  0
    5.1285    2.8400    2.6295 H   0  0  0  0  0  0  0  0  0  0  0  0
    4.2677    3.0250    5.1455 H   0  0  0  0  0  0  0  0  0  0  0  0
    3.6415    1.3935    4.7302 H   0  0  0  0  0  0  0  0  0  0  0  0
    5.4067    1.7204    4.6687 H   0  0  0  0  0  0  0  0  0  0  0  0
 22 24  2  0  0  0  0
 24 26  1  0  0  0  0
 25 26  2  0  0  0  0
 23 25  1  0  0  0  0
 21 22  1  0  0  0  0
 22 23  1  0  0  0  0
  1  3  1  0  0  0  0
  1  7  1  0  0  0  0
  1  2  2  0  0  0  0
 35 36  1  0  0  0  0
 36 44  1  0  0  0  0
 36 37  2  0  0  0  0
  8  9  1  0  0  0  0
  9 17  1  0  0  0  0
  9 10  2  0  0  0  0
 18 19  1  0  0  0  0
 19 34  1  0  0  0  0
 19 20  2  0  0  0  0
 35 38  1  0  0  0  0
  8 11  1  0  0  0  0
 44 45  1  0  0  0  0
 18 21  1  0  0  0  0
 34 35  1  0  0  0  0
  7  8  1  0  0  0  0
 17 18  1  0  0  0  0
 24 32  1  0  0  0  0
 25 33  1  0  0  0  0
  3  4  1  0  0  0  0
  3  5  1  0  0  0  0
  3  6  1  0  0  0  0
 38 41  1  0  0  0  0
 38 42  1  0  0  0  0
 38 43  1  0  0  0  0
 11 14  1  0  0  0  0
 11 15  1  0  0  0  0
 11 16  1  0  0  0  0
 45 47  1  0  0  0  0
 45 48  1  0  0  0  0
 45 49  1  0  0  0  0
 21 29  1  0  0  0  0
 21 30  1  0  0  0  0
 35 40  1  0  0  0  0
  8 13  1  0  0  0  0
 18 28  1  0  0  0  0
 23 31  1  0  0  0  0
 44 46  1  0  0  0  0
  7 12  1  0  0  0  0
 34 39  1  0  0  0  0
 17 27  1  0  0  0  0
M  END
$$$$

  -OEChem-05262214473D

 49 49  0     1  0  0  0  0  0999 V2000
   -1.5619    0.5658    3.7981 C   0  0  0  0  0  0  0  0  0  0  0  0
   -0.6145   -0.0489    3.3224 O   0  0  0  0  0  0  0  0  0  0  0  0
   -1.9938    0.2834    5.1988 C   0  0  0  0  0  0  0  0  0  0  0  0
   -2.7535   -0.5129    5.2522 H   0  0  0  0  0  0  0  0  0  0  0  0
   -1.1626   -0.0642    5.8331 H   0  0  0  0  0  0  0  0  0  0  0  0
   -2.4318    1.1383    5.7384 H   0  0  0  0  0  0  0  0  0  0  0  0
   -2.3116    1.5383    3.1570 N   0  0  0  0  0  0  0  0  0  0  0  0
   -2.0648    1.9643    1.8046 C   0  0  2  0  0  0  0  0  0  0  0  0
   -0.7298    1.3789    1.3634 C   0  0  0  0  0  0  0  0  0  0  0  0
    0.1423    1.0262    2.1547 O   0  0  0  0  0  0  0  0  0  0  0  0
   -2.0560    3.4811    1.6952 C   0  0  0  0  0  0  0  0  0  0  0  0
   -3.0767    1.9741    3.6688 H   0  0  0  0  0  0  0  0  0  0  0  0
   -2.8689    1.5458    1.1895 H   0  0  0  0  0  0  0  0  0  0  0  0
   -1.2569    3.9183    2.3049 H   0  0  0  0  0  0  0  0  0  0  0  0
   -1.8965    3.8033    0.6609 H   0  0  0  0  0  0  0  0  0  0  0  0
   -3.0062    3.9023    2.0409 H   0  0  0  0  0  0  0  0  0  0  0  0
   -0.6071    1.3358   -0.0200 N   0  0  0  0  0  0  0  0  0  0  0  0
    0.5702    0.8350   -0.6836 C   0  0  2  0  0  0  0  0  0  0  0  0
    1.7566    1.1118    0.2328 C   0  0  0  0  0  0  0  0  0  0  0  0
    2.5009    0.2268    0.6497 O   0  0  0  0  0  0  0  0  0  0  0  0
    0.7881    1.4930   -2.0510 C   0  0  0  0  0  0  0  0  0  0  0  0
   -0.3176    1.1834   -3.0305 C   0  0  0  0  0  0  0  0  0  0  0  0
   -0.4406   -0.0299   -3.6469 N   0  0  0  0  0  0  0  0  0  0  0  0
   -1.3665    1.9308   -3.5118 C   0  0  0  0  0  0  0  0  0  0  0  0
   -1.5377    0.0331   -4.4604 C   0  0  0  0  0  0  0  0  0  0  0  0
   -2.1224    1.2089   -4.4012 N   0  0  0  0  0  0  0  0  0  0  0  0
   -1.3903    1.6325   -0.5973 H   0  0  0  0  0  0  0  0  0  0  0  0
    0.4369   -0.2489   -0.7807 H   0  0  0  0  0  0  0  0  0  0  0  0
    1.7534    1.1823   -2.4732 H   0  0  0  0  0  0  0  0  0  0  0  0
    0.8580    2.5837   -1.9450 H   0  0  0  0  0  0  0  0  0  0  0  0
    0.1674   -0.8294   -3.5266 H   0  0  0  0  0  0  0  0  0  0  0  0
   -1.6181    2.9523   -3.2645 H   0  0  0  0  0  0  0  0  0  0  0  0
   -1.8535   -0.8057   -5.0643 H   0  0  0  0  0  0  0  0  0  0  0  0
    1.9120    2.4675    0.4866 N   0  0  0  0  0  0  0  0  0  0  0  0
    2.9732    3.0047    1.3075 C   0  0  2  0  0  0  0  0  0  0  0  0
    2.9960    2.2255    2.6159 C   0  0  0  0  0  0  0  0  0  0  0  0
    2.0234    1.6096    3.0468 O   0  0  0  0  0  0  0  0  0  0  0  0
    2.7767    4.4909    1.5632 C   0  0  0  0  0  0  0  0  0  0  0  0
    1.2463    3.1147    0.0746 H   0  0  0  0  0  0  0  0  0  0  0  0
    3.9095    2.8355    0.7646 H   0  0  0  0  0  0  0  0  0  0  0  0
    1.8435    4.6801    2.1063 H   0  0  0  0  0  0  0  0  0  0  0  0
    3.5964    4.9024    2.1614 H   0  0  0  0  0  0  0  0  0  0  0  0
    2.7307    5.0459    0.6200 H   0  0  0  0  0  0  0  0  0  0  0  0
    4.2168    2.3345    3.2670 N   0  0  0  0  0  0  0  0  0  0  0  0
    4.4842    1.6955    4.5344 C   0  0  0  0  0  0  0  0  0  0  0  0
    4.9734    2.8500    2.8272 H   0  0  0  0  0  0  0  0  0  0  0  0
    4.2546    2.3934    5.3531 H   0  0  0  0  0  0  0  0  0  0  0  0
    3.8567    0.7973    4.6316 H   0  0  0  0  0  0  0  0  0  0  0  0
    5.5450    1.4088    4.5837 H   0  0  0  0  0  0  0  0  0  0  0  0
 22 24  2  0  0  0  0
 24 26  1  0  0  0  0
 25 26  2  0  0  0  0
 23 25  1  0  0  0  0
 21 22  1  0  0  0  0
 22 23  1  0  0  0  0
  1  3  1  0  0  0  0
  1  7  1  0  0  0  0
  1  2  2  0  0  0  0
 35 36  1  0  0  0  0
 36 44  1  0  0  0  0
 36 37  2  0  0  0  0
  8  9  1  0  0  0  0
  9 17  1  0  0  0  0
  9 10  2  0  0  0  0
 18 19  1  0  0  0  0
 19 34  1  0  0  0  0
 19 20  2  0  0  0  0
 35 38  1  0  0  0  0
  8 11  1  0  0  0  0
 44 45  1  0  0  0  0
 18 21  1  0  0  0  0
 34 35  1  0  0  0  0
  7  8  1  0  0  0  0
 17 18  1  0  0  0  0
 24 32  1  0  0  0  0
 25 33  1  0  0  0  0
  3  4  1  0  0  0  0
  3  5  1  0  0  0  0
  3  6  1  0  0  0  0
 38 41  1  0  0  0  0
 38 42  1  0  0  0  0
 38 43  1  0  0  0  0
 11 14  1  0  0  0  0
 11 15  1  0  0  0  0
 11 16  1  0  0  0  0
 45 47  1  0  0  0  0
 45 48  1  0  0  0  0
 45 49  1  0  0  0  0
 21 29  1  0  0  0  0
 21 30  1  0  0  0  0
 35 40  1  0  0  0  0
  8 13  1  0  0  0  0
 18 28  1  0  0  0  0
 23 31  1  0  0  0  0
 44 46  1  0  0  0  0
  7 12  1  0  0  0  0
 34 39  1  0  0  0  0
 17 27  1  0  0  0  0
M  END
$$$$

  -OEChem-05262214473D

 49 49  0     1  0  0  0  0  0999 V2000
   -1.5619    0.5658    3.7981 C   0  0  0  0  0  0  0  0  0  0  0  0
   -0.6145   -0.0489    3.3224 O   0  0  0  0  0  0  0  0  0  0  0  0
   -1.9938    0.2834    5.1988 C   0  0  0  0  0  0  0  0  0  0  0  0
   -2.7535   -0.5129    5.2522 H   0  0  0  0  0  0  0  0  0  0  0  0
   -1.1626   -0.0642    5.8331 H   0  0  0  0  0  0  0  0  0  0  0  0
   -2.4318    1.1383    5.7384 H   0  0  0  0  0  0  0  0  0  0  0  0
   -2.3116    1.5383    3.1570 N   0  0  0  0  0  0  0  0  0  0  0  0
   -2.0648    1.9643    1.8046 C   0  0  2  0  0  0  0  0  0  0  0  0
   -0.7298    1.3789    1.3634 C   0  0  0  0  0  0  0  0  0  0  0  0
    0.1423    1.0262    2.1547 O   0  0  0  0  0  0  0  0  0  0  0  0
   -2.0560    3.4811    1.6952 C   0  0  0  0  0  0  0  0  0  0  0  0
   -3.0767    1.9741    3.6688 H   0  0  0  0  0  0  0  0  0  0  0  0
   -2.8689    1.5458    1.1895 H   0  0  0  0  0  0  0  0  0  0  0  0
   -1.2569    3.9183    2.3049 H   0  0  0  0  0  0  0  0  0  0  0  0
   -1.8965    3.8033    0.6609 H   0  0  0  0  0  0  0  0  0  0  0  0
   -3.0062    3.9023    2.0409 H   0  0  0  0  0  0  0  0  0  0  0  0
   -0.6071    1.3358   -0.0200 N   0  0  0  0  0  0  0  0  0  0  0  0
    0.5702    0.8350   -0.6836 C   0  0  2  0  0  0  0  0  0  0  0  0
    1.7566    1.1118    0.2328 C   0  0  0  0  0  0  0  0  0  0  0  0
    2.6505    0.2929    0.4359 O   0  0  0  0  0  0  0  0  0  0  0  0
    0.7881    1.4930   -2.0510 C   0  0  0  0  0  0  0  0  0  0  0  0
   -0.3176    1.1834   -3.0305 C   0  0  0  0  0  0  0  0  0  0  0  0
   -0.4406   -0.0299   -3.6469 N   0  0  0  0  0  0  0  0  0  0  0  0
   -1.3665    1.9308   -3.5118 C   0  0  0  0  0  0  0  0  0  0  0  0
   -1.5377    0.0331   -4.4604 C   0  0  0  0  0  0  0  0  0  0  0  0
   -2.1224    1.2089   -4.4012 N   0  0  0  0  0  0  0  0  0  0  0  0
   -1.3903    1.6325   -0.5973 H   0  0  0  0  0  0  0  0  0  0  0  0
    0.4369   -0.2489   -0.7807 H   0  0  0  0  0  0  0  0  0  0  0  0
    1.7534    1.1823   -2.4732 H   0  0  0  0  0  0  0  0  0  0  0  0
    0.8580    2.5837   -1.9450 H   0  0  0  0  0  0  0  0  0  0  0  0
    0.1674   -0.8294   -3.5266 H   0  0  0  0  0  0  0  0  0  0  0  0
   -1.6181    2.9523   -3.2645 H   0  0  0  0  0  0  0  0  0  0  0  0
   -1.8535   -0.8057   -5.0643 H   0  0  0  0  0  0  0  0  0  0  0  0
    1.7215    2.3976    0.7543 N   0  0  0  0  0  0  0  0  0  0  0  0
    2.7391    2.9250    1.6346 C   0  0  2  0  0  0  0  0  0  0  0  0
    2.9614    1.9165    2.7540 C   0  0  0  0  0  0  0  0  0  0  0  0
    2.1219    1.0796    3.0794 O   0  0  0  0  0  0  0  0  0  0  0  0
    2.3372    4.2801    2.1958 C   0  0  0  0  0  0  0  0  0  0  0  0
    0.9412    2.9981    0.5047 H   0  0  0  0  0  0  0  0  0  0  0  0
    3.6542    3.0188    1.0398 H   0  0  0  0  0  0  0  0  0  0  0  0
    1.4223    4.2060    2.7948 H   0  0  0  0  0  0  0  0  0  0  0  0
    3.1216    4.6913    2.8399 H   0  0  0  0  0  0  0  0  0  0  0  0
    2.1489    4.9960    1.3884 H   0  0  0  0  0  0  0  0  0  0  0  0
    4.1903    2.0889    3.3754 N   0  0  0  0  0  0  0  0  0  0  0  0
    4.6302    1.2633    4.4758 C   0  0  0  0  0  0  0  0  0  0  0  0
    4.8314    2.7958    3.0274 H   0  0  0  0  0  0  0  0  0  0  0  0
    4.3501    1.7395    5.4270 H   0  0  0  0  0  0  0  0  0  0  0  0
    4.1527    0.2749    4.4062 H   0  0  0  0  0  0  0  0  0  0  0  0
    5.7231    1.1465    4.4323 H   0  0  0  0  0  0  0  0  0  0  0  0
 22 24  2  0  0  0  0
 24 26  1  0  0  0  0
 25 26  2  0  0  0  0
 23 25  1  0  0  0  0
 21 22  1  0  0  0  0
 22 23  1  0  0  0  0
  1  3  1  0  0  0  0
  1  7  1  0  0  0  0
  1  2  2  0  0  0  0
 35 36  1  0  0  0  0
 36 44  1  0  0  0  0
 36 37  2  0  0  0  0
  8  9  1  0  0  0  0
  9 17  1  0  0  0  0
  9 10  2  0  0  0  0
 18 19  1  0  0  0  0
 19 34  1  0  0  0  0
 19 20  2  0  0  0  0
 35 38  1  0  0  0  0
  8 11  1  0  0  0  0
 44 45  1  0  0  0  0
 18 21  1  0  0  0  0
 34 35  1  0  0  0  0
  7  8  1  0  0  0  0
 17 18  1  0  0  0  0
 24 32  1  0  0  0  0
 25 33  1  0  0  0  0
  3  4  1  0  0  0  0
  3  5  1  0  0  0  0
  3  6  1  0  0  0  0
 38 41  1  0  0  0  0
 38 42  1  0  0  0  0
 38 43  1  0  0  0  0
 11 14  1  0  0  0  0
 11 15  1  0  0  0  0
 11 16  1  0  0  0  0
 45 47  1  0  0  0  0
 45 48  1  0  0  0  0
 45 49  1  0  0  0  0
 21 29  1  0  0  0  0
 21 30  1  0  0  0  0
 35 40  1  0  0  0  0
  8 13  1  0  0  0  0
 18 28  1  0  0  0  0
 23 31  1  0  0  0  0
 44 46  1  0  0  0  0
  7 12  1  0  0  0  0
 34 39  1  0  0  0  0
 17 27  1  0  0  0  0
M  END
$$$$

  -OEChem-05262214473D

 49 49  0     1  0  0  0  0  0999 V2000
   -1.5619    0.5658    3.7981 C   0  0  0  0  0  0  0  0  0  0  0  0
   -0.6145   -0.0489    3.3224 O   0  0  0  0  0  0  0  0  0  0  0  0
   -1.9938    0.2834    5.1988 C   0  0  0  0  0  0  0  0  0  0  0  0
   -2.7535   -0.5129    5.2522 H   0  0  0  0  0  0  0  0  0  0  0  0
   -1.1626   -0.0642    5.8331 H   0  0  0  0  0  0  0  0  0  0  0  0
   -2.4318    1.1383    5.7384 H   0  0  0  0  0  0  0  0  0  0  0  0
   -2.3116    1.5383    3.1570 N   0  0  0  0  0  0  0  0  0  0  0  0
   -2.0648    1.9643    1.8046 C   0  0  2  0  0  0  0  0  0  0  0  0
   -0.7298    1.3789    1.3634 C   0  0  0  0  0  0  0  0  0  0  0  0
    0.1423    1.0262    2.1547 O   0  0  0  0  0  0  0  0  0  0  0  0
   -2.0560    3.4811    1.6952 C   0  0  0  0  0  0  0  0  0  0  0  0
   -3.0767    1.9741    3.6688 H   0  0  0  0  0  0  0  0  0  0  0  0
   -2.8689    1.5458    1.1895 H   0  0  0  0  0  0  0  0  0  0  0  0
   -1.2569    3.9183    2.3049 H   0  0  0  0  0  0  0  0  0  0  0  0
   -1.8965    3.8033    0.6609 H   0  0  0  0  0  0  0  0  0  0  0  0
   -3.0062    3.9023    2.0409 H   0  0  0  0  0  0  0  0  0  0  0  0
   -0.6071    1.3358   -0.0200 N   0  0  0  0  0  0  0  0  0  0  0  0
    0.5702    0.8350   -0.6836 C   0  0  2  0  0  0  0  0  0  0  0  0
    1.7566    1.1118    0.2328 C   0  0  0  0  0  0  0  0  0  0  0  0
    2.7748    0.4231    0.2358 O   0  0  0  0  0  0  0  0  0  0  0  0
    0.7881    1.4930   -2.0510 C   0  0  0  0  0  0  0  0  0  0  0  0
   -0.3176    1.1834   -3.0305 C   0  0  0  0  0  0  0  0  0  0  0  0
   -0.4406   -0.0299   -3.6469 N   0  0  0  0  0  0  0  0  0  0  0  0
   -1.3665    1.9308   -3.5118 C   0  0  0  0  0  0  0  0  0  0  0  0
   -1.5377    0.0331   -4.4604 C   0  0  0  0  0  0  0  0  0  0  0  0
   -2.1224    1.2089   -4.4012 N   0  0  0  0  0  0  0  0  0  0  0  0
   -1.3903    1.6325   -0.5973 H   0  0  0  0  0  0  0  0  0  0  0  0
    0.4369   -0.2489   -0.7807 H   0  0  0  0  0  0  0  0  0  0  0  0
    1.7534    1.1823   -2.4732 H   0  0  0  0  0  0  0  0  0  0  0  0
    0.8580    2.5837   -1.9450 H   0  0  0  0  0  0  0  0  0  0  0  0
    0.1674   -0.8294   -3.5266 H   0  0  0  0  0  0  0  0  0  0  0  0
   -1.6181    2.9523   -3.2645 H   0  0  0  0  0  0  0  0  0  0  0  0
   -1.8535   -0.8057   -5.0643 H   0  0  0  0  0  0  0  0  0  0  0  0
    1.5609    2.2465    1.0078 N   0  0  0  0  0  0  0  0  0  0  0  0
    2.5408    2.7457    1.9456 C   0  0  2  0  0  0  0  0  0  0  0  0
    2.9826    1.5847    2.8268 C   0  0  0  0  0  0  0  0  0  0  0  0
    2.3009    0.5765    2.9995 O   0  0  0  0  0  0  0  0  0  0  0  0
    1.9753    3.8807    2.7850 C   0  0  0  0  0  0  0  0  0  0  0  0
    0.6849    2.7514    0.9111 H   0  0  0  0  0  0  0  0  0  0  0  0
    3.3920    3.1008    1.3545 H   0  0  0  0  0  0  0  0  0  0  0  0
    1.1215    3.5439    3.3842 H   0  0  0  0  0  0  0  0  0  0  0  0
    2.7276    4.2768    3.4751 H   0  0  0  0  0  0  0  0  0  0  0  0
    1.6307    4.7024    2.1479 H   0  0  0  0  0  0  0  0  0  0  0  0
    4.2081    1.8258    3.4319 N   0  0  0  0  0  0  0  0  0  0  0  0
    4.8358    0.8804    4.3253 C   0  0  0  0  0  0  0  0  0  0  0  0
    4.7121    2.6810    3.2166 H   0  0  0  0  0  0  0  0  0  0  0  0
    4.5475    1.1079    5.3622 H   0  0  0  0  0  0  0  0  0  0  0  0
    4.5094   -0.1383    4.0692 H   0  0  0  0  0  0  0  0  0  0  0  0
    5.9289    0.9513    4.2249 H   0  0  0  0  0  0  0  0  0  0  0  0
 22 24  2  0  0  0  0
 24 26  1  0  0  0  0
 25 26  2  0  0  0  0
 23 25  1  0  0  0  0
 21 22  1  0  0  0  0
 22 23  1  0  0  0  0
  1  3  1  0  0  0  0
  1  7  1  0  0  0  0
  1  2  2  0  0  0  0
 35 36  1  0  0  0  0
 36 44  1  0  0  0  0
 36 37  2  0  0  0  0
  8  9  1  0  0  0  0
  9 17  1  0  0  0  0
  9 10  2  0  0  0  0
 18 19  1  0  0  0  0
 19 34  1  0  0  0  0
 19 20  2  0  0  0  0
 35 38  1  0  0  0  0
  8 11  1  0  0  0  0
 44 45  1  0  0  0  0
 18 21  1  0  0  0  0
 34 35  1  0  0  0  0
  7  8  1  0  0  0  0
 17 18  1  0  0  0  0
 24 32  1  0  0  0  0
 25 33  1  0  0  0  0
  3  4  1  0  0  0  0
  3  5  1  0  0  0  0
  3  6  1  0  0  0  0
 38 41  1  0  0  0  0
 38 42  1  0  0  0  0
 38 43  1  0  0  0  0
 11 14  1  0  0  0  0
 11 15  1  0  0  0  0
 11 16  1  0  0  0  0
 45 47  1  0  0  0  0
 45 48  1  0  0  0  0
 45 49  1  0  0  0  0
 21 29  1  0  0  0  0
 21 30  1  0  0  0  0
 35 40  1  0  0  0  0
  8 13  1  0  0  0  0
 18 28  1  0  0  0  0
 23 31  1  0  0  0  0
 44 46  1  0  0  0  0
  7 12  1  0  0  0  0
 34 39  1  0  0  0  0
 17 27  1  0  0  0  0
M  END
$$$$

  -OEChem-05262214473D

 49 49  0     1  0  0  0  0  0999 V2000
   -1.5619    0.5658    3.7981 C   0  0  0  0  0  0  0  0  0  0  0  0
   -0.6145   -0.0489    3.3224 O   0  0  0  0  0  0  0  0  0  0  0  0
   -1.9938    0.2834    5.1988 C   0  0  0  0  0  0  0  0  0  0  0  0
   -2.7535   -0.5129    5.2522 H   0  0  0  0  0  0  0  0  0  0  0  0
   -1.1626   -0.0642    5.8331 H   0  0  0  0  0  0  0  0  0  0  0  0
   -2.4318    1.1383    5.7384 H   0  0  0  0  0  0  0  0  0  0  0  0
   -2.3116    1.5383    3.1570 N   0  0  0  0  0  0  0  0  0  0  0  0
   -2.0648    1.9643    1.8046 C   0  0  2  0  0  0  0  0  0  0  0  0
   -0.7298    1.3789    1.3634 C   0  0  0  0  0  0  0  0  0  0  0  0
    0.1423    1.0262    2.1547 O   0  0  0  0  0  0  0  0  0  0  0  0
   -2.0560    3.4811    1.6952 C   0  0  0  0  0  0  0  0  0  0  0  0
   -3.0767    1.9741    3.6688 H   0  0  0  0  0  0  0  0  0  0  0  0
   -2.8689    1.5458    1.1895 H   0  0  0  0  0  0  0  0  0  0  0  0
   -1.2569    3.9183    2.3049 H   0  0  0  0  0  0  0  0  0  0  0  0
   -1.8965    3.8033    0.6609 H   0  0  0  0  0  0  0  0  0  0  0  0
   -3.0062    3.9023    2.0409 H   0  0  0  0  0  0  0  0  0  0  0  0
   -0.6071    1.3358   -0.0200 N   0  0  0  0  0  0  0  0  0  0  0  0
    0.5702    0.8350   -0.6836 C   0  0  2  0  0  0  0  0  0  0  0  0
    1.7566    1.1118    0.2328 C   0  0  0  0  0  0  0  0  0  0  0  0
    2.8651    0.6086    0.0628 O   0  0  0  0  0  0  0  0  0  0  0  0
    0.7881    1.4930   -2.0510 C   0  0  0  0  0  0  0  0  0  0  0  0
   -0.3176    1.1834   -3.0305 C   0  0  0  0  0  0  0  0  0  0  0  0
   -0.4406   -0.0299   -3.6469 N   0  0  0  0  0  0  0  0  0  0  0  0
   -1.3665    1.9308   -3.5118 C   0  0  0  0  0  0  0  0  0  0  0  0
   -1.5377    0.0331   -4.4604 C   0  0  0  0  0  0  0  0  0  0  0  0
   -2.1224    1.2089   -4.4012 N   0  0  0  0  0  0  0  0  0  0  0  0
   -1.3903    1.6325   -0.5973 H   0  0  0  0  0  0  0  0  0  0  0  0
    0.4369   -0.2489   -0.7807 H   0  0  0  0  0  0  0  0  0  0  0  0
    1.7534    1.1823   -2.4732 H   0  0  0  0  0  0  0  0  0  0  0  0
    0.8580    2.5837   -1.9450 H   0  0  0  0  0  0  0  0  0  0  0  0
    0.1674   -0.8294   -3.5266 H   0  0  0  0  0  0  0  0  0  0  0  0
   -1.6181    2.9523   -3.2645 H   0  0  0  0  0  0  0  0  0  0  0  0
   -1.8535   -0.8057   -5.0643 H   0  0  0  0  0  0  0  0  0  0  0  0
    1.4412    2.0245    1.2298 N   0  0  0  0  0  0  0  0  0  0  0  0
    2.3917    2.4790    2.2192 C   0  0  2  0  0  0  0  0  0  0  0  0
    3.0580    1.2529    2.8293 C   0  0  0  0  0  0  0  0  0  0  0  0
    2.5485    0.1344    2.8126 O   0  0  0  0  0  0  0  0  0  0  0  0
    1.7155    3.3200    3.2907 C   0  0  0  0  0  0  0  0  0  0  0  0
    0.4947    2.3914    1.2660 H   0  0  0  0  0  0  0  0  0  0  0  0
    3.1407    3.0758    1.6874 H   0  0  0  0  0  0  0  0  0  0  0  0
    0.9617    2.7388    3.8343 H   0  0  0  0  0  0  0  0  0  0  0  0
    2.4414    3.6872    4.0236 H   0  0  0  0  0  0  0  0  0  0  0  0
    1.2116    4.1853    2.8467 H   0  0  0  0  0  0  0  0  0  0  0  0
    4.2688    1.5630    3.4326 N   0  0  0  0  0  0  0  0  0  0  0  0
    5.0869    0.5728    4.0932 C   0  0  0  0  0  0  0  0  0  0  0  0
    4.6236    2.5134    3.3818 H   0  0  0  0  0  0  0  0  0  0  0  0
    4.8334    0.5416    5.1631 H   0  0  0  0  0  0  0  0  0  0  0  0
    4.9023   -0.4141    3.6438 H   0  0  0  0  0  0  0  0  0  0  0  0
    6.1483    0.8365    3.9755 H   0  0  0  0  0  0  0  0  0  0  0  0
 22 24  2  0  0  0  0
 24 26  1  0  0  0  0
 25 26  2  0  0  0  0
 23 25  1  0  0  0  0
 21 22  1  0  0  0  0
 22 23  1  0  0  0  0
  1  3  1  0  0  0  0
  1  7  1  0  0  0  0
  1  2  2  0  0  0  0
 35 36  1  0  0  0  0
 36 44  1  0  0  0  0
 36 37  2  0  0  0  0
  8  9  1  0  0  0  0
  9 17  1  0  0  0  0
  9 10  2  0  0  0  0
 18 19  1  0  0  0  0
 19 34  1  0  0  0  0
 19 20  2  0  0  0  0
 35 38  1  0  0  0  0
  8 11  1  0  0  0  0
 44 45  1  0  0  0  0
 18 21  1  0  0  0  0
 34 35  1  0  0  0  0
  7  8  1  0  0  0  0
 17 18  1  0  0  0  0
 24 32  1  0  0  0  0
 25 33  1  0  0  0  0
  3  4  1  0  0  0  0
  3  5  1  0  0  0  0
  3  6  1  0  0  0  0
 38 41  1  0  0  0  0
 38 42  1  0  0  0  0
 38 43  1  0  0  0  0
 11 14  1  0  0  0  0
 11 15  1  0  0  0  0
 11 16  1  0  0  0  0
 45 47  1  0  0  0  0
 45 48  1  0  0  0  0
 45 49  1  0  0  0  0
 21 29  1  0  0  0  0
 21 30  1  0  0  0  0
 35 40  1  0  0  0  0
  8 13  1  0  0  0  0
 18 28  1  0  0  0  0
 23 31  1  0  0  0  0
 44 46  1  0  0  0  0
  7 12  1  0  0  0  0
 34 39  1  0  0  0  0
 17 27  1  0  0  0  0
M  END
$$$$

  -OEChem-05262214473D

 49 49  0     1  0  0  0  0  0999 V2000
   -1.5619    0.5658    3.7981 C   0  0  0  0  0  0  0  0  0  0  0  0
   -0.6145   -0.0489    3.3224 O   0  0  0  0  0  0  0  0  0  0  0  0
   -1.9938    0.2834    5.1988 C   0  0  0  0  0  0  0  0  0  0  0  0
   -2.7535   -0.5129    5.2522 H   0  0  0  0  0  0  0  0  0  0  0  0
   -1.1626   -0.0642    5.8331 H   0  0  0  0  0  0  0  0  0  0  0  0
   -2.4318    1.1383    5.7384 H   0  0  0  0  0  0  0  0  0  0  0  0
   -2.3116    1.5383    3.1570 N   0  0  0  0  0  0  0  0  0  0  0  0
   -2.0648    1.9643    1.8046 C   0  0  2  0  0  0  0  0  0  0  0  0
   -0.7298    1.3789    1.3634 C   0  0  0  0  0  0  0  0  0  0  0  0
    0.1423    1.0262    2.1547 O   0  0  0  0  0  0  0  0  0  0  0  0
   -2.0560    3.4811    1.6952 C   0  0  0  0  0  0  0  0  0  0  0  0
   -3.0767    1.9741    3.6688 H   0  0  0  0  0  0  0  0  0  0  0  0
   -2.8689    1.5458    1.1895 H   0  0  0  0  0  0  0  0  0  0  0  0
   -1.2569    3.9183    2.3049 H   0  0  0  0  0  0  0  0  0  0  0  0
   -1.8965    3.8033    0.6609 H   0  0  0  0  0  0  0  0  0  0  0  0
   -3.0062    3.9023    2.0409 H   0  0  0  0  0  0  0  0  0  0  0  0
   -0.6071    1.3358   -0.0200 N   0  0  0  0  0  0  0  0  0  0  0  0
    0.5702    0.8350   -0.6836 C   0  0  2  0  0  0  0  0  0  0  0  0
    1.7566    1.1118    0.2328 C   0  0  0  0  0  0  0  0  0  0  0  0
    2.9154    0.8365   -0.0712 O   0  0  0  0  0  0  0  0  0  0  0  0
    0.7881    1.4930   -2.0510 C   0  0  0  0  0  0  0  0  0  0  0  0
   -0.3176    1.1834   -3.0305 C   0  0  0  0  0  0  0  0  0  0  0  0
   -0.4406   -0.0299   -3.6469 N   0  0  0  0  0  0  0  0  0  0  0  0
   -1.3665    1.9308   -3.5118 C   0  0  0  0  0  0  0  0  0  0  0  0
   -1.5377    0.0331   -4.4604 C   0  0  0  0  0  0  0  0  0  0  0  0
   -2.1224    1.2089   -4.4012 N   0  0  0  0  0  0  0  0  0  0  0  0
   -1.3903    1.6325   -0.5973 H   0  0  0  0  0  0  0  0  0  0  0  0
    0.4369   -0.2489   -0.7807 H   0  0  0  0  0  0  0  0  0  0  0  0
    1.7534    1.1823   -2.4732 H   0  0  0  0  0  0  0  0  0  0  0  0
    0.8580    2.5837   -1.9450 H   0  0  0  0  0  0  0  0  0  0  0  0
    0.1674   -0.8294   -3.5266 H   0  0  0  0  0  0  0  0  0  0  0  0
   -1.6181    2.9523   -3.2645 H   0  0  0  0  0  0  0  0  0  0  0  0
   -1.8535   -0.8057   -5.0643 H   0  0  0  0  0  0  0  0  0  0  0  0
    1.3706    1.7467    1.4051 N   0  0  0  0  0  0  0  0  0  0  0  0
    2.3020    2.1431    2.4367 C   0  0  2  0  0  0  0  0  0  0  0  0
    3.1827    0.9437    2.7613 C   0  0  0  0  0  0  0  0  0  0  0  0
    2.8475   -0.2164    2.5313 O   0  0  0  0  0  0  0  0  0  0  0  0
    1.5756    2.6360    3.6784 C   0  0  0  0  0  0  0  0  0  0  0  0
    0.3838    1.9425    1.5452 H   0  0  0  0  0  0  0  0  0  0  0  0
    2.9176    2.9455    2.0156 H   0  0  0  0  0  0  0  0  0  0  0  0
    0.9537    1.8457    4.1144 H   0  0  0  0  0  0  0  0  0  0  0  0
    2.2825    2.9627    4.4482 H   0  0  0  0  0  0  0  0  0  0  0  0
    0.9200    3.4798    3.4373 H   0  0  0  0  0  0  0  0  0  0  0  0
    4.3684    1.3184    3.3776 N   0  0  0  0  0  0  0  0  0  0  0  0
    5.3663    0.3615    3.7952 C   0  0  0  0  0  0  0  0  0  0  0  0
    4.5719    2.3045    3.5118 H   0  0  0  0  0  0  0  0  0  0  0  0
    5.1883    0.0791    4.8433 H   0  0  0  0  0  0  0  0  0  0  0  0
    5.3048   -0.5337    3.1589 H   0  0  0  0  0  0  0  0  0  0  0  0
    6.3663    0.8101    3.7013 H   0  0  0  0  0  0  0  0  0  0  0  0
 22 24  2  0  0  0  0
 24 26  1  0  0  0  0
 25 26  2  0  0  0  0
 23 25  1  0  0  0  0
 21 22  1  0  0  0  0
 22 23  1  0  0  0  0
  1  3  1  0  0  0  0
  1  7  1  0  0  0  0
  1  2  2  0  0  0  0
 35 36  1  0  0  0  0
 36 44  1  0  0  0  0
 36 37  2  0  0  0  0
  8  9  1  0  0  0  0
  9 17  1  0  0  0  0
  9 10  2  0  0  0  0
 18 19  1  0  0  0  0
 19 34  1  0  0  0  0
 19 20  2  0  0  0  0
 35 38  1  0  0  0  0
  8 11  1  0  0  0  0
 44 45  1  0  0  0  0
 18 21  1  0  0  0  0
 34 35  1  0  0  0  0
  7  8  1  0  0  0  0
 17 18  1  0  0  0  0
 24 32  1  0  0  0  0
 25 33  1  0  0  0  0
  3  4  1  0  0  0  0
  3  5  1  0  0  0  0
  3  6  1  0  0  0  0
 38 41  1  0  0  0  0
 38 42  1  0  0  0  0
 38 43  1  0  0  0  0
 11 14  1  0  0  0  0
 11 15  1  0  0  0  0
 11 16  1  0  0  0  0
 45 47  1  0  0  0  0
 45 48  1  0  0  0  0
 45 49  1  0  0  0  0
 21 29  1  0  0  0  0
 21 30  1  0  0  0  0
 35 40  1  0  0  0  0
  8 13  1  0  0  0  0
 18 28  1  0  0  0  0
 23 31  1  0  0  0  0
 44 46  1  0  0  0  0
  7 12  1  0  0  0  0
 34 39  1  0  0  0  0
 17 27  1  0  0  0  0
M  END
$$$$

  -OEChem-05262214473D

 49 49  0     1  0  0  0  0  0999 V2000
   -1.5619    0.5658    3.7981 C   0  0  0  0  0  0  0  0  0  0  0  0
   -0.6145   -0.0489    3.3224 O   0  0  0  0  0  0  0  0  0  0  0  0
   -1.9938    0.2834    5.1988 C   0  0  0  0  0  0  0  0  0  0  0  0
   -2.7535   -0.5129    5.2522 H   0  0  0  0  0  0  0  0  0  0  0  0
   -1.1626   -0.0642    5.8331 H   0  0  0  0  0  0  0  0  0  0  0  0
   -2.4318    1.1383    5.7384 H   0  0  0  0  0  0  0  0  0  0  0  0
   -2.3116    1.5383    3.1570 N   0  0  0  0  0  0  0  0  0  0  0  0
   -2.0648    1.9643    1.8046 C   0  0  2  0  0  0  0  0  0  0  0  0
   -0.7298    1.3789    1.3634 C   0  0  0  0  0  0  0  0  0  0  0  0
    0.1423    1.0262    2.1547 O   0  0  0  0  0  0  0  0  0  0  0  0
   -2.0560    3.4811    1.6952 C   0  0  0  0  0  0  0  0  0  0  0  0
   -3.0767    1.9741    3.6688 H   0  0  0  0  0  0  0  0  0  0  0  0
   -2.8689    1.5458    1.1895 H   0  0  0  0  0  0  0  0  0  0  0  0
   -1.2569    3.9183    2.3049 H   0  0  0  0  0  0  0  0  0  0  0  0
   -1.8965    3.8033    0.6609 H   0  0  0  0  0  0  0  0  0  0  0  0
   -3.0062    3.9023    2.0409 H   0  0  0  0  0  0  0  0  0  0  0  0
   -0.6071    1.3358   -0.0200 N   0  0  0  0  0  0  0  0  0  0  0  0
    0.5702    0.8350   -0.6836 C   0  0  2  0  0  0  0  0  0  0  0  0
    1.7566    1.1118    0.2328 C   0  0  0  0  0  0  0  0  0  0  0  0
    2.9222    1.0916   -0.1570 O   0  0  0  0  0  0  0  0  0  0  0  0
    0.7881    1.4930   -2.0510 C   0  0  0  0  0  0  0  0  0  0  0  0
   -0.3176    1.1834   -3.0305 C   0  0  0  0  0  0  0  0  0  0  0  0
   -0.4406   -0.0299   -3.6469 N   0  0  0  0  0  0  0  0  0  0  0  0
   -1.3665    1.9308   -3.5118 C   0  0  0  0  0  0  0  0  0  0  0  0
   -1.5377    0.0331   -4.4604 C   0  0  0  0  0  0  0  0  0  0  0  0
   -2.1224    1.2089   -4.4012 N   0  0  0  0  0  0  0  0  0  0  0  0
   -1.3903    1.6325   -0.5973 H   0  0  0  0  0  0  0  0  0  0  0  0
    0.4369   -0.2489   -0.7807 H   0  0  0  0  0  0  0  0  0  0  0  0
    1.7534    1.1823   -2.4732 H   0  0  0  0  0  0  0  0  0  0  0  0
    0.8580    2.5837   -1.9450 H   0  0  0  0  0  0  0  0  0  0  0  0
    0.1674   -0.8294   -3.5266 H   0  0  0  0  0  0  0  0  0  0  0  0
   -1.6181    2.9523   -3.2645 H   0  0  0  0  0  0  0  0  0  0  0  0
   -1.8535   -0.8057   -5.0643 H   0  0  0  0  0  0  0  0  0  0  0  0
    1.3539    1.4321    1.5219 N   0  0  0  0  0  0  0  0  0  0  0  0
    2.2779    1.7609    2.5834 C   0  0  2  0  0  0  0  0  0  0  0  0
    3.3480    0.6781    2.6276 C   0  0  0  0  0  0  0  0  0  0  0  0
    3.1778   -0.4521    2.1750 O   0  0  0  0  0  0  0  0  0  0  0  0
    1.5651    1.8755    3.9218 C   0  0  0  0  0  0  0  0  0  0  0  0
    0.3596    1.4355    1.7297 H   0  0  0  0  0  0  0  0  0  0  0  0
    2.7377    2.7188    2.3170 H   0  0  0  0  0  0  0  0  0  0  0  0
    1.0981    0.9253    4.2054 H   0  0  0  0  0  0  0  0  0  0  0  0
    2.2617    2.1527    4.7199 H   0  0  0  0  0  0  0  0  0  0  0  0
    0.7759    2.6340    3.8793 H   0  0  0  0  0  0  0  0  0  0  0  0
    4.5001    1.1088    3.2704 N   0  0  0  0  0  0  0  0  0  0  0  0
    5.6552    0.2609    3.4517 C   0  0  0  0  0  0  0  0  0  0  0  0
    4.5606    2.0685    3.5977 H   0  0  0  0  0  0  0  0  0  0  0  0
    5.5880   -0.2480    4.4246 H   0  0  0  0  0  0  0  0  0  0  0  0
    5.6893   -0.4888    2.6475 H   0  0  0  0  0  0  0  0  0  0  0  0
    6.5682    0.8737    3.4207 H   0  0  0  0  0  0  0  0  0  0  0  0
 22 24  2  0  0  0  0
 24 26  1  0  0  0  0
 25 26  2  0  0  0  0
 23 25  1  0  0  0  0
 21 22  1  0  0  0  0
 22 23  1  0  0  0  0
  1  3  1  0  0  0  0
  1  7  1  0  0  0  0
  1  2  2  0  0  0  0
 35 36  1  0  0  0  0
 36 44  1  0  0  0  0
 36 37  2  0  0  0  0
  8  9  1  0  0  0  0
  9 17  1  0  0  0  0
  9 10  2  0  0  0  0
 18 19  1  0  0  0  0
 19 34  1  0  0  0  0
 19 20  2  0  0  0  0
 35 38  1  0  0  0  0
  8 11  1  0  0  0  0
 44 45  1  0  0  0  0
 18 21  1  0  0  0  0
 34 35  1  0  0  0  0
  7  8  1  0  0  0  0
 17 18  1  0  0  0  0
 24 32  1  0  0  0  0
 25 33  1  0  0  0  0
  3  4  1  0  0  0  0
  3  5  1  0  0  0  0
  3  6  1  0  0  0  0
 38 41  1  0  0  0  0
 38 42  1  0  0  0  0
 38 43  1  0  0  0  0
 11 14  1  0  0  0  0
 11 15  1  0  0  0  0
 11 16  1  0  0  0  0
 45 47  1  0  0  0  0
 45 48  1  0  0  0  0
 45 49  1  0  0  0  0
 21 29  1  0  0  0  0
 21 30  1  0  0  0  0
 35 40  1  0  0  0  0
  8 13  1  0  0  0  0
 18 28  1  0  0  0  0
 23 31  1  0  0  0  0
 44 46  1  0  0  0  0
  7 12  1  0  0  0  0
 34 39  1  0  0  0  0
 17 27  1  0  0  0  0
M  END
$$$$

  -OEChem-05262214473D

 49 49  0     1  0  0  0  0  0999 V2000
   -1.5619    0.5658    3.7981 C   0  0  0  0  0  0  0  0  0  0  0  0
   -0.6145   -0.0489    3.3224 O   0  0  0  0  0  0  0  0  0  0  0  0
   -1.9938    0.2834    5.1988 C   0  0  0  0  0  0  0  0  0  0  0  0
   -2.7535   -0.5129    5.2522 H   0  0  0  0  0  0  0  0  0  0  0  0
   -1.1626   -0.0642    5.8331 H   0  0  0  0  0  0  0  0  0  0  0  0
   -2.4318    1.1383    5.7384 H   0  0  0  0  0  0  0  0  0  0  0  0
   -2.3116    1.5383    3.1570 N   0  0  0  0  0  0  0  0  0  0  0  0
   -2.0648    1.9643    1.8046 C   0  0  2  0  0  0  0  0  0  0  0  0
   -0.7298    1.3789    1.3634 C   0  0  0  0  0  0  0  0  0  0  0  0
    0.1423    1.0262    2.1547 O   0  0  0  0  0  0  0  0  0  0  0  0
   -2.0560    3.4811    1.6952 C   0  0  0  0  0  0  0  0  0  0  0  0
   -3.0767    1.9741    3.6688 H   0  0  0  0  0  0  0  0  0  0  0  0
   -2.8689    1.5458    1.1895 H   0  0  0  0  0  0  0  0  0  0  0  0
   -1.2569    3.9183    2.3049 H   0  0  0  0  0  0  0  0  0  0  0  0
   -1.8965    3.8033    0.6609 H   0  0  0  0  0  0  0  0  0  0  0  0
   -3.0062    3.9023    2.0409 H   0  0  0  0  0  0  0  0  0  0  0  0
   -0.6071    1.3358   -0.0200 N   0  0  0  0  0  0  0  0  0  0  0  0
    0.5702    0.8350   -0.6836 C   0  0  2  0  0  0  0  0  0  0  0  0
    1.7566    1.1118    0.2328 C   0  0  0  0  0  0  0  0  0  0  0  0
    2.8851    1.3563   -0.1889 O   0  0  0  0  0  0  0  0  0  0  0  0
    0.7881    1.4930   -2.0510 C   0  0  0  0  0  0  0  0  0  0  0  0
   -0.3176    1.1834   -3.0305 C   0  0  0  0  0  0  0  0  0  0  0  0
   -0.4406   -0.0299   -3.6469 N   0  0  0  0  0  0  0  0  0  0  0  0
   -1.3665    1.9308   -3.5118 C   0  0  0  0  0  0  0  0  0  0  0  0
   -1.5377    0.0331   -4.4604 C   0  0  0  0  0  0  0  0  0  0  0  0
   -2.1224    1.2089   -4.4012 N   0  0  0  0  0  0  0  0  0  0  0  0
   -1.3903    1.6325   -0.5973 H   0  0  0  0  0  0  0  0  0  0  0  0
    0.4369   -0.2489   -0.7807 H   0  0  0  0  0  0  0  0  0  0  0  0
    1.7534    1.1823   -2.4732 H   0  0  0  0  0  0  0  0  0  0  0  0
    0.8580    2.5837   -1.9450 H   0  0  0  0  0  0  0  0  0  0  0  0
    0.1674   -0.8294   -3.5266 H   0  0  0  0  0  0  0  0  0  0  0  0
   -1.6181    2.9523   -3.2645 H   0  0  0  0  0  0  0  0  0  0  0  0
   -1.8535   -0.8057   -5.0643 H   0  0  0  0  0  0  0  0  0  0  0  0
    1.3921    1.1020    1.5720 N   0  0  0  0  0  0  0  0  0  0  0  0
    2.3210    1.3584    2.6492 C   0  0  2  0  0  0  0  0  0  0  0  0
    3.5427    0.4741    2.4370 C   0  0  0  0  0  0  0  0  0  0  0  0
    3.5167   -0.5566    1.7677 O   0  0  0  0  0  0  0  0  0  0  0  0
    1.6846    1.0903    4.0041 C   0  0  0  0  0  0  0  0  0  0  0  0
    0.4238    0.9048    1.8069 H   0  0  0  0  0  0  0  0  0  0  0  0
    2.6134    2.4112    2.5708 H   0  0  0  0  0  0  0  0  0  0  0  0
    1.3851    0.0404    4.1011 H   0  0  0  0  0  0  0  0  0  0  0  0
    2.3803    1.3123    4.8201 H   0  0  0  0  0  0  0  0  0  0  0  0
    0.7891    1.7056    4.1427 H   0  0  0  0  0  0  0  0  0  0  0  0
    4.6549    0.9484    3.1185 N   0  0  0  0  0  0  0  0  0  0  0  0
    5.9336    0.2779    3.0860 C   0  0  0  0  0  0  0  0  0  0  0  0
    4.5905    1.8215    3.6336 H   0  0  0  0  0  0  0  0  0  0  0  0
    6.0054   -0.4174    3.9354 H   0  0  0  0  0  0  0  0  0  0  0  0
    6.0298   -0.2827    2.1445 H   0  0  0  0  0  0  0  0  0  0  0  0
    6.7400    1.0230    3.1531 H   0  0  0  0  0  0  0  0  0  0  0  0
 22 24  2  0  0  0  0
 24 26  1  0  0  0  0
 25 26  2  0  0  0  0
 23 25  1  0  0  0  0
 21 22  1  0  0  0  0
 22 23  1  0  0  0  0
  1  3  1  0  0  0  0
  1  7  1  0  0  0  0
  1  2  2  0  0  0  0
 35 36  1  0  0  0  0
 36 44  1  0  0  0  0
 36 37  2  0  0  0  0
  8  9  1  0  0  0  0
  9 17  1  0  0  0  0
  9 10  2  0  0  0  0
 18 19  1  0  0  0  0
 19 34  1  0  0  0  0
 19 20  2  0  0  0  0
 35 38  1  0  0  0  0
  8 11  1  0  0  0  0
 44 45  1  0  0  0  0
 18 21  1  0  0  0  0
 34 35  1  0  0  0  0
  7  8  1  0  0  0  0
 17 18  1  0  0  0  0
 24 32  1  0  0  0  0
 25 33  1  0  0  0  0
  3  4  1  0  0  0  0
  3  5  1  0  0  0  0
  3  6  1  0  0  0  0
 38 41  1  0  0  0  0
 38 42  1  0  0  0  0
 38 43  1  0  0  0  0
 11 14  1  0  0  0  0
 11 15  1  0  0  0  0
 11 16  1  0  0  0  0
 45 47  1  0  0  0  0
 45 48  1  0  0  0  0
 45 49  1  0  0  0  0
 21 29  1  0  0  0  0
 21 30  1  0  0  0  0
 35 40  1  0  0  0  0
  8 13  1  0  0  0  0
 18 28  1  0  0  0  0
 23 31  1  0  0  0  0
 44 46  1  0  0  0  0
  7 12  1  0  0  0  0
 34 39  1  0  0  0  0
 17 27  1  0  0  0  0
M  END
$$$$

  -OEChem-05262214473D

 49 49  0     1  0  0  0  0  0999 V2000
   -1.5619    0.5658    3.7981 C   0  0  0  0  0  0  0  0  0  0  0  0
   -0.6145   -0.0489    3.3224 O   0  0  0  0  0  0  0  0  0  0  0  0
   -1.9938    0.2834    5.1988 C   0  0  0  0  0  0  0  0  0  0  0  0
   -2.7535   -0.5129    5.2522 H   0  0  0  0  0  0  0  0  0  0  0  0
   -1.1626   -0.0642    5.8331 H   0  0  0  0  0  0  0  0  0  0  0  0
   -2.4318    1.1383    5.7384 H   0  0  0  0  0  0  0  0  0  0  0  0
   -2.3116    1.5383    3.1570 N   0  0  0  0  0  0  0  0  0  0  0  0
   -2.0648    1.9643    1.8046 C   0  0  2  0  0  0  0  0  0  0  0  0
   -0.7298    1.3789    1.3634 C   0  0  0  0  0  0  0  0  0  0  0  0
    0.1423    1.0262    2.1547 O   0  0  0  0  0  0  0  0  0  0  0  0
   -2.0560    3.4811    1.6952 C   0  0  0  0  0  0  0  0  0  0  0  0
   -3.0767    1.9741    3.6688 H   0  0  0  0  0  0  0  0  0  0  0  0
   -2.8689    1.5458    1.1895 H   0  0  0  0  0  0  0  0  0  0  0  0
   -1.2569    3.9183    2.3049 H   0  0  0  0  0  0  0  0  0  0  0  0
   -1.8965    3.8033    0.6609 H   0  0  0  0  0  0  0  0  0  0  0  0
   -3.0062    3.9023    2.0409 H   0  0  0  0  0  0  0  0  0  0  0  0
   -0.6071    1.3358   -0.0200 N   0  0  0  0  0  0  0  0  0  0  0  0
    0.5702    0.8350   -0.6836 C   0  0  2  0  0  0  0  0  0  0  0  0
    1.7566    1.1118    0.2328 C   0  0  0  0  0  0  0  0  0  0  0  0
    2.8065    1.6126   -0.1646 O   0  0  0  0  0  0  0  0  0  0  0  0
    0.7881    1.4930   -2.0510 C   0  0  0  0  0  0  0  0  0  0  0  0
   -0.3176    1.1834   -3.0305 C   0  0  0  0  0  0  0  0  0  0  0  0
   -0.4406   -0.0299   -3.6469 N   0  0  0  0  0  0  0  0  0  0  0  0
   -1.3665    1.9308   -3.5118 C   0  0  0  0  0  0  0  0  0  0  0  0
   -1.5377    0.0331   -4.4604 C   0  0  0  0  0  0  0  0  0  0  0  0
   -2.1224    1.2089   -4.4012 N   0  0  0  0  0  0  0  0  0  0  0  0
   -1.3903    1.6325   -0.5973 H   0  0  0  0  0  0  0  0  0  0  0  0
    0.4369   -0.2489   -0.7807 H   0  0  0  0  0  0  0  0  0  0  0  0
    1.7534    1.1823   -2.4732 H   0  0  0  0  0  0  0  0  0  0  0  0
    0.8580    2.5837   -1.9450 H   0  0  0  0  0  0  0  0  0  0  0  0
    0.1674   -0.8294   -3.5266 H   0  0  0  0  0  0  0  0  0  0  0  0
   -1.6181    2.9523   -3.2645 H   0  0  0  0  0  0  0  0  0  0  0  0
   -1.8535   -0.8057   -5.0643 H   0  0  0  0  0  0  0  0  0  0  0  0
    1.4828    0.7791    1.5522 N   0  0  0  0  0  0  0  0  0  0  0  0
    2.4283    0.9630    2.6296 C   0  0  2  0  0  0  0  0  0  0  0  0
    3.7536    0.3458    2.2028 C   0  0  0  0  0  0  0  0  0  0  0  0
    3.8412   -0.5228    1.3374 O   0  0  0  0  0  0  0  0  0  0  0  0
    1.9262    0.3338    3.9199 C   0  0  0  0  0  0  0  0  0  0  0  0
    0.5719    0.3866    1.7715 H   0  0  0  0  0  0  0  0  0  0  0  0
    2.5531    2.0435    2.7599 H   0  0  0  0  0  0  0  0  0  0  0  0
    1.7951   -0.7487    3.8087 H   0  0  0  0  0  0  0  0  0  0  0  0
    2.6304    0.4987    4.7420 H   0  0  0  0  0  0  0  0  0  0  0  0
    0.9586    0.7578    4.2094 H   0  0  0  0  0  0  0  0  0  0  0  0
    4.8222    0.8481    2.9322 N   0  0  0  0  0  0  0  0  0  0  0  0
    6.1828    0.4112    2.7232 C   0  0  0  0  0  0  0  0  0  0  0  0
    4.6594    1.5803    3.6172 H   0  0  0  0  0  0  0  0  0  0  0  0
    6.4119   -0.4175    3.4092 H   0  0  0  0  0  0  0  0  0  0  0  0
    6.3029    0.0707    1.6841 H   0  0  0  0  0  0  0  0  0  0  0  0
    6.8703    1.2479    2.9166 H   0  0  0  0  0  0  0  0  0  0  0  0
 22 24  2  0  0  0  0
 24 26  1  0  0  0  0
 25 26  2  0  0  0  0
 23 25  1  0  0  0  0
 21 22  1  0  0  0  0
 22 23  1  0  0  0  0
  1  3  1  0  0  0  0
  1  7  1  0  0  0  0
  1  2  2  0  0  0  0
 35 36  1  0  0  0  0
 36 44  1  0  0  0  0
 36 37  2  0  0  0  0
  8  9  1  0  0  0  0
  9 17  1  0  0  0  0
  9 10  2  0  0  0  0
 18 19  1  0  0  0  0
 19 34  1  0  0  0  0
 19 20  2  0  0  0  0
 35 38  1  0  0  0  0
  8 11  1  0  0  0  0
 44 45  1  0  0  0  0
 18 21  1  0  0  0  0
 34 35  1  0  0  0  0
  7  8  1  0  0  0  0
 17 18  1  0  0  0  0
 24 32  1  0  0  0  0
 25 33  1  0  0  0  0
  3  4  1  0  0  0  0
  3  5  1  0  0  0  0
  3  6  1  0  0  0  0
 38 41  1  0  0  0  0
 38 42  1  0  0  0  0
 38 43  1  0  0  0  0
 11 14  1  0  0  0  0
 11 15  1  0  0  0  0
 11 16  1  0  0  0  0
 45 47  1  0  0  0  0
 45 48  1  0  0  0  0
 45 49  1  0  0  0  0
 21 29  1  0  0  0  0
 21 30  1  0  0  0  0
 35 40  1  0  0  0  0
  8 13  1  0  0  0  0
 18 28  1  0  0  0  0
 23 31  1  0  0  0  0
 44 46  1  0  0  0  0
  7 12  1  0  0  0  0
 34 39  1  0  0  0  0
 17 27  1  0  0  0  0
M  END
$$$$

  -OEChem-05262214473D

 49 49  0     1  0  0  0  0  0999 V2000
   -1.5619    0.5658    3.7981 C   0  0  0  0  0  0  0  0  0  0  0  0
   -0.6145   -0.0489    3.3224 O   0  0  0  0  0  0  0  0  0  0  0  0
   -1.9938    0.2834    5.1988 C   0  0  0  0  0  0  0  0  0  0  0  0
   -2.7535   -0.5129    5.2522 H   0  0  0  0  0  0  0  0  0  0  0  0
   -1.1626   -0.0642    5.8331 H   0  0  0  0  0  0  0  0  0  0  0  0
   -2.4318    1.1383    5.7384 H   0  0  0  0  0  0  0  0  0  0  0  0
   -2.3116    1.5383    3.1570 N   0  0  0  0  0  0  0  0  0  0  0  0
   -2.0648    1.9643    1.8046 C   0  0  2  0  0  0  0  0  0  0  0  0
   -0.7298    1.3789    1.3634 C   0  0  0  0  0  0  0  0  0  0  0  0
    0.1423    1.0262    2.1547 O   0  0  0  0  0  0  0  0  0  0  0  0
   -2.0560    3.4811    1.6952 C   0  0  0  0  0  0  0  0  0  0  0  0
   -3.0767    1.9741    3.6688 H   0  0  0  0  0  0  0  0  0  0  0  0
   -2.8689    1.5458    1.1895 H   0  0  0  0  0  0  0  0  0  0  0  0
   -1.2569    3.9183    2.3049 H   0  0  0  0  0  0  0  0  0  0  0  0
   -1.8965    3.8033    0.6609 H   0  0  0  0  0  0  0  0  0  0  0  0
   -3.0062    3.9023    2.0409 H   0  0  0  0  0  0  0  0  0  0  0  0
   -0.6071    1.3358   -0.0200 N   0  0  0  0  0  0  0  0  0  0  0  0
    0.5702    0.8350   -0.6836 C   0  0  2  0  0  0  0  0  0  0  0  0
    1.7566    1.1118    0.2328 C   0  0  0  0  0  0  0  0  0  0  0  0
    2.6919    1.8430   -0.0858 O   0  0  0  0  0  0  0  0  0  0  0  0
    0.7881    1.4930   -2.0510 C   0  0  0  0  0  0  0  0  0  0  0  0
   -0.3176    1.1834   -3.0305 C   0  0  0  0  0  0  0  0  0  0  0  0
   -0.4406   -0.0299   -3.6469 N   0  0  0  0  0  0  0  0  0  0  0  0
   -1.3665    1.9308   -3.5118 C   0  0  0  0  0  0  0  0  0  0  0  0
   -1.5377    0.0331   -4.4604 C   0  0  0  0  0  0  0  0  0  0  0  0
   -2.1224    1.2089   -4.4012 N   0  0  0  0  0  0  0  0  0  0  0  0
   -1.3903    1.6325   -0.5973 H   0  0  0  0  0  0  0  0  0  0  0  0
    0.4369   -0.2489   -0.7807 H   0  0  0  0  0  0  0  0  0  0  0  0
    1.7534    1.1823   -2.4732 H   0  0  0  0  0  0  0  0  0  0  0  0
    0.8580    2.5837   -1.9450 H   0  0  0  0  0  0  0  0  0  0  0  0
    0.1674   -0.8294   -3.5266 H   0  0  0  0  0  0  0  0  0  0  0  0
   -1.6181    2.9523   -3.2645 H   0  0  0  0  0  0  0  0  0  0  0  0
   -1.8535   -0.8057   -5.0643 H   0  0  0  0  0  0  0  0  0  0  0  0
    1.6196    0.4853    1.4637 N   0  0  0  0  0  0  0  0  0  0  0  0
    2.5925    0.6018    2.5261 C   0  0  2  0  0  0  0  0  0  0  0  0
    3.9662    0.3019    1.9408 C   0  0  0  0  0  0  0  0  0  0  0  0
    4.1292   -0.3530    0.9133 O   0  0  0  0  0  0  0  0  0  0  0  0
    2.2732   -0.3423    3.6748 C   0  0  0  0  0  0  0  0  0  0  0  0
    0.7940   -0.0837    1.6261 H   0  0  0  0  0  0  0  0  0  0  0  0
    2.5610    1.6410    2.8713 H   0  0  0  0  0  0  0  0  0  0  0  0
    2.3001   -1.3882    3.3480 H   0  0  0  0  0  0  0  0  0  0  0  0
    2.9949   -0.2324    4.4910 H   0  0  0  0  0  0  0  0  0  0  0  0
    1.2730   -0.1447    4.0751 H   0  0  0  0  0  0  0  0  0  0  0  0
    4.9906    0.8148    2.7242 N   0  0  0  0  0  0  0  0  0  0  0  0
    6.3857    0.6519    2.3878 C   0  0  0  0  0  0  0  0  0  0  0  0
    4.7628    1.3613    3.5495 H   0  0  0  0  0  0  0  0  0  0  0  0
    6.7798   -0.2484    2.8818 H   0  0  0  0  0  0  0  0  0  0  0  0
    6.4901    0.5473    1.2978 H   0  0  0  0  0  0  0  0  0  0  0  0
    6.9499    1.5330    2.7273 H   0  0  0  0  0  0  0  0  0  0  0  0
 22 24  2  0  0  0  0
 24 26  1  0  0  0  0
 25 26  2  0  0  0  0
 23 25  1  0  0  0  0
 21 22  1  0  0  0  0
 22 23  1  0  0  0  0
  1  3  1  0  0  0  0
  1  7  1  0  0  0  0
  1  2  2  0  0  0  0
 35 36  1  0  0  0  0
 36 44  1  0  0  0  0
 36 37  2  0  0  0  0
  8  9  1  0  0  0  0
  9 17  1  0  0  0  0
  9 10  2  0  0  0  0
 18 19  1  0  0  0  0
 19 34  1  0  0  0  0
 19 20  2  0  0  0  0
 35 38  1  0  0  0  0
  8 11  1  0  0  0  0
 44 45  1  0  0  0  0
 18 21  1  0  0  0  0
 34 35  1  0  0  0  0
  7  8  1  0  0  0  0
 17 18  1  0  0  0  0
 24 32  1  0  0  0  0
 25 33  1  0  0  0  0
  3  4  1  0  0  0  0
  3  5  1  0  0  0  0
  3  6  1  0  0  0  0
 38 41  1  0  0  0  0
 38 42  1  0  0  0  0
 38 43  1  0  0  0  0
 11 14  1  0  0  0  0
 11 15  1  0  0  0  0
 11 16  1  0  0  0  0
 45 47  1  0  0  0  0
 45 48  1  0  0  0  0
 45 49  1  0  0  0  0
 21 29  1  0  0  0  0
 21 30  1  0  0  0  0
 35 40  1  0  0  0  0
  8 13  1  0  0  0  0
 18 28  1  0  0  0  0
 23 31  1  0  0  0  0
 44 46  1  0  0  0  0
  7 12  1  0  0  0  0
 34 39  1  0  0  0  0
 17 27  1  0  0  0  0
M  END
$$$$

  -OEChem-05262214473D

 49 49  0     1  0  0  0  0  0999 V2000
   -1.5619    0.5658    3.7981 C   0  0  0  0  0  0  0  0  0  0  0  0
   -0.6145   -0.0489    3.3224 O   0  0  0  0  0  0  0  0  0  0  0  0
   -1.9938    0.2834    5.1988 C   0  0  0  0  0  0  0  0  0  0  0  0
   -2.7535   -0.5129    5.2522 H   0  0  0  0  0  0  0  0  0  0  0  0
   -1.1626   -0.0642    5.8331 H   0  0  0  0  0  0  0  0  0  0  0  0
   -2.4318    1.1383    5.7384 H   0  0  0  0  0  0  0  0  0  0  0  0
   -2.3116    1.5383    3.1570 N   0  0  0  0  0  0  0  0  0  0  0  0
   -2.0648    1.9643    1.8046 C   0  0  2  0  0  0  0  0  0  0  0  0
   -0.7298    1.3789    1.3634 C   0  0  0  0  0  0  0  0  0  0  0  0
    0.1423    1.0262    2.1547 O   0  0  0  0  0  0  0  0  0  0  0  0
   -2.0560    3.4811    1.6952 C   0  0  0  0  0  0  0  0  0  0  0  0
   -3.0767    1.9741    3.6688 H   0  0  0  0  0  0  0  0  0  0  0  0
   -2.8689    1.5458    1.1895 H   0  0  0  0  0  0  0  0  0  0  0  0
   -1.2569    3.9183    2.3049 H   0  0  0  0  0  0  0  0  0  0  0  0
   -1.8965    3.8033    0.6609 H   0  0  0  0  0  0  0  0  0  0  0  0
   -3.0062    3.9023    2.0409 H   0  0  0  0  0  0  0  0  0  0  0  0
   -0.6071    1.3358   -0.0200 N   0  0  0  0  0  0  0  0  0  0  0  0
    0.5702    0.8350   -0.6836 C   0  0  2  0  0  0  0  0  0  0  0  0
    1.7566    1.1118    0.2328 C   0  0  0  0  0  0  0  0  0  0  0  0
    2.5490    2.0319    0.0421 O   0  0  0  0  0  0  0  0  0  0  0  0
    0.7881    1.4930   -2.0510 C   0  0  0  0  0  0  0  0  0  0  0  0
   -0.3176    1.1834   -3.0305 C   0  0  0  0  0  0  0  0  0  0  0  0
   -0.4406   -0.0299   -3.6469 N   0  0  0  0  0  0  0  0  0  0  0  0
   -1.3665    1.9308   -3.5118 C   0  0  0  0  0  0  0  0  0  0  0  0
   -1.5377    0.0331   -4.4604 C   0  0  0  0  0  0  0  0  0  0  0  0
   -2.1224    1.2089   -4.4012 N   0  0  0  0  0  0  0  0  0  0  0  0
   -1.3903    1.6325   -0.5973 H   0  0  0  0  0  0  0  0  0  0  0  0
    0.4369   -0.2489   -0.7807 H   0  0  0  0  0  0  0  0  0  0  0  0
    1.7534    1.1823   -2.4732 H   0  0  0  0  0  0  0  0  0  0  0  0
    0.8580    2.5837   -1.9450 H   0  0  0  0  0  0  0  0  0  0  0  0
    0.1674   -0.8294   -3.5266 H   0  0  0  0  0  0  0  0  0  0  0  0
   -1.6181    2.9523   -3.2645 H   0  0  0  0  0  0  0  0  0  0  0  0
   -1.8535   -0.8057   -5.0643 H   0  0  0  0  0  0  0  0  0  0  0  0
    1.7934    0.2406    1.3127 N   0  0  0  0  0  0  0  0  0  0  0  0
    2.8025    0.2993    2.3456 C   0  0  2  0  0  0  0  0  0  0  0  0
    4.1661    0.3453    1.6689 C   0  0  0  0  0  0  0  0  0  0  0  0
    4.3609   -0.0587    0.5244 O   0  0  0  0  0  0  0  0  0  0  0  0
    2.7022   -0.8920    3.2855 C   0  0  0  0  0  0  0  0  0  0  0  0
    1.0749   -0.4742    1.3804 H   0  0  0  0  0  0  0  0  0  0  0  0
    2.6364    1.2309    2.8975 H   0  0  0  0  0  0  0  0  0  0  0  0
    2.8658   -1.8346    2.7505 H   0  0  0  0  0  0  0  0  0  0  0  0
    3.4489   -0.8314    4.0841 H   0  0  0  0  0  0  0  0  0  0  0  0
    1.7107   -0.9406    3.7487 H   0  0  0  0  0  0  0  0  0  0  0  0
    5.1487    0.8508    2.5086 N   0  0  0  0  0  0  0  0  0  0  0  0
    6.5285    0.9835    2.1028 C   0  0  0  0  0  0  0  0  0  0  0  0
    4.8935    1.1795    3.4352 H   0  0  0  0  0  0  0  0  0  0  0  0
    7.0841    0.0784    2.3892 H   0  0  0  0  0  0  0  0  0  0  0  0
    6.5787    1.1146    1.0118 H   0  0  0  0  0  0  0  0  0  0  0  0
    6.9736    1.8589    2.5982 H   0  0  0  0  0  0  0  0  0  0  0  0
 22 24  2  0  0  0  0
 24 26  1  0  0  0  0
 25 26  2  0  0  0  0
 23 25  1  0  0  0  0
 21 22  1  0  0  0  0
 22 23  1  0  0  0  0
  1  3  1  0  0  0  0
  1  7  1  0  0  0  0
  1  2  2  0  0  0  0
 35 36  1  0  0  0  0
 36 44  1  0  0  0  0
 36 37  2  0  0  0  0
  8  9  1  0  0  0  0
  9 17  1  0  0  0  0
  9 10  2  0  0  0  0
 18 19  1  0  0  0  0
 19 34  1  0  0  0  0
 19 20  2  0  0  0  0
 35 38  1  0  0  0  0
  8 11  1  0  0  0  0
 44 45  1  0  0  0  0
 18 21  1  0  0  0  0
 34 35  1  0  0  0  0
  7  8  1  0  0  0  0
 17 18  1  0  0  0  0
 24 32  1  0  0  0  0
 25 33  1  0  0  0  0
  3  4  1  0  0  0  0
  3  5  1  0  0  0  0
  3  6  1  0  0  0  0
 38 41  1  0  0  0  0
 38 42  1  0  0  0  0
 38 43  1  0  0  0  0
 11 14  1  0  0  0  0
 11 15  1  0  0  0  0
 11 16  1  0  0  0  0
 45 47  1  0  0  0  0
 45 48  1  0  0  0  0
 45 49  1  0  0  0  0
 21 29  1  0  0  0  0
 21 30  1  0  0  0  0
 35 40  1  0  0  0  0
  8 13  1  0  0  0  0
 18 28  1  0  0  0  0
 23 31  1  0  0  0  0
 44 46  1  0  0  0  0
  7 12  1  0  0  0  0
 34 39  1  0  0  0  0
 17 27  1  0  0  0  0
M  END
$$$$

  -OEChem-05262214473D

 49 49  0     1  0  0  0  0  0999 V2000
   -1.5619    0.5658    3.7981 C   0  0  0  0  0  0  0  0  0  0  0  0
   -0.6145   -0.0489    3.3224 O   0  0  0  0  0  0  0  0  0  0  0  0
   -1.9938    0.2834    5.1988 C   0  0  0  0  0  0  0  0  0  0  0  0
   -2.7535   -0.5129    5.2522 H   0  0  0  0  0  0  0  0  0  0  0  0
   -1.1626   -0.0642    5.8331 H   0  0  0  0  0  0  0  0  0  0  0  0
   -2.4318    1.1383    5.7384 H   0  0  0  0  0  0  0  0  0  0  0  0
   -2.3116    1.5383    3.1570 N   0  0  0  0  0  0  0  0  0  0  0  0
   -2.0648    1.9643    1.8046 C   0  0  2  0  0  0  0  0  0  0  0  0
   -0.7298    1.3789    1.3634 C   0  0  0  0  0  0  0  0  0  0  0  0
    0.1423    1.0262    2.1547 O   0  0  0  0  0  0  0  0  0  0  0  0
   -2.0560    3.4811    1.6952 C   0  0  0  0  0  0  0  0  0  0  0  0
   -3.0767    1.9741    3.6688 H   0  0  0  0  0  0  0  0  0  0  0  0
   -2.8689    1.5458    1.1895 H   0  0  0  0  0  0  0  0  0  0  0  0
   -1.2569    3.9183    2.3049 H   0  0  0  0  0  0  0  0  0  0  0  0
   -1.8965    3.8033    0.6609 H   0  0  0  0  0  0  0  0  0  0  0  0
   -3.0062    3.9023    2.0409 H   0  0  0  0  0  0  0  0  0  0  0  0
   -0.6071    1.3358   -0.0200 N   0  0  0  0  0  0  0  0  0  0  0  0
    0.5702    0.8350   -0.6836 C   0  0  2  0  0  0  0  0  0  0  0  0
    1.7566    1.1118    0.2328 C   0  0  0  0  0  0  0  0  0  0  0  0
    2.3877    2.1664    0.2104 O   0  0  0  0  0  0  0  0  0  0  0  0
    0.7881    1.4930   -2.0510 C   0  0  0  0  0  0  0  0  0  0  0  0
   -0.3176    1.1834   -3.0305 C   0  0  0  0  0  0  0  0  0  0  0  0
   -0.4406   -0.0299   -3.6469 N   0  0  0  0  0  0  0  0  0  0  0  0
   -1.3665    1.9308   -3.5118 C   0  0  0  0  0  0  0  0  0  0  0  0
   -1.5377    0.0331   -4.4604 C   0  0  0  0  0  0  0  0  0  0  0  0
   -2.1224    1.2089   -4.4012 N   0  0  0  0  0  0  0  0  0  0  0  0
   -1.3903    1.6325   -0.5973 H   0  0  0  0  0  0  0  0  0  0  0  0
    0.4369   -0.2489   -0.7807 H   0  0  0  0  0  0  0  0  0  0  0  0
    1.7534    1.1823   -2.4732 H   0  0  0  0  0  0  0  0  0  0  0  0
    0.8580    2.5837   -1.9450 H   0  0  0  0  0  0  0  0  0  0  0  0
    0.1674   -0.8294   -3.5266 H   0  0  0  0  0  0  0  0  0  0  0  0
   -1.6181    2.9523   -3.2645 H   0  0  0  0  0  0  0  0  0  0  0  0
   -1.8535   -0.8057   -5.0643 H   0  0  0  0  0  0  0  0  0  0  0  0
    1.9922    0.0617    1.1093 N   0  0  0  0  0  0  0  0  0  0  0  0
    3.0440    0.0761    2.1005 C   0  0  2  0  0  0  0  0  0  0  0  0
    4.3397    0.4731    1.4056 C   0  0  0  0  0  0  0  0  0  0  0  0
    4.5208    0.3400    0.1970 O   0  0  0  0  0  0  0  0  0  0  0  0
    3.1837   -1.2779    2.7787 C   0  0  0  0  0  0  0  0  0  0  0  0
    1.3954   -0.7582    1.0512 H   0  0  0  0  0  0  0  0  0  0  0  0
    2.7743    0.8412    2.8366 H   0  0  0  0  0  0  0  0  0  0  0  0
    3.4536   -2.0573    2.0568 H   0  0  0  0  0  0  0  0  0  0  0  0
    3.9615   -1.2573    3.5491 H   0  0  0  0  0  0  0  0  0  0  0  0
    2.2420   -1.5754    3.2526 H   0  0  0  0  0  0  0  0  0  0  0  0
    5.2857    0.9535    2.3002 N   0  0  0  0  0  0  0  0  0  0  0  0
    6.6014    1.3834    1.8876 C   0  0  0  0  0  0  0  0  0  0  0  0
    5.0427    1.0473    3.2820 H   0  0  0  0  0  0  0  0  0  0  0  0
    7.3040    0.5406    1.9648 H   0  0  0  0  0  0  0  0  0  0  0  0
    6.5625    1.7339    0.8457 H   0  0  0  0  0  0  0  0  0  0  0  0
    6.9398    2.2035    2.5380 H   0  0  0  0  0  0  0  0  0  0  0  0
 22 24  2  0  0  0  0
 24 26  1  0  0  0  0
 25 26  2  0  0  0  0
 23 25  1  0  0  0  0
 21 22  1  0  0  0  0
 22 23  1  0  0  0  0
  1  3  1  0  0  0  0
  1  7  1  0  0  0  0
  1  2  2  0  0  0  0
 35 36  1  0  0  0  0
 36 44  1  0  0  0  0
 36 37  2  0  0  0  0
  8  9  1  0  0  0  0
  9 17  1  0  0  0  0
  9 10  2  0  0  0  0
 18 19  1  0  0  0  0
 19 34  1  0  0  0  0
 19 20  2  0  0  0  0
 35 38  1  0  0  0  0
  8 11  1  0  0  0  0
 44 45  1  0  0  0  0
 18 21  1  0  0  0  0
 34 35  1  0  0  0  0
  7  8  1  0  0  0  0
 17 18  1  0  0  0  0
 24 32  1  0  0  0  0
 25 33  1  0  0  0  0
  3  4  1  0  0  0  0
  3  5  1  0  0  0  0
  3  6  1  0  0  0  0
 38 41  1  0  0  0  0
 38 42  1  0  0  0  0
 38 43  1  0  0  0  0
 11 14  1  0  0  0  0
 11 15  1  0  0  0  0
 11 16  1  0  0  0  0
 45 47  1  0  0  0  0
 45 48  1  0  0  0  0
 45 49  1  0  0  0  0
 21 29  1  0  0  0  0
 21 30  1  0  0  0  0
 35 40  1  0  0  0  0
  8 13  1  0  0  0  0
 18 28  1  0  0  0  0
 23 31  1  0  0  0  0
 44 46  1  0  0  0  0
  7 12  1  0  0  0  0
 34 39  1  0  0  0  0
 17 27  1  0  0  0  0
M  END
$$$$

  -OEChem-05262214473D

 49 49  0     1  0  0  0  0  0999 V2000
   -1.5619    0.5658    3.7981 C   0  0  0  0  0  0  0  0  0  0  0  0
   -0.6145   -0.0489    3.3224 O   0  0  0  0  0  0  0  0  0  0  0  0
   -1.9938    0.2834    5.1988 C   0  0  0  0  0  0  0  0  0  0  0  0
   -2.7535   -0.5129    5.2522 H   0  0  0  0  0  0  0  0  0  0  0  0
   -1.1626   -0.0642    5.8331 H   0  0  0  0  0  0  0  0  0  0  0  0
   -2.4318    1.1383    5.7384 H   0  0  0  0  0  0  0  0  0  0  0  0
   -2.3116    1.5383    3.1570 N   0  0  0  0  0  0  0  0  0  0  0  0
   -2.0648    1.9643    1.8046 C   0  0  2  0  0  0  0  0  0  0  0  0
   -0.7298    1.3789    1.3634 C   0  0  0  0  0  0  0  0  0  0  0  0
    0.1423    1.0262    2.1547 O   0  0  0  0  0  0  0  0  0  0  0  0
   -2.0560    3.4811    1.6952 C   0  0  0  0  0  0  0  0  0  0  0  0
   -3.0767    1.9741    3.6688 H   0  0  0  0  0  0  0  0  0  0  0  0
   -2.8689    1.5458    1.1895 H   0  0  0  0  0  0  0  0  0  0  0  0
   -1.2569    3.9183    2.3049 H   0  0  0  0  0  0  0  0  0  0  0  0
   -1.8965    3.8033    0.6609 H   0  0  0  0  0  0  0  0  0  0  0  0
   -3.0062    3.9023    2.0409 H   0  0  0  0  0  0  0  0  0  0  0  0
   -0.6071    1.3358   -0.0200 N   0  0  0  0  0  0  0  0  0  0  0  0
    0.5702    0.8350   -0.6836 C   0  0  2  0  0  0  0  0  0  0  0  0
    1.7566    1.1118    0.2328 C   0  0  0  0  0  0  0  0  0  0  0  0
    2.2188    2.2373    0.4076 O   0  0  0  0  0  0  0  0  0  0  0  0
    0.7881    1.4930   -2.0510 C   0  0  0  0  0  0  0  0  0  0  0  0
   -0.3176    1.1834   -3.0305 C   0  0  0  0  0  0  0  0  0  0  0  0
   -0.4406   -0.0299   -3.6469 N   0  0  0  0  0  0  0  0  0  0  0  0
   -1.3665    1.9308   -3.5118 C   0  0  0  0  0  0  0  0  0  0  0  0
   -1.5377    0.0331   -4.4604 C   0  0  0  0  0  0  0  0  0  0  0  0
   -2.1224    1.2089   -4.4012 N   0  0  0  0  0  0  0  0  0  0  0  0
   -1.3903    1.6325   -0.5973 H   0  0  0  0  0  0  0  0  0  0  0  0
    0.4369   -0.2489   -0.7807 H   0  0  0  0  0  0  0  0  0  0  0  0
    1.7534    1.1823   -2.4732 H   0  0  0  0  0  0  0  0  0  0  0  0
    0.8580    2.5837   -1.9450 H   0  0  0  0  0  0  0  0  0  0  0  0
    0.1674   -0.8294   -3.5266 H   0  0  0  0  0  0  0  0  0  0  0  0
   -1.6181    2.9523   -3.2645 H   0  0  0  0  0  0  0  0  0  0  0  0
   -1.8535   -0.8057   -5.0643 H   0  0  0  0  0  0  0  0  0  0  0  0
    2.2025   -0.0392    0.8675 N   0  0  0  0  0  0  0  0  0  0  0  0
    3.3003   -0.0525    1.8074 C   0  0  2  0  0  0  0  0  0  0  0  0
    4.4751    0.6766    1.1688 C   0  0  0  0  0  0  0  0  0  0  0  0
    4.5978    0.8158   -0.0464 O   0  0  0  0  0  0  0  0  0  0  0  0
    3.6850   -1.4736    2.1887 C   0  0  0  0  0  0  0  0  0  0  0  0
    1.7337   -0.9163    0.6610 H   0  0  0  0  0  0  0  0  0  0  0  0
    2.9653    0.4986    2.6928 H   0  0  0  0  0  0  0  0  0  0  0  0
    4.0234   -2.0413    1.3143 H   0  0  0  0  0  0  0  0  0  0  0  0
    4.4978   -1.4813    2.9225 H   0  0  0  0  0  0  0  0  0  0  0  0
    2.8307   -2.0060    2.6205 H   0  0  0  0  0  0  0  0  0  0  0  0
    5.3923    1.1161    2.1132 N   0  0  0  0  0  0  0  0  0  0  0  0
    6.5995    1.8244    1.7569 C   0  0  0  0  0  0  0  0  0  0  0  0
    5.2002    0.9736    3.1004 H   0  0  0  0  0  0  0  0  0  0  0  0
    7.4246    1.1068    1.6377 H   0  0  0  0  0  0  0  0  0  0  0  0
    6.4427    2.3631    0.8108 H   0  0  0  0  0  0  0  0  0  0  0  0
    6.8506    2.5431    2.5508 H   0  0  0  0  0  0  0  0  0  0  0  0
 22 24  2  0  0  0  0
 24 26  1  0  0  0  0
 25 26  2  0  0  0  0
 23 25  1  0  0  0  0
 21 22  1  0  0  0  0
 22 23  1  0  0  0  0
  1  3  1  0  0  0  0
  1  7  1  0  0  0  0
  1  2  2  0  0  0  0
 35 36  1  0  0  0  0
 36 44  1  0  0  0  0
 36 37  2  0  0  0  0
  8  9  1  0  0  0  0
  9 17  1  0  0  0  0
  9 10  2  0  0  0  0
 18 19  1  0  0  0  0
 19 34  1  0  0  0  0
 19 20  2  0  0  0  0
 35 38  1  0  0  0  0
  8 11  1  0  0  0  0
 44 45  1  0  0  0  0
 18 21  1  0  0  0  0
 34 35  1  0  0  0  0
  7  8  1  0  0  0  0
 17 18  1  0  0  0  0
 24 32  1  0  0  0  0
 25 33  1  0  0  0  0
  3  4  1  0  0  0  0
  3  5  1  0  0  0  0
  3  6  1  0  0  0  0
 38 41  1  0  0  0  0
 38 42  1  0  0  0  0
 38 43  1  0  0  0  0
 11 14  1  0  0  0  0
 11 15  1  0  0  0  0
 11 16  1  0  0  0  0
 45 47  1  0  0  0  0
 45 48  1  0  0  0  0
 45 49  1  0  0  0  0
 21 29  1  0  0  0  0
 21 30  1  0  0  0  0
 35 40  1  0  0  0  0
  8 13  1  0  0  0  0
 18 28  1  0  0  0  0
 23 31  1  0  0  0  0
 44 46  1  0  0  0  0
  7 12  1  0  0  0  0
 34 39  1  0  0  0  0
 17 27  1  0  0  0  0
M  END
$$$$

  -OEChem-05262214473D

 49 49  0     1  0  0  0  0  0999 V2000
   -1.5619    0.5658    3.7981 C   0  0  0  0  0  0  0  0  0  0  0  0
   -0.6145   -0.0489    3.3224 O   0  0  0  0  0  0  0  0  0  0  0  0
   -1.9938    0.2834    5.1988 C   0  0  0  0  0  0  0  0  0  0  0  0
   -2.7535   -0.5129    5.2522 H   0  0  0  0  0  0  0  0  0  0  0  0
   -1.1626   -0.0642    5.8331 H   0  0  0  0  0  0  0  0  0  0  0  0
   -2.4318    1.1383    5.7384 H   0  0  0  0  0  0  0  0  0  0  0  0
   -2.3116    1.5383    3.1570 N   0  0  0  0  0  0  0  0  0  0  0  0
   -2.0648    1.9643    1.8046 C   0  0  2  0  0  0  0  0  0  0  0  0
   -0.7298    1.3789    1.3634 C   0  0  0  0  0  0  0  0  0  0  0  0
    0.1423    1.0262    2.1547 O   0  0  0  0  0  0  0  0  0  0  0  0
   -2.0560    3.4811    1.6952 C   0  0  0  0  0  0  0  0  0  0  0  0
   -3.0767    1.9741    3.6688 H   0  0  0  0  0  0  0  0  0  0  0  0
   -2.8689    1.5458    1.1895 H   0  0  0  0  0  0  0  0  0  0  0  0
   -1.2569    3.9183    2.3049 H   0  0  0  0  0  0  0  0  0  0  0  0
   -1.8965    3.8033    0.6609 H   0  0  0  0  0  0  0  0  0  0  0  0
   -3.0062    3.9023    2.0409 H   0  0  0  0  0  0  0  0  0  0  0  0
   -0.6071    1.3358   -0.0200 N   0  0  0  0  0  0  0  0  0  0  0  0
    0.5702    0.8350   -0.6836 C   0  0  2  0  0  0  0  0  0  0  0  0
    1.7566    1.1118    0.2328 C   0  0  0  0  0  0  0  0  0  0  0  0
    2.0539    2.2398    0.6204 O   0  0  0  0  0  0  0  0  0  0  0  0
    0.7881    1.4930   -2.0510 C   0  0  0  0  0  0  0  0  0  0  0  0
   -0.3176    1.1834   -3.0305 C   0  0  0  0  0  0  0  0  0  0  0  0
   -0.4406   -0.0299   -3.6469 N   0  0  0  0  0  0  0  0  0  0  0  0
   -1.3665    1.9308   -3.5118 C   0  0  0  0  0  0  0  0  0  0  0  0
   -1.5377    0.0331   -4.4604 C   0  0  0  0  0  0  0  0  0  0  0  0
   -2.1224    1.2089   -4.4012 N   0  0  0  0  0  0  0  0  0  0  0  0
   -1.3903    1.6325   -0.5973 H   0  0  0  0  0  0  0  0  0  0  0  0
    0.4369   -0.2489   -0.7807 H   0  0  0  0  0  0  0  0  0  0  0  0
    1.7534    1.1823   -2.4732 H   0  0  0  0  0  0  0  0  0  0  0  0
    0.8580    2.5837   -1.9450 H   0  0  0  0  0  0  0  0  0  0  0  0
    0.1674   -0.8294   -3.5266 H   0  0  0  0  0  0  0  0  0  0  0  0
   -1.6181    2.9523   -3.2645 H   0  0  0  0  0  0  0  0  0  0  0  0
   -1.8535   -0.8057   -5.0643 H   0  0  0  0  0  0  0  0  0  0  0  0
    2.4100   -0.0552    0.6037 N   0  0  0  0  0  0  0  0  0  0  0  0
    3.5542   -0.0779    1.4863 C   0  0  2  0  0  0  0  0  0  0  0  0
    4.5631    0.9420    0.9748 C   0  0  0  0  0  0  0  0  0  0  0  0
    4.5866    1.3365   -0.1892 O   0  0  0  0  0  0  0  0  0  0  0  0
    4.1720   -1.4658    1.5559 C   0  0  0  0  0  0  0  0  0  0  0  0
    2.0667   -0.9378    0.2363 H   0  0  0  0  0  0  0  0  0  0  0  0
    3.1964    0.2263    2.4760 H   0  0  0  0  0  0  0  0  0  0  0  0
    4.5364   -1.7877    0.5735 H   0  0  0  0  0  0  0  0  0  0  0  0
    5.0212   -1.4879    2.2469 H   0  0  0  0  0  0  0  0  0  0  0  0
    3.4366   -2.2031    1.8956 H   0  0  0  0  0  0  0  0  0  0  0  0
    5.4611    1.3273    1.9602 N   0  0  0  0  0  0  0  0  0  0  0  0
    6.5229    2.2763    1.7195 C   0  0  0  0  0  0  0  0  0  0  0  0
    5.3552    0.9636    2.9027 H   0  0  0  0  0  0  0  0  0  0  0  0
    7.4376    1.7383    1.4301 H   0  0  0  0  0  0  0  0  0  0  0  0
    6.2274    2.9592    0.9094 H   0  0  0  0  0  0  0  0  0  0  0  0
    6.7123    2.8547    2.6359 H   0  0  0  0  0  0  0  0  0  0  0  0
 22 24  2  0  0  0  0
 24 26  1  0  0  0  0
 25 26  2  0  0  0  0
 23 25  1  0  0  0  0
 21 22  1  0  0  0  0
 22 23  1  0  0  0  0
  1  3  1  0  0  0  0
  1  7  1  0  0  0  0
  1  2  2  0  0  0  0
 35 36  1  0  0  0  0
 36 44  1  0  0  0  0
 36 37  2  0  0  0  0
  8  9  1  0  0  0  0
  9 17  1  0  0  0  0
  9 10  2  0  0  0  0
 18 19  1  0  0  0  0
 19 34  1  0  0  0  0
 19 20  2  0  0  0  0
 35 38  1  0  0  0  0
  8 11  1  0  0  0  0
 44 45  1  0  0  0  0
 18 21  1  0  0  0  0
 34 35  1  0  0  0  0
  7  8  1  0  0  0  0
 17 18  1  0  0  0  0
 24 32  1  0  0  0  0
 25 33  1  0  0  0  0
  3  4  1  0  0  0  0
  3  5  1  0  0  0  0
  3  6  1  0  0  0  0
 38 41  1  0  0  0  0
 38 42  1  0  0  0  0
 38 43  1  0  0  0  0
 11 14  1  0  0  0  0
 11 15  1  0  0  0  0
 11 16  1  0  0  0  0
 45 47  1  0  0  0  0
 45 48  1  0  0  0  0
 45 49  1  0  0  0  0
 21 29  1  0  0  0  0
 21 30  1  0  0  0  0
 35 40  1  0  0  0  0
  8 13  1  0  0  0  0
 18 28  1  0  0  0  0
 23 31  1  0  0  0  0
 44 46  1  0  0  0  0
  7 12  1  0  0  0  0
 34 39  1  0  0  0  0
 17 27  1  0  0  0  0
M  END
$$$$

  -OEChem-05262214473D

 49 49  0     1  0  0  0  0  0999 V2000
   -1.5619    0.5658    3.7981 C   0  0  0  0  0  0  0  0  0  0  0  0
   -0.6145   -0.0489    3.3224 O   0  0  0  0  0  0  0  0  0  0  0  0
   -1.9938    0.2834    5.1988 C   0  0  0  0  0  0  0  0  0  0  0  0
   -2.7535   -0.5129    5.2522 H   0  0  0  0  0  0  0  0  0  0  0  0
   -1.1626   -0.0642    5.8331 H   0  0  0  0  0  0  0  0  0  0  0  0
   -2.4318    1.1383    5.7384 H   0  0  0  0  0  0  0  0  0  0  0  0
   -2.3116    1.5383    3.1570 N   0  0  0  0  0  0  0  0  0  0  0  0
   -2.0648    1.9643    1.8046 C   0  0  2  0  0  0  0  0  0  0  0  0
   -0.7298    1.3789    1.3634 C   0  0  0  0  0  0  0  0  0  0  0  0
    0.1423    1.0262    2.1547 O   0  0  0  0  0  0  0  0  0  0  0  0
   -2.0560    3.4811    1.6952 C   0  0  0  0  0  0  0  0  0  0  0  0
   -3.0767    1.9741    3.6688 H   0  0  0  0  0  0  0  0  0  0  0  0
   -2.8689    1.5458    1.1895 H   0  0  0  0  0  0  0  0  0  0  0  0
   -1.2569    3.9183    2.3049 H   0  0  0  0  0  0  0  0  0  0  0  0
   -1.8965    3.8033    0.6609 H   0  0  0  0  0  0  0  0  0  0  0  0
   -3.0062    3.9023    2.0409 H   0  0  0  0  0  0  0  0  0  0  0  0
   -0.6071    1.3358   -0.0200 N   0  0  0  0  0  0  0  0  0  0  0  0
    0.5702    0.8350   -0.6836 C   0  0  2  0  0  0  0  0  0  0  0  0
    1.7566    1.1118    0.2328 C   0  0  0  0  0  0  0  0  0  0  0  0
    1.9042    2.1737    0.8341 O   0  0  0  0  0  0  0  0  0  0  0  0
    0.7881    1.4930   -2.0510 C   0  0  0  0  0  0  0  0  0  0  0  0
   -0.3176    1.1834   -3.0305 C   0  0  0  0  0  0  0  0  0  0  0  0
   -0.4406   -0.0299   -3.6469 N   0  0  0  0  0  0  0  0  0  0  0  0
   -1.3665    1.9308   -3.5118 C   0  0  0  0  0  0  0  0  0  0  0  0
   -1.5377    0.0331   -4.4604 C   0  0  0  0  0  0  0  0  0  0  0  0
   -2.1224    1.2089   -4.4012 N   0  0  0  0  0  0  0  0  0  0  0  0
   -1.3903    1.6325   -0.5973 H   0  0  0  0  0  0  0  0  0  0  0  0
    0.4369   -0.2489   -0.7807 H   0  0  0  0  0  0  0  0  0  0  0  0
    1.7534    1.1823   -2.4732 H   0  0  0  0  0  0  0  0  0  0  0  0
    0.8580    2.5837   -1.9450 H   0  0  0  0  0  0  0  0  0  0  0  0
    0.1674   -0.8294   -3.5266 H   0  0  0  0  0  0  0  0  0  0  0  0
   -1.6181    2.9523   -3.2645 H   0  0  0  0  0  0  0  0  0  0  0  0
   -1.8535   -0.8057   -5.0643 H   0  0  0  0  0  0  0  0  0  0  0  0
    2.6005    0.0147    0.3359 N   0  0  0  0  0  0  0  0  0  0  0  0
    3.7884    0.0018    1.1592 C   0  0  2  0  0  0  0  0  0  0  0  0
    4.5977    1.2510    0.8366 C   0  0  0  0  0  0  0  0  0  0  0  0
    4.4882    1.8665   -0.2218 O   0  0  0  0  0  0  0  0  0  0  0  0
    4.6114   -1.2550    0.9233 C   0  0  0  0  0  0  0  0  0  0  0  0
    2.3718   -0.8212   -0.1938 H   0  0  0  0  0  0  0  0  0  0  0  0
    3.4517    0.0429    2.2008 H   0  0  0  0  0  0  0  0  0  0  0  0
    4.9576   -1.3136   -0.1150 H   0  0  0  0  0  0  0  0  0  0  0  0
    5.4960   -1.2768    1.5684 H   0  0  0  0  0  0  0  0  0  0  0  0
    4.0185   -2.1531    1.1272 H   0  0  0  0  0  0  0  0  0  0  0  0
    5.4876    1.5729    1.8518 N   0  0  0  0  0  0  0  0  0  0  0  0
    6.3768    2.7085    1.7781 C   0  0  0  0  0  0  0  0  0  0  0  0
    5.4972    1.0178    2.7025 H   0  0  0  0  0  0  0  0  0  0  0  0
    7.3422    2.3922    1.3562 H   0  0  0  0  0  0  0  0  0  0  0  0
    5.9314    3.4817    1.1348 H   0  0  0  0  0  0  0  0  0  0  0  0
    6.5341    3.1171    2.7872 H   0  0  0  0  0  0  0  0  0  0  0  0
 22 24  2  0  0  0  0
 24 26  1  0  0  0  0
 25 26  2  0  0  0  0
 23 25  1  0  0  0  0
 21 22  1  0  0  0  0
 22 23  1  0  0  0  0
  1  3  1  0  0  0  0
  1  7  1  0  0  0  0
  1  2  2  0  0  0  0
 35 36  1  0  0  0  0
 36 44  1  0  0  0  0
 36 37  2  0  0  0  0
  8  9  1  0  0  0  0
  9 17  1  0  0  0  0
  9 10  2  0  0  0  0
 18 19  1  0  0  0  0
 19 34  1  0  0  0  0
 19 20  2  0  0  0  0
 35 38  1  0  0  0  0
  8 11  1  0  0  0  0
 44 45  1  0  0  0  0
 18 21  1  0  0  0  0
 34 35  1  0  0  0  0
  7  8  1  0  0  0  0
 17 18  1  0  0  0  0
 24 32  1  0  0  0  0
 25 33  1  0  0  0  0
  3  4  1  0  0  0  0
  3  5  1  0  0  0  0
  3  6  1  0  0  0  0
 38 41  1  0  0  0  0
 38 42  1  0  0  0  0
 38 43  1  0  0  0  0
 11 14  1  0  0  0  0
 11 15  1  0  0  0  0
 11 16  1  0  0  0  0
 45 47  1  0  0  0  0
 45 48  1  0  0  0  0
 45 49  1  0  0  0  0
 21 29  1  0  0  0  0
 21 30  1  0  0  0  0
 35 40  1  0  0  0  0
  8 13  1  0  0  0  0
 18 28  1  0  0  0  0
 23 31  1  0  0  0  0
 44 46  1  0  0  0  0
  7 12  1  0  0  0  0
 34 39  1  0  0  0  0
 17 27  1  0  0  0  0
M  END
$$$$

  -OEChem-05262214473D

 49 49  0     1  0  0  0  0  0999 V2000
   -1.5619    0.5658    3.7981 C   0  0  0  0  0  0  0  0  0  0  0  0
   -0.6145   -0.0489    3.3224 O   0  0  0  0  0  0  0  0  0  0  0  0
   -1.9938    0.2834    5.1988 C   0  0  0  0  0  0  0  0  0  0  0  0
   -2.7535   -0.5129    5.2522 H   0  0  0  0  0  0  0  0  0  0  0  0
   -1.1626   -0.0642    5.8331 H   0  0  0  0  0  0  0  0  0  0  0  0
   -2.4318    1.1383    5.7384 H   0  0  0  0  0  0  0  0  0  0  0  0
   -2.3116    1.5383    3.1570 N   0  0  0  0  0  0  0  0  0  0  0  0
   -2.0648    1.9643    1.8046 C   0  0  2  0  0  0  0  0  0  0  0  0
   -0.7298    1.3789    1.3634 C   0  0  0  0  0  0  0  0  0  0  0  0
    0.1423    1.0262    2.1547 O   0  0  0  0  0  0  0  0  0  0  0  0
   -2.0560    3.4811    1.6952 C   0  0  0  0  0  0  0  0  0  0  0  0
   -3.0767    1.9741    3.6688 H   0  0  0  0  0  0  0  0  0  0  0  0
   -2.8689    1.5458    1.1895 H   0  0  0  0  0  0  0  0  0  0  0  0
   -1.2569    3.9183    2.3049 H   0  0  0  0  0  0  0  0  0  0  0  0
   -1.8965    3.8033    0.6609 H   0  0  0  0  0  0  0  0  0  0  0  0
   -3.0062    3.9023    2.0409 H   0  0  0  0  0  0  0  0  0  0  0  0
   -0.6071    1.3358   -0.0200 N   0  0  0  0  0  0  0  0  0  0  0  0
    0.5702    0.8350   -0.6836 C   0  0  2  0  0  0  0  0  0  0  0  0
    1.7566    1.1118    0.2328 C   0  0  0  0  0  0  0  0  0  0  0  0
    1.7800    2.0435    1.0343 O   0  0  0  0  0  0  0  0  0  0  0  0
    0.7881    1.4930   -2.0510 C   0  0  0  0  0  0  0  0  0  0  0  0
   -0.3176    1.1834   -3.0305 C   0  0  0  0  0  0  0  0  0  0  0  0
   -0.4406   -0.0299   -3.6469 N   0  0  0  0  0  0  0  0  0  0  0  0
   -1.3665    1.9308   -3.5118 C   0  0  0  0  0  0  0  0  0  0  0  0
   -1.5377    0.0331   -4.4604 C   0  0  0  0  0  0  0  0  0  0  0  0
   -2.1224    1.2089   -4.4012 N   0  0  0  0  0  0  0  0  0  0  0  0
   -1.3903    1.6325   -0.5973 H   0  0  0  0  0  0  0  0  0  0  0  0
    0.4369   -0.2489   -0.7807 H   0  0  0  0  0  0  0  0  0  0  0  0
    1.7534    1.1823   -2.4732 H   0  0  0  0  0  0  0  0  0  0  0  0
    0.8580    2.5837   -1.9450 H   0  0  0  0  0  0  0  0  0  0  0  0
    0.1674   -0.8294   -3.5266 H   0  0  0  0  0  0  0  0  0  0  0  0
   -1.6181    2.9523   -3.2645 H   0  0  0  0  0  0  0  0  0  0  0  0
   -1.8535   -0.8057   -5.0643 H   0  0  0  0  0  0  0  0  0  0  0  0
    2.7611    0.1658    0.0824 N   0  0  0  0  0  0  0  0  0  0  0  0
    3.9867    0.1811    0.8482 C   0  0  2  0  0  0  0  0  0  0  0  0
    4.5765    1.5827    0.7638 C   0  0  0  0  0  0  0  0  0  0  0  0
    4.3091    2.3696   -0.1419 O   0  0  0  0  0  0  0  0  0  0  0  0
    4.9734   -0.8556    0.3341 C   0  0  0  0  0  0  0  0  0  0  0  0
    2.6281   -0.5745   -0.6002 H   0  0  0  0  0  0  0  0  0  0  0  0
    3.7139   -0.0391    1.8861 H   0  0  0  0  0  0  0  0  0  0  0  0
    5.2584   -0.6515   -0.7044 H   0  0  0  0  0  0  0  0  0  0  0  0
    5.8900   -0.8624    0.9332 H   0  0  0  0  0  0  0  0  0  0  0  0
    4.5366   -1.8596    0.3677 H   0  0  0  0  0  0  0  0  0  0  0  0
    5.4698    1.8360    1.7953 N   0  0  0  0  0  0  0  0  0  0  0  0
    6.1713    3.0915    1.9286 C   0  0  0  0  0  0  0  0  0  0  0  0
    5.6165    1.1326    2.5133 H   0  0  0  0  0  0  0  0  0  0  0  0
    7.1448    3.0238    1.4209 H   0  0  0  0  0  0  0  0  0  0  0  0
    5.5748    3.8949    1.4718 H   0  0  0  0  0  0  0  0  0  0  0  0
    6.3284    3.3123    2.9947 H   0  0  0  0  0  0  0  0  0  0  0  0
 22 24  2  0  0  0  0
 24 26  1  0  0  0  0
 25 26  2  0  0  0  0
 23 25  1  0  0  0  0
 21 22  1  0  0  0  0
 22 23  1  0  0  0  0
  1  3  1  0  0  0  0
  1  7  1  0  0  0  0
  1  2  2  0  0  0  0
 35 36  1  0  0  0  0
 36 44  1  0  0  0  0
 36 37  2  0  0  0  0
  8  9  1  0  0  0  0
  9 17  1  0  0  0  0
  9 10  2  0  0  0  0
 18 19  1  0  0  0  0
 19 34  1  0  0  0  0
 19 20  2  0  0  0  0
 35 38  1  0  0  0  0
  8 11  1  0  0  0  0
 44 45  1  0  0  0  0
 18 21  1  0  0  0  0
 34 35  1  0  0  0  0
  7  8  1  0  0  0  0
 17 18  1  0  0  0  0
 24 32  1  0  0  0  0
 25 33  1  0  0  0  0
  3  4  1  0  0  0  0
  3  5  1  0  0  0  0
  3  6  1  0  0  0  0
 38 41  1  0  0  0  0
 38 42  1  0  0  0  0
 38 43  1  0  0  0  0
 11 14  1  0  0  0  0
 11 15  1  0  0  0  0
 11 16  1  0  0  0  0
 45 47  1  0  0  0  0
 45 48  1  0  0  0  0
 45 49  1  0  0  0  0
 21 29  1  0  0  0  0
 21 30  1  0  0  0  0
 35 40  1  0  0  0  0
  8 13  1  0  0  0  0
 18 28  1  0  0  0  0
 23 31  1  0  0  0  0
 44 46  1  0  0  0  0
  7 12  1  0  0  0  0
 34 39  1  0  0  0  0
 17 27  1  0  0  0  0
M  END
$$$$

  -OEChem-05262214473D

 49 49  0     1  0  0  0  0  0999 V2000
   -1.5619    0.5658    3.7981 C   0  0  0  0  0  0  0  0  0  0  0  0
   -0.6145   -0.0489    3.3224 O   0  0  0  0  0  0  0  0  0  0  0  0
   -1.9938    0.2834    5.1988 C   0  0  0  0  0  0  0  0  0  0  0  0
   -2.7535   -0.5129    5.2522 H   0  0  0  0  0  0  0  0  0  0  0  0
   -1.1626   -0.0642    5.8331 H   0  0  0  0  0  0  0  0  0  0  0  0
   -2.4318    1.1383    5.7384 H   0  0  0  0  0  0  0  0  0  0  0  0
   -2.3116    1.5383    3.1570 N   0  0  0  0  0  0  0  0  0  0  0  0
   -2.0648    1.9643    1.8046 C   0  0  2  0  0  0  0  0  0  0  0  0
   -0.7298    1.3789    1.3634 C   0  0  0  0  0  0  0  0  0  0  0  0
    0.1423    1.0262    2.1547 O   0  0  0  0  0  0  0  0  0  0  0  0
   -2.0560    3.4811    1.6952 C   0  0  0  0  0  0  0  0  0  0  0  0
   -3.0767    1.9741    3.6688 H   0  0  0  0  0  0  0  0  0  0  0  0
   -2.8689    1.5458    1.1895 H   0  0  0  0  0  0  0  0  0  0  0  0
   -1.2569    3.9183    2.3049 H   0  0  0  0  0  0  0  0  0  0  0  0
   -1.8965    3.8033    0.6609 H   0  0  0  0  0  0  0  0  0  0  0  0
   -3.0062    3.9023    2.0409 H   0  0  0  0  0  0  0  0  0  0  0  0
   -0.6071    1.3358   -0.0200 N   0  0  0  0  0  0  0  0  0  0  0  0
    0.5702    0.8350   -0.6836 C   0  0  2  0  0  0  0  0  0  0  0  0
    1.7566    1.1118    0.2328 C   0  0  0  0  0  0  0  0  0  0  0  0
    1.6896    1.8581    1.2072 O   0  0  0  0  0  0  0  0  0  0  0  0
    0.7881    1.4930   -2.0510 C   0  0  0  0  0  0  0  0  0  0  0  0
   -0.3176    1.1834   -3.0305 C   0  0  0  0  0  0  0  0  0  0  0  0
   -0.4406   -0.0299   -3.6469 N   0  0  0  0  0  0  0  0  0  0  0  0
   -1.3665    1.9308   -3.5118 C   0  0  0  0  0  0  0  0  0  0  0  0
   -1.5377    0.0331   -4.4604 C   0  0  0  0  0  0  0  0  0  0  0  0
   -2.1224    1.2089   -4.4012 N   0  0  0  0  0  0  0  0  0  0  0  0
   -1.3903    1.6325   -0.5973 H   0  0  0  0  0  0  0  0  0  0  0  0
    0.4369   -0.2489   -0.7807 H   0  0  0  0  0  0  0  0  0  0  0  0
    1.7534    1.1823   -2.4732 H   0  0  0  0  0  0  0  0  0  0  0  0
    0.8580    2.5837   -1.9450 H   0  0  0  0  0  0  0  0  0  0  0  0
    0.1674   -0.8294   -3.5266 H   0  0  0  0  0  0  0  0  0  0  0  0
   -1.6181    2.9523   -3.2645 H   0  0  0  0  0  0  0  0  0  0  0  0
   -1.8535   -0.8057   -5.0643 H   0  0  0  0  0  0  0  0  0  0  0  0
    2.8808    0.3878   -0.1396 N   0  0  0  0  0  0  0  0  0  0  0  0
    4.1358    0.4478    0.5747 C   0  0  2  0  0  0  0  0  0  0  0  0
    4.5010    1.9145    0.7613 C   0  0  0  0  0  0  0  0  0  0  0  0
    4.0616    2.8117    0.0450 O   0  0  0  0  0  0  0  0  0  0  0  0
    5.2332   -0.2949   -0.1716 C   0  0  0  0  0  0  0  0  0  0  0  0
    2.8182   -0.2145   -0.9551 H   0  0  0  0  0  0  0  0  0  0  0  0
    3.9652   -0.0140    1.5532 H   0  0  0  0  0  0  0  0  0  0  0  0
    5.4182    0.1536   -1.1545 H   0  0  0  0  0  0  0  0  0  0  0  0
    6.1762   -0.2728    0.3846 H   0  0  0  0  0  0  0  0  0  0  0  0
    4.9558   -1.3424   -0.3311 H   0  0  0  0  0  0  0  0  0  0  0  0
    5.4091    2.0988    1.7946 N   0  0  0  0  0  0  0  0  0  0  0  0
    5.9202    3.3991    2.1607 C   0  0  0  0  0  0  0  0  0  0  0  0
    5.7051    1.3002    2.3481 H   0  0  0  0  0  0  0  0  0  0  0  0
    6.8589    3.5902    1.6200 H   0  0  0  0  0  0  0  0  0  0  0  0
    5.1818    4.1707    1.8972 H   0  0  0  0  0  0  0  0  0  0  0  0
    6.1090    3.4270    3.2440 H   0  0  0  0  0  0  0  0  0  0  0  0
 22 24  2  0  0  0  0
 24 26  1  0  0  0  0
 25 26  2  0  0  0  0
 23 25  1  0  0  0  0
 21 22  1  0  0  0  0
 22 23  1  0  0  0  0
  1  3  1  0  0  0  0
  1  7  1  0  0  0  0
  1  2  2  0  0  0  0
 35 36  1  0  0  0  0
 36 44  1  0  0  0  0
 36 37  2  0  0  0  0
  8  9  1  0  0  0  0
  9 17  1  0  0  0  0
  9 10  2  0  0  0  0
 18 19  1  0  0  0  0
 19 34  1  0  0  0  0
 19 20  2  0  0  0  0
 35 38  1  0  0  0  0
  8 11  1  0  0  0  0
 44 45  1  0  0  0  0
 18 21  1  0  0  0  0
 34 35  1  0  0  0  0
  7  8  1  0  0  0  0
 17 18  1  0  0  0  0
 24 32  1  0  0  0  0
 25 33  1  0  0  0  0
  3  4  1  0  0  0  0
  3  5  1  0  0  0  0
  3  6  1  0  0  0  0
 38 41  1  0  0  0  0
 38 42  1  0  0  0  0
 38 43  1  0  0  0  0
 11 14  1  0  0  0  0
 11 15  1  0  0  0  0
 11 16  1  0  0  0  0
 45 47  1  0  0  0  0
 45 48  1  0  0  0  0
 45 49  1  0  0  0  0
 21 29  1  0  0  0  0
 21 30  1  0  0  0  0
 35 40  1  0  0  0  0
  8 13  1  0  0  0  0
 18 28  1  0  0  0  0
 23 31  1  0  0  0  0
 44 46  1  0  0  0  0
  7 12  1  0  0  0  0
 34 39  1  0  0  0  0
 17 27  1  0  0  0  0
M  END
$$$$

  -OEChem-05262214473D

 49 49  0     1  0  0  0  0  0999 V2000
   -1.5619    0.5658    3.7981 C   0  0  0  0  0  0  0  0  0  0  0  0
   -0.6145   -0.0489    3.3224 O   0  0  0  0  0  0  0  0  0  0  0  0
   -1.9938    0.2834    5.1988 C   0  0  0  0  0  0  0  0  0  0  0  0
   -2.7535   -0.5129    5.2522 H   0  0  0  0  0  0  0  0  0  0  0  0
   -1.1626   -0.0642    5.8331 H   0  0  0  0  0  0  0  0  0  0  0  0
   -2.4318    1.1383    5.7384 H   0  0  0  0  0  0  0  0  0  0  0  0
   -2.3116    1.5383    3.1570 N   0  0  0  0  0  0  0  0  0  0  0  0
   -2.0648    1.9643    1.8046 C   0  0  2  0  0  0  0  0  0  0  0  0
   -0.7298    1.3789    1.3634 C   0  0  0  0  0  0  0  0  0  0  0  0
    0.1423    1.0262    2.1547 O   0  0  0  0  0  0  0  0  0  0  0  0
   -2.0560    3.4811    1.6952 C   0  0  0  0  0  0  0  0  0  0  0  0
   -3.0767    1.9741    3.6688 H   0  0  0  0  0  0  0  0  0  0  0  0
   -2.8689    1.5458    1.1895 H   0  0  0  0  0  0  0  0  0  0  0  0
   -1.2569    3.9183    2.3049 H   0  0  0  0  0  0  0  0  0  0  0  0
   -1.8965    3.8033    0.6609 H   0  0  0  0  0  0  0  0  0  0  0  0
   -3.0062    3.9023    2.0409 H   0  0  0  0  0  0  0  0  0  0  0  0
   -0.6071    1.3358   -0.0200 N   0  0  0  0  0  0  0  0  0  0  0  0
    0.5702    0.8350   -0.6836 C   0  0  2  0  0  0  0  0  0  0  0  0
    1.6793    0.7619    0.3597 C   0  0  0  0  0  0  0  0  0  0  0  0
    1.5062    1.0514    1.5417 O   0  0  0  0  0  0  0  0  0  0  0  0
    0.9982    1.7269   -1.8548 C   0  0  0  0  0  0  0  0  0  0  0  0
   -0.0282    1.7707   -2.9604 C   0  0  0  0  0  0  0  0  0  0  0  0
   -0.2194    0.7366   -3.8329 N   0  0  0  0  0  0  0  0  0  0  0  0
   -0.9340    2.7300   -3.3476 C   0  0  0  0  0  0  0  0  0  0  0  0
   -1.2135    1.1066   -4.6955 C   0  0  0  0  0  0  0  0  0  0  0  0
   -1.6690    2.3104   -4.4280 N   0  0  0  0  0  0  0  0  0  0  0  0
   -1.3903    1.6325   -0.5973 H   0  0  0  0  0  0  0  0  0  0  0  0
    0.3297   -0.1792   -1.0234 H   0  0  0  0  0  0  0  0  0  0  0  0
    1.9619    1.3880   -2.2586 H   0  0  0  0  0  0  0  0  0  0  0  0
    1.1758    2.7540   -1.5097 H   0  0  0  0  0  0  0  0  0  0  0  0
    0.2818   -0.1421   -3.8423 H   0  0  0  0  0  0  0  0  0  0  0  0
   -1.0962    3.7024   -2.9048 H   0  0  0  0  0  0  0  0  0  0  0  0
   -1.5556    0.4580   -5.4894 H   0  0  0  0  0  0  0  0  0  0  0  0
    2.8679    0.2879   -0.1779 N   0  0  0  0  0  0  0  0  0  0  0  0
    4.0714    0.0999    0.5999 C   0  0  2  0  0  0  0  0  0  0  0  0
    4.3299    1.3801    1.3834 C   0  0  0  0  0  0  0  0  0  0  0  0
    3.8774    2.4734    1.0500 O   0  0  0  0  0  0  0  0  0  0  0  0
    5.2570   -0.2420   -0.2890 C   0  0  0  0  0  0  0  0  0  0  0  0
    2.8932    0.0618   -1.1678 H   0  0  0  0  0  0  0  0  0  0  0  0
    3.8725   -0.7215    1.2968 H   0  0  0  0  0  0  0  0  0  0  0  0
    5.4715    0.5694   -0.9940 H   0  0  0  0  0  0  0  0  0  0  0  0
    6.1616   -0.4122    0.3041 H   0  0  0  0  0  0  0  0  0  0  0  0
    5.0576   -1.1465   -0.8738 H   0  0  0  0  0  0  0  0  0  0  0  0
    5.1606    1.1657    2.4742 N   0  0  0  0  0  0  0  0  0  0  0  0
    5.5643    2.2267    3.3672 C   0  0  0  0  0  0  0  0  0  0  0  0
    5.4736    0.2230    2.6863 H   0  0  0  0  0  0  0  0  0  0  0  0
    6.5195    2.6513    3.0248 H   0  0  0  0  0  0  0  0  0  0  0  0
    4.7950    3.0129    3.3737 H   0  0  0  0  0  0  0  0  0  0  0  0
    5.6856    1.8240    4.3837 H   0  0  0  0  0  0  0  0  0  0  0  0
 22 24  2  0  0  0  0
 24 26  1  0  0  0  0
 25 26  2  0  0  0  0
 23 25  1  0  0  0  0
 21 22  1  0  0  0  0
 22 23  1  0  0  0  0
  1  3  1  0  0  0  0
  1  7  1  0  0  0  0
  1  2  2  0  0  0  0
 35 36  1  0  0  0  0
 36 44  1  0  0  0  0
 36 37  2  0  0  0  0
  8  9  1  0  0  0  0
  9 17  1  0  0  0  0
  9 10  2  0  0  0  0
 18 19  1  0  0  0  0
 19 34  1  0  0  0  0
 19 20  2  0  0  0  0
 35 38  1  0  0  0  0
  8 11  1  0  0  0  0
 44 45  1  0  0  0  0
 18 21  1  0  0  0  0
 34 35  1  0  0  0  0
  7  8  1  0  0  0  0
 17 18  1  0  0  0  0
 24 32  1  0  0  0  0
 25 33  1  0  0  0  0
  3  4  1  0  0  0  0
  3  5  1  0  0  0  0
  3  6  1  0  0  0  0
 38 41  1  0  0  0  0
 38 42  1  0  0  0  0
 38 43  1  0  0  0  0
 11 14  1  0  0  0  0
 11 15  1  0  0  0  0
 11 16  1  0  0  0  0
 45 47  1  0  0  0  0
 45 48  1  0  0  0  0
 45 49  1  0  0  0  0
 21 29  1  0  0  0  0
 21 30  1  0  0  0  0
 35 40  1  0  0  0  0
  8 13  1  0  0  0  0
 18 28  1  0  0  0  0
 23 31  1  0  0  0  0
 44 46  1  0  0  0  0
  7 12  1  0  0  0  0
 34 39  1  0  0  0  0
 17 27  1  0  0  0  0
M  END
$$$$

  -OEChem-05262214473D

 49 49  0     1  0  0  0  0  0999 V2000
   -1.5619    0.5658    3.7981 C   0  0  0  0  0  0  0  0  0  0  0  0
   -0.6145   -0.0489    3.3224 O   0  0  0  0  0  0  0  0  0  0  0  0
   -1.9938    0.2834    5.1988 C   0  0  0  0  0  0  0  0  0  0  0  0
   -2.7535   -0.5129    5.2522 H   0  0  0  0  0  0  0  0  0  0  0  0
   -1.1626   -0.0642    5.8331 H   0  0  0  0  0  0  0  0  0  0  0  0
   -2.4318    1.1383    5.7384 H   0  0  0  0  0  0  0  0  0  0  0  0
   -2.3116    1.5383    3.1570 N   0  0  0  0  0  0  0  0  0  0  0  0
   -2.0648    1.9643    1.8046 C   0  0  2  0  0  0  0  0  0  0  0  0
   -0.7298    1.3789    1.3634 C   0  0  0  0  0  0  0  0  0  0  0  0
    0.1423    1.0262    2.1547 O   0  0  0  0  0  0  0  0  0  0  0  0
   -2.0560    3.4811    1.6952 C   0  0  0  0  0  0  0  0  0  0  0  0
   -3.0767    1.9741    3.6688 H   0  0  0  0  0  0  0  0  0  0  0  0
   -2.8689    1.5458    1.1895 H   0  0  0  0  0  0  0  0  0  0  0  0
   -1.2569    3.9183    2.3049 H   0  0  0  0  0  0  0  0  0  0  0  0
   -1.8965    3.8033    0.6609 H   0  0  0  0  0  0  0  0  0  0  0  0
   -3.0062    3.9023    2.0409 H   0  0  0  0  0  0  0  0  0  0  0  0
   -0.6071    1.3358   -0.0200 N   0  0  0  0  0  0  0  0  0  0  0  0
    0.5702    0.8350   -0.6836 C   0  0  2  0  0  0  0  0  0  0  0  0
    1.6793    0.7619    0.3597 C   0  0  0  0  0  0  0  0  0  0  0  0
    1.4628    0.7872    1.5694 O   0  0  0  0  0  0  0  0  0  0  0  0
    0.9982    1.7269   -1.8548 C   0  0  0  0  0  0  0  0  0  0  0  0
   -0.0282    1.7707   -2.9604 C   0  0  0  0  0  0  0  0  0  0  0  0
   -0.2194    0.7366   -3.8329 N   0  0  0  0  0  0  0  0  0  0  0  0
   -0.9340    2.7300   -3.3476 C   0  0  0  0  0  0  0  0  0  0  0  0
   -1.2135    1.1066   -4.6955 C   0  0  0  0  0  0  0  0  0  0  0  0
   -1.6690    2.3104   -4.4280 N   0  0  0  0  0  0  0  0  0  0  0  0
   -1.3903    1.6325   -0.5973 H   0  0  0  0  0  0  0  0  0  0  0  0
    0.3297   -0.1792   -1.0234 H   0  0  0  0  0  0  0  0  0  0  0  0
    1.9619    1.3880   -2.2586 H   0  0  0  0  0  0  0  0  0  0  0  0
    1.1758    2.7540   -1.5097 H   0  0  0  0  0  0  0  0  0  0  0  0
    0.2818   -0.1421   -3.8423 H   0  0  0  0  0  0  0  0  0  0  0  0
   -1.0962    3.7024   -2.9048 H   0  0  0  0  0  0  0  0  0  0  0  0
   -1.5556    0.4580   -5.4894 H   0  0  0  0  0  0  0  0  0  0  0  0
    2.9310    0.6150   -0.2220 N   0  0  0  0  0  0  0  0  0  0  0  0
    4.1522    0.4978    0.5420 C   0  0  2  0  0  0  0  0  0  0  0  0
    4.1818    1.6316    1.5584 C   0  0  0  0  0  0  0  0  0  0  0  0
    3.5401    2.6712    1.4225 O   0  0  0  0  0  0  0  0  0  0  0  0
    5.3757    0.5444   -0.3600 C   0  0  0  0  0  0  0  0  0  0  0  0
    2.9917    0.5885   -1.2355 H   0  0  0  0  0  0  0  0  0  0  0  0
    4.1061   -0.4627    1.0666 H   0  0  0  0  0  0  0  0  0  0  0  0
    5.4388    1.4995   -0.8941 H   0  0  0  0  0  0  0  0  0  0  0  0
    6.2988    0.4269    0.2171 H   0  0  0  0  0  0  0  0  0  0  0  0
    5.3381   -0.2536   -1.1094 H   0  0  0  0  0  0  0  0  0  0  0  0
    5.0424    1.3640    2.6138 N   0  0  0  0  0  0  0  0  0  0  0  0
    5.2545    2.2907    3.7011 C   0  0  0  0  0  0  0  0  0  0  0  0
    5.5194    0.4681    2.6548 H   0  0  0  0  0  0  0  0  0  0  0  0
    6.1171    2.9339    3.4724 H   0  0  0  0  0  0  0  0  0  0  0  0
    4.3574    2.9136    3.8320 H   0  0  0  0  0  0  0  0  0  0  0  0
    5.4503    1.7305    4.6273 H   0  0  0  0  0  0  0  0  0  0  0  0
 22 24  2  0  0  0  0
 24 26  1  0  0  0  0
 25 26  2  0  0  0  0
 23 25  1  0  0  0  0
 21 22  1  0  0  0  0
 22 23  1  0  0  0  0
  1  3  1  0  0  0  0
  1  7  1  0  0  0  0
  1  2  2  0  0  0  0
 35 36  1  0  0  0  0
 36 44  1  0  0  0  0
 36 37  2  0  0  0  0
  8  9  1  0  0  0  0
  9 17  1  0  0  0  0
  9 10  2  0  0  0  0
 18 19  1  0  0  0  0
 19 34  1  0  0  0  0
 19 20  2  0  0  0  0
 35 38  1  0  0  0  0
  8 11  1  0  0  0  0
 44 45  1  0  0  0  0
 18 21  1  0  0  0  0
 34 35  1  0  0  0  0
  7  8  1  0  0  0  0
 17 18  1  0  0  0  0
 24 32  1  0  0  0  0
 25 33  1  0  0  0  0
  3  4  1  0  0  0  0
  3  5  1  0  0  0  0
  3  6  1  0  0  0  0
 38 41  1  0  0  0  0
 38 42  1  0  0  0  0
 38 43  1  0  0  0  0
 11 14  1  0  0  0  0
 11 15  1  0  0  0  0
 11 16  1  0  0  0  0
 45 47  1  0  0  0  0
 45 48  1  0  0  0  0
 45 49  1  0  0  0  0
 21 29  1  0  0  0  0
 21 30  1  0  0  0  0
 35 40  1  0  0  0  0
  8 13  1  0  0  0  0
 18 28  1  0  0  0  0
 23 31  1  0  0  0  0
 44 46  1  0  0  0  0
  7 12  1  0  0  0  0
 34 39  1  0  0  0  0
 17 27  1  0  0  0  0
M  END
$$$$

  -OEChem-05262214473D

 49 49  0     1  0  0  0  0  0999 V2000
   -1.5619    0.5658    3.7981 C   0  0  0  0  0  0  0  0  0  0  0  0
   -0.6145   -0.0489    3.3224 O   0  0  0  0  0  0  0  0  0  0  0  0
   -1.9938    0.2834    5.1988 C   0  0  0  0  0  0  0  0  0  0  0  0
   -2.7535   -0.5129    5.2522 H   0  0  0  0  0  0  0  0  0  0  0  0
   -1.1626   -0.0642    5.8331 H   0  0  0  0  0  0  0  0  0  0  0  0
   -2.4318    1.1383    5.7384 H   0  0  0  0  0  0  0  0  0  0  0  0
   -2.3116    1.5383    3.1570 N   0  0  0  0  0  0  0  0  0  0  0  0
   -2.0648    1.9643    1.8046 C   0  0  2  0  0  0  0  0  0  0  0  0
   -0.7298    1.3789    1.3634 C   0  0  0  0  0  0  0  0  0  0  0  0
    0.1423    1.0262    2.1547 O   0  0  0  0  0  0  0  0  0  0  0  0
   -2.0560    3.4811    1.6952 C   0  0  0  0  0  0  0  0  0  0  0  0
   -3.0767    1.9741    3.6688 H   0  0  0  0  0  0  0  0  0  0  0  0
   -2.8689    1.5458    1.1895 H   0  0  0  0  0  0  0  0  0  0  0  0
   -1.2569    3.9183    2.3049 H   0  0  0  0  0  0  0  0  0  0  0  0
   -1.8965    3.8033    0.6609 H   0  0  0  0  0  0  0  0  0  0  0  0
   -3.0062    3.9023    2.0409 H   0  0  0  0  0  0  0  0  0  0  0  0
   -0.6071    1.3358   -0.0200 N   0  0  0  0  0  0  0  0  0  0  0  0
    0.5702    0.8350   -0.6836 C   0  0  2  0  0  0  0  0  0  0  0  0
    1.6793    0.7619    0.3597 C   0  0  0  0  0  0  0  0  0  0  0  0
    1.4672    0.5191    1.5459 O   0  0  0  0  0  0  0  0  0  0  0  0
    0.9982    1.7269   -1.8548 C   0  0  0  0  0  0  0  0  0  0  0  0
   -0.0282    1.7707   -2.9604 C   0  0  0  0  0  0  0  0  0  0  0  0
   -0.2194    0.7366   -3.8329 N   0  0  0  0  0  0  0  0  0  0  0  0
   -0.9340    2.7300   -3.3476 C   0  0  0  0  0  0  0  0  0  0  0  0
   -1.2135    1.1066   -4.6955 C   0  0  0  0  0  0  0  0  0  0  0  0
   -1.6690    2.3104   -4.4280 N   0  0  0  0  0  0  0  0  0  0  0  0
   -1.3903    1.6325   -0.5973 H   0  0  0  0  0  0  0  0  0  0  0  0
    0.3297   -0.1792   -1.0234 H   0  0  0  0  0  0  0  0  0  0  0  0
    1.9619    1.3880   -2.2586 H   0  0  0  0  0  0  0  0  0  0  0  0
    1.1758    2.7540   -1.5097 H   0  0  0  0  0  0  0  0  0  0  0  0
    0.2818   -0.1421   -3.8423 H   0  0  0  0  0  0  0  0  0  0  0  0
   -1.0962    3.7024   -2.9048 H   0  0  0  0  0  0  0  0  0  0  0  0
   -1.5556    0.4580   -5.4894 H   0  0  0  0  0  0  0  0  0  0  0  0
    2.9344    0.9504   -0.2021 N   0  0  0  0  0  0  0  0  0  0  0  0
    4.1605    0.9073    0.5619 C   0  0  2  0  0  0  0  0  0  0  0  0
    3.9920    1.8152    1.7730 C   0  0  0  0  0  0  0  0  0  0  0  0
    3.1746    2.7324    1.8153 O   0  0  0  0  0  0  0  0  0  0  0  0
    5.3519    1.3385   -0.2791 C   0  0  0  0  0  0  0  0  0  0  0  0
    2.9943    1.1275   -1.2005 H   0  0  0  0  0  0  0  0  0  0  0  0
    4.2888   -0.1280    0.8959 H   0  0  0  0  0  0  0  0  0  0  0  0
    5.2413    2.3734   -0.6229 H   0  0  0  0  0  0  0  0  0  0  0  0
    6.2838    1.2780    0.2927 H   0  0  0  0  0  0  0  0  0  0  0  0
    5.4538    0.7030   -1.1654 H   0  0  0  0  0  0  0  0  0  0  0  0
    4.8914    1.5082    2.7845 N   0  0  0  0  0  0  0  0  0  0  0  0
    4.9397    2.2349    4.0318 C   0  0  0  0  0  0  0  0  0  0  0  0
    5.5207    0.7190    2.6710 H   0  0  0  0  0  0  0  0  0  0  0  0
    5.6728    3.0512    3.9529 H   0  0  0  0  0  0  0  0  0  0  0  0
    3.9465    2.6539    4.2506 H   0  0  0  0  0  0  0  0  0  0  0  0
    5.2365    1.5527    4.8421 H   0  0  0  0  0  0  0  0  0  0  0  0
 22 24  2  0  0  0  0
 24 26  1  0  0  0  0
 25 26  2  0  0  0  0
 23 25  1  0  0  0  0
 21 22  1  0  0  0  0
 22 23  1  0  0  0  0
  1  3  1  0  0  0  0
  1  7  1  0  0  0  0
  1  2  2  0  0  0  0
 35 36  1  0  0  0  0
 36 44  1  0  0  0  0
 36 37  2  0  0  0  0
  8  9  1  0  0  0  0
  9 17  1  0  0  0  0
  9 10  2  0  0  0  0
 18 19  1  0  0  0  0
 19 34  1  0  0  0  0
 19 20  2  0  0  0  0
 35 38  1  0  0  0  0
  8 11  1  0  0  0  0
 44 45  1  0  0  0  0
 18 21  1  0  0  0  0
 34 35  1  0  0  0  0
  7  8  1  0  0  0  0
 17 18  1  0  0  0  0
 24 32  1  0  0  0  0
 25 33  1  0  0  0  0
  3  4  1  0  0  0  0
  3  5  1  0  0  0  0
  3  6  1  0  0  0  0
 38 41  1  0  0  0  0
 38 42  1  0  0  0  0
 38 43  1  0  0  0  0
 11 14  1  0  0  0  0
 11 15  1  0  0  0  0
 11 16  1  0  0  0  0
 45 47  1  0  0  0  0
 45 48  1  0  0  0  0
 45 49  1  0  0  0  0
 21 29  1  0  0  0  0
 21 30  1  0  0  0  0
 35 40  1  0  0  0  0
  8 13  1  0  0  0  0
 18 28  1  0  0  0  0
 23 31  1  0  0  0  0
 44 46  1  0  0  0  0
  7 12  1  0  0  0  0
 34 39  1  0  0  0  0
 17 27  1  0  0  0  0
M  END
$$$$

  -OEChem-05262214473D

 49 49  0     1  0  0  0  0  0999 V2000
   -1.5619    0.5658    3.7981 C   0  0  0  0  0  0  0  0  0  0  0  0
   -0.6145   -0.0489    3.3224 O   0  0  0  0  0  0  0  0  0  0  0  0
   -1.9938    0.2834    5.1988 C   0  0  0  0  0  0  0  0  0  0  0  0
   -2.7535   -0.5129    5.2522 H   0  0  0  0  0  0  0  0  0  0  0  0
   -1.1626   -0.0642    5.8331 H   0  0  0  0  0  0  0  0  0  0  0  0
   -2.4318    1.1383    5.7384 H   0  0  0  0  0  0  0  0  0  0  0  0
   -2.3116    1.5383    3.1570 N   0  0  0  0  0  0  0  0  0  0  0  0
   -2.0648    1.9643    1.8046 C   0  0  2  0  0  0  0  0  0  0  0  0
   -0.7298    1.3789    1.3634 C   0  0  0  0  0  0  0  0  0  0  0  0
    0.1423    1.0262    2.1547 O   0  0  0  0  0  0  0  0  0  0  0  0
   -2.0560    3.4811    1.6952 C   0  0  0  0  0  0  0  0  0  0  0  0
   -3.0767    1.9741    3.6688 H   0  0  0  0  0  0  0  0  0  0  0  0
   -2.8689    1.5458    1.1895 H   0  0  0  0  0  0  0  0  0  0  0  0
   -1.2569    3.9183    2.3049 H   0  0  0  0  0  0  0  0  0  0  0  0
   -1.8965    3.8033    0.6609 H   0  0  0  0  0  0  0  0  0  0  0  0
   -3.0062    3.9023    2.0409 H   0  0  0  0  0  0  0  0  0  0  0  0
   -0.6071    1.3358   -0.0200 N   0  0  0  0  0  0  0  0  0  0  0  0
    0.5702    0.8350   -0.6836 C   0  0  2  0  0  0  0  0  0  0  0  0
    1.6793    0.7619    0.3597 C   0  0  0  0  0  0  0  0  0  0  0  0
    1.5193    0.2654    1.4727 O   0  0  0  0  0  0  0  0  0  0  0  0
    0.9982    1.7269   -1.8548 C   0  0  0  0  0  0  0  0  0  0  0  0
   -0.0282    1.7707   -2.9604 C   0  0  0  0  0  0  0  0  0  0  0  0
   -0.2194    0.7366   -3.8329 N   0  0  0  0  0  0  0  0  0  0  0  0
   -0.9340    2.7300   -3.3476 C   0  0  0  0  0  0  0  0  0  0  0  0
   -1.2135    1.1066   -4.6955 C   0  0  0  0  0  0  0  0  0  0  0  0
   -1.6690    2.3104   -4.4280 N   0  0  0  0  0  0  0  0  0  0  0  0
   -1.3903    1.6325   -0.5973 H   0  0  0  0  0  0  0  0  0  0  0  0
    0.3297   -0.1792   -1.0234 H   0  0  0  0  0  0  0  0  0  0  0  0
    1.9619    1.3880   -2.2586 H   0  0  0  0  0  0  0  0  0  0  0  0
    1.1758    2.7540   -1.5097 H   0  0  0  0  0  0  0  0  0  0  0  0
    0.2818   -0.1421   -3.8423 H   0  0  0  0  0  0  0  0  0  0  0  0
   -1.0962    3.7024   -2.9048 H   0  0  0  0  0  0  0  0  0  0  0  0
   -1.5556    0.4580   -5.4894 H   0  0  0  0  0  0  0  0  0  0  0  0
    2.8781    1.2712   -0.1198 N   0  0  0  0  0  0  0  0  0  0  0  0
    4.0957    1.3006    0.6583 C   0  0  2  0  0  0  0  0  0  0  0  0
    3.7735    1.9186    2.0125 C   0  0  0  0  0  0  0  0  0  0  0  0
    2.8059    2.6528    2.2017 O   0  0  0  0  0  0  0  0  0  0  0  0
    5.1873    2.0861   -0.0517 C   0  0  0  0  0  0  0  0  0  0  0  0
    2.9009    1.6420   -1.0652 H   0  0  0  0  0  0  0  0  0  0  0  0
    4.4081    0.2598    0.7963 H   0  0  0  0  0  0  0  0  0  0  0  0
    4.8923    3.1314   -0.1988 H   0  0  0  0  0  0  0  0  0  0  0  0
    6.1176    2.0833    0.5258 H   0  0  0  0  0  0  0  0  0  0  0  0
    5.3968    1.6579   -1.0379 H   0  0  0  0  0  0  0  0  0  0  0  0
    4.7178    1.5887    2.9747 N   0  0  0  0  0  0  0  0  0  0  0  0
    4.6415    2.0629    4.3368 C   0  0  0  0  0  0  0  0  0  0  0  0
    5.4772    0.9585    2.7340 H   0  0  0  0  0  0  0  0  0  0  0  0
    5.2168    2.9954    4.4337 H   0  0  0  0  0  0  0  0  0  0  0  0
    3.5905    2.2515    4.6009 H   0  0  0  0  0  0  0  0  0  0  0  0
    5.0588    1.3026    5.0134 H   0  0  0  0  0  0  0  0  0  0  0  0
 22 24  2  0  0  0  0
 24 26  1  0  0  0  0
 25 26  2  0  0  0  0
 23 25  1  0  0  0  0
 21 22  1  0  0  0  0
 22 23  1  0  0  0  0
  1  3  1  0  0  0  0
  1  7  1  0  0  0  0
  1  2  2  0  0  0  0
 35 36  1  0  0  0  0
 36 44  1  0  0  0  0
 36 37  2  0  0  0  0
  8  9  1  0  0  0  0
  9 17  1  0  0  0  0
  9 10  2  0  0  0  0
 18 19  1  0  0  0  0
 19 34  1  0  0  0  0
 19 20  2  0  0  0  0
 35 38  1  0  0  0  0
  8 11  1  0  0  0  0
 44 45  1  0  0  0  0
 18 21  1  0  0  0  0
 34 35  1  0  0  0  0
  7  8  1  0  0  0  0
 17 18  1  0  0  0  0
 24 32  1  0  0  0  0
 25 33  1  0  0  0  0
  3  4  1  0  0  0  0
  3  5  1  0  0  0  0
  3  6  1  0  0  0  0
 38 41  1  0  0  0  0
 38 42  1  0  0  0  0
 38 43  1  0  0  0  0
 11 14  1  0  0  0  0
 11 15  1  0  0  0  0
 11 16  1  0  0  0  0
 45 47  1  0  0  0  0
 45 48  1  0  0  0  0
 45 49  1  0  0  0  0
 21 29  1  0  0  0  0
 21 30  1  0  0  0  0
 35 40  1  0  0  0  0
  8 13  1  0  0  0  0
 18 28  1  0  0  0  0
 23 31  1  0  0  0  0
 44 46  1  0  0  0  0
  7 12  1  0  0  0  0
 34 39  1  0  0  0  0
 17 27  1  0  0  0  0
M  END
$$$$

  -OEChem-05262214473D

 49 49  0     1  0  0  0  0  0999 V2000
   -1.5619    0.5658    3.7981 C   0  0  0  0  0  0  0  0  0  0  0  0
   -0.6145   -0.0489    3.3224 O   0  0  0  0  0  0  0  0  0  0  0  0
   -1.9938    0.2834    5.1988 C   0  0  0  0  0  0  0  0  0  0  0  0
   -2.7535   -0.5129    5.2522 H   0  0  0  0  0  0  0  0  0  0  0  0
   -1.1626   -0.0642    5.8331 H   0  0  0  0  0  0  0  0  0  0  0  0
   -2.4318    1.1383    5.7384 H   0  0  0  0  0  0  0  0  0  0  0  0
   -2.3116    1.5383    3.1570 N   0  0  0  0  0  0  0  0  0  0  0  0
   -2.0648    1.9643    1.8046 C   0  0  2  0  0  0  0  0  0  0  0  0
   -0.7298    1.3789    1.3634 C   0  0  0  0  0  0  0  0  0  0  0  0
    0.1423    1.0262    2.1547 O   0  0  0  0  0  0  0  0  0  0  0  0
   -2.0560    3.4811    1.6952 C   0  0  0  0  0  0  0  0  0  0  0  0
   -3.0767    1.9741    3.6688 H   0  0  0  0  0  0  0  0  0  0  0  0
   -2.8689    1.5458    1.1895 H   0  0  0  0  0  0  0  0  0  0  0  0
   -1.2569    3.9183    2.3049 H   0  0  0  0  0  0  0  0  0  0  0  0
   -1.8965    3.8033    0.6609 H   0  0  0  0  0  0  0  0  0  0  0  0
   -3.0062    3.9023    2.0409 H   0  0  0  0  0  0  0  0  0  0  0  0
   -0.6071    1.3358   -0.0200 N   0  0  0  0  0  0  0  0  0  0  0  0
    0.5702    0.8350   -0.6836 C   0  0  2  0  0  0  0  0  0  0  0  0
    1.6793    0.7619    0.3597 C   0  0  0  0  0  0  0  0  0  0  0  0
    1.6155    0.0433    1.3549 O   0  0  0  0  0  0  0  0  0  0  0  0
    0.9982    1.7269   -1.8548 C   0  0  0  0  0  0  0  0  0  0  0  0
   -0.0282    1.7707   -2.9604 C   0  0  0  0  0  0  0  0  0  0  0  0
   -0.2194    0.7366   -3.8329 N   0  0  0  0  0  0  0  0  0  0  0  0
   -0.9340    2.7300   -3.3476 C   0  0  0  0  0  0  0  0  0  0  0  0
   -1.2135    1.1066   -4.6955 C   0  0  0  0  0  0  0  0  0  0  0  0
   -1.6690    2.3104   -4.4280 N   0  0  0  0  0  0  0  0  0  0  0  0
   -1.3903    1.6325   -0.5973 H   0  0  0  0  0  0  0  0  0  0  0  0
    0.3297   -0.1792   -1.0234 H   0  0  0  0  0  0  0  0  0  0  0  0
    1.9619    1.3880   -2.2586 H   0  0  0  0  0  0  0  0  0  0  0  0
    1.1758    2.7540   -1.5097 H   0  0  0  0  0  0  0  0  0  0  0  0
    0.2818   -0.1421   -3.8423 H   0  0  0  0  0  0  0  0  0  0  0  0
   -1.0962    3.7024   -2.9048 H   0  0  0  0  0  0  0  0  0  0  0  0
   -1.5556    0.4580   -5.4894 H   0  0  0  0  0  0  0  0  0  0  0  0
    2.7659    1.5557    0.0194 N   0  0  0  0  0  0  0  0  0  0  0  0
    3.9622    1.6509    0.8248 C   0  0  2  0  0  0  0  0  0  0  0  0
    3.5412    1.9347    2.2606 C   0  0  0  0  0  0  0  0  0  0  0  0
    2.4590    2.4378    2.5554 O   0  0  0  0  0  0  0  0  0  0  0  0
    4.8930    2.7362    0.3067 C   0  0  0  0  0  0  0  0  0  0  0  0
    2.7179    2.0969   -0.8388 H   0  0  0  0  0  0  0  0  0  0  0  0
    4.4558    0.6743    0.7745 H   0  0  0  0  0  0  0  0  0  0  0  0
    4.4157    3.7220    0.3493 H   0  0  0  0  0  0  0  0  0  0  0  0
    5.8116    2.7878    0.9005 H   0  0  0  0  0  0  0  0  0  0  0  0
    5.1710    2.5463   -0.7356 H   0  0  0  0  0  0  0  0  0  0  0  0
    4.5335    1.5999    3.1713 N   0  0  0  0  0  0  0  0  0  0  0  0
    4.3801    1.7865    4.5953 C   0  0  0  0  0  0  0  0  0  0  0  0
    5.3921    1.1703    2.8394 H   0  0  0  0  0  0  0  0  0  0  0  0
    4.7804    2.7701    4.8819 H   0  0  0  0  0  0  0  0  0  0  0  0
    3.3135    1.7337    4.8590 H   0  0  0  0  0  0  0  0  0  0  0  0
    4.9294    0.9973    5.1296 H   0  0  0  0  0  0  0  0  0  0  0  0
 22 24  2  0  0  0  0
 24 26  1  0  0  0  0
 25 26  2  0  0  0  0
 23 25  1  0  0  0  0
 21 22  1  0  0  0  0
 22 23  1  0  0  0  0
  1  3  1  0  0  0  0
  1  7  1  0  0  0  0
  1  2  2  0  0  0  0
 35 36  1  0  0  0  0
 36 44  1  0  0  0  0
 36 37  2  0  0  0  0
  8  9  1  0  0  0  0
  9 17  1  0  0  0  0
  9 10  2  0  0  0  0
 18 19  1  0  0  0  0
 19 34  1  0  0  0  0
 19 20  2  0  0  0  0
 35 38  1  0  0  0  0
  8 11  1  0  0  0  0
 44 45  1  0  0  0  0
 18 21  1  0  0  0  0
 34 35  1  0  0  0  0
  7  8  1  0  0  0  0
 17 18  1  0  0  0  0
 24 32  1  0  0  0  0
 25 33  1  0  0  0  0
  3  4  1  0  0  0  0
  3  5  1  0  0  0  0
  3  6  1  0  0  0  0
 38 41  1  0  0  0  0
 38 42  1  0  0  0  0
 38 43  1  0  0  0  0
 11 14  1  0  0  0  0
 11 15  1  0  0  0  0
 11 16  1  0  0  0  0
 45 47  1  0  0  0  0
 45 48  1  0  0  0  0
 45 49  1  0  0  0  0
 21 29  1  0  0  0  0
 21 30  1  0  0  0  0
 35 40  1  0  0  0  0
  8 13  1  0  0  0  0
 18 28  1  0  0  0  0
 23 31  1  0  0  0  0
 44 46  1  0  0  0  0
  7 12  1  0  0  0  0
 34 39  1  0  0  0  0
 17 27  1  0  0  0  0
M  END
$$$$

  -OEChem-05262214473D

 49 49  0     1  0  0  0  0  0999 V2000
   -1.5619    0.5658    3.7981 C   0  0  0  0  0  0  0  0  0  0  0  0
   -0.6145   -0.0489    3.3224 O   0  0  0  0  0  0  0  0  0  0  0  0
   -1.9938    0.2834    5.1988 C   0  0  0  0  0  0  0  0  0  0  0  0
   -2.7535   -0.5129    5.2522 H   0  0  0  0  0  0  0  0  0  0  0  0
   -1.1626   -0.0642    5.8331 H   0  0  0  0  0  0  0  0  0  0  0  0
   -2.4318    1.1383    5.7384 H   0  0  0  0  0  0  0  0  0  0  0  0
   -2.3116    1.5383    3.1570 N   0  0  0  0  0  0  0  0  0  0  0  0
   -2.0648    1.9643    1.8046 C   0  0  2  0  0  0  0  0  0  0  0  0
   -0.7298    1.3789    1.3634 C   0  0  0  0  0  0  0  0  0  0  0  0
    0.1423    1.0262    2.1547 O   0  0  0  0  0  0  0  0  0  0  0  0
   -2.0560    3.4811    1.6952 C   0  0  0  0  0  0  0  0  0  0  0  0
   -3.0767    1.9741    3.6688 H   0  0  0  0  0  0  0  0  0  0  0  0
   -2.8689    1.5458    1.1895 H   0  0  0  0  0  0  0  0  0  0  0  0
   -1.2569    3.9183    2.3049 H   0  0  0  0  0  0  0  0  0  0  0  0
   -1.8965    3.8033    0.6609 H   0  0  0  0  0  0  0  0  0  0  0  0
   -3.0062    3.9023    2.0409 H   0  0  0  0  0  0  0  0  0  0  0  0
   -0.6071    1.3358   -0.0200 N   0  0  0  0  0  0  0  0  0  0  0  0
    0.5702    0.8350   -0.6836 C   0  0  2  0  0  0  0  0  0  0  0  0
    1.6793    0.7619    0.3597 C   0  0  0  0  0  0  0  0  0  0  0  0
    1.7492   -0.1320    1.2005 O   0  0  0  0  0  0  0  0  0  0  0  0
    0.9982    1.7269   -1.8548 C   0  0  0  0  0  0  0  0  0  0  0  0
   -0.0282    1.7707   -2.9604 C   0  0  0  0  0  0  0  0  0  0  0  0
   -0.2194    0.7366   -3.8329 N   0  0  0  0  0  0  0  0  0  0  0  0
   -0.9340    2.7300   -3.3476 C   0  0  0  0  0  0  0  0  0  0  0  0
   -1.2135    1.1066   -4.6955 C   0  0  0  0  0  0  0  0  0  0  0  0
   -1.6690    2.3104   -4.4280 N   0  0  0  0  0  0  0  0  0  0  0  0
   -1.3903    1.6325   -0.5973 H   0  0  0  0  0  0  0  0  0  0  0  0
    0.3297   -0.1792   -1.0234 H   0  0  0  0  0  0  0  0  0  0  0  0
    1.9619    1.3880   -2.2586 H   0  0  0  0  0  0  0  0  0  0  0  0
    1.1758    2.7540   -1.5097 H   0  0  0  0  0  0  0  0  0  0  0  0
    0.2818   -0.1421   -3.8423 H   0  0  0  0  0  0  0  0  0  0  0  0
   -1.0962    3.7024   -2.9048 H   0  0  0  0  0  0  0  0  0  0  0  0
   -1.5556    0.4580   -5.4894 H   0  0  0  0  0  0  0  0  0  0  0  0
    2.6054    1.7843    0.2061 N   0  0  0  0  0  0  0  0  0  0  0  0
    3.7692    1.9342    1.0498 C   0  0  2  0  0  0  0  0  0  0  0  0
    3.3109    1.8623    2.5004 C   0  0  0  0  0  0  0  0  0  0  0  0
    2.1577    2.1021    2.8522 O   0  0  0  0  0  0  0  0  0  0  0  0
    4.4892    3.2445    0.7716 C   0  0  0  0  0  0  0  0  0  0  0  0
    2.4577    2.4612   -0.5367 H   0  0  0  0  0  0  0  0  0  0  0  0
    4.4288    1.0872    0.8322 H   0  0  0  0  0  0  0  0  0  0  0  0
    3.8439    4.1048    0.9839 H   0  0  0  0  0  0  0  0  0  0  0  0
    5.3865    3.3435    1.3914 H   0  0  0  0  0  0  0  0  0  0  0  0
    4.7919    3.3074   -0.2792 H   0  0  0  0  0  0  0  0  0  0  0  0
    4.3511    1.5410    3.3611 N   0  0  0  0  0  0  0  0  0  0  0  0
    4.1734    1.4245    4.7897 C   0  0  0  0  0  0  0  0  0  0  0  0
    5.2710    1.3399    2.9800 H   0  0  0  0  0  0  0  0  0  0  0  0
    4.3931    2.3909    5.2670 H   0  0  0  0  0  0  0  0  0  0  0  0
    3.1345    1.1360    5.0074 H   0  0  0  0  0  0  0  0  0  0  0  0
    4.8570    0.6576    5.1828 H   0  0  0  0  0  0  0  0  0  0  0  0
 22 24  2  0  0  0  0
 24 26  1  0  0  0  0
 25 26  2  0  0  0  0
 23 25  1  0  0  0  0
 21 22  1  0  0  0  0
 22 23  1  0  0  0  0
  1  3  1  0  0  0  0
  1  7  1  0  0  0  0
  1  2  2  0  0  0  0
 35 36  1  0  0  0  0
 36 44  1  0  0  0  0
 36 37  2  0  0  0  0
  8  9  1  0  0  0  0
  9 17  1  0  0  0  0
  9 10  2  0  0  0  0
 18 19  1  0  0  0  0
 19 34  1  0  0  0  0
 19 20  2  0  0  0  0
 35 38  1  0  0  0  0
  8 11  1  0  0  0  0
 44 45  1  0  0  0  0
 18 21  1  0  0  0  0
 34 35  1  0  0  0  0
  7  8  1  0  0  0  0
 17 18  1  0  0  0  0
 24 32  1  0  0  0  0
 25 33  1  0  0  0  0
  3  4  1  0  0  0  0
  3  5  1  0  0  0  0
  3  6  1  0  0  0  0
 38 41  1  0  0  0  0
 38 42  1  0  0  0  0
 38 43  1  0  0  0  0
 11 14  1  0  0  0  0
 11 15  1  0  0  0  0
 11 16  1  0  0  0  0
 45 47  1  0  0  0  0
 45 48  1  0  0  0  0
 45 49  1  0  0  0  0
 21 29  1  0  0  0  0
 21 30  1  0  0  0  0
 35 40  1  0  0  0  0
  8 13  1  0  0  0  0
 18 28  1  0  0  0  0
 23 31  1  0  0  0  0
 44 46  1  0  0  0  0
  7 12  1  0  0  0  0
 34 39  1  0  0  0  0
 17 27  1  0  0  0  0
M  END
$$$$

  -OEChem-05262214473D

 49 49  0     1  0  0  0  0  0999 V2000
   -1.5619    0.5658    3.7981 C   0  0  0  0  0  0  0  0  0  0  0  0
   -0.6145   -0.0489    3.3224 O   0  0  0  0  0  0  0  0  0  0  0  0
   -1.9938    0.2834    5.1988 C   0  0  0  0  0  0  0  0  0  0  0  0
   -2.7535   -0.5129    5.2522 H   0  0  0  0  0  0  0  0  0  0  0  0
   -1.1626   -0.0642    5.8331 H   0  0  0  0  0  0  0  0  0  0  0  0
   -2.4318    1.1383    5.7384 H   0  0  0  0  0  0  0  0  0  0  0  0
   -2.3116    1.5383    3.1570 N   0  0  0  0  0  0  0  0  0  0  0  0
   -2.0648    1.9643    1.8046 C   0  0  2  0  0  0  0  0  0  0  0  0
   -0.7298    1.3789    1.3634 C   0  0  0  0  0  0  0  0  0  0  0  0
    0.1423    1.0262    2.1547 O   0  0  0  0  0  0  0  0  0  0  0  0
   -2.0560    3.4811    1.6952 C   0  0  0  0  0  0  0  0  0  0  0  0
   -3.0767    1.9741    3.6688 H   0  0  0  0  0  0  0  0  0  0  0  0
   -2.8689    1.5458    1.1895 H   0  0  0  0  0  0  0  0  0  0  0  0
   -1.2569    3.9183    2.3049 H   0  0  0  0  0  0  0  0  0  0  0  0
   -1.8965    3.8033    0.6609 H   0  0  0  0  0  0  0  0  0  0  0  0
   -3.0062    3.9023    2.0409 H   0  0  0  0  0  0  0  0  0  0  0  0
   -0.6071    1.3358   -0.0200 N   0  0  0  0  0  0  0  0  0  0  0  0
    0.5702    0.8350   -0.6836 C   0  0  2  0  0  0  0  0  0  0  0  0
    1.6793    0.7619    0.3597 C   0  0  0  0  0  0  0  0  0  0  0  0
    1.9113   -0.2486    1.0200 O   0  0  0  0  0  0  0  0  0  0  0  0
    0.9982    1.7269   -1.8548 C   0  0  0  0  0  0  0  0  0  0  0  0
   -0.0282    1.7707   -2.9604 C   0  0  0  0  0  0  0  0  0  0  0  0
   -0.2194    0.7366   -3.8329 N   0  0  0  0  0  0  0  0  0  0  0  0
   -0.9340    2.7300   -3.3476 C   0  0  0  0  0  0  0  0  0  0  0  0
   -1.2135    1.1066   -4.6955 C   0  0  0  0  0  0  0  0  0  0  0  0
   -1.6690    2.3104   -4.4280 N   0  0  0  0  0  0  0  0  0  0  0  0
   -1.3903    1.6325   -0.5973 H   0  0  0  0  0  0  0  0  0  0  0  0
    0.3297   -0.1792   -1.0234 H   0  0  0  0  0  0  0  0  0  0  0  0
    1.9619    1.3880   -2.2586 H   0  0  0  0  0  0  0  0  0  0  0  0
    1.1758    2.7540   -1.5097 H   0  0  0  0  0  0  0  0  0  0  0  0
    0.2818   -0.1421   -3.8423 H   0  0  0  0  0  0  0  0  0  0  0  0
   -1.0962    3.7024   -2.9048 H   0  0  0  0  0  0  0  0  0  0  0  0
   -1.5556    0.4580   -5.4894 H   0  0  0  0  0  0  0  0  0  0  0  0
    2.4075    1.9416    0.4275 N   0  0  0  0  0  0  0  0  0  0  0  0
    3.5298    2.1313    1.3182 C   0  0  2  0  0  0  0  0  0  0  0  0
    3.0982    1.7064    2.7156 C   0  0  0  0  0  0  0  0  0  0  0  0
    1.9224    1.6685    3.0720 O   0  0  0  0  0  0  0  0  0  0  0  0
    4.0033    3.5765    1.3114 C   0  0  0  0  0  0  0  0  0  0  0  0
    2.1381    2.7102   -0.1795 H   0  0  0  0  0  0  0  0  0  0  0  0
    4.3289    1.4704    0.9653 H   0  0  0  0  0  0  0  0  0  0  0  0
    3.2160    4.2537    1.6620 H   0  0  0  0  0  0  0  0  0  0  0  0
    4.8714    3.7126    1.9648 H   0  0  0  0  0  0  0  0  0  0  0  0
    4.2851    3.8895    0.3003 H   0  0  0  0  0  0  0  0  0  0  0  0
    4.1830    1.4160    3.5311 N   0  0  0  0  0  0  0  0  0  0  0  0
    4.0354    1.0016    4.9067 C   0  0  0  0  0  0  0  0  0  0  0  0
    5.1222    1.4559    3.1463 H   0  0  0  0  0  0  0  0  0  0  0  0
    4.0815    1.8834    5.5628 H   0  0  0  0  0  0  0  0  0  0  0  0
    3.0656    0.4989    5.0360 H   0  0  0  0  0  0  0  0  0  0  0  0
    4.8466    0.3067    5.1693 H   0  0  0  0  0  0  0  0  0  0  0  0
 22 24  2  0  0  0  0
 24 26  1  0  0  0  0
 25 26  2  0  0  0  0
 23 25  1  0  0  0  0
 21 22  1  0  0  0  0
 22 23  1  0  0  0  0
  1  3  1  0  0  0  0
  1  7  1  0  0  0  0
  1  2  2  0  0  0  0
 35 36  1  0  0  0  0
 36 44  1  0  0  0  0
 36 37  2  0  0  0  0
  8  9  1  0  0  0  0
  9 17  1  0  0  0  0
  9 10  2  0  0  0  0
 18 19  1  0  0  0  0
 19 34  1  0  0  0  0
 19 20  2  0  0  0  0
 35 38  1  0  0  0  0
  8 11  1  0  0  0  0
 44 45  1  0  0  0  0
 18 21  1  0  0  0  0
 34 35  1  0  0  0  0
  7  8  1  0  0  0  0
 17 18  1  0  0  0  0
 24 32  1  0  0  0  0
 25 33  1  0  0  0  0
  3  4  1  0  0  0  0
  3  5  1  0  0  0  0
  3  6  1  0  0  0  0
 38 41  1  0  0  0  0
 38 42  1  0  0  0  0
 38 43  1  0  0  0  0
 11 14  1  0  0  0  0
 11 15  1  0  0  0  0
 11 16  1  0  0  0  0
 45 47  1  0  0  0  0
 45 48  1  0  0  0  0
 45 49  1  0  0  0  0
 21 29  1  0  0  0  0
 21 30  1  0  0  0  0
 35 40  1  0  0  0  0
  8 13  1  0  0  0  0
 18 28  1  0  0  0  0
 23 31  1  0  0  0  0
 44 46  1  0  0  0  0
  7 12  1  0  0  0  0
 34 39  1  0  0  0  0
 17 27  1  0  0  0  0
M  END
$$$$

  -OEChem-05262214473D

 49 49  0     1  0  0  0  0  0999 V2000
   -1.5619    0.5658    3.7981 C   0  0  0  0  0  0  0  0  0  0  0  0
   -0.6145   -0.0489    3.3224 O   0  0  0  0  0  0  0  0  0  0  0  0
   -1.9938    0.2834    5.1988 C   0  0  0  0  0  0  0  0  0  0  0  0
   -2.7535   -0.5129    5.2522 H   0  0  0  0  0  0  0  0  0  0  0  0
   -1.1626   -0.0642    5.8331 H   0  0  0  0  0  0  0  0  0  0  0  0
   -2.4318    1.1383    5.7384 H   0  0  0  0  0  0  0  0  0  0  0  0
   -2.3116    1.5383    3.1570 N   0  0  0  0  0  0  0  0  0  0  0  0
   -2.0648    1.9643    1.8046 C   0  0  2  0  0  0  0  0  0  0  0  0
   -0.7298    1.3789    1.3634 C   0  0  0  0  0  0  0  0  0  0  0  0
    0.1423    1.0262    2.1547 O   0  0  0  0  0  0  0  0  0  0  0  0
   -2.0560    3.4811    1.6952 C   0  0  0  0  0  0  0  0  0  0  0  0
   -3.0767    1.9741    3.6688 H   0  0  0  0  0  0  0  0  0  0  0  0
   -2.8689    1.5458    1.1895 H   0  0  0  0  0  0  0  0  0  0  0  0
   -1.2569    3.9183    2.3049 H   0  0  0  0  0  0  0  0  0  0  0  0
   -1.8965    3.8033    0.6609 H   0  0  0  0  0  0  0  0  0  0  0  0
   -3.0062    3.9023    2.0409 H   0  0  0  0  0  0  0  0  0  0  0  0
   -0.6071    1.3358   -0.0200 N   0  0  0  0  0  0  0  0  0  0  0  0
    0.5702    0.8350   -0.6836 C   0  0  2  0  0  0  0  0  0  0  0  0
    1.6793    0.7619    0.3597 C   0  0  0  0  0  0  0  0  0  0  0  0
    2.0908   -0.2985    0.8257 O   0  0  0  0  0  0  0  0  0  0  0  0
    0.9982    1.7269   -1.8548 C   0  0  0  0  0  0  0  0  0  0  0  0
   -0.0282    1.7707   -2.9604 C   0  0  0  0  0  0  0  0  0  0  0  0
   -0.2194    0.7366   -3.8329 N   0  0  0  0  0  0  0  0  0  0  0  0
   -0.9340    2.7300   -3.3476 C   0  0  0  0  0  0  0  0  0  0  0  0
   -1.2135    1.1066   -4.6955 C   0  0  0  0  0  0  0  0  0  0  0  0
   -1.6690    2.3104   -4.4280 N   0  0  0  0  0  0  0  0  0  0  0  0
   -1.3903    1.6325   -0.5973 H   0  0  0  0  0  0  0  0  0  0  0  0
    0.3297   -0.1792   -1.0234 H   0  0  0  0  0  0  0  0  0  0  0  0
    1.9619    1.3880   -2.2586 H   0  0  0  0  0  0  0  0  0  0  0  0
    1.1758    2.7540   -1.5097 H   0  0  0  0  0  0  0  0  0  0  0  0
    0.2818   -0.1421   -3.8423 H   0  0  0  0  0  0  0  0  0  0  0  0
   -1.0962    3.7024   -2.9048 H   0  0  0  0  0  0  0  0  0  0  0  0
   -1.5556    0.4580   -5.4894 H   0  0  0  0  0  0  0  0  0  0  0  0
    2.1858    2.0167    0.6685 N   0  0  0  0  0  0  0  0  0  0  0  0
    3.2602    2.2288    1.6115 C   0  0  2  0  0  0  0  0  0  0  0  0
    2.9177    1.4777    2.8914 C   0  0  0  0  0  0  0  0  0  0  0  0
    1.7691    1.1667    3.1997 O   0  0  0  0  0  0  0  0  0  0  0  0
    3.4685    3.7094    1.8893 C   0  0  0  0  0  0  0  0  0  0  0  0
    1.7809    2.8268    0.2085 H   0  0  0  0  0  0  0  0  0  0  0  0
    4.1628    1.7977    1.1648 H   0  0  0  0  0  0  0  0  0  0  0  0
    2.5746    4.1587    2.3371 H   0  0  0  0  0  0  0  0  0  0  0  0
    4.3013    3.8699    2.5819 H   0  0  0  0  0  0  0  0  0  0  0  0
    3.6853    4.2529    0.9634 H   0  0  0  0  0  0  0  0  0  0  0  0
    4.0406    1.2336    3.6696 N   0  0  0  0  0  0  0  0  0  0  0  0
    3.9755    0.5467    4.9385 C   0  0  0  0  0  0  0  0  0  0  0  0
    4.9559    1.5102    3.3268 H   0  0  0  0  0  0  0  0  0  0  0  0
    3.8666    1.2823    5.7490 H   0  0  0  0  0  0  0  0  0  0  0  0
    3.1115   -0.1341    4.9428 H   0  0  0  0  0  0  0  0  0  0  0  0
    4.8988   -0.0317    5.0900 H   0  0  0  0  0  0  0  0  0  0  0  0
 22 24  2  0  0  0  0
 24 26  1  0  0  0  0
 25 26  2  0  0  0  0
 23 25  1  0  0  0  0
 21 22  1  0  0  0  0
 22 23  1  0  0  0  0
  1  3  1  0  0  0  0
  1  7  1  0  0  0  0
  1  2  2  0  0  0  0
 35 36  1  0  0  0  0
 36 44  1  0  0  0  0
 36 37  2  0  0  0  0
  8  9  1  0  0  0  0
  9 17  1  0  0  0  0
  9 10  2  0  0  0  0
 18 19  1  0  0  0  0
 19 34  1  0  0  0  0
 19 20  2  0  0  0  0
 35 38  1  0  0  0  0
  8 11  1  0  0  0  0
 44 45  1  0  0  0  0
 18 21  1  0  0  0  0
 34 35  1  0  0  0  0
  7  8  1  0  0  0  0
 17 18  1  0  0  0  0
 24 32  1  0  0  0  0
 25 33  1  0  0  0  0
  3  4  1  0  0  0  0
  3  5  1  0  0  0  0
  3  6  1  0  0  0  0
 38 41  1  0  0  0  0
 38 42  1  0  0  0  0
 38 43  1  0  0  0  0
 11 14  1  0  0  0  0
 11 15  1  0  0  0  0
 11 16  1  0  0  0  0
 45 47  1  0  0  0  0
 45 48  1  0  0  0  0
 45 49  1  0  0  0  0
 21 29  1  0  0  0  0
 21 30  1  0  0  0  0
 35 40  1  0  0  0  0
  8 13  1  0  0  0  0
 18 28  1  0  0  0  0
 23 31  1  0  0  0  0
 44 46  1  0  0  0  0
  7 12  1  0  0  0  0
 34 39  1  0  0  0  0
 17 27  1  0  0  0  0
M  END
$$$$

  -OEChem-05262214473D

 49 49  0     1  0  0  0  0  0999 V2000
   -1.5619    0.5658    3.7981 C   0  0  0  0  0  0  0  0  0  0  0  0
   -0.6145   -0.0489    3.3224 O   0  0  0  0  0  0  0  0  0  0  0  0
   -1.9938    0.2834    5.1988 C   0  0  0  0  0  0  0  0  0  0  0  0
   -2.7535   -0.5129    5.2522 H   0  0  0  0  0  0  0  0  0  0  0  0
   -1.1626   -0.0642    5.8331 H   0  0  0  0  0  0  0  0  0  0  0  0
   -2.4318    1.1383    5.7384 H   0  0  0  0  0  0  0  0  0  0  0  0
   -2.3116    1.5383    3.1570 N   0  0  0  0  0  0  0  0  0  0  0  0
   -2.0648    1.9643    1.8046 C   0  0  2  0  0  0  0  0  0  0  0  0
   -0.7298    1.3789    1.3634 C   0  0  0  0  0  0  0  0  0  0  0  0
    0.1423    1.0262    2.1547 O   0  0  0  0  0  0  0  0  0  0  0  0
   -2.0560    3.4811    1.6952 C   0  0  0  0  0  0  0  0  0  0  0  0
   -3.0767    1.9741    3.6688 H   0  0  0  0  0  0  0  0  0  0  0  0
   -2.8689    1.5458    1.1895 H   0  0  0  0  0  0  0  0  0  0  0  0
   -1.2569    3.9183    2.3049 H   0  0  0  0  0  0  0  0  0  0  0  0
   -1.8965    3.8033    0.6609 H   0  0  0  0  0  0  0  0  0  0  0  0
   -3.0062    3.9023    2.0409 H   0  0  0  0  0  0  0  0  0  0  0  0
   -0.6071    1.3358   -0.0200 N   0  0  0  0  0  0  0  0  0  0  0  0
    0.5702    0.8350   -0.6836 C   0  0  2  0  0  0  0  0  0  0  0  0
    1.6793    0.7619    0.3597 C   0  0  0  0  0  0  0  0  0  0  0  0
    2.2754   -0.2783    0.6309 O   0  0  0  0  0  0  0  0  0  0  0  0
    0.9982    1.7269   -1.8548 C   0  0  0  0  0  0  0  0  0  0  0  0
   -0.0282    1.7707   -2.9604 C   0  0  0  0  0  0  0  0  0  0  0  0
   -0.2194    0.7366   -3.8329 N   0  0  0  0  0  0  0  0  0  0  0  0
   -0.9340    2.7300   -3.3476 C   0  0  0  0  0  0  0  0  0  0  0  0
   -1.2135    1.1066   -4.6955 C   0  0  0  0  0  0  0  0  0  0  0  0
   -1.6690    2.3104   -4.4280 N   0  0  0  0  0  0  0  0  0  0  0  0
   -1.3903    1.6325   -0.5973 H   0  0  0  0  0  0  0  0  0  0  0  0
    0.3297   -0.1792   -1.0234 H   0  0  0  0  0  0  0  0  0  0  0  0
    1.9619    1.3880   -2.2586 H   0  0  0  0  0  0  0  0  0  0  0  0
    1.1758    2.7540   -1.5097 H   0  0  0  0  0  0  0  0  0  0  0  0
    0.2818   -0.1421   -3.8423 H   0  0  0  0  0  0  0  0  0  0  0  0
   -1.0962    3.7024   -2.9048 H   0  0  0  0  0  0  0  0  0  0  0  0
   -1.5556    0.4580   -5.4894 H   0  0  0  0  0  0  0  0  0  0  0  0
    1.9553    2.0047    0.9126 N   0  0  0  0  0  0  0  0  0  0  0  0
    2.9790    2.2200    1.9099 C   0  0  2  0  0  0  0  0  0  0  0  0
    2.7818    1.1917    3.0159 C   0  0  0  0  0  0  0  0  0  0  0  0
    1.7084    0.6308    3.2267 O   0  0  0  0  0  0  0  0  0  0  0  0
    2.9211    3.6342    2.4659 C   0  0  0  0  0  0  0  0  0  0  0  0
    1.4103    2.8031    0.6007 H   0  0  0  0  0  0  0  0  0  0  0  0
    3.9419    2.0470    1.4171 H   0  0  0  0  0  0  0  0  0  0  0  0
    1.9635    3.8262    2.9634 H   0  0  0  0  0  0  0  0  0  0  0  0
    3.7152    3.8046    3.2004 H   0  0  0  0  0  0  0  0  0  0  0  0
    3.0334    4.3728    1.6649 H   0  0  0  0  0  0  0  0  0  0  0  0
    3.9337    1.0060    3.7673 N   0  0  0  0  0  0  0  0  0  0  0  0
    3.9979    0.0907    4.8827 C   0  0  0  0  0  0  0  0  0  0  0  0
    4.7835    1.4992    3.5094 H   0  0  0  0  0  0  0  0  0  0  0  0
    3.7633    0.6286    5.8131 H   0  0  0  0  0  0  0  0  0  0  0  0
    3.2692   -0.7198    4.7342 H   0  0  0  0  0  0  0  0  0  0  0  0
    5.0102   -0.3342    4.9504 H   0  0  0  0  0  0  0  0  0  0  0  0
 22 24  2  0  0  0  0
 24 26  1  0  0  0  0
 25 26  2  0  0  0  0
 23 25  1  0  0  0  0
 21 22  1  0  0  0  0
 22 23  1  0  0  0  0
  1  3  1  0  0  0  0
  1  7  1  0  0  0  0
  1  2  2  0  0  0  0
 35 36  1  0  0  0  0
 36 44  1  0  0  0  0
 36 37  2  0  0  0  0
  8  9  1  0  0  0  0
  9 17  1  0  0  0  0
  9 10  2  0  0  0  0
 18 19  1  0  0  0  0
 19 34  1  0  0  0  0
 19 20  2  0  0  0  0
 35 38  1  0  0  0  0
  8 11  1  0  0  0  0
 44 45  1  0  0  0  0
 18 21  1  0  0  0  0
 34 35  1  0  0  0  0
  7  8  1  0  0  0  0
 17 18  1  0  0  0  0
 24 32  1  0  0  0  0
 25 33  1  0  0  0  0
  3  4  1  0  0  0  0
  3  5  1  0  0  0  0
  3  6  1  0  0  0  0
 38 41  1  0  0  0  0
 38 42  1  0  0  0  0
 38 43  1  0  0  0  0
 11 14  1  0  0  0  0
 11 15  1  0  0  0  0
 11 16  1  0  0  0  0
 45 47  1  0  0  0  0
 45 48  1  0  0  0  0
 45 49  1  0  0  0  0
 21 29  1  0  0  0  0
 21 30  1  0  0  0  0
 35 40  1  0  0  0  0
  8 13  1  0  0  0  0
 18 28  1  0  0  0  0
 23 31  1  0  0  0  0
 44 46  1  0  0  0  0
  7 12  1  0  0  0  0
 34 39  1  0  0  0  0
 17 27  1  0  0  0  0
M  END
$$$$

  -OEChem-05262214473D

 49 49  0     1  0  0  0  0  0999 V2000
   -1.5619    0.5658    3.7981 C   0  0  0  0  0  0  0  0  0  0  0  0
   -0.6145   -0.0489    3.3224 O   0  0  0  0  0  0  0  0  0  0  0  0
   -1.9938    0.2834    5.1988 C   0  0  0  0  0  0  0  0  0  0  0  0
   -2.7535   -0.5129    5.2522 H   0  0  0  0  0  0  0  0  0  0  0  0
   -1.1626   -0.0642    5.8331 H   0  0  0  0  0  0  0  0  0  0  0  0
   -2.4318    1.1383    5.7384 H   0  0  0  0  0  0  0  0  0  0  0  0
   -2.3116    1.5383    3.1570 N   0  0  0  0  0  0  0  0  0  0  0  0
   -2.0648    1.9643    1.8046 C   0  0  2  0  0  0  0  0  0  0  0  0
   -0.7298    1.3789    1.3634 C   0  0  0  0  0  0  0  0  0  0  0  0
    0.1423    1.0262    2.1547 O   0  0  0  0  0  0  0  0  0  0  0  0
   -2.0560    3.4811    1.6952 C   0  0  0  0  0  0  0  0  0  0  0  0
   -3.0767    1.9741    3.6688 H   0  0  0  0  0  0  0  0  0  0  0  0
   -2.8689    1.5458    1.1895 H   0  0  0  0  0  0  0  0  0  0  0  0
   -1.2569    3.9183    2.3049 H   0  0  0  0  0  0  0  0  0  0  0  0
   -1.8965    3.8033    0.6609 H   0  0  0  0  0  0  0  0  0  0  0  0
   -3.0062    3.9023    2.0409 H   0  0  0  0  0  0  0  0  0  0  0  0
   -0.6071    1.3358   -0.0200 N   0  0  0  0  0  0  0  0  0  0  0  0
    0.5702    0.8350   -0.6836 C   0  0  2  0  0  0  0  0  0  0  0  0
    1.6793    0.7619    0.3597 C   0  0  0  0  0  0  0  0  0  0  0  0
    2.4526   -0.1895    0.4487 O   0  0  0  0  0  0  0  0  0  0  0  0
    0.9982    1.7269   -1.8548 C   0  0  0  0  0  0  0  0  0  0  0  0
   -0.0282    1.7707   -2.9604 C   0  0  0  0  0  0  0  0  0  0  0  0
   -0.2194    0.7366   -3.8329 N   0  0  0  0  0  0  0  0  0  0  0  0
   -0.9340    2.7300   -3.3476 C   0  0  0  0  0  0  0  0  0  0  0  0
   -1.2135    1.1066   -4.6955 C   0  0  0  0  0  0  0  0  0  0  0  0
   -1.6690    2.3104   -4.4280 N   0  0  0  0  0  0  0  0  0  0  0  0
   -1.3903    1.6325   -0.5973 H   0  0  0  0  0  0  0  0  0  0  0  0
    0.3297   -0.1792   -1.0234 H   0  0  0  0  0  0  0  0  0  0  0  0
    1.9619    1.3880   -2.2586 H   0  0  0  0  0  0  0  0  0  0  0  0
    1.1758    2.7540   -1.5097 H   0  0  0  0  0  0  0  0  0  0  0  0
    0.2818   -0.1421   -3.8423 H   0  0  0  0  0  0  0  0  0  0  0  0
   -1.0962    3.7024   -2.9048 H   0  0  0  0  0  0  0  0  0  0  0  0
   -1.5556    0.4580   -5.4894 H   0  0  0  0  0  0  0  0  0  0  0  0
    1.7318    1.9063    1.1434 N   0  0  0  0  0  0  0  0  0  0  0  0
    2.7052    2.1054    2.1929 C   0  0  2  0  0  0  0  0  0  0  0  0
    2.6995    0.8679    3.0806 C   0  0  0  0  0  0  0  0  0  0  0  0
    1.7444    0.0973    3.1511 O   0  0  0  0  0  0  0  0  0  0  0  0
    2.3986    3.3561    3.0019 C   0  0  0  0  0  0  0  0  0  0  0  0
    1.0518    2.6407    0.9705 H   0  0  0  0  0  0  0  0  0  0  0  0
    3.6813    2.2011    1.7049 H   0  0  0  0  0  0  0  0  0  0  0  0
    1.4244    3.2788    3.4982 H   0  0  0  0  0  0  0  0  0  0  0  0
    3.1529    3.5213    3.7783 H   0  0  0  0  0  0  0  0  0  0  0  0
    2.3737    4.2411    2.3569 H   0  0  0  0  0  0  0  0  0  0  0  0
    3.8696    0.7489    3.8175 N   0  0  0  0  0  0  0  0  0  0  0  0
    4.1010   -0.3353    4.7433 C   0  0  0  0  0  0  0  0  0  0  0  0
    4.6165    1.4236    3.6816 H   0  0  0  0  0  0  0  0  0  0  0  0
    3.7784   -0.0332    5.7506 H   0  0  0  0  0  0  0  0  0  0  0  0
    3.5278   -1.2183    4.4243 H   0  0  0  0  0  0  0  0  0  0  0  0
    5.1732   -0.5805    4.7599 H   0  0  0  0  0  0  0  0  0  0  0  0
 22 24  2  0  0  0  0
 24 26  1  0  0  0  0
 25 26  2  0  0  0  0
 23 25  1  0  0  0  0
 21 22  1  0  0  0  0
 22 23  1  0  0  0  0
  1  3  1  0  0  0  0
  1  7  1  0  0  0  0
  1  2  2  0  0  0  0
 35 36  1  0  0  0  0
 36 44  1  0  0  0  0
 36 37  2  0  0  0  0
  8  9  1  0  0  0  0
  9 17  1  0  0  0  0
  9 10  2  0  0  0  0
 18 19  1  0  0  0  0
 19 34  1  0  0  0  0
 19 20  2  0  0  0  0
 35 38  1  0  0  0  0
  8 11  1  0  0  0  0
 44 45  1  0  0  0  0
 18 21  1  0  0  0  0
 34 35  1  0  0  0  0
  7  8  1  0  0  0  0
 17 18  1  0  0  0  0
 24 32  1  0  0  0  0
 25 33  1  0  0  0  0
  3  4  1  0  0  0  0
  3  5  1  0  0  0  0
  3  6  1  0  0  0  0
 38 41  1  0  0  0  0
 38 42  1  0  0  0  0
 38 43  1  0  0  0  0
 11 14  1  0  0  0  0
 11 15  1  0  0  0  0
 11 16  1  0  0  0  0
 45 47  1  0  0  0  0
 45 48  1  0  0  0  0
 45 49  1  0  0  0  0
 21 29  1  0  0  0  0
 21 30  1  0  0  0  0
 35 40  1  0  0  0  0
  8 13  1  0  0  0  0
 18 28  1  0  0  0  0
 23 31  1  0  0  0  0
 44 46  1  0  0  0  0
  7 12  1  0  0  0  0
 34 39  1  0  0  0  0
 17 27  1  0  0  0  0
M  END
$$$$

  -OEChem-05262214473D

 49 49  0     1  0  0  0  0  0999 V2000
   -1.5619    0.5658    3.7981 C   0  0  0  0  0  0  0  0  0  0  0  0
   -0.6145   -0.0489    3.3224 O   0  0  0  0  0  0  0  0  0  0  0  0
   -1.9938    0.2834    5.1988 C   0  0  0  0  0  0  0  0  0  0  0  0
   -2.7535   -0.5129    5.2522 H   0  0  0  0  0  0  0  0  0  0  0  0
   -1.1626   -0.0642    5.8331 H   0  0  0  0  0  0  0  0  0  0  0  0
   -2.4318    1.1383    5.7384 H   0  0  0  0  0  0  0  0  0  0  0  0
   -2.3116    1.5383    3.1570 N   0  0  0  0  0  0  0  0  0  0  0  0
   -2.0648    1.9643    1.8046 C   0  0  2  0  0  0  0  0  0  0  0  0
   -0.7298    1.3789    1.3634 C   0  0  0  0  0  0  0  0  0  0  0  0
    0.1423    1.0262    2.1547 O   0  0  0  0  0  0  0  0  0  0  0  0
   -2.0560    3.4811    1.6952 C   0  0  0  0  0  0  0  0  0  0  0  0
   -3.0767    1.9741    3.6688 H   0  0  0  0  0  0  0  0  0  0  0  0
   -2.8689    1.5458    1.1895 H   0  0  0  0  0  0  0  0  0  0  0  0
   -1.2569    3.9183    2.3049 H   0  0  0  0  0  0  0  0  0  0  0  0
   -1.8965    3.8033    0.6609 H   0  0  0  0  0  0  0  0  0  0  0  0
   -3.0062    3.9023    2.0409 H   0  0  0  0  0  0  0  0  0  0  0  0
   -0.6071    1.3358   -0.0200 N   0  0  0  0  0  0  0  0  0  0  0  0
    0.5702    0.8350   -0.6836 C   0  0  2  0  0  0  0  0  0  0  0  0
    1.6793    0.7619    0.3597 C   0  0  0  0  0  0  0  0  0  0  0  0
    2.6102   -0.0380    0.2918 O   0  0  0  0  0  0  0  0  0  0  0  0
    0.9982    1.7269   -1.8548 C   0  0  0  0  0  0  0  0  0  0  0  0
   -0.0282    1.7707   -2.9604 C   0  0  0  0  0  0  0  0  0  0  0  0
   -0.2194    0.7366   -3.8329 N   0  0  0  0  0  0  0  0  0  0  0  0
   -0.9340    2.7300   -3.3476 C   0  0  0  0  0  0  0  0  0  0  0  0
   -1.2135    1.1066   -4.6955 C   0  0  0  0  0  0  0  0  0  0  0  0
   -1.6690    2.3104   -4.4280 N   0  0  0  0  0  0  0  0  0  0  0  0
   -1.3903    1.6325   -0.5973 H   0  0  0  0  0  0  0  0  0  0  0  0
    0.3297   -0.1792   -1.0234 H   0  0  0  0  0  0  0  0  0  0  0  0
    1.9619    1.3880   -2.2586 H   0  0  0  0  0  0  0  0  0  0  0  0
    1.1758    2.7540   -1.5097 H   0  0  0  0  0  0  0  0  0  0  0  0
    0.2818   -0.1421   -3.8423 H   0  0  0  0  0  0  0  0  0  0  0  0
   -1.0962    3.7024   -2.9048 H   0  0  0  0  0  0  0  0  0  0  0  0
   -1.5556    0.4580   -5.4894 H   0  0  0  0  0  0  0  0  0  0  0  0
    1.5304    1.7281    1.3449 N   0  0  0  0  0  0  0  0  0  0  0  0
    2.4575    1.8930    2.4413 C   0  0  2  0  0  0  0  0  0  0  0  0
    2.6766    0.5284    3.0812 C   0  0  0  0  0  0  0  0  0  0  0  0
    1.8746   -0.3974    2.9780 O   0  0  0  0  0  0  0  0  0  0  0  0
    1.9365    2.8940    3.4608 C   0  0  0  0  0  0  0  0  0  0  0  0
    0.7296    2.3508    1.2927 H   0  0  0  0  0  0  0  0  0  0  0  0
    3.3987    2.2496    2.0088 H   0  0  0  0  0  0  0  0  0  0  0  0
    0.9939    2.5539    3.9050 H   0  0  0  0  0  0  0  0  0  0  0  0
    2.6528    3.0392    4.2762 H   0  0  0  0  0  0  0  0  0  0  0  0
    1.7513    3.8667    2.9924 H   0  0  0  0  0  0  0  0  0  0  0  0
    3.8525    0.4797    3.8168 N   0  0  0  0  0  0  0  0  0  0  0  0
    4.2778   -0.7023    4.5296 C   0  0  0  0  0  0  0  0  0  0  0  0
    4.4665    1.2887    3.8316 H   0  0  0  0  0  0  0  0  0  0  0  0
    3.9111   -0.6580    5.5658 H   0  0  0  0  0  0  0  0  0  0  0  0
    3.8698   -1.5957    4.0343 H   0  0  0  0  0  0  0  0  0  0  0  0
    5.3765   -0.7536    4.5316 H   0  0  0  0  0  0  0  0  0  0  0  0
 22 24  2  0  0  0  0
 24 26  1  0  0  0  0
 25 26  2  0  0  0  0
 23 25  1  0  0  0  0
 21 22  1  0  0  0  0
 22 23  1  0  0  0  0
  1  3  1  0  0  0  0
  1  7  1  0  0  0  0
  1  2  2  0  0  0  0
 35 36  1  0  0  0  0
 36 44  1  0  0  0  0
 36 37  2  0  0  0  0
  8  9  1  0  0  0  0
  9 17  1  0  0  0  0
  9 10  2  0  0  0  0
 18 19  1  0  0  0  0
 19 34  1  0  0  0  0
 19 20  2  0  0  0  0
 35 38  1  0  0  0  0
  8 11  1  0  0  0  0
 44 45  1  0  0  0  0
 18 21  1  0  0  0  0
 34 35  1  0  0  0  0
  7  8  1  0  0  0  0
 17 18  1  0  0  0  0
 24 32  1  0  0  0  0
 25 33  1  0  0  0  0
  3  4  1  0  0  0  0
  3  5  1  0  0  0  0
  3  6  1  0  0  0  0
 38 41  1  0  0  0  0
 38 42  1  0  0  0  0
 38 43  1  0  0  0  0
 11 14  1  0  0  0  0
 11 15  1  0  0  0  0
 11 16  1  0  0  0  0
 45 47  1  0  0  0  0
 45 48  1  0  0  0  0
 45 49  1  0  0  0  0
 21 29  1  0  0  0  0
 21 30  1  0  0  0  0
 35 40  1  0  0  0  0
  8 13  1  0  0  0  0
 18 28  1  0  0  0  0
 23 31  1  0  0  0  0
 44 46  1  0  0  0  0
  7 12  1  0  0  0  0
 34 39  1  0  0  0  0
 17 27  1  0  0  0  0
M  END
$$$$

  -OEChem-05262214473D

 49 49  0     1  0  0  0  0  0999 V2000
   -1.5619    0.5658    3.7981 C   0  0  0  0  0  0  0  0  0  0  0  0
   -0.6145   -0.0489    3.3224 O   0  0  0  0  0  0  0  0  0  0  0  0
   -1.9938    0.2834    5.1988 C   0  0  0  0  0  0  0  0  0  0  0  0
   -2.7535   -0.5129    5.2522 H   0  0  0  0  0  0  0  0  0  0  0  0
   -1.1626   -0.0642    5.8331 H   0  0  0  0  0  0  0  0  0  0  0  0
   -2.4318    1.1383    5.7384 H   0  0  0  0  0  0  0  0  0  0  0  0
   -2.3116    1.5383    3.1570 N   0  0  0  0  0  0  0  0  0  0  0  0
   -2.0648    1.9643    1.8046 C   0  0  2  0  0  0  0  0  0  0  0  0
   -0.7298    1.3789    1.3634 C   0  0  0  0  0  0  0  0  0  0  0  0
    0.1423    1.0262    2.1547 O   0  0  0  0  0  0  0  0  0  0  0  0
   -2.0560    3.4811    1.6952 C   0  0  0  0  0  0  0  0  0  0  0  0
   -3.0767    1.9741    3.6688 H   0  0  0  0  0  0  0  0  0  0  0  0
   -2.8689    1.5458    1.1895 H   0  0  0  0  0  0  0  0  0  0  0  0
   -1.2569    3.9183    2.3049 H   0  0  0  0  0  0  0  0  0  0  0  0
   -1.8965    3.8033    0.6609 H   0  0  0  0  0  0  0  0  0  0  0  0
   -3.0062    3.9023    2.0409 H   0  0  0  0  0  0  0  0  0  0  0  0
   -0.6071    1.3358   -0.0200 N   0  0  0  0  0  0  0  0  0  0  0  0
    0.5702    0.8350   -0.6836 C   0  0  2  0  0  0  0  0  0  0  0  0
    1.6793    0.7619    0.3597 C   0  0  0  0  0  0  0  0  0  0  0  0
    2.7376    0.1659    0.1706 O   0  0  0  0  0  0  0  0  0  0  0  0
    0.9982    1.7269   -1.8548 C   0  0  0  0  0  0  0  0  0  0  0  0
   -0.0282    1.7707   -2.9604 C   0  0  0  0  0  0  0  0  0  0  0  0
   -0.2194    0.7366   -3.8329 N   0  0  0  0  0  0  0  0  0  0  0  0
   -0.9340    2.7300   -3.3476 C   0  0  0  0  0  0  0  0  0  0  0  0
   -1.2135    1.1066   -4.6955 C   0  0  0  0  0  0  0  0  0  0  0  0
   -1.6690    2.3104   -4.4280 N   0  0  0  0  0  0  0  0  0  0  0  0
   -1.3903    1.6325   -0.5973 H   0  0  0  0  0  0  0  0  0  0  0  0
    0.3297   -0.1792   -1.0234 H   0  0  0  0  0  0  0  0  0  0  0  0
    1.9619    1.3880   -2.2586 H   0  0  0  0  0  0  0  0  0  0  0  0
    1.1758    2.7540   -1.5097 H   0  0  0  0  0  0  0  0  0  0  0  0
    0.2818   -0.1421   -3.8423 H   0  0  0  0  0  0  0  0  0  0  0  0
   -1.0962    3.7024   -2.9048 H   0  0  0  0  0  0  0  0  0  0  0  0
   -1.5556    0.4580   -5.4894 H   0  0  0  0  0  0  0  0  0  0  0  0
    1.3650    1.4825    1.5036 N   0  0  0  0  0  0  0  0  0  0  0  0
    2.2528    1.5972    2.6382 C   0  0  2  0  0  0  0  0  0  0  0  0
    2.7147    0.1963    3.0175 C   0  0  0  0  0  0  0  0  0  0  0  0
    2.0901   -0.8196    2.7193 O   0  0  0  0  0  0  0  0  0  0  0  0
    1.5663    2.2794    3.8112 C   0  0  0  0  0  0  0  0  0  0  0  0
    0.4657    1.9529    1.5453 H   0  0  0  0  0  0  0  0  0  0  0  0
    3.1133    2.1891    2.3079 H   0  0  0  0  0  0  0  0  0  0  0  0
    0.7015    1.7008    4.1561 H   0  0  0  0  0  0  0  0  0  0  0  0
    2.2489    2.3911    4.6601 H   0  0  0  0  0  0  0  0  0  0  0  0
    1.2084    3.2751    3.5280 H   0  0  0  0  0  0  0  0  0  0  0  0
    3.8837    0.2168    3.7652 N   0  0  0  0  0  0  0  0  0  0  0  0
    4.5161   -0.9852    4.2564 C   0  0  0  0  0  0  0  0  0  0  0  0
    4.3437    1.1035    3.9492 H   0  0  0  0  0  0  0  0  0  0  0  0
    4.1522   -1.2032    5.2713 H   0  0  0  0  0  0  0  0  0  0  0  0
    4.2718   -1.8262    3.5908 H   0  0  0  0  0  0  0  0  0  0  0  0
    5.6065   -0.8419    4.2809 H   0  0  0  0  0  0  0  0  0  0  0  0
 22 24  2  0  0  0  0
 24 26  1  0  0  0  0
 25 26  2  0  0  0  0
 23 25  1  0  0  0  0
 21 22  1  0  0  0  0
 22 23  1  0  0  0  0
  1  3  1  0  0  0  0
  1  7  1  0  0  0  0
  1  2  2  0  0  0  0
 35 36  1  0  0  0  0
 36 44  1  0  0  0  0
 36 37  2  0  0  0  0
  8  9  1  0  0  0  0
  9 17  1  0  0  0  0
  9 10  2  0  0  0  0
 18 19  1  0  0  0  0
 19 34  1  0  0  0  0
 19 20  2  0  0  0  0
 35 38  1  0  0  0  0
  8 11  1  0  0  0  0
 44 45  1  0  0  0  0
 18 21  1  0  0  0  0
 34 35  1  0  0  0  0
  7  8  1  0  0  0  0
 17 18  1  0  0  0  0
 24 32  1  0  0  0  0
 25 33  1  0  0  0  0
  3  4  1  0  0  0  0
  3  5  1  0  0  0  0
  3  6  1  0  0  0  0
 38 41  1  0  0  0  0
 38 42  1  0  0  0  0
 38 43  1  0  0  0  0
 11 14  1  0  0  0  0
 11 15  1  0  0  0  0
 11 16  1  0  0  0  0
 45 47  1  0  0  0  0
 45 48  1  0  0  0  0
 45 49  1  0  0  0  0
 21 29  1  0  0  0  0
 21 30  1  0  0  0  0
 35 40  1  0  0  0  0
  8 13  1  0  0  0  0
 18 28  1  0  0  0  0
 23 31  1  0  0  0  0
 44 46  1  0  0  0  0
  7 12  1  0  0  0  0
 34 39  1  0  0  0  0
 17 27  1  0  0  0  0
M  END
$$$$

  -OEChem-05262214473D

 49 49  0     1  0  0  0  0  0999 V2000
   -1.5619    0.5658    3.7981 C   0  0  0  0  0  0  0  0  0  0  0  0
   -0.6145   -0.0489    3.3224 O   0  0  0  0  0  0  0  0  0  0  0  0
   -1.9938    0.2834    5.1988 C   0  0  0  0  0  0  0  0  0  0  0  0
   -2.7535   -0.5129    5.2522 H   0  0  0  0  0  0  0  0  0  0  0  0
   -1.1626   -0.0642    5.8331 H   0  0  0  0  0  0  0  0  0  0  0  0
   -2.4318    1.1383    5.7384 H   0  0  0  0  0  0  0  0  0  0  0  0
   -2.3116    1.5383    3.1570 N   0  0  0  0  0  0  0  0  0  0  0  0
   -2.0648    1.9643    1.8046 C   0  0  2  0  0  0  0  0  0  0  0  0
   -0.7298    1.3789    1.3634 C   0  0  0  0  0  0  0  0  0  0  0  0
    0.1423    1.0262    2.1547 O   0  0  0  0  0  0  0  0  0  0  0  0
   -2.0560    3.4811    1.6952 C   0  0  0  0  0  0  0  0  0  0  0  0
   -3.0767    1.9741    3.6688 H   0  0  0  0  0  0  0  0  0  0  0  0
   -2.8689    1.5458    1.1895 H   0  0  0  0  0  0  0  0  0  0  0  0
   -1.2569    3.9183    2.3049 H   0  0  0  0  0  0  0  0  0  0  0  0
   -1.8965    3.8033    0.6609 H   0  0  0  0  0  0  0  0  0  0  0  0
   -3.0062    3.9023    2.0409 H   0  0  0  0  0  0  0  0  0  0  0  0
   -0.6071    1.3358   -0.0200 N   0  0  0  0  0  0  0  0  0  0  0  0
    0.5702    0.8350   -0.6836 C   0  0  2  0  0  0  0  0  0  0  0  0
    1.6793    0.7619    0.3597 C   0  0  0  0  0  0  0  0  0  0  0  0
    2.8260    0.4082    0.0936 O   0  0  0  0  0  0  0  0  0  0  0  0
    0.9982    1.7269   -1.8548 C   0  0  0  0  0  0  0  0  0  0  0  0
   -0.0282    1.7707   -2.9604 C   0  0  0  0  0  0  0  0  0  0  0  0
   -0.2194    0.7366   -3.8329 N   0  0  0  0  0  0  0  0  0  0  0  0
   -0.9340    2.7300   -3.3476 C   0  0  0  0  0  0  0  0  0  0  0  0
   -1.2135    1.1066   -4.6955 C   0  0  0  0  0  0  0  0  0  0  0  0
   -1.6690    2.3104   -4.4280 N   0  0  0  0  0  0  0  0  0  0  0  0
   -1.3903    1.6325   -0.5973 H   0  0  0  0  0  0  0  0  0  0  0  0
    0.3297   -0.1792   -1.0234 H   0  0  0  0  0  0  0  0  0  0  0  0
    1.9619    1.3880   -2.2586 H   0  0  0  0  0  0  0  0  0  0  0  0
    1.1758    2.7540   -1.5097 H   0  0  0  0  0  0  0  0  0  0  0  0
    0.2818   -0.1421   -3.8423 H   0  0  0  0  0  0  0  0  0  0  0  0
   -1.0962    3.7024   -2.9048 H   0  0  0  0  0  0  0  0  0  0  0  0
   -1.5556    0.4580   -5.4894 H   0  0  0  0  0  0  0  0  0  0  0  0
    1.2468    1.1860    1.6085 N   0  0  0  0  0  0  0  0  0  0  0  0
    2.1050    1.2381    2.7701 C   0  0  2  0  0  0  0  0  0  0  0  0
    2.8110   -0.1057    2.8939 C   0  0  0  0  0  0  0  0  0  0  0  0
    2.3762   -1.1405    2.3926 O   0  0  0  0  0  0  0  0  0  0  0  0
    1.3132    1.5541    4.0294 C   0  0  0  0  0  0  0  0  0  0  0  0
    0.2782    1.4743    1.7111 H   0  0  0  0  0  0  0  0  0  0  0  0
    2.8447    2.0239    2.5819 H   0  0  0  0  0  0  0  0  0  0  0  0
    0.5670    0.7777    4.2343 H   0  0  0  0  0  0  0  0  0  0  0  0
    1.9688    1.6214    4.9039 H   0  0  0  0  0  0  0  0  0  0  0  0
    0.7823    2.5067    3.9272 H   0  0  0  0  0  0  0  0  0  0  0  0
    3.9610   -0.0219    3.6663 N   0  0  0  0  0  0  0  0  0  0  0  0
    4.7999   -1.1648    3.9421 C   0  0  0  0  0  0  0  0  0  0  0  0
    4.2564    0.8808    4.0264 H   0  0  0  0  0  0  0  0  0  0  0  0
    4.4853   -1.6317    4.8871 H   0  0  0  0  0  0  0  0  0  0  0  0
    4.7064   -1.8941    3.1240 H   0  0  0  0  0  0  0  0  0  0  0  0
    5.8473   -0.8392    4.0251 H   0  0  0  0  0  0  0  0  0  0  0  0
 22 24  2  0  0  0  0
 24 26  1  0  0  0  0
 25 26  2  0  0  0  0
 23 25  1  0  0  0  0
 21 22  1  0  0  0  0
 22 23  1  0  0  0  0
  1  3  1  0  0  0  0
  1  7  1  0  0  0  0
  1  2  2  0  0  0  0
 35 36  1  0  0  0  0
 36 44  1  0  0  0  0
 36 37  2  0  0  0  0
  8  9  1  0  0  0  0
  9 17  1  0  0  0  0
  9 10  2  0  0  0  0
 18 19  1  0  0  0  0
 19 34  1  0  0  0  0
 19 20  2  0  0  0  0
 35 38  1  0  0  0  0
  8 11  1  0  0  0  0
 44 45  1  0  0  0  0
 18 21  1  0  0  0  0
 34 35  1  0  0  0  0
  7  8  1  0  0  0  0
 17 18  1  0  0  0  0
 24 32  1  0  0  0  0
 25 33  1  0  0  0  0
  3  4  1  0  0  0  0
  3  5  1  0  0  0  0
  3  6  1  0  0  0  0
 38 41  1  0  0  0  0
 38 42  1  0  0  0  0
 38 43  1  0  0  0  0
 11 14  1  0  0  0  0
 11 15  1  0  0  0  0
 11 16  1  0  0  0  0
 45 47  1  0  0  0  0
 45 48  1  0  0  0  0
 45 49  1  0  0  0  0
 21 29  1  0  0  0  0
 21 30  1  0  0  0  0
 35 40  1  0  0  0  0
  8 13  1  0  0  0  0
 18 28  1  0  0  0  0
 23 31  1  0  0  0  0
 44 46  1  0  0  0  0
  7 12  1  0  0  0  0
 34 39  1  0  0  0  0
 17 27  1  0  0  0  0
M  END
$$$$

  -OEChem-05262214473D

 49 49  0     1  0  0  0  0  0999 V2000
   -1.5619    0.5658    3.7981 C   0  0  0  0  0  0  0  0  0  0  0  0
   -0.6145   -0.0489    3.3224 O   0  0  0  0  0  0  0  0  0  0  0  0
   -1.9938    0.2834    5.1988 C   0  0  0  0  0  0  0  0  0  0  0  0
   -2.7535   -0.5129    5.2522 H   0  0  0  0  0  0  0  0  0  0  0  0
   -1.1626   -0.0642    5.8331 H   0  0  0  0  0  0  0  0  0  0  0  0
   -2.4318    1.1383    5.7384 H   0  0  0  0  0  0  0  0  0  0  0  0
   -2.3116    1.5383    3.1570 N   0  0  0  0  0  0  0  0  0  0  0  0
   -2.0648    1.9643    1.8046 C   0  0  2  0  0  0  0  0  0  0  0  0
   -0.7298    1.3789    1.3634 C   0  0  0  0  0  0  0  0  0  0  0  0
    0.1423    1.0262    2.1547 O   0  0  0  0  0  0  0  0  0  0  0  0
   -2.0560    3.4811    1.6952 C   0  0  0  0  0  0  0  0  0  0  0  0
   -3.0767    1.9741    3.6688 H   0  0  0  0  0  0  0  0  0  0  0  0
   -2.8689    1.5458    1.1895 H   0  0  0  0  0  0  0  0  0  0  0  0
   -1.2569    3.9183    2.3049 H   0  0  0  0  0  0  0  0  0  0  0  0
   -1.8965    3.8033    0.6609 H   0  0  0  0  0  0  0  0  0  0  0  0
   -3.0062    3.9023    2.0409 H   0  0  0  0  0  0  0  0  0  0  0  0
   -0.6071    1.3358   -0.0200 N   0  0  0  0  0  0  0  0  0  0  0  0
    0.5702    0.8350   -0.6836 C   0  0  2  0  0  0  0  0  0  0  0  0
    1.6793    0.7619    0.3597 C   0  0  0  0  0  0  0  0  0  0  0  0
    2.8695    0.6724    0.0659 O   0  0  0  0  0  0  0  0  0  0  0  0
    0.9982    1.7269   -1.8548 C   0  0  0  0  0  0  0  0  0  0  0  0
   -0.0282    1.7707   -2.9604 C   0  0  0  0  0  0  0  0  0  0  0  0
   -0.2194    0.7366   -3.8329 N   0  0  0  0  0  0  0  0  0  0  0  0
   -0.9340    2.7300   -3.3476 C   0  0  0  0  0  0  0  0  0  0  0  0
   -1.2135    1.1066   -4.6955 C   0  0  0  0  0  0  0  0  0  0  0  0
   -1.6690    2.3104   -4.4280 N   0  0  0  0  0  0  0  0  0  0  0  0
   -1.3903    1.6325   -0.5973 H   0  0  0  0  0  0  0  0  0  0  0  0
    0.3297   -0.1792   -1.0234 H   0  0  0  0  0  0  0  0  0  0  0  0
    1.9619    1.3880   -2.2586 H   0  0  0  0  0  0  0  0  0  0  0  0
    1.1758    2.7540   -1.5097 H   0  0  0  0  0  0  0  0  0  0  0  0
    0.2818   -0.1421   -3.8423 H   0  0  0  0  0  0  0  0  0  0  0  0
   -1.0962    3.7024   -2.9048 H   0  0  0  0  0  0  0  0  0  0  0  0
   -1.5556    0.4580   -5.4894 H   0  0  0  0  0  0  0  0  0  0  0  0
    1.1837    0.8589    1.6525 N   0  0  0  0  0  0  0  0  0  0  0  0
    2.0243    0.8402    2.8281 C   0  0  2  0  0  0  0  0  0  0  0  0
    2.9591   -0.3571    2.7188 C   0  0  0  0  0  0  0  0  0  0  0  0
    2.7136   -1.3383    2.0202 O   0  0  0  0  0  0  0  0  0  0  0  0
    1.1945    0.7676    4.1005 C   0  0  0  0  0  0  0  0  0  0  0  0
    0.1798    0.9476    1.7788 H   0  0  0  0  0  0  0  0  0  0  0  0
    2.6111    1.7651    2.8121 H   0  0  0  0  0  0  0  0  0  0  0  0
    0.5997   -0.1524    4.1344 H   0  0  0  0  0  0  0  0  0  0  0  0
    1.8316    0.7823    4.9910 H   0  0  0  0  0  0  0  0  0  0  0  0
    0.5017    1.6138    4.1628 H   0  0  0  0  0  0  0  0  0  0  0  0
    4.0793   -0.2202    3.5267 N   0  0  0  0  0  0  0  0  0  0  0  0
    5.1097   -1.2288    3.6083 C   0  0  0  0  0  0  0  0  0  0  0  0
    4.2105    0.6356    4.0579 H   0  0  0  0  0  0  0  0  0  0  0  0
    4.8877   -1.9142    4.4395 H   0  0  0  0  0  0  0  0  0  0  0  0
    5.1440   -1.7949    2.6657 H   0  0  0  0  0  0  0  0  0  0  0  0
    6.0827   -0.7457    3.7815 H   0  0  0  0  0  0  0  0  0  0  0  0
 22 24  2  0  0  0  0
 24 26  1  0  0  0  0
 25 26  2  0  0  0  0
 23 25  1  0  0  0  0
 21 22  1  0  0  0  0
 22 23  1  0  0  0  0
  1  3  1  0  0  0  0
  1  7  1  0  0  0  0
  1  2  2  0  0  0  0
 35 36  1  0  0  0  0
 36 44  1  0  0  0  0
 36 37  2  0  0  0  0
  8  9  1  0  0  0  0
  9 17  1  0  0  0  0
  9 10  2  0  0  0  0
 18 19  1  0  0  0  0
 19 34  1  0  0  0  0
 19 20  2  0  0  0  0
 35 38  1  0  0  0  0
  8 11  1  0  0  0  0
 44 45  1  0  0  0  0
 18 21  1  0  0  0  0
 34 35  1  0  0  0  0
  7  8  1  0  0  0  0
 17 18  1  0  0  0  0
 24 32  1  0  0  0  0
 25 33  1  0  0  0  0
  3  4  1  0  0  0  0
  3  5  1  0  0  0  0
  3  6  1  0  0  0  0
 38 41  1  0  0  0  0
 38 42  1  0  0  0  0
 38 43  1  0  0  0  0
 11 14  1  0  0  0  0
 11 15  1  0  0  0  0
 11 16  1  0  0  0  0
 45 47  1  0  0  0  0
 45 48  1  0  0  0  0
 45 49  1  0  0  0  0
 21 29  1  0  0  0  0
 21 30  1  0  0  0  0
 35 40  1  0  0  0  0
  8 13  1  0  0  0  0
 18 28  1  0  0  0  0
 23 31  1  0  0  0  0
 44 46  1  0  0  0  0
  7 12  1  0  0  0  0
 34 39  1  0  0  0  0
 17 27  1  0  0  0  0
M  END
$$$$

  -OEChem-05262214473D

 49 49  0     1  0  0  0  0  0999 V2000
   -1.5619    0.5658    3.7981 C   0  0  0  0  0  0  0  0  0  0  0  0
   -0.6145   -0.0489    3.3224 O   0  0  0  0  0  0  0  0  0  0  0  0
   -1.9938    0.2834    5.1988 C   0  0  0  0  0  0  0  0  0  0  0  0
   -2.7535   -0.5129    5.2522 H   0  0  0  0  0  0  0  0  0  0  0  0
   -1.1626   -0.0642    5.8331 H   0  0  0  0  0  0  0  0  0  0  0  0
   -2.4318    1.1383    5.7384 H   0  0  0  0  0  0  0  0  0  0  0  0
   -2.3116    1.5383    3.1570 N   0  0  0  0  0  0  0  0  0  0  0  0
   -2.0648    1.9643    1.8046 C   0  0  2  0  0  0  0  0  0  0  0  0
   -0.7298    1.3789    1.3634 C   0  0  0  0  0  0  0  0  0  0  0  0
    0.1423    1.0262    2.1547 O   0  0  0  0  0  0  0  0  0  0  0  0
   -2.0560    3.4811    1.6952 C   0  0  0  0  0  0  0  0  0  0  0  0
   -3.0767    1.9741    3.6688 H   0  0  0  0  0  0  0  0  0  0  0  0
   -2.8689    1.5458    1.1895 H   0  0  0  0  0  0  0  0  0  0  0  0
   -1.2569    3.9183    2.3049 H   0  0  0  0  0  0  0  0  0  0  0  0
   -1.8965    3.8033    0.6609 H   0  0  0  0  0  0  0  0  0  0  0  0
   -3.0062    3.9023    2.0409 H   0  0  0  0  0  0  0  0  0  0  0  0
   -0.6071    1.3358   -0.0200 N   0  0  0  0  0  0  0  0  0  0  0  0
    0.5702    0.8350   -0.6836 C   0  0  2  0  0  0  0  0  0  0  0  0
    1.6793    0.7619    0.3597 C   0  0  0  0  0  0  0  0  0  0  0  0
    2.8651    0.9405    0.0894 O   0  0  0  0  0  0  0  0  0  0  0  0
    0.9982    1.7269   -1.8548 C   0  0  0  0  0  0  0  0  0  0  0  0
   -0.0282    1.7707   -2.9604 C   0  0  0  0  0  0  0  0  0  0  0  0
   -0.2194    0.7366   -3.8329 N   0  0  0  0  0  0  0  0  0  0  0  0
   -0.9340    2.7300   -3.3476 C   0  0  0  0  0  0  0  0  0  0  0  0
   -1.2135    1.1066   -4.6955 C   0  0  0  0  0  0  0  0  0  0  0  0
   -1.6690    2.3104   -4.4280 N   0  0  0  0  0  0  0  0  0  0  0  0
   -1.3903    1.6325   -0.5973 H   0  0  0  0  0  0  0  0  0  0  0  0
    0.3297   -0.1792   -1.0234 H   0  0  0  0  0  0  0  0  0  0  0  0
    1.9619    1.3880   -2.2586 H   0  0  0  0  0  0  0  0  0  0  0  0
    1.1758    2.7540   -1.5097 H   0  0  0  0  0  0  0  0  0  0  0  0
    0.2818   -0.1421   -3.8423 H   0  0  0  0  0  0  0  0  0  0  0  0
   -1.0962    3.7024   -2.9048 H   0  0  0  0  0  0  0  0  0  0  0  0
   -1.5556    0.4580   -5.4894 H   0  0  0  0  0  0  0  0  0  0  0  0
    1.1803    0.5235    1.6327 N   0  0  0  0  0  0  0  0  0  0  0  0
    2.0160    0.4307    2.8082 C   0  0  2  0  0  0  0  0  0  0  0  0
    3.1489   -0.5408    2.5042 C   0  0  0  0  0  0  0  0  0  0  0  0
    3.0790   -1.3995    1.6273 O   0  0  0  0  0  0  0  0  0  0  0  0
    1.2183   -0.0265    4.0196 C   0  0  0  0  0  0  0  0  0  0  0  0
    0.1772    0.4086    1.7438 H   0  0  0  0  0  0  0  0  0  0  0  0
    2.4284    1.4304    2.9828 H   0  0  0  0  0  0  0  0  0  0  0  0
    0.7972   -1.0263    3.8632 H   0  0  0  0  0  0  0  0  0  0  0  0
    1.8466   -0.0688    4.9154 H   0  0  0  0  0  0  0  0  0  0  0  0
    0.3860    0.6572    4.2188 H   0  0  0  0  0  0  0  0  0  0  0  0
    4.2303   -0.3644    3.3560 N   0  0  0  0  0  0  0  0  0  0  0  0
    5.4245   -1.1730    3.2776 C   0  0  0  0  0  0  0  0  0  0  0  0
    4.2093    0.3847    4.0417 H   0  0  0  0  0  0  0  0  0  0  0  0
    5.3320   -2.0315    3.9590 H   0  0  0  0  0  0  0  0  0  0  0  0
    5.5549   -1.5352    2.2471 H   0  0  0  0  0  0  0  0  0  0  0  0
    6.2965   -0.5679    3.5666 H   0  0  0  0  0  0  0  0  0  0  0  0
 22 24  2  0  0  0  0
 24 26  1  0  0  0  0
 25 26  2  0  0  0  0
 23 25  1  0  0  0  0
 21 22  1  0  0  0  0
 22 23  1  0  0  0  0
  1  3  1  0  0  0  0
  1  7  1  0  0  0  0
  1  2  2  0  0  0  0
 35 36  1  0  0  0  0
 36 44  1  0  0  0  0
 36 37  2  0  0  0  0
  8  9  1  0  0  0  0
  9 17  1  0  0  0  0
  9 10  2  0  0  0  0
 18 19  1  0  0  0  0
 19 34  1  0  0  0  0
 19 20  2  0  0  0  0
 35 38  1  0  0  0  0
  8 11  1  0  0  0  0
 44 45  1  0  0  0  0
 18 21  1  0  0  0  0
 34 35  1  0  0  0  0
  7  8  1  0  0  0  0
 17 18  1  0  0  0  0
 24 32  1  0  0  0  0
 25 33  1  0  0  0  0
  3  4  1  0  0  0  0
  3  5  1  0  0  0  0
  3  6  1  0  0  0  0
 38 41  1  0  0  0  0
 38 42  1  0  0  0  0
 38 43  1  0  0  0  0
 11 14  1  0  0  0  0
 11 15  1  0  0  0  0
 11 16  1  0  0  0  0
 45 47  1  0  0  0  0
 45 48  1  0  0  0  0
 45 49  1  0  0  0  0
 21 29  1  0  0  0  0
 21 30  1  0  0  0  0
 35 40  1  0  0  0  0
  8 13  1  0  0  0  0
 18 28  1  0  0  0  0
 23 31  1  0  0  0  0
 44 46  1  0  0  0  0
  7 12  1  0  0  0  0
 34 39  1  0  0  0  0
 17 27  1  0  0  0  0
M  END
$$$$

  -OEChem-05262214473D

 49 49  0     1  0  0  0  0  0999 V2000
   -1.5619    0.5658    3.7981 C   0  0  0  0  0  0  0  0  0  0  0  0
   -0.6145   -0.0489    3.3224 O   0  0  0  0  0  0  0  0  0  0  0  0
   -1.9938    0.2834    5.1988 C   0  0  0  0  0  0  0  0  0  0  0  0
   -2.7535   -0.5129    5.2522 H   0  0  0  0  0  0  0  0  0  0  0  0
   -1.1626   -0.0642    5.8331 H   0  0  0  0  0  0  0  0  0  0  0  0
   -2.4318    1.1383    5.7384 H   0  0  0  0  0  0  0  0  0  0  0  0
   -2.3116    1.5383    3.1570 N   0  0  0  0  0  0  0  0  0  0  0  0
   -2.0648    1.9643    1.8046 C   0  0  2  0  0  0  0  0  0  0  0  0
   -0.7298    1.3789    1.3634 C   0  0  0  0  0  0  0  0  0  0  0  0
    0.1423    1.0262    2.1547 O   0  0  0  0  0  0  0  0  0  0  0  0
   -2.0560    3.4811    1.6952 C   0  0  0  0  0  0  0  0  0  0  0  0
   -3.0767    1.9741    3.6688 H   0  0  0  0  0  0  0  0  0  0  0  0
   -2.8689    1.5458    1.1895 H   0  0  0  0  0  0  0  0  0  0  0  0
   -1.2569    3.9183    2.3049 H   0  0  0  0  0  0  0  0  0  0  0  0
   -1.8965    3.8033    0.6609 H   0  0  0  0  0  0  0  0  0  0  0  0
   -3.0062    3.9023    2.0409 H   0  0  0  0  0  0  0  0  0  0  0  0
   -0.6071    1.3358   -0.0200 N   0  0  0  0  0  0  0  0  0  0  0  0
    0.5702    0.8350   -0.6836 C   0  0  2  0  0  0  0  0  0  0  0  0
    1.6793    0.7619    0.3597 C   0  0  0  0  0  0  0  0  0  0  0  0
    2.8130    1.1942    0.1626 O   0  0  0  0  0  0  0  0  0  0  0  0
    0.9982    1.7269   -1.8548 C   0  0  0  0  0  0  0  0  0  0  0  0
   -0.0282    1.7707   -2.9604 C   0  0  0  0  0  0  0  0  0  0  0  0
   -0.2194    0.7366   -3.8329 N   0  0  0  0  0  0  0  0  0  0  0  0
   -0.9340    2.7300   -3.3476 C   0  0  0  0  0  0  0  0  0  0  0  0
   -1.2135    1.1066   -4.6955 C   0  0  0  0  0  0  0  0  0  0  0  0
   -1.6690    2.3104   -4.4280 N   0  0  0  0  0  0  0  0  0  0  0  0
   -1.3903    1.6325   -0.5973 H   0  0  0  0  0  0  0  0  0  0  0  0
    0.3297   -0.1792   -1.0234 H   0  0  0  0  0  0  0  0  0  0  0  0
    1.9619    1.3880   -2.2586 H   0  0  0  0  0  0  0  0  0  0  0  0
    1.1758    2.7540   -1.5097 H   0  0  0  0  0  0  0  0  0  0  0  0
    0.2818   -0.1421   -3.8423 H   0  0  0  0  0  0  0  0  0  0  0  0
   -1.0962    3.7024   -2.9048 H   0  0  0  0  0  0  0  0  0  0  0  0
   -1.5556    0.4580   -5.4894 H   0  0  0  0  0  0  0  0  0  0  0  0
    1.2366    0.2027    1.5504 N   0  0  0  0  0  0  0  0  0  0  0  0
    2.0808    0.0374    2.7117 C   0  0  2  0  0  0  0  0  0  0  0  0
    3.3673   -0.6442    2.2647 C   0  0  0  0  0  0  0  0  0  0  0  0
    3.4478   -1.3198    1.2409 O   0  0  0  0  0  0  0  0  0  0  0  0
    1.3829   -0.7740    3.7922 C   0  0  0  0  0  0  0  0  0  0  0  0
    0.2706   -0.1058    1.6085 H   0  0  0  0  0  0  0  0  0  0  0  0
    2.3091    1.0426    3.0825 H   0  0  0  0  0  0  0  0  0  0  0  0
    1.1462   -1.7843    3.4391 H   0  0  0  0  0  0  0  0  0  0  0  0
    2.0128   -0.8741    4.6823 H   0  0  0  0  0  0  0  0  0  0  0  0
    0.4430   -0.2977    4.0913 H   0  0  0  0  0  0  0  0  0  0  0  0
    4.4039   -0.4449    3.1658 N   0  0  0  0  0  0  0  0  0  0  0  0
    5.7227   -1.0010    2.9726 C   0  0  0  0  0  0  0  0  0  0  0  0
    4.2528    0.1452    3.9787 H   0  0  0  0  0  0  0  0  0  0  0  0
    5.7879   -1.9757    3.4782 H   0  0  0  0  0  0  0  0  0  0  0  0
    5.9109   -1.1327    1.8968 H   0  0  0  0  0  0  0  0  0  0  0  0
    6.4741   -0.3178    3.3953 H   0  0  0  0  0  0  0  0  0  0  0  0
 22 24  2  0  0  0  0
 24 26  1  0  0  0  0
 25 26  2  0  0  0  0
 23 25  1  0  0  0  0
 21 22  1  0  0  0  0
 22 23  1  0  0  0  0
  1  3  1  0  0  0  0
  1  7  1  0  0  0  0
  1  2  2  0  0  0  0
 35 36  1  0  0  0  0
 36 44  1  0  0  0  0
 36 37  2  0  0  0  0
  8  9  1  0  0  0  0
  9 17  1  0  0  0  0
  9 10  2  0  0  0  0
 18 19  1  0  0  0  0
 19 34  1  0  0  0  0
 19 20  2  0  0  0  0
 35 38  1  0  0  0  0
  8 11  1  0  0  0  0
 44 45  1  0  0  0  0
 18 21  1  0  0  0  0
 34 35  1  0  0  0  0
  7  8  1  0  0  0  0
 17 18  1  0  0  0  0
 24 32  1  0  0  0  0
 25 33  1  0  0  0  0
  3  4  1  0  0  0  0
  3  5  1  0  0  0  0
  3  6  1  0  0  0  0
 38 41  1  0  0  0  0
 38 42  1  0  0  0  0
 38 43  1  0  0  0  0
 11 14  1  0  0  0  0
 11 15  1  0  0  0  0
 11 16  1  0  0  0  0
 45 47  1  0  0  0  0
 45 48  1  0  0  0  0
 45 49  1  0  0  0  0
 21 29  1  0  0  0  0
 21 30  1  0  0  0  0
 35 40  1  0  0  0  0
  8 13  1  0  0  0  0
 18 28  1  0  0  0  0
 23 31  1  0  0  0  0
 44 46  1  0  0  0  0
  7 12  1  0  0  0  0
 34 39  1  0  0  0  0
 17 27  1  0  0  0  0
M  END
$$$$

  -OEChem-05262214473D

 49 49  0     1  0  0  0  0  0999 V2000
   -1.5619    0.5658    3.7981 C   0  0  0  0  0  0  0  0  0  0  0  0
   -0.6145   -0.0489    3.3224 O   0  0  0  0  0  0  0  0  0  0  0  0
   -1.9938    0.2834    5.1988 C   0  0  0  0  0  0  0  0  0  0  0  0
   -2.7535   -0.5129    5.2522 H   0  0  0  0  0  0  0  0  0  0  0  0
   -1.1626   -0.0642    5.8331 H   0  0  0  0  0  0  0  0  0  0  0  0
   -2.4318    1.1383    5.7384 H   0  0  0  0  0  0  0  0  0  0  0  0
   -2.3116    1.5383    3.1570 N   0  0  0  0  0  0  0  0  0  0  0  0
   -2.0648    1.9643    1.8046 C   0  0  2  0  0  0  0  0  0  0  0  0
   -0.7298    1.3789    1.3634 C   0  0  0  0  0  0  0  0  0  0  0  0
    0.1423    1.0262    2.1547 O   0  0  0  0  0  0  0  0  0  0  0  0
   -2.0560    3.4811    1.6952 C   0  0  0  0  0  0  0  0  0  0  0  0
   -3.0767    1.9741    3.6688 H   0  0  0  0  0  0  0  0  0  0  0  0
   -2.8689    1.5458    1.1895 H   0  0  0  0  0  0  0  0  0  0  0  0
   -1.2569    3.9183    2.3049 H   0  0  0  0  0  0  0  0  0  0  0  0
   -1.8965    3.8033    0.6609 H   0  0  0  0  0  0  0  0  0  0  0  0
   -3.0062    3.9023    2.0409 H   0  0  0  0  0  0  0  0  0  0  0  0
   -0.6071    1.3358   -0.0200 N   0  0  0  0  0  0  0  0  0  0  0  0
    0.5702    0.8350   -0.6836 C   0  0  2  0  0  0  0  0  0  0  0  0
    1.6793    0.7619    0.3597 C   0  0  0  0  0  0  0  0  0  0  0  0
    2.7168    1.4163    0.2804 O   0  0  0  0  0  0  0  0  0  0  0  0
    0.9982    1.7269   -1.8548 C   0  0  0  0  0  0  0  0  0  0  0  0
   -0.0282    1.7707   -2.9604 C   0  0  0  0  0  0  0  0  0  0  0  0
   -0.2194    0.7366   -3.8329 N   0  0  0  0  0  0  0  0  0  0  0  0
   -0.9340    2.7300   -3.3476 C   0  0  0  0  0  0  0  0  0  0  0  0
   -1.2135    1.1066   -4.6955 C   0  0  0  0  0  0  0  0  0  0  0  0
   -1.6690    2.3104   -4.4280 N   0  0  0  0  0  0  0  0  0  0  0  0
   -1.3903    1.6325   -0.5973 H   0  0  0  0  0  0  0  0  0  0  0  0
    0.3297   -0.1792   -1.0234 H   0  0  0  0  0  0  0  0  0  0  0  0
    1.9619    1.3880   -2.2586 H   0  0  0  0  0  0  0  0  0  0  0  0
    1.1758    2.7540   -1.5097 H   0  0  0  0  0  0  0  0  0  0  0  0
    0.2818   -0.1421   -3.8423 H   0  0  0  0  0  0  0  0  0  0  0  0
   -1.0962    3.7024   -2.9048 H   0  0  0  0  0  0  0  0  0  0  0  0
   -1.5556    0.4580   -5.4894 H   0  0  0  0  0  0  0  0  0  0  0  0
    1.3488   -0.0817    1.4111 N   0  0  0  0  0  0  0  0  0  0  0  0
    2.2143   -0.3129    2.5453 C   0  0  2  0  0  0  0  0  0  0  0  0
    3.5997   -0.6602    2.0166 C   0  0  0  0  0  0  0  0  0  0  0  0
    3.7946   -1.1049    0.8873 O   0  0  0  0  0  0  0  0  0  0  0  0
    1.6772   -1.4241    3.4338 C   0  0  0  0  0  0  0  0  0  0  0  0
    0.4536   -0.5608    1.3821 H   0  0  0  0  0  0  0  0  0  0  0  0
    2.2614    0.6281    3.1042 H   0  0  0  0  0  0  0  0  0  0  0  0
    1.6228   -2.3749    2.8910 H   0  0  0  0  0  0  0  0  0  0  0  0
    2.3188   -1.5786    4.3075 H   0  0  0  0  0  0  0  0  0  0  0  0
    0.6688   -1.1861    3.7890 H   0  0  0  0  0  0  0  0  0  0  0  0
    4.5881   -0.4560    2.9692 N   0  0  0  0  0  0  0  0  0  0  0  0
    5.9841   -0.7246    2.7141 C   0  0  0  0  0  0  0  0  0  0  0  0
    4.3379   -0.0666    3.8733 H   0  0  0  0  0  0  0  0  0  0  0  0
    6.2244   -1.7505    3.0300 H   0  0  0  0  0  0  0  0  0  0  0  0
    6.1879   -0.6150    1.6387 H   0  0  0  0  0  0  0  0  0  0  0  0
    6.6036   -0.0125    3.2791 H   0  0  0  0  0  0  0  0  0  0  0  0
 22 24  2  0  0  0  0
 24 26  1  0  0  0  0
 25 26  2  0  0  0  0
 23 25  1  0  0  0  0
 21 22  1  0  0  0  0
 22 23  1  0  0  0  0
  1  3  1  0  0  0  0
  1  7  1  0  0  0  0
  1  2  2  0  0  0  0
 35 36  1  0  0  0  0
 36 44  1  0  0  0  0
 36 37  2  0  0  0  0
  8  9  1  0  0  0  0
  9 17  1  0  0  0  0
  9 10  2  0  0  0  0
 18 19  1  0  0  0  0
 19 34  1  0  0  0  0
 19 20  2  0  0  0  0
 35 38  1  0  0  0  0
  8 11  1  0  0  0  0
 44 45  1  0  0  0  0
 18 21  1  0  0  0  0
 34 35  1  0  0  0  0
  7  8  1  0  0  0  0
 17 18  1  0  0  0  0
 24 32  1  0  0  0  0
 25 33  1  0  0  0  0
  3  4  1  0  0  0  0
  3  5  1  0  0  0  0
  3  6  1  0  0  0  0
 38 41  1  0  0  0  0
 38 42  1  0  0  0  0
 38 43  1  0  0  0  0
 11 14  1  0  0  0  0
 11 15  1  0  0  0  0
 11 16  1  0  0  0  0
 45 47  1  0  0  0  0
 45 48  1  0  0  0  0
 45 49  1  0  0  0  0
 21 29  1  0  0  0  0
 21 30  1  0  0  0  0
 35 40  1  0  0  0  0
  8 13  1  0  0  0  0
 18 28  1  0  0  0  0
 23 31  1  0  0  0  0
 44 46  1  0  0  0  0
  7 12  1  0  0  0  0
 34 39  1  0  0  0  0
 17 27  1  0  0  0  0
M  END
$$$$

  -OEChem-05262214473D

 49 49  0     1  0  0  0  0  0999 V2000
   -1.5619    0.5658    3.7981 C   0  0  0  0  0  0  0  0  0  0  0  0
   -0.6145   -0.0489    3.3224 O   0  0  0  0  0  0  0  0  0  0  0  0
   -1.9938    0.2834    5.1988 C   0  0  0  0  0  0  0  0  0  0  0  0
   -2.7535   -0.5129    5.2522 H   0  0  0  0  0  0  0  0  0  0  0  0
   -1.1626   -0.0642    5.8331 H   0  0  0  0  0  0  0  0  0  0  0  0
   -2.4318    1.1383    5.7384 H   0  0  0  0  0  0  0  0  0  0  0  0
   -2.3116    1.5383    3.1570 N   0  0  0  0  0  0  0  0  0  0  0  0
   -2.0648    1.9643    1.8046 C   0  0  2  0  0  0  0  0  0  0  0  0
   -0.7298    1.3789    1.3634 C   0  0  0  0  0  0  0  0  0  0  0  0
    0.1423    1.0262    2.1547 O   0  0  0  0  0  0  0  0  0  0  0  0
   -2.0560    3.4811    1.6952 C   0  0  0  0  0  0  0  0  0  0  0  0
   -3.0767    1.9741    3.6688 H   0  0  0  0  0  0  0  0  0  0  0  0
   -2.8689    1.5458    1.1895 H   0  0  0  0  0  0  0  0  0  0  0  0
   -1.2569    3.9183    2.3049 H   0  0  0  0  0  0  0  0  0  0  0  0
   -1.8965    3.8033    0.6609 H   0  0  0  0  0  0  0  0  0  0  0  0
   -3.0062    3.9023    2.0409 H   0  0  0  0  0  0  0  0  0  0  0  0
   -0.6071    1.3358   -0.0200 N   0  0  0  0  0  0  0  0  0  0  0  0
    0.5702    0.8350   -0.6836 C   0  0  2  0  0  0  0  0  0  0  0  0
    1.6793    0.7619    0.3597 C   0  0  0  0  0  0  0  0  0  0  0  0
    2.5831    1.5916    0.4348 O   0  0  0  0  0  0  0  0  0  0  0  0
    0.9982    1.7269   -1.8548 C   0  0  0  0  0  0  0  0  0  0  0  0
   -0.0282    1.7707   -2.9604 C   0  0  0  0  0  0  0  0  0  0  0  0
   -0.2194    0.7366   -3.8329 N   0  0  0  0  0  0  0  0  0  0  0  0
   -0.9340    2.7300   -3.3476 C   0  0  0  0  0  0  0  0  0  0  0  0
   -1.2135    1.1066   -4.6955 C   0  0  0  0  0  0  0  0  0  0  0  0
   -1.6690    2.3104   -4.4280 N   0  0  0  0  0  0  0  0  0  0  0  0
   -1.3903    1.6325   -0.5973 H   0  0  0  0  0  0  0  0  0  0  0  0
    0.3297   -0.1792   -1.0234 H   0  0  0  0  0  0  0  0  0  0  0  0
    1.9619    1.3880   -2.2586 H   0  0  0  0  0  0  0  0  0  0  0  0
    1.1758    2.7540   -1.5097 H   0  0  0  0  0  0  0  0  0  0  0  0
    0.2818   -0.1421   -3.8423 H   0  0  0  0  0  0  0  0  0  0  0  0
   -1.0962    3.7024   -2.9048 H   0  0  0  0  0  0  0  0  0  0  0  0
   -1.5556    0.4580   -5.4894 H   0  0  0  0  0  0  0  0  0  0  0  0
    1.5093   -0.3104    1.2245 N   0  0  0  0  0  0  0  0  0  0  0  0
    2.4073   -0.5962    2.3202 C   0  0  2  0  0  0  0  0  0  0  0  0
    3.8300   -0.5879    1.7768 C   0  0  0  0  0  0  0  0  0  0  0  0
    4.0960   -0.7692    0.5904 O   0  0  0  0  0  0  0  0  0  0  0  0
    2.0810   -1.9325    2.9688 C   0  0  0  0  0  0  0  0  0  0  0  0
    0.7137   -0.9251    1.0799 H   0  0  0  0  0  0  0  0  0  0  0  0
    2.2884    0.2152    3.0465 H   0  0  0  0  0  0  0  0  0  0  0  0
    2.1946   -2.7577    2.2563 H   0  0  0  0  0  0  0  0  0  0  0  0
    2.7439   -2.1343    3.8167 H   0  0  0  0  0  0  0  0  0  0  0  0
    1.0479   -1.9472    3.3326 H   0  0  0  0  0  0  0  0  0  0  0  0
    4.7705   -0.3971    2.7794 N   0  0  0  0  0  0  0  0  0  0  0  0
    6.1909   -0.3626    2.5197 C   0  0  0  0  0  0  0  0  0  0  0  0
    4.4590   -0.2362    3.7327 H   0  0  0  0  0  0  0  0  0  0  0  0
    6.6117   -1.3712    2.6449 H   0  0  0  0  0  0  0  0  0  0  0  0
    6.3669   -0.0172    1.4903 H   0  0  0  0  0  0  0  0  0  0  0  0
    6.6760    0.3272    3.2259 H   0  0  0  0  0  0  0  0  0  0  0  0
 22 24  2  0  0  0  0
 24 26  1  0  0  0  0
 25 26  2  0  0  0  0
 23 25  1  0  0  0  0
 21 22  1  0  0  0  0
 22 23  1  0  0  0  0
  1  3  1  0  0  0  0
  1  7  1  0  0  0  0
  1  2  2  0  0  0  0
 35 36  1  0  0  0  0
 36 44  1  0  0  0  0
 36 37  2  0  0  0  0
  8  9  1  0  0  0  0
  9 17  1  0  0  0  0
  9 10  2  0  0  0  0
 18 19  1  0  0  0  0
 19 34  1  0  0  0  0
 19 20  2  0  0  0  0
 35 38  1  0  0  0  0
  8 11  1  0  0  0  0
 44 45  1  0  0  0  0
 18 21  1  0  0  0  0
 34 35  1  0  0  0  0
  7  8  1  0  0  0  0
 17 18  1  0  0  0  0
 24 32  1  0  0  0  0
 25 33  1  0  0  0  0
  3  4  1  0  0  0  0
  3  5  1  0  0  0  0
  3  6  1  0  0  0  0
 38 41  1  0  0  0  0
 38 42  1  0  0  0  0
 38 43  1  0  0  0  0
 11 14  1  0  0  0  0
 11 15  1  0  0  0  0
 11 16  1  0  0  0  0
 45 47  1  0  0  0  0
 45 48  1  0  0  0  0
 45 49  1  0  0  0  0
 21 29  1  0  0  0  0
 21 30  1  0  0  0  0
 35 40  1  0  0  0  0
  8 13  1  0  0  0  0
 18 28  1  0  0  0  0
 23 31  1  0  0  0  0
 44 46  1  0  0  0  0
  7 12  1  0  0  0  0
 34 39  1  0  0  0  0
 17 27  1  0  0  0  0
M  END
$$$$

  -OEChem-05262214473D

 49 49  0     1  0  0  0  0  0999 V2000
   -1.5619    0.5658    3.7981 C   0  0  0  0  0  0  0  0  0  0  0  0
   -0.6145   -0.0489    3.3224 O   0  0  0  0  0  0  0  0  0  0  0  0
   -1.9938    0.2834    5.1988 C   0  0  0  0  0  0  0  0  0  0  0  0
   -2.7535   -0.5129    5.2522 H   0  0  0  0  0  0  0  0  0  0  0  0
   -1.1626   -0.0642    5.8331 H   0  0  0  0  0  0  0  0  0  0  0  0
   -2.4318    1.1383    5.7384 H   0  0  0  0  0  0  0  0  0  0  0  0
   -2.3116    1.5383    3.1570 N   0  0  0  0  0  0  0  0  0  0  0  0
   -2.0648    1.9643    1.8046 C   0  0  2  0  0  0  0  0  0  0  0  0
   -0.7298    1.3789    1.3634 C   0  0  0  0  0  0  0  0  0  0  0  0
    0.1423    1.0262    2.1547 O   0  0  0  0  0  0  0  0  0  0  0  0
   -2.0560    3.4811    1.6952 C   0  0  0  0  0  0  0  0  0  0  0  0
   -3.0767    1.9741    3.6688 H   0  0  0  0  0  0  0  0  0  0  0  0
   -2.8689    1.5458    1.1895 H   0  0  0  0  0  0  0  0  0  0  0  0
   -1.2569    3.9183    2.3049 H   0  0  0  0  0  0  0  0  0  0  0  0
   -1.8965    3.8033    0.6609 H   0  0  0  0  0  0  0  0  0  0  0  0
   -3.0062    3.9023    2.0409 H   0  0  0  0  0  0  0  0  0  0  0  0
   -0.6071    1.3358   -0.0200 N   0  0  0  0  0  0  0  0  0  0  0  0
    0.5702    0.8350   -0.6836 C   0  0  2  0  0  0  0  0  0  0  0  0
    1.6793    0.7619    0.3597 C   0  0  0  0  0  0  0  0  0  0  0  0
    2.4210    1.7082    0.6153 O   0  0  0  0  0  0  0  0  0  0  0  0
    0.9982    1.7269   -1.8548 C   0  0  0  0  0  0  0  0  0  0  0  0
   -0.0282    1.7707   -2.9604 C   0  0  0  0  0  0  0  0  0  0  0  0
   -0.2194    0.7366   -3.8329 N   0  0  0  0  0  0  0  0  0  0  0  0
   -0.9340    2.7300   -3.3476 C   0  0  0  0  0  0  0  0  0  0  0  0
   -1.2135    1.1066   -4.6955 C   0  0  0  0  0  0  0  0  0  0  0  0
   -1.6690    2.3104   -4.4280 N   0  0  0  0  0  0  0  0  0  0  0  0
   -1.3903    1.6325   -0.5973 H   0  0  0  0  0  0  0  0  0  0  0  0
    0.3297   -0.1792   -1.0234 H   0  0  0  0  0  0  0  0  0  0  0  0
    1.9619    1.3880   -2.2586 H   0  0  0  0  0  0  0  0  0  0  0  0
    1.1758    2.7540   -1.5097 H   0  0  0  0  0  0  0  0  0  0  0  0
    0.2818   -0.1421   -3.8423 H   0  0  0  0  0  0  0  0  0  0  0  0
   -1.0962    3.7024   -2.9048 H   0  0  0  0  0  0  0  0  0  0  0  0
   -1.5556    0.4580   -5.4894 H   0  0  0  0  0  0  0  0  0  0  0  0
    1.7072   -0.4676    1.0031 N   0  0  0  0  0  0  0  0  0  0  0  0
    2.6467   -0.7933    2.0519 C   0  0  2  0  0  0  0  0  0  0  0  0
    4.0427   -0.4320    1.5617 C   0  0  0  0  0  0  0  0  0  0  0  0
    4.3313   -0.3356    0.3707 O   0  0  0  0  0  0  0  0  0  0  0  0
    2.5669   -2.2644    2.4290 C   0  0  0  0  0  0  0  0  0  0  0  0
    1.0333   -1.1741    0.7228 H   0  0  0  0  0  0  0  0  0  0  0  0
    2.3883   -0.1680    2.9134 H   0  0  0  0  0  0  0  0  0  0  0  0
    2.8226   -2.9066    1.5783 H   0  0  0  0  0  0  0  0  0  0  0  0
    3.2590   -2.5034    3.2432 H   0  0  0  0  0  0  0  0  0  0  0  0
    1.5547   -2.5293    2.7531 H   0  0  0  0  0  0  0  0  0  0  0  0
    4.9386   -0.2722    2.6094 N   0  0  0  0  0  0  0  0  0  0  0  0
    6.3289    0.0603    2.4026 C   0  0  0  0  0  0  0  0  0  0  0  0
    4.6078   -0.3521    3.5665 H   0  0  0  0  0  0  0  0  0  0  0  0
    6.9233   -0.8637    2.3491 H   0  0  0  0  0  0  0  0  0  0  0  0
    6.4358    0.6199    1.4617 H   0  0  0  0  0  0  0  0  0  0  0  0
    6.6864    0.6782    3.2395 H   0  0  0  0  0  0  0  0  0  0  0  0
 22 24  2  0  0  0  0
 24 26  1  0  0  0  0
 25 26  2  0  0  0  0
 23 25  1  0  0  0  0
 21 22  1  0  0  0  0
 22 23  1  0  0  0  0
  1  3  1  0  0  0  0
  1  7  1  0  0  0  0
  1  2  2  0  0  0  0
 35 36  1  0  0  0  0
 36 44  1  0  0  0  0
 36 37  2  0  0  0  0
  8  9  1  0  0  0  0
  9 17  1  0  0  0  0
  9 10  2  0  0  0  0
 18 19  1  0  0  0  0
 19 34  1  0  0  0  0
 19 20  2  0  0  0  0
 35 38  1  0  0  0  0
  8 11  1  0  0  0  0
 44 45  1  0  0  0  0
 18 21  1  0  0  0  0
 34 35  1  0  0  0  0
  7  8  1  0  0  0  0
 17 18  1  0  0  0  0
 24 32  1  0  0  0  0
 25 33  1  0  0  0  0
  3  4  1  0  0  0  0
  3  5  1  0  0  0  0
  3  6  1  0  0  0  0
 38 41  1  0  0  0  0
 38 42  1  0  0  0  0
 38 43  1  0  0  0  0
 11 14  1  0  0  0  0
 11 15  1  0  0  0  0
 11 16  1  0  0  0  0
 45 47  1  0  0  0  0
 45 48  1  0  0  0  0
 45 49  1  0  0  0  0
 21 29  1  0  0  0  0
 21 30  1  0  0  0  0
 35 40  1  0  0  0  0
  8 13  1  0  0  0  0
 18 28  1  0  0  0  0
 23 31  1  0  0  0  0
 44 46  1  0  0  0  0
  7 12  1  0  0  0  0
 34 39  1  0  0  0  0
 17 27  1  0  0  0  0
M  END
$$$$

  -OEChem-05262214473D

 49 49  0     1  0  0  0  0  0999 V2000
   -1.5619    0.5658    3.7981 C   0  0  0  0  0  0  0  0  0  0  0  0
   -0.6145   -0.0489    3.3224 O   0  0  0  0  0  0  0  0  0  0  0  0
   -1.9938    0.2834    5.1988 C   0  0  0  0  0  0  0  0  0  0  0  0
   -2.7535   -0.5129    5.2522 H   0  0  0  0  0  0  0  0  0  0  0  0
   -1.1626   -0.0642    5.8331 H   0  0  0  0  0  0  0  0  0  0  0  0
   -2.4318    1.1383    5.7384 H   0  0  0  0  0  0  0  0  0  0  0  0
   -2.3116    1.5383    3.1570 N   0  0  0  0  0  0  0  0  0  0  0  0
   -2.0648    1.9643    1.8046 C   0  0  2  0  0  0  0  0  0  0  0  0
   -0.7298    1.3789    1.3634 C   0  0  0  0  0  0  0  0  0  0  0  0
    0.1423    1.0262    2.1547 O   0  0  0  0  0  0  0  0  0  0  0  0
   -2.0560    3.4811    1.6952 C   0  0  0  0  0  0  0  0  0  0  0  0
   -3.0767    1.9741    3.6688 H   0  0  0  0  0  0  0  0  0  0  0  0
   -2.8689    1.5458    1.1895 H   0  0  0  0  0  0  0  0  0  0  0  0
   -1.2569    3.9183    2.3049 H   0  0  0  0  0  0  0  0  0  0  0  0
   -1.8965    3.8033    0.6609 H   0  0  0  0  0  0  0  0  0  0  0  0
   -3.0062    3.9023    2.0409 H   0  0  0  0  0  0  0  0  0  0  0  0
   -0.6071    1.3358   -0.0200 N   0  0  0  0  0  0  0  0  0  0  0  0
    0.5702    0.8350   -0.6836 C   0  0  2  0  0  0  0  0  0  0  0  0
    1.6793    0.7619    0.3597 C   0  0  0  0  0  0  0  0  0  0  0  0
    2.2415    1.7581    0.8096 O   0  0  0  0  0  0  0  0  0  0  0  0
    0.9982    1.7269   -1.8548 C   0  0  0  0  0  0  0  0  0  0  0  0
   -0.0282    1.7707   -2.9604 C   0  0  0  0  0  0  0  0  0  0  0  0
   -0.2194    0.7366   -3.8329 N   0  0  0  0  0  0  0  0  0  0  0  0
   -0.9340    2.7300   -3.3476 C   0  0  0  0  0  0  0  0  0  0  0  0
   -1.2135    1.1066   -4.6955 C   0  0  0  0  0  0  0  0  0  0  0  0
   -1.6690    2.3104   -4.4280 N   0  0  0  0  0  0  0  0  0  0  0  0
   -1.3903    1.6325   -0.5973 H   0  0  0  0  0  0  0  0  0  0  0  0
    0.3297   -0.1792   -1.0234 H   0  0  0  0  0  0  0  0  0  0  0  0
    1.9619    1.3880   -2.2586 H   0  0  0  0  0  0  0  0  0  0  0  0
    1.1758    2.7540   -1.5097 H   0  0  0  0  0  0  0  0  0  0  0  0
    0.2818   -0.1421   -3.8423 H   0  0  0  0  0  0  0  0  0  0  0  0
   -1.0962    3.7024   -2.9048 H   0  0  0  0  0  0  0  0  0  0  0  0
   -1.5556    0.4580   -5.4894 H   0  0  0  0  0  0  0  0  0  0  0  0
    1.9289   -0.5428    0.7621 N   0  0  0  0  0  0  0  0  0  0  0  0
    2.9163   -0.8908    1.7586 C   0  0  2  0  0  0  0  0  0  0  0  0
    4.2231   -0.2033    1.3858 C   0  0  0  0  0  0  0  0  0  0  0  0
    4.4845    0.1662    0.2430 O   0  0  0  0  0  0  0  0  0  0  0  0
    3.1018   -2.3974    1.8511 C   0  0  0  0  0  0  0  0  0  0  0  0
    1.3906   -1.2907    0.3348 H   0  0  0  0  0  0  0  0  0  0  0  0
    2.5544   -0.4954    2.7139 H   0  0  0  0  0  0  0  0  0  0  0  0
    3.4639   -2.8116    0.9031 H   0  0  0  0  0  0  0  0  0  0  0  0
    3.8291   -2.6607    2.6262 H   0  0  0  0  0  0  0  0  0  0  0  0
    2.1545   -2.8927    2.0900 H   0  0  0  0  0  0  0  0  0  0  0  0
    5.0810   -0.0897    2.4709 N   0  0  0  0  0  0  0  0  0  0  0  0
    6.3887    0.5152    2.3709 C   0  0  0  0  0  0  0  0  0  0  0  0
    4.7740   -0.4065    3.3859 H   0  0  0  0  0  0  0  0  0  0  0  0
    7.1382   -0.2627    2.1629 H   0  0  0  0  0  0  0  0  0  0  0  0
    6.3899    1.2529    1.5549 H   0  0  0  0  0  0  0  0  0  0  0  0
    6.6341    1.0165    3.3187 H   0  0  0  0  0  0  0  0  0  0  0  0
 22 24  2  0  0  0  0
 24 26  1  0  0  0  0
 25 26  2  0  0  0  0
 23 25  1  0  0  0  0
 21 22  1  0  0  0  0
 22 23  1  0  0  0  0
  1  3  1  0  0  0  0
  1  7  1  0  0  0  0
  1  2  2  0  0  0  0
 35 36  1  0  0  0  0
 36 44  1  0  0  0  0
 36 37  2  0  0  0  0
  8  9  1  0  0  0  0
  9 17  1  0  0  0  0
  9 10  2  0  0  0  0
 18 19  1  0  0  0  0
 19 34  1  0  0  0  0
 19 20  2  0  0  0  0
 35 38  1  0  0  0  0
  8 11  1  0  0  0  0
 44 45  1  0  0  0  0
 18 21  1  0  0  0  0
 34 35  1  0  0  0  0
  7  8  1  0  0  0  0
 17 18  1  0  0  0  0
 24 32  1  0  0  0  0
 25 33  1  0  0  0  0
  3  4  1  0  0  0  0
  3  5  1  0  0  0  0
  3  6  1  0  0  0  0
 38 41  1  0  0  0  0
 38 42  1  0  0  0  0
 38 43  1  0  0  0  0
 11 14  1  0  0  0  0
 11 15  1  0  0  0  0
 11 16  1  0  0  0  0
 45 47  1  0  0  0  0
 45 48  1  0  0  0  0
 45 49  1  0  0  0  0
 21 29  1  0  0  0  0
 21 30  1  0  0  0  0
 35 40  1  0  0  0  0
  8 13  1  0  0  0  0
 18 28  1  0  0  0  0
 23 31  1  0  0  0  0
 44 46  1  0  0  0  0
  7 12  1  0  0  0  0
 34 39  1  0  0  0  0
 17 27  1  0  0  0  0
M  END
$$$$

  -OEChem-05262214473D

 49 49  0     1  0  0  0  0  0999 V2000
   -1.5619    0.5658    3.7981 C   0  0  0  0  0  0  0  0  0  0  0  0
   -0.6145   -0.0489    3.3224 O   0  0  0  0  0  0  0  0  0  0  0  0
   -1.9938    0.2834    5.1988 C   0  0  0  0  0  0  0  0  0  0  0  0
   -2.7535   -0.5129    5.2522 H   0  0  0  0  0  0  0  0  0  0  0  0
   -1.1626   -0.0642    5.8331 H   0  0  0  0  0  0  0  0  0  0  0  0
   -2.4318    1.1383    5.7384 H   0  0  0  0  0  0  0  0  0  0  0  0
   -2.3116    1.5383    3.1570 N   0  0  0  0  0  0  0  0  0  0  0  0
   -2.0648    1.9643    1.8046 C   0  0  2  0  0  0  0  0  0  0  0  0
   -0.7298    1.3789    1.3634 C   0  0  0  0  0  0  0  0  0  0  0  0
    0.1423    1.0262    2.1547 O   0  0  0  0  0  0  0  0  0  0  0  0
   -2.0560    3.4811    1.6952 C   0  0  0  0  0  0  0  0  0  0  0  0
   -3.0767    1.9741    3.6688 H   0  0  0  0  0  0  0  0  0  0  0  0
   -2.8689    1.5458    1.1895 H   0  0  0  0  0  0  0  0  0  0  0  0
   -1.2569    3.9183    2.3049 H   0  0  0  0  0  0  0  0  0  0  0  0
   -1.8965    3.8033    0.6609 H   0  0  0  0  0  0  0  0  0  0  0  0
   -3.0062    3.9023    2.0409 H   0  0  0  0  0  0  0  0  0  0  0  0
   -0.6071    1.3358   -0.0200 N   0  0  0  0  0  0  0  0  0  0  0  0
    0.5702    0.8350   -0.6836 C   0  0  2  0  0  0  0  0  0  0  0  0
    1.6793    0.7619    0.3597 C   0  0  0  0  0  0  0  0  0  0  0  0
    2.0569    1.7379    1.0044 O   0  0  0  0  0  0  0  0  0  0  0  0
    0.9982    1.7269   -1.8548 C   0  0  0  0  0  0  0  0  0  0  0  0
   -0.0282    1.7707   -2.9604 C   0  0  0  0  0  0  0  0  0  0  0  0
   -0.2194    0.7366   -3.8329 N   0  0  0  0  0  0  0  0  0  0  0  0
   -0.9340    2.7300   -3.3476 C   0  0  0  0  0  0  0  0  0  0  0  0
   -1.2135    1.1066   -4.6955 C   0  0  0  0  0  0  0  0  0  0  0  0
   -1.6690    2.3104   -4.4280 N   0  0  0  0  0  0  0  0  0  0  0  0
   -1.3903    1.6325   -0.5973 H   0  0  0  0  0  0  0  0  0  0  0  0
    0.3297   -0.1792   -1.0234 H   0  0  0  0  0  0  0  0  0  0  0  0
    1.9619    1.3880   -2.2586 H   0  0  0  0  0  0  0  0  0  0  0  0
    1.1758    2.7540   -1.5097 H   0  0  0  0  0  0  0  0  0  0  0  0
    0.2818   -0.1421   -3.8423 H   0  0  0  0  0  0  0  0  0  0  0  0
   -1.0962    3.7024   -2.9048 H   0  0  0  0  0  0  0  0  0  0  0  0
   -1.5556    0.4580   -5.4894 H   0  0  0  0  0  0  0  0  0  0  0  0
    2.1594   -0.5308    0.5180 N   0  0  0  0  0  0  0  0  0  0  0  0
    3.1975   -0.8820    1.4602 C   0  0  2  0  0  0  0  0  0  0  0  0
    4.3591    0.0827    1.2613 C   0  0  0  0  0  0  0  0  0  0  0  0
    4.5452    0.7021    0.2160 O   0  0  0  0  0  0  0  0  0  0  0  0
    3.6491   -2.3222    1.2746 C   0  0  0  0  0  0  0  0  0  0  0  0
    1.7611   -1.2670   -0.0574 H   0  0  0  0  0  0  0  0  0  0  0  0
    2.7753   -0.7446    2.4616 H   0  0  0  0  0  0  0  0  0  0  0  0
    4.0750   -2.4791    0.2768 H   0  0  0  0  0  0  0  0  0  0  0  0
    4.4152   -2.5954    2.0077 H   0  0  0  0  0  0  0  0  0  0  0  0
    2.8064   -3.0126    1.3885 H   0  0  0  0  0  0  0  0  0  0  0  0
    5.1879    0.1378    2.3732 N   0  0  0  0  0  0  0  0  0  0  0  0
    6.3663    0.9712    2.4266 C   0  0  0  0  0  0  0  0  0  0  0  0
    4.9465   -0.3955    3.2033 H   0  0  0  0  0  0  0  0  0  0  0  0
    7.2415    0.3910    2.0988 H   0  0  0  0  0  0  0  0  0  0  0  0
    6.2322    1.8386    1.7635 H   0  0  0  0  0  0  0  0  0  0  0  0
    6.5227    1.3191    3.4584 H   0  0  0  0  0  0  0  0  0  0  0  0
 22 24  2  0  0  0  0
 24 26  1  0  0  0  0
 25 26  2  0  0  0  0
 23 25  1  0  0  0  0
 21 22  1  0  0  0  0
 22 23  1  0  0  0  0
  1  3  1  0  0  0  0
  1  7  1  0  0  0  0
  1  2  2  0  0  0  0
 35 36  1  0  0  0  0
 36 44  1  0  0  0  0
 36 37  2  0  0  0  0
  8  9  1  0  0  0  0
  9 17  1  0  0  0  0
  9 10  2  0  0  0  0
 18 19  1  0  0  0  0
 19 34  1  0  0  0  0
 19 20  2  0  0  0  0
 35 38  1  0  0  0  0
  8 11  1  0  0  0  0
 44 45  1  0  0  0  0
 18 21  1  0  0  0  0
 34 35  1  0  0  0  0
  7  8  1  0  0  0  0
 17 18  1  0  0  0  0
 24 32  1  0  0  0  0
 25 33  1  0  0  0  0
  3  4  1  0  0  0  0
  3  5  1  0  0  0  0
  3  6  1  0  0  0  0
 38 41  1  0  0  0  0
 38 42  1  0  0  0  0
 38 43  1  0  0  0  0
 11 14  1  0  0  0  0
 11 15  1  0  0  0  0
 11 16  1  0  0  0  0
 45 47  1  0  0  0  0
 45 48  1  0  0  0  0
 45 49  1  0  0  0  0
 21 29  1  0  0  0  0
 21 30  1  0  0  0  0
 35 40  1  0  0  0  0
  8 13  1  0  0  0  0
 18 28  1  0  0  0  0
 23 31  1  0  0  0  0
 44 46  1  0  0  0  0
  7 12  1  0  0  0  0
 34 39  1  0  0  0  0
 17 27  1  0  0  0  0
M  END
$$$$

  -OEChem-05262214473D

 49 49  0     1  0  0  0  0  0999 V2000
   -1.5619    0.5658    3.7981 C   0  0  0  0  0  0  0  0  0  0  0  0
   -0.6145   -0.0489    3.3224 O   0  0  0  0  0  0  0  0  0  0  0  0
   -1.9938    0.2834    5.1988 C   0  0  0  0  0  0  0  0  0  0  0  0
   -2.7535   -0.5129    5.2522 H   0  0  0  0  0  0  0  0  0  0  0  0
   -1.1626   -0.0642    5.8331 H   0  0  0  0  0  0  0  0  0  0  0  0
   -2.4318    1.1383    5.7384 H   0  0  0  0  0  0  0  0  0  0  0  0
   -2.3116    1.5383    3.1570 N   0  0  0  0  0  0  0  0  0  0  0  0
   -2.0648    1.9643    1.8046 C   0  0  2  0  0  0  0  0  0  0  0  0
   -0.7298    1.3789    1.3634 C   0  0  0  0  0  0  0  0  0  0  0  0
    0.1423    1.0262    2.1547 O   0  0  0  0  0  0  0  0  0  0  0  0
   -2.0560    3.4811    1.6952 C   0  0  0  0  0  0  0  0  0  0  0  0
   -3.0767    1.9741    3.6688 H   0  0  0  0  0  0  0  0  0  0  0  0
   -2.8689    1.5458    1.1895 H   0  0  0  0  0  0  0  0  0  0  0  0
   -1.2569    3.9183    2.3049 H   0  0  0  0  0  0  0  0  0  0  0  0
   -1.8965    3.8033    0.6609 H   0  0  0  0  0  0  0  0  0  0  0  0
   -3.0062    3.9023    2.0409 H   0  0  0  0  0  0  0  0  0  0  0  0
   -0.6071    1.3358   -0.0200 N   0  0  0  0  0  0  0  0  0  0  0  0
    0.5702    0.8350   -0.6836 C   0  0  2  0  0  0  0  0  0  0  0  0
    1.6793    0.7619    0.3597 C   0  0  0  0  0  0  0  0  0  0  0  0
    1.8797    1.6491    1.1865 O   0  0  0  0  0  0  0  0  0  0  0  0
    0.9982    1.7269   -1.8548 C   0  0  0  0  0  0  0  0  0  0  0  0
   -0.0282    1.7707   -2.9604 C   0  0  0  0  0  0  0  0  0  0  0  0
   -0.2194    0.7366   -3.8329 N   0  0  0  0  0  0  0  0  0  0  0  0
   -0.9340    2.7300   -3.3476 C   0  0  0  0  0  0  0  0  0  0  0  0
   -1.2135    1.1066   -4.6955 C   0  0  0  0  0  0  0  0  0  0  0  0
   -1.6690    2.3104   -4.4280 N   0  0  0  0  0  0  0  0  0  0  0  0
   -1.3903    1.6325   -0.5973 H   0  0  0  0  0  0  0  0  0  0  0  0
    0.3297   -0.1792   -1.0234 H   0  0  0  0  0  0  0  0  0  0  0  0
    1.9619    1.3880   -2.2586 H   0  0  0  0  0  0  0  0  0  0  0  0
    1.1758    2.7540   -1.5097 H   0  0  0  0  0  0  0  0  0  0  0  0
    0.2818   -0.1421   -3.8423 H   0  0  0  0  0  0  0  0  0  0  0  0
   -1.0962    3.7024   -2.9048 H   0  0  0  0  0  0  0  0  0  0  0  0
   -1.5556    0.4580   -5.4894 H   0  0  0  0  0  0  0  0  0  0  0  0
    2.3829   -0.4323    0.2872 N   0  0  0  0  0  0  0  0  0  0  0  0
    3.4713   -0.7674    1.1772 C   0  0  2  0  0  0  0  0  0  0  0  0
    4.4414    0.4065    1.1966 C   0  0  0  0  0  0  0  0  0  0  0  0
    4.5093    1.2356    0.2916 O   0  0  0  0  0  0  0  0  0  0  0  0
    4.1716   -2.0441    0.7386 C   0  0  0  0  0  0  0  0  0  0  0  0
    2.1197   -1.1046   -0.4272 H   0  0  0  0  0  0  0  0  0  0  0  0
    3.0359   -0.8987    2.1738 H   0  0  0  0  0  0  0  0  0  0  0  0
    4.6141   -1.9317   -0.2579 H   0  0  0  0  0  0  0  0  0  0  0  0
    4.9775   -2.3121    1.4297 H   0  0  0  0  0  0  0  0  0  0  0  0
    3.4661   -2.8809    0.6965 H   0  0  0  0  0  0  0  0  0  0  0  0
    5.2521    0.3949    2.3230 N   0  0  0  0  0  0  0  0  0  0  0  0
    6.2632    1.3972    2.5661 C   0  0  0  0  0  0  0  0  0  0  0  0
    5.1134   -0.3199    3.0311 H   0  0  0  0  0  0  0  0  0  0  0  0
    7.2264    1.0528    2.1613 H   0  0  0  0  0  0  0  0  0  0  0  0
    5.9736    2.3371    2.0734 H   0  0  0  0  0  0  0  0  0  0  0  0
    6.3598    1.5654    3.6488 H   0  0  0  0  0  0  0  0  0  0  0  0
 22 24  2  0  0  0  0
 24 26  1  0  0  0  0
 25 26  2  0  0  0  0
 23 25  1  0  0  0  0
 21 22  1  0  0  0  0
 22 23  1  0  0  0  0
  1  3  1  0  0  0  0
  1  7  1  0  0  0  0
  1  2  2  0  0  0  0
 35 36  1  0  0  0  0
 36 44  1  0  0  0  0
 36 37  2  0  0  0  0
  8  9  1  0  0  0  0
  9 17  1  0  0  0  0
  9 10  2  0  0  0  0
 18 19  1  0  0  0  0
 19 34  1  0  0  0  0
 19 20  2  0  0  0  0
 35 38  1  0  0  0  0
  8 11  1  0  0  0  0
 44 45  1  0  0  0  0
 18 21  1  0  0  0  0
 34 35  1  0  0  0  0
  7  8  1  0  0  0  0
 17 18  1  0  0  0  0
 24 32  1  0  0  0  0
 25 33  1  0  0  0  0
  3  4  1  0  0  0  0
  3  5  1  0  0  0  0
  3  6  1  0  0  0  0
 38 41  1  0  0  0  0
 38 42  1  0  0  0  0
 38 43  1  0  0  0  0
 11 14  1  0  0  0  0
 11 15  1  0  0  0  0
 11 16  1  0  0  0  0
 45 47  1  0  0  0  0
 45 48  1  0  0  0  0
 45 49  1  0  0  0  0
 21 29  1  0  0  0  0
 21 30  1  0  0  0  0
 35 40  1  0  0  0  0
  8 13  1  0  0  0  0
 18 28  1  0  0  0  0
 23 31  1  0  0  0  0
 44 46  1  0  0  0  0
  7 12  1  0  0  0  0
 34 39  1  0  0  0  0
 17 27  1  0  0  0  0
M  END
$$$$

  -OEChem-05262214473D

 49 49  0     1  0  0  0  0  0999 V2000
   -1.5619    0.5658    3.7981 C   0  0  0  0  0  0  0  0  0  0  0  0
   -0.6145   -0.0489    3.3224 O   0  0  0  0  0  0  0  0  0  0  0  0
   -1.9938    0.2834    5.1988 C   0  0  0  0  0  0  0  0  0  0  0  0
   -2.7535   -0.5129    5.2522 H   0  0  0  0  0  0  0  0  0  0  0  0
   -1.1626   -0.0642    5.8331 H   0  0  0  0  0  0  0  0  0  0  0  0
   -2.4318    1.1383    5.7384 H   0  0  0  0  0  0  0  0  0  0  0  0
   -2.3116    1.5383    3.1570 N   0  0  0  0  0  0  0  0  0  0  0  0
   -2.0648    1.9643    1.8046 C   0  0  2  0  0  0  0  0  0  0  0  0
   -0.7298    1.3789    1.3634 C   0  0  0  0  0  0  0  0  0  0  0  0
    0.1423    1.0262    2.1547 O   0  0  0  0  0  0  0  0  0  0  0  0
   -2.0560    3.4811    1.6952 C   0  0  0  0  0  0  0  0  0  0  0  0
   -3.0767    1.9741    3.6688 H   0  0  0  0  0  0  0  0  0  0  0  0
   -2.8689    1.5458    1.1895 H   0  0  0  0  0  0  0  0  0  0  0  0
   -1.2569    3.9183    2.3049 H   0  0  0  0  0  0  0  0  0  0  0  0
   -1.8965    3.8033    0.6609 H   0  0  0  0  0  0  0  0  0  0  0  0
   -3.0062    3.9023    2.0409 H   0  0  0  0  0  0  0  0  0  0  0  0
   -0.6071    1.3358   -0.0200 N   0  0  0  0  0  0  0  0  0  0  0  0
    0.5702    0.8350   -0.6836 C   0  0  2  0  0  0  0  0  0  0  0  0
    1.6793    0.7619    0.3597 C   0  0  0  0  0  0  0  0  0  0  0  0
    1.7221    1.4975    1.3435 O   0  0  0  0  0  0  0  0  0  0  0  0
    0.9982    1.7269   -1.8548 C   0  0  0  0  0  0  0  0  0  0  0  0
   -0.0282    1.7707   -2.9604 C   0  0  0  0  0  0  0  0  0  0  0  0
   -0.2194    0.7366   -3.8329 N   0  0  0  0  0  0  0  0  0  0  0  0
   -0.9340    2.7300   -3.3476 C   0  0  0  0  0  0  0  0  0  0  0  0
   -1.2135    1.1066   -4.6955 C   0  0  0  0  0  0  0  0  0  0  0  0
   -1.6690    2.3104   -4.4280 N   0  0  0  0  0  0  0  0  0  0  0  0
   -1.3903    1.6325   -0.5973 H   0  0  0  0  0  0  0  0  0  0  0  0
    0.3297   -0.1792   -1.0234 H   0  0  0  0  0  0  0  0  0  0  0  0
    1.9619    1.3880   -2.2586 H   0  0  0  0  0  0  0  0  0  0  0  0
    1.1758    2.7540   -1.5097 H   0  0  0  0  0  0  0  0  0  0  0  0
    0.2818   -0.1421   -3.8423 H   0  0  0  0  0  0  0  0  0  0  0  0
   -1.0962    3.7024   -2.9048 H   0  0  0  0  0  0  0  0  0  0  0  0
   -1.5556    0.4580   -5.4894 H   0  0  0  0  0  0  0  0  0  0  0  0
    2.5843   -0.2542    0.0857 N   0  0  0  0  0  0  0  0  0  0  0  0
    3.7190   -0.5550    0.9287 C   0  0  2  0  0  0  0  0  0  0  0  0
    4.4642    0.7460    1.1961 C   0  0  0  0  0  0  0  0  0  0  0  0
    4.3791    1.7303    0.4647 O   0  0  0  0  0  0  0  0  0  0  0  0
    4.6337   -1.5820    0.2797 C   0  0  0  0  0  0  0  0  0  0  0  0
    2.4419   -0.8146   -0.7494 H   0  0  0  0  0  0  0  0  0  0  0  0
    3.3185   -0.9472    1.8699 H   0  0  0  0  0  0  0  0  0  0  0  0
    5.0446   -1.2068   -0.6647 H   0  0  0  0  0  0  0  0  0  0  0  0
    5.4776   -1.8300    0.9319 H   0  0  0  0  0  0  0  0  0  0  0  0
    4.0886   -2.5065    0.0610 H   0  0  0  0  0  0  0  0  0  0  0  0
    5.2692    0.6641    2.3237 N   0  0  0  0  0  0  0  0  0  0  0  0
    6.0865    1.7642    2.7797 C   0  0  0  0  0  0  0  0  0  0  0  0
    5.2634   -0.1850    2.8811 H   0  0  0  0  0  0  0  0  0  0  0  0
    7.0937    1.6776    2.3461 H   0  0  0  0  0  0  0  0  0  0  0  0
    5.6316    2.7145    2.4634 H   0  0  0  0  0  0  0  0  0  0  0  0
    6.1564    1.7385    3.8772 H   0  0  0  0  0  0  0  0  0  0  0  0
 22 24  2  0  0  0  0
 24 26  1  0  0  0  0
 25 26  2  0  0  0  0
 23 25  1  0  0  0  0
 21 22  1  0  0  0  0
 22 23  1  0  0  0  0
  1  3  1  0  0  0  0
  1  7  1  0  0  0  0
  1  2  2  0  0  0  0
 35 36  1  0  0  0  0
 36 44  1  0  0  0  0
 36 37  2  0  0  0  0
  8  9  1  0  0  0  0
  9 17  1  0  0  0  0
  9 10  2  0  0  0  0
 18 19  1  0  0  0  0
 19 34  1  0  0  0  0
 19 20  2  0  0  0  0
 35 38  1  0  0  0  0
  8 11  1  0  0  0  0
 44 45  1  0  0  0  0
 18 21  1  0  0  0  0
 34 35  1  0  0  0  0
  7  8  1  0  0  0  0
 17 18  1  0  0  0  0
 24 32  1  0  0  0  0
 25 33  1  0  0  0  0
  3  4  1  0  0  0  0
  3  5  1  0  0  0  0
  3  6  1  0  0  0  0
 38 41  1  0  0  0  0
 38 42  1  0  0  0  0
 38 43  1  0  0  0  0
 11 14  1  0  0  0  0
 11 15  1  0  0  0  0
 11 16  1  0  0  0  0
 45 47  1  0  0  0  0
 45 48  1  0  0  0  0
 45 49  1  0  0  0  0
 21 29  1  0  0  0  0
 21 30  1  0  0  0  0
 35 40  1  0  0  0  0
  8 13  1  0  0  0  0
 18 28  1  0  0  0  0
 23 31  1  0  0  0  0
 44 46  1  0  0  0  0
  7 12  1  0  0  0  0
 34 39  1  0  0  0  0
 17 27  1  0  0  0  0
M  END
$$$$

  -OEChem-05262214473D

 49 49  0     1  0  0  0  0  0999 V2000
   -1.5619    0.5658    3.7981 C   0  0  0  0  0  0  0  0  0  0  0  0
   -0.6145   -0.0489    3.3224 O   0  0  0  0  0  0  0  0  0  0  0  0
   -1.9938    0.2834    5.1988 C   0  0  0  0  0  0  0  0  0  0  0  0
   -2.7535   -0.5129    5.2522 H   0  0  0  0  0  0  0  0  0  0  0  0
   -1.1626   -0.0642    5.8331 H   0  0  0  0  0  0  0  0  0  0  0  0
   -2.4318    1.1383    5.7384 H   0  0  0  0  0  0  0  0  0  0  0  0
   -2.3116    1.5383    3.1570 N   0  0  0  0  0  0  0  0  0  0  0  0
   -2.0648    1.9643    1.8046 C   0  0  2  0  0  0  0  0  0  0  0  0
   -0.7298    1.3789    1.3634 C   0  0  0  0  0  0  0  0  0  0  0  0
    0.1423    1.0262    2.1547 O   0  0  0  0  0  0  0  0  0  0  0  0
   -2.0560    3.4811    1.6952 C   0  0  0  0  0  0  0  0  0  0  0  0
   -3.0767    1.9741    3.6688 H   0  0  0  0  0  0  0  0  0  0  0  0
   -2.8689    1.5458    1.1895 H   0  0  0  0  0  0  0  0  0  0  0  0
   -1.2569    3.9183    2.3049 H   0  0  0  0  0  0  0  0  0  0  0  0
   -1.8965    3.8033    0.6609 H   0  0  0  0  0  0  0  0  0  0  0  0
   -3.0062    3.9023    2.0409 H   0  0  0  0  0  0  0  0  0  0  0  0
   -0.6071    1.3358   -0.0200 N   0  0  0  0  0  0  0  0  0  0  0  0
    0.5702    0.8350   -0.6836 C   0  0  2  0  0  0  0  0  0  0  0  0
    1.6793    0.7619    0.3597 C   0  0  0  0  0  0  0  0  0  0  0  0
    1.5947    1.2937    1.4647 O   0  0  0  0  0  0  0  0  0  0  0  0
    0.9982    1.7269   -1.8548 C   0  0  0  0  0  0  0  0  0  0  0  0
   -0.0282    1.7707   -2.9604 C   0  0  0  0  0  0  0  0  0  0  0  0
   -0.2194    0.7366   -3.8329 N   0  0  0  0  0  0  0  0  0  0  0  0
   -0.9340    2.7300   -3.3476 C   0  0  0  0  0  0  0  0  0  0  0  0
   -1.2135    1.1066   -4.6955 C   0  0  0  0  0  0  0  0  0  0  0  0
   -1.6690    2.3104   -4.4280 N   0  0  0  0  0  0  0  0  0  0  0  0
   -1.3903    1.6325   -0.5973 H   0  0  0  0  0  0  0  0  0  0  0  0
    0.3297   -0.1792   -1.0234 H   0  0  0  0  0  0  0  0  0  0  0  0
    1.9619    1.3880   -2.2586 H   0  0  0  0  0  0  0  0  0  0  0  0
    1.1758    2.7540   -1.5097 H   0  0  0  0  0  0  0  0  0  0  0  0
    0.2818   -0.1421   -3.8423 H   0  0  0  0  0  0  0  0  0  0  0  0
   -1.0962    3.7024   -2.9048 H   0  0  0  0  0  0  0  0  0  0  0  0
   -1.5556    0.4580   -5.4894 H   0  0  0  0  0  0  0  0  0  0  0  0
    2.7497   -0.0085   -0.0730 N   0  0  0  0  0  0  0  0  0  0  0  0
    3.9237   -0.2592    0.7319 C   0  0  2  0  0  0  0  0  0  0  0  0
    4.4262    1.0781    1.2598 C   0  0  0  0  0  0  0  0  0  0  0  0
    4.1636    2.1525    0.7233 O   0  0  0  0  0  0  0  0  0  0  0  0
    5.0039   -0.9673   -0.0708 C   0  0  0  0  0  0  0  0  0  0  0  0
    2.7057   -0.4168   -1.0020 H   0  0  0  0  0  0  0  0  0  0  0  0
    3.6039   -0.8868    1.5708 H   0  0  0  0  0  0  0  0  0  0  0  0
    5.3370   -0.3537   -0.9158 H   0  0  0  0  0  0  0  0  0  0  0  0
    5.8815   -1.1820    0.5479 H   0  0  0  0  0  0  0  0  0  0  0  0
    4.6314   -1.9149   -0.4746 H   0  0  0  0  0  0  0  0  0  0  0  0
    5.2380    0.9270    2.3753 N   0  0  0  0  0  0  0  0  0  0  0  0
    5.8481    2.0471    3.0530 C   0  0  0  0  0  0  0  0  0  0  0  0
    5.3863    0.0002    2.7635 H   0  0  0  0  0  0  0  0  0  0  0  0
    6.8526    2.2229    2.6406 H   0  0  0  0  0  0  0  0  0  0  0  0
    5.2296    2.9450    2.9069 H   0  0  0  0  0  0  0  0  0  0  0  0
    5.9265    1.8267    4.1278 H   0  0  0  0  0  0  0  0  0  0  0  0
 22 24  2  0  0  0  0
 24 26  1  0  0  0  0
 25 26  2  0  0  0  0
 23 25  1  0  0  0  0
 21 22  1  0  0  0  0
 22 23  1  0  0  0  0
  1  3  1  0  0  0  0
  1  7  1  0  0  0  0
  1  2  2  0  0  0  0
 35 36  1  0  0  0  0
 36 44  1  0  0  0  0
 36 37  2  0  0  0  0
  8  9  1  0  0  0  0
  9 17  1  0  0  0  0
  9 10  2  0  0  0  0
 18 19  1  0  0  0  0
 19 34  1  0  0  0  0
 19 20  2  0  0  0  0
 35 38  1  0  0  0  0
  8 11  1  0  0  0  0
 44 45  1  0  0  0  0
 18 21  1  0  0  0  0
 34 35  1  0  0  0  0
  7  8  1  0  0  0  0
 17 18  1  0  0  0  0
 24 32  1  0  0  0  0
 25 33  1  0  0  0  0
  3  4  1  0  0  0  0
  3  5  1  0  0  0  0
  3  6  1  0  0  0  0
 38 41  1  0  0  0  0
 38 42  1  0  0  0  0
 38 43  1  0  0  0  0
 11 14  1  0  0  0  0
 11 15  1  0  0  0  0
 11 16  1  0  0  0  0
 45 47  1  0  0  0  0
 45 48  1  0  0  0  0
 45 49  1  0  0  0  0
 21 29  1  0  0  0  0
 21 30  1  0  0  0  0
 35 40  1  0  0  0  0
  8 13  1  0  0  0  0
 18 28  1  0  0  0  0
 23 31  1  0  0  0  0
 44 46  1  0  0  0  0
  7 12  1  0  0  0  0
 34 39  1  0  0  0  0
 17 27  1  0  0  0  0
M  END
$$$$

  -OEChem-05262214473D

 49 49  0     1  0  0  0  0  0999 V2000
   -1.5619    0.5658    3.7981 C   0  0  0  0  0  0  0  0  0  0  0  0
   -0.6145   -0.0489    3.3224 O   0  0  0  0  0  0  0  0  0  0  0  0
   -1.9938    0.2834    5.1988 C   0  0  0  0  0  0  0  0  0  0  0  0
   -2.7535   -0.5129    5.2522 H   0  0  0  0  0  0  0  0  0  0  0  0
   -1.1626   -0.0642    5.8331 H   0  0  0  0  0  0  0  0  0  0  0  0
   -2.4318    1.1383    5.7384 H   0  0  0  0  0  0  0  0  0  0  0  0
   -2.3116    1.5383    3.1570 N   0  0  0  0  0  0  0  0  0  0  0  0
   -2.0648    1.9643    1.8046 C   0  0  2  0  0  0  0  0  0  0  0  0
   -0.7298    1.3789    1.3634 C   0  0  0  0  0  0  0  0  0  0  0  0
    0.1423    1.0262    2.1547 O   0  0  0  0  0  0  0  0  0  0  0  0
   -2.0560    3.4811    1.6952 C   0  0  0  0  0  0  0  0  0  0  0  0
   -3.0767    1.9741    3.6688 H   0  0  0  0  0  0  0  0  0  0  0  0
   -2.8689    1.5458    1.1895 H   0  0  0  0  0  0  0  0  0  0  0  0
   -1.2569    3.9183    2.3049 H   0  0  0  0  0  0  0  0  0  0  0  0
   -1.8965    3.8033    0.6609 H   0  0  0  0  0  0  0  0  0  0  0  0
   -3.0062    3.9023    2.0409 H   0  0  0  0  0  0  0  0  0  0  0  0
   -0.6071    1.3358   -0.0200 N   0  0  0  0  0  0  0  0  0  0  0  0
    0.5702    0.8350   -0.6836 C   0  0  2  0  0  0  0  0  0  0  0  0
    1.5515    0.4063    0.4014 C   0  0  0  0  0  0  0  0  0  0  0  0
    1.2907    0.4660    1.6011 O   0  0  0  0  0  0  0  0  0  0  0  0
    1.2113    1.8862   -1.5969 C   0  0  0  0  0  0  0  0  0  0  0  0
    0.3150    2.2887   -2.7425 C   0  0  0  0  0  0  0  0  0  0  0  0
    0.1023    1.4899   -3.8305 N   0  0  0  0  0  0  0  0  0  0  0  0
   -0.4357    3.4157   -2.9811 C   0  0  0  0  0  0  0  0  0  0  0  0
   -0.7514    2.1546   -4.6664 C   0  0  0  0  0  0  0  0  0  0  0  0
   -1.0973    3.3259   -4.1802 N   0  0  0  0  0  0  0  0  0  0  0  0
   -1.3903    1.6325   -0.5973 H   0  0  0  0  0  0  0  0  0  0  0  0
    0.2562   -0.0479   -1.2528 H   0  0  0  0  0  0  0  0  0  0  0  0
    2.1685    1.5165   -1.9891 H   0  0  0  0  0  0  0  0  0  0  0  0
    1.4640    2.7886   -1.0247 H   0  0  0  0  0  0  0  0  0  0  0  0
    0.5026    0.5749   -3.9916 H   0  0  0  0  0  0  0  0  0  0  0  0
   -0.5351    4.2887   -2.3518 H   0  0  0  0  0  0  0  0  0  0  0  0
   -1.0790    1.7331   -5.6061 H   0  0  0  0  0  0  0  0  0  0  0  0
    2.7300   -0.0959   -0.1329 N   0  0  0  0  0  0  0  0  0  0  0  0
    3.8194   -0.5936    0.6761 C   0  0  2  0  0  0  0  0  0  0  0  0
    4.1346    0.4537    1.7360 C   0  0  0  0  0  0  0  0  0  0  0  0
    3.8412    1.6411    1.6138 O   0  0  0  0  0  0  0  0  0  0  0  0
    5.0454   -0.8950   -0.1717 C   0  0  0  0  0  0  0  0  0  0  0  0
    2.8320   -0.1146   -1.1434 H   0  0  0  0  0  0  0  0  0  0  0  0
    3.4611   -1.5083    1.1607 H   0  0  0  0  0  0  0  0  0  0  0  0
    5.4187    0.0097   -0.6654 H   0  0  0  0  0  0  0  0  0  0  0  0
    5.8601   -1.2987    0.4383 H   0  0  0  0  0  0  0  0  0  0  0  0
    4.8092   -1.6261   -0.9524 H   0  0  0  0  0  0  0  0  0  0  0  0
    4.8203   -0.0861    2.8152 N   0  0  0  0  0  0  0  0  0  0  0  0
    5.2439    0.7072    3.9454 C   0  0  0  0  0  0  0  0  0  0  0  0
    5.0047   -1.0846    2.8412 H   0  0  0  0  0  0  0  0  0  0  0  0
    6.2699    1.0665    3.7779 H   0  0  0  0  0  0  0  0  0  0  0  0
    4.5687    1.5676    4.0629 H   0  0  0  0  0  0  0  0  0  0  0  0
    5.2153    0.0916    4.8565 H   0  0  0  0  0  0  0  0  0  0  0  0
 22 24  2  0  0  0  0
 24 26  1  0  0  0  0
 25 26  2  0  0  0  0
 23 25  1  0  0  0  0
 21 22  1  0  0  0  0
 22 23  1  0  0  0  0
  1  3  1  0  0  0  0
  1  7  1  0  0  0  0
  1  2  2  0  0  0  0
 35 36  1  0  0  0  0
 36 44  1  0  0  0  0
 36 37  2  0  0  0  0
  8  9  1  0  0  0  0
  9 17  1  0  0  0  0
  9 10  2  0  0  0  0
 18 19  1  0  0  0  0
 19 34  1  0  0  0  0
 19 20  2  0  0  0  0
 35 38  1  0  0  0  0
  8 11  1  0  0  0  0
 44 45  1  0  0  0  0
 18 21  1  0  0  0  0
 34 35  1  0  0  0  0
  7  8  1  0  0  0  0
 17 18  1  0  0  0  0
 24 32  1  0  0  0  0
 25 33  1  0  0  0  0
  3  4  1  0  0  0  0
  3  5  1  0  0  0  0
  3  6  1  0  0  0  0
 38 41  1  0  0  0  0
 38 42  1  0  0  0  0
 38 43  1  0  0  0  0
 11 14  1  0  0  0  0
 11 15  1  0  0  0  0
 11 16  1  0  0  0  0
 45 47  1  0  0  0  0
 45 48  1  0  0  0  0
 45 49  1  0  0  0  0
 21 29  1  0  0  0  0
 21 30  1  0  0  0  0
 35 40  1  0  0  0  0
  8 13  1  0  0  0  0
 18 28  1  0  0  0  0
 23 31  1  0  0  0  0
 44 46  1  0  0  0  0
  7 12  1  0  0  0  0
 34 39  1  0  0  0  0
 17 27  1  0  0  0  0
M  END
$$$$

  -OEChem-05262214473D

 49 49  0     1  0  0  0  0  0999 V2000
   -1.5619    0.5658    3.7981 C   0  0  0  0  0  0  0  0  0  0  0  0
   -0.6145   -0.0489    3.3224 O   0  0  0  0  0  0  0  0  0  0  0  0
   -1.9938    0.2834    5.1988 C   0  0  0  0  0  0  0  0  0  0  0  0
   -2.7535   -0.5129    5.2522 H   0  0  0  0  0  0  0  0  0  0  0  0
   -1.1626   -0.0642    5.8331 H   0  0  0  0  0  0  0  0  0  0  0  0
   -2.4318    1.1383    5.7384 H   0  0  0  0  0  0  0  0  0  0  0  0
   -2.3116    1.5383    3.1570 N   0  0  0  0  0  0  0  0  0  0  0  0
   -2.0648    1.9643    1.8046 C   0  0  2  0  0  0  0  0  0  0  0  0
   -0.7298    1.3789    1.3634 C   0  0  0  0  0  0  0  0  0  0  0  0
    0.1423    1.0262    2.1547 O   0  0  0  0  0  0  0  0  0  0  0  0
   -2.0560    3.4811    1.6952 C   0  0  0  0  0  0  0  0  0  0  0  0
   -3.0767    1.9741    3.6688 H   0  0  0  0  0  0  0  0  0  0  0  0
   -2.8689    1.5458    1.1895 H   0  0  0  0  0  0  0  0  0  0  0  0
   -1.2569    3.9183    2.3049 H   0  0  0  0  0  0  0  0  0  0  0  0
   -1.8965    3.8033    0.6609 H   0  0  0  0  0  0  0  0  0  0  0  0
   -3.0062    3.9023    2.0409 H   0  0  0  0  0  0  0  0  0  0  0  0
   -0.6071    1.3358   -0.0200 N   0  0  0  0  0  0  0  0  0  0  0  0
    0.5702    0.8350   -0.6836 C   0  0  2  0  0  0  0  0  0  0  0  0
    1.5515    0.4063    0.4014 C   0  0  0  0  0  0  0  0  0  0  0  0
    1.2159    0.2096    1.5674 O   0  0  0  0  0  0  0  0  0  0  0  0
    1.2113    1.8862   -1.5969 C   0  0  0  0  0  0  0  0  0  0  0  0
    0.3150    2.2887   -2.7425 C   0  0  0  0  0  0  0  0  0  0  0  0
    0.1023    1.4899   -3.8305 N   0  0  0  0  0  0  0  0  0  0  0  0
   -0.4357    3.4157   -2.9811 C   0  0  0  0  0  0  0  0  0  0  0  0
   -0.7514    2.1546   -4.6664 C   0  0  0  0  0  0  0  0  0  0  0  0
   -1.0973    3.3259   -4.1802 N   0  0  0  0  0  0  0  0  0  0  0  0
   -1.3903    1.6325   -0.5973 H   0  0  0  0  0  0  0  0  0  0  0  0
    0.2562   -0.0479   -1.2528 H   0  0  0  0  0  0  0  0  0  0  0  0
    2.1685    1.5165   -1.9891 H   0  0  0  0  0  0  0  0  0  0  0  0
    1.4640    2.7886   -1.0247 H   0  0  0  0  0  0  0  0  0  0  0  0
    0.5026    0.5749   -3.9916 H   0  0  0  0  0  0  0  0  0  0  0  0
   -0.5351    4.2887   -2.3518 H   0  0  0  0  0  0  0  0  0  0  0  0
   -1.0790    1.7331   -5.6061 H   0  0  0  0  0  0  0  0  0  0  0  0
    2.8327    0.2223   -0.1000 N   0  0  0  0  0  0  0  0  0  0  0  0
    3.9487   -0.2061    0.7121 C   0  0  2  0  0  0  0  0  0  0  0  0
    3.9977    0.6806    1.9495 C   0  0  0  0  0  0  0  0  0  0  0  0
    3.4911    1.7997    1.9932 O   0  0  0  0  0  0  0  0  0  0  0  0
    5.2561   -0.1327   -0.0612 C   0  0  0  0  0  0  0  0  0  0  0  0
    2.9939    0.3976   -1.0874 H   0  0  0  0  0  0  0  0  0  0  0  0
    3.7441   -1.2400    1.0109 H   0  0  0  0  0  0  0  0  0  0  0  0
    5.4780    0.8956   -0.3689 H   0  0  0  0  0  0  0  0  0  0  0  0
    6.0966   -0.4846    0.5461 H   0  0  0  0  0  0  0  0  0  0  0  0
    5.2085   -0.7476   -0.9664 H   0  0  0  0  0  0  0  0  0  0  0  0
    4.7108    0.0927    2.9849 N   0  0  0  0  0  0  0  0  0  0  0  0
    4.9103    0.7405    4.2603 C   0  0  0  0  0  0  0  0  0  0  0  0
    5.0801   -0.8462    2.8672 H   0  0  0  0  0  0  0  0  0  0  0  0
    5.8570    1.3003    4.2437 H   0  0  0  0  0  0  0  0  0  0  0  0
    4.0781    1.4333    4.4536 H   0  0  0  0  0  0  0  0  0  0  0  0
    4.9473   -0.0189    5.0552 H   0  0  0  0  0  0  0  0  0  0  0  0
 22 24  2  0  0  0  0
 24 26  1  0  0  0  0
 25 26  2  0  0  0  0
 23 25  1  0  0  0  0
 21 22  1  0  0  0  0
 22 23  1  0  0  0  0
  1  3  1  0  0  0  0
  1  7  1  0  0  0  0
  1  2  2  0  0  0  0
 35 36  1  0  0  0  0
 36 44  1  0  0  0  0
 36 37  2  0  0  0  0
  8  9  1  0  0  0  0
  9 17  1  0  0  0  0
  9 10  2  0  0  0  0
 18 19  1  0  0  0  0
 19 34  1  0  0  0  0
 19 20  2  0  0  0  0
 35 38  1  0  0  0  0
  8 11  1  0  0  0  0
 44 45  1  0  0  0  0
 18 21  1  0  0  0  0
 34 35  1  0  0  0  0
  7  8  1  0  0  0  0
 17 18  1  0  0  0  0
 24 32  1  0  0  0  0
 25 33  1  0  0  0  0
  3  4  1  0  0  0  0
  3  5  1  0  0  0  0
  3  6  1  0  0  0  0
 38 41  1  0  0  0  0
 38 42  1  0  0  0  0
 38 43  1  0  0  0  0
 11 14  1  0  0  0  0
 11 15  1  0  0  0  0
 11 16  1  0  0  0  0
 45 47  1  0  0  0  0
 45 48  1  0  0  0  0
 45 49  1  0  0  0  0
 21 29  1  0  0  0  0
 21 30  1  0  0  0  0
 35 40  1  0  0  0  0
  8 13  1  0  0  0  0
 18 28  1  0  0  0  0
 23 31  1  0  0  0  0
 44 46  1  0  0  0  0
  7 12  1  0  0  0  0
 34 39  1  0  0  0  0
 17 27  1  0  0  0  0
M  END
$$$$

  -OEChem-05262214473D

 49 49  0     1  0  0  0  0  0999 V2000
   -1.5619    0.5658    3.7981 C   0  0  0  0  0  0  0  0  0  0  0  0
   -0.6145   -0.0489    3.3224 O   0  0  0  0  0  0  0  0  0  0  0  0
   -1.9938    0.2834    5.1988 C   0  0  0  0  0  0  0  0  0  0  0  0
   -2.7535   -0.5129    5.2522 H   0  0  0  0  0  0  0  0  0  0  0  0
   -1.1626   -0.0642    5.8331 H   0  0  0  0  0  0  0  0  0  0  0  0
   -2.4318    1.1383    5.7384 H   0  0  0  0  0  0  0  0  0  0  0  0
   -2.3116    1.5383    3.1570 N   0  0  0  0  0  0  0  0  0  0  0  0
   -2.0648    1.9643    1.8046 C   0  0  2  0  0  0  0  0  0  0  0  0
   -0.7298    1.3789    1.3634 C   0  0  0  0  0  0  0  0  0  0  0  0
    0.1423    1.0262    2.1547 O   0  0  0  0  0  0  0  0  0  0  0  0
   -2.0560    3.4811    1.6952 C   0  0  0  0  0  0  0  0  0  0  0  0
   -3.0767    1.9741    3.6688 H   0  0  0  0  0  0  0  0  0  0  0  0
   -2.8689    1.5458    1.1895 H   0  0  0  0  0  0  0  0  0  0  0  0
   -1.2569    3.9183    2.3049 H   0  0  0  0  0  0  0  0  0  0  0  0
   -1.8965    3.8033    0.6609 H   0  0  0  0  0  0  0  0  0  0  0  0
   -3.0062    3.9023    2.0409 H   0  0  0  0  0  0  0  0  0  0  0  0
   -0.6071    1.3358   -0.0200 N   0  0  0  0  0  0  0  0  0  0  0  0
    0.5702    0.8350   -0.6836 C   0  0  2  0  0  0  0  0  0  0  0  0
    1.5515    0.4063    0.4014 C   0  0  0  0  0  0  0  0  0  0  0  0
    1.1934   -0.0462    1.4867 O   0  0  0  0  0  0  0  0  0  0  0  0
    1.2113    1.8862   -1.5969 C   0  0  0  0  0  0  0  0  0  0  0  0
    0.3150    2.2887   -2.7425 C   0  0  0  0  0  0  0  0  0  0  0  0
    0.1023    1.4899   -3.8305 N   0  0  0  0  0  0  0  0  0  0  0  0
   -0.4357    3.4157   -2.9811 C   0  0  0  0  0  0  0  0  0  0  0  0
   -0.7514    2.1546   -4.6664 C   0  0  0  0  0  0  0  0  0  0  0  0
   -1.0973    3.3259   -4.1802 N   0  0  0  0  0  0  0  0  0  0  0  0
   -1.3903    1.6325   -0.5973 H   0  0  0  0  0  0  0  0  0  0  0  0
    0.2562   -0.0479   -1.2528 H   0  0  0  0  0  0  0  0  0  0  0  0
    2.1685    1.5165   -1.9891 H   0  0  0  0  0  0  0  0  0  0  0  0
    1.4640    2.7886   -1.0247 H   0  0  0  0  0  0  0  0  0  0  0  0
    0.5026    0.5749   -3.9916 H   0  0  0  0  0  0  0  0  0  0  0  0
   -0.5351    4.2887   -2.3518 H   0  0  0  0  0  0  0  0  0  0  0  0
   -1.0790    1.7331   -5.6061 H   0  0  0  0  0  0  0  0  0  0  0  0
    2.8708    0.5431   -0.0077 N   0  0  0  0  0  0  0  0  0  0  0  0
    3.9997    0.1860    0.8210 C   0  0  2  0  0  0  0  0  0  0  0  0
    3.8081    0.8390    2.1835 C   0  0  0  0  0  0  0  0  0  0  0  0
    3.0961    1.8253    2.3605 O   0  0  0  0  0  0  0  0  0  0  0  0
    5.3113    0.6240    0.1880 C   0  0  0  0  0  0  0  0  0  0  0  0
    3.0519    0.9129   -0.9363 H   0  0  0  0  0  0  0  0  0  0  0  0
    3.9789   -0.9036    0.9314 H   0  0  0  0  0  0  0  0  0  0  0  0
    5.3506    1.7129    0.0693 H   0  0  0  0  0  0  0  0  0  0  0  0
    6.1672    0.3275    0.8031 H   0  0  0  0  0  0  0  0  0  0  0  0
    5.4334    0.1769   -0.8045 H   0  0  0  0  0  0  0  0  0  0  0  0
    4.5597    0.2170    3.1706 N   0  0  0  0  0  0  0  0  0  0  0  0
    4.5590    0.6587    4.5457 C   0  0  0  0  0  0  0  0  0  0  0  0
    5.1071   -0.6063    2.9376 H   0  0  0  0  0  0  0  0  0  0  0  0
    5.3812    1.3724    4.7026 H   0  0  0  0  0  0  0  0  0  0  0  0
    3.6004    1.1481    4.7729 H   0  0  0  0  0  0  0  0  0  0  0  0
    4.6944   -0.2081    5.2092 H   0  0  0  0  0  0  0  0  0  0  0  0
 22 24  2  0  0  0  0
 24 26  1  0  0  0  0
 25 26  2  0  0  0  0
 23 25  1  0  0  0  0
 21 22  1  0  0  0  0
 22 23  1  0  0  0  0
  1  3  1  0  0  0  0
  1  7  1  0  0  0  0
  1  2  2  0  0  0  0
 35 36  1  0  0  0  0
 36 44  1  0  0  0  0
 36 37  2  0  0  0  0
  8  9  1  0  0  0  0
  9 17  1  0  0  0  0
  9 10  2  0  0  0  0
 18 19  1  0  0  0  0
 19 34  1  0  0  0  0
 19 20  2  0  0  0  0
 35 38  1  0  0  0  0
  8 11  1  0  0  0  0
 44 45  1  0  0  0  0
 18 21  1  0  0  0  0
 34 35  1  0  0  0  0
  7  8  1  0  0  0  0
 17 18  1  0  0  0  0
 24 32  1  0  0  0  0
 25 33  1  0  0  0  0
  3  4  1  0  0  0  0
  3  5  1  0  0  0  0
  3  6  1  0  0  0  0
 38 41  1  0  0  0  0
 38 42  1  0  0  0  0
 38 43  1  0  0  0  0
 11 14  1  0  0  0  0
 11 15  1  0  0  0  0
 11 16  1  0  0  0  0
 45 47  1  0  0  0  0
 45 48  1  0  0  0  0
 45 49  1  0  0  0  0
 21 29  1  0  0  0  0
 21 30  1  0  0  0  0
 35 40  1  0  0  0  0
  8 13  1  0  0  0  0
 18 28  1  0  0  0  0
 23 31  1  0  0  0  0
 44 46  1  0  0  0  0
  7 12  1  0  0  0  0
 34 39  1  0  0  0  0
 17 27  1  0  0  0  0
M  END
$$$$

  -OEChem-05262214473D

 49 49  0     1  0  0  0  0  0999 V2000
   -1.5619    0.5658    3.7981 C   0  0  0  0  0  0  0  0  0  0  0  0
   -0.6145   -0.0489    3.3224 O   0  0  0  0  0  0  0  0  0  0  0  0
   -1.9938    0.2834    5.1988 C   0  0  0  0  0  0  0  0  0  0  0  0
   -2.7535   -0.5129    5.2522 H   0  0  0  0  0  0  0  0  0  0  0  0
   -1.1626   -0.0642    5.8331 H   0  0  0  0  0  0  0  0  0  0  0  0
   -2.4318    1.1383    5.7384 H   0  0  0  0  0  0  0  0  0  0  0  0
   -2.3116    1.5383    3.1570 N   0  0  0  0  0  0  0  0  0  0  0  0
   -2.0648    1.9643    1.8046 C   0  0  2  0  0  0  0  0  0  0  0  0
   -0.7298    1.3789    1.3634 C   0  0  0  0  0  0  0  0  0  0  0  0
    0.1423    1.0262    2.1547 O   0  0  0  0  0  0  0  0  0  0  0  0
   -2.0560    3.4811    1.6952 C   0  0  0  0  0  0  0  0  0  0  0  0
   -3.0767    1.9741    3.6688 H   0  0  0  0  0  0  0  0  0  0  0  0
   -2.8689    1.5458    1.1895 H   0  0  0  0  0  0  0  0  0  0  0  0
   -1.2569    3.9183    2.3049 H   0  0  0  0  0  0  0  0  0  0  0  0
   -1.8965    3.8033    0.6609 H   0  0  0  0  0  0  0  0  0  0  0  0
   -3.0062    3.9023    2.0409 H   0  0  0  0  0  0  0  0  0  0  0  0
   -0.6071    1.3358   -0.0200 N   0  0  0  0  0  0  0  0  0  0  0  0
    0.5702    0.8350   -0.6836 C   0  0  2  0  0  0  0  0  0  0  0  0
    1.5515    0.4063    0.4014 C   0  0  0  0  0  0  0  0  0  0  0  0
    1.2246   -0.2840    1.3645 O   0  0  0  0  0  0  0  0  0  0  0  0
    1.2113    1.8862   -1.5969 C   0  0  0  0  0  0  0  0  0  0  0  0
    0.3150    2.2887   -2.7425 C   0  0  0  0  0  0  0  0  0  0  0  0
    0.1023    1.4899   -3.8305 N   0  0  0  0  0  0  0  0  0  0  0  0
   -0.4357    3.4157   -2.9811 C   0  0  0  0  0  0  0  0  0  0  0  0
   -0.7514    2.1546   -4.6664 C   0  0  0  0  0  0  0  0  0  0  0  0
   -1.0973    3.3259   -4.1802 N   0  0  0  0  0  0  0  0  0  0  0  0
   -1.3903    1.6325   -0.5973 H   0  0  0  0  0  0  0  0  0  0  0  0
    0.2562   -0.0479   -1.2528 H   0  0  0  0  0  0  0  0  0  0  0  0
    2.1685    1.5165   -1.9891 H   0  0  0  0  0  0  0  0  0  0  0  0
    1.4640    2.7886   -1.0247 H   0  0  0  0  0  0  0  0  0  0  0  0
    0.5026    0.5749   -3.9916 H   0  0  0  0  0  0  0  0  0  0  0  0
   -0.5351    4.2887   -2.3518 H   0  0  0  0  0  0  0  0  0  0  0  0
   -1.0790    1.7331   -5.6061 H   0  0  0  0  0  0  0  0  0  0  0  0
    2.8418    0.8446    0.1376 N   0  0  0  0  0  0  0  0  0  0  0  0
    3.9688    0.5560    0.9952 C   0  0  2  0  0  0  0  0  0  0  0  0
    3.5788    0.9181    2.4222 C   0  0  0  0  0  0  0  0  0  0  0  0
    2.6831    1.7159    2.6909 O   0  0  0  0  0  0  0  0  0  0  0  0
    5.2070    1.3235    0.5587 C   0  0  0  0  0  0  0  0  0  0  0  0
    3.0020    1.3961   -0.7002 H   0  0  0  0  0  0  0  0  0  0  0  0
    4.1495   -0.5223    0.9277 H   0  0  0  0  0  0  0  0  0  0  0  0
    5.0450    2.4059    0.6195 H   0  0  0  0  0  0  0  0  0  0  0  0
    6.0672    1.0820    1.1918 H   0  0  0  0  0  0  0  0  0  0  0  0
    5.4686    1.0843   -0.4777 H   0  0  0  0  0  0  0  0  0  0  0  0
    4.3774    0.2782    3.3597 N   0  0  0  0  0  0  0  0  0  0  0  0
    4.2140    0.4675    4.7822 C   0  0  0  0  0  0  0  0  0  0  0  0
    5.0840   -0.3814    3.0474 H   0  0  0  0  0  0  0  0  0  0  0  0
    4.8749    1.2779    5.1231 H   0  0  0  0  0  0  0  0  0  0  0  0
    3.1684    0.7315    4.9991 H   0  0  0  0  0  0  0  0  0  0  0  0
    4.4738   -0.4631    5.3080 H   0  0  0  0  0  0  0  0  0  0  0  0
 22 24  2  0  0  0  0
 24 26  1  0  0  0  0
 25 26  2  0  0  0  0
 23 25  1  0  0  0  0
 21 22  1  0  0  0  0
 22 23  1  0  0  0  0
  1  3  1  0  0  0  0
  1  7  1  0  0  0  0
  1  2  2  0  0  0  0
 35 36  1  0  0  0  0
 36 44  1  0  0  0  0
 36 37  2  0  0  0  0
  8  9  1  0  0  0  0
  9 17  1  0  0  0  0
  9 10  2  0  0  0  0
 18 19  1  0  0  0  0
 19 34  1  0  0  0  0
 19 20  2  0  0  0  0
 35 38  1  0  0  0  0
  8 11  1  0  0  0  0
 44 45  1  0  0  0  0
 18 21  1  0  0  0  0
 34 35  1  0  0  0  0
  7  8  1  0  0  0  0
 17 18  1  0  0  0  0
 24 32  1  0  0  0  0
 25 33  1  0  0  0  0
  3  4  1  0  0  0  0
  3  5  1  0  0  0  0
  3  6  1  0  0  0  0
 38 41  1  0  0  0  0
 38 42  1  0  0  0  0
 38 43  1  0  0  0  0
 11 14  1  0  0  0  0
 11 15  1  0  0  0  0
 11 16  1  0  0  0  0
 45 47  1  0  0  0  0
 45 48  1  0  0  0  0
 45 49  1  0  0  0  0
 21 29  1  0  0  0  0
 21 30  1  0  0  0  0
 35 40  1  0  0  0  0
  8 13  1  0  0  0  0
 18 28  1  0  0  0  0
 23 31  1  0  0  0  0
 44 46  1  0  0  0  0
  7 12  1  0  0  0  0
 34 39  1  0  0  0  0
 17 27  1  0  0  0  0
M  END
$$$$

  -OEChem-05262214473D

 49 49  0     1  0  0  0  0  0999 V2000
   -1.5619    0.5658    3.7981 C   0  0  0  0  0  0  0  0  0  0  0  0
   -0.6145   -0.0489    3.3224 O   0  0  0  0  0  0  0  0  0  0  0  0
   -1.9938    0.2834    5.1988 C   0  0  0  0  0  0  0  0  0  0  0  0
   -2.7535   -0.5129    5.2522 H   0  0  0  0  0  0  0  0  0  0  0  0
   -1.1626   -0.0642    5.8331 H   0  0  0  0  0  0  0  0  0  0  0  0
   -2.4318    1.1383    5.7384 H   0  0  0  0  0  0  0  0  0  0  0  0
   -2.3116    1.5383    3.1570 N   0  0  0  0  0  0  0  0  0  0  0  0
   -2.0648    1.9643    1.8046 C   0  0  2  0  0  0  0  0  0  0  0  0
   -0.7298    1.3789    1.3634 C   0  0  0  0  0  0  0  0  0  0  0  0
    0.1423    1.0262    2.1547 O   0  0  0  0  0  0  0  0  0  0  0  0
   -2.0560    3.4811    1.6952 C   0  0  0  0  0  0  0  0  0  0  0  0
   -3.0767    1.9741    3.6688 H   0  0  0  0  0  0  0  0  0  0  0  0
   -2.8689    1.5458    1.1895 H   0  0  0  0  0  0  0  0  0  0  0  0
   -1.2569    3.9183    2.3049 H   0  0  0  0  0  0  0  0  0  0  0  0
   -1.8965    3.8033    0.6609 H   0  0  0  0  0  0  0  0  0  0  0  0
   -3.0062    3.9023    2.0409 H   0  0  0  0  0  0  0  0  0  0  0  0
   -0.6071    1.3358   -0.0200 N   0  0  0  0  0  0  0  0  0  0  0  0
    0.5702    0.8350   -0.6836 C   0  0  2  0  0  0  0  0  0  0  0  0
    1.5515    0.4063    0.4014 C   0  0  0  0  0  0  0  0  0  0  0  0
    1.3075   -0.4875    1.2091 O   0  0  0  0  0  0  0  0  0  0  0  0
    1.2113    1.8862   -1.5969 C   0  0  0  0  0  0  0  0  0  0  0  0
    0.3150    2.2887   -2.7425 C   0  0  0  0  0  0  0  0  0  0  0  0
    0.1023    1.4899   -3.8305 N   0  0  0  0  0  0  0  0  0  0  0  0
   -0.4357    3.4157   -2.9811 C   0  0  0  0  0  0  0  0  0  0  0  0
   -0.7514    2.1546   -4.6664 C   0  0  0  0  0  0  0  0  0  0  0  0
   -1.0973    3.3259   -4.1802 N   0  0  0  0  0  0  0  0  0  0  0  0
   -1.3903    1.6325   -0.5973 H   0  0  0  0  0  0  0  0  0  0  0  0
    0.2562   -0.0479   -1.2528 H   0  0  0  0  0  0  0  0  0  0  0  0
    2.1685    1.5165   -1.9891 H   0  0  0  0  0  0  0  0  0  0  0  0
    1.4640    2.7886   -1.0247 H   0  0  0  0  0  0  0  0  0  0  0  0
    0.5026    0.5749   -3.9916 H   0  0  0  0  0  0  0  0  0  0  0  0
   -0.5351    4.2887   -2.3518 H   0  0  0  0  0  0  0  0  0  0  0  0
   -1.0790    1.7331   -5.6061 H   0  0  0  0  0  0  0  0  0  0  0  0
    2.7477    1.1063    0.3262 N   0  0  0  0  0  0  0  0  0  0  0  0
    3.8581    0.8787    1.2228 C   0  0  2  0  0  0  0  0  0  0  0  0
    3.3254    0.9125    2.6492 C   0  0  0  0  0  0  0  0  0  0  0  0
    2.2803    1.4792    2.9617 O   0  0  0  0  0  0  0  0  0  0  0  0
    4.9505    1.9182    1.0257 C   0  0  0  0  0  0  0  0  0  0  0  0
    2.8476    1.8143   -0.3953 H   0  0  0  0  0  0  0  0  0  0  0  0
    4.2444   -0.1219    1.0002 H   0  0  0  0  0  0  0  0  0  0  0  0
    4.5821    2.9272    1.2442 H   0  0  0  0  0  0  0  0  0  0  0  0
    5.8032    1.7277    1.6857 H   0  0  0  0  0  0  0  0  0  0  0  0
    5.3116    1.9129   -0.0083 H   0  0  0  0  0  0  0  0  0  0  0  0
    4.1763    0.2723    3.5393 N   0  0  0  0  0  0  0  0  0  0  0  0
    3.8987    0.1798    4.9537 C   0  0  0  0  0  0  0  0  0  0  0  0
    5.0121   -0.1867    3.1893 H   0  0  0  0  0  0  0  0  0  0  0  0
    4.3727    1.0234    5.4768 H   0  0  0  0  0  0  0  0  0  0  0  0
    2.8113    0.2118    5.1167 H   0  0  0  0  0  0  0  0  0  0  0  0
    4.3004   -0.7665    5.3449 H   0  0  0  0  0  0  0  0  0  0  0  0
 22 24  2  0  0  0  0
 24 26  1  0  0  0  0
 25 26  2  0  0  0  0
 23 25  1  0  0  0  0
 21 22  1  0  0  0  0
 22 23  1  0  0  0  0
  1  3  1  0  0  0  0
  1  7  1  0  0  0  0
  1  2  2  0  0  0  0
 35 36  1  0  0  0  0
 36 44  1  0  0  0  0
 36 37  2  0  0  0  0
  8  9  1  0  0  0  0
  9 17  1  0  0  0  0
  9 10  2  0  0  0  0
 18 19  1  0  0  0  0
 19 34  1  0  0  0  0
 19 20  2  0  0  0  0
 35 38  1  0  0  0  0
  8 11  1  0  0  0  0
 44 45  1  0  0  0  0
 18 21  1  0  0  0  0
 34 35  1  0  0  0  0
  7  8  1  0  0  0  0
 17 18  1  0  0  0  0
 24 32  1  0  0  0  0
 25 33  1  0  0  0  0
  3  4  1  0  0  0  0
  3  5  1  0  0  0  0
  3  6  1  0  0  0  0
 38 41  1  0  0  0  0
 38 42  1  0  0  0  0
 38 43  1  0  0  0  0
 11 14  1  0  0  0  0
 11 15  1  0  0  0  0
 11 16  1  0  0  0  0
 45 47  1  0  0  0  0
 45 48  1  0  0  0  0
 45 49  1  0  0  0  0
 21 29  1  0  0  0  0
 21 30  1  0  0  0  0
 35 40  1  0  0  0  0
  8 13  1  0  0  0  0
 18 28  1  0  0  0  0
 23 31  1  0  0  0  0
 44 46  1  0  0  0  0
  7 12  1  0  0  0  0
 34 39  1  0  0  0  0
 17 27  1  0  0  0  0
M  END
$$$$

  -OEChem-05262214473D

 49 49  0     1  0  0  0  0  0999 V2000
   -1.5619    0.5658    3.7981 C   0  0  0  0  0  0  0  0  0  0  0  0
   -0.6145   -0.0489    3.3224 O   0  0  0  0  0  0  0  0  0  0  0  0
   -1.9938    0.2834    5.1988 C   0  0  0  0  0  0  0  0  0  0  0  0
   -2.7535   -0.5129    5.2522 H   0  0  0  0  0  0  0  0  0  0  0  0
   -1.1626   -0.0642    5.8331 H   0  0  0  0  0  0  0  0  0  0  0  0
   -2.4318    1.1383    5.7384 H   0  0  0  0  0  0  0  0  0  0  0  0
   -2.3116    1.5383    3.1570 N   0  0  0  0  0  0  0  0  0  0  0  0
   -2.0648    1.9643    1.8046 C   0  0  2  0  0  0  0  0  0  0  0  0
   -0.7298    1.3789    1.3634 C   0  0  0  0  0  0  0  0  0  0  0  0
    0.1423    1.0262    2.1547 O   0  0  0  0  0  0  0  0  0  0  0  0
   -2.0560    3.4811    1.6952 C   0  0  0  0  0  0  0  0  0  0  0  0
   -3.0767    1.9741    3.6688 H   0  0  0  0  0  0  0  0  0  0  0  0
   -2.8689    1.5458    1.1895 H   0  0  0  0  0  0  0  0  0  0  0  0
   -1.2569    3.9183    2.3049 H   0  0  0  0  0  0  0  0  0  0  0  0
   -1.8965    3.8033    0.6609 H   0  0  0  0  0  0  0  0  0  0  0  0
   -3.0062    3.9023    2.0409 H   0  0  0  0  0  0  0  0  0  0  0  0
   -0.6071    1.3358   -0.0200 N   0  0  0  0  0  0  0  0  0  0  0  0
    0.5702    0.8350   -0.6836 C   0  0  2  0  0  0  0  0  0  0  0  0
    1.5515    0.4063    0.4014 C   0  0  0  0  0  0  0  0  0  0  0  0
    1.4363   -0.6430    1.0311 O   0  0  0  0  0  0  0  0  0  0  0  0
    1.2113    1.8862   -1.5969 C   0  0  0  0  0  0  0  0  0  0  0  0
    0.3150    2.2887   -2.7425 C   0  0  0  0  0  0  0  0  0  0  0  0
    0.1023    1.4899   -3.8305 N   0  0  0  0  0  0  0  0  0  0  0  0
   -0.4357    3.4157   -2.9811 C   0  0  0  0  0  0  0  0  0  0  0  0
   -0.7514    2.1546   -4.6664 C   0  0  0  0  0  0  0  0  0  0  0  0
   -1.0973    3.3259   -4.1802 N   0  0  0  0  0  0  0  0  0  0  0  0
   -1.3903    1.6325   -0.5973 H   0  0  0  0  0  0  0  0  0  0  0  0
    0.2562   -0.0479   -1.2528 H   0  0  0  0  0  0  0  0  0  0  0  0
    2.1685    1.5165   -1.9891 H   0  0  0  0  0  0  0  0  0  0  0  0
    1.4640    2.7886   -1.0247 H   0  0  0  0  0  0  0  0  0  0  0  0
    0.5026    0.5749   -3.9916 H   0  0  0  0  0  0  0  0  0  0  0  0
   -0.5351    4.2887   -2.3518 H   0  0  0  0  0  0  0  0  0  0  0  0
   -1.0790    1.7331   -5.6061 H   0  0  0  0  0  0  0  0  0  0  0  0
    2.5948    1.3104    0.5450 N   0  0  0  0  0  0  0  0  0  0  0  0
    3.6752    1.1321    1.4884 C   0  0  2  0  0  0  0  0  0  0  0  0
    3.0651    0.8226    2.8491 C   0  0  0  0  0  0  0  0  0  0  0  0
    1.9151    1.1313    3.1545 O   0  0  0  0  0  0  0  0  0  0  0  0
    4.5591    2.3676    1.5573 C   0  0  0  0  0  0  0  0  0  0  0  0
    2.5993    2.1390   -0.0424 H   0  0  0  0  0  0  0  0  0  0  0  0
    4.2569    0.2702    1.1437 H   0  0  0  0  0  0  0  0  0  0  0  0
    3.9935    3.2415    1.9007 H   0  0  0  0  0  0  0  0  0  0  0  0
    5.3934    2.2204    2.2511 H   0  0  0  0  0  0  0  0  0  0  0  0
    4.9732    2.6061    0.5717 H   0  0  0  0  0  0  0  0  0  0  0  0
    3.9700    0.1996    3.6972 N   0  0  0  0  0  0  0  0  0  0  0  0
    3.6347   -0.1847    5.0484 C   0  0  0  0  0  0  0  0  0  0  0  0
    4.8965   -0.0355    3.3536 H   0  0  0  0  0  0  0  0  0  0  0  0
    3.9087    0.6260    5.7395 H   0  0  0  0  0  0  0  0  0  0  0  0
    2.5536   -0.3756    5.1176 H   0  0  0  0  0  0  0  0  0  0  0  0
    4.1862   -1.0977    5.3174 H   0  0  0  0  0  0  0  0  0  0  0  0
 22 24  2  0  0  0  0
 24 26  1  0  0  0  0
 25 26  2  0  0  0  0
 23 25  1  0  0  0  0
 21 22  1  0  0  0  0
 22 23  1  0  0  0  0
  1  3  1  0  0  0  0
  1  7  1  0  0  0  0
  1  2  2  0  0  0  0
 35 36  1  0  0  0  0
 36 44  1  0  0  0  0
 36 37  2  0  0  0  0
  8  9  1  0  0  0  0
  9 17  1  0  0  0  0
  9 10  2  0  0  0  0
 18 19  1  0  0  0  0
 19 34  1  0  0  0  0
 19 20  2  0  0  0  0
 35 38  1  0  0  0  0
  8 11  1  0  0  0  0
 44 45  1  0  0  0  0
 18 21  1  0  0  0  0
 34 35  1  0  0  0  0
  7  8  1  0  0  0  0
 17 18  1  0  0  0  0
 24 32  1  0  0  0  0
 25 33  1  0  0  0  0
  3  4  1  0  0  0  0
  3  5  1  0  0  0  0
  3  6  1  0  0  0  0
 38 41  1  0  0  0  0
 38 42  1  0  0  0  0
 38 43  1  0  0  0  0
 11 14  1  0  0  0  0
 11 15  1  0  0  0  0
 11 16  1  0  0  0  0
 45 47  1  0  0  0  0
 45 48  1  0  0  0  0
 45 49  1  0  0  0  0
 21 29  1  0  0  0  0
 21 30  1  0  0  0  0
 35 40  1  0  0  0  0
  8 13  1  0  0  0  0
 18 28  1  0  0  0  0
 23 31  1  0  0  0  0
 44 46  1  0  0  0  0
  7 12  1  0  0  0  0
 34 39  1  0  0  0  0
 17 27  1  0  0  0  0
M  END
$$$$

  -OEChem-05262214473D

 49 49  0     1  0  0  0  0  0999 V2000
   -1.5619    0.5658    3.7981 C   0  0  0  0  0  0  0  0  0  0  0  0
   -0.6145   -0.0489    3.3224 O   0  0  0  0  0  0  0  0  0  0  0  0
   -1.9938    0.2834    5.1988 C   0  0  0  0  0  0  0  0  0  0  0  0
   -2.7535   -0.5129    5.2522 H   0  0  0  0  0  0  0  0  0  0  0  0
   -1.1626   -0.0642    5.8331 H   0  0  0  0  0  0  0  0  0  0  0  0
   -2.4318    1.1383    5.7384 H   0  0  0  0  0  0  0  0  0  0  0  0
   -2.3116    1.5383    3.1570 N   0  0  0  0  0  0  0  0  0  0  0  0
   -2.0648    1.9643    1.8046 C   0  0  2  0  0  0  0  0  0  0  0  0
   -0.7298    1.3789    1.3634 C   0  0  0  0  0  0  0  0  0  0  0  0
    0.1423    1.0262    2.1547 O   0  0  0  0  0  0  0  0  0  0  0  0
   -2.0560    3.4811    1.6952 C   0  0  0  0  0  0  0  0  0  0  0  0
   -3.0767    1.9741    3.6688 H   0  0  0  0  0  0  0  0  0  0  0  0
   -2.8689    1.5458    1.1895 H   0  0  0  0  0  0  0  0  0  0  0  0
   -1.2569    3.9183    2.3049 H   0  0  0  0  0  0  0  0  0  0  0  0
   -1.8965    3.8033    0.6609 H   0  0  0  0  0  0  0  0  0  0  0  0
   -3.0062    3.9023    2.0409 H   0  0  0  0  0  0  0  0  0  0  0  0
   -0.6071    1.3358   -0.0200 N   0  0  0  0  0  0  0  0  0  0  0  0
    0.5702    0.8350   -0.6836 C   0  0  2  0  0  0  0  0  0  0  0  0
    1.5515    0.4063    0.4014 C   0  0  0  0  0  0  0  0  0  0  0  0
    1.6024   -0.7398    0.8427 O   0  0  0  0  0  0  0  0  0  0  0  0
    1.2113    1.8862   -1.5969 C   0  0  0  0  0  0  0  0  0  0  0  0
    0.3150    2.2887   -2.7425 C   0  0  0  0  0  0  0  0  0  0  0  0
    0.1023    1.4899   -3.8305 N   0  0  0  0  0  0  0  0  0  0  0  0
   -0.4357    3.4157   -2.9811 C   0  0  0  0  0  0  0  0  0  0  0  0
   -0.7514    2.1546   -4.6664 C   0  0  0  0  0  0  0  0  0  0  0  0
   -1.0973    3.3259   -4.1802 N   0  0  0  0  0  0  0  0  0  0  0  0
   -1.3903    1.6325   -0.5973 H   0  0  0  0  0  0  0  0  0  0  0  0
    0.2562   -0.0479   -1.2528 H   0  0  0  0  0  0  0  0  0  0  0  0
    2.1685    1.5165   -1.9891 H   0  0  0  0  0  0  0  0  0  0  0  0
    1.4640    2.7886   -1.0247 H   0  0  0  0  0  0  0  0  0  0  0  0
    0.5026    0.5749   -3.9916 H   0  0  0  0  0  0  0  0  0  0  0  0
   -0.5351    4.2887   -2.3518 H   0  0  0  0  0  0  0  0  0  0  0  0
   -1.0790    1.7331   -5.6061 H   0  0  0  0  0  0  0  0  0  0  0  0
    2.3937    1.4428    0.7793 N   0  0  0  0  0  0  0  0  0  0  0  0
    3.4325    1.2989    1.7738 C   0  0  2  0  0  0  0  0  0  0  0  0
    2.8157    0.6545    3.0082 C   0  0  0  0  0  0  0  0  0  0  0  0
    1.6124    0.6958    3.2562 O   0  0  0  0  0  0  0  0  0  0  0  0
    4.0596    2.6411    2.1171 C   0  0  0  0  0  0  0  0  0  0  0  0
    2.2739    2.3481    0.3346 H   0  0  0  0  0  0  0  0  0  0  0  0
    4.1864    0.6274    1.3487 H   0  0  0  0  0  0  0  0  0  0  0  0
    3.3193    3.3273    2.5444 H   0  0  0  0  0  0  0  0  0  0  0  0
    4.8656    2.5267    2.8495 H   0  0  0  0  0  0  0  0  0  0  0  0
    4.4764    3.1167    1.2228 H   0  0  0  0  0  0  0  0  0  0  0  0
    3.7726    0.0650    3.8225 N   0  0  0  0  0  0  0  0  0  0  0  0
    3.4399   -0.6012    5.0600 C   0  0  0  0  0  0  0  0  0  0  0  0
    4.7451    0.0619    3.5291 H   0  0  0  0  0  0  0  0  0  0  0  0
    3.5147    0.1130    5.8932 H   0  0  0  0  0  0  0  0  0  0  0  0
    2.4128   -0.9906    5.0020 H   0  0  0  0  0  0  0  0  0  0  0  0
    4.1389   -1.4340    5.2273 H   0  0  0  0  0  0  0  0  0  0  0  0
 22 24  2  0  0  0  0
 24 26  1  0  0  0  0
 25 26  2  0  0  0  0
 23 25  1  0  0  0  0
 21 22  1  0  0  0  0
 22 23  1  0  0  0  0
  1  3  1  0  0  0  0
  1  7  1  0  0  0  0
  1  2  2  0  0  0  0
 35 36  1  0  0  0  0
 36 44  1  0  0  0  0
 36 37  2  0  0  0  0
  8  9  1  0  0  0  0
  9 17  1  0  0  0  0
  9 10  2  0  0  0  0
 18 19  1  0  0  0  0
 19 34  1  0  0  0  0
 19 20  2  0  0  0  0
 35 38  1  0  0  0  0
  8 11  1  0  0  0  0
 44 45  1  0  0  0  0
 18 21  1  0  0  0  0
 34 35  1  0  0  0  0
  7  8  1  0  0  0  0
 17 18  1  0  0  0  0
 24 32  1  0  0  0  0
 25 33  1  0  0  0  0
  3  4  1  0  0  0  0
  3  5  1  0  0  0  0
  3  6  1  0  0  0  0
 38 41  1  0  0  0  0
 38 42  1  0  0  0  0
 38 43  1  0  0  0  0
 11 14  1  0  0  0  0
 11 15  1  0  0  0  0
 11 16  1  0  0  0  0
 45 47  1  0  0  0  0
 45 48  1  0  0  0  0
 45 49  1  0  0  0  0
 21 29  1  0  0  0  0
 21 30  1  0  0  0  0
 35 40  1  0  0  0  0
  8 13  1  0  0  0  0
 18 28  1  0  0  0  0
 23 31  1  0  0  0  0
 44 46  1  0  0  0  0
  7 12  1  0  0  0  0
 34 39  1  0  0  0  0
 17 27  1  0  0  0  0
M  END
$$$$

  -OEChem-05262214473D

 49 49  0     1  0  0  0  0  0999 V2000
   -1.5619    0.5658    3.7981 C   0  0  0  0  0  0  0  0  0  0  0  0
   -0.6145   -0.0489    3.3224 O   0  0  0  0  0  0  0  0  0  0  0  0
   -1.9938    0.2834    5.1988 C   0  0  0  0  0  0  0  0  0  0  0  0
   -2.7535   -0.5129    5.2522 H   0  0  0  0  0  0  0  0  0  0  0  0
   -1.1626   -0.0642    5.8331 H   0  0  0  0  0  0  0  0  0  0  0  0
   -2.4318    1.1383    5.7384 H   0  0  0  0  0  0  0  0  0  0  0  0
   -2.3116    1.5383    3.1570 N   0  0  0  0  0  0  0  0  0  0  0  0
   -2.0648    1.9643    1.8046 C   0  0  2  0  0  0  0  0  0  0  0  0
   -0.7298    1.3789    1.3634 C   0  0  0  0  0  0  0  0  0  0  0  0
    0.1423    1.0262    2.1547 O   0  0  0  0  0  0  0  0  0  0  0  0
   -2.0560    3.4811    1.6952 C   0  0  0  0  0  0  0  0  0  0  0  0
   -3.0767    1.9741    3.6688 H   0  0  0  0  0  0  0  0  0  0  0  0
   -2.8689    1.5458    1.1895 H   0  0  0  0  0  0  0  0  0  0  0  0
   -1.2569    3.9183    2.3049 H   0  0  0  0  0  0  0  0  0  0  0  0
   -1.8965    3.8033    0.6609 H   0  0  0  0  0  0  0  0  0  0  0  0
   -3.0062    3.9023    2.0409 H   0  0  0  0  0  0  0  0  0  0  0  0
   -0.6071    1.3358   -0.0200 N   0  0  0  0  0  0  0  0  0  0  0  0
    0.5702    0.8350   -0.6836 C   0  0  2  0  0  0  0  0  0  0  0  0
    1.5515    0.4063    0.4014 C   0  0  0  0  0  0  0  0  0  0  0  0
    1.7943   -0.7714    0.6566 O   0  0  0  0  0  0  0  0  0  0  0  0
    1.2113    1.8862   -1.5969 C   0  0  0  0  0  0  0  0  0  0  0  0
    0.3150    2.2887   -2.7425 C   0  0  0  0  0  0  0  0  0  0  0  0
    0.1023    1.4899   -3.8305 N   0  0  0  0  0  0  0  0  0  0  0  0
   -0.4357    3.4157   -2.9811 C   0  0  0  0  0  0  0  0  0  0  0  0
   -0.7514    2.1546   -4.6664 C   0  0  0  0  0  0  0  0  0  0  0  0
   -1.0973    3.3259   -4.1802 N   0  0  0  0  0  0  0  0  0  0  0  0
   -1.3903    1.6325   -0.5973 H   0  0  0  0  0  0  0  0  0  0  0  0
    0.2562   -0.0479   -1.2528 H   0  0  0  0  0  0  0  0  0  0  0  0
    2.1685    1.5165   -1.9891 H   0  0  0  0  0  0  0  0  0  0  0  0
    1.4640    2.7886   -1.0247 H   0  0  0  0  0  0  0  0  0  0  0  0
    0.5026    0.5749   -3.9916 H   0  0  0  0  0  0  0  0  0  0  0  0
   -0.5351    4.2887   -2.3518 H   0  0  0  0  0  0  0  0  0  0  0  0
   -1.0790    1.7331   -5.6061 H   0  0  0  0  0  0  0  0  0  0  0  0
    2.1579    1.4947    1.0130 N   0  0  0  0  0  0  0  0  0  0  0  0
    3.1466    1.3677    2.0596 C   0  0  2  0  0  0  0  0  0  0  0  0
    2.5942    0.4197    3.1158 C   0  0  0  0  0  0  0  0  0  0  0  0
    1.3929    0.2025    3.2598 O   0  0  0  0  0  0  0  0  0  0  0  0
    3.4860    2.7199    2.6671 C   0  0  0  0  0  0  0  0  0  0  0  0
    1.8936    2.4274    0.7098 H   0  0  0  0  0  0  0  0  0  0  0  0
    4.0376    0.9253    1.6010 H   0  0  0  0  0  0  0  0  0  0  0  0
    2.6055    3.1787    3.1314 H   0  0  0  0  0  0  0  0  0  0  0  0
    4.2558    2.6256    3.4401 H   0  0  0  0  0  0  0  0  0  0  0  0
    3.8551    3.4099    1.9006 H   0  0  0  0  0  0  0  0  0  0  0  0
    3.5977   -0.1222    3.9068 N   0  0  0  0  0  0  0  0  0  0  0  0
    3.3277   -1.0414    4.9876 C   0  0  0  0  0  0  0  0  0  0  0  0
    4.5681    0.0988    3.7038 H   0  0  0  0  0  0  0  0  0  0  0  0
    3.2173   -0.4807    5.9275 H   0  0  0  0  0  0  0  0  0  0  0  0
    2.3985   -1.5913    4.7776 H   0  0  0  0  0  0  0  0  0  0  0  0
    4.1616   -1.7526    5.0808 H   0  0  0  0  0  0  0  0  0  0  0  0
 22 24  2  0  0  0  0
 24 26  1  0  0  0  0
 25 26  2  0  0  0  0
 23 25  1  0  0  0  0
 21 22  1  0  0  0  0
 22 23  1  0  0  0  0
  1  3  1  0  0  0  0
  1  7  1  0  0  0  0
  1  2  2  0  0  0  0
 35 36  1  0  0  0  0
 36 44  1  0  0  0  0
 36 37  2  0  0  0  0
  8  9  1  0  0  0  0
  9 17  1  0  0  0  0
  9 10  2  0  0  0  0
 18 19  1  0  0  0  0
 19 34  1  0  0  0  0
 19 20  2  0  0  0  0
 35 38  1  0  0  0  0
  8 11  1  0  0  0  0
 44 45  1  0  0  0  0
 18 21  1  0  0  0  0
 34 35  1  0  0  0  0
  7  8  1  0  0  0  0
 17 18  1  0  0  0  0
 24 32  1  0  0  0  0
 25 33  1  0  0  0  0
  3  4  1  0  0  0  0
  3  5  1  0  0  0  0
  3  6  1  0  0  0  0
 38 41  1  0  0  0  0
 38 42  1  0  0  0  0
 38 43  1  0  0  0  0
 11 14  1  0  0  0  0
 11 15  1  0  0  0  0
 11 16  1  0  0  0  0
 45 47  1  0  0  0  0
 45 48  1  0  0  0  0
 45 49  1  0  0  0  0
 21 29  1  0  0  0  0
 21 30  1  0  0  0  0
 35 40  1  0  0  0  0
  8 13  1  0  0  0  0
 18 28  1  0  0  0  0
 23 31  1  0  0  0  0
 44 46  1  0  0  0  0
  7 12  1  0  0  0  0
 34 39  1  0  0  0  0
 17 27  1  0  0  0  0
M  END
$$$$

  -OEChem-05262214473D

 49 49  0     1  0  0  0  0  0999 V2000
   -1.5619    0.5658    3.7981 C   0  0  0  0  0  0  0  0  0  0  0  0
   -0.6145   -0.0489    3.3224 O   0  0  0  0  0  0  0  0  0  0  0  0
   -1.9938    0.2834    5.1988 C   0  0  0  0  0  0  0  0  0  0  0  0
   -2.7535   -0.5129    5.2522 H   0  0  0  0  0  0  0  0  0  0  0  0
   -1.1626   -0.0642    5.8331 H   0  0  0  0  0  0  0  0  0  0  0  0
   -2.4318    1.1383    5.7384 H   0  0  0  0  0  0  0  0  0  0  0  0
   -2.3116    1.5383    3.1570 N   0  0  0  0  0  0  0  0  0  0  0  0
   -2.0648    1.9643    1.8046 C   0  0  2  0  0  0  0  0  0  0  0  0
   -0.7298    1.3789    1.3634 C   0  0  0  0  0  0  0  0  0  0  0  0
    0.1423    1.0262    2.1547 O   0  0  0  0  0  0  0  0  0  0  0  0
   -2.0560    3.4811    1.6952 C   0  0  0  0  0  0  0  0  0  0  0  0
   -3.0767    1.9741    3.6688 H   0  0  0  0  0  0  0  0  0  0  0  0
   -2.8689    1.5458    1.1895 H   0  0  0  0  0  0  0  0  0  0  0  0
   -1.2569    3.9183    2.3049 H   0  0  0  0  0  0  0  0  0  0  0  0
   -1.8965    3.8033    0.6609 H   0  0  0  0  0  0  0  0  0  0  0  0
   -3.0062    3.9023    2.0409 H   0  0  0  0  0  0  0  0  0  0  0  0
   -0.6071    1.3358   -0.0200 N   0  0  0  0  0  0  0  0  0  0  0  0
    0.5702    0.8350   -0.6836 C   0  0  2  0  0  0  0  0  0  0  0  0
    1.5515    0.4063    0.4014 C   0  0  0  0  0  0  0  0  0  0  0  0
    1.9991   -0.7354    0.4856 O   0  0  0  0  0  0  0  0  0  0  0  0
    1.2113    1.8862   -1.5969 C   0  0  0  0  0  0  0  0  0  0  0  0
    0.3150    2.2887   -2.7425 C   0  0  0  0  0  0  0  0  0  0  0  0
    0.1023    1.4899   -3.8305 N   0  0  0  0  0  0  0  0  0  0  0  0
   -0.4357    3.4157   -2.9811 C   0  0  0  0  0  0  0  0  0  0  0  0
   -0.7514    2.1546   -4.6664 C   0  0  0  0  0  0  0  0  0  0  0  0
   -1.0973    3.3259   -4.1802 N   0  0  0  0  0  0  0  0  0  0  0  0
   -1.3903    1.6325   -0.5973 H   0  0  0  0  0  0  0  0  0  0  0  0
    0.2562   -0.0479   -1.2528 H   0  0  0  0  0  0  0  0  0  0  0  0
    2.1685    1.5165   -1.9891 H   0  0  0  0  0  0  0  0  0  0  0  0
    1.4640    2.7886   -1.0247 H   0  0  0  0  0  0  0  0  0  0  0  0
    0.5026    0.5749   -3.9916 H   0  0  0  0  0  0  0  0  0  0  0  0
   -0.5351    4.2887   -2.3518 H   0  0  0  0  0  0  0  0  0  0  0  0
   -1.0790    1.7331   -5.6061 H   0  0  0  0  0  0  0  0  0  0  0  0
    1.9037    1.4624    1.2303 N   0  0  0  0  0  0  0  0  0  0  0  0
    2.8369    1.3339    2.3263 C   0  0  2  0  0  0  0  0  0  0  0  0
    2.4156    0.1341    3.1645 C   0  0  0  0  0  0  0  0  0  0  0  0
    1.2714   -0.3151    3.1652 O   0  0  0  0  0  0  0  0  0  0  0  0
    2.8774    2.5988    3.1697 C   0  0  0  0  0  0  0  0  0  0  0  0
    1.4844    2.3714    1.0578 H   0  0  0  0  0  0  0  0  0  0  0  0
    3.8206    1.1435    1.8835 H   0  0  0  0  0  0  0  0  0  0  0  0
    1.9005    2.8059    3.6217 H   0  0  0  0  0  0  0  0  0  0  0  0
    3.6056    2.5104    3.9827 H   0  0  0  0  0  0  0  0  0  0  0  0
    3.1516    3.4658    2.5590 H   0  0  0  0  0  0  0  0  0  0  0  0
    3.4570   -0.3492    3.9443 N   0  0  0  0  0  0  0  0  0  0  0  0
    3.3056   -1.4751    4.8362 C   0  0  0  0  0  0  0  0  0  0  0  0
    4.3776    0.0728    3.8658 H   0  0  0  0  0  0  0  0  0  0  0  0
    3.0369   -1.1147    5.8401 H   0  0  0  0  0  0  0  0  0  0  0  0
    2.5117   -2.1368    4.4596 H   0  0  0  0  0  0  0  0  0  0  0  0
    4.2530   -2.0317    4.8879 H   0  0  0  0  0  0  0  0  0  0  0  0
 22 24  2  0  0  0  0
 24 26  1  0  0  0  0
 25 26  2  0  0  0  0
 23 25  1  0  0  0  0
 21 22  1  0  0  0  0
 22 23  1  0  0  0  0
  1  3  1  0  0  0  0
  1  7  1  0  0  0  0
  1  2  2  0  0  0  0
 35 36  1  0  0  0  0
 36 44  1  0  0  0  0
 36 37  2  0  0  0  0
  8  9  1  0  0  0  0
  9 17  1  0  0  0  0
  9 10  2  0  0  0  0
 18 19  1  0  0  0  0
 19 34  1  0  0  0  0
 19 20  2  0  0  0  0
 35 38  1  0  0  0  0
  8 11  1  0  0  0  0
 44 45  1  0  0  0  0
 18 21  1  0  0  0  0
 34 35  1  0  0  0  0
  7  8  1  0  0  0  0
 17 18  1  0  0  0  0
 24 32  1  0  0  0  0
 25 33  1  0  0  0  0
  3  4  1  0  0  0  0
  3  5  1  0  0  0  0
  3  6  1  0  0  0  0
 38 41  1  0  0  0  0
 38 42  1  0  0  0  0
 38 43  1  0  0  0  0
 11 14  1  0  0  0  0
 11 15  1  0  0  0  0
 11 16  1  0  0  0  0
 45 47  1  0  0  0  0
 45 48  1  0  0  0  0
 45 49  1  0  0  0  0
 21 29  1  0  0  0  0
 21 30  1  0  0  0  0
 35 40  1  0  0  0  0
  8 13  1  0  0  0  0
 18 28  1  0  0  0  0
 23 31  1  0  0  0  0
 44 46  1  0  0  0  0
  7 12  1  0  0  0  0
 34 39  1  0  0  0  0
 17 27  1  0  0  0  0
M  END
$$$$

  -OEChem-05262214473D

 49 49  0     1  0  0  0  0  0999 V2000
   -1.5619    0.5658    3.7981 C   0  0  0  0  0  0  0  0  0  0  0  0
   -0.6145   -0.0489    3.3224 O   0  0  0  0  0  0  0  0  0  0  0  0
   -1.9938    0.2834    5.1988 C   0  0  0  0  0  0  0  0  0  0  0  0
   -2.7535   -0.5129    5.2522 H   0  0  0  0  0  0  0  0  0  0  0  0
   -1.1626   -0.0642    5.8331 H   0  0  0  0  0  0  0  0  0  0  0  0
   -2.4318    1.1383    5.7384 H   0  0  0  0  0  0  0  0  0  0  0  0
   -2.3116    1.5383    3.1570 N   0  0  0  0  0  0  0  0  0  0  0  0
   -2.0648    1.9643    1.8046 C   0  0  2  0  0  0  0  0  0  0  0  0
   -0.7298    1.3789    1.3634 C   0  0  0  0  0  0  0  0  0  0  0  0
    0.1423    1.0262    2.1547 O   0  0  0  0  0  0  0  0  0  0  0  0
   -2.0560    3.4811    1.6952 C   0  0  0  0  0  0  0  0  0  0  0  0
   -3.0767    1.9741    3.6688 H   0  0  0  0  0  0  0  0  0  0  0  0
   -2.8689    1.5458    1.1895 H   0  0  0  0  0  0  0  0  0  0  0  0
   -1.2569    3.9183    2.3049 H   0  0  0  0  0  0  0  0  0  0  0  0
   -1.8965    3.8033    0.6609 H   0  0  0  0  0  0  0  0  0  0  0  0
   -3.0062    3.9023    2.0409 H   0  0  0  0  0  0  0  0  0  0  0  0
   -0.6071    1.3358   -0.0200 N   0  0  0  0  0  0  0  0  0  0  0  0
    0.5702    0.8350   -0.6836 C   0  0  2  0  0  0  0  0  0  0  0  0
    1.5515    0.4063    0.4014 C   0  0  0  0  0  0  0  0  0  0  0  0
    2.2027   -0.6346    0.3413 O   0  0  0  0  0  0  0  0  0  0  0  0
    1.2113    1.8862   -1.5969 C   0  0  0  0  0  0  0  0  0  0  0  0
    0.3150    2.2887   -2.7425 C   0  0  0  0  0  0  0  0  0  0  0  0
    0.1023    1.4899   -3.8305 N   0  0  0  0  0  0  0  0  0  0  0  0
   -0.4357    3.4157   -2.9811 C   0  0  0  0  0  0  0  0  0  0  0  0
   -0.7514    2.1546   -4.6664 C   0  0  0  0  0  0  0  0  0  0  0  0
   -1.0973    3.3259   -4.1802 N   0  0  0  0  0  0  0  0  0  0  0  0
   -1.3903    1.6325   -0.5973 H   0  0  0  0  0  0  0  0  0  0  0  0
    0.2562   -0.0479   -1.2528 H   0  0  0  0  0  0  0  0  0  0  0  0
    2.1685    1.5165   -1.9891 H   0  0  0  0  0  0  0  0  0  0  0  0
    1.4640    2.7886   -1.0247 H   0  0  0  0  0  0  0  0  0  0  0  0
    0.5026    0.5749   -3.9916 H   0  0  0  0  0  0  0  0  0  0  0  0
   -0.5351    4.2887   -2.3518 H   0  0  0  0  0  0  0  0  0  0  0  0
   -1.0790    1.7331   -5.6061 H   0  0  0  0  0  0  0  0  0  0  0  0
    1.6482    1.3482    1.4162 N   0  0  0  0  0  0  0  0  0  0  0  0
    2.5246    1.1998    2.5558 C   0  0  2  0  0  0  0  0  0  0  0  0
    2.2922   -0.1827    3.1509 C   0  0  0  0  0  0  0  0  0  0  0  0
    1.2563   -0.8217    2.9787 O   0  0  0  0  0  0  0  0  0  0  0  0
    2.2753    2.2859    3.5907 C   0  0  0  0  0  0  0  0  0  0  0  0
    1.0741    2.1839    1.3549 H   0  0  0  0  0  0  0  0  0  0  0  0
    3.5502    1.2673    2.1770 H   0  0  0  0  0  0  0  0  0  0  0  0
    1.2526    2.2342    3.9818 H   0  0  0  0  0  0  0  0  0  0  0  0
    2.9593    2.1890    4.4402 H   0  0  0  0  0  0  0  0  0  0  0  0
    2.4138    3.2804    3.1530 H   0  0  0  0  0  0  0  0  0  0  0  0
    3.3602   -0.6007    3.9324 N   0  0  0  0  0  0  0  0  0  0  0  0
    3.3752   -1.8729    4.6160 C   0  0  0  0  0  0  0  0  0  0  0  0
    4.1866   -0.0144    4.0041 H   0  0  0  0  0  0  0  0  0  0  0  0
    2.9859   -1.7458    5.6369 H   0  0  0  0  0  0  0  0  0  0  0  0
    2.7446   -2.5899    4.0699 H   0  0  0  0  0  0  0  0  0  0  0  0
    4.4067   -2.2524    4.6617 H   0  0  0  0  0  0  0  0  0  0  0  0
 22 24  2  0  0  0  0
 24 26  1  0  0  0  0
 25 26  2  0  0  0  0
 23 25  1  0  0  0  0
 21 22  1  0  0  0  0
 22 23  1  0  0  0  0
  1  3  1  0  0  0  0
  1  7  1  0  0  0  0
  1  2  2  0  0  0  0
 35 36  1  0  0  0  0
 36 44  1  0  0  0  0
 36 37  2  0  0  0  0
  8  9  1  0  0  0  0
  9 17  1  0  0  0  0
  9 10  2  0  0  0  0
 18 19  1  0  0  0  0
 19 34  1  0  0  0  0
 19 20  2  0  0  0  0
 35 38  1  0  0  0  0
  8 11  1  0  0  0  0
 44 45  1  0  0  0  0
 18 21  1  0  0  0  0
 34 35  1  0  0  0  0
  7  8  1  0  0  0  0
 17 18  1  0  0  0  0
 24 32  1  0  0  0  0
 25 33  1  0  0  0  0
  3  4  1  0  0  0  0
  3  5  1  0  0  0  0
  3  6  1  0  0  0  0
 38 41  1  0  0  0  0
 38 42  1  0  0  0  0
 38 43  1  0  0  0  0
 11 14  1  0  0  0  0
 11 15  1  0  0  0  0
 11 16  1  0  0  0  0
 45 47  1  0  0  0  0
 45 48  1  0  0  0  0
 45 49  1  0  0  0  0
 21 29  1  0  0  0  0
 21 30  1  0  0  0  0
 35 40  1  0  0  0  0
  8 13  1  0  0  0  0
 18 28  1  0  0  0  0
 23 31  1  0  0  0  0
 44 46  1  0  0  0  0
  7 12  1  0  0  0  0
 34 39  1  0  0  0  0
 17 27  1  0  0  0  0
M  END
$$$$

  -OEChem-05262214473D

 49 49  0     1  0  0  0  0  0999 V2000
   -1.5619    0.5658    3.7981 C   0  0  0  0  0  0  0  0  0  0  0  0
   -0.6145   -0.0489    3.3224 O   0  0  0  0  0  0  0  0  0  0  0  0
   -1.9938    0.2834    5.1988 C   0  0  0  0  0  0  0  0  0  0  0  0
   -2.7535   -0.5129    5.2522 H   0  0  0  0  0  0  0  0  0  0  0  0
   -1.1626   -0.0642    5.8331 H   0  0  0  0  0  0  0  0  0  0  0  0
   -2.4318    1.1383    5.7384 H   0  0  0  0  0  0  0  0  0  0  0  0
   -2.3116    1.5383    3.1570 N   0  0  0  0  0  0  0  0  0  0  0  0
   -2.0648    1.9643    1.8046 C   0  0  2  0  0  0  0  0  0  0  0  0
   -0.7298    1.3789    1.3634 C   0  0  0  0  0  0  0  0  0  0  0  0
    0.1423    1.0262    2.1547 O   0  0  0  0  0  0  0  0  0  0  0  0
   -2.0560    3.4811    1.6952 C   0  0  0  0  0  0  0  0  0  0  0  0
   -3.0767    1.9741    3.6688 H   0  0  0  0  0  0  0  0  0  0  0  0
   -2.8689    1.5458    1.1895 H   0  0  0  0  0  0  0  0  0  0  0  0
   -1.2569    3.9183    2.3049 H   0  0  0  0  0  0  0  0  0  0  0  0
   -1.8965    3.8033    0.6609 H   0  0  0  0  0  0  0  0  0  0  0  0
   -3.0062    3.9023    2.0409 H   0  0  0  0  0  0  0  0  0  0  0  0
   -0.6071    1.3358   -0.0200 N   0  0  0  0  0  0  0  0  0  0  0  0
    0.5702    0.8350   -0.6836 C   0  0  2  0  0  0  0  0  0  0  0  0
    1.5515    0.4063    0.4014 C   0  0  0  0  0  0  0  0  0  0  0  0
    2.3913   -0.4756    0.2336 O   0  0  0  0  0  0  0  0  0  0  0  0
    1.2113    1.8862   -1.5969 C   0  0  0  0  0  0  0  0  0  0  0  0
    0.3150    2.2887   -2.7425 C   0  0  0  0  0  0  0  0  0  0  0  0
    0.1023    1.4899   -3.8305 N   0  0  0  0  0  0  0  0  0  0  0  0
   -0.4357    3.4157   -2.9811 C   0  0  0  0  0  0  0  0  0  0  0  0
   -0.7514    2.1546   -4.6664 C   0  0  0  0  0  0  0  0  0  0  0  0
   -1.0973    3.3259   -4.1802 N   0  0  0  0  0  0  0  0  0  0  0  0
   -1.3903    1.6325   -0.5973 H   0  0  0  0  0  0  0  0  0  0  0  0
    0.2562   -0.0479   -1.2528 H   0  0  0  0  0  0  0  0  0  0  0  0
    2.1685    1.5165   -1.9891 H   0  0  0  0  0  0  0  0  0  0  0  0
    1.4640    2.7886   -1.0247 H   0  0  0  0  0  0  0  0  0  0  0  0
    0.5026    0.5749   -3.9916 H   0  0  0  0  0  0  0  0  0  0  0  0
   -0.5351    4.2887   -2.3518 H   0  0  0  0  0  0  0  0  0  0  0  0
   -1.0790    1.7331   -5.6061 H   0  0  0  0  0  0  0  0  0  0  0  0
    1.4089    1.1598    1.5582 N   0  0  0  0  0  0  0  0  0  0  0  0
    2.2309    0.9745    2.7324 C   0  0  2  0  0  0  0  0  0  0  0  0
    2.2324   -0.5092    3.0760 C   0  0  0  0  0  0  0  0  0  0  0  0
    1.3486   -1.2827    2.7130 O   0  0  0  0  0  0  0  0  0  0  0  0
    1.7207    1.8027    3.9014 C   0  0  0  0  0  0  0  0  0  0  0  0
    0.6907    1.8777    1.5807 H   0  0  0  0  0  0  0  0  0  0  0  0
    3.2449    1.2882    2.4614 H   0  0  0  0  0  0  0  0  0  0  0  0
    0.7059    1.5027    4.1872 H   0  0  0  0  0  0  0  0  0  0  0  0
    2.3609    1.6832    4.7816 H   0  0  0  0  0  0  0  0  0  0  0  0
    1.6922    2.8665    3.6422 H   0  0  0  0  0  0  0  0  0  0  0  0
    3.3139   -0.8595    3.8720 N   0  0  0  0  0  0  0  0  0  0  0  0
    3.5317   -2.2077    4.3422 C   0  0  0  0  0  0  0  0  0  0  0  0
    4.0081   -0.1569    4.1092 H   0  0  0  0  0  0  0  0  0  0  0  0
    3.0676   -2.3309    5.3318 H   0  0  0  0  0  0  0  0  0  0  0  0
    3.0814   -2.9197    3.6349 H   0  0  0  0  0  0  0  0  0  0  0  0
    4.6122   -2.3995    4.4176 H   0  0  0  0  0  0  0  0  0  0  0  0
 22 24  2  0  0  0  0
 24 26  1  0  0  0  0
 25 26  2  0  0  0  0
 23 25  1  0  0  0  0
 21 22  1  0  0  0  0
 22 23  1  0  0  0  0
  1  3  1  0  0  0  0
  1  7  1  0  0  0  0
  1  2  2  0  0  0  0
 35 36  1  0  0  0  0
 36 44  1  0  0  0  0
 36 37  2  0  0  0  0
  8  9  1  0  0  0  0
  9 17  1  0  0  0  0
  9 10  2  0  0  0  0
 18 19  1  0  0  0  0
 19 34  1  0  0  0  0
 19 20  2  0  0  0  0
 35 38  1  0  0  0  0
  8 11  1  0  0  0  0
 44 45  1  0  0  0  0
 18 21  1  0  0  0  0
 34 35  1  0  0  0  0
  7  8  1  0  0  0  0
 17 18  1  0  0  0  0
 24 32  1  0  0  0  0
 25 33  1  0  0  0  0
  3  4  1  0  0  0  0
  3  5  1  0  0  0  0
  3  6  1  0  0  0  0
 38 41  1  0  0  0  0
 38 42  1  0  0  0  0
 38 43  1  0  0  0  0
 11 14  1  0  0  0  0
 11 15  1  0  0  0  0
 11 16  1  0  0  0  0
 45 47  1  0  0  0  0
 45 48  1  0  0  0  0
 45 49  1  0  0  0  0
 21 29  1  0  0  0  0
 21 30  1  0  0  0  0
 35 40  1  0  0  0  0
  8 13  1  0  0  0  0
 18 28  1  0  0  0  0
 23 31  1  0  0  0  0
 44 46  1  0  0  0  0
  7 12  1  0  0  0  0
 34 39  1  0  0  0  0
 17 27  1  0  0  0  0
M  END
$$$$

  -OEChem-05262214473D

 49 49  0     1  0  0  0  0  0999 V2000
   -1.5619    0.5658    3.7981 C   0  0  0  0  0  0  0  0  0  0  0  0
   -0.6145   -0.0489    3.3224 O   0  0  0  0  0  0  0  0  0  0  0  0
   -1.9938    0.2834    5.1988 C   0  0  0  0  0  0  0  0  0  0  0  0
   -2.7535   -0.5129    5.2522 H   0  0  0  0  0  0  0  0  0  0  0  0
   -1.1626   -0.0642    5.8331 H   0  0  0  0  0  0  0  0  0  0  0  0
   -2.4318    1.1383    5.7384 H   0  0  0  0  0  0  0  0  0  0  0  0
   -2.3116    1.5383    3.1570 N   0  0  0  0  0  0  0  0  0  0  0  0
   -2.0648    1.9643    1.8046 C   0  0  2  0  0  0  0  0  0  0  0  0
   -0.7298    1.3789    1.3634 C   0  0  0  0  0  0  0  0  0  0  0  0
    0.1423    1.0262    2.1547 O   0  0  0  0  0  0  0  0  0  0  0  0
   -2.0560    3.4811    1.6952 C   0  0  0  0  0  0  0  0  0  0  0  0
   -3.0767    1.9741    3.6688 H   0  0  0  0  0  0  0  0  0  0  0  0
   -2.8689    1.5458    1.1895 H   0  0  0  0  0  0  0  0  0  0  0  0
   -1.2569    3.9183    2.3049 H   0  0  0  0  0  0  0  0  0  0  0  0
   -1.8965    3.8033    0.6609 H   0  0  0  0  0  0  0  0  0  0  0  0
   -3.0062    3.9023    2.0409 H   0  0  0  0  0  0  0  0  0  0  0  0
   -0.6071    1.3358   -0.0200 N   0  0  0  0  0  0  0  0  0  0  0  0
    0.5702    0.8350   -0.6836 C   0  0  2  0  0  0  0  0  0  0  0  0
    1.5515    0.4063    0.4014 C   0  0  0  0  0  0  0  0  0  0  0  0
    2.5520   -0.2693    0.1697 O   0  0  0  0  0  0  0  0  0  0  0  0
    1.2113    1.8862   -1.5969 C   0  0  0  0  0  0  0  0  0  0  0  0
    0.3150    2.2887   -2.7425 C   0  0  0  0  0  0  0  0  0  0  0  0
    0.1023    1.4899   -3.8305 N   0  0  0  0  0  0  0  0  0  0  0  0
   -0.4357    3.4157   -2.9811 C   0  0  0  0  0  0  0  0  0  0  0  0
   -0.7514    2.1546   -4.6664 C   0  0  0  0  0  0  0  0  0  0  0  0
   -1.0973    3.3259   -4.1802 N   0  0  0  0  0  0  0  0  0  0  0  0
   -1.3903    1.6325   -0.5973 H   0  0  0  0  0  0  0  0  0  0  0  0
    0.2562   -0.0479   -1.2528 H   0  0  0  0  0  0  0  0  0  0  0  0
    2.1685    1.5165   -1.9891 H   0  0  0  0  0  0  0  0  0  0  0  0
    1.4640    2.7886   -1.0247 H   0  0  0  0  0  0  0  0  0  0  0  0
    0.5026    0.5749   -3.9916 H   0  0  0  0  0  0  0  0  0  0  0  0
   -0.5351    4.2887   -2.3518 H   0  0  0  0  0  0  0  0  0  0  0  0
   -1.0790    1.7331   -5.6061 H   0  0  0  0  0  0  0  0  0  0  0  0
    1.2022    0.9102    1.6465 N   0  0  0  0  0  0  0  0  0  0  0  0
    1.9759    0.6733    2.8441 C   0  0  2  0  0  0  0  0  0  0  0  0
    2.2401   -0.8231    2.9450 C   0  0  0  0  0  0  0  0  0  0  0  0
    1.5420   -1.6667    2.3863 O   0  0  0  0  0  0  0  0  0  0  0  0
    1.2513    1.1820    4.0806 C   0  0  0  0  0  0  0  0  0  0  0  0
    0.3603    1.4738    1.7199 H   0  0  0  0  0  0  0  0  0  0  0  0
    2.9254    1.2047    2.7173 H   0  0  0  0  0  0  0  0  0  0  0  0
    0.2976    0.6612    4.2240 H   0  0  0  0  0  0  0  0  0  0  0  0
    1.8512    1.0276    4.9836 H   0  0  0  0  0  0  0  0  0  0  0  0
    1.0357    2.2523    3.9933 H   0  0  0  0  0  0  0  0  0  0  0  0
    3.3213   -1.1079    3.7672 N   0  0  0  0  0  0  0  0  0  0  0  0
    3.7645   -2.4566    4.0333 C   0  0  0  0  0  0  0  0  0  0  0  0
    3.8543   -0.3449    4.1740 H   0  0  0  0  0  0  0  0  0  0  0  0
    3.2765   -2.8302    4.9456 H   0  0  0  0  0  0  0  0  0  0  0  0
    3.4992   -3.1038    3.1844 H   0  0  0  0  0  0  0  0  0  0  0  0
    4.8557   -2.4631    4.1723 H   0  0  0  0  0  0  0  0  0  0  0  0
 22 24  2  0  0  0  0
 24 26  1  0  0  0  0
 25 26  2  0  0  0  0
 23 25  1  0  0  0  0
 21 22  1  0  0  0  0
 22 23  1  0  0  0  0
  1  3  1  0  0  0  0
  1  7  1  0  0  0  0
  1  2  2  0  0  0  0
 35 36  1  0  0  0  0
 36 44  1  0  0  0  0
 36 37  2  0  0  0  0
  8  9  1  0  0  0  0
  9 17  1  0  0  0  0
  9 10  2  0  0  0  0
 18 19  1  0  0  0  0
 19 34  1  0  0  0  0
 19 20  2  0  0  0  0
 35 38  1  0  0  0  0
  8 11  1  0  0  0  0
 44 45  1  0  0  0  0
 18 21  1  0  0  0  0
 34 35  1  0  0  0  0
  7  8  1  0  0  0  0
 17 18  1  0  0  0  0
 24 32  1  0  0  0  0
 25 33  1  0  0  0  0
  3  4  1  0  0  0  0
  3  5  1  0  0  0  0
  3  6  1  0  0  0  0
 38 41  1  0  0  0  0
 38 42  1  0  0  0  0
 38 43  1  0  0  0  0
 11 14  1  0  0  0  0
 11 15  1  0  0  0  0
 11 16  1  0  0  0  0
 45 47  1  0  0  0  0
 45 48  1  0  0  0  0
 45 49  1  0  0  0  0
 21 29  1  0  0  0  0
 21 30  1  0  0  0  0
 35 40  1  0  0  0  0
  8 13  1  0  0  0  0
 18 28  1  0  0  0  0
 23 31  1  0  0  0  0
 44 46  1  0  0  0  0
  7 12  1  0  0  0  0
 34 39  1  0  0  0  0
 17 27  1  0  0  0  0
M  END
$$$$

  -OEChem-05262214473D

 49 49  0     1  0  0  0  0  0999 V2000
   -1.5619    0.5658    3.7981 C   0  0  0  0  0  0  0  0  0  0  0  0
   -0.6145   -0.0489    3.3224 O   0  0  0  0  0  0  0  0  0  0  0  0
   -1.9938    0.2834    5.1988 C   0  0  0  0  0  0  0  0  0  0  0  0
   -2.7535   -0.5129    5.2522 H   0  0  0  0  0  0  0  0  0  0  0  0
   -1.1626   -0.0642    5.8331 H   0  0  0  0  0  0  0  0  0  0  0  0
   -2.4318    1.1383    5.7384 H   0  0  0  0  0  0  0  0  0  0  0  0
   -2.3116    1.5383    3.1570 N   0  0  0  0  0  0  0  0  0  0  0  0
   -2.0648    1.9643    1.8046 C   0  0  2  0  0  0  0  0  0  0  0  0
   -0.7298    1.3789    1.3634 C   0  0  0  0  0  0  0  0  0  0  0  0
    0.1423    1.0262    2.1547 O   0  0  0  0  0  0  0  0  0  0  0  0
   -2.0560    3.4811    1.6952 C   0  0  0  0  0  0  0  0  0  0  0  0
   -3.0767    1.9741    3.6688 H   0  0  0  0  0  0  0  0  0  0  0  0
   -2.8689    1.5458    1.1895 H   0  0  0  0  0  0  0  0  0  0  0  0
   -1.2569    3.9183    2.3049 H   0  0  0  0  0  0  0  0  0  0  0  0
   -1.8965    3.8033    0.6609 H   0  0  0  0  0  0  0  0  0  0  0  0
   -3.0062    3.9023    2.0409 H   0  0  0  0  0  0  0  0  0  0  0  0
   -0.6071    1.3358   -0.0200 N   0  0  0  0  0  0  0  0  0  0  0  0
    0.5702    0.8350   -0.6836 C   0  0  2  0  0  0  0  0  0  0  0  0
    1.5515    0.4063    0.4014 C   0  0  0  0  0  0  0  0  0  0  0  0
    2.6739   -0.0298    0.1541 O   0  0  0  0  0  0  0  0  0  0  0  0
    1.2113    1.8862   -1.5969 C   0  0  0  0  0  0  0  0  0  0  0  0
    0.3150    2.2887   -2.7425 C   0  0  0  0  0  0  0  0  0  0  0  0
    0.1023    1.4899   -3.8305 N   0  0  0  0  0  0  0  0  0  0  0  0
   -0.4357    3.4157   -2.9811 C   0  0  0  0  0  0  0  0  0  0  0  0
   -0.7514    2.1546   -4.6664 C   0  0  0  0  0  0  0  0  0  0  0  0
   -1.0973    3.3259   -4.1802 N   0  0  0  0  0  0  0  0  0  0  0  0
   -1.3903    1.6325   -0.5973 H   0  0  0  0  0  0  0  0  0  0  0  0
    0.2562   -0.0479   -1.2528 H   0  0  0  0  0  0  0  0  0  0  0  0
    2.1685    1.5165   -1.9891 H   0  0  0  0  0  0  0  0  0  0  0  0
    1.4640    2.7886   -1.0247 H   0  0  0  0  0  0  0  0  0  0  0  0
    0.5026    0.5749   -3.9916 H   0  0  0  0  0  0  0  0  0  0  0  0
   -0.5351    4.2887   -2.3518 H   0  0  0  0  0  0  0  0  0  0  0  0
   -1.0790    1.7331   -5.6061 H   0  0  0  0  0  0  0  0  0  0  0  0
    1.0420    0.6162    1.6752 N   0  0  0  0  0  0  0  0  0  0  0  0
    1.7769    0.3169    2.8832 C   0  0  2  0  0  0  0  0  0  0  0  0
    2.3150   -1.1031    2.7666 C   0  0  0  0  0  0  0  0  0  0  0  0
    1.8234   -1.9476    2.0209 O   0  0  0  0  0  0  0  0  0  0  0  0
    0.8993    0.4661    4.1161 C   0  0  0  0  0  0  0  0  0  0  0  0
    0.1055    0.9995    1.7630 H   0  0  0  0  0  0  0  0  0  0  0  0
    2.6136    1.0226    2.9274 H   0  0  0  0  0  0  0  0  0  0  0  0
    0.0555   -0.2331    4.0896 H   0  0  0  0  0  0  0  0  0  0  0  0
    1.4650    0.2668    5.0323 H   0  0  0  0  0  0  0  0  0  0  0  0
    0.4892    1.4796    4.1823 H   0  0  0  0  0  0  0  0  0  0  0  0
    3.3818   -1.3291    3.6251 N   0  0  0  0  0  0  0  0  0  0  0  0
    4.0577   -2.6026    3.7104 C   0  0  0  0  0  0  0  0  0  0  0  0
    3.7357   -0.5657    4.1941 H   0  0  0  0  0  0  0  0  0  0  0  0
    3.5984   -3.2096    4.5045 H   0  0  0  0  0  0  0  0  0  0  0  0
    3.9694   -3.1295    2.7489 H   0  0  0  0  0  0  0  0  0  0  0  0
    5.1204   -2.4388    3.9425 H   0  0  0  0  0  0  0  0  0  0  0  0
 22 24  2  0  0  0  0
 24 26  1  0  0  0  0
 25 26  2  0  0  0  0
 23 25  1  0  0  0  0
 21 22  1  0  0  0  0
 22 23  1  0  0  0  0
  1  3  1  0  0  0  0
  1  7  1  0  0  0  0
  1  2  2  0  0  0  0
 35 36  1  0  0  0  0
 36 44  1  0  0  0  0
 36 37  2  0  0  0  0
  8  9  1  0  0  0  0
  9 17  1  0  0  0  0
  9 10  2  0  0  0  0
 18 19  1  0  0  0  0
 19 34  1  0  0  0  0
 19 20  2  0  0  0  0
 35 38  1  0  0  0  0
  8 11  1  0  0  0  0
 44 45  1  0  0  0  0
 18 21  1  0  0  0  0
 34 35  1  0  0  0  0
  7  8  1  0  0  0  0
 17 18  1  0  0  0  0
 24 32  1  0  0  0  0
 25 33  1  0  0  0  0
  3  4  1  0  0  0  0
  3  5  1  0  0  0  0
  3  6  1  0  0  0  0
 38 41  1  0  0  0  0
 38 42  1  0  0  0  0
 38 43  1  0  0  0  0
 11 14  1  0  0  0  0
 11 15  1  0  0  0  0
 11 16  1  0  0  0  0
 45 47  1  0  0  0  0
 45 48  1  0  0  0  0
 45 49  1  0  0  0  0
 21 29  1  0  0  0  0
 21 30  1  0  0  0  0
 35 40  1  0  0  0  0
  8 13  1  0  0  0  0
 18 28  1  0  0  0  0
 23 31  1  0  0  0  0
 44 46  1  0  0  0  0
  7 12  1  0  0  0  0
 34 39  1  0  0  0  0
 17 27  1  0  0  0  0
M  END
$$$$

  -OEChem-05262214473D

 49 49  0     1  0  0  0  0  0999 V2000
   -1.5619    0.5658    3.7981 C   0  0  0  0  0  0  0  0  0  0  0  0
   -0.6145   -0.0489    3.3224 O   0  0  0  0  0  0  0  0  0  0  0  0
   -1.9938    0.2834    5.1988 C   0  0  0  0  0  0  0  0  0  0  0  0
   -2.7535   -0.5129    5.2522 H   0  0  0  0  0  0  0  0  0  0  0  0
   -1.1626   -0.0642    5.8331 H   0  0  0  0  0  0  0  0  0  0  0  0
   -2.4318    1.1383    5.7384 H   0  0  0  0  0  0  0  0  0  0  0  0
   -2.3116    1.5383    3.1570 N   0  0  0  0  0  0  0  0  0  0  0  0
   -2.0648    1.9643    1.8046 C   0  0  2  0  0  0  0  0  0  0  0  0
   -0.7298    1.3789    1.3634 C   0  0  0  0  0  0  0  0  0  0  0  0
    0.1423    1.0262    2.1547 O   0  0  0  0  0  0  0  0  0  0  0  0
   -2.0560    3.4811    1.6952 C   0  0  0  0  0  0  0  0  0  0  0  0
   -3.0767    1.9741    3.6688 H   0  0  0  0  0  0  0  0  0  0  0  0
   -2.8689    1.5458    1.1895 H   0  0  0  0  0  0  0  0  0  0  0  0
   -1.2569    3.9183    2.3049 H   0  0  0  0  0  0  0  0  0  0  0  0
   -1.8965    3.8033    0.6609 H   0  0  0  0  0  0  0  0  0  0  0  0
   -3.0062    3.9023    2.0409 H   0  0  0  0  0  0  0  0  0  0  0  0
   -0.6071    1.3358   -0.0200 N   0  0  0  0  0  0  0  0  0  0  0  0
    0.5702    0.8350   -0.6836 C   0  0  2  0  0  0  0  0  0  0  0  0
    1.5515    0.4063    0.4014 C   0  0  0  0  0  0  0  0  0  0  0  0
    2.7486    0.2266    0.1878 O   0  0  0  0  0  0  0  0  0  0  0  0
    1.2113    1.8862   -1.5969 C   0  0  0  0  0  0  0  0  0  0  0  0
    0.3150    2.2887   -2.7425 C   0  0  0  0  0  0  0  0  0  0  0  0
    0.1023    1.4899   -3.8305 N   0  0  0  0  0  0  0  0  0  0  0  0
   -0.4357    3.4157   -2.9811 C   0  0  0  0  0  0  0  0  0  0  0  0
   -0.7514    2.1546   -4.6664 C   0  0  0  0  0  0  0  0  0  0  0  0
   -1.0973    3.3259   -4.1802 N   0  0  0  0  0  0  0  0  0  0  0  0
   -1.3903    1.6325   -0.5973 H   0  0  0  0  0  0  0  0  0  0  0  0
    0.2562   -0.0479   -1.2528 H   0  0  0  0  0  0  0  0  0  0  0  0
    2.1685    1.5165   -1.9891 H   0  0  0  0  0  0  0  0  0  0  0  0
    1.4640    2.7886   -1.0247 H   0  0  0  0  0  0  0  0  0  0  0  0
    0.5026    0.5749   -3.9916 H   0  0  0  0  0  0  0  0  0  0  0  0
   -0.5351    4.2887   -2.3518 H   0  0  0  0  0  0  0  0  0  0  0  0
   -1.0790    1.7331   -5.6061 H   0  0  0  0  0  0  0  0  0  0  0  0
    0.9394    0.2980    1.6423 N   0  0  0  0  0  0  0  0  0  0  0  0
    1.6475   -0.0706    2.8471 C   0  0  2  0  0  0  0  0  0  0  0  0
    2.4519   -1.3300    2.5531 C   0  0  0  0  0  0  0  0  0  0  0  0
    2.1734   -2.1062    1.6415 O   0  0  0  0  0  0  0  0  0  0  0  0
    0.6885   -0.2962    4.0056 C   0  0  0  0  0  0  0  0  0  0  0  0
   -0.0565    0.4873    1.7070 H   0  0  0  0  0  0  0  0  0  0  0  0
    2.3306    0.7543    3.0773 H   0  0  0  0  0  0  0  0  0  0  0  0
   -0.0038   -1.1190    3.7932 H   0  0  0  0  0  0  0  0  0  0  0  0
    1.2285   -0.5474    4.9245 H   0  0  0  0  0  0  0  0  0  0  0  0
    0.0898    0.6011    4.1963 H   0  0  0  0  0  0  0  0  0  0  0  0
    3.4913   -1.5079    3.4554 N   0  0  0  0  0  0  0  0  0  0  0  0
    4.3913   -2.6359    3.3955 C   0  0  0  0  0  0  0  0  0  0  0  0
    3.6602   -0.8041    4.1681 H   0  0  0  0  0  0  0  0  0  0  0  0
    4.0113   -3.4433    4.0387 H   0  0  0  0  0  0  0  0  0  0  0  0
    4.4601   -2.9952    2.3581 H   0  0  0  0  0  0  0  0  0  0  0  0
    5.3883   -2.3283    3.7439 H   0  0  0  0  0  0  0  0  0  0  0  0
 22 24  2  0  0  0  0
 24 26  1  0  0  0  0
 25 26  2  0  0  0  0
 23 25  1  0  0  0  0
 21 22  1  0  0  0  0
 22 23  1  0  0  0  0
  1  3  1  0  0  0  0
  1  7  1  0  0  0  0
  1  2  2  0  0  0  0
 35 36  1  0  0  0  0
 36 44  1  0  0  0  0
 36 37  2  0  0  0  0
  8  9  1  0  0  0  0
  9 17  1  0  0  0  0
  9 10  2  0  0  0  0
 18 19  1  0  0  0  0
 19 34  1  0  0  0  0
 19 20  2  0  0  0  0
 35 38  1  0  0  0  0
  8 11  1  0  0  0  0
 44 45  1  0  0  0  0
 18 21  1  0  0  0  0
 34 35  1  0  0  0  0
  7  8  1  0  0  0  0
 17 18  1  0  0  0  0
 24 32  1  0  0  0  0
 25 33  1  0  0  0  0
  3  4  1  0  0  0  0
  3  5  1  0  0  0  0
  3  6  1  0  0  0  0
 38 41  1  0  0  0  0
 38 42  1  0  0  0  0
 38 43  1  0  0  0  0
 11 14  1  0  0  0  0
 11 15  1  0  0  0  0
 11 16  1  0  0  0  0
 45 47  1  0  0  0  0
 45 48  1  0  0  0  0
 45 49  1  0  0  0  0
 21 29  1  0  0  0  0
 21 30  1  0  0  0  0
 35 40  1  0  0  0  0
  8 13  1  0  0  0  0
 18 28  1  0  0  0  0
 23 31  1  0  0  0  0
 44 46  1  0  0  0  0
  7 12  1  0  0  0  0
 34 39  1  0  0  0  0
 17 27  1  0  0  0  0
M  END
$$$$

  -OEChem-05262214473D

 49 49  0     1  0  0  0  0  0999 V2000
   -1.5619    0.5658    3.7981 C   0  0  0  0  0  0  0  0  0  0  0  0
   -0.6145   -0.0489    3.3224 O   0  0  0  0  0  0  0  0  0  0  0  0
   -1.9938    0.2834    5.1988 C   0  0  0  0  0  0  0  0  0  0  0  0
   -2.7535   -0.5129    5.2522 H   0  0  0  0  0  0  0  0  0  0  0  0
   -1.1626   -0.0642    5.8331 H   0  0  0  0  0  0  0  0  0  0  0  0
   -2.4318    1.1383    5.7384 H   0  0  0  0  0  0  0  0  0  0  0  0
   -2.3116    1.5383    3.1570 N   0  0  0  0  0  0  0  0  0  0  0  0
   -2.0648    1.9643    1.8046 C   0  0  2  0  0  0  0  0  0  0  0  0
   -0.7298    1.3789    1.3634 C   0  0  0  0  0  0  0  0  0  0  0  0
    0.1423    1.0262    2.1547 O   0  0  0  0  0  0  0  0  0  0  0  0
   -2.0560    3.4811    1.6952 C   0  0  0  0  0  0  0  0  0  0  0  0
   -3.0767    1.9741    3.6688 H   0  0  0  0  0  0  0  0  0  0  0  0
   -2.8689    1.5458    1.1895 H   0  0  0  0  0  0  0  0  0  0  0  0
   -1.2569    3.9183    2.3049 H   0  0  0  0  0  0  0  0  0  0  0  0
   -1.8965    3.8033    0.6609 H   0  0  0  0  0  0  0  0  0  0  0  0
   -3.0062    3.9023    2.0409 H   0  0  0  0  0  0  0  0  0  0  0  0
   -0.6071    1.3358   -0.0200 N   0  0  0  0  0  0  0  0  0  0  0  0
    0.5702    0.8350   -0.6836 C   0  0  2  0  0  0  0  0  0  0  0  0
    1.5515    0.4063    0.4014 C   0  0  0  0  0  0  0  0  0  0  0  0
    2.7712    0.4824    0.2685 O   0  0  0  0  0  0  0  0  0  0  0  0
    1.2113    1.8862   -1.5969 C   0  0  0  0  0  0  0  0  0  0  0  0
    0.3150    2.2887   -2.7425 C   0  0  0  0  0  0  0  0  0  0  0  0
    0.1023    1.4899   -3.8305 N   0  0  0  0  0  0  0  0  0  0  0  0
   -0.4357    3.4157   -2.9811 C   0  0  0  0  0  0  0  0  0  0  0  0
   -0.7514    2.1546   -4.6664 C   0  0  0  0  0  0  0  0  0  0  0  0
   -1.0973    3.3259   -4.1802 N   0  0  0  0  0  0  0  0  0  0  0  0
   -1.3903    1.6325   -0.5973 H   0  0  0  0  0  0  0  0  0  0  0  0
    0.2562   -0.0479   -1.2528 H   0  0  0  0  0  0  0  0  0  0  0  0
    2.1685    1.5165   -1.9891 H   0  0  0  0  0  0  0  0  0  0  0  0
    1.4640    2.7886   -1.0247 H   0  0  0  0  0  0  0  0  0  0  0  0
    0.5026    0.5749   -3.9916 H   0  0  0  0  0  0  0  0  0  0  0  0
   -0.5351    4.2887   -2.3518 H   0  0  0  0  0  0  0  0  0  0  0  0
   -1.0790    1.7331   -5.6061 H   0  0  0  0  0  0  0  0  0  0  0  0
    0.9012   -0.0228    1.5500 N   0  0  0  0  0  0  0  0  0  0  0  0
    1.5966   -0.4627    2.7382 C   0  0  2  0  0  0  0  0  0  0  0  0
    2.6414   -1.4884    2.3191 C   0  0  0  0  0  0  0  0  0  0  0  0
    2.5684   -2.1318    1.2742 O   0  0  0  0  0  0  0  0  0  0  0  0
    0.6334   -1.0528    3.7564 C   0  0  0  0  0  0  0  0  0  0  0  0
   -0.1145   -0.0279    1.5559 H   0  0  0  0  0  0  0  0  0  0  0  0
    2.0958    0.4180    3.1568 H   0  0  0  0  0  0  0  0  0  0  0  0
    0.1236   -1.9363    3.3550 H   0  0  0  0  0  0  0  0  0  0  0  0
    1.1578   -1.3594    4.6675 H   0  0  0  0  0  0  0  0  0  0  0  0
   -0.1351   -0.3234    4.0344 H   0  0  0  0  0  0  0  0  0  0  0  0
    3.6424   -1.6321    3.2697 N   0  0  0  0  0  0  0  0  0  0  0  0
    4.7426   -2.5541    3.1101 C   0  0  0  0  0  0  0  0  0  0  0  0
    3.6332   -1.0440    4.0978 H   0  0  0  0  0  0  0  0  0  0  0  0
    4.4871   -3.5154    3.5798 H   0  0  0  0  0  0  0  0  0  0  0  0
    4.9377   -2.7101    2.0388 H   0  0  0  0  0  0  0  0  0  0  0  0
    5.6412   -2.1391    3.5899 H   0  0  0  0  0  0  0  0  0  0  0  0
 22 24  2  0  0  0  0
 24 26  1  0  0  0  0
 25 26  2  0  0  0  0
 23 25  1  0  0  0  0
 21 22  1  0  0  0  0
 22 23  1  0  0  0  0
  1  3  1  0  0  0  0
  1  7  1  0  0  0  0
  1  2  2  0  0  0  0
 35 36  1  0  0  0  0
 36 44  1  0  0  0  0
 36 37  2  0  0  0  0
  8  9  1  0  0  0  0
  9 17  1  0  0  0  0
  9 10  2  0  0  0  0
 18 19  1  0  0  0  0
 19 34  1  0  0  0  0
 19 20  2  0  0  0  0
 35 38  1  0  0  0  0
  8 11  1  0  0  0  0
 44 45  1  0  0  0  0
 18 21  1  0  0  0  0
 34 35  1  0  0  0  0
  7  8  1  0  0  0  0
 17 18  1  0  0  0  0
 24 32  1  0  0  0  0
 25 33  1  0  0  0  0
  3  4  1  0  0  0  0
  3  5  1  0  0  0  0
  3  6  1  0  0  0  0
 38 41  1  0  0  0  0
 38 42  1  0  0  0  0
 38 43  1  0  0  0  0
 11 14  1  0  0  0  0
 11 15  1  0  0  0  0
 11 16  1  0  0  0  0
 45 47  1  0  0  0  0
 45 48  1  0  0  0  0
 45 49  1  0  0  0  0
 21 29  1  0  0  0  0
 21 30  1  0  0  0  0
 35 40  1  0  0  0  0
  8 13  1  0  0  0  0
 18 28  1  0  0  0  0
 23 31  1  0  0  0  0
 44 46  1  0  0  0  0
  7 12  1  0  0  0  0
 34 39  1  0  0  0  0
 17 27  1  0  0  0  0
M  END
$$$$

  -OEChem-05262214473D

 49 49  0     1  0  0  0  0  0999 V2000
   -1.5619    0.5658    3.7981 C   0  0  0  0  0  0  0  0  0  0  0  0
   -0.6145   -0.0489    3.3224 O   0  0  0  0  0  0  0  0  0  0  0  0
   -1.9938    0.2834    5.1988 C   0  0  0  0  0  0  0  0  0  0  0  0
   -2.7535   -0.5129    5.2522 H   0  0  0  0  0  0  0  0  0  0  0  0
   -1.1626   -0.0642    5.8331 H   0  0  0  0  0  0  0  0  0  0  0  0
   -2.4318    1.1383    5.7384 H   0  0  0  0  0  0  0  0  0  0  0  0
   -2.3116    1.5383    3.1570 N   0  0  0  0  0  0  0  0  0  0  0  0
   -2.0648    1.9643    1.8046 C   0  0  2  0  0  0  0  0  0  0  0  0
   -0.7298    1.3789    1.3634 C   0  0  0  0  0  0  0  0  0  0  0  0
    0.1423    1.0262    2.1547 O   0  0  0  0  0  0  0  0  0  0  0  0
   -2.0560    3.4811    1.6952 C   0  0  0  0  0  0  0  0  0  0  0  0
   -3.0767    1.9741    3.6688 H   0  0  0  0  0  0  0  0  0  0  0  0
   -2.8689    1.5458    1.1895 H   0  0  0  0  0  0  0  0  0  0  0  0
   -1.2569    3.9183    2.3049 H   0  0  0  0  0  0  0  0  0  0  0  0
   -1.8965    3.8033    0.6609 H   0  0  0  0  0  0  0  0  0  0  0  0
   -3.0062    3.9023    2.0409 H   0  0  0  0  0  0  0  0  0  0  0  0
   -0.6071    1.3358   -0.0200 N   0  0  0  0  0  0  0  0  0  0  0  0
    0.5702    0.8350   -0.6836 C   0  0  2  0  0  0  0  0  0  0  0  0
    1.5515    0.4063    0.4014 C   0  0  0  0  0  0  0  0  0  0  0  0
    2.7399    0.7202    0.3907 O   0  0  0  0  0  0  0  0  0  0  0  0
    1.2113    1.8862   -1.5969 C   0  0  0  0  0  0  0  0  0  0  0  0
    0.3150    2.2887   -2.7425 C   0  0  0  0  0  0  0  0  0  0  0  0
    0.1023    1.4899   -3.8305 N   0  0  0  0  0  0  0  0  0  0  0  0
   -0.4357    3.4157   -2.9811 C   0  0  0  0  0  0  0  0  0  0  0  0
   -0.7514    2.1546   -4.6664 C   0  0  0  0  0  0  0  0  0  0  0  0
   -1.0973    3.3259   -4.1802 N   0  0  0  0  0  0  0  0  0  0  0  0
   -1.3903    1.6325   -0.5973 H   0  0  0  0  0  0  0  0  0  0  0  0
    0.2562   -0.0479   -1.2528 H   0  0  0  0  0  0  0  0  0  0  0  0
    2.1685    1.5165   -1.9891 H   0  0  0  0  0  0  0  0  0  0  0  0
    1.4640    2.7886   -1.0247 H   0  0  0  0  0  0  0  0  0  0  0  0
    0.5026    0.5749   -3.9916 H   0  0  0  0  0  0  0  0  0  0  0  0
   -0.5351    4.2887   -2.3518 H   0  0  0  0  0  0  0  0  0  0  0  0
   -1.0790    1.7331   -5.6061 H   0  0  0  0  0  0  0  0  0  0  0  0
    0.9302   -0.3243    1.4047 N   0  0  0  0  0  0  0  0  0  0  0  0
    1.6275   -0.8327    2.5641 C   0  0  2  0  0  0  0  0  0  0  0  0
    2.8707   -1.5675    2.0805 C   0  0  0  0  0  0  0  0  0  0  0  0
    2.9814   -2.0225    0.9438 O   0  0  0  0  0  0  0  0  0  0  0  0
    0.7376   -1.7524    3.3857 C   0  0  0  0  0  0  0  0  0  0  0  0
   -0.0646   -0.5111    1.3198 H   0  0  0  0  0  0  0  0  0  0  0  0
    1.9252    0.0366    3.1604 H   0  0  0  0  0  0  0  0  0  0  0  0
    0.4292   -2.6292    2.8048 H   0  0  0  0  0  0  0  0  0  0  0  0
    1.2579   -2.1140    4.2788 H   0  0  0  0  0  0  0  0  0  0  0  0
   -0.1702   -1.2309    3.7076 H   0  0  0  0  0  0  0  0  0  0  0  0
    3.8247   -1.6933    3.0806 N   0  0  0  0  0  0  0  0  0  0  0  0
    5.0876   -2.3629    2.8736 C   0  0  0  0  0  0  0  0  0  0  0  0
    3.6564   -1.2689    3.9879 H   0  0  0  0  0  0  0  0  0  0  0  0
    4.9934   -3.4210    3.1593 H   0  0  0  0  0  0  0  0  0  0  0  0
    5.3698   -2.2934    1.8127 H   0  0  0  0  0  0  0  0  0  0  0  0
    5.8618   -1.8841    3.4911 H   0  0  0  0  0  0  0  0  0  0  0  0
 22 24  2  0  0  0  0
 24 26  1  0  0  0  0
 25 26  2  0  0  0  0
 23 25  1  0  0  0  0
 21 22  1  0  0  0  0
 22 23  1  0  0  0  0
  1  3  1  0  0  0  0
  1  7  1  0  0  0  0
  1  2  2  0  0  0  0
 35 36  1  0  0  0  0
 36 44  1  0  0  0  0
 36 37  2  0  0  0  0
  8  9  1  0  0  0  0
  9 17  1  0  0  0  0
  9 10  2  0  0  0  0
 18 19  1  0  0  0  0
 19 34  1  0  0  0  0
 19 20  2  0  0  0  0
 35 38  1  0  0  0  0
  8 11  1  0  0  0  0
 44 45  1  0  0  0  0
 18 21  1  0  0  0  0
 34 35  1  0  0  0  0
  7  8  1  0  0  0  0
 17 18  1  0  0  0  0
 24 32  1  0  0  0  0
 25 33  1  0  0  0  0
  3  4  1  0  0  0  0
  3  5  1  0  0  0  0
  3  6  1  0  0  0  0
 38 41  1  0  0  0  0
 38 42  1  0  0  0  0
 38 43  1  0  0  0  0
 11 14  1  0  0  0  0
 11 15  1  0  0  0  0
 11 16  1  0  0  0  0
 45 47  1  0  0  0  0
 45 48  1  0  0  0  0
 45 49  1  0  0  0  0
 21 29  1  0  0  0  0
 21 30  1  0  0  0  0
 35 40  1  0  0  0  0
  8 13  1  0  0  0  0
 18 28  1  0  0  0  0
 23 31  1  0  0  0  0
 44 46  1  0  0  0  0
  7 12  1  0  0  0  0
 34 39  1  0  0  0  0
 17 27  1  0  0  0  0
M  END
$$$$

  -OEChem-05262214473D

 49 49  0     1  0  0  0  0  0999 V2000
   -1.5619    0.5658    3.7981 C   0  0  0  0  0  0  0  0  0  0  0  0
   -0.6145   -0.0489    3.3224 O   0  0  0  0  0  0  0  0  0  0  0  0
   -1.9938    0.2834    5.1988 C   0  0  0  0  0  0  0  0  0  0  0  0
   -2.7535   -0.5129    5.2522 H   0  0  0  0  0  0  0  0  0  0  0  0
   -1.1626   -0.0642    5.8331 H   0  0  0  0  0  0  0  0  0  0  0  0
   -2.4318    1.1383    5.7384 H   0  0  0  0  0  0  0  0  0  0  0  0
   -2.3116    1.5383    3.1570 N   0  0  0  0  0  0  0  0  0  0  0  0
   -2.0648    1.9643    1.8046 C   0  0  2  0  0  0  0  0  0  0  0  0
   -0.7298    1.3789    1.3634 C   0  0  0  0  0  0  0  0  0  0  0  0
    0.1423    1.0262    2.1547 O   0  0  0  0  0  0  0  0  0  0  0  0
   -2.0560    3.4811    1.6952 C   0  0  0  0  0  0  0  0  0  0  0  0
   -3.0767    1.9741    3.6688 H   0  0  0  0  0  0  0  0  0  0  0  0
   -2.8689    1.5458    1.1895 H   0  0  0  0  0  0  0  0  0  0  0  0
   -1.2569    3.9183    2.3049 H   0  0  0  0  0  0  0  0  0  0  0  0
   -1.8965    3.8033    0.6609 H   0  0  0  0  0  0  0  0  0  0  0  0
   -3.0062    3.9023    2.0409 H   0  0  0  0  0  0  0  0  0  0  0  0
   -0.6071    1.3358   -0.0200 N   0  0  0  0  0  0  0  0  0  0  0  0
    0.5702    0.8350   -0.6836 C   0  0  2  0  0  0  0  0  0  0  0  0
    1.5515    0.4063    0.4014 C   0  0  0  0  0  0  0  0  0  0  0  0
    2.6571    0.9237    0.5461 O   0  0  0  0  0  0  0  0  0  0  0  0
    1.2113    1.8862   -1.5969 C   0  0  0  0  0  0  0  0  0  0  0  0
    0.3150    2.2887   -2.7425 C   0  0  0  0  0  0  0  0  0  0  0  0
    0.1023    1.4899   -3.8305 N   0  0  0  0  0  0  0  0  0  0  0  0
   -0.4357    3.4157   -2.9811 C   0  0  0  0  0  0  0  0  0  0  0  0
   -0.7514    2.1546   -4.6664 C   0  0  0  0  0  0  0  0  0  0  0  0
   -1.0973    3.3259   -4.1802 N   0  0  0  0  0  0  0  0  0  0  0  0
   -1.3903    1.6325   -0.5973 H   0  0  0  0  0  0  0  0  0  0  0  0
    0.2562   -0.0479   -1.2528 H   0  0  0  0  0  0  0  0  0  0  0  0
    2.1685    1.5165   -1.9891 H   0  0  0  0  0  0  0  0  0  0  0  0
    1.4640    2.7886   -1.0247 H   0  0  0  0  0  0  0  0  0  0  0  0
    0.5026    0.5749   -3.9916 H   0  0  0  0  0  0  0  0  0  0  0  0
   -0.5351    4.2887   -2.3518 H   0  0  0  0  0  0  0  0  0  0  0  0
   -1.0790    1.7331   -5.6061 H   0  0  0  0  0  0  0  0  0  0  0  0
    1.0244   -0.5860    1.2161 N   0  0  0  0  0  0  0  0  0  0  0  0
    1.7382   -1.1554    2.3364 C   0  0  2  0  0  0  0  0  0  0  0  0
    3.1241   -1.5619    1.8534 C   0  0  0  0  0  0  0  0  0  0  0  0
    3.3842   -1.7858    0.6730 O   0  0  0  0  0  0  0  0  0  0  0  0
    0.9942   -2.3471    2.9187 C   0  0  0  0  0  0  0  0  0  0  0  0
    0.0898   -0.9294    1.0149 H   0  0  0  0  0  0  0  0  0  0  0  0
    1.8304   -0.3638    3.0880 H   0  0  0  0  0  0  0  0  0  0  0  0
    0.8921   -3.1506    2.1801 H   0  0  0  0  0  0  0  0  0  0  0  0
    1.5219   -2.7596    3.7849 H   0  0  0  0  0  0  0  0  0  0  0  0
   -0.0132   -2.0594    3.2382 H   0  0  0  0  0  0  0  0  0  0  0  0
    4.0259   -1.6874    2.9010 N   0  0  0  0  0  0  0  0  0  0  0  0
    5.4028   -2.0752    2.7021 C   0  0  0  0  0  0  0  0  0  0  0  0
    3.7283   -1.4636    3.8460 H   0  0  0  0  0  0  0  0  0  0  0  0
    5.4956   -3.1664    2.8056 H   0  0  0  0  0  0  0  0  0  0  0  0
    5.7268   -1.7737    1.6951 H   0  0  0  0  0  0  0  0  0  0  0  0
    6.0352   -1.5807    3.4542 H   0  0  0  0  0  0  0  0  0  0  0  0
 22 24  2  0  0  0  0
 24 26  1  0  0  0  0
 25 26  2  0  0  0  0
 23 25  1  0  0  0  0
 21 22  1  0  0  0  0
 22 23  1  0  0  0  0
  1  3  1  0  0  0  0
  1  7  1  0  0  0  0
  1  2  2  0  0  0  0
 35 36  1  0  0  0  0
 36 44  1  0  0  0  0
 36 37  2  0  0  0  0
  8  9  1  0  0  0  0
  9 17  1  0  0  0  0
  9 10  2  0  0  0  0
 18 19  1  0  0  0  0
 19 34  1  0  0  0  0
 19 20  2  0  0  0  0
 35 38  1  0  0  0  0
  8 11  1  0  0  0  0
 44 45  1  0  0  0  0
 18 21  1  0  0  0  0
 34 35  1  0  0  0  0
  7  8  1  0  0  0  0
 17 18  1  0  0  0  0
 24 32  1  0  0  0  0
 25 33  1  0  0  0  0
  3  4  1  0  0  0  0
  3  5  1  0  0  0  0
  3  6  1  0  0  0  0
 38 41  1  0  0  0  0
 38 42  1  0  0  0  0
 38 43  1  0  0  0  0
 11 14  1  0  0  0  0
 11 15  1  0  0  0  0
 11 16  1  0  0  0  0
 45 47  1  0  0  0  0
 45 48  1  0  0  0  0
 45 49  1  0  0  0  0
 21 29  1  0  0  0  0
 21 30  1  0  0  0  0
 35 40  1  0  0  0  0
  8 13  1  0  0  0  0
 18 28  1  0  0  0  0
 23 31  1  0  0  0  0
 44 46  1  0  0  0  0
  7 12  1  0  0  0  0
 34 39  1  0  0  0  0
 17 27  1  0  0  0  0
M  END
$$$$

  -OEChem-05262214473D

 49 49  0     1  0  0  0  0  0999 V2000
   -1.5619    0.5658    3.7981 C   0  0  0  0  0  0  0  0  0  0  0  0
   -0.6145   -0.0489    3.3224 O   0  0  0  0  0  0  0  0  0  0  0  0
   -1.9938    0.2834    5.1988 C   0  0  0  0  0  0  0  0  0  0  0  0
   -2.7535   -0.5129    5.2522 H   0  0  0  0  0  0  0  0  0  0  0  0
   -1.1626   -0.0642    5.8331 H   0  0  0  0  0  0  0  0  0  0  0  0
   -2.4318    1.1383    5.7384 H   0  0  0  0  0  0  0  0  0  0  0  0
   -2.3116    1.5383    3.1570 N   0  0  0  0  0  0  0  0  0  0  0  0
   -2.0648    1.9643    1.8046 C   0  0  2  0  0  0  0  0  0  0  0  0
   -0.7298    1.3789    1.3634 C   0  0  0  0  0  0  0  0  0  0  0  0
    0.1423    1.0262    2.1547 O   0  0  0  0  0  0  0  0  0  0  0  0
   -2.0560    3.4811    1.6952 C   0  0  0  0  0  0  0  0  0  0  0  0
   -3.0767    1.9741    3.6688 H   0  0  0  0  0  0  0  0  0  0  0  0
   -2.8689    1.5458    1.1895 H   0  0  0  0  0  0  0  0  0  0  0  0
   -1.2569    3.9183    2.3049 H   0  0  0  0  0  0  0  0  0  0  0  0
   -1.8965    3.8033    0.6609 H   0  0  0  0  0  0  0  0  0  0  0  0
   -3.0062    3.9023    2.0409 H   0  0  0  0  0  0  0  0  0  0  0  0
   -0.6071    1.3358   -0.0200 N   0  0  0  0  0  0  0  0  0  0  0  0
    0.5702    0.8350   -0.6836 C   0  0  2  0  0  0  0  0  0  0  0  0
    1.5515    0.4063    0.4014 C   0  0  0  0  0  0  0  0  0  0  0  0
    2.5282    1.0792    0.7241 O   0  0  0  0  0  0  0  0  0  0  0  0
    1.2113    1.8862   -1.5969 C   0  0  0  0  0  0  0  0  0  0  0  0
    0.3150    2.2887   -2.7425 C   0  0  0  0  0  0  0  0  0  0  0  0
    0.1023    1.4899   -3.8305 N   0  0  0  0  0  0  0  0  0  0  0  0
   -0.4357    3.4157   -2.9811 C   0  0  0  0  0  0  0  0  0  0  0  0
   -0.7514    2.1546   -4.6664 C   0  0  0  0  0  0  0  0  0  0  0  0
   -1.0973    3.3259   -4.1802 N   0  0  0  0  0  0  0  0  0  0  0  0
   -1.3903    1.6325   -0.5973 H   0  0  0  0  0  0  0  0  0  0  0  0
    0.2562   -0.0479   -1.2528 H   0  0  0  0  0  0  0  0  0  0  0  0
    2.1685    1.5165   -1.9891 H   0  0  0  0  0  0  0  0  0  0  0  0
    1.4640    2.7886   -1.0247 H   0  0  0  0  0  0  0  0  0  0  0  0
    0.5026    0.5749   -3.9916 H   0  0  0  0  0  0  0  0  0  0  0  0
   -0.5351    4.2887   -2.3518 H   0  0  0  0  0  0  0  0  0  0  0  0
   -1.0790    1.7331   -5.6061 H   0  0  0  0  0  0  0  0  0  0  0  0
    1.1772   -0.7901    0.9973 N   0  0  0  0  0  0  0  0  0  0  0  0
    1.9211   -1.4088    2.0709 C   0  0  2  0  0  0  0  0  0  0  0  0
    3.3844   -1.4720    1.6535 C   0  0  0  0  0  0  0  0  0  0  0  0
    3.7494   -1.4378    0.4802 O   0  0  0  0  0  0  0  0  0  0  0  0
    1.3856   -2.7965    2.3871 C   0  0  0  0  0  0  0  0  0  0  0  0
    0.3382   -1.2541    0.6620 H   0  0  0  0  0  0  0  0  0  0  0  0
    1.8178   -0.7559    2.9444 H   0  0  0  0  0  0  0  0  0  0  0  0
    1.4807   -3.4649    1.5235 H   0  0  0  0  0  0  0  0  0  0  0  0
    1.9317   -3.2524    3.2195 H   0  0  0  0  0  0  0  0  0  0  0  0
    0.3252   -2.7526    2.6582 H   0  0  0  0  0  0  0  0  0  0  0  0
    4.2322   -1.6147    2.7431 N   0  0  0  0  0  0  0  0  0  0  0  0
    5.6669   -1.7107    2.6074 C   0  0  0  0  0  0  0  0  0  0  0  0
    3.8438   -1.6148    3.6817 H   0  0  0  0  0  0  0  0  0  0  0  0
    5.9596   -2.7691    2.5429 H   0  0  0  0  0  0  0  0  0  0  0  0
    5.9845   -1.1863    1.6941 H   0  0  0  0  0  0  0  0  0  0  0  0
    6.1494   -1.2495    3.4817 H   0  0  0  0  0  0  0  0  0  0  0  0
 22 24  2  0  0  0  0
 24 26  1  0  0  0  0
 25 26  2  0  0  0  0
 23 25  1  0  0  0  0
 21 22  1  0  0  0  0
 22 23  1  0  0  0  0
  1  3  1  0  0  0  0
  1  7  1  0  0  0  0
  1  2  2  0  0  0  0
 35 36  1  0  0  0  0
 36 44  1  0  0  0  0
 36 37  2  0  0  0  0
  8  9  1  0  0  0  0
  9 17  1  0  0  0  0
  9 10  2  0  0  0  0
 18 19  1  0  0  0  0
 19 34  1  0  0  0  0
 19 20  2  0  0  0  0
 35 38  1  0  0  0  0
  8 11  1  0  0  0  0
 44 45  1  0  0  0  0
 18 21  1  0  0  0  0
 34 35  1  0  0  0  0
  7  8  1  0  0  0  0
 17 18  1  0  0  0  0
 24 32  1  0  0  0  0
 25 33  1  0  0  0  0
  3  4  1  0  0  0  0
  3  5  1  0  0  0  0
  3  6  1  0  0  0  0
 38 41  1  0  0  0  0
 38 42  1  0  0  0  0
 38 43  1  0  0  0  0
 11 14  1  0  0  0  0
 11 15  1  0  0  0  0
 11 16  1  0  0  0  0
 45 47  1  0  0  0  0
 45 48  1  0  0  0  0
 45 49  1  0  0  0  0
 21 29  1  0  0  0  0
 21 30  1  0  0  0  0
 35 40  1  0  0  0  0
  8 13  1  0  0  0  0
 18 28  1  0  0  0  0
 23 31  1  0  0  0  0
 44 46  1  0  0  0  0
  7 12  1  0  0  0  0
 34 39  1  0  0  0  0
 17 27  1  0  0  0  0
M  END
$$$$

  -OEChem-05262214473D

 49 49  0     1  0  0  0  0  0999 V2000
   -1.5619    0.5658    3.7981 C   0  0  0  0  0  0  0  0  0  0  0  0
   -0.6145   -0.0489    3.3224 O   0  0  0  0  0  0  0  0  0  0  0  0
   -1.9938    0.2834    5.1988 C   0  0  0  0  0  0  0  0  0  0  0  0
   -2.7535   -0.5129    5.2522 H   0  0  0  0  0  0  0  0  0  0  0  0
   -1.1626   -0.0642    5.8331 H   0  0  0  0  0  0  0  0  0  0  0  0
   -2.4318    1.1383    5.7384 H   0  0  0  0  0  0  0  0  0  0  0  0
   -2.3116    1.5383    3.1570 N   0  0  0  0  0  0  0  0  0  0  0  0
   -2.0648    1.9643    1.8046 C   0  0  2  0  0  0  0  0  0  0  0  0
   -0.7298    1.3789    1.3634 C   0  0  0  0  0  0  0  0  0  0  0  0
    0.1423    1.0262    2.1547 O   0  0  0  0  0  0  0  0  0  0  0  0
   -2.0560    3.4811    1.6952 C   0  0  0  0  0  0  0  0  0  0  0  0
   -3.0767    1.9741    3.6688 H   0  0  0  0  0  0  0  0  0  0  0  0
   -2.8689    1.5458    1.1895 H   0  0  0  0  0  0  0  0  0  0  0  0
   -1.2569    3.9183    2.3049 H   0  0  0  0  0  0  0  0  0  0  0  0
   -1.8965    3.8033    0.6609 H   0  0  0  0  0  0  0  0  0  0  0  0
   -3.0062    3.9023    2.0409 H   0  0  0  0  0  0  0  0  0  0  0  0
   -0.6071    1.3358   -0.0200 N   0  0  0  0  0  0  0  0  0  0  0  0
    0.5702    0.8350   -0.6836 C   0  0  2  0  0  0  0  0  0  0  0  0
    1.5515    0.4063    0.4014 C   0  0  0  0  0  0  0  0  0  0  0  0
    2.3622    1.1760    0.9125 O   0  0  0  0  0  0  0  0  0  0  0  0
    1.2113    1.8862   -1.5969 C   0  0  0  0  0  0  0  0  0  0  0  0
    0.3150    2.2887   -2.7425 C   0  0  0  0  0  0  0  0  0  0  0  0
    0.1023    1.4899   -3.8305 N   0  0  0  0  0  0  0  0  0  0  0  0
   -0.4357    3.4157   -2.9811 C   0  0  0  0  0  0  0  0  0  0  0  0
   -0.7514    2.1546   -4.6664 C   0  0  0  0  0  0  0  0  0  0  0  0
   -1.0973    3.3259   -4.1802 N   0  0  0  0  0  0  0  0  0  0  0  0
   -1.3903    1.6325   -0.5973 H   0  0  0  0  0  0  0  0  0  0  0  0
    0.2562   -0.0479   -1.2528 H   0  0  0  0  0  0  0  0  0  0  0  0
    2.1685    1.5165   -1.9891 H   0  0  0  0  0  0  0  0  0  0  0  0
    1.4640    2.7886   -1.0247 H   0  0  0  0  0  0  0  0  0  0  0  0
    0.5026    0.5749   -3.9916 H   0  0  0  0  0  0  0  0  0  0  0  0
   -0.5351    4.2887   -2.3518 H   0  0  0  0  0  0  0  0  0  0  0  0
   -1.0790    1.7331   -5.6061 H   0  0  0  0  0  0  0  0  0  0  0  0
    1.3783   -0.9225    0.7630 N   0  0  0  0  0  0  0  0  0  0  0  0
    2.1638   -1.5755    1.7854 C   0  0  2  0  0  0  0  0  0  0  0  0
    3.6338   -1.3039    1.4944 C   0  0  0  0  0  0  0  0  0  0  0  0
    4.0521   -1.0023    0.3785 O   0  0  0  0  0  0  0  0  0  0  0  0
    1.8851   -3.0699    1.8273 C   0  0  0  0  0  0  0  0  0  0  0  0
    0.6636   -1.4632    0.2850 H   0  0  0  0  0  0  0  0  0  0  0  0
    1.8883   -1.1131    2.7395 H   0  0  0  0  0  0  0  0  0  0  0  0
    2.1549   -3.5506    0.8798 H   0  0  0  0  0  0  0  0  0  0  0  0
    2.4595   -3.5586    2.6211 H   0  0  0  0  0  0  0  0  0  0  0  0
    0.8220   -3.2632    2.0071 H   0  0  0  0  0  0  0  0  0  0  0  0
    4.4295   -1.4802    2.6178 N   0  0  0  0  0  0  0  0  0  0  0  0
    5.8616   -1.2942    2.5958 C   0  0  0  0  0  0  0  0  0  0  0  0
    3.9953   -1.7122    3.5062 H   0  0  0  0  0  0  0  0  0  0  0  0
    6.3537   -2.2561    2.3892 H   0  0  0  0  0  0  0  0  0  0  0  0
    6.1253   -0.5713    1.8098 H   0  0  0  0  0  0  0  0  0  0  0  0
    6.1968   -0.9132    3.5718 H   0  0  0  0  0  0  0  0  0  0  0  0
 22 24  2  0  0  0  0
 24 26  1  0  0  0  0
 25 26  2  0  0  0  0
 23 25  1  0  0  0  0
 21 22  1  0  0  0  0
 22 23  1  0  0  0  0
  1  3  1  0  0  0  0
  1  7  1  0  0  0  0
  1  2  2  0  0  0  0
 35 36  1  0  0  0  0
 36 44  1  0  0  0  0
 36 37  2  0  0  0  0
  8  9  1  0  0  0  0
  9 17  1  0  0  0  0
  9 10  2  0  0  0  0
 18 19  1  0  0  0  0
 19 34  1  0  0  0  0
 19 20  2  0  0  0  0
 35 38  1  0  0  0  0
  8 11  1  0  0  0  0
 44 45  1  0  0  0  0
 18 21  1  0  0  0  0
 34 35  1  0  0  0  0
  7  8  1  0  0  0  0
 17 18  1  0  0  0  0
 24 32  1  0  0  0  0
 25 33  1  0  0  0  0
  3  4  1  0  0  0  0
  3  5  1  0  0  0  0
  3  6  1  0  0  0  0
 38 41  1  0  0  0  0
 38 42  1  0  0  0  0
 38 43  1  0  0  0  0
 11 14  1  0  0  0  0
 11 15  1  0  0  0  0
 11 16  1  0  0  0  0
 45 47  1  0  0  0  0
 45 48  1  0  0  0  0
 45 49  1  0  0  0  0
 21 29  1  0  0  0  0
 21 30  1  0  0  0  0
 35 40  1  0  0  0  0
  8 13  1  0  0  0  0
 18 28  1  0  0  0  0
 23 31  1  0  0  0  0
 44 46  1  0  0  0  0
  7 12  1  0  0  0  0
 34 39  1  0  0  0  0
 17 27  1  0  0  0  0
M  END
$$$$

  -OEChem-05262214473D

 49 49  0     1  0  0  0  0  0999 V2000
   -1.5619    0.5658    3.7981 C   0  0  0  0  0  0  0  0  0  0  0  0
   -0.6145   -0.0489    3.3224 O   0  0  0  0  0  0  0  0  0  0  0  0
   -1.9938    0.2834    5.1988 C   0  0  0  0  0  0  0  0  0  0  0  0
   -2.7535   -0.5129    5.2522 H   0  0  0  0  0  0  0  0  0  0  0  0
   -1.1626   -0.0642    5.8331 H   0  0  0  0  0  0  0  0  0  0  0  0
   -2.4318    1.1383    5.7384 H   0  0  0  0  0  0  0  0  0  0  0  0
   -2.3116    1.5383    3.1570 N   0  0  0  0  0  0  0  0  0  0  0  0
   -2.0648    1.9643    1.8046 C   0  0  2  0  0  0  0  0  0  0  0  0
   -0.7298    1.3789    1.3634 C   0  0  0  0  0  0  0  0  0  0  0  0
    0.1423    1.0262    2.1547 O   0  0  0  0  0  0  0  0  0  0  0  0
   -2.0560    3.4811    1.6952 C   0  0  0  0  0  0  0  0  0  0  0  0
   -3.0767    1.9741    3.6688 H   0  0  0  0  0  0  0  0  0  0  0  0
   -2.8689    1.5458    1.1895 H   0  0  0  0  0  0  0  0  0  0  0  0
   -1.2569    3.9183    2.3049 H   0  0  0  0  0  0  0  0  0  0  0  0
   -1.8965    3.8033    0.6609 H   0  0  0  0  0  0  0  0  0  0  0  0
   -3.0062    3.9023    2.0409 H   0  0  0  0  0  0  0  0  0  0  0  0
   -0.6071    1.3358   -0.0200 N   0  0  0  0  0  0  0  0  0  0  0  0
    0.5702    0.8350   -0.6836 C   0  0  2  0  0  0  0  0  0  0  0  0
    1.5515    0.4063    0.4014 C   0  0  0  0  0  0  0  0  0  0  0  0
    2.1702    1.2076    1.0986 O   0  0  0  0  0  0  0  0  0  0  0  0
    1.2113    1.8862   -1.5969 C   0  0  0  0  0  0  0  0  0  0  0  0
    0.3150    2.2887   -2.7425 C   0  0  0  0  0  0  0  0  0  0  0  0
    0.1023    1.4899   -3.8305 N   0  0  0  0  0  0  0  0  0  0  0  0
   -0.4357    3.4157   -2.9811 C   0  0  0  0  0  0  0  0  0  0  0  0
   -0.7514    2.1546   -4.6664 C   0  0  0  0  0  0  0  0  0  0  0  0
   -1.0973    3.3259   -4.1802 N   0  0  0  0  0  0  0  0  0  0  0  0
   -1.3903    1.6325   -0.5973 H   0  0  0  0  0  0  0  0  0  0  0  0
    0.2562   -0.0479   -1.2528 H   0  0  0  0  0  0  0  0  0  0  0  0
    2.1685    1.5165   -1.9891 H   0  0  0  0  0  0  0  0  0  0  0  0
    1.4640    2.7886   -1.0247 H   0  0  0  0  0  0  0  0  0  0  0  0
    0.5026    0.5749   -3.9916 H   0  0  0  0  0  0  0  0  0  0  0  0
   -0.5351    4.2887   -2.3518 H   0  0  0  0  0  0  0  0  0  0  0  0
   -1.0790    1.7331   -5.6061 H   0  0  0  0  0  0  0  0  0  0  0  0
    1.6141   -0.9744    0.5293 N   0  0  0  0  0  0  0  0  0  0  0  0
    2.4497   -1.6444    1.4996 C   0  0  2  0  0  0  0  0  0  0  0  0
    3.8554   -1.0691    1.3868 C   0  0  0  0  0  0  0  0  0  0  0  0
    4.2717   -0.5090    0.3749 O   0  0  0  0  0  0  0  0  0  0  0  0
    2.4586   -3.1488    1.2773 C   0  0  0  0  0  0  0  0  0  0  0  0
    1.0438   -1.5425   -0.0903 H   0  0  0  0  0  0  0  0  0  0  0  0
    2.0371   -1.4110    2.4872 H   0  0  0  0  0  0  0  0  0  0  0  0
    2.8687   -3.4020    0.2929 H   0  0  0  0  0  0  0  0  0  0  0  0
    3.0692   -3.6576    2.0305 H   0  0  0  0  0  0  0  0  0  0  0  0
    1.4433   -3.5565    1.3293 H   0  0  0  0  0  0  0  0  0  0  0  0
    4.6045   -1.2930    2.5335 N   0  0  0  0  0  0  0  0  0  0  0  0
    5.9739   -0.8541    2.6682 C   0  0  0  0  0  0  0  0  0  0  0  0
    4.1723   -1.7491    3.3316 H   0  0  0  0  0  0  0  0  0  0  0  0
    6.6510   -1.6623    2.3549 H   0  0  0  0  0  0  0  0  0  0  0  0
    6.1396    0.0294    2.0342 H   0  0  0  0  0  0  0  0  0  0  0  0
    6.1740   -0.5946    3.7183 H   0  0  0  0  0  0  0  0  0  0  0  0
 22 24  2  0  0  0  0
 24 26  1  0  0  0  0
 25 26  2  0  0  0  0
 23 25  1  0  0  0  0
 21 22  1  0  0  0  0
 22 23  1  0  0  0  0
  1  3  1  0  0  0  0
  1  7  1  0  0  0  0
  1  2  2  0  0  0  0
 35 36  1  0  0  0  0
 36 44  1  0  0  0  0
 36 37  2  0  0  0  0
  8  9  1  0  0  0  0
  9 17  1  0  0  0  0
  9 10  2  0  0  0  0
 18 19  1  0  0  0  0
 19 34  1  0  0  0  0
 19 20  2  0  0  0  0
 35 38  1  0  0  0  0
  8 11  1  0  0  0  0
 44 45  1  0  0  0  0
 18 21  1  0  0  0  0
 34 35  1  0  0  0  0
  7  8  1  0  0  0  0
 17 18  1  0  0  0  0
 24 32  1  0  0  0  0
 25 33  1  0  0  0  0
  3  4  1  0  0  0  0
  3  5  1  0  0  0  0
  3  6  1  0  0  0  0
 38 41  1  0  0  0  0
 38 42  1  0  0  0  0
 38 43  1  0  0  0  0
 11 14  1  0  0  0  0
 11 15  1  0  0  0  0
 11 16  1  0  0  0  0
 45 47  1  0  0  0  0
 45 48  1  0  0  0  0
 45 49  1  0  0  0  0
 21 29  1  0  0  0  0
 21 30  1  0  0  0  0
 35 40  1  0  0  0  0
  8 13  1  0  0  0  0
 18 28  1  0  0  0  0
 23 31  1  0  0  0  0
 44 46  1  0  0  0  0
  7 12  1  0  0  0  0
 34 39  1  0  0  0  0
 17 27  1  0  0  0  0
M  END
$$$$

  -OEChem-05262214473D

 49 49  0     1  0  0  0  0  0999 V2000
   -1.5619    0.5658    3.7981 C   0  0  0  0  0  0  0  0  0  0  0  0
   -0.6145   -0.0489    3.3224 O   0  0  0  0  0  0  0  0  0  0  0  0
   -1.9938    0.2834    5.1988 C   0  0  0  0  0  0  0  0  0  0  0  0
   -2.7535   -0.5129    5.2522 H   0  0  0  0  0  0  0  0  0  0  0  0
   -1.1626   -0.0642    5.8331 H   0  0  0  0  0  0  0  0  0  0  0  0
   -2.4318    1.1383    5.7384 H   0  0  0  0  0  0  0  0  0  0  0  0
   -2.3116    1.5383    3.1570 N   0  0  0  0  0  0  0  0  0  0  0  0
   -2.0648    1.9643    1.8046 C   0  0  2  0  0  0  0  0  0  0  0  0
   -0.7298    1.3789    1.3634 C   0  0  0  0  0  0  0  0  0  0  0  0
    0.1423    1.0262    2.1547 O   0  0  0  0  0  0  0  0  0  0  0  0
   -2.0560    3.4811    1.6952 C   0  0  0  0  0  0  0  0  0  0  0  0
   -3.0767    1.9741    3.6688 H   0  0  0  0  0  0  0  0  0  0  0  0
   -2.8689    1.5458    1.1895 H   0  0  0  0  0  0  0  0  0  0  0  0
   -1.2569    3.9183    2.3049 H   0  0  0  0  0  0  0  0  0  0  0  0
   -1.8965    3.8033    0.6609 H   0  0  0  0  0  0  0  0  0  0  0  0
   -3.0062    3.9023    2.0409 H   0  0  0  0  0  0  0  0  0  0  0  0
   -0.6071    1.3358   -0.0200 N   0  0  0  0  0  0  0  0  0  0  0  0
    0.5702    0.8350   -0.6836 C   0  0  2  0  0  0  0  0  0  0  0  0
    1.5515    0.4063    0.4014 C   0  0  0  0  0  0  0  0  0  0  0  0
    1.9655    1.1716    1.2696 O   0  0  0  0  0  0  0  0  0  0  0  0
    1.2113    1.8862   -1.5969 C   0  0  0  0  0  0  0  0  0  0  0  0
    0.3150    2.2887   -2.7425 C   0  0  0  0  0  0  0  0  0  0  0  0
    0.1023    1.4899   -3.8305 N   0  0  0  0  0  0  0  0  0  0  0  0
   -0.4357    3.4157   -2.9811 C   0  0  0  0  0  0  0  0  0  0  0  0
   -0.7514    2.1546   -4.6664 C   0  0  0  0  0  0  0  0  0  0  0  0
   -1.0973    3.3259   -4.1802 N   0  0  0  0  0  0  0  0  0  0  0  0
   -1.3903    1.6325   -0.5973 H   0  0  0  0  0  0  0  0  0  0  0  0
    0.2562   -0.0479   -1.2528 H   0  0  0  0  0  0  0  0  0  0  0  0
    2.1685    1.5165   -1.9891 H   0  0  0  0  0  0  0  0  0  0  0  0
    1.4640    2.7886   -1.0247 H   0  0  0  0  0  0  0  0  0  0  0  0
    0.5026    0.5749   -3.9916 H   0  0  0  0  0  0  0  0  0  0  0  0
   -0.5351    4.2887   -2.3518 H   0  0  0  0  0  0  0  0  0  0  0  0
   -1.0790    1.7331   -5.6061 H   0  0  0  0  0  0  0  0  0  0  0  0
    1.8684   -0.9421    0.3121 N   0  0  0  0  0  0  0  0  0  0  0  0
    2.7594   -1.6106    1.2329 C   0  0  2  0  0  0  0  0  0  0  0  0
    4.0339   -0.7836    1.3381 C   0  0  0  0  0  0  0  0  0  0  0  0
    4.3932    0.0086    0.4695 O   0  0  0  0  0  0  0  0  0  0  0  0
    3.0672   -3.0276    0.7747 C   0  0  0  0  0  0  0  0  0  0  0  0
    1.4531   -1.4864   -0.4383 H   0  0  0  0  0  0  0  0  0  0  0  0
    2.2541   -1.6292    2.2047 H   0  0  0  0  0  0  0  0  0  0  0  0
    3.5737   -3.0292   -0.1974 H   0  0  0  0  0  0  0  0  0  0  0  0
    3.7194   -3.5424    1.4880 H   0  0  0  0  0  0  0  0  0  0  0  0
    2.1468   -3.6123    0.6709 H   0  0  0  0  0  0  0  0  0  0  0  0
    4.7451   -1.0659    2.4960 N   0  0  0  0  0  0  0  0  0  0  0  0
    5.9959   -0.4203    2.8196 C   0  0  0  0  0  0  0  0  0  0  0  0
    4.3628   -1.7231    3.1696 H   0  0  0  0  0  0  0  0  0  0  0  0
    6.8314   -1.0283    2.4423 H   0  0  0  0  0  0  0  0  0  0  0  0
    6.0265    0.5749    2.3521 H   0  0  0  0  0  0  0  0  0  0  0  0
    6.0826   -0.3155    3.9112 H   0  0  0  0  0  0  0  0  0  0  0  0
 22 24  2  0  0  0  0
 24 26  1  0  0  0  0
 25 26  2  0  0  0  0
 23 25  1  0  0  0  0
 21 22  1  0  0  0  0
 22 23  1  0  0  0  0
  1  3  1  0  0  0  0
  1  7  1  0  0  0  0
  1  2  2  0  0  0  0
 35 36  1  0  0  0  0
 36 44  1  0  0  0  0
 36 37  2  0  0  0  0
  8  9  1  0  0  0  0
  9 17  1  0  0  0  0
  9 10  2  0  0  0  0
 18 19  1  0  0  0  0
 19 34  1  0  0  0  0
 19 20  2  0  0  0  0
 35 38  1  0  0  0  0
  8 11  1  0  0  0  0
 44 45  1  0  0  0  0
 18 21  1  0  0  0  0
 34 35  1  0  0  0  0
  7  8  1  0  0  0  0
 17 18  1  0  0  0  0
 24 32  1  0  0  0  0
 25 33  1  0  0  0  0
  3  4  1  0  0  0  0
  3  5  1  0  0  0  0
  3  6  1  0  0  0  0
 38 41  1  0  0  0  0
 38 42  1  0  0  0  0
 38 43  1  0  0  0  0
 11 14  1  0  0  0  0
 11 15  1  0  0  0  0
 11 16  1  0  0  0  0
 45 47  1  0  0  0  0
 45 48  1  0  0  0  0
 45 49  1  0  0  0  0
 21 29  1  0  0  0  0
 21 30  1  0  0  0  0
 35 40  1  0  0  0  0
  8 13  1  0  0  0  0
 18 28  1  0  0  0  0
 23 31  1  0  0  0  0
 44 46  1  0  0  0  0
  7 12  1  0  0  0  0
 34 39  1  0  0  0  0
 17 27  1  0  0  0  0
M  END
$$$$

  -OEChem-05262214473D

 49 49  0     1  0  0  0  0  0999 V2000
   -1.5619    0.5658    3.7981 C   0  0  0  0  0  0  0  0  0  0  0  0
   -0.6145   -0.0489    3.3224 O   0  0  0  0  0  0  0  0  0  0  0  0
   -1.9938    0.2834    5.1988 C   0  0  0  0  0  0  0  0  0  0  0  0
   -2.7535   -0.5129    5.2522 H   0  0  0  0  0  0  0  0  0  0  0  0
   -1.1626   -0.0642    5.8331 H   0  0  0  0  0  0  0  0  0  0  0  0
   -2.4318    1.1383    5.7384 H   0  0  0  0  0  0  0  0  0  0  0  0
   -2.3116    1.5383    3.1570 N   0  0  0  0  0  0  0  0  0  0  0  0
   -2.0648    1.9643    1.8046 C   0  0  2  0  0  0  0  0  0  0  0  0
   -0.7298    1.3789    1.3634 C   0  0  0  0  0  0  0  0  0  0  0  0
    0.1423    1.0262    2.1547 O   0  0  0  0  0  0  0  0  0  0  0  0
   -2.0560    3.4811    1.6952 C   0  0  0  0  0  0  0  0  0  0  0  0
   -3.0767    1.9741    3.6688 H   0  0  0  0  0  0  0  0  0  0  0  0
   -2.8689    1.5458    1.1895 H   0  0  0  0  0  0  0  0  0  0  0  0
   -1.2569    3.9183    2.3049 H   0  0  0  0  0  0  0  0  0  0  0  0
   -1.8965    3.8033    0.6609 H   0  0  0  0  0  0  0  0  0  0  0  0
   -3.0062    3.9023    2.0409 H   0  0  0  0  0  0  0  0  0  0  0  0
   -0.6071    1.3358   -0.0200 N   0  0  0  0  0  0  0  0  0  0  0  0
    0.5702    0.8350   -0.6836 C   0  0  2  0  0  0  0  0  0  0  0  0
    1.5515    0.4063    0.4014 C   0  0  0  0  0  0  0  0  0  0  0  0
    1.7619    1.0707    1.4139 O   0  0  0  0  0  0  0  0  0  0  0  0
    1.2113    1.8862   -1.5969 C   0  0  0  0  0  0  0  0  0  0  0  0
    0.3150    2.2887   -2.7425 C   0  0  0  0  0  0  0  0  0  0  0  0
    0.1023    1.4899   -3.8305 N   0  0  0  0  0  0  0  0  0  0  0  0
   -0.4357    3.4157   -2.9811 C   0  0  0  0  0  0  0  0  0  0  0  0
   -0.7514    2.1546   -4.6664 C   0  0  0  0  0  0  0  0  0  0  0  0
   -1.0973    3.3259   -4.1802 N   0  0  0  0  0  0  0  0  0  0  0  0
   -1.3903    1.6325   -0.5973 H   0  0  0  0  0  0  0  0  0  0  0  0
    0.2562   -0.0479   -1.2528 H   0  0  0  0  0  0  0  0  0  0  0  0
    2.1685    1.5165   -1.9891 H   0  0  0  0  0  0  0  0  0  0  0  0
    1.4640    2.7886   -1.0247 H   0  0  0  0  0  0  0  0  0  0  0  0
    0.5026    0.5749   -3.9916 H   0  0  0  0  0  0  0  0  0  0  0  0
   -0.5351    4.2887   -2.3518 H   0  0  0  0  0  0  0  0  0  0  0  0
   -1.0790    1.7331   -5.6061 H   0  0  0  0  0  0  0  0  0  0  0  0
    2.1238   -0.8279    0.1261 N   0  0  0  0  0  0  0  0  0  0  0  0
    3.0717   -1.4765    1.0034 C   0  0  2  0  0  0  0  0  0  0  0  0
    4.1573   -0.4667    1.3517 C   0  0  0  0  0  0  0  0  0  0  0  0
    4.4083    0.5152    0.6560 O   0  0  0  0  0  0  0  0  0  0  0  0
    3.6694   -2.7148    0.3537 C   0  0  0  0  0  0  0  0  0  0  0  0
    1.8634   -1.2990   -0.7353 H   0  0  0  0  0  0  0  0  0  0  0  0
    2.5245   -1.7530    1.9112 H   0  0  0  0  0  0  0  0  0  0  0  0
    4.2216   -2.4576   -0.5575 H   0  0  0  0  0  0  0  0  0  0  0  0
    4.3658   -3.2210    1.0304 H   0  0  0  0  0  0  0  0  0  0  0  0
    2.8845   -3.4270    0.0769 H   0  0  0  0  0  0  0  0  0  0  0  0
    4.8419   -0.8144    2.5078 N   0  0  0  0  0  0  0  0  0  0  0  0
    5.9263   -0.0225    3.0397 C   0  0  0  0  0  0  0  0  0  0  0  0
    4.5538   -1.6358    3.0313 H   0  0  0  0  0  0  0  0  0  0  0  0
    6.8824   -0.3973    2.6455 H   0  0  0  0  0  0  0  0  0  0  0  0
    5.7935    1.0280    2.7418 H   0  0  0  0  0  0  0  0  0  0  0  0
    5.9290   -0.0949    4.1374 H   0  0  0  0  0  0  0  0  0  0  0  0
 22 24  2  0  0  0  0
 24 26  1  0  0  0  0
 25 26  2  0  0  0  0
 23 25  1  0  0  0  0
 21 22  1  0  0  0  0
 22 23  1  0  0  0  0
  1  3  1  0  0  0  0
  1  7  1  0  0  0  0
  1  2  2  0  0  0  0
 35 36  1  0  0  0  0
 36 44  1  0  0  0  0
 36 37  2  0  0  0  0
  8  9  1  0  0  0  0
  9 17  1  0  0  0  0
  9 10  2  0  0  0  0
 18 19  1  0  0  0  0
 19 34  1  0  0  0  0
 19 20  2  0  0  0  0
 35 38  1  0  0  0  0
  8 11  1  0  0  0  0
 44 45  1  0  0  0  0
 18 21  1  0  0  0  0
 34 35  1  0  0  0  0
  7  8  1  0  0  0  0
 17 18  1  0  0  0  0
 24 32  1  0  0  0  0
 25 33  1  0  0  0  0
  3  4  1  0  0  0  0
  3  5  1  0  0  0  0
  3  6  1  0  0  0  0
 38 41  1  0  0  0  0
 38 42  1  0  0  0  0
 38 43  1  0  0  0  0
 11 14  1  0  0  0  0
 11 15  1  0  0  0  0
 11 16  1  0  0  0  0
 45 47  1  0  0  0  0
 45 48  1  0  0  0  0
 45 49  1  0  0  0  0
 21 29  1  0  0  0  0
 21 30  1  0  0  0  0
 35 40  1  0  0  0  0
  8 13  1  0  0  0  0
 18 28  1  0  0  0  0
 23 31  1  0  0  0  0
 44 46  1  0  0  0  0
  7 12  1  0  0  0  0
 34 39  1  0  0  0  0
 17 27  1  0  0  0  0
M  END
$$$$

  -OEChem-05262214473D

 49 49  0     1  0  0  0  0  0999 V2000
   -1.5619    0.5658    3.7981 C   0  0  0  0  0  0  0  0  0  0  0  0
   -0.6145   -0.0489    3.3224 O   0  0  0  0  0  0  0  0  0  0  0  0
   -1.9938    0.2834    5.1988 C   0  0  0  0  0  0  0  0  0  0  0  0
   -2.7535   -0.5129    5.2522 H   0  0  0  0  0  0  0  0  0  0  0  0
   -1.1626   -0.0642    5.8331 H   0  0  0  0  0  0  0  0  0  0  0  0
   -2.4318    1.1383    5.7384 H   0  0  0  0  0  0  0  0  0  0  0  0
   -2.3116    1.5383    3.1570 N   0  0  0  0  0  0  0  0  0  0  0  0
   -2.0648    1.9643    1.8046 C   0  0  2  0  0  0  0  0  0  0  0  0
   -0.7298    1.3789    1.3634 C   0  0  0  0  0  0  0  0  0  0  0  0
    0.1423    1.0262    2.1547 O   0  0  0  0  0  0  0  0  0  0  0  0
   -2.0560    3.4811    1.6952 C   0  0  0  0  0  0  0  0  0  0  0  0
   -3.0767    1.9741    3.6688 H   0  0  0  0  0  0  0  0  0  0  0  0
   -2.8689    1.5458    1.1895 H   0  0  0  0  0  0  0  0  0  0  0  0
   -1.2569    3.9183    2.3049 H   0  0  0  0  0  0  0  0  0  0  0  0
   -1.8965    3.8033    0.6609 H   0  0  0  0  0  0  0  0  0  0  0  0
   -3.0062    3.9023    2.0409 H   0  0  0  0  0  0  0  0  0  0  0  0
   -0.6071    1.3358   -0.0200 N   0  0  0  0  0  0  0  0  0  0  0  0
    0.5702    0.8350   -0.6836 C   0  0  2  0  0  0  0  0  0  0  0  0
    1.5515    0.4063    0.4014 C   0  0  0  0  0  0  0  0  0  0  0  0
    1.5733    0.9117    1.5216 O   0  0  0  0  0  0  0  0  0  0  0  0
    1.2113    1.8862   -1.5969 C   0  0  0  0  0  0  0  0  0  0  0  0
    0.3150    2.2887   -2.7425 C   0  0  0  0  0  0  0  0  0  0  0  0
    0.1023    1.4899   -3.8305 N   0  0  0  0  0  0  0  0  0  0  0  0
   -0.4357    3.4157   -2.9811 C   0  0  0  0  0  0  0  0  0  0  0  0
   -0.7514    2.1546   -4.6664 C   0  0  0  0  0  0  0  0  0  0  0  0
   -1.0973    3.3259   -4.1802 N   0  0  0  0  0  0  0  0  0  0  0  0
   -1.3903    1.6325   -0.5973 H   0  0  0  0  0  0  0  0  0  0  0  0
    0.2562   -0.0479   -1.2528 H   0  0  0  0  0  0  0  0  0  0  0  0
    2.1685    1.5165   -1.9891 H   0  0  0  0  0  0  0  0  0  0  0  0
    1.4640    2.7886   -1.0247 H   0  0  0  0  0  0  0  0  0  0  0  0
    0.5026    0.5749   -3.9916 H   0  0  0  0  0  0  0  0  0  0  0  0
   -0.5351    4.2887   -2.3518 H   0  0  0  0  0  0  0  0  0  0  0  0
   -1.0790    1.7331   -5.6061 H   0  0  0  0  0  0  0  0  0  0  0  0
    2.3631   -0.6395   -0.0159 N   0  0  0  0  0  0  0  0  0  0  0  0
    3.3654   -1.2512    0.8268 C   0  0  2  0  0  0  0  0  0  0  0  0
    4.2172   -0.1402    1.4266 C   0  0  0  0  0  0  0  0  0  0  0  0
    4.3160    0.9762    0.9217 O   0  0  0  0  0  0  0  0  0  0  0  0
    4.2240   -2.2315    0.0430 C   0  0  0  0  0  0  0  0  0  0  0  0
    2.2468   -0.9928   -0.9611 H   0  0  0  0  0  0  0  0  0  0  0  0
    2.8298   -1.7739    1.6268 H   0  0  0  0  0  0  0  0  0  0  0  0
    4.7683   -1.7260   -0.7630 H   0  0  0  0  0  0  0  0  0  0  0  0
    4.9642   -2.7152    0.6890 H   0  0  0  0  0  0  0  0  0  0  0  0
    3.6062   -3.0131   -0.4124 H   0  0  0  0  0  0  0  0  0  0  0  0
    4.8882   -0.5556    2.5682 N   0  0  0  0  0  0  0  0  0  0  0  0
    5.7698    0.3122    3.3136 C   0  0  0  0  0  0  0  0  0  0  0  0
    4.7323   -1.4934    2.9261 H   0  0  0  0  0  0  0  0  0  0  0  0
    6.8007    0.1878    2.9506 H   0  0  0  0  0  0  0  0  0  0  0  0
    5.4567    1.3578    3.1768 H   0  0  0  0  0  0  0  0  0  0  0  0
    5.7234    0.0523    4.3814 H   0  0  0  0  0  0  0  0  0  0  0  0
 22 24  2  0  0  0  0
 24 26  1  0  0  0  0
 25 26  2  0  0  0  0
 23 25  1  0  0  0  0
 21 22  1  0  0  0  0
 22 23  1  0  0  0  0
  1  3  1  0  0  0  0
  1  7  1  0  0  0  0
  1  2  2  0  0  0  0
 35 36  1  0  0  0  0
 36 44  1  0  0  0  0
 36 37  2  0  0  0  0
  8  9  1  0  0  0  0
  9 17  1  0  0  0  0
  9 10  2  0  0  0  0
 18 19  1  0  0  0  0
 19 34  1  0  0  0  0
 19 20  2  0  0  0  0
 35 38  1  0  0  0  0
  8 11  1  0  0  0  0
 44 45  1  0  0  0  0
 18 21  1  0  0  0  0
 34 35  1  0  0  0  0
  7  8  1  0  0  0  0
 17 18  1  0  0  0  0
 24 32  1  0  0  0  0
 25 33  1  0  0  0  0
  3  4  1  0  0  0  0
  3  5  1  0  0  0  0
  3  6  1  0  0  0  0
 38 41  1  0  0  0  0
 38 42  1  0  0  0  0
 38 43  1  0  0  0  0
 11 14  1  0  0  0  0
 11 15  1  0  0  0  0
 11 16  1  0  0  0  0
 45 47  1  0  0  0  0
 45 48  1  0  0  0  0
 45 49  1  0  0  0  0
 21 29  1  0  0  0  0
 21 30  1  0  0  0  0
 35 40  1  0  0  0  0
  8 13  1  0  0  0  0
 18 28  1  0  0  0  0
 23 31  1  0  0  0  0
 44 46  1  0  0  0  0
  7 12  1  0  0  0  0
 34 39  1  0  0  0  0
 17 27  1  0  0  0  0
M  END
$$$$

  -OEChem-05262214473D

 49 49  0     1  0  0  0  0  0999 V2000
   -1.5619    0.5658    3.7981 C   0  0  0  0  0  0  0  0  0  0  0  0
   -0.6145   -0.0489    3.3224 O   0  0  0  0  0  0  0  0  0  0  0  0
   -1.9938    0.2834    5.1988 C   0  0  0  0  0  0  0  0  0  0  0  0
   -2.7535   -0.5129    5.2522 H   0  0  0  0  0  0  0  0  0  0  0  0
   -1.1626   -0.0642    5.8331 H   0  0  0  0  0  0  0  0  0  0  0  0
   -2.4318    1.1383    5.7384 H   0  0  0  0  0  0  0  0  0  0  0  0
   -2.3116    1.5383    3.1570 N   0  0  0  0  0  0  0  0  0  0  0  0
   -2.0648    1.9643    1.8046 C   0  0  2  0  0  0  0  0  0  0  0  0
   -0.7298    1.3789    1.3634 C   0  0  0  0  0  0  0  0  0  0  0  0
    0.1423    1.0262    2.1547 O   0  0  0  0  0  0  0  0  0  0  0  0
   -2.0560    3.4811    1.6952 C   0  0  0  0  0  0  0  0  0  0  0  0
   -3.0767    1.9741    3.6688 H   0  0  0  0  0  0  0  0  0  0  0  0
   -2.8689    1.5458    1.1895 H   0  0  0  0  0  0  0  0  0  0  0  0
   -1.2569    3.9183    2.3049 H   0  0  0  0  0  0  0  0  0  0  0  0
   -1.8965    3.8033    0.6609 H   0  0  0  0  0  0  0  0  0  0  0  0
   -3.0062    3.9023    2.0409 H   0  0  0  0  0  0  0  0  0  0  0  0
   -0.6071    1.3358   -0.0200 N   0  0  0  0  0  0  0  0  0  0  0  0
    0.5702    0.8350   -0.6836 C   0  0  2  0  0  0  0  0  0  0  0  0
    1.5515    0.4063    0.4014 C   0  0  0  0  0  0  0  0  0  0  0  0
    1.4126    0.7055    1.5855 O   0  0  0  0  0  0  0  0  0  0  0  0
    1.2113    1.8862   -1.5969 C   0  0  0  0  0  0  0  0  0  0  0  0
    0.3150    2.2887   -2.7425 C   0  0  0  0  0  0  0  0  0  0  0  0
    0.1023    1.4899   -3.8305 N   0  0  0  0  0  0  0  0  0  0  0  0
   -0.4357    3.4157   -2.9811 C   0  0  0  0  0  0  0  0  0  0  0  0
   -0.7514    2.1546   -4.6664 C   0  0  0  0  0  0  0  0  0  0  0  0
   -1.0973    3.3259   -4.1802 N   0  0  0  0  0  0  0  0  0  0  0  0
   -1.3903    1.6325   -0.5973 H   0  0  0  0  0  0  0  0  0  0  0  0
    0.2562   -0.0479   -1.2528 H   0  0  0  0  0  0  0  0  0  0  0  0
    2.1685    1.5165   -1.9891 H   0  0  0  0  0  0  0  0  0  0  0  0
    1.4640    2.7886   -1.0247 H   0  0  0  0  0  0  0  0  0  0  0  0
    0.5026    0.5749   -3.9916 H   0  0  0  0  0  0  0  0  0  0  0  0
   -0.5351    4.2887   -2.3518 H   0  0  0  0  0  0  0  0  0  0  0  0
   -1.0790    1.7331   -5.6061 H   0  0  0  0  0  0  0  0  0  0  0  0
    2.5699   -0.3899   -0.1042 N   0  0  0  0  0  0  0  0  0  0  0  0
    3.6204   -0.9500    0.7152 C   0  0  2  0  0  0  0  0  0  0  0  0
    4.2094    0.1737    1.5577 C   0  0  0  0  0  0  0  0  0  0  0  0
    4.1225    1.3602    1.2484 O   0  0  0  0  0  0  0  0  0  0  0  0
    4.6933   -1.6108   -0.1362 C   0  0  0  0  0  0  0  0  0  0  0  0
    2.5771   -0.5889   -1.1003 H   0  0  0  0  0  0  0  0  0  0  0  0
    3.1493   -1.6904    1.3708 H   0  0  0  0  0  0  0  0  0  0  0  0
    5.1766   -0.8845   -0.7998 H   0  0  0  0  0  0  0  0  0  0  0  0
    5.4739   -2.0596    0.4870 H   0  0  0  0  0  0  0  0  0  0  0  0
    4.2627   -2.3989   -0.7634 H   0  0  0  0  0  0  0  0  0  0  0  0
    4.8808   -0.3072    2.6731 N   0  0  0  0  0  0  0  0  0  0  0  0
    5.5370    0.5611    3.6225 C   0  0  0  0  0  0  0  0  0  0  0  0
    4.8861   -1.3053    2.8613 H   0  0  0  0  0  0  0  0  0  0  0  0
    6.5918    0.6871    3.3368 H   0  0  0  0  0  0  0  0  0  0  0  0
    5.0389    1.5419    3.6274 H   0  0  0  0  0  0  0  0  0  0  0  0
    5.4800    0.1159    4.6267 H   0  0  0  0  0  0  0  0  0  0  0  0
 22 24  2  0  0  0  0
 24 26  1  0  0  0  0
 25 26  2  0  0  0  0
 23 25  1  0  0  0  0
 21 22  1  0  0  0  0
 22 23  1  0  0  0  0
  1  3  1  0  0  0  0
  1  7  1  0  0  0  0
  1  2  2  0  0  0  0
 35 36  1  0  0  0  0
 36 44  1  0  0  0  0
 36 37  2  0  0  0  0
  8  9  1  0  0  0  0
  9 17  1  0  0  0  0
  9 10  2  0  0  0  0
 18 19  1  0  0  0  0
 19 34  1  0  0  0  0
 19 20  2  0  0  0  0
 35 38  1  0  0  0  0
  8 11  1  0  0  0  0
 44 45  1  0  0  0  0
 18 21  1  0  0  0  0
 34 35  1  0  0  0  0
  7  8  1  0  0  0  0
 17 18  1  0  0  0  0
 24 32  1  0  0  0  0
 25 33  1  0  0  0  0
  3  4  1  0  0  0  0
  3  5  1  0  0  0  0
  3  6  1  0  0  0  0
 38 41  1  0  0  0  0
 38 42  1  0  0  0  0
 38 43  1  0  0  0  0
 11 14  1  0  0  0  0
 11 15  1  0  0  0  0
 11 16  1  0  0  0  0
 45 47  1  0  0  0  0
 45 48  1  0  0  0  0
 45 49  1  0  0  0  0
 21 29  1  0  0  0  0
 21 30  1  0  0  0  0
 35 40  1  0  0  0  0
  8 13  1  0  0  0  0
 18 28  1  0  0  0  0
 23 31  1  0  0  0  0
 44 46  1  0  0  0  0
  7 12  1  0  0  0  0
 34 39  1  0  0  0  0
 17 27  1  0  0  0  0
M  END
$$$$

  -OEChem-05262214473D

 49 49  0     1  0  0  0  0  0999 V2000
   -1.5619    0.5658    3.7981 C   0  0  0  0  0  0  0  0  0  0  0  0
   -0.6145   -0.0489    3.3224 O   0  0  0  0  0  0  0  0  0  0  0  0
   -1.9938    0.2834    5.1988 C   0  0  0  0  0  0  0  0  0  0  0  0
   -2.7535   -0.5129    5.2522 H   0  0  0  0  0  0  0  0  0  0  0  0
   -1.1626   -0.0642    5.8331 H   0  0  0  0  0  0  0  0  0  0  0  0
   -2.4318    1.1383    5.7384 H   0  0  0  0  0  0  0  0  0  0  0  0
   -2.3116    1.5383    3.1570 N   0  0  0  0  0  0  0  0  0  0  0  0
   -2.0648    1.9643    1.8046 C   0  0  2  0  0  0  0  0  0  0  0  0
   -0.7298    1.3789    1.3634 C   0  0  0  0  0  0  0  0  0  0  0  0
    0.1423    1.0262    2.1547 O   0  0  0  0  0  0  0  0  0  0  0  0
   -2.0560    3.4811    1.6952 C   0  0  0  0  0  0  0  0  0  0  0  0
   -3.0767    1.9741    3.6688 H   0  0  0  0  0  0  0  0  0  0  0  0
   -2.8689    1.5458    1.1895 H   0  0  0  0  0  0  0  0  0  0  0  0
   -1.2569    3.9183    2.3049 H   0  0  0  0  0  0  0  0  0  0  0  0
   -1.8965    3.8033    0.6609 H   0  0  0  0  0  0  0  0  0  0  0  0
   -3.0062    3.9023    2.0409 H   0  0  0  0  0  0  0  0  0  0  0  0
   -0.6071    1.3358   -0.0200 N   0  0  0  0  0  0  0  0  0  0  0  0
    0.5702    0.8350   -0.6836 C   0  0  2  0  0  0  0  0  0  0  0  0
    1.3820    0.0692    0.3549 C   0  0  0  0  0  0  0  0  0  0  0  0
    1.0074   -0.0864    1.5153 O   0  0  0  0  0  0  0  0  0  0  0  0
    1.4130    1.9602   -1.2950 C   0  0  0  0  0  0  0  0  0  0  0  0
    0.6886    2.7021   -2.3916 C   0  0  0  0  0  0  0  0  0  0  0  0
    0.5027    2.1787   -3.6401 N   0  0  0  0  0  0  0  0  0  0  0  0
    0.0944    3.9412   -2.4373 C   0  0  0  0  0  0  0  0  0  0  0  0
   -0.1826    3.1056   -4.3752 C   0  0  0  0  0  0  0  0  0  0  0  0
   -0.4464    4.1862   -3.6747 N   0  0  0  0  0  0  0  0  0  0  0  0
   -1.3903    1.6325   -0.5973 H   0  0  0  0  0  0  0  0  0  0  0  0
    0.2216    0.1362   -1.4532 H   0  0  0  0  0  0  0  0  0  0  0  0
    2.3591    1.5590   -1.6830 H   0  0  0  0  0  0  0  0  0  0  0  0
    1.7028    2.6852   -0.5229 H   0  0  0  0  0  0  0  0  0  0  0  0
    0.8147    1.2727   -3.9644 H   0  0  0  0  0  0  0  0  0  0  0  0
    0.0270    4.6712   -1.6433 H   0  0  0  0  0  0  0  0  0  0  0  0
   -0.4562    2.9325   -5.4063 H   0  0  0  0  0  0  0  0  0  0  0  0
    2.5470   -0.4597   -0.1830 N   0  0  0  0  0  0  0  0  0  0  0  0
    3.4864   -1.2495    0.5803 C   0  0  2  0  0  0  0  0  0  0  0  0
    3.8038   -0.4926    1.8632 C   0  0  0  0  0  0  0  0  0  0  0  0
    3.6563    0.7223    1.9792 O   0  0  0  0  0  0  0  0  0  0  0  0
    4.7526   -1.5252   -0.2156 C   0  0  0  0  0  0  0  0  0  0  0  0
    2.7496   -0.2829   -1.1626 H   0  0  0  0  0  0  0  0  0  0  0  0
    2.9822   -2.1905    0.8260 H   0  0  0  0  0  0  0  0  0  0  0  0
    5.2715   -0.5941   -0.4710 H   0  0  0  0  0  0  0  0  0  0  0  0
    5.4512   -2.1475    0.3534 H   0  0  0  0  0  0  0  0  0  0  0  0
    4.5193   -2.0433   -1.1520 H   0  0  0  0  0  0  0  0  0  0  0  0
    4.3118   -1.3267    2.8492 N   0  0  0  0  0  0  0  0  0  0  0  0
    4.7013   -0.8446    4.1538 C   0  0  0  0  0  0  0  0  0  0  0  0
    4.3820   -2.3245    2.6723 H   0  0  0  0  0  0  0  0  0  0  0  0
    5.7722   -0.5937    4.1478 H   0  0  0  0  0  0  0  0  0  0  0  0
    4.1159    0.0529    4.4027 H   0  0  0  0  0  0  0  0  0  0  0  0
    4.5120   -1.6258    4.9048 H   0  0  0  0  0  0  0  0  0  0  0  0
 22 24  2  0  0  0  0
 24 26  1  0  0  0  0
 25 26  2  0  0  0  0
 23 25  1  0  0  0  0
 21 22  1  0  0  0  0
 22 23  1  0  0  0  0
  1  3  1  0  0  0  0
  1  7  1  0  0  0  0
  1  2  2  0  0  0  0
 35 36  1  0  0  0  0
 36 44  1  0  0  0  0
 36 37  2  0  0  0  0
  8  9  1  0  0  0  0
  9 17  1  0  0  0  0
  9 10  2  0  0  0  0
 18 19  1  0  0  0  0
 19 34  1  0  0  0  0
 19 20  2  0  0  0  0
 35 38  1  0  0  0  0
  8 11  1  0  0  0  0
 44 45  1  0  0  0  0
 18 21  1  0  0  0  0
 34 35  1  0  0  0  0
  7  8  1  0  0  0  0
 17 18  1  0  0  0  0
 24 32  1  0  0  0  0
 25 33  1  0  0  0  0
  3  4  1  0  0  0  0
  3  5  1  0  0  0  0
  3  6  1  0  0  0  0
 38 41  1  0  0  0  0
 38 42  1  0  0  0  0
 38 43  1  0  0  0  0
 11 14  1  0  0  0  0
 11 15  1  0  0  0  0
 11 16  1  0  0  0  0
 45 47  1  0  0  0  0
 45 48  1  0  0  0  0
 45 49  1  0  0  0  0
 21 29  1  0  0  0  0
 21 30  1  0  0  0  0
 35 40  1  0  0  0  0
  8 13  1  0  0  0  0
 18 28  1  0  0  0  0
 23 31  1  0  0  0  0
 44 46  1  0  0  0  0
  7 12  1  0  0  0  0
 34 39  1  0  0  0  0
 17 27  1  0  0  0  0
M  END
$$$$

  -OEChem-05262214473D

 49 49  0     1  0  0  0  0  0999 V2000
   -1.5619    0.5658    3.7981 C   0  0  0  0  0  0  0  0  0  0  0  0
   -0.6145   -0.0489    3.3224 O   0  0  0  0  0  0  0  0  0  0  0  0
   -1.9938    0.2834    5.1988 C   0  0  0  0  0  0  0  0  0  0  0  0
   -2.7535   -0.5129    5.2522 H   0  0  0  0  0  0  0  0  0  0  0  0
   -1.1626   -0.0642    5.8331 H   0  0  0  0  0  0  0  0  0  0  0  0
   -2.4318    1.1383    5.7384 H   0  0  0  0  0  0  0  0  0  0  0  0
   -2.3116    1.5383    3.1570 N   0  0  0  0  0  0  0  0  0  0  0  0
   -2.0648    1.9643    1.8046 C   0  0  2  0  0  0  0  0  0  0  0  0
   -0.7298    1.3789    1.3634 C   0  0  0  0  0  0  0  0  0  0  0  0
    0.1423    1.0262    2.1547 O   0  0  0  0  0  0  0  0  0  0  0  0
   -2.0560    3.4811    1.6952 C   0  0  0  0  0  0  0  0  0  0  0  0
   -3.0767    1.9741    3.6688 H   0  0  0  0  0  0  0  0  0  0  0  0
   -2.8689    1.5458    1.1895 H   0  0  0  0  0  0  0  0  0  0  0  0
   -1.2569    3.9183    2.3049 H   0  0  0  0  0  0  0  0  0  0  0  0
   -1.8965    3.8033    0.6609 H   0  0  0  0  0  0  0  0  0  0  0  0
   -3.0062    3.9023    2.0409 H   0  0  0  0  0  0  0  0  0  0  0  0
   -0.6071    1.3358   -0.0200 N   0  0  0  0  0  0  0  0  0  0  0  0
    0.5702    0.8350   -0.6836 C   0  0  2  0  0  0  0  0  0  0  0  0
    1.3820    0.0692    0.3549 C   0  0  0  0  0  0  0  0  0  0  0  0
    0.9088   -0.3185    1.4211 O   0  0  0  0  0  0  0  0  0  0  0  0
    1.4130    1.9602   -1.2950 C   0  0  0  0  0  0  0  0  0  0  0  0
    0.6886    2.7021   -2.3916 C   0  0  0  0  0  0  0  0  0  0  0  0
    0.5027    2.1787   -3.6401 N   0  0  0  0  0  0  0  0  0  0  0  0
    0.0944    3.9412   -2.4373 C   0  0  0  0  0  0  0  0  0  0  0  0
   -0.1826    3.1056   -4.3752 C   0  0  0  0  0  0  0  0  0  0  0  0
   -0.4464    4.1862   -3.6747 N   0  0  0  0  0  0  0  0  0  0  0  0
   -1.3903    1.6325   -0.5973 H   0  0  0  0  0  0  0  0  0  0  0  0
    0.2216    0.1362   -1.4532 H   0  0  0  0  0  0  0  0  0  0  0  0
    2.3591    1.5590   -1.6830 H   0  0  0  0  0  0  0  0  0  0  0  0
    1.7028    2.6852   -0.5229 H   0  0  0  0  0  0  0  0  0  0  0  0
    0.8147    1.2727   -3.9644 H   0  0  0  0  0  0  0  0  0  0  0  0
    0.0270    4.6712   -1.6433 H   0  0  0  0  0  0  0  0  0  0  0  0
   -0.4562    2.9325   -5.4063 H   0  0  0  0  0  0  0  0  0  0  0  0
    2.6799   -0.1711   -0.0741 N   0  0  0  0  0  0  0  0  0  0  0  0
    3.6530   -0.8977    0.7094 C   0  0  2  0  0  0  0  0  0  0  0  0
    3.6714   -0.2988    2.1096 C   0  0  0  0  0  0  0  0  0  0  0  0
    3.2886    0.8431    2.3558 O   0  0  0  0  0  0  0  0  0  0  0  0
    5.0331   -0.8357    0.0736 C   0  0  0  0  0  0  0  0  0  0  0  0
    2.9600    0.1816   -0.9846 H   0  0  0  0  0  0  0  0  0  0  0  0
    3.3068   -1.9358    0.7601 H   0  0  0  0  0  0  0  0  0  0  0  0
    5.3967    0.1966    0.0142 H   0  0  0  0  0  0  0  0  0  0  0  0
    5.7631   -1.4104    0.6531 H   0  0  0  0  0  0  0  0  0  0  0  0
    5.0117   -1.2396   -0.9444 H   0  0  0  0  0  0  0  0  0  0  0  0
    4.2057   -1.1741    3.0447 N   0  0  0  0  0  0  0  0  0  0  0  0
    4.3427   -0.8342    4.4417 C   0  0  0  0  0  0  0  0  0  0  0  0
    4.4800   -2.1083    2.7551 H   0  0  0  0  0  0  0  0  0  0  0  0
    5.3417   -0.4097    4.6200 H   0  0  0  0  0  0  0  0  0  0  0  0
    3.5760   -0.0947    4.7159 H   0  0  0  0  0  0  0  0  0  0  0  0
    4.2145   -1.7393    5.0535 H   0  0  0  0  0  0  0  0  0  0  0  0
 22 24  2  0  0  0  0
 24 26  1  0  0  0  0
 25 26  2  0  0  0  0
 23 25  1  0  0  0  0
 21 22  1  0  0  0  0
 22 23  1  0  0  0  0
  1  3  1  0  0  0  0
  1  7  1  0  0  0  0
  1  2  2  0  0  0  0
 35 36  1  0  0  0  0
 36 44  1  0  0  0  0
 36 37  2  0  0  0  0
  8  9  1  0  0  0  0
  9 17  1  0  0  0  0
  9 10  2  0  0  0  0
 18 19  1  0  0  0  0
 19 34  1  0  0  0  0
 19 20  2  0  0  0  0
 35 38  1  0  0  0  0
  8 11  1  0  0  0  0
 44 45  1  0  0  0  0
 18 21  1  0  0  0  0
 34 35  1  0  0  0  0
  7  8  1  0  0  0  0
 17 18  1  0  0  0  0
 24 32  1  0  0  0  0
 25 33  1  0  0  0  0
  3  4  1  0  0  0  0
  3  5  1  0  0  0  0
  3  6  1  0  0  0  0
 38 41  1  0  0  0  0
 38 42  1  0  0  0  0
 38 43  1  0  0  0  0
 11 14  1  0  0  0  0
 11 15  1  0  0  0  0
 11 16  1  0  0  0  0
 45 47  1  0  0  0  0
 45 48  1  0  0  0  0
 45 49  1  0  0  0  0
 21 29  1  0  0  0  0
 21 30  1  0  0  0  0
 35 40  1  0  0  0  0
  8 13  1  0  0  0  0
 18 28  1  0  0  0  0
 23 31  1  0  0  0  0
 44 46  1  0  0  0  0
  7 12  1  0  0  0  0
 34 39  1  0  0  0  0
 17 27  1  0  0  0  0
M  END
$$$$

  -OEChem-05262214473D

 49 49  0     1  0  0  0  0  0999 V2000
   -1.5619    0.5658    3.7981 C   0  0  0  0  0  0  0  0  0  0  0  0
   -0.6145   -0.0489    3.3224 O   0  0  0  0  0  0  0  0  0  0  0  0
   -1.9938    0.2834    5.1988 C   0  0  0  0  0  0  0  0  0  0  0  0
   -2.7535   -0.5129    5.2522 H   0  0  0  0  0  0  0  0  0  0  0  0
   -1.1626   -0.0642    5.8331 H   0  0  0  0  0  0  0  0  0  0  0  0
   -2.4318    1.1383    5.7384 H   0  0  0  0  0  0  0  0  0  0  0  0
   -2.3116    1.5383    3.1570 N   0  0  0  0  0  0  0  0  0  0  0  0
   -2.0648    1.9643    1.8046 C   0  0  2  0  0  0  0  0  0  0  0  0
   -0.7298    1.3789    1.3634 C   0  0  0  0  0  0  0  0  0  0  0  0
    0.1423    1.0262    2.1547 O   0  0  0  0  0  0  0  0  0  0  0  0
   -2.0560    3.4811    1.6952 C   0  0  0  0  0  0  0  0  0  0  0  0
   -3.0767    1.9741    3.6688 H   0  0  0  0  0  0  0  0  0  0  0  0
   -2.8689    1.5458    1.1895 H   0  0  0  0  0  0  0  0  0  0  0  0
   -1.2569    3.9183    2.3049 H   0  0  0  0  0  0  0  0  0  0  0  0
   -1.8965    3.8033    0.6609 H   0  0  0  0  0  0  0  0  0  0  0  0
   -3.0062    3.9023    2.0409 H   0  0  0  0  0  0  0  0  0  0  0  0
   -0.6071    1.3358   -0.0200 N   0  0  0  0  0  0  0  0  0  0  0  0
    0.5702    0.8350   -0.6836 C   0  0  2  0  0  0  0  0  0  0  0  0
    1.3820    0.0692    0.3549 C   0  0  0  0  0  0  0  0  0  0  0  0
    0.8668   -0.5471    1.2854 O   0  0  0  0  0  0  0  0  0  0  0  0
    1.4130    1.9602   -1.2950 C   0  0  0  0  0  0  0  0  0  0  0  0
    0.6886    2.7021   -2.3916 C   0  0  0  0  0  0  0  0  0  0  0  0
    0.5027    2.1787   -3.6401 N   0  0  0  0  0  0  0  0  0  0  0  0
    0.0944    3.9412   -2.4373 C   0  0  0  0  0  0  0  0  0  0  0  0
   -0.1826    3.1056   -4.3752 C   0  0  0  0  0  0  0  0  0  0  0  0
   -0.4464    4.1862   -3.6747 N   0  0  0  0  0  0  0  0  0  0  0  0
   -1.3903    1.6325   -0.5973 H   0  0  0  0  0  0  0  0  0  0  0  0
    0.2216    0.1362   -1.4532 H   0  0  0  0  0  0  0  0  0  0  0  0
    2.3591    1.5590   -1.6830 H   0  0  0  0  0  0  0  0  0  0  0  0
    1.7028    2.6852   -0.5229 H   0  0  0  0  0  0  0  0  0  0  0  0
    0.8147    1.2727   -3.9644 H   0  0  0  0  0  0  0  0  0  0  0  0
    0.0270    4.6712   -1.6433 H   0  0  0  0  0  0  0  0  0  0  0  0
   -0.4562    2.9325   -5.4063 H   0  0  0  0  0  0  0  0  0  0  0  0
    2.7433    0.1162    0.0882 N   0  0  0  0  0  0  0  0  0  0  0  0
    3.7352   -0.5463    0.9043 C   0  0  2  0  0  0  0  0  0  0  0  0
    3.4773   -0.1689    2.3571 C   0  0  0  0  0  0  0  0  0  0  0  0
    2.8631    0.8431    2.6883 O   0  0  0  0  0  0  0  0  0  0  0  0
    5.1449   -0.1601    0.4844 C   0  0  0  0  0  0  0  0  0  0  0  0
    3.0583    0.6428   -0.7213 H   0  0  0  0  0  0  0  0  0  0  0  0
    3.5839   -1.6234    0.7738 H   0  0  0  0  0  0  0  0  0  0  0  0
    5.3151    0.9156    0.6081 H   0  0  0  0  0  0  0  0  0  0  0  0
    5.8954   -0.6847    1.0848 H   0  0  0  0  0  0  0  0  0  0  0  0
    5.3186   -0.4051   -0.5690 H   0  0  0  0  0  0  0  0  0  0  0  0
    4.0508   -1.0724    3.2407 N   0  0  0  0  0  0  0  0  0  0  0  0
    3.9572   -0.9270    4.6746 C   0  0  0  0  0  0  0  0  0  0  0  0
    4.5258   -1.8936    2.8776 H   0  0  0  0  0  0  0  0  0  0  0  0
    4.8321   -0.3730    5.0455 H   0  0  0  0  0  0  0  0  0  0  0  0
    3.0397   -0.3755    4.9280 H   0  0  0  0  0  0  0  0  0  0  0  0
    3.9280   -1.9220    5.1428 H   0  0  0  0  0  0  0  0  0  0  0  0
 22 24  2  0  0  0  0
 24 26  1  0  0  0  0
 25 26  2  0  0  0  0
 23 25  1  0  0  0  0
 21 22  1  0  0  0  0
 22 23  1  0  0  0  0
  1  3  1  0  0  0  0
  1  7  1  0  0  0  0
  1  2  2  0  0  0  0
 35 36  1  0  0  0  0
 36 44  1  0  0  0  0
 36 37  2  0  0  0  0
  8  9  1  0  0  0  0
  9 17  1  0  0  0  0
  9 10  2  0  0  0  0
 18 19  1  0  0  0  0
 19 34  1  0  0  0  0
 19 20  2  0  0  0  0
 35 38  1  0  0  0  0
  8 11  1  0  0  0  0
 44 45  1  0  0  0  0
 18 21  1  0  0  0  0
 34 35  1  0  0  0  0
  7  8  1  0  0  0  0
 17 18  1  0  0  0  0
 24 32  1  0  0  0  0
 25 33  1  0  0  0  0
  3  4  1  0  0  0  0
  3  5  1  0  0  0  0
  3  6  1  0  0  0  0
 38 41  1  0  0  0  0
 38 42  1  0  0  0  0
 38 43  1  0  0  0  0
 11 14  1  0  0  0  0
 11 15  1  0  0  0  0
 11 16  1  0  0  0  0
 45 47  1  0  0  0  0
 45 48  1  0  0  0  0
 45 49  1  0  0  0  0
 21 29  1  0  0  0  0
 21 30  1  0  0  0  0
 35 40  1  0  0  0  0
  8 13  1  0  0  0  0
 18 28  1  0  0  0  0
 23 31  1  0  0  0  0
 44 46  1  0  0  0  0
  7 12  1  0  0  0  0
 34 39  1  0  0  0  0
 17 27  1  0  0  0  0
M  END
$$$$

  -OEChem-05262214473D

 49 49  0     1  0  0  0  0  0999 V2000
   -1.5619    0.5658    3.7981 C   0  0  0  0  0  0  0  0  0  0  0  0
   -0.6145   -0.0489    3.3224 O   0  0  0  0  0  0  0  0  0  0  0  0
   -1.9938    0.2834    5.1988 C   0  0  0  0  0  0  0  0  0  0  0  0
   -2.7535   -0.5129    5.2522 H   0  0  0  0  0  0  0  0  0  0  0  0
   -1.1626   -0.0642    5.8331 H   0  0  0  0  0  0  0  0  0  0  0  0
   -2.4318    1.1383    5.7384 H   0  0  0  0  0  0  0  0  0  0  0  0
   -2.3116    1.5383    3.1570 N   0  0  0  0  0  0  0  0  0  0  0  0
   -2.0648    1.9643    1.8046 C   0  0  2  0  0  0  0  0  0  0  0  0
   -0.7298    1.3789    1.3634 C   0  0  0  0  0  0  0  0  0  0  0  0
    0.1423    1.0262    2.1547 O   0  0  0  0  0  0  0  0  0  0  0  0
   -2.0560    3.4811    1.6952 C   0  0  0  0  0  0  0  0  0  0  0  0
   -3.0767    1.9741    3.6688 H   0  0  0  0  0  0  0  0  0  0  0  0
   -2.8689    1.5458    1.1895 H   0  0  0  0  0  0  0  0  0  0  0  0
   -1.2569    3.9183    2.3049 H   0  0  0  0  0  0  0  0  0  0  0  0
   -1.8965    3.8033    0.6609 H   0  0  0  0  0  0  0  0  0  0  0  0
   -3.0062    3.9023    2.0409 H   0  0  0  0  0  0  0  0  0  0  0  0
   -0.6071    1.3358   -0.0200 N   0  0  0  0  0  0  0  0  0  0  0  0
    0.5702    0.8350   -0.6836 C   0  0  2  0  0  0  0  0  0  0  0  0
    1.3820    0.0692    0.3549 C   0  0  0  0  0  0  0  0  0  0  0  0
    0.8842   -0.7566    1.1173 O   0  0  0  0  0  0  0  0  0  0  0  0
    1.4130    1.9602   -1.2950 C   0  0  0  0  0  0  0  0  0  0  0  0
    0.6886    2.7021   -2.3916 C   0  0  0  0  0  0  0  0  0  0  0  0
    0.5027    2.1787   -3.6401 N   0  0  0  0  0  0  0  0  0  0  0  0
    0.0944    3.9412   -2.4373 C   0  0  0  0  0  0  0  0  0  0  0  0
   -0.1826    3.1056   -4.3752 C   0  0  0  0  0  0  0  0  0  0  0  0
   -0.4464    4.1862   -3.6747 N   0  0  0  0  0  0  0  0  0  0  0  0
   -1.3903    1.6325   -0.5973 H   0  0  0  0  0  0  0  0  0  0  0  0
    0.2216    0.1362   -1.4532 H   0  0  0  0  0  0  0  0  0  0  0  0
    2.3591    1.5590   -1.6830 H   0  0  0  0  0  0  0  0  0  0  0  0
    1.7028    2.6852   -0.5229 H   0  0  0  0  0  0  0  0  0  0  0  0
    0.8147    1.2727   -3.9644 H   0  0  0  0  0  0  0  0  0  0  0  0
    0.0270    4.6712   -1.6433 H   0  0  0  0  0  0  0  0  0  0  0  0
   -0.4562    2.9325   -5.4063 H   0  0  0  0  0  0  0  0  0  0  0  0
    2.7327    0.3825    0.2928 N   0  0  0  0  0  0  0  0  0  0  0  0
    3.7272   -0.2193    1.1517 C   0  0  2  0  0  0  0  0  0  0  0  0
    3.2347   -0.1118    2.5888 C   0  0  0  0  0  0  0  0  0  0  0  0
    2.4089    0.7223    2.9542 O   0  0  0  0  0  0  0  0  0  0  0  0
    5.0803    0.4555    0.9888 C   0  0  0  0  0  0  0  0  0  0  0  0
    3.0376    1.0693   -0.3906 H   0  0  0  0  0  0  0  0  0  0  0  0
    3.7947   -1.2747    0.8661 H   0  0  0  0  0  0  0  0  0  0  0  0
    5.0324    1.5138    1.2702 H   0  0  0  0  0  0  0  0  0  0  0  0
    5.8392   -0.0199    1.6189 H   0  0  0  0  0  0  0  0  0  0  0  0
    5.4192    0.4033   -0.0515 H   0  0  0  0  0  0  0  0  0  0  0  0
    3.8578   -1.0284    3.4240 N   0  0  0  0  0  0  0  0  0  0  0  0
    3.5708   -1.1168    4.8367 C   0  0  0  0  0  0  0  0  0  0  0  0
    4.5162   -1.6950    3.0315 H   0  0  0  0  0  0  0  0  0  0  0  0
    4.2780   -0.4860    5.3952 H   0  0  0  0  0  0  0  0  0  0  0  0
    2.5437   -0.7706    5.0244 H   0  0  0  0  0  0  0  0  0  0  0  0
    3.6717   -2.1613    5.1666 H   0  0  0  0  0  0  0  0  0  0  0  0
 22 24  2  0  0  0  0
 24 26  1  0  0  0  0
 25 26  2  0  0  0  0
 23 25  1  0  0  0  0
 21 22  1  0  0  0  0
 22 23  1  0  0  0  0
  1  3  1  0  0  0  0
  1  7  1  0  0  0  0
  1  2  2  0  0  0  0
 35 36  1  0  0  0  0
 36 44  1  0  0  0  0
 36 37  2  0  0  0  0
  8  9  1  0  0  0  0
  9 17  1  0  0  0  0
  9 10  2  0  0  0  0
 18 19  1  0  0  0  0
 19 34  1  0  0  0  0
 19 20  2  0  0  0  0
 35 38  1  0  0  0  0
  8 11  1  0  0  0  0
 44 45  1  0  0  0  0
 18 21  1  0  0  0  0
 34 35  1  0  0  0  0
  7  8  1  0  0  0  0
 17 18  1  0  0  0  0
 24 32  1  0  0  0  0
 25 33  1  0  0  0  0
  3  4  1  0  0  0  0
  3  5  1  0  0  0  0
  3  6  1  0  0  0  0
 38 41  1  0  0  0  0
 38 42  1  0  0  0  0
 38 43  1  0  0  0  0
 11 14  1  0  0  0  0
 11 15  1  0  0  0  0
 11 16  1  0  0  0  0
 45 47  1  0  0  0  0
 45 48  1  0  0  0  0
 45 49  1  0  0  0  0
 21 29  1  0  0  0  0
 21 30  1  0  0  0  0
 35 40  1  0  0  0  0
  8 13  1  0  0  0  0
 18 28  1  0  0  0  0
 23 31  1  0  0  0  0
 44 46  1  0  0  0  0
  7 12  1  0  0  0  0
 34 39  1  0  0  0  0
 17 27  1  0  0  0  0
M  END
$$$$

  -OEChem-05262214473D

 49 49  0     1  0  0  0  0  0999 V2000
   -1.5619    0.5658    3.7981 C   0  0  0  0  0  0  0  0  0  0  0  0
   -0.6145   -0.0489    3.3224 O   0  0  0  0  0  0  0  0  0  0  0  0
   -1.9938    0.2834    5.1988 C   0  0  0  0  0  0  0  0  0  0  0  0
   -2.7535   -0.5129    5.2522 H   0  0  0  0  0  0  0  0  0  0  0  0
   -1.1626   -0.0642    5.8331 H   0  0  0  0  0  0  0  0  0  0  0  0
   -2.4318    1.1383    5.7384 H   0  0  0  0  0  0  0  0  0  0  0  0
   -2.3116    1.5383    3.1570 N   0  0  0  0  0  0  0  0  0  0  0  0
   -2.0648    1.9643    1.8046 C   0  0  2  0  0  0  0  0  0  0  0  0
   -0.7298    1.3789    1.3634 C   0  0  0  0  0  0  0  0  0  0  0  0
    0.1423    1.0262    2.1547 O   0  0  0  0  0  0  0  0  0  0  0  0
   -2.0560    3.4811    1.6952 C   0  0  0  0  0  0  0  0  0  0  0  0
   -3.0767    1.9741    3.6688 H   0  0  0  0  0  0  0  0  0  0  0  0
   -2.8689    1.5458    1.1895 H   0  0  0  0  0  0  0  0  0  0  0  0
   -1.2569    3.9183    2.3049 H   0  0  0  0  0  0  0  0  0  0  0  0
   -1.8965    3.8033    0.6609 H   0  0  0  0  0  0  0  0  0  0  0  0
   -3.0062    3.9023    2.0409 H   0  0  0  0  0  0  0  0  0  0  0  0
   -0.6071    1.3358   -0.0200 N   0  0  0  0  0  0  0  0  0  0  0  0
    0.5702    0.8350   -0.6836 C   0  0  2  0  0  0  0  0  0  0  0  0
    1.3820    0.0692    0.3549 C   0  0  0  0  0  0  0  0  0  0  0  0
    0.9598   -0.9328    0.9283 O   0  0  0  0  0  0  0  0  0  0  0  0
    1.4130    1.9602   -1.2950 C   0  0  0  0  0  0  0  0  0  0  0  0
    0.6886    2.7021   -2.3916 C   0  0  0  0  0  0  0  0  0  0  0  0
    0.5027    2.1787   -3.6401 N   0  0  0  0  0  0  0  0  0  0  0  0
    0.0944    3.9412   -2.4373 C   0  0  0  0  0  0  0  0  0  0  0  0
   -0.1826    3.1056   -4.3752 C   0  0  0  0  0  0  0  0  0  0  0  0
   -0.4464    4.1862   -3.6747 N   0  0  0  0  0  0  0  0  0  0  0  0
   -1.3903    1.6325   -0.5973 H   0  0  0  0  0  0  0  0  0  0  0  0
    0.2216    0.1362   -1.4532 H   0  0  0  0  0  0  0  0  0  0  0  0
    2.3591    1.5590   -1.6830 H   0  0  0  0  0  0  0  0  0  0  0  0
    1.7028    2.6852   -0.5229 H   0  0  0  0  0  0  0  0  0  0  0  0
    0.8147    1.2727   -3.9644 H   0  0  0  0  0  0  0  0  0  0  0  0
    0.0270    4.6712   -1.6433 H   0  0  0  0  0  0  0  0  0  0  0  0
   -0.4562    2.9325   -5.4063 H   0  0  0  0  0  0  0  0  0  0  0  0
    2.6489    0.6097    0.5258 N   0  0  0  0  0  0  0  0  0  0  0  0
    3.6297    0.0611    1.4346 C   0  0  2  0  0  0  0  0  0  0  0  0
    2.9602   -0.1313    2.7889 C   0  0  0  0  0  0  0  0  0  0  0  0
    1.9569    0.4888    3.1354 O   0  0  0  0  0  0  0  0  0  0  0  0
    4.8438    0.9693    1.5525 C   0  0  0  0  0  0  0  0  0  0  0  0
    2.8994    1.4321   -0.0151 H   0  0  0  0  0  0  0  0  0  0  0  0
    3.9249   -0.9135    1.0307 H   0  0  0  0  0  0  0  0  0  0  0  0
    4.5677    1.9506    1.9555 H   0  0  0  0  0  0  0  0  0  0  0  0
    5.5982    0.5386    2.2192 H   0  0  0  0  0  0  0  0  0  0  0  0
    5.3065    1.1306    0.5729 H   0  0  0  0  0  0  0  0  0  0  0  0
    3.6399   -1.0453    3.5820 N   0  0  0  0  0  0  0  0  0  0  0  0
    3.2100   -1.3905    4.9169 C   0  0  0  0  0  0  0  0  0  0  0  0
    4.4519   -1.5261    3.2063 H   0  0  0  0  0  0  0  0  0  0  0  0
    3.7173   -0.7411    5.6455 H   0  0  0  0  0  0  0  0  0  0  0  0
    2.1217   -1.2530    4.9986 H   0  0  0  0  0  0  0  0  0  0  0  0
    3.4633   -2.4409    5.1234 H   0  0  0  0  0  0  0  0  0  0  0  0
 22 24  2  0  0  0  0
 24 26  1  0  0  0  0
 25 26  2  0  0  0  0
 23 25  1  0  0  0  0
 21 22  1  0  0  0  0
 22 23  1  0  0  0  0
  1  3  1  0  0  0  0
  1  7  1  0  0  0  0
  1  2  2  0  0  0  0
 35 36  1  0  0  0  0
 36 44  1  0  0  0  0
 36 37  2  0  0  0  0
  8  9  1  0  0  0  0
  9 17  1  0  0  0  0
  9 10  2  0  0  0  0
 18 19  1  0  0  0  0
 19 34  1  0  0  0  0
 19 20  2  0  0  0  0
 35 38  1  0  0  0  0
  8 11  1  0  0  0  0
 44 45  1  0  0  0  0
 18 21  1  0  0  0  0
 34 35  1  0  0  0  0
  7  8  1  0  0  0  0
 17 18  1  0  0  0  0
 24 32  1  0  0  0  0
 25 33  1  0  0  0  0
  3  4  1  0  0  0  0
  3  5  1  0  0  0  0
  3  6  1  0  0  0  0
 38 41  1  0  0  0  0
 38 42  1  0  0  0  0
 38 43  1  0  0  0  0
 11 14  1  0  0  0  0
 11 15  1  0  0  0  0
 11 16  1  0  0  0  0
 45 47  1  0  0  0  0
 45 48  1  0  0  0  0
 45 49  1  0  0  0  0
 21 29  1  0  0  0  0
 21 30  1  0  0  0  0
 35 40  1  0  0  0  0
  8 13  1  0  0  0  0
 18 28  1  0  0  0  0
 23 31  1  0  0  0  0
 44 46  1  0  0  0  0
  7 12  1  0  0  0  0
 34 39  1  0  0  0  0
 17 27  1  0  0  0  0
M  END
$$$$

  -OEChem-05262214473D

 49 49  0     1  0  0  0  0  0999 V2000
   -1.5619    0.5658    3.7981 C   0  0  0  0  0  0  0  0  0  0  0  0
   -0.6145   -0.0489    3.3224 O   0  0  0  0  0  0  0  0  0  0  0  0
   -1.9938    0.2834    5.1988 C   0  0  0  0  0  0  0  0  0  0  0  0
   -2.7535   -0.5129    5.2522 H   0  0  0  0  0  0  0  0  0  0  0  0
   -1.1626   -0.0642    5.8331 H   0  0  0  0  0  0  0  0  0  0  0  0
   -2.4318    1.1383    5.7384 H   0  0  0  0  0  0  0  0  0  0  0  0
   -2.3116    1.5383    3.1570 N   0  0  0  0  0  0  0  0  0  0  0  0
   -2.0648    1.9643    1.8046 C   0  0  2  0  0  0  0  0  0  0  0  0
   -0.7298    1.3789    1.3634 C   0  0  0  0  0  0  0  0  0  0  0  0
    0.1423    1.0262    2.1547 O   0  0  0  0  0  0  0  0  0  0  0  0
   -2.0560    3.4811    1.6952 C   0  0  0  0  0  0  0  0  0  0  0  0
   -3.0767    1.9741    3.6688 H   0  0  0  0  0  0  0  0  0  0  0  0
   -2.8689    1.5458    1.1895 H   0  0  0  0  0  0  0  0  0  0  0  0
   -1.2569    3.9183    2.3049 H   0  0  0  0  0  0  0  0  0  0  0  0
   -1.8965    3.8033    0.6609 H   0  0  0  0  0  0  0  0  0  0  0  0
   -3.0062    3.9023    2.0409 H   0  0  0  0  0  0  0  0  0  0  0  0
   -0.6071    1.3358   -0.0200 N   0  0  0  0  0  0  0  0  0  0  0  0
    0.5702    0.8350   -0.6836 C   0  0  2  0  0  0  0  0  0  0  0  0
    1.3820    0.0692    0.3549 C   0  0  0  0  0  0  0  0  0  0  0  0
    1.0885   -1.0635    0.7313 O   0  0  0  0  0  0  0  0  0  0  0  0
    1.4130    1.9602   -1.2950 C   0  0  0  0  0  0  0  0  0  0  0  0
    0.6886    2.7021   -2.3916 C   0  0  0  0  0  0  0  0  0  0  0  0
    0.5027    2.1787   -3.6401 N   0  0  0  0  0  0  0  0  0  0  0  0
    0.0944    3.9412   -2.4373 C   0  0  0  0  0  0  0  0  0  0  0  0
   -0.1826    3.1056   -4.3752 C   0  0  0  0  0  0  0  0  0  0  0  0
   -0.4464    4.1862   -3.6747 N   0  0  0  0  0  0  0  0  0  0  0  0
   -1.3903    1.6325   -0.5973 H   0  0  0  0  0  0  0  0  0  0  0  0
    0.2216    0.1362   -1.4532 H   0  0  0  0  0  0  0  0  0  0  0  0
    2.3591    1.5590   -1.6830 H   0  0  0  0  0  0  0  0  0  0  0  0
    1.7028    2.6852   -0.5229 H   0  0  0  0  0  0  0  0  0  0  0  0
    0.8147    1.2727   -3.9644 H   0  0  0  0  0  0  0  0  0  0  0  0
    0.0270    4.6712   -1.6433 H   0  0  0  0  0  0  0  0  0  0  0  0
   -0.4562    2.9325   -5.4063 H   0  0  0  0  0  0  0  0  0  0  0  0
    2.4977    0.7822    0.7713 N   0  0  0  0  0  0  0  0  0  0  0  0
    3.4493    0.2757    1.7339 C   0  0  2  0  0  0  0  0  0  0  0  0
    2.6725   -0.2261    2.9439 C   0  0  0  0  0  0  0  0  0  0  0  0
    1.5380    0.1586    3.2194 O   0  0  0  0  0  0  0  0  0  0  0  0
    4.4515    1.3462    2.1371 C   0  0  0  0  0  0  0  0  0  0  0  0
    2.6532    1.7064    0.3797 H   0  0  0  0  0  0  0  0  0  0  0  0
    3.9655   -0.5643    1.2565 H   0  0  0  0  0  0  0  0  0  0  0  0
    3.9527    2.1960    2.6172 H   0  0  0  0  0  0  0  0  0  0  0  0
    5.1889    0.9530    2.8446 H   0  0  0  0  0  0  0  0  0  0  0  0
    4.9882    1.7271    1.2616 H   0  0  0  0  0  0  0  0  0  0  0  0
    3.4117   -1.1217    3.7039 N   0  0  0  0  0  0  0  0  0  0  0  0
    2.8993   -1.7296    4.9097 C   0  0  0  0  0  0  0  0  0  0  0  0
    4.3373   -1.3984    3.3901 H   0  0  0  0  0  0  0  0  0  0  0  0
    3.1881   -1.1208    5.7791 H   0  0  0  0  0  0  0  0  0  0  0  0
    1.8025   -1.7898    4.8523 H   0  0  0  0  0  0  0  0  0  0  0  0
    3.3170   -2.7417    5.0160 H   0  0  0  0  0  0  0  0  0  0  0  0
 22 24  2  0  0  0  0
 24 26  1  0  0  0  0
 25 26  2  0  0  0  0
 23 25  1  0  0  0  0
 21 22  1  0  0  0  0
 22 23  1  0  0  0  0
  1  3  1  0  0  0  0
  1  7  1  0  0  0  0
  1  2  2  0  0  0  0
 35 36  1  0  0  0  0
 36 44  1  0  0  0  0
 36 37  2  0  0  0  0
  8  9  1  0  0  0  0
  9 17  1  0  0  0  0
  9 10  2  0  0  0  0
 18 19  1  0  0  0  0
 19 34  1  0  0  0  0
 19 20  2  0  0  0  0
 35 38  1  0  0  0  0
  8 11  1  0  0  0  0
 44 45  1  0  0  0  0
 18 21  1  0  0  0  0
 34 35  1  0  0  0  0
  7  8  1  0  0  0  0
 17 18  1  0  0  0  0
 24 32  1  0  0  0  0
 25 33  1  0  0  0  0
  3  4  1  0  0  0  0
  3  5  1  0  0  0  0
  3  6  1  0  0  0  0
 38 41  1  0  0  0  0
 38 42  1  0  0  0  0
 38 43  1  0  0  0  0
 11 14  1  0  0  0  0
 11 15  1  0  0  0  0
 11 16  1  0  0  0  0
 45 47  1  0  0  0  0
 45 48  1  0  0  0  0
 45 49  1  0  0  0  0
 21 29  1  0  0  0  0
 21 30  1  0  0  0  0
 35 40  1  0  0  0  0
  8 13  1  0  0  0  0
 18 28  1  0  0  0  0
 23 31  1  0  0  0  0
 44 46  1  0  0  0  0
  7 12  1  0  0  0  0
 34 39  1  0  0  0  0
 17 27  1  0  0  0  0
M  END
$$$$

  -OEChem-05262214473D

 49 49  0     1  0  0  0  0  0999 V2000
   -1.5619    0.5658    3.7981 C   0  0  0  0  0  0  0  0  0  0  0  0
   -0.6145   -0.0489    3.3224 O   0  0  0  0  0  0  0  0  0  0  0  0
   -1.9938    0.2834    5.1988 C   0  0  0  0  0  0  0  0  0  0  0  0
   -2.7535   -0.5129    5.2522 H   0  0  0  0  0  0  0  0  0  0  0  0
   -1.1626   -0.0642    5.8331 H   0  0  0  0  0  0  0  0  0  0  0  0
   -2.4318    1.1383    5.7384 H   0  0  0  0  0  0  0  0  0  0  0  0
   -2.3116    1.5383    3.1570 N   0  0  0  0  0  0  0  0  0  0  0  0
   -2.0648    1.9643    1.8046 C   0  0  2  0  0  0  0  0  0  0  0  0
   -0.7298    1.3789    1.3634 C   0  0  0  0  0  0  0  0  0  0  0  0
    0.1423    1.0262    2.1547 O   0  0  0  0  0  0  0  0  0  0  0  0
   -2.0560    3.4811    1.6952 C   0  0  0  0  0  0  0  0  0  0  0  0
   -3.0767    1.9741    3.6688 H   0  0  0  0  0  0  0  0  0  0  0  0
   -2.8689    1.5458    1.1895 H   0  0  0  0  0  0  0  0  0  0  0  0
   -1.2569    3.9183    2.3049 H   0  0  0  0  0  0  0  0  0  0  0  0
   -1.8965    3.8033    0.6609 H   0  0  0  0  0  0  0  0  0  0  0  0
   -3.0062    3.9023    2.0409 H   0  0  0  0  0  0  0  0  0  0  0  0
   -0.6071    1.3358   -0.0200 N   0  0  0  0  0  0  0  0  0  0  0  0
    0.5702    0.8350   -0.6836 C   0  0  2  0  0  0  0  0  0  0  0  0
    1.3820    0.0692    0.3549 C   0  0  0  0  0  0  0  0  0  0  0  0
    1.2614   -1.1400    0.5397 O   0  0  0  0  0  0  0  0  0  0  0  0
    1.4130    1.9602   -1.2950 C   0  0  0  0  0  0  0  0  0  0  0  0
    0.6886    2.7021   -2.3916 C   0  0  0  0  0  0  0  0  0  0  0  0
    0.5027    2.1787   -3.6401 N   0  0  0  0  0  0  0  0  0  0  0  0
    0.0944    3.9412   -2.4373 C   0  0  0  0  0  0  0  0  0  0  0  0
   -0.1826    3.1056   -4.3752 C   0  0  0  0  0  0  0  0  0  0  0  0
   -0.4464    4.1862   -3.6747 N   0  0  0  0  0  0  0  0  0  0  0  0
   -1.3903    1.6325   -0.5973 H   0  0  0  0  0  0  0  0  0  0  0  0
    0.2216    0.1362   -1.4532 H   0  0  0  0  0  0  0  0  0  0  0  0
    2.3591    1.5590   -1.6830 H   0  0  0  0  0  0  0  0  0  0  0  0
    1.7028    2.6852   -0.5229 H   0  0  0  0  0  0  0  0  0  0  0  0
    0.8147    1.2727   -3.9644 H   0  0  0  0  0  0  0  0  0  0  0  0
    0.0270    4.6712   -1.6433 H   0  0  0  0  0  0  0  0  0  0  0  0
   -0.4562    2.9325   -5.4063 H   0  0  0  0  0  0  0  0  0  0  0  0
    2.2893    0.8883    1.0125 N   0  0  0  0  0  0  0  0  0  0  0  0
    3.1983    0.4100    2.0291 C   0  0  2  0  0  0  0  0  0  0  0  0
    2.3912   -0.3898    3.0431 C   0  0  0  0  0  0  0  0  0  0  0  0
    1.1806   -0.2458    3.2006 O   0  0  0  0  0  0  0  0  0  0  0  0
    3.9300    1.5605    2.7027 C   0  0  0  0  0  0  0  0  0  0  0  0
    2.3156    1.8736    0.7668 H   0  0  0  0  0  0  0  0  0  0  0  0
    3.9139   -0.2509    1.5279 H   0  0  0  0  0  0  0  0  0  0  0  0
    3.2294    2.2335    3.2102 H   0  0  0  0  0  0  0  0  0  0  0  0
    4.6392    1.1948    3.4527 H   0  0  0  0  0  0  0  0  0  0  0  0
    4.4861    2.1524    1.9676 H   0  0  0  0  0  0  0  0  0  0  0  0
    3.1890   -1.2526    3.7815 N   0  0  0  0  0  0  0  0  0  0  0  0
    2.6600   -2.1110    4.8156 C   0  0  0  0  0  0  0  0  0  0  0  0
    4.1802   -1.3205    3.5703 H   0  0  0  0  0  0  0  0  0  0  0  0
    2.7265   -1.5993    5.7871 H   0  0  0  0  0  0  0  0  0  0  0  0
    1.6078   -2.3444    4.5955 H   0  0  0  0  0  0  0  0  0  0  0  0
    3.2426   -3.0433    4.8517 H   0  0  0  0  0  0  0  0  0  0  0  0
 22 24  2  0  0  0  0
 24 26  1  0  0  0  0
 25 26  2  0  0  0  0
 23 25  1  0  0  0  0
 21 22  1  0  0  0  0
 22 23  1  0  0  0  0
  1  3  1  0  0  0  0
  1  7  1  0  0  0  0
  1  2  2  0  0  0  0
 35 36  1  0  0  0  0
 36 44  1  0  0  0  0
 36 37  2  0  0  0  0
  8  9  1  0  0  0  0
  9 17  1  0  0  0  0
  9 10  2  0  0  0  0
 18 19  1  0  0  0  0
 19 34  1  0  0  0  0
 19 20  2  0  0  0  0
 35 38  1  0  0  0  0
  8 11  1  0  0  0  0
 44 45  1  0  0  0  0
 18 21  1  0  0  0  0
 34 35  1  0  0  0  0
  7  8  1  0  0  0  0
 17 18  1  0  0  0  0
 24 32  1  0  0  0  0
 25 33  1  0  0  0  0
  3  4  1  0  0  0  0
  3  5  1  0  0  0  0
  3  6  1  0  0  0  0
 38 41  1  0  0  0  0
 38 42  1  0  0  0  0
 38 43  1  0  0  0  0
 11 14  1  0  0  0  0
 11 15  1  0  0  0  0
 11 16  1  0  0  0  0
 45 47  1  0  0  0  0
 45 48  1  0  0  0  0
 45 49  1  0  0  0  0
 21 29  1  0  0  0  0
 21 30  1  0  0  0  0
 35 40  1  0  0  0  0
  8 13  1  0  0  0  0
 18 28  1  0  0  0  0
 23 31  1  0  0  0  0
 44 46  1  0  0  0  0
  7 12  1  0  0  0  0
 34 39  1  0  0  0  0
 17 27  1  0  0  0  0
M  END
$$$$

  -OEChem-05262214473D

 49 49  0     1  0  0  0  0  0999 V2000
   -1.5619    0.5658    3.7981 C   0  0  0  0  0  0  0  0  0  0  0  0
   -0.6145   -0.0489    3.3224 O   0  0  0  0  0  0  0  0  0  0  0  0
   -1.9938    0.2834    5.1988 C   0  0  0  0  0  0  0  0  0  0  0  0
   -2.7535   -0.5129    5.2522 H   0  0  0  0  0  0  0  0  0  0  0  0
   -1.1626   -0.0642    5.8331 H   0  0  0  0  0  0  0  0  0  0  0  0
   -2.4318    1.1383    5.7384 H   0  0  0  0  0  0  0  0  0  0  0  0
   -2.3116    1.5383    3.1570 N   0  0  0  0  0  0  0  0  0  0  0  0
   -2.0648    1.9643    1.8046 C   0  0  2  0  0  0  0  0  0  0  0  0
   -0.7298    1.3789    1.3634 C   0  0  0  0  0  0  0  0  0  0  0  0
    0.1423    1.0262    2.1547 O   0  0  0  0  0  0  0  0  0  0  0  0
   -2.0560    3.4811    1.6952 C   0  0  0  0  0  0  0  0  0  0  0  0
   -3.0767    1.9741    3.6688 H   0  0  0  0  0  0  0  0  0  0  0  0
   -2.8689    1.5458    1.1895 H   0  0  0  0  0  0  0  0  0  0  0  0
   -1.2569    3.9183    2.3049 H   0  0  0  0  0  0  0  0  0  0  0  0
   -1.8965    3.8033    0.6609 H   0  0  0  0  0  0  0  0  0  0  0  0
   -3.0062    3.9023    2.0409 H   0  0  0  0  0  0  0  0  0  0  0  0
   -0.6071    1.3358   -0.0200 N   0  0  0  0  0  0  0  0  0  0  0  0
    0.5702    0.8350   -0.6836 C   0  0  2  0  0  0  0  0  0  0  0  0
    1.3820    0.0692    0.3549 C   0  0  0  0  0  0  0  0  0  0  0  0
    1.4668   -1.1570    0.3666 O   0  0  0  0  0  0  0  0  0  0  0  0
    1.4130    1.9602   -1.2950 C   0  0  0  0  0  0  0  0  0  0  0  0
    0.6886    2.7021   -2.3916 C   0  0  0  0  0  0  0  0  0  0  0  0
    0.5027    2.1787   -3.6401 N   0  0  0  0  0  0  0  0  0  0  0  0
    0.0944    3.9412   -2.4373 C   0  0  0  0  0  0  0  0  0  0  0  0
   -0.1826    3.1056   -4.3752 C   0  0  0  0  0  0  0  0  0  0  0  0
   -0.4464    4.1862   -3.6747 N   0  0  0  0  0  0  0  0  0  0  0  0
   -1.3903    1.6325   -0.5973 H   0  0  0  0  0  0  0  0  0  0  0  0
    0.2216    0.1362   -1.4532 H   0  0  0  0  0  0  0  0  0  0  0  0
    2.3591    1.5590   -1.6830 H   0  0  0  0  0  0  0  0  0  0  0  0
    1.7028    2.6852   -0.5229 H   0  0  0  0  0  0  0  0  0  0  0  0
    0.8147    1.2727   -3.9644 H   0  0  0  0  0  0  0  0  0  0  0  0
    0.0270    4.6712   -1.6433 H   0  0  0  0  0  0  0  0  0  0  0  0
   -0.4562    2.9325   -5.4063 H   0  0  0  0  0  0  0  0  0  0  0  0
    2.0378    0.9209    1.2330 N   0  0  0  0  0  0  0  0  0  0  0  0
    2.8938    0.4548    2.3001 C   0  0  2  0  0  0  0  0  0  0  0  0
    2.1354   -0.6112    3.0798 C   0  0  0  0  0  0  0  0  0  0  0  0
    0.9091   -0.6968    3.0802 O   0  0  0  0  0  0  0  0  0  0  0  0
    3.3151    1.5976    3.2107 C   0  0  0  0  0  0  0  0  0  0  0  0
    1.9098    1.9222    1.1198 H   0  0  0  0  0  0  0  0  0  0  0  0
    3.7734    0.0052    1.8266 H   0  0  0  0  0  0  0  0  0  0  0  0
    2.4470    2.0605    3.6942 H   0  0  0  0  0  0  0  0  0  0  0  0
    3.9864    1.2477    4.0019 H   0  0  0  0  0  0  0  0  0  0  0  0
    3.8343    2.3772    2.6430 H   0  0  0  0  0  0  0  0  0  0  0  0
    2.9869   -1.4290    3.8094 N   0  0  0  0  0  0  0  0  0  0  0  0
    2.5082   -2.5085    4.6410 C   0  0  0  0  0  0  0  0  0  0  0  0
    3.9913   -1.2979    3.7346 H   0  0  0  0  0  0  0  0  0  0  0  0
    2.3639   -2.1440    5.6688 H   0  0  0  0  0  0  0  0  0  0  0  0
    1.5509   -2.8790    4.2457 H   0  0  0  0  0  0  0  0  0  0  0  0
    3.2453   -3.3251    4.6418 H   0  0  0  0  0  0  0  0  0  0  0  0
 22 24  2  0  0  0  0
 24 26  1  0  0  0  0
 25 26  2  0  0  0  0
 23 25  1  0  0  0  0
 21 22  1  0  0  0  0
 22 23  1  0  0  0  0
  1  3  1  0  0  0  0
  1  7  1  0  0  0  0
  1  2  2  0  0  0  0
 35 36  1  0  0  0  0
 36 44  1  0  0  0  0
 36 37  2  0  0  0  0
  8  9  1  0  0  0  0
  9 17  1  0  0  0  0
  9 10  2  0  0  0  0
 18 19  1  0  0  0  0
 19 34  1  0  0  0  0
 19 20  2  0  0  0  0
 35 38  1  0  0  0  0
  8 11  1  0  0  0  0
 44 45  1  0  0  0  0
 18 21  1  0  0  0  0
 34 35  1  0  0  0  0
  7  8  1  0  0  0  0
 17 18  1  0  0  0  0
 24 32  1  0  0  0  0
 25 33  1  0  0  0  0
  3  4  1  0  0  0  0
  3  5  1  0  0  0  0
  3  6  1  0  0  0  0
 38 41  1  0  0  0  0
 38 42  1  0  0  0  0
 38 43  1  0  0  0  0
 11 14  1  0  0  0  0
 11 15  1  0  0  0  0
 11 16  1  0  0  0  0
 45 47  1  0  0  0  0
 45 48  1  0  0  0  0
 45 49  1  0  0  0  0
 21 29  1  0  0  0  0
 21 30  1  0  0  0  0
 35 40  1  0  0  0  0
  8 13  1  0  0  0  0
 18 28  1  0  0  0  0
 23 31  1  0  0  0  0
 44 46  1  0  0  0  0
  7 12  1  0  0  0  0
 34 39  1  0  0  0  0
 17 27  1  0  0  0  0
M  END
$$$$

  -OEChem-05262214473D

 49 49  0     1  0  0  0  0  0999 V2000
   -1.5619    0.5658    3.7981 C   0  0  0  0  0  0  0  0  0  0  0  0
   -0.6145   -0.0489    3.3224 O   0  0  0  0  0  0  0  0  0  0  0  0
   -1.9938    0.2834    5.1988 C   0  0  0  0  0  0  0  0  0  0  0  0
   -2.7535   -0.5129    5.2522 H   0  0  0  0  0  0  0  0  0  0  0  0
   -1.1626   -0.0642    5.8331 H   0  0  0  0  0  0  0  0  0  0  0  0
   -2.4318    1.1383    5.7384 H   0  0  0  0  0  0  0  0  0  0  0  0
   -2.3116    1.5383    3.1570 N   0  0  0  0  0  0  0  0  0  0  0  0
   -2.0648    1.9643    1.8046 C   0  0  2  0  0  0  0  0  0  0  0  0
   -0.7298    1.3789    1.3634 C   0  0  0  0  0  0  0  0  0  0  0  0
    0.1423    1.0262    2.1547 O   0  0  0  0  0  0  0  0  0  0  0  0
   -2.0560    3.4811    1.6952 C   0  0  0  0  0  0  0  0  0  0  0  0
   -3.0767    1.9741    3.6688 H   0  0  0  0  0  0  0  0  0  0  0  0
   -2.8689    1.5458    1.1895 H   0  0  0  0  0  0  0  0  0  0  0  0
   -1.2569    3.9183    2.3049 H   0  0  0  0  0  0  0  0  0  0  0  0
   -1.8965    3.8033    0.6609 H   0  0  0  0  0  0  0  0  0  0  0  0
   -3.0062    3.9023    2.0409 H   0  0  0  0  0  0  0  0  0  0  0  0
   -0.6071    1.3358   -0.0200 N   0  0  0  0  0  0  0  0  0  0  0  0
    0.5702    0.8350   -0.6836 C   0  0  2  0  0  0  0  0  0  0  0  0
    1.3820    0.0692    0.3549 C   0  0  0  0  0  0  0  0  0  0  0  0
    1.6908   -1.1133    0.2238 O   0  0  0  0  0  0  0  0  0  0  0  0
    1.4130    1.9602   -1.2950 C   0  0  0  0  0  0  0  0  0  0  0  0
    0.6886    2.7021   -2.3916 C   0  0  0  0  0  0  0  0  0  0  0  0
    0.5027    2.1787   -3.6401 N   0  0  0  0  0  0  0  0  0  0  0  0
    0.0944    3.9412   -2.4373 C   0  0  0  0  0  0  0  0  0  0  0  0
   -0.1826    3.1056   -4.3752 C   0  0  0  0  0  0  0  0  0  0  0  0
   -0.4464    4.1862   -3.6747 N   0  0  0  0  0  0  0  0  0  0  0  0
   -1.3903    1.6325   -0.5973 H   0  0  0  0  0  0  0  0  0  0  0  0
    0.2216    0.1362   -1.4532 H   0  0  0  0  0  0  0  0  0  0  0  0
    2.3591    1.5590   -1.6830 H   0  0  0  0  0  0  0  0  0  0  0  0
    1.7028    2.6852   -0.5229 H   0  0  0  0  0  0  0  0  0  0  0  0
    0.8147    1.2727   -3.9644 H   0  0  0  0  0  0  0  0  0  0  0  0
    0.0270    4.6712   -1.6433 H   0  0  0  0  0  0  0  0  0  0  0  0
   -0.4562    2.9325   -5.4063 H   0  0  0  0  0  0  0  0  0  0  0  0
    1.7606    0.8776    1.4178 N   0  0  0  0  0  0  0  0  0  0  0  0
    2.5565    0.4070    2.5285 C   0  0  2  0  0  0  0  0  0  0  0  0
    1.9226   -0.8753    3.0515 C   0  0  0  0  0  0  0  0  0  0  0  0
    0.7420   -1.1637    2.8665 O   0  0  0  0  0  0  0  0  0  0  0  0
    2.6485    1.4550    3.6266 C   0  0  0  0  0  0  0  0  0  0  0  0
    1.4633    1.8489    1.4148 H   0  0  0  0  0  0  0  0  0  0  0  0
    3.5537    0.1867    2.1321 H   0  0  0  0  0  0  0  0  0  0  0  0
    1.6589    1.6887    4.0361 H   0  0  0  0  0  0  0  0  0  0  0  0
    3.2752    1.1080    4.4548 H   0  0  0  0  0  0  0  0  0  0  0  0
    3.0772    2.3865    3.2415 H   0  0  0  0  0  0  0  0  0  0  0  0
    2.8191   -1.6389    3.7858 N   0  0  0  0  0  0  0  0  0  0  0  0
    2.4545   -2.8952    4.3979 C   0  0  0  0  0  0  0  0  0  0  0  0
    3.7835   -1.3320    3.8719 H   0  0  0  0  0  0  0  0  0  0  0  0
    2.1252   -2.7178    5.4324 H   0  0  0  0  0  0  0  0  0  0  0  0
    1.6357   -3.3573    3.8268 H   0  0  0  0  0  0  0  0  0  0  0  0
    3.3248   -3.5679    4.4006 H   0  0  0  0  0  0  0  0  0  0  0  0
 22 24  2  0  0  0  0
 24 26  1  0  0  0  0
 25 26  2  0  0  0  0
 23 25  1  0  0  0  0
 21 22  1  0  0  0  0
 22 23  1  0  0  0  0
  1  3  1  0  0  0  0
  1  7  1  0  0  0  0
  1  2  2  0  0  0  0
 35 36  1  0  0  0  0
 36 44  1  0  0  0  0
 36 37  2  0  0  0  0
  8  9  1  0  0  0  0
  9 17  1  0  0  0  0
  9 10  2  0  0  0  0
 18 19  1  0  0  0  0
 19 34  1  0  0  0  0
 19 20  2  0  0  0  0
 35 38  1  0  0  0  0
  8 11  1  0  0  0  0
 44 45  1  0  0  0  0
 18 21  1  0  0  0  0
 34 35  1  0  0  0  0
  7  8  1  0  0  0  0
 17 18  1  0  0  0  0
 24 32  1  0  0  0  0
 25 33  1  0  0  0  0
  3  4  1  0  0  0  0
  3  5  1  0  0  0  0
  3  6  1  0  0  0  0
 38 41  1  0  0  0  0
 38 42  1  0  0  0  0
 38 43  1  0  0  0  0
 11 14  1  0  0  0  0
 11 15  1  0  0  0  0
 11 16  1  0  0  0  0
 45 47  1  0  0  0  0
 45 48  1  0  0  0  0
 45 49  1  0  0  0  0
 21 29  1  0  0  0  0
 21 30  1  0  0  0  0
 35 40  1  0  0  0  0
  8 13  1  0  0  0  0
 18 28  1  0  0  0  0
 23 31  1  0  0  0  0
 44 46  1  0  0  0  0
  7 12  1  0  0  0  0
 34 39  1  0  0  0  0
 17 27  1  0  0  0  0
M  END
$$$$

  -OEChem-05262214473D

 49 49  0     1  0  0  0  0  0999 V2000
   -1.5619    0.5658    3.7981 C   0  0  0  0  0  0  0  0  0  0  0  0
   -0.6145   -0.0489    3.3224 O   0  0  0  0  0  0  0  0  0  0  0  0
   -1.9938    0.2834    5.1988 C   0  0  0  0  0  0  0  0  0  0  0  0
   -2.7535   -0.5129    5.2522 H   0  0  0  0  0  0  0  0  0  0  0  0
   -1.1626   -0.0642    5.8331 H   0  0  0  0  0  0  0  0  0  0  0  0
   -2.4318    1.1383    5.7384 H   0  0  0  0  0  0  0  0  0  0  0  0
   -2.3116    1.5383    3.1570 N   0  0  0  0  0  0  0  0  0  0  0  0
   -2.0648    1.9643    1.8046 C   0  0  2  0  0  0  0  0  0  0  0  0
   -0.7298    1.3789    1.3634 C   0  0  0  0  0  0  0  0  0  0  0  0
    0.1423    1.0262    2.1547 O   0  0  0  0  0  0  0  0  0  0  0  0
   -2.0560    3.4811    1.6952 C   0  0  0  0  0  0  0  0  0  0  0  0
   -3.0767    1.9741    3.6688 H   0  0  0  0  0  0  0  0  0  0  0  0
   -2.8689    1.5458    1.1895 H   0  0  0  0  0  0  0  0  0  0  0  0
   -1.2569    3.9183    2.3049 H   0  0  0  0  0  0  0  0  0  0  0  0
   -1.8965    3.8033    0.6609 H   0  0  0  0  0  0  0  0  0  0  0  0
   -3.0062    3.9023    2.0409 H   0  0  0  0  0  0  0  0  0  0  0  0
   -0.6071    1.3358   -0.0200 N   0  0  0  0  0  0  0  0  0  0  0  0
    0.5702    0.8350   -0.6836 C   0  0  2  0  0  0  0  0  0  0  0  0
    1.3820    0.0692    0.3549 C   0  0  0  0  0  0  0  0  0  0  0  0
    1.9179   -1.0120    0.1210 O   0  0  0  0  0  0  0  0  0  0  0  0
    1.4130    1.9602   -1.2950 C   0  0  0  0  0  0  0  0  0  0  0  0
    0.6886    2.7021   -2.3916 C   0  0  0  0  0  0  0  0  0  0  0  0
    0.5027    2.1787   -3.6401 N   0  0  0  0  0  0  0  0  0  0  0  0
    0.0944    3.9412   -2.4373 C   0  0  0  0  0  0  0  0  0  0  0  0
   -0.1826    3.1056   -4.3752 C   0  0  0  0  0  0  0  0  0  0  0  0
   -0.4464    4.1862   -3.6747 N   0  0  0  0  0  0  0  0  0  0  0  0
   -1.3903    1.6325   -0.5973 H   0  0  0  0  0  0  0  0  0  0  0  0
    0.2216    0.1362   -1.4532 H   0  0  0  0  0  0  0  0  0  0  0  0
    2.3591    1.5590   -1.6830 H   0  0  0  0  0  0  0  0  0  0  0  0
    1.7028    2.6852   -0.5229 H   0  0  0  0  0  0  0  0  0  0  0  0
    0.8147    1.2727   -3.9644 H   0  0  0  0  0  0  0  0  0  0  0  0
    0.0270    4.6712   -1.6433 H   0  0  0  0  0  0  0  0  0  0  0  0
   -0.4562    2.9325   -5.4063 H   0  0  0  0  0  0  0  0  0  0  0  0
    1.4764    0.7614    1.5542 N   0  0  0  0  0  0  0  0  0  0  0  0
    2.2095    0.2698    2.6987 C   0  0  2  0  0  0  0  0  0  0  0  0
    1.7673   -1.1639    2.9600 C   0  0  0  0  0  0  0  0  0  0  0  0
    0.6908   -1.6148    2.5740 O   0  0  0  0  0  0  0  0  0  0  0  0
    1.9757    1.1424    3.9221 C   0  0  0  0  0  0  0  0  0  0  0  0
    1.0066    1.6587    1.6315 H   0  0  0  0  0  0  0  0  0  0  0  0
    3.2698    0.2812    2.4237 H   0  0  0  0  0  0  0  0  0  0  0  0
    0.9188    1.1435    4.2126 H   0  0  0  0  0  0  0  0  0  0  0  0
    2.5540    0.7853    4.7805 H   0  0  0  0  0  0  0  0  0  0  0  0
    2.2665    2.1794    3.7225 H   0  0  0  0  0  0  0  0  0  0  0  0
    2.6971   -1.8680    3.7123 N   0  0  0  0  0  0  0  0  0  0  0  0
    2.5023   -3.2447    4.1028 C   0  0  0  0  0  0  0  0  0  0  0  0
    3.5709   -1.4205    3.9729 H   0  0  0  0  0  0  0  0  0  0  0  0
    2.0265   -3.2815    5.0938 H   0  0  0  0  0  0  0  0  0  0  0  0
    1.8565   -3.7465    3.3672 H   0  0  0  0  0  0  0  0  0  0  0  0
    3.4759   -3.7551    4.1445 H   0  0  0  0  0  0  0  0  0  0  0  0
 22 24  2  0  0  0  0
 24 26  1  0  0  0  0
 25 26  2  0  0  0  0
 23 25  1  0  0  0  0
 21 22  1  0  0  0  0
 22 23  1  0  0  0  0
  1  3  1  0  0  0  0
  1  7  1  0  0  0  0
  1  2  2  0  0  0  0
 35 36  1  0  0  0  0
 36 44  1  0  0  0  0
 36 37  2  0  0  0  0
  8  9  1  0  0  0  0
  9 17  1  0  0  0  0
  9 10  2  0  0  0  0
 18 19  1  0  0  0  0
 19 34  1  0  0  0  0
 19 20  2  0  0  0  0
 35 38  1  0  0  0  0
  8 11  1  0  0  0  0
 44 45  1  0  0  0  0
 18 21  1  0  0  0  0
 34 35  1  0  0  0  0
  7  8  1  0  0  0  0
 17 18  1  0  0  0  0
 24 32  1  0  0  0  0
 25 33  1  0  0  0  0
  3  4  1  0  0  0  0
  3  5  1  0  0  0  0
  3  6  1  0  0  0  0
 38 41  1  0  0  0  0
 38 42  1  0  0  0  0
 38 43  1  0  0  0  0
 11 14  1  0  0  0  0
 11 15  1  0  0  0  0
 11 16  1  0  0  0  0
 45 47  1  0  0  0  0
 45 48  1  0  0  0  0
 45 49  1  0  0  0  0
 21 29  1  0  0  0  0
 21 30  1  0  0  0  0
 35 40  1  0  0  0  0
  8 13  1  0  0  0  0
 18 28  1  0  0  0  0
 23 31  1  0  0  0  0
 44 46  1  0  0  0  0
  7 12  1  0  0  0  0
 34 39  1  0  0  0  0
 17 27  1  0  0  0  0
M  END
$$$$

  -OEChem-05262214473D

 49 49  0     1  0  0  0  0  0999 V2000
   -1.5619    0.5658    3.7981 C   0  0  0  0  0  0  0  0  0  0  0  0
   -0.6145   -0.0489    3.3224 O   0  0  0  0  0  0  0  0  0  0  0  0
   -1.9938    0.2834    5.1988 C   0  0  0  0  0  0  0  0  0  0  0  0
   -2.7535   -0.5129    5.2522 H   0  0  0  0  0  0  0  0  0  0  0  0
   -1.1626   -0.0642    5.8331 H   0  0  0  0  0  0  0  0  0  0  0  0
   -2.4318    1.1383    5.7384 H   0  0  0  0  0  0  0  0  0  0  0  0
   -2.3116    1.5383    3.1570 N   0  0  0  0  0  0  0  0  0  0  0  0
   -2.0648    1.9643    1.8046 C   0  0  2  0  0  0  0  0  0  0  0  0
   -0.7298    1.3789    1.3634 C   0  0  0  0  0  0  0  0  0  0  0  0
    0.1423    1.0262    2.1547 O   0  0  0  0  0  0  0  0  0  0  0  0
   -2.0560    3.4811    1.6952 C   0  0  0  0  0  0  0  0  0  0  0  0
   -3.0767    1.9741    3.6688 H   0  0  0  0  0  0  0  0  0  0  0  0
   -2.8689    1.5458    1.1895 H   0  0  0  0  0  0  0  0  0  0  0  0
   -1.2569    3.9183    2.3049 H   0  0  0  0  0  0  0  0  0  0  0  0
   -1.8965    3.8033    0.6609 H   0  0  0  0  0  0  0  0  0  0  0  0
   -3.0062    3.9023    2.0409 H   0  0  0  0  0  0  0  0  0  0  0  0
   -0.6071    1.3358   -0.0200 N   0  0  0  0  0  0  0  0  0  0  0  0
    0.5702    0.8350   -0.6836 C   0  0  2  0  0  0  0  0  0  0  0  0
    1.3820    0.0692    0.3549 C   0  0  0  0  0  0  0  0  0  0  0  0
    2.1328   -0.8599    0.0652 O   0  0  0  0  0  0  0  0  0  0  0  0
    1.4130    1.9602   -1.2950 C   0  0  0  0  0  0  0  0  0  0  0  0
    0.6886    2.7021   -2.3916 C   0  0  0  0  0  0  0  0  0  0  0  0
    0.5027    2.1787   -3.6401 N   0  0  0  0  0  0  0  0  0  0  0  0
    0.0944    3.9412   -2.4373 C   0  0  0  0  0  0  0  0  0  0  0  0
   -0.1826    3.1056   -4.3752 C   0  0  0  0  0  0  0  0  0  0  0  0
   -0.4464    4.1862   -3.6747 N   0  0  0  0  0  0  0  0  0  0  0  0
   -1.3903    1.6325   -0.5973 H   0  0  0  0  0  0  0  0  0  0  0  0
    0.2216    0.1362   -1.4532 H   0  0  0  0  0  0  0  0  0  0  0  0
    2.3591    1.5590   -1.6830 H   0  0  0  0  0  0  0  0  0  0  0  0
    1.7028    2.6852   -0.5229 H   0  0  0  0  0  0  0  0  0  0  0  0
    0.8147    1.2727   -3.9644 H   0  0  0  0  0  0  0  0  0  0  0  0
    0.0270    4.6712   -1.6433 H   0  0  0  0  0  0  0  0  0  0  0  0
   -0.4562    2.9325   -5.4063 H   0  0  0  0  0  0  0  0  0  0  0  0
    1.2046    0.5803    1.6331 N   0  0  0  0  0  0  0  0  0  0  0  0
    1.8764    0.0527    2.7990 C   0  0  2  0  0  0  0  0  0  0  0  0
    1.6800   -1.4575    2.8117 C   0  0  0  0  0  0  0  0  0  0  0  0
    0.7589   -2.0191    2.2226 O   0  0  0  0  0  0  0  0  0  0  0  0
    1.3425    0.6811    4.0768 C   0  0  0  0  0  0  0  0  0  0  0  0
    0.5708    1.3646    1.7553 H   0  0  0  0  0  0  0  0  0  0  0  0
    2.9410    0.2822    2.6815 H   0  0  0  0  0  0  0  0  0  0  0  0
    0.2770    0.4620    4.2117 H   0  0  0  0  0  0  0  0  0  0  0  0
    1.8720    0.3014    4.9569 H   0  0  0  0  0  0  0  0  0  0  0  0
    1.4574    1.7701    4.0532 H   0  0  0  0  0  0  0  0  0  0  0  0
    2.6292   -2.1006    3.5938 N   0  0  0  0  0  0  0  0  0  0  0  0
    2.6486   -3.5332    3.7758 C   0  0  0  0  0  0  0  0  0  0  0  0
    3.3681   -1.5573    4.0305 H   0  0  0  0  0  0  0  0  0  0  0  0
    2.0745   -3.7968    4.6763 H   0  0  0  0  0  0  0  0  0  0  0  0
    2.1980   -4.0203    2.8984 H   0  0  0  0  0  0  0  0  0  0  0  0
    3.6881   -3.8741    3.8909 H   0  0  0  0  0  0  0  0  0  0  0  0
 22 24  2  0  0  0  0
 24 26  1  0  0  0  0
 25 26  2  0  0  0  0
 23 25  1  0  0  0  0
 21 22  1  0  0  0  0
 22 23  1  0  0  0  0
  1  3  1  0  0  0  0
  1  7  1  0  0  0  0
  1  2  2  0  0  0  0
 35 36  1  0  0  0  0
 36 44  1  0  0  0  0
 36 37  2  0  0  0  0
  8  9  1  0  0  0  0
  9 17  1  0  0  0  0
  9 10  2  0  0  0  0
 18 19  1  0  0  0  0
 19 34  1  0  0  0  0
 19 20  2  0  0  0  0
 35 38  1  0  0  0  0
  8 11  1  0  0  0  0
 44 45  1  0  0  0  0
 18 21  1  0  0  0  0
 34 35  1  0  0  0  0
  7  8  1  0  0  0  0
 17 18  1  0  0  0  0
 24 32  1  0  0  0  0
 25 33  1  0  0  0  0
  3  4  1  0  0  0  0
  3  5  1  0  0  0  0
  3  6  1  0  0  0  0
 38 41  1  0  0  0  0
 38 42  1  0  0  0  0
 38 43  1  0  0  0  0
 11 14  1  0  0  0  0
 11 15  1  0  0  0  0
 11 16  1  0  0  0  0
 45 47  1  0  0  0  0
 45 48  1  0  0  0  0
 45 49  1  0  0  0  0
 21 29  1  0  0  0  0
 21 30  1  0  0  0  0
 35 40  1  0  0  0  0
  8 13  1  0  0  0  0
 18 28  1  0  0  0  0
 23 31  1  0  0  0  0
 44 46  1  0  0  0  0
  7 12  1  0  0  0  0
 34 39  1  0  0  0  0
 17 27  1  0  0  0  0
M  END
$$$$

  -OEChem-05262214473D

 49 49  0     1  0  0  0  0  0999 V2000
   -1.5619    0.5658    3.7981 C   0  0  0  0  0  0  0  0  0  0  0  0
   -0.6145   -0.0489    3.3224 O   0  0  0  0  0  0  0  0  0  0  0  0
   -1.9938    0.2834    5.1988 C   0  0  0  0  0  0  0  0  0  0  0  0
   -2.7535   -0.5129    5.2522 H   0  0  0  0  0  0  0  0  0  0  0  0
   -1.1626   -0.0642    5.8331 H   0  0  0  0  0  0  0  0  0  0  0  0
   -2.4318    1.1383    5.7384 H   0  0  0  0  0  0  0  0  0  0  0  0
   -2.3116    1.5383    3.1570 N   0  0  0  0  0  0  0  0  0  0  0  0
   -2.0648    1.9643    1.8046 C   0  0  2  0  0  0  0  0  0  0  0  0
   -0.7298    1.3789    1.3634 C   0  0  0  0  0  0  0  0  0  0  0  0
    0.1423    1.0262    2.1547 O   0  0  0  0  0  0  0  0  0  0  0  0
   -2.0560    3.4811    1.6952 C   0  0  0  0  0  0  0  0  0  0  0  0
   -3.0767    1.9741    3.6688 H   0  0  0  0  0  0  0  0  0  0  0  0
   -2.8689    1.5458    1.1895 H   0  0  0  0  0  0  0  0  0  0  0  0
   -1.2569    3.9183    2.3049 H   0  0  0  0  0  0  0  0  0  0  0  0
   -1.8965    3.8033    0.6609 H   0  0  0  0  0  0  0  0  0  0  0  0
   -3.0062    3.9023    2.0409 H   0  0  0  0  0  0  0  0  0  0  0  0
   -0.6071    1.3358   -0.0200 N   0  0  0  0  0  0  0  0  0  0  0  0
    0.5702    0.8350   -0.6836 C   0  0  2  0  0  0  0  0  0  0  0  0
    1.3820    0.0692    0.3549 C   0  0  0  0  0  0  0  0  0  0  0  0
    2.3209   -0.6673    0.0601 O   0  0  0  0  0  0  0  0  0  0  0  0
    1.4130    1.9602   -1.2950 C   0  0  0  0  0  0  0  0  0  0  0  0
    0.6886    2.7021   -2.3916 C   0  0  0  0  0  0  0  0  0  0  0  0
    0.5027    2.1787   -3.6401 N   0  0  0  0  0  0  0  0  0  0  0  0
    0.0944    3.9412   -2.4373 C   0  0  0  0  0  0  0  0  0  0  0  0
   -0.1826    3.1056   -4.3752 C   0  0  0  0  0  0  0  0  0  0  0  0
   -0.4464    4.1862   -3.6747 N   0  0  0  0  0  0  0  0  0  0  0  0
   -1.3903    1.6325   -0.5973 H   0  0  0  0  0  0  0  0  0  0  0  0
    0.2216    0.1362   -1.4532 H   0  0  0  0  0  0  0  0  0  0  0  0
    2.3591    1.5590   -1.6830 H   0  0  0  0  0  0  0  0  0  0  0  0
    1.7028    2.6852   -0.5229 H   0  0  0  0  0  0  0  0  0  0  0  0
    0.8147    1.2727   -3.9644 H   0  0  0  0  0  0  0  0  0  0  0  0
    0.0270    4.6712   -1.6433 H   0  0  0  0  0  0  0  0  0  0  0  0
   -0.4562    2.9325   -5.4063 H   0  0  0  0  0  0  0  0  0  0  0  0
    0.9638    0.3466    1.6490 N   0  0  0  0  0  0  0  0  0  0  0  0
    1.5798   -0.2295    2.8227 C   0  0  2  0  0  0  0  0  0  0  0  0
    1.6668   -1.7360    2.6167 C   0  0  0  0  0  0  0  0  0  0  0  0
    0.9416   -2.3493    1.8363 O   0  0  0  0  0  0  0  0  0  0  0  0
    0.7921    0.1025    4.0804 C   0  0  0  0  0  0  0  0  0  0  0  0
    0.1857    0.9867    1.7777 H   0  0  0  0  0  0  0  0  0  0  0  0
    2.5898    0.1897    2.8878 H   0  0  0  0  0  0  0  0  0  0  0  0
   -0.2226   -0.3093    4.0335 H   0  0  0  0  0  0  0  0  0  0  0  0
    1.2755   -0.3105    4.9720 H   0  0  0  0  0  0  0  0  0  0  0  0
    0.7051    1.1866    4.2110 H   0  0  0  0  0  0  0  0  0  0  0  0
    2.6200   -2.3209    3.4385 N   0  0  0  0  0  0  0  0  0  0  0  0
    2.8832   -3.7410    3.4391 C   0  0  0  0  0  0  0  0  0  0  0  0
    3.1887   -1.7332    4.0410 H   0  0  0  0  0  0  0  0  0  0  0  0
    2.2661   -4.2285    4.2083 H   0  0  0  0  0  0  0  0  0  0  0  0
    2.6372   -4.1598    2.4522 H   0  0  0  0  0  0  0  0  0  0  0  0
    3.9470   -3.9166    3.6572 H   0  0  0  0  0  0  0  0  0  0  0  0
 22 24  2  0  0  0  0
 24 26  1  0  0  0  0
 25 26  2  0  0  0  0
 23 25  1  0  0  0  0
 21 22  1  0  0  0  0
 22 23  1  0  0  0  0
  1  3  1  0  0  0  0
  1  7  1  0  0  0  0
  1  2  2  0  0  0  0
 35 36  1  0  0  0  0
 36 44  1  0  0  0  0
 36 37  2  0  0  0  0
  8  9  1  0  0  0  0
  9 17  1  0  0  0  0
  9 10  2  0  0  0  0
 18 19  1  0  0  0  0
 19 34  1  0  0  0  0
 19 20  2  0  0  0  0
 35 38  1  0  0  0  0
  8 11  1  0  0  0  0
 44 45  1  0  0  0  0
 18 21  1  0  0  0  0
 34 35  1  0  0  0  0
  7  8  1  0  0  0  0
 17 18  1  0  0  0  0
 24 32  1  0  0  0  0
 25 33  1  0  0  0  0
  3  4  1  0  0  0  0
  3  5  1  0  0  0  0
  3  6  1  0  0  0  0
 38 41  1  0  0  0  0
 38 42  1  0  0  0  0
 38 43  1  0  0  0  0
 11 14  1  0  0  0  0
 11 15  1  0  0  0  0
 11 16  1  0  0  0  0
 45 47  1  0  0  0  0
 45 48  1  0  0  0  0
 45 49  1  0  0  0  0
 21 29  1  0  0  0  0
 21 30  1  0  0  0  0
 35 40  1  0  0  0  0
  8 13  1  0  0  0  0
 18 28  1  0  0  0  0
 23 31  1  0  0  0  0
 44 46  1  0  0  0  0
  7 12  1  0  0  0  0
 34 39  1  0  0  0  0
 17 27  1  0  0  0  0
M  END
$$$$

  -OEChem-05262214473D

 49 49  0     1  0  0  0  0  0999 V2000
   -1.5619    0.5658    3.7981 C   0  0  0  0  0  0  0  0  0  0  0  0
   -0.6145   -0.0489    3.3224 O   0  0  0  0  0  0  0  0  0  0  0  0
   -1.9938    0.2834    5.1988 C   0  0  0  0  0  0  0  0  0  0  0  0
   -2.7535   -0.5129    5.2522 H   0  0  0  0  0  0  0  0  0  0  0  0
   -1.1626   -0.0642    5.8331 H   0  0  0  0  0  0  0  0  0  0  0  0
   -2.4318    1.1383    5.7384 H   0  0  0  0  0  0  0  0  0  0  0  0
   -2.3116    1.5383    3.1570 N   0  0  0  0  0  0  0  0  0  0  0  0
   -2.0648    1.9643    1.8046 C   0  0  2  0  0  0  0  0  0  0  0  0
   -0.7298    1.3789    1.3634 C   0  0  0  0  0  0  0  0  0  0  0  0
    0.1423    1.0262    2.1547 O   0  0  0  0  0  0  0  0  0  0  0  0
   -2.0560    3.4811    1.6952 C   0  0  0  0  0  0  0  0  0  0  0  0
   -3.0767    1.9741    3.6688 H   0  0  0  0  0  0  0  0  0  0  0  0
   -2.8689    1.5458    1.1895 H   0  0  0  0  0  0  0  0  0  0  0  0
   -1.2569    3.9183    2.3049 H   0  0  0  0  0  0  0  0  0  0  0  0
   -1.8965    3.8033    0.6609 H   0  0  0  0  0  0  0  0  0  0  0  0
   -3.0062    3.9023    2.0409 H   0  0  0  0  0  0  0  0  0  0  0  0
   -0.6071    1.3358   -0.0200 N   0  0  0  0  0  0  0  0  0  0  0  0
    0.5702    0.8350   -0.6836 C   0  0  2  0  0  0  0  0  0  0  0  0
    1.3820    0.0692    0.3549 C   0  0  0  0  0  0  0  0  0  0  0  0
    2.4692   -0.4475    0.1063 O   0  0  0  0  0  0  0  0  0  0  0  0
    1.4130    1.9602   -1.2950 C   0  0  0  0  0  0  0  0  0  0  0  0
    0.6886    2.7021   -2.3916 C   0  0  0  0  0  0  0  0  0  0  0  0
    0.5027    2.1787   -3.6401 N   0  0  0  0  0  0  0  0  0  0  0  0
    0.0944    3.9412   -2.4373 C   0  0  0  0  0  0  0  0  0  0  0  0
   -0.1826    3.1056   -4.3752 C   0  0  0  0  0  0  0  0  0  0  0  0
   -0.4464    4.1862   -3.6747 N   0  0  0  0  0  0  0  0  0  0  0  0
   -1.3903    1.6325   -0.5973 H   0  0  0  0  0  0  0  0  0  0  0  0
    0.2216    0.1362   -1.4532 H   0  0  0  0  0  0  0  0  0  0  0  0
    2.3591    1.5590   -1.6830 H   0  0  0  0  0  0  0  0  0  0  0  0
    1.7028    2.6852   -0.5229 H   0  0  0  0  0  0  0  0  0  0  0  0
    0.8147    1.2727   -3.9644 H   0  0  0  0  0  0  0  0  0  0  0  0
    0.0270    4.6712   -1.6433 H   0  0  0  0  0  0  0  0  0  0  0  0
   -0.4562    2.9325   -5.4063 H   0  0  0  0  0  0  0  0  0  0  0  0
    0.7703    0.0761    1.6008 N   0  0  0  0  0  0  0  0  0  0  0  0
    1.3400   -0.5577    2.7681 C   0  0  2  0  0  0  0  0  0  0  0  0
    1.7285   -1.9805    2.3882 C   0  0  0  0  0  0  0  0  0  0  0  0
    1.2265   -2.5828    1.4414 O   0  0  0  0  0  0  0  0  0  0  0  0
    0.3620   -0.5538    3.9326 C   0  0  0  0  0  0  0  0  0  0  0  0
   -0.1226    0.5506    1.6971 H   0  0  0  0  0  0  0  0  0  0  0  0
    2.2399    0.0099    3.0287 H   0  0  0  0  0  0  0  0  0  0  0  0
   -0.5461   -1.1179    3.6901 H   0  0  0  0  0  0  0  0  0  0  0  0
    0.8053   -1.0088    4.8246 H   0  0  0  0  0  0  0  0  0  0  0  0
    0.0607    0.4685    4.1852 H   0  0  0  0  0  0  0  0  0  0  0  0
    2.6702   -2.5140    3.2569 N   0  0  0  0  0  0  0  0  0  0  0  0
    3.1902   -3.8540    3.1158 C   0  0  0  0  0  0  0  0  0  0  0  0
    3.0452   -1.9362    4.0035 H   0  0  0  0  0  0  0  0  0  0  0  0
    2.5881   -4.5472    3.7216 H   0  0  0  0  0  0  0  0  0  0  0  0
    3.1440   -4.1557    2.0590 H   0  0  0  0  0  0  0  0  0  0  0  0
    4.2349   -3.8798    3.4592 H   0  0  0  0  0  0  0  0  0  0  0  0
 22 24  2  0  0  0  0
 24 26  1  0  0  0  0
 25 26  2  0  0  0  0
 23 25  1  0  0  0  0
 21 22  1  0  0  0  0
 22 23  1  0  0  0  0
  1  3  1  0  0  0  0
  1  7  1  0  0  0  0
  1  2  2  0  0  0  0
 35 36  1  0  0  0  0
 36 44  1  0  0  0  0
 36 37  2  0  0  0  0
  8  9  1  0  0  0  0
  9 17  1  0  0  0  0
  9 10  2  0  0  0  0
 18 19  1  0  0  0  0
 19 34  1  0  0  0  0
 19 20  2  0  0  0  0
 35 38  1  0  0  0  0
  8 11  1  0  0  0  0
 44 45  1  0  0  0  0
 18 21  1  0  0  0  0
 34 35  1  0  0  0  0
  7  8  1  0  0  0  0
 17 18  1  0  0  0  0
 24 32  1  0  0  0  0
 25 33  1  0  0  0  0
  3  4  1  0  0  0  0
  3  5  1  0  0  0  0
  3  6  1  0  0  0  0
 38 41  1  0  0  0  0
 38 42  1  0  0  0  0
 38 43  1  0  0  0  0
 11 14  1  0  0  0  0
 11 15  1  0  0  0  0
 11 16  1  0  0  0  0
 45 47  1  0  0  0  0
 45 48  1  0  0  0  0
 45 49  1  0  0  0  0
 21 29  1  0  0  0  0
 21 30  1  0  0  0  0
 35 40  1  0  0  0  0
  8 13  1  0  0  0  0
 18 28  1  0  0  0  0
 23 31  1  0  0  0  0
 44 46  1  0  0  0  0
  7 12  1  0  0  0  0
 34 39  1  0  0  0  0
 17 27  1  0  0  0  0
M  END
$$$$

  -OEChem-05262214473D

 49 49  0     1  0  0  0  0  0999 V2000
   -1.5619    0.5658    3.7981 C   0  0  0  0  0  0  0  0  0  0  0  0
   -0.6145   -0.0489    3.3224 O   0  0  0  0  0  0  0  0  0  0  0  0
   -1.9938    0.2834    5.1988 C   0  0  0  0  0  0  0  0  0  0  0  0
   -2.7535   -0.5129    5.2522 H   0  0  0  0  0  0  0  0  0  0  0  0
   -1.1626   -0.0642    5.8331 H   0  0  0  0  0  0  0  0  0  0  0  0
   -2.4318    1.1383    5.7384 H   0  0  0  0  0  0  0  0  0  0  0  0
   -2.3116    1.5383    3.1570 N   0  0  0  0  0  0  0  0  0  0  0  0
   -2.0648    1.9643    1.8046 C   0  0  2  0  0  0  0  0  0  0  0  0
   -0.7298    1.3789    1.3634 C   0  0  0  0  0  0  0  0  0  0  0  0
    0.1423    1.0262    2.1547 O   0  0  0  0  0  0  0  0  0  0  0  0
   -2.0560    3.4811    1.6952 C   0  0  0  0  0  0  0  0  0  0  0  0
   -3.0767    1.9741    3.6688 H   0  0  0  0  0  0  0  0  0  0  0  0
   -2.8689    1.5458    1.1895 H   0  0  0  0  0  0  0  0  0  0  0  0
   -1.2569    3.9183    2.3049 H   0  0  0  0  0  0  0  0  0  0  0  0
   -1.8965    3.8033    0.6609 H   0  0  0  0  0  0  0  0  0  0  0  0
   -3.0062    3.9023    2.0409 H   0  0  0  0  0  0  0  0  0  0  0  0
   -0.6071    1.3358   -0.0200 N   0  0  0  0  0  0  0  0  0  0  0  0
    0.5702    0.8350   -0.6836 C   0  0  2  0  0  0  0  0  0  0  0  0
    1.3820    0.0692    0.3549 C   0  0  0  0  0  0  0  0  0  0  0  0
    2.5678   -0.2154    0.2004 O   0  0  0  0  0  0  0  0  0  0  0  0
    1.4130    1.9602   -1.2950 C   0  0  0  0  0  0  0  0  0  0  0  0
    0.6886    2.7021   -2.3916 C   0  0  0  0  0  0  0  0  0  0  0  0
    0.5027    2.1787   -3.6401 N   0  0  0  0  0  0  0  0  0  0  0  0
    0.0944    3.9412   -2.4373 C   0  0  0  0  0  0  0  0  0  0  0  0
   -0.1826    3.1056   -4.3752 C   0  0  0  0  0  0  0  0  0  0  0  0
   -0.4464    4.1862   -3.6747 N   0  0  0  0  0  0  0  0  0  0  0  0
   -1.3903    1.6325   -0.5973 H   0  0  0  0  0  0  0  0  0  0  0  0
    0.2216    0.1362   -1.4532 H   0  0  0  0  0  0  0  0  0  0  0  0
    2.3591    1.5590   -1.6830 H   0  0  0  0  0  0  0  0  0  0  0  0
    1.7028    2.6852   -0.5229 H   0  0  0  0  0  0  0  0  0  0  0  0
    0.8147    1.2727   -3.9644 H   0  0  0  0  0  0  0  0  0  0  0  0
    0.0270    4.6712   -1.6433 H   0  0  0  0  0  0  0  0  0  0  0  0
   -0.4562    2.9325   -5.4063 H   0  0  0  0  0  0  0  0  0  0  0  0
    0.6374   -0.2126    1.4919 N   0  0  0  0  0  0  0  0  0  0  0  0
    1.1734   -0.9095    2.6390 C   0  0  2  0  0  0  0  0  0  0  0  0
    1.8609   -2.1743    2.1418 C   0  0  0  0  0  0  0  0  0  0  0  0
    1.5943   -2.7036    1.0649 O   0  0  0  0  0  0  0  0  0  0  0  0
    0.0815   -1.2433    3.6435 C   0  0  0  0  0  0  0  0  0  0  0  0
   -0.3331    0.0861    1.5191 H   0  0  0  0  0  0  0  0  0  0  0  0
    1.9154   -0.2448    3.0946 H   0  0  0  0  0  0  0  0  0  0  0  0
   -0.6713   -1.9085    3.2050 H   0  0  0  0  0  0  0  0  0  0  0  0
    0.4934   -1.7459    4.5249 H   0  0  0  0  0  0  0  0  0  0  0  0
   -0.4317   -0.3351    3.9775 H   0  0  0  0  0  0  0  0  0  0  0  0
    2.7764   -2.6666    3.0614 N   0  0  0  0  0  0  0  0  0  0  0  0
    3.5487   -3.8644    2.8279 C   0  0  0  0  0  0  0  0  0  0  0  0
    2.9472   -2.1524    3.9207 H   0  0  0  0  0  0  0  0  0  0  0  0
    3.0186   -4.7312    3.2494 H   0  0  0  0  0  0  0  0  0  0  0  0
    3.6840   -4.0082    1.7458 H   0  0  0  0  0  0  0  0  0  0  0  0
    4.5323   -3.7662    3.3105 H   0  0  0  0  0  0  0  0  0  0  0  0
 22 24  2  0  0  0  0
 24 26  1  0  0  0  0
 25 26  2  0  0  0  0
 23 25  1  0  0  0  0
 21 22  1  0  0  0  0
 22 23  1  0  0  0  0
  1  3  1  0  0  0  0
  1  7  1  0  0  0  0
  1  2  2  0  0  0  0
 35 36  1  0  0  0  0
 36 44  1  0  0  0  0
 36 37  2  0  0  0  0
  8  9  1  0  0  0  0
  9 17  1  0  0  0  0
  9 10  2  0  0  0  0
 18 19  1  0  0  0  0
 19 34  1  0  0  0  0
 19 20  2  0  0  0  0
 35 38  1  0  0  0  0
  8 11  1  0  0  0  0
 44 45  1  0  0  0  0
 18 21  1  0  0  0  0
 34 35  1  0  0  0  0
  7  8  1  0  0  0  0
 17 18  1  0  0  0  0
 24 32  1  0  0  0  0
 25 33  1  0  0  0  0
  3  4  1  0  0  0  0
  3  5  1  0  0  0  0
  3  6  1  0  0  0  0
 38 41  1  0  0  0  0
 38 42  1  0  0  0  0
 38 43  1  0  0  0  0
 11 14  1  0  0  0  0
 11 15  1  0  0  0  0
 11 16  1  0  0  0  0
 45 47  1  0  0  0  0
 45 48  1  0  0  0  0
 45 49  1  0  0  0  0
 21 29  1  0  0  0  0
 21 30  1  0  0  0  0
 35 40  1  0  0  0  0
  8 13  1  0  0  0  0
 18 28  1  0  0  0  0
 23 31  1  0  0  0  0
 44 46  1  0  0  0  0
  7 12  1  0  0  0  0
 34 39  1  0  0  0  0
 17 27  1  0  0  0  0
M  END
$$$$

  -OEChem-05262214473D

 49 49  0     1  0  0  0  0  0999 V2000
   -1.5619    0.5658    3.7981 C   0  0  0  0  0  0  0  0  0  0  0  0
   -0.6145   -0.0489    3.3224 O   0  0  0  0  0  0  0  0  0  0  0  0
   -1.9938    0.2834    5.1988 C   0  0  0  0  0  0  0  0  0  0  0  0
   -2.7535   -0.5129    5.2522 H   0  0  0  0  0  0  0  0  0  0  0  0
   -1.1626   -0.0642    5.8331 H   0  0  0  0  0  0  0  0  0  0  0  0
   -2.4318    1.1383    5.7384 H   0  0  0  0  0  0  0  0  0  0  0  0
   -2.3116    1.5383    3.1570 N   0  0  0  0  0  0  0  0  0  0  0  0
   -2.0648    1.9643    1.8046 C   0  0  2  0  0  0  0  0  0  0  0  0
   -0.7298    1.3789    1.3634 C   0  0  0  0  0  0  0  0  0  0  0  0
    0.1423    1.0262    2.1547 O   0  0  0  0  0  0  0  0  0  0  0  0
   -2.0560    3.4811    1.6952 C   0  0  0  0  0  0  0  0  0  0  0  0
   -3.0767    1.9741    3.6688 H   0  0  0  0  0  0  0  0  0  0  0  0
   -2.8689    1.5458    1.1895 H   0  0  0  0  0  0  0  0  0  0  0  0
   -1.2569    3.9183    2.3049 H   0  0  0  0  0  0  0  0  0  0  0  0
   -1.8965    3.8033    0.6609 H   0  0  0  0  0  0  0  0  0  0  0  0
   -3.0062    3.9023    2.0409 H   0  0  0  0  0  0  0  0  0  0  0  0
   -0.6071    1.3358   -0.0200 N   0  0  0  0  0  0  0  0  0  0  0  0
    0.5702    0.8350   -0.6836 C   0  0  2  0  0  0  0  0  0  0  0  0
    1.3820    0.0692    0.3549 C   0  0  0  0  0  0  0  0  0  0  0  0
    2.6098    0.0132    0.3362 O   0  0  0  0  0  0  0  0  0  0  0  0
    1.4130    1.9602   -1.2950 C   0  0  0  0  0  0  0  0  0  0  0  0
    0.6886    2.7021   -2.3916 C   0  0  0  0  0  0  0  0  0  0  0  0
    0.5027    2.1787   -3.6401 N   0  0  0  0  0  0  0  0  0  0  0  0
    0.0944    3.9412   -2.4373 C   0  0  0  0  0  0  0  0  0  0  0  0
   -0.1826    3.1056   -4.3752 C   0  0  0  0  0  0  0  0  0  0  0  0
   -0.4464    4.1862   -3.6747 N   0  0  0  0  0  0  0  0  0  0  0  0
   -1.3903    1.6325   -0.5973 H   0  0  0  0  0  0  0  0  0  0  0  0
    0.2216    0.1362   -1.4532 H   0  0  0  0  0  0  0  0  0  0  0  0
    2.3591    1.5590   -1.6830 H   0  0  0  0  0  0  0  0  0  0  0  0
    1.7028    2.6852   -0.5229 H   0  0  0  0  0  0  0  0  0  0  0  0
    0.8147    1.2727   -3.9644 H   0  0  0  0  0  0  0  0  0  0  0  0
    0.0270    4.6712   -1.6433 H   0  0  0  0  0  0  0  0  0  0  0  0
   -0.4562    2.9325   -5.4063 H   0  0  0  0  0  0  0  0  0  0  0  0
    0.5740   -0.4998    1.3296 N   0  0  0  0  0  0  0  0  0  0  0  0
    1.0912   -1.2609    2.4441 C   0  0  2  0  0  0  0  0  0  0  0  0
    2.0550   -2.3042    1.8943 C   0  0  0  0  0  0  0  0  0  0  0  0
    2.0197   -2.7036    0.7323 O   0  0  0  0  0  0  0  0  0  0  0  0
   -0.0303   -1.9189    3.2327 C   0  0  0  0  0  0  0  0  0  0  0  0
   -0.4313   -0.3751    1.2558 H   0  0  0  0  0  0  0  0  0  0  0  0
    1.6383   -0.5571    3.0809 H   0  0  0  0  0  0  0  0  0  0  0  0
   -0.5897   -2.6275    2.6111 H   0  0  0  0  0  0  0  0  0  0  0  0
    0.3611   -2.4715    4.0932 H   0  0  0  0  0  0  0  0  0  0  0  0
   -0.7387   -1.1696    3.6021 H   0  0  0  0  0  0  0  0  0  0  0  0
    2.9312   -2.7683    2.8654 N   0  0  0  0  0  0  0  0  0  0  0  0
    3.9343   -3.7716    2.5950 C   0  0  0  0  0  0  0  0  0  0  0  0
    2.9014   -2.3671    3.7981 H   0  0  0  0  0  0  0  0  0  0  0  0
    3.5282   -4.7679    2.8240 H   0  0  0  0  0  0  0  0  0  0  0  0
    4.2202   -3.7273    1.5337 H   0  0  0  0  0  0  0  0  0  0  0  0
    4.8189   -3.5836    3.2212 H   0  0  0  0  0  0  0  0  0  0  0  0
 22 24  2  0  0  0  0
 24 26  1  0  0  0  0
 25 26  2  0  0  0  0
 23 25  1  0  0  0  0
 21 22  1  0  0  0  0
 22 23  1  0  0  0  0
  1  3  1  0  0  0  0
  1  7  1  0  0  0  0
  1  2  2  0  0  0  0
 35 36  1  0  0  0  0
 36 44  1  0  0  0  0
 36 37  2  0  0  0  0
  8  9  1  0  0  0  0
  9 17  1  0  0  0  0
  9 10  2  0  0  0  0
 18 19  1  0  0  0  0
 19 34  1  0  0  0  0
 19 20  2  0  0  0  0
 35 38  1  0  0  0  0
  8 11  1  0  0  0  0
 44 45  1  0  0  0  0
 18 21  1  0  0  0  0
 34 35  1  0  0  0  0
  7  8  1  0  0  0  0
 17 18  1  0  0  0  0
 24 32  1  0  0  0  0
 25 33  1  0  0  0  0
  3  4  1  0  0  0  0
  3  5  1  0  0  0  0
  3  6  1  0  0  0  0
 38 41  1  0  0  0  0
 38 42  1  0  0  0  0
 38 43  1  0  0  0  0
 11 14  1  0  0  0  0
 11 15  1  0  0  0  0
 11 16  1  0  0  0  0
 45 47  1  0  0  0  0
 45 48  1  0  0  0  0
 45 49  1  0  0  0  0
 21 29  1  0  0  0  0
 21 30  1  0  0  0  0
 35 40  1  0  0  0  0
  8 13  1  0  0  0  0
 18 28  1  0  0  0  0
 23 31  1  0  0  0  0
 44 46  1  0  0  0  0
  7 12  1  0  0  0  0
 34 39  1  0  0  0  0
 17 27  1  0  0  0  0
M  END
$$$$

  -OEChem-05262214473D

 49 49  0     1  0  0  0  0  0999 V2000
   -1.5619    0.5658    3.7981 C   0  0  0  0  0  0  0  0  0  0  0  0
   -0.6145   -0.0489    3.3224 O   0  0  0  0  0  0  0  0  0  0  0  0
   -1.9938    0.2834    5.1988 C   0  0  0  0  0  0  0  0  0  0  0  0
   -2.7535   -0.5129    5.2522 H   0  0  0  0  0  0  0  0  0  0  0  0
   -1.1626   -0.0642    5.8331 H   0  0  0  0  0  0  0  0  0  0  0  0
   -2.4318    1.1383    5.7384 H   0  0  0  0  0  0  0  0  0  0  0  0
   -2.3116    1.5383    3.1570 N   0  0  0  0  0  0  0  0  0  0  0  0
   -2.0648    1.9643    1.8046 C   0  0  2  0  0  0  0  0  0  0  0  0
   -0.7298    1.3789    1.3634 C   0  0  0  0  0  0  0  0  0  0  0  0
    0.1423    1.0262    2.1547 O   0  0  0  0  0  0  0  0  0  0  0  0
   -2.0560    3.4811    1.6952 C   0  0  0  0  0  0  0  0  0  0  0  0
   -3.0767    1.9741    3.6688 H   0  0  0  0  0  0  0  0  0  0  0  0
   -2.8689    1.5458    1.1895 H   0  0  0  0  0  0  0  0  0  0  0  0
   -1.2569    3.9183    2.3049 H   0  0  0  0  0  0  0  0  0  0  0  0
   -1.8965    3.8033    0.6609 H   0  0  0  0  0  0  0  0  0  0  0  0
   -3.0062    3.9023    2.0409 H   0  0  0  0  0  0  0  0  0  0  0  0
   -0.6071    1.3358   -0.0200 N   0  0  0  0  0  0  0  0  0  0  0  0
    0.5702    0.8350   -0.6836 C   0  0  2  0  0  0  0  0  0  0  0  0
    1.3820    0.0692    0.3549 C   0  0  0  0  0  0  0  0  0  0  0  0
    2.5924    0.2228    0.5043 O   0  0  0  0  0  0  0  0  0  0  0  0
    1.4130    1.9602   -1.2950 C   0  0  0  0  0  0  0  0  0  0  0  0
    0.6886    2.7021   -2.3916 C   0  0  0  0  0  0  0  0  0  0  0  0
    0.5027    2.1787   -3.6401 N   0  0  0  0  0  0  0  0  0  0  0  0
    0.0944    3.9412   -2.4373 C   0  0  0  0  0  0  0  0  0  0  0  0
   -0.1826    3.1056   -4.3752 C   0  0  0  0  0  0  0  0  0  0  0  0
   -0.4464    4.1862   -3.6747 N   0  0  0  0  0  0  0  0  0  0  0  0
   -1.3903    1.6325   -0.5973 H   0  0  0  0  0  0  0  0  0  0  0  0
    0.2216    0.1362   -1.4532 H   0  0  0  0  0  0  0  0  0  0  0  0
    2.3591    1.5590   -1.6830 H   0  0  0  0  0  0  0  0  0  0  0  0
    1.7028    2.6852   -0.5229 H   0  0  0  0  0  0  0  0  0  0  0  0
    0.8147    1.2727   -3.9644 H   0  0  0  0  0  0  0  0  0  0  0  0
    0.0270    4.6712   -1.6433 H   0  0  0  0  0  0  0  0  0  0  0  0
   -0.4562    2.9325   -5.4063 H   0  0  0  0  0  0  0  0  0  0  0  0
    0.5846   -0.7661    1.1249 N   0  0  0  0  0  0  0  0  0  0  0  0
    1.0992   -1.5879    2.1967 C   0  0  2  0  0  0  0  0  0  0  0  0
    2.2975   -2.3613    1.6626 C   0  0  0  0  0  0  0  0  0  0  0  0
    2.4739   -2.5827    0.4664 O   0  0  0  0  0  0  0  0  0  0  0  0
    0.0343   -2.5346    2.7282 C   0  0  0  0  0  0  0  0  0  0  0  0
   -0.4106   -0.8017    0.9251 H   0  0  0  0  0  0  0  0  0  0  0  0
    1.4274   -0.9058    2.9886 H   0  0  0  0  0  0  0  0  0  0  0  0
   -0.3070   -3.2257    1.9489 H   0  0  0  0  0  0  0  0  0  0  0  0
    0.4173   -3.1363    3.5591 H   0  0  0  0  0  0  0  0  0  0  0  0
   -0.8392   -1.9780    3.0846 H   0  0  0  0  0  0  0  0  0  0  0  0
    3.1242   -2.8122    2.6821 N   0  0  0  0  0  0  0  0  0  0  0  0
    4.3207   -3.5818    2.4329 C   0  0  0  0  0  0  0  0  0  0  0  0
    2.9110   -2.5657    3.6442 H   0  0  0  0  0  0  0  0  0  0  0  0
    4.0823   -4.6549    2.4742 H   0  0  0  0  0  0  0  0  0  0  0  0
    4.7163   -3.3322    1.4373 H   0  0  0  0  0  0  0  0  0  0  0  0
    5.0751   -3.3443    3.1973 H   0  0  0  0  0  0  0  0  0  0  0  0
 22 24  2  0  0  0  0
 24 26  1  0  0  0  0
 25 26  2  0  0  0  0
 23 25  1  0  0  0  0
 21 22  1  0  0  0  0
 22 23  1  0  0  0  0
  1  3  1  0  0  0  0
  1  7  1  0  0  0  0
  1  2  2  0  0  0  0
 35 36  1  0  0  0  0
 36 44  1  0  0  0  0
 36 37  2  0  0  0  0
  8  9  1  0  0  0  0
  9 17  1  0  0  0  0
  9 10  2  0  0  0  0
 18 19  1  0  0  0  0
 19 34  1  0  0  0  0
 19 20  2  0  0  0  0
 35 38  1  0  0  0  0
  8 11  1  0  0  0  0
 44 45  1  0  0  0  0
 18 21  1  0  0  0  0
 34 35  1  0  0  0  0
  7  8  1  0  0  0  0
 17 18  1  0  0  0  0
 24 32  1  0  0  0  0
 25 33  1  0  0  0  0
  3  4  1  0  0  0  0
  3  5  1  0  0  0  0
  3  6  1  0  0  0  0
 38 41  1  0  0  0  0
 38 42  1  0  0  0  0
 38 43  1  0  0  0  0
 11 14  1  0  0  0  0
 11 15  1  0  0  0  0
 11 16  1  0  0  0  0
 45 47  1  0  0  0  0
 45 48  1  0  0  0  0
 45 49  1  0  0  0  0
 21 29  1  0  0  0  0
 21 30  1  0  0  0  0
 35 40  1  0  0  0  0
  8 13  1  0  0  0  0
 18 28  1  0  0  0  0
 23 31  1  0  0  0  0
 44 46  1  0  0  0  0
  7 12  1  0  0  0  0
 34 39  1  0  0  0  0
 17 27  1  0  0  0  0
M  END
$$$$

  -OEChem-05262214473D

 49 49  0     1  0  0  0  0  0999 V2000
   -1.5619    0.5658    3.7981 C   0  0  0  0  0  0  0  0  0  0  0  0
   -0.6145   -0.0489    3.3224 O   0  0  0  0  0  0  0  0  0  0  0  0
   -1.9938    0.2834    5.1988 C   0  0  0  0  0  0  0  0  0  0  0  0
   -2.7535   -0.5129    5.2522 H   0  0  0  0  0  0  0  0  0  0  0  0
   -1.1626   -0.0642    5.8331 H   0  0  0  0  0  0  0  0  0  0  0  0
   -2.4318    1.1383    5.7384 H   0  0  0  0  0  0  0  0  0  0  0  0
   -2.3116    1.5383    3.1570 N   0  0  0  0  0  0  0  0  0  0  0  0
   -2.0648    1.9643    1.8046 C   0  0  2  0  0  0  0  0  0  0  0  0
   -0.7298    1.3789    1.3634 C   0  0  0  0  0  0  0  0  0  0  0  0
    0.1423    1.0262    2.1547 O   0  0  0  0  0  0  0  0  0  0  0  0
   -2.0560    3.4811    1.6952 C   0  0  0  0  0  0  0  0  0  0  0  0
   -3.0767    1.9741    3.6688 H   0  0  0  0  0  0  0  0  0  0  0  0
   -2.8689    1.5458    1.1895 H   0  0  0  0  0  0  0  0  0  0  0  0
   -1.2569    3.9183    2.3049 H   0  0  0  0  0  0  0  0  0  0  0  0
   -1.8965    3.8033    0.6609 H   0  0  0  0  0  0  0  0  0  0  0  0
   -3.0062    3.9023    2.0409 H   0  0  0  0  0  0  0  0  0  0  0  0
   -0.6071    1.3358   -0.0200 N   0  0  0  0  0  0  0  0  0  0  0  0
    0.5702    0.8350   -0.6836 C   0  0  2  0  0  0  0  0  0  0  0  0
    1.3820    0.0692    0.3549 C   0  0  0  0  0  0  0  0  0  0  0  0
    2.5168    0.3989    0.6932 O   0  0  0  0  0  0  0  0  0  0  0  0
    1.4130    1.9602   -1.2950 C   0  0  0  0  0  0  0  0  0  0  0  0
    0.6886    2.7021   -2.3916 C   0  0  0  0  0  0  0  0  0  0  0  0
    0.5027    2.1787   -3.6401 N   0  0  0  0  0  0  0  0  0  0  0  0
    0.0944    3.9412   -2.4373 C   0  0  0  0  0  0  0  0  0  0  0  0
   -0.1826    3.1056   -4.3752 C   0  0  0  0  0  0  0  0  0  0  0  0
   -0.4464    4.1862   -3.6747 N   0  0  0  0  0  0  0  0  0  0  0  0
   -1.3903    1.6325   -0.5973 H   0  0  0  0  0  0  0  0  0  0  0  0
    0.2216    0.1362   -1.4532 H   0  0  0  0  0  0  0  0  0  0  0  0
    2.3591    1.5590   -1.6830 H   0  0  0  0  0  0  0  0  0  0  0  0
    1.7028    2.6852   -0.5229 H   0  0  0  0  0  0  0  0  0  0  0  0
    0.8147    1.2727   -3.9644 H   0  0  0  0  0  0  0  0  0  0  0  0
    0.0270    4.6712   -1.6433 H   0  0  0  0  0  0  0  0  0  0  0  0
   -0.4562    2.9325   -5.4063 H   0  0  0  0  0  0  0  0  0  0  0  0
    0.6684   -0.9933    0.8920 N   0  0  0  0  0  0  0  0  0  0  0  0
    1.1967   -1.8683    1.9138 C   0  0  2  0  0  0  0  0  0  0  0  0
    2.5720   -2.3418    1.4624 C   0  0  0  0  0  0  0  0  0  0  0  0
    2.9259   -2.3493    0.2853 O   0  0  0  0  0  0  0  0  0  0  0  0
    0.2708   -3.0484    2.1645 C   0  0  0  0  0  0  0  0  0  0  0  0
   -0.2725   -1.1645    0.5496 H   0  0  0  0  0  0  0  0  0  0  0  0
    1.2973   -1.2670    2.8240 H   0  0  0  0  0  0  0  0  0  0  0  0
    0.1577   -3.6625    1.2637 H   0  0  0  0  0  0  0  0  0  0  0  0
    0.6583   -3.6949    2.9588 H   0  0  0  0  0  0  0  0  0  0  0  0
   -0.7265   -2.7053    2.4602 H   0  0  0  0  0  0  0  0  0  0  0  0
    3.3422   -2.7954    2.5242 N   0  0  0  0  0  0  0  0  0  0  0  0
    4.6815   -3.3081    2.3527 C   0  0  0  0  0  0  0  0  0  0  0  0
    2.9753   -2.7346    3.4694 H   0  0  0  0  0  0  0  0  0  0  0  0
    4.6431   -4.3998    2.2239 H   0  0  0  0  0  0  0  0  0  0  0  0
    5.1383   -2.8499    1.4631 H   0  0  0  0  0  0  0  0  0  0  0  0
    5.2835   -3.0647    3.2406 H   0  0  0  0  0  0  0  0  0  0  0  0
 22 24  2  0  0  0  0
 24 26  1  0  0  0  0
 25 26  2  0  0  0  0
 23 25  1  0  0  0  0
 21 22  1  0  0  0  0
 22 23  1  0  0  0  0
  1  3  1  0  0  0  0
  1  7  1  0  0  0  0
  1  2  2  0  0  0  0
 35 36  1  0  0  0  0
 36 44  1  0  0  0  0
 36 37  2  0  0  0  0
  8  9  1  0  0  0  0
  9 17  1  0  0  0  0
  9 10  2  0  0  0  0
 18 19  1  0  0  0  0
 19 34  1  0  0  0  0
 19 20  2  0  0  0  0
 35 38  1  0  0  0  0
  8 11  1  0  0  0  0
 44 45  1  0  0  0  0
 18 21  1  0  0  0  0
 34 35  1  0  0  0  0
  7  8  1  0  0  0  0
 17 18  1  0  0  0  0
 24 32  1  0  0  0  0
 25 33  1  0  0  0  0
  3  4  1  0  0  0  0
  3  5  1  0  0  0  0
  3  6  1  0  0  0  0
 38 41  1  0  0  0  0
 38 42  1  0  0  0  0
 38 43  1  0  0  0  0
 11 14  1  0  0  0  0
 11 15  1  0  0  0  0
 11 16  1  0  0  0  0
 45 47  1  0  0  0  0
 45 48  1  0  0  0  0
 45 49  1  0  0  0  0
 21 29  1  0  0  0  0
 21 30  1  0  0  0  0
 35 40  1  0  0  0  0
  8 13  1  0  0  0  0
 18 28  1  0  0  0  0
 23 31  1  0  0  0  0
 44 46  1  0  0  0  0
  7 12  1  0  0  0  0
 34 39  1  0  0  0  0
 17 27  1  0  0  0  0
M  END
$$$$

  -OEChem-05262214473D

 49 49  0     1  0  0  0  0  0999 V2000
   -1.5619    0.5658    3.7981 C   0  0  0  0  0  0  0  0  0  0  0  0
   -0.6145   -0.0489    3.3224 O   0  0  0  0  0  0  0  0  0  0  0  0
   -1.9938    0.2834    5.1988 C   0  0  0  0  0  0  0  0  0  0  0  0
   -2.7535   -0.5129    5.2522 H   0  0  0  0  0  0  0  0  0  0  0  0
   -1.1626   -0.0642    5.8331 H   0  0  0  0  0  0  0  0  0  0  0  0
   -2.4318    1.1383    5.7384 H   0  0  0  0  0  0  0  0  0  0  0  0
   -2.3116    1.5383    3.1570 N   0  0  0  0  0  0  0  0  0  0  0  0
   -2.0648    1.9643    1.8046 C   0  0  2  0  0  0  0  0  0  0  0  0
   -0.7298    1.3789    1.3634 C   0  0  0  0  0  0  0  0  0  0  0  0
    0.1423    1.0262    2.1547 O   0  0  0  0  0  0  0  0  0  0  0  0
   -2.0560    3.4811    1.6952 C   0  0  0  0  0  0  0  0  0  0  0  0
   -3.0767    1.9741    3.6688 H   0  0  0  0  0  0  0  0  0  0  0  0
   -2.8689    1.5458    1.1895 H   0  0  0  0  0  0  0  0  0  0  0  0
   -1.2569    3.9183    2.3049 H   0  0  0  0  0  0  0  0  0  0  0  0
   -1.8965    3.8033    0.6609 H   0  0  0  0  0  0  0  0  0  0  0  0
   -3.0062    3.9023    2.0409 H   0  0  0  0  0  0  0  0  0  0  0  0
   -0.6071    1.3358   -0.0200 N   0  0  0  0  0  0  0  0  0  0  0  0
    0.5702    0.8350   -0.6836 C   0  0  2  0  0  0  0  0  0  0  0  0
    1.3820    0.0692    0.3549 C   0  0  0  0  0  0  0  0  0  0  0  0
    2.3881    0.5297    0.8902 O   0  0  0  0  0  0  0  0  0  0  0  0
    1.4130    1.9602   -1.2950 C   0  0  0  0  0  0  0  0  0  0  0  0
    0.6886    2.7021   -2.3916 C   0  0  0  0  0  0  0  0  0  0  0  0
    0.5027    2.1787   -3.6401 N   0  0  0  0  0  0  0  0  0  0  0  0
    0.0944    3.9412   -2.4373 C   0  0  0  0  0  0  0  0  0  0  0  0
   -0.1826    3.1056   -4.3752 C   0  0  0  0  0  0  0  0  0  0  0  0
   -0.4464    4.1862   -3.6747 N   0  0  0  0  0  0  0  0  0  0  0  0
   -1.3903    1.6325   -0.5973 H   0  0  0  0  0  0  0  0  0  0  0  0
    0.2216    0.1362   -1.4532 H   0  0  0  0  0  0  0  0  0  0  0  0
    2.3591    1.5590   -1.6830 H   0  0  0  0  0  0  0  0  0  0  0  0
    1.7028    2.6852   -0.5229 H   0  0  0  0  0  0  0  0  0  0  0  0
    0.8147    1.2727   -3.9644 H   0  0  0  0  0  0  0  0  0  0  0  0
    0.0270    4.6712   -1.6433 H   0  0  0  0  0  0  0  0  0  0  0  0
   -0.4562    2.9325   -5.4063 H   0  0  0  0  0  0  0  0  0  0  0  0
    0.8196   -1.1658    0.6465 N   0  0  0  0  0  0  0  0  0  0  0  0
    1.3771   -2.0829    1.6145 C   0  0  2  0  0  0  0  0  0  0  0  0
    2.8597   -2.2469    1.3075 C   0  0  0  0  0  0  0  0  0  0  0  0
    3.3449   -2.0191    0.2012 O   0  0  0  0  0  0  0  0  0  0  0  0
    0.6631   -3.4252    1.5800 C   0  0  0  0  0  0  0  0  0  0  0  0
   -0.0262   -1.4388    0.1549 H   0  0  0  0  0  0  0  0  0  0  0  0
    1.2566   -1.6162    2.5982 H   0  0  0  0  0  0  0  0  0  0  0  0
    0.7727   -3.9080    0.6020 H   0  0  0  0  0  0  0  0  0  0  0  0
    1.0676   -4.1093    2.3333 H   0  0  0  0  0  0  0  0  0  0  0  0
   -0.4083   -3.3019    1.7715 H   0  0  0  0  0  0  0  0  0  0  0  0
    3.5703   -2.7189    2.4022 N   0  0  0  0  0  0  0  0  0  0  0  0
    4.9921   -2.9690    2.3600 C   0  0  0  0  0  0  0  0  0  0  0  0
    3.0899   -2.8623    3.2857 H   0  0  0  0  0  0  0  0  0  0  0  0
    5.1723   -4.0201    2.0903 H   0  0  0  0  0  0  0  0  0  0  0  0
    5.4575   -2.3131    1.6094 H   0  0  0  0  0  0  0  0  0  0  0  0
    5.4299   -2.7639    3.3480 H   0  0  0  0  0  0  0  0  0  0  0  0
 22 24  2  0  0  0  0
 24 26  1  0  0  0  0
 25 26  2  0  0  0  0
 23 25  1  0  0  0  0
 21 22  1  0  0  0  0
 22 23  1  0  0  0  0
  1  3  1  0  0  0  0
  1  7  1  0  0  0  0
  1  2  2  0  0  0  0
 35 36  1  0  0  0  0
 36 44  1  0  0  0  0
 36 37  2  0  0  0  0
  8  9  1  0  0  0  0
  9 17  1  0  0  0  0
  9 10  2  0  0  0  0
 18 19  1  0  0  0  0
 19 34  1  0  0  0  0
 19 20  2  0  0  0  0
 35 38  1  0  0  0  0
  8 11  1  0  0  0  0
 44 45  1  0  0  0  0
 18 21  1  0  0  0  0
 34 35  1  0  0  0  0
  7  8  1  0  0  0  0
 17 18  1  0  0  0  0
 24 32  1  0  0  0  0
 25 33  1  0  0  0  0
  3  4  1  0  0  0  0
  3  5  1  0  0  0  0
  3  6  1  0  0  0  0
 38 41  1  0  0  0  0
 38 42  1  0  0  0  0
 38 43  1  0  0  0  0
 11 14  1  0  0  0  0
 11 15  1  0  0  0  0
 11 16  1  0  0  0  0
 45 47  1  0  0  0  0
 45 48  1  0  0  0  0
 45 49  1  0  0  0  0
 21 29  1  0  0  0  0
 21 30  1  0  0  0  0
 35 40  1  0  0  0  0
  8 13  1  0  0  0  0
 18 28  1  0  0  0  0
 23 31  1  0  0  0  0
 44 46  1  0  0  0  0
  7 12  1  0  0  0  0
 34 39  1  0  0  0  0
 17 27  1  0  0  0  0
M  END
$$$$

  -OEChem-05262214473D

 49 49  0     1  0  0  0  0  0999 V2000
   -1.5619    0.5658    3.7981 C   0  0  0  0  0  0  0  0  0  0  0  0
   -0.6145   -0.0489    3.3224 O   0  0  0  0  0  0  0  0  0  0  0  0
   -1.9938    0.2834    5.1988 C   0  0  0  0  0  0  0  0  0  0  0  0
   -2.7535   -0.5129    5.2522 H   0  0  0  0  0  0  0  0  0  0  0  0
   -1.1626   -0.0642    5.8331 H   0  0  0  0  0  0  0  0  0  0  0  0
   -2.4318    1.1383    5.7384 H   0  0  0  0  0  0  0  0  0  0  0  0
   -2.3116    1.5383    3.1570 N   0  0  0  0  0  0  0  0  0  0  0  0
   -2.0648    1.9643    1.8046 C   0  0  2  0  0  0  0  0  0  0  0  0
   -0.7298    1.3789    1.3634 C   0  0  0  0  0  0  0  0  0  0  0  0
    0.1423    1.0262    2.1547 O   0  0  0  0  0  0  0  0  0  0  0  0
   -2.0560    3.4811    1.6952 C   0  0  0  0  0  0  0  0  0  0  0  0
   -3.0767    1.9741    3.6688 H   0  0  0  0  0  0  0  0  0  0  0  0
   -2.8689    1.5458    1.1895 H   0  0  0  0  0  0  0  0  0  0  0  0
   -1.2569    3.9183    2.3049 H   0  0  0  0  0  0  0  0  0  0  0  0
   -1.8965    3.8033    0.6609 H   0  0  0  0  0  0  0  0  0  0  0  0
   -3.0062    3.9023    2.0409 H   0  0  0  0  0  0  0  0  0  0  0  0
   -0.6071    1.3358   -0.0200 N   0  0  0  0  0  0  0  0  0  0  0  0
    0.5702    0.8350   -0.6836 C   0  0  2  0  0  0  0  0  0  0  0  0
    1.3820    0.0692    0.3549 C   0  0  0  0  0  0  0  0  0  0  0  0
    2.2152    0.6062    1.0818 O   0  0  0  0  0  0  0  0  0  0  0  0
    1.4130    1.9602   -1.2950 C   0  0  0  0  0  0  0  0  0  0  0  0
    0.6886    2.7021   -2.3916 C   0  0  0  0  0  0  0  0  0  0  0  0
    0.5027    2.1787   -3.6401 N   0  0  0  0  0  0  0  0  0  0  0  0
    0.0944    3.9412   -2.4373 C   0  0  0  0  0  0  0  0  0  0  0  0
   -0.1826    3.1056   -4.3752 C   0  0  0  0  0  0  0  0  0  0  0  0
   -0.4464    4.1862   -3.6747 N   0  0  0  0  0  0  0  0  0  0  0  0
   -1.3903    1.6325   -0.5973 H   0  0  0  0  0  0  0  0  0  0  0  0
    0.2216    0.1362   -1.4532 H   0  0  0  0  0  0  0  0  0  0  0  0
    2.3591    1.5590   -1.6830 H   0  0  0  0  0  0  0  0  0  0  0  0
    1.7028    2.6852   -0.5229 H   0  0  0  0  0  0  0  0  0  0  0  0
    0.8147    1.2727   -3.9644 H   0  0  0  0  0  0  0  0  0  0  0  0
    0.0270    4.6712   -1.6433 H   0  0  0  0  0  0  0  0  0  0  0  0
   -0.4562    2.9325   -5.4063 H   0  0  0  0  0  0  0  0  0  0  0  0
    1.0281   -1.2719    0.4053 N   0  0  0  0  0  0  0  0  0  0  0  0
    1.6281   -2.2172    1.3193 C   0  0  2  0  0  0  0  0  0  0  0  0
    3.1411   -2.0832    1.2083 C   0  0  0  0  0  0  0  0  0  0  0  0
    3.7023   -1.6147    0.2201 O   0  0  0  0  0  0  0  0  0  0  0  0
    1.1845   -3.6395    1.0144 C   0  0  0  0  0  0  0  0  0  0  0  0
    0.3113   -1.6059   -0.2322 H   0  0  0  0  0  0  0  0  0  0  0  0
    1.3083   -1.9296    2.3268 H   0  0  0  0  0  0  0  0  0  0  0  0
    1.4960   -3.9454    0.0090 H   0  0  0  0  0  0  0  0  0  0  0  0
    1.6173   -4.3511    1.7253 H   0  0  0  0  0  0  0  0  0  0  0  0
    0.0939   -3.7271    1.0655 H   0  0  0  0  0  0  0  0  0  0  0  0
    3.7930   -2.5880    2.3247 N   0  0  0  0  0  0  0  0  0  0  0  0
    5.2315   -2.5877    2.4540 C   0  0  0  0  0  0  0  0  0  0  0  0
    3.2470   -2.9402    3.1055 H   0  0  0  0  0  0  0  0  0  0  0  0
    5.6339   -3.5416    2.0823 H   0  0  0  0  0  0  0  0  0  0  0  0
    5.6522   -1.7585    1.8662 H   0  0  0  0  0  0  0  0  0  0  0  0
    5.5043   -2.4623    3.5123 H   0  0  0  0  0  0  0  0  0  0  0  0
 22 24  2  0  0  0  0
 24 26  1  0  0  0  0
 25 26  2  0  0  0  0
 23 25  1  0  0  0  0
 21 22  1  0  0  0  0
 22 23  1  0  0  0  0
  1  3  1  0  0  0  0
  1  7  1  0  0  0  0
  1  2  2  0  0  0  0
 35 36  1  0  0  0  0
 36 44  1  0  0  0  0
 36 37  2  0  0  0  0
  8  9  1  0  0  0  0
  9 17  1  0  0  0  0
  9 10  2  0  0  0  0
 18 19  1  0  0  0  0
 19 34  1  0  0  0  0
 19 20  2  0  0  0  0
 35 38  1  0  0  0  0
  8 11  1  0  0  0  0
 44 45  1  0  0  0  0
 18 21  1  0  0  0  0
 34 35  1  0  0  0  0
  7  8  1  0  0  0  0
 17 18  1  0  0  0  0
 24 32  1  0  0  0  0
 25 33  1  0  0  0  0
  3  4  1  0  0  0  0
  3  5  1  0  0  0  0
  3  6  1  0  0  0  0
 38 41  1  0  0  0  0
 38 42  1  0  0  0  0
 38 43  1  0  0  0  0
 11 14  1  0  0  0  0
 11 15  1  0  0  0  0
 11 16  1  0  0  0  0
 45 47  1  0  0  0  0
 45 48  1  0  0  0  0
 45 49  1  0  0  0  0
 21 29  1  0  0  0  0
 21 30  1  0  0  0  0
 35 40  1  0  0  0  0
  8 13  1  0  0  0  0
 18 28  1  0  0  0  0
 23 31  1  0  0  0  0
 44 46  1  0  0  0  0
  7 12  1  0  0  0  0
 34 39  1  0  0  0  0
 17 27  1  0  0  0  0
M  END
$$$$

  -OEChem-05262214473D

 49 49  0     1  0  0  0  0  0999 V2000
   -1.5619    0.5658    3.7981 C   0  0  0  0  0  0  0  0  0  0  0  0
   -0.6145   -0.0489    3.3224 O   0  0  0  0  0  0  0  0  0  0  0  0
   -1.9938    0.2834    5.1988 C   0  0  0  0  0  0  0  0  0  0  0  0
   -2.7535   -0.5129    5.2522 H   0  0  0  0  0  0  0  0  0  0  0  0
   -1.1626   -0.0642    5.8331 H   0  0  0  0  0  0  0  0  0  0  0  0
   -2.4318    1.1383    5.7384 H   0  0  0  0  0  0  0  0  0  0  0  0
   -2.3116    1.5383    3.1570 N   0  0  0  0  0  0  0  0  0  0  0  0
   -2.0648    1.9643    1.8046 C   0  0  2  0  0  0  0  0  0  0  0  0
   -0.7298    1.3789    1.3634 C   0  0  0  0  0  0  0  0  0  0  0  0
    0.1423    1.0262    2.1547 O   0  0  0  0  0  0  0  0  0  0  0  0
   -2.0560    3.4811    1.6952 C   0  0  0  0  0  0  0  0  0  0  0  0
   -3.0767    1.9741    3.6688 H   0  0  0  0  0  0  0  0  0  0  0  0
   -2.8689    1.5458    1.1895 H   0  0  0  0  0  0  0  0  0  0  0  0
   -1.2569    3.9183    2.3049 H   0  0  0  0  0  0  0  0  0  0  0  0
   -1.8965    3.8033    0.6609 H   0  0  0  0  0  0  0  0  0  0  0  0
   -3.0062    3.9023    2.0409 H   0  0  0  0  0  0  0  0  0  0  0  0
   -0.6071    1.3358   -0.0200 N   0  0  0  0  0  0  0  0  0  0  0  0
    0.5702    0.8350   -0.6836 C   0  0  2  0  0  0  0  0  0  0  0  0
    1.3820    0.0692    0.3549 C   0  0  0  0  0  0  0  0  0  0  0  0
    2.0098    0.6232    1.2549 O   0  0  0  0  0  0  0  0  0  0  0  0
    1.4130    1.9602   -1.2950 C   0  0  0  0  0  0  0  0  0  0  0  0
    0.6886    2.7021   -2.3916 C   0  0  0  0  0  0  0  0  0  0  0  0
    0.5027    2.1787   -3.6401 N   0  0  0  0  0  0  0  0  0  0  0  0
    0.0944    3.9412   -2.4373 C   0  0  0  0  0  0  0  0  0  0  0  0
   -0.1826    3.1056   -4.3752 C   0  0  0  0  0  0  0  0  0  0  0  0
   -0.4464    4.1862   -3.6747 N   0  0  0  0  0  0  0  0  0  0  0  0
   -1.3903    1.6325   -0.5973 H   0  0  0  0  0  0  0  0  0  0  0  0
    0.2216    0.1362   -1.4532 H   0  0  0  0  0  0  0  0  0  0  0  0
    2.3591    1.5590   -1.6830 H   0  0  0  0  0  0  0  0  0  0  0  0
    1.7028    2.6852   -0.5229 H   0  0  0  0  0  0  0  0  0  0  0  0
    0.8147    1.2727   -3.9644 H   0  0  0  0  0  0  0  0  0  0  0  0
    0.0270    4.6712   -1.6433 H   0  0  0  0  0  0  0  0  0  0  0  0
   -0.4562    2.9325   -5.4063 H   0  0  0  0  0  0  0  0  0  0  0  0
    1.2795   -1.3045    0.1848 N   0  0  0  0  0  0  0  0  0  0  0  0
    1.9326   -2.2620    1.0482 C   0  0  2  0  0  0  0  0  0  0  0  0
    3.3969   -1.8618    1.1716 C   0  0  0  0  0  0  0  0  0  0  0  0
    3.9738   -1.1637    0.3404 O   0  0  0  0  0  0  0  0  0  0  0  0
    1.7995   -3.6766    0.5063 C   0  0  0  0  0  0  0  0  0  0  0  0
    0.7171   -1.6545   -0.5853 H   0  0  0  0  0  0  0  0  0  0  0  0
    1.4488   -2.1858    2.0281 H   0  0  0  0  0  0  0  0  0  0  0  0
    2.2784   -3.7724   -0.4750 H   0  0  0  0  0  0  0  0  0  0  0  0
    2.2701   -4.4040    1.1761 H   0  0  0  0  0  0  0  0  0  0  0  0
    0.7457   -3.9520    0.3902 H   0  0  0  0  0  0  0  0  0  0  0  0
    3.9952   -2.4117    2.2967 N   0  0  0  0  0  0  0  0  0  0  0  0
    5.3832   -2.1901    2.6286 C   0  0  0  0  0  0  0  0  0  0  0  0
    3.4359   -2.9628    2.9411 H   0  0  0  0  0  0  0  0  0  0  0  0
    5.9964   -2.9969    2.2006 H   0  0  0  0  0  0  0  0  0  0  0  0
    5.7090   -1.2238    2.2160 H   0  0  0  0  0  0  0  0  0  0  0  0
    5.5016   -2.1805    3.7222 H   0  0  0  0  0  0  0  0  0  0  0  0
 22 24  2  0  0  0  0
 24 26  1  0  0  0  0
 25 26  2  0  0  0  0
 23 25  1  0  0  0  0
 21 22  1  0  0  0  0
 22 23  1  0  0  0  0
  1  3  1  0  0  0  0
  1  7  1  0  0  0  0
  1  2  2  0  0  0  0
 35 36  1  0  0  0  0
 36 44  1  0  0  0  0
 36 37  2  0  0  0  0
  8  9  1  0  0  0  0
  9 17  1  0  0  0  0
  9 10  2  0  0  0  0
 18 19  1  0  0  0  0
 19 34  1  0  0  0  0
 19 20  2  0  0  0  0
 35 38  1  0  0  0  0
  8 11  1  0  0  0  0
 44 45  1  0  0  0  0
 18 21  1  0  0  0  0
 34 35  1  0  0  0  0
  7  8  1  0  0  0  0
 17 18  1  0  0  0  0
 24 32  1  0  0  0  0
 25 33  1  0  0  0  0
  3  4  1  0  0  0  0
  3  5  1  0  0  0  0
  3  6  1  0  0  0  0
 38 41  1  0  0  0  0
 38 42  1  0  0  0  0
 38 43  1  0  0  0  0
 11 14  1  0  0  0  0
 11 15  1  0  0  0  0
 11 16  1  0  0  0  0
 45 47  1  0  0  0  0
 45 48  1  0  0  0  0
 45 49  1  0  0  0  0
 21 29  1  0  0  0  0
 21 30  1  0  0  0  0
 35 40  1  0  0  0  0
  8 13  1  0  0  0  0
 18 28  1  0  0  0  0
 23 31  1  0  0  0  0
 44 46  1  0  0  0  0
  7 12  1  0  0  0  0
 34 39  1  0  0  0  0
 17 27  1  0  0  0  0
M  END
$$$$

  -OEChem-05262214473D

 49 49  0     1  0  0  0  0  0999 V2000
   -1.5619    0.5658    3.7981 C   0  0  0  0  0  0  0  0  0  0  0  0
   -0.6145   -0.0489    3.3224 O   0  0  0  0  0  0  0  0  0  0  0  0
   -1.9938    0.2834    5.1988 C   0  0  0  0  0  0  0  0  0  0  0  0
   -2.7535   -0.5129    5.2522 H   0  0  0  0  0  0  0  0  0  0  0  0
   -1.1626   -0.0642    5.8331 H   0  0  0  0  0  0  0  0  0  0  0  0
   -2.4318    1.1383    5.7384 H   0  0  0  0  0  0  0  0  0  0  0  0
   -2.3116    1.5383    3.1570 N   0  0  0  0  0  0  0  0  0  0  0  0
   -2.0648    1.9643    1.8046 C   0  0  2  0  0  0  0  0  0  0  0  0
   -0.7298    1.3789    1.3634 C   0  0  0  0  0  0  0  0  0  0  0  0
    0.1423    1.0262    2.1547 O   0  0  0  0  0  0  0  0  0  0  0  0
   -2.0560    3.4811    1.6952 C   0  0  0  0  0  0  0  0  0  0  0  0
   -3.0767    1.9741    3.6688 H   0  0  0  0  0  0  0  0  0  0  0  0
   -2.8689    1.5458    1.1895 H   0  0  0  0  0  0  0  0  0  0  0  0
   -1.2569    3.9183    2.3049 H   0  0  0  0  0  0  0  0  0  0  0  0
   -1.8965    3.8033    0.6609 H   0  0  0  0  0  0  0  0  0  0  0  0
   -3.0062    3.9023    2.0409 H   0  0  0  0  0  0  0  0  0  0  0  0
   -0.6071    1.3358   -0.0200 N   0  0  0  0  0  0  0  0  0  0  0  0
    0.5702    0.8350   -0.6836 C   0  0  2  0  0  0  0  0  0  0  0  0
    1.3820    0.0692    0.3549 C   0  0  0  0  0  0  0  0  0  0  0  0
    1.7858    0.5795    1.3977 O   0  0  0  0  0  0  0  0  0  0  0  0
    1.4130    1.9602   -1.2950 C   0  0  0  0  0  0  0  0  0  0  0  0
    0.6886    2.7021   -2.3916 C   0  0  0  0  0  0  0  0  0  0  0  0
    0.5027    2.1787   -3.6401 N   0  0  0  0  0  0  0  0  0  0  0  0
    0.0944    3.9412   -2.4373 C   0  0  0  0  0  0  0  0  0  0  0  0
   -0.1826    3.1056   -4.3752 C   0  0  0  0  0  0  0  0  0  0  0  0
   -0.4464    4.1862   -3.6747 N   0  0  0  0  0  0  0  0  0  0  0  0
   -1.3903    1.6325   -0.5973 H   0  0  0  0  0  0  0  0  0  0  0  0
    0.2216    0.1362   -1.4532 H   0  0  0  0  0  0  0  0  0  0  0  0
    2.3591    1.5590   -1.6830 H   0  0  0  0  0  0  0  0  0  0  0  0
    1.7028    2.6852   -0.5229 H   0  0  0  0  0  0  0  0  0  0  0  0
    0.8147    1.2727   -3.9644 H   0  0  0  0  0  0  0  0  0  0  0  0
    0.0270    4.6712   -1.6433 H   0  0  0  0  0  0  0  0  0  0  0  0
   -0.4562    2.9325   -5.4063 H   0  0  0  0  0  0  0  0  0  0  0  0
    1.5567   -1.2612    0.0000 N   0  0  0  0  0  0  0  0  0  0  0  0
    2.2698   -2.2141    0.8199 C   0  0  2  0  0  0  0  0  0  0  0  0
    3.6097   -1.5978    1.1999 C   0  0  0  0  0  0  0  0  0  0  0  0
    4.1408   -0.6967    0.5542 O   0  0  0  0  0  0  0  0  0  0  0  0
    2.4661   -3.5340    0.0904 C   0  0  0  0  0  0  0  0  0  0  0  0
    1.1636   -1.5812   -0.8802 H   0  0  0  0  0  0  0  0  0  0  0  0
    1.6684   -2.3673    1.7226 H   0  0  0  0  0  0  0  0  0  0  0  0
    3.0665   -3.4006   -0.8169 H   0  0  0  0  0  0  0  0  0  0  0  0
    2.9812   -4.2643    0.7232 H   0  0  0  0  0  0  0  0  0  0  0  0
    1.5027   -3.9612   -0.2084 H   0  0  0  0  0  0  0  0  0  0  0  0
    4.1629   -2.2018    2.3203 N   0  0  0  0  0  0  0  0  0  0  0  0
    5.4370   -1.8034    2.8717 C   0  0  0  0  0  0  0  0  0  0  0  0
    3.6437   -2.9287    2.8038 H   0  0  0  0  0  0  0  0  0  0  0  0
    6.2351   -2.4231    2.4371 H   0  0  0  0  0  0  0  0  0  0  0  0
    5.6242   -0.7456    2.6349 H   0  0  0  0  0  0  0  0  0  0  0  0
    5.4221   -1.9377    3.9634 H   0  0  0  0  0  0  0  0  0  0  0  0
 22 24  2  0  0  0  0
 24 26  1  0  0  0  0
 25 26  2  0  0  0  0
 23 25  1  0  0  0  0
 21 22  1  0  0  0  0
 22 23  1  0  0  0  0
  1  3  1  0  0  0  0
  1  7  1  0  0  0  0
  1  2  2  0  0  0  0
 35 36  1  0  0  0  0
 36 44  1  0  0  0  0
 36 37  2  0  0  0  0
  8  9  1  0  0  0  0
  9 17  1  0  0  0  0
  9 10  2  0  0  0  0
 18 19  1  0  0  0  0
 19 34  1  0  0  0  0
 19 20  2  0  0  0  0
 35 38  1  0  0  0  0
  8 11  1  0  0  0  0
 44 45  1  0  0  0  0
 18 21  1  0  0  0  0
 34 35  1  0  0  0  0
  7  8  1  0  0  0  0
 17 18  1  0  0  0  0
 24 32  1  0  0  0  0
 25 33  1  0  0  0  0
  3  4  1  0  0  0  0
  3  5  1  0  0  0  0
  3  6  1  0  0  0  0
 38 41  1  0  0  0  0
 38 42  1  0  0  0  0
 38 43  1  0  0  0  0
 11 14  1  0  0  0  0
 11 15  1  0  0  0  0
 11 16  1  0  0  0  0
 45 47  1  0  0  0  0
 45 48  1  0  0  0  0
 45 49  1  0  0  0  0
 21 29  1  0  0  0  0
 21 30  1  0  0  0  0
 35 40  1  0  0  0  0
  8 13  1  0  0  0  0
 18 28  1  0  0  0  0
 23 31  1  0  0  0  0
 44 46  1  0  0  0  0
  7 12  1  0  0  0  0
 34 39  1  0  0  0  0
 17 27  1  0  0  0  0
M  END
$$$$

  -OEChem-05262214473D

 49 49  0     1  0  0  0  0  0999 V2000
   -1.5619    0.5658    3.7981 C   0  0  0  0  0  0  0  0  0  0  0  0
   -0.6145   -0.0489    3.3224 O   0  0  0  0  0  0  0  0  0  0  0  0
   -1.9938    0.2834    5.1988 C   0  0  0  0  0  0  0  0  0  0  0  0
   -2.7535   -0.5129    5.2522 H   0  0  0  0  0  0  0  0  0  0  0  0
   -1.1626   -0.0642    5.8331 H   0  0  0  0  0  0  0  0  0  0  0  0
   -2.4318    1.1383    5.7384 H   0  0  0  0  0  0  0  0  0  0  0  0
   -2.3116    1.5383    3.1570 N   0  0  0  0  0  0  0  0  0  0  0  0
   -2.0648    1.9643    1.8046 C   0  0  2  0  0  0  0  0  0  0  0  0
   -0.7298    1.3789    1.3634 C   0  0  0  0  0  0  0  0  0  0  0  0
    0.1423    1.0262    2.1547 O   0  0  0  0  0  0  0  0  0  0  0  0
   -2.0560    3.4811    1.6952 C   0  0  0  0  0  0  0  0  0  0  0  0
   -3.0767    1.9741    3.6688 H   0  0  0  0  0  0  0  0  0  0  0  0
   -2.8689    1.5458    1.1895 H   0  0  0  0  0  0  0  0  0  0  0  0
   -1.2569    3.9183    2.3049 H   0  0  0  0  0  0  0  0  0  0  0  0
   -1.8965    3.8033    0.6609 H   0  0  0  0  0  0  0  0  0  0  0  0
   -3.0062    3.9023    2.0409 H   0  0  0  0  0  0  0  0  0  0  0  0
   -0.6071    1.3358   -0.0200 N   0  0  0  0  0  0  0  0  0  0  0  0
    0.5702    0.8350   -0.6836 C   0  0  2  0  0  0  0  0  0  0  0  0
    1.3820    0.0692    0.3549 C   0  0  0  0  0  0  0  0  0  0  0  0
    1.5587    0.4781    1.5006 O   0  0  0  0  0  0  0  0  0  0  0  0
    1.4130    1.9602   -1.2950 C   0  0  0  0  0  0  0  0  0  0  0  0
    0.6886    2.7021   -2.3916 C   0  0  0  0  0  0  0  0  0  0  0  0
    0.5027    2.1787   -3.6401 N   0  0  0  0  0  0  0  0  0  0  0  0
    0.0944    3.9412   -2.4373 C   0  0  0  0  0  0  0  0  0  0  0  0
   -0.1826    3.1056   -4.3752 C   0  0  0  0  0  0  0  0  0  0  0  0
   -0.4464    4.1862   -3.6747 N   0  0  0  0  0  0  0  0  0  0  0  0
   -1.3903    1.6325   -0.5973 H   0  0  0  0  0  0  0  0  0  0  0  0
    0.2216    0.1362   -1.4532 H   0  0  0  0  0  0  0  0  0  0  0  0
    2.3591    1.5590   -1.6830 H   0  0  0  0  0  0  0  0  0  0  0  0
    1.7028    2.6852   -0.5229 H   0  0  0  0  0  0  0  0  0  0  0  0
    0.8147    1.2727   -3.9644 H   0  0  0  0  0  0  0  0  0  0  0  0
    0.0270    4.6712   -1.6433 H   0  0  0  0  0  0  0  0  0  0  0  0
   -0.4562    2.9325   -5.4063 H   0  0  0  0  0  0  0  0  0  0  0  0
    1.8409   -1.1450   -0.1365 N   0  0  0  0  0  0  0  0  0  0  0  0
    2.6169   -2.0770    0.6497 C   0  0  2  0  0  0  0  0  0  0  0  0
    3.7650   -1.3092    1.2914 C   0  0  0  0  0  0  0  0  0  0  0  0
    4.1921   -0.2457    0.8467 O   0  0  0  0  0  0  0  0  0  0  0  0
    3.1389   -3.2214   -0.2050 C   0  0  0  0  0  0  0  0  0  0  0  0
    1.6203   -1.3910   -1.0970 H   0  0  0  0  0  0  0  0  0  0  0  0
    1.9523   -2.4617    1.4310 H   0  0  0  0  0  0  0  0  0  0  0  0
    3.8066   -2.8554   -0.9934 H   0  0  0  0  0  0  0  0  0  0  0  0
    3.7025   -3.9415    0.3974 H   0  0  0  0  0  0  0  0  0  0  0  0
    2.3134   -3.7541   -0.6894 H   0  0  0  0  0  0  0  0  0  0  0  0
    4.2849   -1.9727    2.3939 N   0  0  0  0  0  0  0  0  0  0  0  0
    5.3891   -1.4539    3.1668 C   0  0  0  0  0  0  0  0  0  0  0  0
    3.8563   -2.8402    2.7029 H   0  0  0  0  0  0  0  0  0  0  0  0
    6.3338   -1.8594    2.7756 H   0  0  0  0  0  0  0  0  0  0  0  0
    5.4035   -0.3563    3.0945 H   0  0  0  0  0  0  0  0  0  0  0  0
    5.2710   -1.7504    4.2195 H   0  0  0  0  0  0  0  0  0  0  0  0
 22 24  2  0  0  0  0
 24 26  1  0  0  0  0
 25 26  2  0  0  0  0
 23 25  1  0  0  0  0
 21 22  1  0  0  0  0
 22 23  1  0  0  0  0
  1  3  1  0  0  0  0
  1  7  1  0  0  0  0
  1  2  2  0  0  0  0
 35 36  1  0  0  0  0
 36 44  1  0  0  0  0
 36 37  2  0  0  0  0
  8  9  1  0  0  0  0
  9 17  1  0  0  0  0
  9 10  2  0  0  0  0
 18 19  1  0  0  0  0
 19 34  1  0  0  0  0
 19 20  2  0  0  0  0
 35 38  1  0  0  0  0
  8 11  1  0  0  0  0
 44 45  1  0  0  0  0
 18 21  1  0  0  0  0
 34 35  1  0  0  0  0
  7  8  1  0  0  0  0
 17 18  1  0  0  0  0
 24 32  1  0  0  0  0
 25 33  1  0  0  0  0
  3  4  1  0  0  0  0
  3  5  1  0  0  0  0
  3  6  1  0  0  0  0
 38 41  1  0  0  0  0
 38 42  1  0  0  0  0
 38 43  1  0  0  0  0
 11 14  1  0  0  0  0
 11 15  1  0  0  0  0
 11 16  1  0  0  0  0
 45 47  1  0  0  0  0
 45 48  1  0  0  0  0
 45 49  1  0  0  0  0
 21 29  1  0  0  0  0
 21 30  1  0  0  0  0
 35 40  1  0  0  0  0
  8 13  1  0  0  0  0
 18 28  1  0  0  0  0
 23 31  1  0  0  0  0
 44 46  1  0  0  0  0
  7 12  1  0  0  0  0
 34 39  1  0  0  0  0
 17 27  1  0  0  0  0
M  END
$$$$

  -OEChem-05262214473D

 49 49  0     1  0  0  0  0  0999 V2000
   -1.5619    0.5658    3.7981 C   0  0  0  0  0  0  0  0  0  0  0  0
   -0.6145   -0.0489    3.3224 O   0  0  0  0  0  0  0  0  0  0  0  0
   -1.9938    0.2834    5.1988 C   0  0  0  0  0  0  0  0  0  0  0  0
   -2.7535   -0.5129    5.2522 H   0  0  0  0  0  0  0  0  0  0  0  0
   -1.1626   -0.0642    5.8331 H   0  0  0  0  0  0  0  0  0  0  0  0
   -2.4318    1.1383    5.7384 H   0  0  0  0  0  0  0  0  0  0  0  0
   -2.3116    1.5383    3.1570 N   0  0  0  0  0  0  0  0  0  0  0  0
   -2.0648    1.9643    1.8046 C   0  0  2  0  0  0  0  0  0  0  0  0
   -0.7298    1.3789    1.3634 C   0  0  0  0  0  0  0  0  0  0  0  0
    0.1423    1.0262    2.1547 O   0  0  0  0  0  0  0  0  0  0  0  0
   -2.0560    3.4811    1.6952 C   0  0  0  0  0  0  0  0  0  0  0  0
   -3.0767    1.9741    3.6688 H   0  0  0  0  0  0  0  0  0  0  0  0
   -2.8689    1.5458    1.1895 H   0  0  0  0  0  0  0  0  0  0  0  0
   -1.2569    3.9183    2.3049 H   0  0  0  0  0  0  0  0  0  0  0  0
   -1.8965    3.8033    0.6609 H   0  0  0  0  0  0  0  0  0  0  0  0
   -3.0062    3.9023    2.0409 H   0  0  0  0  0  0  0  0  0  0  0  0
   -0.6071    1.3358   -0.0200 N   0  0  0  0  0  0  0  0  0  0  0  0
    0.5702    0.8350   -0.6836 C   0  0  2  0  0  0  0  0  0  0  0  0
    1.3820    0.0692    0.3549 C   0  0  0  0  0  0  0  0  0  0  0  0
    1.3437    0.3260    1.5564 O   0  0  0  0  0  0  0  0  0  0  0  0
    1.4130    1.9602   -1.2950 C   0  0  0  0  0  0  0  0  0  0  0  0
    0.6886    2.7021   -2.3916 C   0  0  0  0  0  0  0  0  0  0  0  0
    0.5027    2.1787   -3.6401 N   0  0  0  0  0  0  0  0  0  0  0  0
    0.0944    3.9412   -2.4373 C   0  0  0  0  0  0  0  0  0  0  0  0
   -0.1826    3.1056   -4.3752 C   0  0  0  0  0  0  0  0  0  0  0  0
   -0.4464    4.1862   -3.6747 N   0  0  0  0  0  0  0  0  0  0  0  0
   -1.3903    1.6325   -0.5973 H   0  0  0  0  0  0  0  0  0  0  0  0
    0.2216    0.1362   -1.4532 H   0  0  0  0  0  0  0  0  0  0  0  0
    2.3591    1.5590   -1.6830 H   0  0  0  0  0  0  0  0  0  0  0  0
    1.7028    2.6852   -0.5229 H   0  0  0  0  0  0  0  0  0  0  0  0
    0.8147    1.2727   -3.9644 H   0  0  0  0  0  0  0  0  0  0  0  0
    0.0270    4.6712   -1.6433 H   0  0  0  0  0  0  0  0  0  0  0  0
   -0.4562    2.9325   -5.4063 H   0  0  0  0  0  0  0  0  0  0  0  0
    2.1127   -0.9639   -0.2153 N   0  0  0  0  0  0  0  0  0  0  0  0
    2.9500   -1.8599    0.5494 C   0  0  2  0  0  0  0  0  0  0  0  0
    3.8522   -1.0156    1.4397 C   0  0  0  0  0  0  0  0  0  0  0  0
    4.1240    0.1587    1.1981 O   0  0  0  0  0  0  0  0  0  0  0  0
    3.7721   -2.7601   -0.3598 C   0  0  0  0  0  0  0  0  0  0  0  0
    2.0561   -1.0969   -1.2207 H   0  0  0  0  0  0  0  0  0  0  0  0
    2.2811   -2.4627    1.1732 H   0  0  0  0  0  0  0  0  0  0  0  0
    4.4484   -2.1739   -0.9925 H   0  0  0  0  0  0  0  0  0  0  0  0
    4.3845   -3.4577    0.2210 H   0  0  0  0  0  0  0  0  0  0  0  0
    3.1225   -3.3449   -1.0200 H   0  0  0  0  0  0  0  0  0  0  0  0
    4.3528   -1.7401    2.5123 N   0  0  0  0  0  0  0  0  0  0  0  0
    5.2429   -1.1654    3.4939 C   0  0  0  0  0  0  0  0  0  0  0  0
    4.0592   -2.7034    2.6452 H   0  0  0  0  0  0  0  0  0  0  0  0
    6.2858   -1.3441    3.1931 H   0  0  0  0  0  0  0  0  0  0  0  0
    5.0619   -0.0826    3.5633 H   0  0  0  0  0  0  0  0  0  0  0  0
    5.0588   -1.6315    4.4731 H   0  0  0  0  0  0  0  0  0  0  0  0
 22 24  2  0  0  0  0
 24 26  1  0  0  0  0
 25 26  2  0  0  0  0
 23 25  1  0  0  0  0
 21 22  1  0  0  0  0
 22 23  1  0  0  0  0
  1  3  1  0  0  0  0
  1  7  1  0  0  0  0
  1  2  2  0  0  0  0
 35 36  1  0  0  0  0
 36 44  1  0  0  0  0
 36 37  2  0  0  0  0
  8  9  1  0  0  0  0
  9 17  1  0  0  0  0
  9 10  2  0  0  0  0
 18 19  1  0  0  0  0
 19 34  1  0  0  0  0
 19 20  2  0  0  0  0
 35 38  1  0  0  0  0
  8 11  1  0  0  0  0
 44 45  1  0  0  0  0
 18 21  1  0  0  0  0
 34 35  1  0  0  0  0
  7  8  1  0  0  0  0
 17 18  1  0  0  0  0
 24 32  1  0  0  0  0
 25 33  1  0  0  0  0
  3  4  1  0  0  0  0
  3  5  1  0  0  0  0
  3  6  1  0  0  0  0
 38 41  1  0  0  0  0
 38 42  1  0  0  0  0
 38 43  1  0  0  0  0
 11 14  1  0  0  0  0
 11 15  1  0  0  0  0
 11 16  1  0  0  0  0
 45 47  1  0  0  0  0
 45 48  1  0  0  0  0
 45 49  1  0  0  0  0
 21 29  1  0  0  0  0
 21 30  1  0  0  0  0
 35 40  1  0  0  0  0
  8 13  1  0  0  0  0
 18 28  1  0  0  0  0
 23 31  1  0  0  0  0
 44 46  1  0  0  0  0
  7 12  1  0  0  0  0
 34 39  1  0  0  0  0
 17 27  1  0  0  0  0
M  END
$$$$

  -OEChem-05262214473D

 49 49  0     1  0  0  0  0  0999 V2000
   -1.5619    0.5658    3.7981 C   0  0  0  0  0  0  0  0  0  0  0  0
   -0.6145   -0.0489    3.3224 O   0  0  0  0  0  0  0  0  0  0  0  0
   -1.9938    0.2834    5.1988 C   0  0  0  0  0  0  0  0  0  0  0  0
   -2.7535   -0.5129    5.2522 H   0  0  0  0  0  0  0  0  0  0  0  0
   -1.1626   -0.0642    5.8331 H   0  0  0  0  0  0  0  0  0  0  0  0
   -2.4318    1.1383    5.7384 H   0  0  0  0  0  0  0  0  0  0  0  0
   -2.3116    1.5383    3.1570 N   0  0  0  0  0  0  0  0  0  0  0  0
   -2.0648    1.9643    1.8046 C   0  0  2  0  0  0  0  0  0  0  0  0
   -0.7298    1.3789    1.3634 C   0  0  0  0  0  0  0  0  0  0  0  0
    0.1423    1.0262    2.1547 O   0  0  0  0  0  0  0  0  0  0  0  0
   -2.0560    3.4811    1.6952 C   0  0  0  0  0  0  0  0  0  0  0  0
   -3.0767    1.9741    3.6688 H   0  0  0  0  0  0  0  0  0  0  0  0
   -2.8689    1.5458    1.1895 H   0  0  0  0  0  0  0  0  0  0  0  0
   -1.2569    3.9183    2.3049 H   0  0  0  0  0  0  0  0  0  0  0  0
   -1.8965    3.8033    0.6609 H   0  0  0  0  0  0  0  0  0  0  0  0
   -3.0062    3.9023    2.0409 H   0  0  0  0  0  0  0  0  0  0  0  0
   -0.6071    1.3358   -0.0200 N   0  0  0  0  0  0  0  0  0  0  0  0
    0.5702    0.8350   -0.6836 C   0  0  2  0  0  0  0  0  0  0  0  0
    1.3820    0.0692    0.3549 C   0  0  0  0  0  0  0  0  0  0  0  0
    1.1557    0.1335    1.5614 O   0  0  0  0  0  0  0  0  0  0  0  0
    1.4130    1.9602   -1.2950 C   0  0  0  0  0  0  0  0  0  0  0  0
    0.6886    2.7021   -2.3916 C   0  0  0  0  0  0  0  0  0  0  0  0
    0.5027    2.1787   -3.6401 N   0  0  0  0  0  0  0  0  0  0  0  0
    0.0944    3.9412   -2.4373 C   0  0  0  0  0  0  0  0  0  0  0  0
   -0.1826    3.1056   -4.3752 C   0  0  0  0  0  0  0  0  0  0  0  0
   -0.4464    4.1862   -3.6747 N   0  0  0  0  0  0  0  0  0  0  0  0
   -1.3903    1.6325   -0.5973 H   0  0  0  0  0  0  0  0  0  0  0  0
    0.2216    0.1362   -1.4532 H   0  0  0  0  0  0  0  0  0  0  0  0
    2.3591    1.5590   -1.6830 H   0  0  0  0  0  0  0  0  0  0  0  0
    1.7028    2.6852   -0.5229 H   0  0  0  0  0  0  0  0  0  0  0  0
    0.8147    1.2727   -3.9644 H   0  0  0  0  0  0  0  0  0  0  0  0
    0.0270    4.6712   -1.6433 H   0  0  0  0  0  0  0  0  0  0  0  0
   -0.4562    2.9325   -5.4063 H   0  0  0  0  0  0  0  0  0  0  0  0
    2.3535   -0.7302   -0.2312 N   0  0  0  0  0  0  0  0  0  0  0  0
    3.2466   -1.5777    0.5257 C   0  0  2  0  0  0  0  0  0  0  0  0
    3.8655   -0.7370    1.6347 C   0  0  0  0  0  0  0  0  0  0  0  0
    3.9413    0.4888    1.5843 O   0  0  0  0  0  0  0  0  0  0  0  0
    4.3225   -2.1816   -0.3634 C   0  0  0  0  0  0  0  0  0  0  0  0
    2.4413   -0.7190   -1.2431 H   0  0  0  0  0  0  0  0  0  0  0  0
    2.6324   -2.3702    0.9669 H   0  0  0  0  0  0  0  0  0  0  0  0
    4.9480   -1.4026   -0.8143 H   0  0  0  0  0  0  0  0  0  0  0  0
    4.9810   -2.8458    0.2060 H   0  0  0  0  0  0  0  0  0  0  0  0
    3.8749   -2.7613   -1.1778 H   0  0  0  0  0  0  0  0  0  0  0  0
    4.3620   -1.5198    2.6676 N   0  0  0  0  0  0  0  0  0  0  0  0
    5.0083   -0.9576    3.8305 C   0  0  0  0  0  0  0  0  0  0  0  0
    4.2385   -2.5274    2.6348 H   0  0  0  0  0  0  0  0  0  0  0  0
    6.0942   -0.9124    3.6611 H   0  0  0  0  0  0  0  0  0  0  0  0
    4.6227    0.0570    4.0095 H   0  0  0  0  0  0  0  0  0  0  0  0
    4.7999   -1.5890    4.7068 H   0  0  0  0  0  0  0  0  0  0  0  0
 22 24  2  0  0  0  0
 24 26  1  0  0  0  0
 25 26  2  0  0  0  0
 23 25  1  0  0  0  0
 21 22  1  0  0  0  0
 22 23  1  0  0  0  0
  1  3  1  0  0  0  0
  1  7  1  0  0  0  0
  1  2  2  0  0  0  0
 35 36  1  0  0  0  0
 36 44  1  0  0  0  0
 36 37  2  0  0  0  0
  8  9  1  0  0  0  0
  9 17  1  0  0  0  0
  9 10  2  0  0  0  0
 18 19  1  0  0  0  0
 19 34  1  0  0  0  0
 19 20  2  0  0  0  0
 35 38  1  0  0  0  0
  8 11  1  0  0  0  0
 44 45  1  0  0  0  0
 18 21  1  0  0  0  0
 34 35  1  0  0  0  0
  7  8  1  0  0  0  0
 17 18  1  0  0  0  0
 24 32  1  0  0  0  0
 25 33  1  0  0  0  0
  3  4  1  0  0  0  0
  3  5  1  0  0  0  0
  3  6  1  0  0  0  0
 38 41  1  0  0  0  0
 38 42  1  0  0  0  0
 38 43  1  0  0  0  0
 11 14  1  0  0  0  0
 11 15  1  0  0  0  0
 11 16  1  0  0  0  0
 45 47  1  0  0  0  0
 45 48  1  0  0  0  0
 45 49  1  0  0  0  0
 21 29  1  0  0  0  0
 21 30  1  0  0  0  0
 35 40  1  0  0  0  0
  8 13  1  0  0  0  0
 18 28  1  0  0  0  0
 23 31  1  0  0  0  0
 44 46  1  0  0  0  0
  7 12  1  0  0  0  0
 34 39  1  0  0  0  0
 17 27  1  0  0  0  0
M  END
$$$$

  -OEChem-05262214473D

 49 49  0     1  0  0  0  0  0999 V2000
   -1.5619    0.5658    3.7981 C   0  0  0  0  0  0  0  0  0  0  0  0
   -0.6145   -0.0489    3.3224 O   0  0  0  0  0  0  0  0  0  0  0  0
   -1.9938    0.2834    5.1988 C   0  0  0  0  0  0  0  0  0  0  0  0
   -2.7535   -0.5129    5.2522 H   0  0  0  0  0  0  0  0  0  0  0  0
   -1.1626   -0.0642    5.8331 H   0  0  0  0  0  0  0  0  0  0  0  0
   -2.4318    1.1383    5.7384 H   0  0  0  0  0  0  0  0  0  0  0  0
   -2.3116    1.5383    3.1570 N   0  0  0  0  0  0  0  0  0  0  0  0
   -2.0648    1.9643    1.8046 C   0  0  2  0  0  0  0  0  0  0  0  0
   -0.7298    1.3789    1.3634 C   0  0  0  0  0  0  0  0  0  0  0  0
    0.1423    1.0262    2.1547 O   0  0  0  0  0  0  0  0  0  0  0  0
   -2.0560    3.4811    1.6952 C   0  0  0  0  0  0  0  0  0  0  0  0
   -3.0767    1.9741    3.6688 H   0  0  0  0  0  0  0  0  0  0  0  0
   -2.8689    1.5458    1.1895 H   0  0  0  0  0  0  0  0  0  0  0  0
   -1.2569    3.9183    2.3049 H   0  0  0  0  0  0  0  0  0  0  0  0
   -1.8965    3.8033    0.6609 H   0  0  0  0  0  0  0  0  0  0  0  0
   -3.0062    3.9023    2.0409 H   0  0  0  0  0  0  0  0  0  0  0  0
   -0.6071    1.3358   -0.0200 N   0  0  0  0  0  0  0  0  0  0  0  0
    0.5702    0.8350   -0.6836 C   0  0  2  0  0  0  0  0  0  0  0  0
    1.1822   -0.2264    0.2236 C   0  0  0  0  0  0  0  0  0  0  0  0
    0.6756   -0.5680    1.2901 O   0  0  0  0  0  0  0  0  0  0  0  0
    1.5895    1.9438   -0.9696 C   0  0  0  0  0  0  0  0  0  0  0  0
    1.0672    2.9827   -1.9317 C   0  0  0  0  0  0  0  0  0  0  0  0
    0.9543    2.7561   -3.2745 N   0  0  0  0  0  0  0  0  0  0  0  0
    0.6201    4.2706   -1.7533 C   0  0  0  0  0  0  0  0  0  0  0  0
    0.4538    3.8949   -3.8417 C   0  0  0  0  0  0  0  0  0  0  0  0
    0.2395    4.8329   -2.9460 N   0  0  0  0  0  0  0  0  0  0  0  0
   -1.3903    1.6325   -0.5973 H   0  0  0  0  0  0  0  0  0  0  0  0
    0.2281    0.3606   -1.6110 H   0  0  0  0  0  0  0  0  0  0  0  0
    2.5208    1.5127   -1.3612 H   0  0  0  0  0  0  0  0  0  0  0  0
    1.8761    2.4507   -0.0386 H   0  0  0  0  0  0  0  0  0  0  0  0
    1.1970    1.9038   -3.7626 H   0  0  0  0  0  0  0  0  0  0  0  0
    0.5519    4.8239   -0.8274 H   0  0  0  0  0  0  0  0  0  0  0  0
    0.2703    3.9746   -4.9038 H   0  0  0  0  0  0  0  0  0  0  0  0
    2.3314   -0.7788   -0.3248 N   0  0  0  0  0  0  0  0  0  0  0  0
    3.0952   -1.8231    0.3192 C   0  0  2  0  0  0  0  0  0  0  0  0
    3.3600   -1.3940    1.7563 C   0  0  0  0  0  0  0  0  0  0  0  0
    3.3354   -0.2204    2.1213 O   0  0  0  0  0  0  0  0  0  0  0  0
    4.3986   -2.0898   -0.4175 C   0  0  0  0  0  0  0  0  0  0  0  0
    2.6516   -0.4316   -1.2241 H   0  0  0  0  0  0  0  0  0  0  0  0
    2.4685   -2.7216    0.3153 H   0  0  0  0  0  0  0  0  0  0  0  0
    5.0398   -1.2008   -0.4241 H   0  0  0  0  0  0  0  0  0  0  0  0
    4.9627   -2.9007    0.0551 H   0  0  0  0  0  0  0  0  0  0  0  0
    4.2074   -2.3694   -1.4591 H   0  0  0  0  0  0  0  0  0  0  0  0
    3.6696   -2.4717    2.5741 N   0  0  0  0  0  0  0  0  0  0  0  0
    3.9734   -2.3229    3.9782 C   0  0  0  0  0  0  0  0  0  0  0  0
    3.6480   -3.4122    2.1909 H   0  0  0  0  0  0  0  0  0  0  0  0
    5.0604   -2.2163    4.1094 H   0  0  0  0  0  0  0  0  0  0  0  0
    3.4675   -1.4282    4.3699 H   0  0  0  0  0  0  0  0  0  0  0  0
    3.6236   -3.2109    4.5250 H   0  0  0  0  0  0  0  0  0  0  0  0
 22 24  2  0  0  0  0
 24 26  1  0  0  0  0
 25 26  2  0  0  0  0
 23 25  1  0  0  0  0
 21 22  1  0  0  0  0
 22 23  1  0  0  0  0
  1  3  1  0  0  0  0
  1  7  1  0  0  0  0
  1  2  2  0  0  0  0
 35 36  1  0  0  0  0
 36 44  1  0  0  0  0
 36 37  2  0  0  0  0
  8  9  1  0  0  0  0
  9 17  1  0  0  0  0
  9 10  2  0  0  0  0
 18 19  1  0  0  0  0
 19 34  1  0  0  0  0
 19 20  2  0  0  0  0
 35 38  1  0  0  0  0
  8 11  1  0  0  0  0
 44 45  1  0  0  0  0
 18 21  1  0  0  0  0
 34 35  1  0  0  0  0
  7  8  1  0  0  0  0
 17 18  1  0  0  0  0
 24 32  1  0  0  0  0
 25 33  1  0  0  0  0
  3  4  1  0  0  0  0
  3  5  1  0  0  0  0
  3  6  1  0  0  0  0
 38 41  1  0  0  0  0
 38 42  1  0  0  0  0
 38 43  1  0  0  0  0
 11 14  1  0  0  0  0
 11 15  1  0  0  0  0
 11 16  1  0  0  0  0
 45 47  1  0  0  0  0
 45 48  1  0  0  0  0
 45 49  1  0  0  0  0
 21 29  1  0  0  0  0
 21 30  1  0  0  0  0
 35 40  1  0  0  0  0
  8 13  1  0  0  0  0
 18 28  1  0  0  0  0
 23 31  1  0  0  0  0
 44 46  1  0  0  0  0
  7 12  1  0  0  0  0
 34 39  1  0  0  0  0
 17 27  1  0  0  0  0
M  END
$$$$

  -OEChem-05262214473D

 49 49  0     1  0  0  0  0  0999 V2000
   -1.5619    0.5658    3.7981 C   0  0  0  0  0  0  0  0  0  0  0  0
   -0.6145   -0.0489    3.3224 O   0  0  0  0  0  0  0  0  0  0  0  0
   -1.9938    0.2834    5.1988 C   0  0  0  0  0  0  0  0  0  0  0  0
   -2.7535   -0.5129    5.2522 H   0  0  0  0  0  0  0  0  0  0  0  0
   -1.1626   -0.0642    5.8331 H   0  0  0  0  0  0  0  0  0  0  0  0
   -2.4318    1.1383    5.7384 H   0  0  0  0  0  0  0  0  0  0  0  0
   -2.3116    1.5383    3.1570 N   0  0  0  0  0  0  0  0  0  0  0  0
   -2.0648    1.9643    1.8046 C   0  0  2  0  0  0  0  0  0  0  0  0
   -0.7298    1.3789    1.3634 C   0  0  0  0  0  0  0  0  0  0  0  0
    0.1423    1.0262    2.1547 O   0  0  0  0  0  0  0  0  0  0  0  0
   -2.0560    3.4811    1.6952 C   0  0  0  0  0  0  0  0  0  0  0  0
   -3.0767    1.9741    3.6688 H   0  0  0  0  0  0  0  0  0  0  0  0
   -2.8689    1.5458    1.1895 H   0  0  0  0  0  0  0  0  0  0  0  0
   -1.2569    3.9183    2.3049 H   0  0  0  0  0  0  0  0  0  0  0  0
   -1.8965    3.8033    0.6609 H   0  0  0  0  0  0  0  0  0  0  0  0
   -3.0062    3.9023    2.0409 H   0  0  0  0  0  0  0  0  0  0  0  0
   -0.6071    1.3358   -0.0200 N   0  0  0  0  0  0  0  0  0  0  0  0
    0.5702    0.8350   -0.6836 C   0  0  2  0  0  0  0  0  0  0  0  0
    1.1822   -0.2264    0.2236 C   0  0  0  0  0  0  0  0  0  0  0  0
    0.5624   -0.7611    1.1406 O   0  0  0  0  0  0  0  0  0  0  0  0
    1.5895    1.9438   -0.9696 C   0  0  0  0  0  0  0  0  0  0  0  0
    1.0672    2.9827   -1.9317 C   0  0  0  0  0  0  0  0  0  0  0  0
    0.9543    2.7561   -3.2745 N   0  0  0  0  0  0  0  0  0  0  0  0
    0.6201    4.2706   -1.7533 C   0  0  0  0  0  0  0  0  0  0  0  0
    0.4538    3.8949   -3.8417 C   0  0  0  0  0  0  0  0  0  0  0  0
    0.2395    4.8329   -2.9460 N   0  0  0  0  0  0  0  0  0  0  0  0
   -1.3903    1.6325   -0.5973 H   0  0  0  0  0  0  0  0  0  0  0  0
    0.2281    0.3606   -1.6110 H   0  0  0  0  0  0  0  0  0  0  0  0
    2.5208    1.5127   -1.3612 H   0  0  0  0  0  0  0  0  0  0  0  0
    1.8761    2.4507   -0.0386 H   0  0  0  0  0  0  0  0  0  0  0  0
    1.1970    1.9038   -3.7626 H   0  0  0  0  0  0  0  0  0  0  0  0
    0.5519    4.8239   -0.8274 H   0  0  0  0  0  0  0  0  0  0  0  0
    0.2703    3.9746   -4.9038 H   0  0  0  0  0  0  0  0  0  0  0  0
    2.4832   -0.5383   -0.1459 N   0  0  0  0  0  0  0  0  0  0  0  0
    3.2852   -1.5299    0.5340 C   0  0  2  0  0  0  0  0  0  0  0  0
    3.2251   -1.2397    2.0278 C   0  0  0  0  0  0  0  0  0  0  0  0
    2.9464   -0.1334    2.4856 O   0  0  0  0  0  0  0  0  0  0  0  0
    4.7217   -1.5167    0.0351 C   0  0  0  0  0  0  0  0  0  0  0  0
    2.8923   -0.0448   -0.9339 H   0  0  0  0  0  0  0  0  0  0  0  0
    2.8240   -2.5027    0.3315 H   0  0  0  0  0  0  0  0  0  0  0  0
    5.2003   -0.5499    0.2292 H   0  0  0  0  0  0  0  0  0  0  0  0
    5.3210   -2.2876    0.5307 H   0  0  0  0  0  0  0  0  0  0  0  0
    4.7609   -1.6960   -1.0448 H   0  0  0  0  0  0  0  0  0  0  0  0
    3.5613   -2.3503    2.7892 N   0  0  0  0  0  0  0  0  0  0  0  0
    3.5905   -2.3259    4.2330 C   0  0  0  0  0  0  0  0  0  0  0  0
    3.7601   -3.2321    2.3260 H   0  0  0  0  0  0  0  0  0  0  0  0
    4.6064   -2.0796    4.5756 H   0  0  0  0  0  0  0  0  0  0  0  0
    2.8853   -1.5662    4.6011 H   0  0  0  0  0  0  0  0  0  0  0  0
    3.3018   -3.3134    4.6222 H   0  0  0  0  0  0  0  0  0  0  0  0
 22 24  2  0  0  0  0
 24 26  1  0  0  0  0
 25 26  2  0  0  0  0
 23 25  1  0  0  0  0
 21 22  1  0  0  0  0
 22 23  1  0  0  0  0
  1  3  1  0  0  0  0
  1  7  1  0  0  0  0
  1  2  2  0  0  0  0
 35 36  1  0  0  0  0
 36 44  1  0  0  0  0
 36 37  2  0  0  0  0
  8  9  1  0  0  0  0
  9 17  1  0  0  0  0
  9 10  2  0  0  0  0
 18 19  1  0  0  0  0
 19 34  1  0  0  0  0
 19 20  2  0  0  0  0
 35 38  1  0  0  0  0
  8 11  1  0  0  0  0
 44 45  1  0  0  0  0
 18 21  1  0  0  0  0
 34 35  1  0  0  0  0
  7  8  1  0  0  0  0
 17 18  1  0  0  0  0
 24 32  1  0  0  0  0
 25 33  1  0  0  0  0
  3  4  1  0  0  0  0
  3  5  1  0  0  0  0
  3  6  1  0  0  0  0
 38 41  1  0  0  0  0
 38 42  1  0  0  0  0
 38 43  1  0  0  0  0
 11 14  1  0  0  0  0
 11 15  1  0  0  0  0
 11 16  1  0  0  0  0
 45 47  1  0  0  0  0
 45 48  1  0  0  0  0
 45 49  1  0  0  0  0
 21 29  1  0  0  0  0
 21 30  1  0  0  0  0
 35 40  1  0  0  0  0
  8 13  1  0  0  0  0
 18 28  1  0  0  0  0
 23 31  1  0  0  0  0
 44 46  1  0  0  0  0
  7 12  1  0  0  0  0
 34 39  1  0  0  0  0
 17 27  1  0  0  0  0
M  END
$$$$

  -OEChem-05262214473D

 49 49  0     1  0  0  0  0  0999 V2000
   -1.5619    0.5658    3.7981 C   0  0  0  0  0  0  0  0  0  0  0  0
   -0.6145   -0.0489    3.3224 O   0  0  0  0  0  0  0  0  0  0  0  0
   -1.9938    0.2834    5.1988 C   0  0  0  0  0  0  0  0  0  0  0  0
   -2.7535   -0.5129    5.2522 H   0  0  0  0  0  0  0  0  0  0  0  0
   -1.1626   -0.0642    5.8331 H   0  0  0  0  0  0  0  0  0  0  0  0
   -2.4318    1.1383    5.7384 H   0  0  0  0  0  0  0  0  0  0  0  0
   -2.3116    1.5383    3.1570 N   0  0  0  0  0  0  0  0  0  0  0  0
   -2.0648    1.9643    1.8046 C   0  0  2  0  0  0  0  0  0  0  0  0
   -0.7298    1.3789    1.3634 C   0  0  0  0  0  0  0  0  0  0  0  0
    0.1423    1.0262    2.1547 O   0  0  0  0  0  0  0  0  0  0  0  0
   -2.0560    3.4811    1.6952 C   0  0  0  0  0  0  0  0  0  0  0  0
   -3.0767    1.9741    3.6688 H   0  0  0  0  0  0  0  0  0  0  0  0
   -2.8689    1.5458    1.1895 H   0  0  0  0  0  0  0  0  0  0  0  0
   -1.2569    3.9183    2.3049 H   0  0  0  0  0  0  0  0  0  0  0  0
   -1.8965    3.8033    0.6609 H   0  0  0  0  0  0  0  0  0  0  0  0
   -3.0062    3.9023    2.0409 H   0  0  0  0  0  0  0  0  0  0  0  0
   -0.6071    1.3358   -0.0200 N   0  0  0  0  0  0  0  0  0  0  0  0
    0.5702    0.8350   -0.6836 C   0  0  2  0  0  0  0  0  0  0  0  0
    1.1822   -0.2264    0.2236 C   0  0  0  0  0  0  0  0  0  0  0  0
    0.5098   -0.9495    0.9556 O   0  0  0  0  0  0  0  0  0  0  0  0
    1.5895    1.9438   -0.9696 C   0  0  0  0  0  0  0  0  0  0  0  0
    1.0672    2.9827   -1.9317 C   0  0  0  0  0  0  0  0  0  0  0  0
    0.9543    2.7561   -3.2745 N   0  0  0  0  0  0  0  0  0  0  0  0
    0.6201    4.2706   -1.7533 C   0  0  0  0  0  0  0  0  0  0  0  0
    0.4538    3.8949   -3.8417 C   0  0  0  0  0  0  0  0  0  0  0  0
    0.2395    4.8329   -2.9460 N   0  0  0  0  0  0  0  0  0  0  0  0
   -1.3903    1.6325   -0.5973 H   0  0  0  0  0  0  0  0  0  0  0  0
    0.2281    0.3606   -1.6110 H   0  0  0  0  0  0  0  0  0  0  0  0
    2.5208    1.5127   -1.3612 H   0  0  0  0  0  0  0  0  0  0  0  0
    1.8761    2.4507   -0.0386 H   0  0  0  0  0  0  0  0  0  0  0  0
    1.1970    1.9038   -3.7626 H   0  0  0  0  0  0  0  0  0  0  0  0
    0.5519    4.8239   -0.8274 H   0  0  0  0  0  0  0  0  0  0  0  0
    0.2703    3.9746   -4.9038 H   0  0  0  0  0  0  0  0  0  0  0  0
    2.5606   -0.3012    0.0792 N   0  0  0  0  0  0  0  0  0  0  0  0
    3.3849   -1.2398    0.8062 C   0  0  2  0  0  0  0  0  0  0  0  0
    3.0220   -1.1397    2.2819 C   0  0  0  0  0  0  0  0  0  0  0  0
    2.4916   -0.1471    2.7764 O   0  0  0  0  0  0  0  0  0  0  0  0
    4.8640   -0.9603    0.5900 C   0  0  0  0  0  0  0  0  0  0  0  0
    3.0129    0.3357   -0.5701 H   0  0  0  0  0  0  0  0  0  0  0  0
    3.1308   -2.2383    0.4339 H   0  0  0  0  0  0  0  0  0  0  0  0
    5.1374    0.0357    0.9568 H   0  0  0  0  0  0  0  0  0  0  0  0
    5.4869   -1.6896    1.1183 H   0  0  0  0  0  0  0  0  0  0  0  0
    5.1172   -1.0034   -0.4748 H   0  0  0  0  0  0  0  0  0  0  0  0
    3.3993   -2.2720    2.9901 N   0  0  0  0  0  0  0  0  0  0  0  0
    3.1752   -2.4143    4.4098 C   0  0  0  0  0  0  0  0  0  0  0  0
    3.8162   -3.0550    2.4953 H   0  0  0  0  0  0  0  0  0  0  0  0
    4.0628   -2.0659    4.9583 H   0  0  0  0  0  0  0  0  0  0  0  0
    2.3026   -1.8133    4.7052 H   0  0  0  0  0  0  0  0  0  0  0  0
    2.9893   -3.4721    4.6474 H   0  0  0  0  0  0  0  0  0  0  0  0
 22 24  2  0  0  0  0
 24 26  1  0  0  0  0
 25 26  2  0  0  0  0
 23 25  1  0  0  0  0
 21 22  1  0  0  0  0
 22 23  1  0  0  0  0
  1  3  1  0  0  0  0
  1  7  1  0  0  0  0
  1  2  2  0  0  0  0
 35 36  1  0  0  0  0
 36 44  1  0  0  0  0
 36 37  2  0  0  0  0
  8  9  1  0  0  0  0
  9 17  1  0  0  0  0
  9 10  2  0  0  0  0
 18 19  1  0  0  0  0
 19 34  1  0  0  0  0
 19 20  2  0  0  0  0
 35 38  1  0  0  0  0
  8 11  1  0  0  0  0
 44 45  1  0  0  0  0
 18 21  1  0  0  0  0
 34 35  1  0  0  0  0
  7  8  1  0  0  0  0
 17 18  1  0  0  0  0
 24 32  1  0  0  0  0
 25 33  1  0  0  0  0
  3  4  1  0  0  0  0
  3  5  1  0  0  0  0
  3  6  1  0  0  0  0
 38 41  1  0  0  0  0
 38 42  1  0  0  0  0
 38 43  1  0  0  0  0
 11 14  1  0  0  0  0
 11 15  1  0  0  0  0
 11 16  1  0  0  0  0
 45 47  1  0  0  0  0
 45 48  1  0  0  0  0
 45 49  1  0  0  0  0
 21 29  1  0  0  0  0
 21 30  1  0  0  0  0
 35 40  1  0  0  0  0
  8 13  1  0  0  0  0
 18 28  1  0  0  0  0
 23 31  1  0  0  0  0
 44 46  1  0  0  0  0
  7 12  1  0  0  0  0
 34 39  1  0  0  0  0
 17 27  1  0  0  0  0
M  END
$$$$

  -OEChem-05262214473D

 49 49  0     1  0  0  0  0  0999 V2000
   -1.5619    0.5658    3.7981 C   0  0  0  0  0  0  0  0  0  0  0  0
   -0.6145   -0.0489    3.3224 O   0  0  0  0  0  0  0  0  0  0  0  0
   -1.9938    0.2834    5.1988 C   0  0  0  0  0  0  0  0  0  0  0  0
   -2.7535   -0.5129    5.2522 H   0  0  0  0  0  0  0  0  0  0  0  0
   -1.1626   -0.0642    5.8331 H   0  0  0  0  0  0  0  0  0  0  0  0
   -2.4318    1.1383    5.7384 H   0  0  0  0  0  0  0  0  0  0  0  0
   -2.3116    1.5383    3.1570 N   0  0  0  0  0  0  0  0  0  0  0  0
   -2.0648    1.9643    1.8046 C   0  0  2  0  0  0  0  0  0  0  0  0
   -0.7298    1.3789    1.3634 C   0  0  0  0  0  0  0  0  0  0  0  0
    0.1423    1.0262    2.1547 O   0  0  0  0  0  0  0  0  0  0  0  0
   -2.0560    3.4811    1.6952 C   0  0  0  0  0  0  0  0  0  0  0  0
   -3.0767    1.9741    3.6688 H   0  0  0  0  0  0  0  0  0  0  0  0
   -2.8689    1.5458    1.1895 H   0  0  0  0  0  0  0  0  0  0  0  0
   -1.2569    3.9183    2.3049 H   0  0  0  0  0  0  0  0  0  0  0  0
   -1.8965    3.8033    0.6609 H   0  0  0  0  0  0  0  0  0  0  0  0
   -3.0062    3.9023    2.0409 H   0  0  0  0  0  0  0  0  0  0  0  0
   -0.6071    1.3358   -0.0200 N   0  0  0  0  0  0  0  0  0  0  0  0
    0.5702    0.8350   -0.6836 C   0  0  2  0  0  0  0  0  0  0  0  0
    1.1822   -0.2264    0.2236 C   0  0  0  0  0  0  0  0  0  0  0  0
    0.5213   -1.1203    0.7480 O   0  0  0  0  0  0  0  0  0  0  0  0
    1.5895    1.9438   -0.9696 C   0  0  0  0  0  0  0  0  0  0  0  0
    1.0672    2.9827   -1.9317 C   0  0  0  0  0  0  0  0  0  0  0  0
    0.9543    2.7561   -3.2745 N   0  0  0  0  0  0  0  0  0  0  0  0
    0.6201    4.2706   -1.7533 C   0  0  0  0  0  0  0  0  0  0  0  0
    0.4538    3.8949   -3.8417 C   0  0  0  0  0  0  0  0  0  0  0  0
    0.2395    4.8329   -2.9460 N   0  0  0  0  0  0  0  0  0  0  0  0
   -1.3903    1.6325   -0.5973 H   0  0  0  0  0  0  0  0  0  0  0  0
    0.2281    0.3606   -1.6110 H   0  0  0  0  0  0  0  0  0  0  0  0
    2.5208    1.5127   -1.3612 H   0  0  0  0  0  0  0  0  0  0  0  0
    1.8761    2.4507   -0.0386 H   0  0  0  0  0  0  0  0  0  0  0  0
    1.1970    1.9038   -3.7626 H   0  0  0  0  0  0  0  0  0  0  0  0
    0.5519    4.8239   -0.8274 H   0  0  0  0  0  0  0  0  0  0  0  0
    0.2703    3.9746   -4.9038 H   0  0  0  0  0  0  0  0  0  0  0  0
    2.5583   -0.0837    0.3353 N   0  0  0  0  0  0  0  0  0  0  0  0
    3.3874   -0.9725    1.1172 C   0  0  2  0  0  0  0  0  0  0  0  0
    2.7646   -1.1007    2.5011 C   0  0  0  0  0  0  0  0  0  0  0  0
    2.0020   -0.2605    2.9739 O   0  0  0  0  0  0  0  0  0  0  0  0
    4.8157   -0.4587    1.2094 C   0  0  0  0  0  0  0  0  0  0  0  0
    3.0052    0.6840   -0.1574 H   0  0  0  0  0  0  0  0  0  0  0  0
    3.3679   -1.9462    0.6156 H   0  0  0  0  0  0  0  0  0  0  0  0
    4.8554    0.5161    1.7091 H   0  0  0  0  0  0  0  0  0  0  0  0
    5.4492   -1.1475    1.7780 H   0  0  0  0  0  0  0  0  0  0  0  0
    5.2520   -0.3388    0.2119 H   0  0  0  0  0  0  0  0  0  0  0  0
    3.1944   -2.2423    3.1631 N   0  0  0  0  0  0  0  0  0  0  0  0
    2.7558   -2.5819    4.4966 C   0  0  0  0  0  0  0  0  0  0  0  0
    3.8127   -2.8928    2.6874 H   0  0  0  0  0  0  0  0  0  0  0  0
    3.4667   -2.1762    5.2315 H   0  0  0  0  0  0  0  0  0  0  0  0
    1.7590   -2.1525    4.6751 H   0  0  0  0  0  0  0  0  0  0  0  0
    2.7074   -3.6761    4.5989 H   0  0  0  0  0  0  0  0  0  0  0  0
 22 24  2  0  0  0  0
 24 26  1  0  0  0  0
 25 26  2  0  0  0  0
 23 25  1  0  0  0  0
 21 22  1  0  0  0  0
 22 23  1  0  0  0  0
  1  3  1  0  0  0  0
  1  7  1  0  0  0  0
  1  2  2  0  0  0  0
 35 36  1  0  0  0  0
 36 44  1  0  0  0  0
 36 37  2  0  0  0  0
  8  9  1  0  0  0  0
  9 17  1  0  0  0  0
  9 10  2  0  0  0  0
 18 19  1  0  0  0  0
 19 34  1  0  0  0  0
 19 20  2  0  0  0  0
 35 38  1  0  0  0  0
  8 11  1  0  0  0  0
 44 45  1  0  0  0  0
 18 21  1  0  0  0  0
 34 35  1  0  0  0  0
  7  8  1  0  0  0  0
 17 18  1  0  0  0  0
 24 32  1  0  0  0  0
 25 33  1  0  0  0  0
  3  4  1  0  0  0  0
  3  5  1  0  0  0  0
  3  6  1  0  0  0  0
 38 41  1  0  0  0  0
 38 42  1  0  0  0  0
 38 43  1  0  0  0  0
 11 14  1  0  0  0  0
 11 15  1  0  0  0  0
 11 16  1  0  0  0  0
 45 47  1  0  0  0  0
 45 48  1  0  0  0  0
 45 49  1  0  0  0  0
 21 29  1  0  0  0  0
 21 30  1  0  0  0  0
 35 40  1  0  0  0  0
  8 13  1  0  0  0  0
 18 28  1  0  0  0  0
 23 31  1  0  0  0  0
 44 46  1  0  0  0  0
  7 12  1  0  0  0  0
 34 39  1  0  0  0  0
 17 27  1  0  0  0  0
M  END
$$$$

  -OEChem-05262214473D

 49 49  0     1  0  0  0  0  0999 V2000
   -1.5619    0.5658    3.7981 C   0  0  0  0  0  0  0  0  0  0  0  0
   -0.6145   -0.0489    3.3224 O   0  0  0  0  0  0  0  0  0  0  0  0
   -1.9938    0.2834    5.1988 C   0  0  0  0  0  0  0  0  0  0  0  0
   -2.7535   -0.5129    5.2522 H   0  0  0  0  0  0  0  0  0  0  0  0
   -1.1626   -0.0642    5.8331 H   0  0  0  0  0  0  0  0  0  0  0  0
   -2.4318    1.1383    5.7384 H   0  0  0  0  0  0  0  0  0  0  0  0
   -2.3116    1.5383    3.1570 N   0  0  0  0  0  0  0  0  0  0  0  0
   -2.0648    1.9643    1.8046 C   0  0  2  0  0  0  0  0  0  0  0  0
   -0.7298    1.3789    1.3634 C   0  0  0  0  0  0  0  0  0  0  0  0
    0.1423    1.0262    2.1547 O   0  0  0  0  0  0  0  0  0  0  0  0
   -2.0560    3.4811    1.6952 C   0  0  0  0  0  0  0  0  0  0  0  0
   -3.0767    1.9741    3.6688 H   0  0  0  0  0  0  0  0  0  0  0  0
   -2.8689    1.5458    1.1895 H   0  0  0  0  0  0  0  0  0  0  0  0
   -1.2569    3.9183    2.3049 H   0  0  0  0  0  0  0  0  0  0  0  0
   -1.8965    3.8033    0.6609 H   0  0  0  0  0  0  0  0  0  0  0  0
   -3.0062    3.9023    2.0409 H   0  0  0  0  0  0  0  0  0  0  0  0
   -0.6071    1.3358   -0.0200 N   0  0  0  0  0  0  0  0  0  0  0  0
    0.5702    0.8350   -0.6836 C   0  0  2  0  0  0  0  0  0  0  0  0
    1.1822   -0.2264    0.2236 C   0  0  0  0  0  0  0  0  0  0  0  0
    0.5962   -1.2620    0.5317 O   0  0  0  0  0  0  0  0  0  0  0  0
    1.5895    1.9438   -0.9696 C   0  0  0  0  0  0  0  0  0  0  0  0
    1.0672    2.9827   -1.9317 C   0  0  0  0  0  0  0  0  0  0  0  0
    0.9543    2.7561   -3.2745 N   0  0  0  0  0  0  0  0  0  0  0  0
    0.6201    4.2706   -1.7533 C   0  0  0  0  0  0  0  0  0  0  0  0
    0.4538    3.8949   -3.8417 C   0  0  0  0  0  0  0  0  0  0  0  0
    0.2395    4.8329   -2.9460 N   0  0  0  0  0  0  0  0  0  0  0  0
   -1.3903    1.6325   -0.5973 H   0  0  0  0  0  0  0  0  0  0  0  0
    0.2281    0.3606   -1.6110 H   0  0  0  0  0  0  0  0  0  0  0  0
    2.5208    1.5127   -1.3612 H   0  0  0  0  0  0  0  0  0  0  0  0
    1.8761    2.4507   -0.0386 H   0  0  0  0  0  0  0  0  0  0  0  0
    1.1970    1.9038   -3.7626 H   0  0  0  0  0  0  0  0  0  0  0  0
    0.5519    4.8239   -0.8274 H   0  0  0  0  0  0  0  0  0  0  0  0
    0.2703    3.9746   -4.9038 H   0  0  0  0  0  0  0  0  0  0  0  0
    2.4764    0.0994    0.6048 N   0  0  0  0  0  0  0  0  0  0  0  0
    3.2926   -0.7462    1.4458 C   0  0  2  0  0  0  0  0  0  0  0  0
    2.4705   -1.1255    2.6705 C   0  0  0  0  0  0  0  0  0  0  0  0
    1.5109   -0.4661    3.0647 O   0  0  0  0  0  0  0  0  0  0  0  0
    4.5803   -0.0459    1.8512 C   0  0  0  0  0  0  0  0  0  0  0  0
    2.8697    0.9764    0.2761 H   0  0  0  0  0  0  0  0  0  0  0  0
    3.5192   -1.6465    0.8642 H   0  0  0  0  0  0  0  0  0  0  0  0
    4.3734    0.8585    2.4348 H   0  0  0  0  0  0  0  0  0  0  0  0
    5.2105   -0.6982    2.4647 H   0  0  0  0  0  0  0  0  0  0  0  0
    5.1561    0.2526    0.9685 H   0  0  0  0  0  0  0  0  0  0  0  0
    2.9609   -2.2630    3.2964 N   0  0  0  0  0  0  0  0  0  0  0  0
    2.3609   -2.8175    4.4874 C   0  0  0  0  0  0  0  0  0  0  0  0
    3.7497   -2.7567    2.8892 H   0  0  0  0  0  0  0  0  0  0  0  0
    2.8587   -2.4029    5.3764 H   0  0  0  0  0  0  0  0  0  0  0  0
    1.2916   -2.5607    4.5128 H   0  0  0  0  0  0  0  0  0  0  0  0
    2.4752   -3.9115    4.4801 H   0  0  0  0  0  0  0  0  0  0  0  0
 22 24  2  0  0  0  0
 24 26  1  0  0  0  0
 25 26  2  0  0  0  0
 23 25  1  0  0  0  0
 21 22  1  0  0  0  0
 22 23  1  0  0  0  0
  1  3  1  0  0  0  0
  1  7  1  0  0  0  0
  1  2  2  0  0  0  0
 35 36  1  0  0  0  0
 36 44  1  0  0  0  0
 36 37  2  0  0  0  0
  8  9  1  0  0  0  0
  9 17  1  0  0  0  0
  9 10  2  0  0  0  0
 18 19  1  0  0  0  0
 19 34  1  0  0  0  0
 19 20  2  0  0  0  0
 35 38  1  0  0  0  0
  8 11  1  0  0  0  0
 44 45  1  0  0  0  0
 18 21  1  0  0  0  0
 34 35  1  0  0  0  0
  7  8  1  0  0  0  0
 17 18  1  0  0  0  0
 24 32  1  0  0  0  0
 25 33  1  0  0  0  0
  3  4  1  0  0  0  0
  3  5  1  0  0  0  0
  3  6  1  0  0  0  0
 38 41  1  0  0  0  0
 38 42  1  0  0  0  0
 38 43  1  0  0  0  0
 11 14  1  0  0  0  0
 11 15  1  0  0  0  0
 11 16  1  0  0  0  0
 45 47  1  0  0  0  0
 45 48  1  0  0  0  0
 45 49  1  0  0  0  0
 21 29  1  0  0  0  0
 21 30  1  0  0  0  0
 35 40  1  0  0  0  0
  8 13  1  0  0  0  0
 18 28  1  0  0  0  0
 23 31  1  0  0  0  0
 44 46  1  0  0  0  0
  7 12  1  0  0  0  0
 34 39  1  0  0  0  0
 17 27  1  0  0  0  0
M  END
$$$$

  -OEChem-05262214473D

 49 49  0     1  0  0  0  0  0999 V2000
   -1.5619    0.5658    3.7981 C   0  0  0  0  0  0  0  0  0  0  0  0
   -0.6145   -0.0489    3.3224 O   0  0  0  0  0  0  0  0  0  0  0  0
   -1.9938    0.2834    5.1988 C   0  0  0  0  0  0  0  0  0  0  0  0
   -2.7535   -0.5129    5.2522 H   0  0  0  0  0  0  0  0  0  0  0  0
   -1.1626   -0.0642    5.8331 H   0  0  0  0  0  0  0  0  0  0  0  0
   -2.4318    1.1383    5.7384 H   0  0  0  0  0  0  0  0  0  0  0  0
   -2.3116    1.5383    3.1570 N   0  0  0  0  0  0  0  0  0  0  0  0
   -2.0648    1.9643    1.8046 C   0  0  2  0  0  0  0  0  0  0  0  0
   -0.7298    1.3789    1.3634 C   0  0  0  0  0  0  0  0  0  0  0  0
    0.1423    1.0262    2.1547 O   0  0  0  0  0  0  0  0  0  0  0  0
   -2.0560    3.4811    1.6952 C   0  0  0  0  0  0  0  0  0  0  0  0
   -3.0767    1.9741    3.6688 H   0  0  0  0  0  0  0  0  0  0  0  0
   -2.8689    1.5458    1.1895 H   0  0  0  0  0  0  0  0  0  0  0  0
   -1.2569    3.9183    2.3049 H   0  0  0  0  0  0  0  0  0  0  0  0
   -1.8965    3.8033    0.6609 H   0  0  0  0  0  0  0  0  0  0  0  0
   -3.0062    3.9023    2.0409 H   0  0  0  0  0  0  0  0  0  0  0  0
   -0.6071    1.3358   -0.0200 N   0  0  0  0  0  0  0  0  0  0  0  0
    0.5702    0.8350   -0.6836 C   0  0  2  0  0  0  0  0  0  0  0  0
    1.1822   -0.2264    0.2236 C   0  0  0  0  0  0  0  0  0  0  0  0
    0.7293   -1.3649    0.3216 O   0  0  0  0  0  0  0  0  0  0  0  0
    1.5895    1.9438   -0.9696 C   0  0  0  0  0  0  0  0  0  0  0  0
    1.0672    2.9827   -1.9317 C   0  0  0  0  0  0  0  0  0  0  0  0
    0.9543    2.7561   -3.2745 N   0  0  0  0  0  0  0  0  0  0  0  0
    0.6201    4.2706   -1.7533 C   0  0  0  0  0  0  0  0  0  0  0  0
    0.4538    3.8949   -3.8417 C   0  0  0  0  0  0  0  0  0  0  0  0
    0.2395    4.8329   -2.9460 N   0  0  0  0  0  0  0  0  0  0  0  0
   -1.3903    1.6325   -0.5973 H   0  0  0  0  0  0  0  0  0  0  0  0
    0.2281    0.3606   -1.6110 H   0  0  0  0  0  0  0  0  0  0  0  0
    2.5208    1.5127   -1.3612 H   0  0  0  0  0  0  0  0  0  0  0  0
    1.8761    2.4507   -0.0386 H   0  0  0  0  0  0  0  0  0  0  0  0
    1.1970    1.9038   -3.7626 H   0  0  0  0  0  0  0  0  0  0  0  0
    0.5519    4.8239   -0.8274 H   0  0  0  0  0  0  0  0  0  0  0  0
    0.2703    3.9746   -4.9038 H   0  0  0  0  0  0  0  0  0  0  0  0
    2.3206    0.2357    0.8694 N   0  0  0  0  0  0  0  0  0  0  0  0
    3.1070   -0.5764    1.7697 C   0  0  2  0  0  0  0  0  0  0  0  0
    2.1597   -1.2124    2.7785 C   0  0  0  0  0  0  0  0  0  0  0  0
    1.0519   -0.7497    3.0425 O   0  0  0  0  0  0  0  0  0  0  0  0
    4.1736    0.2498    2.4715 C   0  0  0  0  0  0  0  0  0  0  0  0
    2.6157    1.1929    0.7007 H   0  0  0  0  0  0  0  0  0  0  0  0
    3.5745   -1.3594    1.1628 H   0  0  0  0  0  0  0  0  0  0  0  0
    3.7243    1.0396    3.0846 H   0  0  0  0  0  0  0  0  0  0  0  0
    4.7869   -0.3724    3.1317 H   0  0  0  0  0  0  0  0  0  0  0  0
    4.8360    0.7305    1.7435 H   0  0  0  0  0  0  0  0  0  0  0  0
    2.7144   -2.3329    3.3809 N   0  0  0  0  0  0  0  0  0  0  0  0
    2.0174   -3.1049    4.3829 C   0  0  0  0  0  0  0  0  0  0  0  0
    3.6315   -2.6559    3.0869 H   0  0  0  0  0  0  0  0  0  0  0  0
    2.2802   -2.7306    5.3833 H   0  0  0  0  0  0  0  0  0  0  0  0
    0.9323   -3.0101    4.2294 H   0  0  0  0  0  0  0  0  0  0  0  0
    2.3085   -4.1624    4.2991 H   0  0  0  0  0  0  0  0  0  0  0  0
 22 24  2  0  0  0  0
 24 26  1  0  0  0  0
 25 26  2  0  0  0  0
 23 25  1  0  0  0  0
 21 22  1  0  0  0  0
 22 23  1  0  0  0  0
  1  3  1  0  0  0  0
  1  7  1  0  0  0  0
  1  2  2  0  0  0  0
 35 36  1  0  0  0  0
 36 44  1  0  0  0  0
 36 37  2  0  0  0  0
  8  9  1  0  0  0  0
  9 17  1  0  0  0  0
  9 10  2  0  0  0  0
 18 19  1  0  0  0  0
 19 34  1  0  0  0  0
 19 20  2  0  0  0  0
 35 38  1  0  0  0  0
  8 11  1  0  0  0  0
 44 45  1  0  0  0  0
 18 21  1  0  0  0  0
 34 35  1  0  0  0  0
  7  8  1  0  0  0  0
 17 18  1  0  0  0  0
 24 32  1  0  0  0  0
 25 33  1  0  0  0  0
  3  4  1  0  0  0  0
  3  5  1  0  0  0  0
  3  6  1  0  0  0  0
 38 41  1  0  0  0  0
 38 42  1  0  0  0  0
 38 43  1  0  0  0  0
 11 14  1  0  0  0  0
 11 15  1  0  0  0  0
 11 16  1  0  0  0  0
 45 47  1  0  0  0  0
 45 48  1  0  0  0  0
 45 49  1  0  0  0  0
 21 29  1  0  0  0  0
 21 30  1  0  0  0  0
 35 40  1  0  0  0  0
  8 13  1  0  0  0  0
 18 28  1  0  0  0  0
 23 31  1  0  0  0  0
 44 46  1  0  0  0  0
  7 12  1  0  0  0  0
 34 39  1  0  0  0  0
 17 27  1  0  0  0  0
M  END
$$$$

  -OEChem-05262214473D

 49 49  0     1  0  0  0  0  0999 V2000
   -1.5619    0.5658    3.7981 C   0  0  0  0  0  0  0  0  0  0  0  0
   -0.6145   -0.0489    3.3224 O   0  0  0  0  0  0  0  0  0  0  0  0
   -1.9938    0.2834    5.1988 C   0  0  0  0  0  0  0  0  0  0  0  0
   -2.7535   -0.5129    5.2522 H   0  0  0  0  0  0  0  0  0  0  0  0
   -1.1626   -0.0642    5.8331 H   0  0  0  0  0  0  0  0  0  0  0  0
   -2.4318    1.1383    5.7384 H   0  0  0  0  0  0  0  0  0  0  0  0
   -2.3116    1.5383    3.1570 N   0  0  0  0  0  0  0  0  0  0  0  0
   -2.0648    1.9643    1.8046 C   0  0  2  0  0  0  0  0  0  0  0  0
   -0.7298    1.3789    1.3634 C   0  0  0  0  0  0  0  0  0  0  0  0
    0.1423    1.0262    2.1547 O   0  0  0  0  0  0  0  0  0  0  0  0
   -2.0560    3.4811    1.6952 C   0  0  0  0  0  0  0  0  0  0  0  0
   -3.0767    1.9741    3.6688 H   0  0  0  0  0  0  0  0  0  0  0  0
   -2.8689    1.5458    1.1895 H   0  0  0  0  0  0  0  0  0  0  0  0
   -1.2569    3.9183    2.3049 H   0  0  0  0  0  0  0  0  0  0  0  0
   -1.8965    3.8033    0.6609 H   0  0  0  0  0  0  0  0  0  0  0  0
   -3.0062    3.9023    2.0409 H   0  0  0  0  0  0  0  0  0  0  0  0
   -0.6071    1.3358   -0.0200 N   0  0  0  0  0  0  0  0  0  0  0  0
    0.5702    0.8350   -0.6836 C   0  0  2  0  0  0  0  0  0  0  0  0
    1.1822   -0.2264    0.2236 C   0  0  0  0  0  0  0  0  0  0  0  0
    0.9116   -1.4219    0.1319 O   0  0  0  0  0  0  0  0  0  0  0  0
    1.5895    1.9438   -0.9696 C   0  0  0  0  0  0  0  0  0  0  0  0
    1.0672    2.9827   -1.9317 C   0  0  0  0  0  0  0  0  0  0  0  0
    0.9543    2.7561   -3.2745 N   0  0  0  0  0  0  0  0  0  0  0  0
    0.6201    4.2706   -1.7533 C   0  0  0  0  0  0  0  0  0  0  0  0
    0.4538    3.8949   -3.8417 C   0  0  0  0  0  0  0  0  0  0  0  0
    0.2395    4.8329   -2.9460 N   0  0  0  0  0  0  0  0  0  0  0  0
   -1.3903    1.6325   -0.5973 H   0  0  0  0  0  0  0  0  0  0  0  0
    0.2281    0.3606   -1.6110 H   0  0  0  0  0  0  0  0  0  0  0  0
    2.5208    1.5127   -1.3612 H   0  0  0  0  0  0  0  0  0  0  0  0
    1.8761    2.4507   -0.0386 H   0  0  0  0  0  0  0  0  0  0  0  0
    1.1970    1.9038   -3.7626 H   0  0  0  0  0  0  0  0  0  0  0  0
    0.5519    4.8239   -0.8274 H   0  0  0  0  0  0  0  0  0  0  0  0
    0.2703    3.9746   -4.9038 H   0  0  0  0  0  0  0  0  0  0  0  0
    2.1013    0.3159    1.1110 N   0  0  0  0  0  0  0  0  0  0  0  0
    2.8433   -0.4746    2.0668 C   0  0  2  0  0  0  0  0  0  0  0  0
    1.8535   -1.3554    2.8178 C   0  0  0  0  0  0  0  0  0  0  0  0
    0.6562   -1.0921    2.9090 O   0  0  0  0  0  0  0  0  0  0  0  0
    3.6235    0.4084    3.0282 C   0  0  0  0  0  0  0  0  0  0  0  0
    2.2605    1.3188    1.0876 H   0  0  0  0  0  0  0  0  0  0  0  0
    3.5298   -1.1047    1.4909 H   0  0  0  0  0  0  0  0  0  0  0  0
    2.9523    1.0470    3.6140 H   0  0  0  0  0  0  0  0  0  0  0  0
    4.2074   -0.1922    3.7334 H   0  0  0  0  0  0  0  0  0  0  0  0
    4.3135    1.0623    2.4841 H   0  0  0  0  0  0  0  0  0  0  0  0
    2.4719   -2.4472    3.4108 N   0  0  0  0  0  0  0  0  0  0  0  0
    1.7486   -3.4246    4.1902 C   0  0  0  0  0  0  0  0  0  0  0  0
    3.4662   -2.5973    3.2670 H   0  0  0  0  0  0  0  0  0  0  0  0
    1.7706   -3.1370    5.2517 H   0  0  0  0  0  0  0  0  0  0  0  0
    0.7054   -3.4701    3.8443 H   0  0  0  0  0  0  0  0  0  0  0  0
    2.2188   -4.4115    4.0681 H   0  0  0  0  0  0  0  0  0  0  0  0
 22 24  2  0  0  0  0
 24 26  1  0  0  0  0
 25 26  2  0  0  0  0
 23 25  1  0  0  0  0
 21 22  1  0  0  0  0
 22 23  1  0  0  0  0
  1  3  1  0  0  0  0
  1  7  1  0  0  0  0
  1  2  2  0  0  0  0
 35 36  1  0  0  0  0
 36 44  1  0  0  0  0
 36 37  2  0  0  0  0
  8  9  1  0  0  0  0
  9 17  1  0  0  0  0
  9 10  2  0  0  0  0
 18 19  1  0  0  0  0
 19 34  1  0  0  0  0
 19 20  2  0  0  0  0
 35 38  1  0  0  0  0
  8 11  1  0  0  0  0
 44 45  1  0  0  0  0
 18 21  1  0  0  0  0
 34 35  1  0  0  0  0
  7  8  1  0  0  0  0
 17 18  1  0  0  0  0
 24 32  1  0  0  0  0
 25 33  1  0  0  0  0
  3  4  1  0  0  0  0
  3  5  1  0  0  0  0
  3  6  1  0  0  0  0
 38 41  1  0  0  0  0
 38 42  1  0  0  0  0
 38 43  1  0  0  0  0
 11 14  1  0  0  0  0
 11 15  1  0  0  0  0
 11 16  1  0  0  0  0
 45 47  1  0  0  0  0
 45 48  1  0  0  0  0
 45 49  1  0  0  0  0
 21 29  1  0  0  0  0
 21 30  1  0  0  0  0
 35 40  1  0  0  0  0
  8 13  1  0  0  0  0
 18 28  1  0  0  0  0
 23 31  1  0  0  0  0
 44 46  1  0  0  0  0
  7 12  1  0  0  0  0
 34 39  1  0  0  0  0
 17 27  1  0  0  0  0
M  END
$$$$

  -OEChem-05262214473D

 49 49  0     1  0  0  0  0  0999 V2000
   -1.5619    0.5658    3.7981 C   0  0  0  0  0  0  0  0  0  0  0  0
   -0.6145   -0.0489    3.3224 O   0  0  0  0  0  0  0  0  0  0  0  0
   -1.9938    0.2834    5.1988 C   0  0  0  0  0  0  0  0  0  0  0  0
   -2.7535   -0.5129    5.2522 H   0  0  0  0  0  0  0  0  0  0  0  0
   -1.1626   -0.0642    5.8331 H   0  0  0  0  0  0  0  0  0  0  0  0
   -2.4318    1.1383    5.7384 H   0  0  0  0  0  0  0  0  0  0  0  0
   -2.3116    1.5383    3.1570 N   0  0  0  0  0  0  0  0  0  0  0  0
   -2.0648    1.9643    1.8046 C   0  0  2  0  0  0  0  0  0  0  0  0
   -0.7298    1.3789    1.3634 C   0  0  0  0  0  0  0  0  0  0  0  0
    0.1423    1.0262    2.1547 O   0  0  0  0  0  0  0  0  0  0  0  0
   -2.0560    3.4811    1.6952 C   0  0  0  0  0  0  0  0  0  0  0  0
   -3.0767    1.9741    3.6688 H   0  0  0  0  0  0  0  0  0  0  0  0
   -2.8689    1.5458    1.1895 H   0  0  0  0  0  0  0  0  0  0  0  0
   -1.2569    3.9183    2.3049 H   0  0  0  0  0  0  0  0  0  0  0  0
   -1.8965    3.8033    0.6609 H   0  0  0  0  0  0  0  0  0  0  0  0
   -3.0062    3.9023    2.0409 H   0  0  0  0  0  0  0  0  0  0  0  0
   -0.6071    1.3358   -0.0200 N   0  0  0  0  0  0  0  0  0  0  0  0
    0.5702    0.8350   -0.6836 C   0  0  2  0  0  0  0  0  0  0  0  0
    1.1822   -0.2264    0.2236 C   0  0  0  0  0  0  0  0  0  0  0  0
    1.1306   -1.4292   -0.0244 O   0  0  0  0  0  0  0  0  0  0  0  0
    1.5895    1.9438   -0.9696 C   0  0  0  0  0  0  0  0  0  0  0  0
    1.0672    2.9827   -1.9317 C   0  0  0  0  0  0  0  0  0  0  0  0
    0.9543    2.7561   -3.2745 N   0  0  0  0  0  0  0  0  0  0  0  0
    0.6201    4.2706   -1.7533 C   0  0  0  0  0  0  0  0  0  0  0  0
    0.4538    3.8949   -3.8417 C   0  0  0  0  0  0  0  0  0  0  0  0
    0.2395    4.8329   -2.9460 N   0  0  0  0  0  0  0  0  0  0  0  0
   -1.3903    1.6325   -0.5973 H   0  0  0  0  0  0  0  0  0  0  0  0
    0.2281    0.3606   -1.6110 H   0  0  0  0  0  0  0  0  0  0  0  0
    2.5208    1.5127   -1.3612 H   0  0  0  0  0  0  0  0  0  0  0  0
    1.8761    2.4507   -0.0386 H   0  0  0  0  0  0  0  0  0  0  0  0
    1.1970    1.9038   -3.7626 H   0  0  0  0  0  0  0  0  0  0  0  0
    0.5519    4.8239   -0.8274 H   0  0  0  0  0  0  0  0  0  0  0  0
    0.2703    3.9746   -4.9038 H   0  0  0  0  0  0  0  0  0  0  0  0
    1.8337    0.3344    1.3133 N   0  0  0  0  0  0  0  0  0  0  0  0
    2.5193   -0.4478    2.3168 C   0  0  2  0  0  0  0  0  0  0  0  0
    1.5726   -1.5447    2.7858 C   0  0  0  0  0  0  0  0  0  0  0  0
    0.3508   -1.4698    2.6731 O   0  0  0  0  0  0  0  0  0  0  0  0
    2.9673    0.4190    3.4832 C   0  0  0  0  0  0  0  0  0  0  0  0
    1.8283    1.3455    1.4105 H   0  0  0  0  0  0  0  0  0  0  0  0
    3.3883   -0.8997    1.8263 H   0  0  0  0  0  0  0  0  0  0  0  0
    2.1102    0.8803    3.9871 H   0  0  0  0  0  0  0  0  0  0  0  0
    3.5115   -0.1699    4.2290 H   0  0  0  0  0  0  0  0  0  0  0  0
    3.6244    1.2253    3.1398 H   0  0  0  0  0  0  0  0  0  0  0  0
    2.2499   -2.5980    3.3841 N   0  0  0  0  0  0  0  0  0  0  0  0
    1.5730   -3.7548    3.9224 C   0  0  0  0  0  0  0  0  0  0  0  0
    3.2650   -2.5848    3.4173 H   0  0  0  0  0  0  0  0  0  0  0  0
    1.3647   -3.5943    4.9905 H   0  0  0  0  0  0  0  0  0  0  0  0
    0.6266   -3.9094    3.3835 H   0  0  0  0  0  0  0  0  0  0  0  0
    2.2122   -4.6420    3.8029 H   0  0  0  0  0  0  0  0  0  0  0  0
 22 24  2  0  0  0  0
 24 26  1  0  0  0  0
 25 26  2  0  0  0  0
 23 25  1  0  0  0  0
 21 22  1  0  0  0  0
 22 23  1  0  0  0  0
  1  3  1  0  0  0  0
  1  7  1  0  0  0  0
  1  2  2  0  0  0  0
 35 36  1  0  0  0  0
 36 44  1  0  0  0  0
 36 37  2  0  0  0  0
  8  9  1  0  0  0  0
  9 17  1  0  0  0  0
  9 10  2  0  0  0  0
 18 19  1  0  0  0  0
 19 34  1  0  0  0  0
 19 20  2  0  0  0  0
 35 38  1  0  0  0  0
  8 11  1  0  0  0  0
 44 45  1  0  0  0  0
 18 21  1  0  0  0  0
 34 35  1  0  0  0  0
  7  8  1  0  0  0  0
 17 18  1  0  0  0  0
 24 32  1  0  0  0  0
 25 33  1  0  0  0  0
  3  4  1  0  0  0  0
  3  5  1  0  0  0  0
  3  6  1  0  0  0  0
 38 41  1  0  0  0  0
 38 42  1  0  0  0  0
 38 43  1  0  0  0  0
 11 14  1  0  0  0  0
 11 15  1  0  0  0  0
 11 16  1  0  0  0  0
 45 47  1  0  0  0  0
 45 48  1  0  0  0  0
 45 49  1  0  0  0  0
 21 29  1  0  0  0  0
 21 30  1  0  0  0  0
 35 40  1  0  0  0  0
  8 13  1  0  0  0  0
 18 28  1  0  0  0  0
 23 31  1  0  0  0  0
 44 46  1  0  0  0  0
  7 12  1  0  0  0  0
 34 39  1  0  0  0  0
 17 27  1  0  0  0  0
M  END
$$$$

  -OEChem-05262214473D

 49 49  0     1  0  0  0  0  0999 V2000
   -1.5619    0.5658    3.7981 C   0  0  0  0  0  0  0  0  0  0  0  0
   -0.6145   -0.0489    3.3224 O   0  0  0  0  0  0  0  0  0  0  0  0
   -1.9938    0.2834    5.1988 C   0  0  0  0  0  0  0  0  0  0  0  0
   -2.7535   -0.5129    5.2522 H   0  0  0  0  0  0  0  0  0  0  0  0
   -1.1626   -0.0642    5.8331 H   0  0  0  0  0  0  0  0  0  0  0  0
   -2.4318    1.1383    5.7384 H   0  0  0  0  0  0  0  0  0  0  0  0
   -2.3116    1.5383    3.1570 N   0  0  0  0  0  0  0  0  0  0  0  0
   -2.0648    1.9643    1.8046 C   0  0  2  0  0  0  0  0  0  0  0  0
   -0.7298    1.3789    1.3634 C   0  0  0  0  0  0  0  0  0  0  0  0
    0.1423    1.0262    2.1547 O   0  0  0  0  0  0  0  0  0  0  0  0
   -2.0560    3.4811    1.6952 C   0  0  0  0  0  0  0  0  0  0  0  0
   -3.0767    1.9741    3.6688 H   0  0  0  0  0  0  0  0  0  0  0  0
   -2.8689    1.5458    1.1895 H   0  0  0  0  0  0  0  0  0  0  0  0
   -1.2569    3.9183    2.3049 H   0  0  0  0  0  0  0  0  0  0  0  0
   -1.8965    3.8033    0.6609 H   0  0  0  0  0  0  0  0  0  0  0  0
   -3.0062    3.9023    2.0409 H   0  0  0  0  0  0  0  0  0  0  0  0
   -0.6071    1.3358   -0.0200 N   0  0  0  0  0  0  0  0  0  0  0  0
    0.5702    0.8350   -0.6836 C   0  0  2  0  0  0  0  0  0  0  0  0
    1.1822   -0.2264    0.2236 C   0  0  0  0  0  0  0  0  0  0  0  0
    1.3714   -1.3862   -0.1367 O   0  0  0  0  0  0  0  0  0  0  0  0
    1.5895    1.9438   -0.9696 C   0  0  0  0  0  0  0  0  0  0  0  0
    1.0672    2.9827   -1.9317 C   0  0  0  0  0  0  0  0  0  0  0  0
    0.9543    2.7561   -3.2745 N   0  0  0  0  0  0  0  0  0  0  0  0
    0.6201    4.2706   -1.7533 C   0  0  0  0  0  0  0  0  0  0  0  0
    0.4538    3.8949   -3.8417 C   0  0  0  0  0  0  0  0  0  0  0  0
    0.2395    4.8329   -2.9460 N   0  0  0  0  0  0  0  0  0  0  0  0
   -1.3903    1.6325   -0.5973 H   0  0  0  0  0  0  0  0  0  0  0  0
    0.2281    0.3606   -1.6110 H   0  0  0  0  0  0  0  0  0  0  0  0
    2.5208    1.5127   -1.3612 H   0  0  0  0  0  0  0  0  0  0  0  0
    1.8761    2.4507   -0.0386 H   0  0  0  0  0  0  0  0  0  0  0  0
    1.1970    1.9038   -3.7626 H   0  0  0  0  0  0  0  0  0  0  0  0
    0.5519    4.8239   -0.8274 H   0  0  0  0  0  0  0  0  0  0  0  0
    0.2703    3.9746   -4.9038 H   0  0  0  0  0  0  0  0  0  0  0  0
    1.5359    0.2901    1.4624 N   0  0  0  0  0  0  0  0  0  0  0  0
    2.1571   -0.4977    2.5026 C   0  0  2  0  0  0  0  0  0  0  0  0
    1.3362   -1.7676    2.6846 C   0  0  0  0  0  0  0  0  0  0  0  0
    0.1565   -1.8572    2.3509 O   0  0  0  0  0  0  0  0  0  0  0  0
    2.2499    0.2809    3.8056 C   0  0  0  0  0  0  0  0  0  0  0  0
    1.3486    1.2712    1.6472 H   0  0  0  0  0  0  0  0  0  0  0  0
    3.1596   -0.7582    2.1460 H   0  0  0  0  0  0  0  0  0  0  0  0
    1.2551    0.5507    4.1784 H   0  0  0  0  0  0  0  0  0  0  0  0
    2.7465   -0.3070    4.5846 H   0  0  0  0  0  0  0  0  0  0  0  0
    2.8154    1.2085    3.6659 H   0  0  0  0  0  0  0  0  0  0  0  0
    2.0634   -2.7751    3.3027 N   0  0  0  0  0  0  0  0  0  0  0  0
    1.5025   -4.0729    3.5978 C   0  0  0  0  0  0  0  0  0  0  0  0
    3.0417   -2.6194    3.5275 H   0  0  0  0  0  0  0  0  0  0  0  0
    1.0901   -4.0714    4.6176 H   0  0  0  0  0  0  0  0  0  0  0  0
    0.7011   -4.2980    2.8787 H   0  0  0  0  0  0  0  0  0  0  0  0
    2.2891   -4.8381    3.5217 H   0  0  0  0  0  0  0  0  0  0  0  0
 22 24  2  0  0  0  0
 24 26  1  0  0  0  0
 25 26  2  0  0  0  0
 23 25  1  0  0  0  0
 21 22  1  0  0  0  0
 22 23  1  0  0  0  0
  1  3  1  0  0  0  0
  1  7  1  0  0  0  0
  1  2  2  0  0  0  0
 35 36  1  0  0  0  0
 36 44  1  0  0  0  0
 36 37  2  0  0  0  0
  8  9  1  0  0  0  0
  9 17  1  0  0  0  0
  9 10  2  0  0  0  0
 18 19  1  0  0  0  0
 19 34  1  0  0  0  0
 19 20  2  0  0  0  0
 35 38  1  0  0  0  0
  8 11  1  0  0  0  0
 44 45  1  0  0  0  0
 18 21  1  0  0  0  0
 34 35  1  0  0  0  0
  7  8  1  0  0  0  0
 17 18  1  0  0  0  0
 24 32  1  0  0  0  0
 25 33  1  0  0  0  0
  3  4  1  0  0  0  0
  3  5  1  0  0  0  0
  3  6  1  0  0  0  0
 38 41  1  0  0  0  0
 38 42  1  0  0  0  0
 38 43  1  0  0  0  0
 11 14  1  0  0  0  0
 11 15  1  0  0  0  0
 11 16  1  0  0  0  0
 45 47  1  0  0  0  0
 45 48  1  0  0  0  0
 45 49  1  0  0  0  0
 21 29  1  0  0  0  0
 21 30  1  0  0  0  0
 35 40  1  0  0  0  0
  8 13  1  0  0  0  0
 18 28  1  0  0  0  0
 23 31  1  0  0  0  0
 44 46  1  0  0  0  0
  7 12  1  0  0  0  0
 34 39  1  0  0  0  0
 17 27  1  0  0  0  0
M  END
$$$$

  -OEChem-05262214473D

 49 49  0     1  0  0  0  0  0999 V2000
   -1.5619    0.5658    3.7981 C   0  0  0  0  0  0  0  0  0  0  0  0
   -0.6145   -0.0489    3.3224 O   0  0  0  0  0  0  0  0  0  0  0  0
   -1.9938    0.2834    5.1988 C   0  0  0  0  0  0  0  0  0  0  0  0
   -2.7535   -0.5129    5.2522 H   0  0  0  0  0  0  0  0  0  0  0  0
   -1.1626   -0.0642    5.8331 H   0  0  0  0  0  0  0  0  0  0  0  0
   -2.4318    1.1383    5.7384 H   0  0  0  0  0  0  0  0  0  0  0  0
   -2.3116    1.5383    3.1570 N   0  0  0  0  0  0  0  0  0  0  0  0
   -2.0648    1.9643    1.8046 C   0  0  2  0  0  0  0  0  0  0  0  0
   -0.7298    1.3789    1.3634 C   0  0  0  0  0  0  0  0  0  0  0  0
    0.1423    1.0262    2.1547 O   0  0  0  0  0  0  0  0  0  0  0  0
   -2.0560    3.4811    1.6952 C   0  0  0  0  0  0  0  0  0  0  0  0
   -3.0767    1.9741    3.6688 H   0  0  0  0  0  0  0  0  0  0  0  0
   -2.8689    1.5458    1.1895 H   0  0  0  0  0  0  0  0  0  0  0  0
   -1.2569    3.9183    2.3049 H   0  0  0  0  0  0  0  0  0  0  0  0
   -1.8965    3.8033    0.6609 H   0  0  0  0  0  0  0  0  0  0  0  0
   -3.0062    3.9023    2.0409 H   0  0  0  0  0  0  0  0  0  0  0  0
   -0.6071    1.3358   -0.0200 N   0  0  0  0  0  0  0  0  0  0  0  0
    0.5702    0.8350   -0.6836 C   0  0  2  0  0  0  0  0  0  0  0  0
    1.1822   -0.2264    0.2236 C   0  0  0  0  0  0  0  0  0  0  0  0
    1.6177   -1.2960   -0.1972 O   0  0  0  0  0  0  0  0  0  0  0  0
    1.5895    1.9438   -0.9696 C   0  0  0  0  0  0  0  0  0  0  0  0
    1.0672    2.9827   -1.9317 C   0  0  0  0  0  0  0  0  0  0  0  0
    0.9543    2.7561   -3.2745 N   0  0  0  0  0  0  0  0  0  0  0  0
    0.6201    4.2706   -1.7533 C   0  0  0  0  0  0  0  0  0  0  0  0
    0.4538    3.8949   -3.8417 C   0  0  0  0  0  0  0  0  0  0  0  0
    0.2395    4.8329   -2.9460 N   0  0  0  0  0  0  0  0  0  0  0  0
   -1.3903    1.6325   -0.5973 H   0  0  0  0  0  0  0  0  0  0  0  0
    0.2281    0.3606   -1.6110 H   0  0  0  0  0  0  0  0  0  0  0  0
    2.5208    1.5127   -1.3612 H   0  0  0  0  0  0  0  0  0  0  0  0
    1.8761    2.4507   -0.0386 H   0  0  0  0  0  0  0  0  0  0  0  0
    1.1970    1.9038   -3.7626 H   0  0  0  0  0  0  0  0  0  0  0  0
    0.5519    4.8239   -0.8274 H   0  0  0  0  0  0  0  0  0  0  0  0
    0.2703    3.9746   -4.9038 H   0  0  0  0  0  0  0  0  0  0  0  0
    1.2281    0.1859    1.5481 N   0  0  0  0  0  0  0  0  0  0  0  0
    1.7815   -0.6211    2.6117 C   0  0  2  0  0  0  0  0  0  0  0  0
    1.1604   -2.0087    2.5210 C   0  0  0  0  0  0  0  0  0  0  0  0
    0.0865   -2.2279    1.9645 O   0  0  0  0  0  0  0  0  0  0  0  0
    1.5202    0.0035    3.9734 C   0  0  0  0  0  0  0  0  0  0  0  0
    0.8540    1.1009    1.7816 H   0  0  0  0  0  0  0  0  0  0  0  0
    2.8593   -0.6901    2.4284 H   0  0  0  0  0  0  0  0  0  0  0  0
    0.4455    0.0809    4.1749 H   0  0  0  0  0  0  0  0  0  0  0  0
    1.9647   -0.5943    4.7760 H   0  0  0  0  0  0  0  0  0  0  0  0
    1.9418    1.0130    4.0266 H   0  0  0  0  0  0  0  0  0  0  0  0
    1.9253   -2.9664    3.1721 N   0  0  0  0  0  0  0  0  0  0  0  0
    1.5419   -4.3573    3.2385 C   0  0  0  0  0  0  0  0  0  0  0  0
    2.8115   -2.6986    3.5901 H   0  0  0  0  0  0  0  0  0  0  0  0
    0.9655   -4.5358    4.1583 H   0  0  0  0  0  0  0  0  0  0  0  0
    0.9240   -4.6093    2.3641 H   0  0  0  0  0  0  0  0  0  0  0  0
    2.4442   -4.9864    3.2435 H   0  0  0  0  0  0  0  0  0  0  0  0
 22 24  2  0  0  0  0
 24 26  1  0  0  0  0
 25 26  2  0  0  0  0
 23 25  1  0  0  0  0
 21 22  1  0  0  0  0
 22 23  1  0  0  0  0
  1  3  1  0  0  0  0
  1  7  1  0  0  0  0
  1  2  2  0  0  0  0
 35 36  1  0  0  0  0
 36 44  1  0  0  0  0
 36 37  2  0  0  0  0
  8  9  1  0  0  0  0
  9 17  1  0  0  0  0
  9 10  2  0  0  0  0
 18 19  1  0  0  0  0
 19 34  1  0  0  0  0
 19 20  2  0  0  0  0
 35 38  1  0  0  0  0
  8 11  1  0  0  0  0
 44 45  1  0  0  0  0
 18 21  1  0  0  0  0
 34 35  1  0  0  0  0
  7  8  1  0  0  0  0
 17 18  1  0  0  0  0
 24 32  1  0  0  0  0
 25 33  1  0  0  0  0
  3  4  1  0  0  0  0
  3  5  1  0  0  0  0
  3  6  1  0  0  0  0
 38 41  1  0  0  0  0
 38 42  1  0  0  0  0
 38 43  1  0  0  0  0
 11 14  1  0  0  0  0
 11 15  1  0  0  0  0
 11 16  1  0  0  0  0
 45 47  1  0  0  0  0
 45 48  1  0  0  0  0
 45 49  1  0  0  0  0
 21 29  1  0  0  0  0
 21 30  1  0  0  0  0
 35 40  1  0  0  0  0
  8 13  1  0  0  0  0
 18 28  1  0  0  0  0
 23 31  1  0  0  0  0
 44 46  1  0  0  0  0
  7 12  1  0  0  0  0
 34 39  1  0  0  0  0
 17 27  1  0  0  0  0
M  END
$$$$

  -OEChem-05262214473D

 49 49  0     1  0  0  0  0  0999 V2000
   -1.5619    0.5658    3.7981 C   0  0  0  0  0  0  0  0  0  0  0  0
   -0.6145   -0.0489    3.3224 O   0  0  0  0  0  0  0  0  0  0  0  0
   -1.9938    0.2834    5.1988 C   0  0  0  0  0  0  0  0  0  0  0  0
   -2.7535   -0.5129    5.2522 H   0  0  0  0  0  0  0  0  0  0  0  0
   -1.1626   -0.0642    5.8331 H   0  0  0  0  0  0  0  0  0  0  0  0
   -2.4318    1.1383    5.7384 H   0  0  0  0  0  0  0  0  0  0  0  0
   -2.3116    1.5383    3.1570 N   0  0  0  0  0  0  0  0  0  0  0  0
   -2.0648    1.9643    1.8046 C   0  0  2  0  0  0  0  0  0  0  0  0
   -0.7298    1.3789    1.3634 C   0  0  0  0  0  0  0  0  0  0  0  0
    0.1423    1.0262    2.1547 O   0  0  0  0  0  0  0  0  0  0  0  0
   -2.0560    3.4811    1.6952 C   0  0  0  0  0  0  0  0  0  0  0  0
   -3.0767    1.9741    3.6688 H   0  0  0  0  0  0  0  0  0  0  0  0
   -2.8689    1.5458    1.1895 H   0  0  0  0  0  0  0  0  0  0  0  0
   -1.2569    3.9183    2.3049 H   0  0  0  0  0  0  0  0  0  0  0  0
   -1.8965    3.8033    0.6609 H   0  0  0  0  0  0  0  0  0  0  0  0
   -3.0062    3.9023    2.0409 H   0  0  0  0  0  0  0  0  0  0  0  0
   -0.6071    1.3358   -0.0200 N   0  0  0  0  0  0  0  0  0  0  0  0
    0.5702    0.8350   -0.6836 C   0  0  2  0  0  0  0  0  0  0  0  0
    1.1822   -0.2264    0.2236 C   0  0  0  0  0  0  0  0  0  0  0  0
    1.8526   -1.1646   -0.2020 O   0  0  0  0  0  0  0  0  0  0  0  0
    1.5895    1.9438   -0.9696 C   0  0  0  0  0  0  0  0  0  0  0  0
    1.0672    2.9827   -1.9317 C   0  0  0  0  0  0  0  0  0  0  0  0
    0.9543    2.7561   -3.2745 N   0  0  0  0  0  0  0  0  0  0  0  0
    0.6201    4.2706   -1.7533 C   0  0  0  0  0  0  0  0  0  0  0  0
    0.4538    3.8949   -3.8417 C   0  0  0  0  0  0  0  0  0  0  0  0
    0.2395    4.8329   -2.9460 N   0  0  0  0  0  0  0  0  0  0  0  0
   -1.3903    1.6325   -0.5973 H   0  0  0  0  0  0  0  0  0  0  0  0
    0.2281    0.3606   -1.6110 H   0  0  0  0  0  0  0  0  0  0  0  0
    2.5208    1.5127   -1.3612 H   0  0  0  0  0  0  0  0  0  0  0  0
    1.8761    2.4507   -0.0386 H   0  0  0  0  0  0  0  0  0  0  0  0
    1.1970    1.9038   -3.7626 H   0  0  0  0  0  0  0  0  0  0  0  0
    0.5519    4.8239   -0.8274 H   0  0  0  0  0  0  0  0  0  0  0  0
    0.2703    3.9746   -4.9038 H   0  0  0  0  0  0  0  0  0  0  0  0
    0.9315    0.0290    1.5646 N   0  0  0  0  0  0  0  0  0  0  0  0
    1.4181   -0.8094    2.6366 C   0  0  2  0  0  0  0  0  0  0  0  0
    1.0572   -2.2517    2.3063 C   0  0  0  0  0  0  0  0  0  0  0  0
    0.1456   -2.5565    1.5401 O   0  0  0  0  0  0  0  0  0  0  0  0
    0.8277   -0.3943    3.9752 C   0  0  0  0  0  0  0  0  0  0  0  0
    0.3782    0.8463    1.8047 H   0  0  0  0  0  0  0  0  0  0  0  0
    2.5079   -0.6998    2.6541 H   0  0  0  0  0  0  0  0  0  0  0  0
   -0.2635   -0.4973    3.9768 H   0  0  0  0  0  0  0  0  0  0  0  0
    1.2192   -1.0121    4.7901 H   0  0  0  0  0  0  0  0  0  0  0  0
    1.0631    0.6522    4.1972 H   0  0  0  0  0  0  0  0  0  0  0  0
    1.8449   -3.1589    3.0011 N   0  0  0  0  0  0  0  0  0  0  0  0
    1.6884   -4.5886    2.8690 C   0  0  0  0  0  0  0  0  0  0  0  0
    2.5900   -2.8171    3.6009 H   0  0  0  0  0  0  0  0  0  0  0  0
    0.9995   -4.9558    3.6439 H   0  0  0  0  0  0  0  0  0  0  0  0
    1.2799   -4.8223    1.8748 H   0  0  0  0  0  0  0  0  0  0  0  0
    2.6670   -5.0769    2.9873 H   0  0  0  0  0  0  0  0  0  0  0  0
 22 24  2  0  0  0  0
 24 26  1  0  0  0  0
 25 26  2  0  0  0  0
 23 25  1  0  0  0  0
 21 22  1  0  0  0  0
 22 23  1  0  0  0  0
  1  3  1  0  0  0  0
  1  7  1  0  0  0  0
  1  2  2  0  0  0  0
 35 36  1  0  0  0  0
 36 44  1  0  0  0  0
 36 37  2  0  0  0  0
  8  9  1  0  0  0  0
  9 17  1  0  0  0  0
  9 10  2  0  0  0  0
 18 19  1  0  0  0  0
 19 34  1  0  0  0  0
 19 20  2  0  0  0  0
 35 38  1  0  0  0  0
  8 11  1  0  0  0  0
 44 45  1  0  0  0  0
 18 21  1  0  0  0  0
 34 35  1  0  0  0  0
  7  8  1  0  0  0  0
 17 18  1  0  0  0  0
 24 32  1  0  0  0  0
 25 33  1  0  0  0  0
  3  4  1  0  0  0  0
  3  5  1  0  0  0  0
  3  6  1  0  0  0  0
 38 41  1  0  0  0  0
 38 42  1  0  0  0  0
 38 43  1  0  0  0  0
 11 14  1  0  0  0  0
 11 15  1  0  0  0  0
 11 16  1  0  0  0  0
 45 47  1  0  0  0  0
 45 48  1  0  0  0  0
 45 49  1  0  0  0  0
 21 29  1  0  0  0  0
 21 30  1  0  0  0  0
 35 40  1  0  0  0  0
  8 13  1  0  0  0  0
 18 28  1  0  0  0  0
 23 31  1  0  0  0  0
 44 46  1  0  0  0  0
  7 12  1  0  0  0  0
 34 39  1  0  0  0  0
 17 27  1  0  0  0  0
M  END
$$$$

  -OEChem-05262214473D

 49 49  0     1  0  0  0  0  0999 V2000
   -1.5619    0.5658    3.7981 C   0  0  0  0  0  0  0  0  0  0  0  0
   -0.6145   -0.0489    3.3224 O   0  0  0  0  0  0  0  0  0  0  0  0
   -1.9938    0.2834    5.1988 C   0  0  0  0  0  0  0  0  0  0  0  0
   -2.7535   -0.5129    5.2522 H   0  0  0  0  0  0  0  0  0  0  0  0
   -1.1626   -0.0642    5.8331 H   0  0  0  0  0  0  0  0  0  0  0  0
   -2.4318    1.1383    5.7384 H   0  0  0  0  0  0  0  0  0  0  0  0
   -2.3116    1.5383    3.1570 N   0  0  0  0  0  0  0  0  0  0  0  0
   -2.0648    1.9643    1.8046 C   0  0  2  0  0  0  0  0  0  0  0  0
   -0.7298    1.3789    1.3634 C   0  0  0  0  0  0  0  0  0  0  0  0
    0.1423    1.0262    2.1547 O   0  0  0  0  0  0  0  0  0  0  0  0
   -2.0560    3.4811    1.6952 C   0  0  0  0  0  0  0  0  0  0  0  0
   -3.0767    1.9741    3.6688 H   0  0  0  0  0  0  0  0  0  0  0  0
   -2.8689    1.5458    1.1895 H   0  0  0  0  0  0  0  0  0  0  0  0
   -1.2569    3.9183    2.3049 H   0  0  0  0  0  0  0  0  0  0  0  0
   -1.8965    3.8033    0.6609 H   0  0  0  0  0  0  0  0  0  0  0  0
   -3.0062    3.9023    2.0409 H   0  0  0  0  0  0  0  0  0  0  0  0
   -0.6071    1.3358   -0.0200 N   0  0  0  0  0  0  0  0  0  0  0  0
    0.5702    0.8350   -0.6836 C   0  0  2  0  0  0  0  0  0  0  0  0
    1.1822   -0.2264    0.2236 C   0  0  0  0  0  0  0  0  0  0  0  0
    2.0601   -1.0011   -0.1506 O   0  0  0  0  0  0  0  0  0  0  0  0
    1.5895    1.9438   -0.9696 C   0  0  0  0  0  0  0  0  0  0  0  0
    1.0672    2.9827   -1.9317 C   0  0  0  0  0  0  0  0  0  0  0  0
    0.9543    2.7561   -3.2745 N   0  0  0  0  0  0  0  0  0  0  0  0
    0.6201    4.2706   -1.7533 C   0  0  0  0  0  0  0  0  0  0  0  0
    0.4538    3.8949   -3.8417 C   0  0  0  0  0  0  0  0  0  0  0  0
    0.2395    4.8329   -2.9460 N   0  0  0  0  0  0  0  0  0  0  0  0
   -1.3903    1.6325   -0.5973 H   0  0  0  0  0  0  0  0  0  0  0  0
    0.2281    0.3606   -1.6110 H   0  0  0  0  0  0  0  0  0  0  0  0
    2.5208    1.5127   -1.3612 H   0  0  0  0  0  0  0  0  0  0  0  0
    1.8761    2.4507   -0.0386 H   0  0  0  0  0  0  0  0  0  0  0  0
    1.1970    1.9038   -3.7626 H   0  0  0  0  0  0  0  0  0  0  0  0
    0.5519    4.8239   -0.8274 H   0  0  0  0  0  0  0  0  0  0  0  0
    0.2703    3.9746   -4.9038 H   0  0  0  0  0  0  0  0  0  0  0  0
    0.6662   -0.1700    1.5108 N   0  0  0  0  0  0  0  0  0  0  0  0
    1.0915   -1.0499    2.5755 C   0  0  2  0  0  0  0  0  0  0  0  0
    1.0337   -2.4800    2.0551 C   0  0  0  0  0  0  0  0  0  0  0  0
    0.3298   -2.8208    1.1067 O   0  0  0  0  0  0  0  0  0  0  0  0
    0.2199   -0.8853    3.8108 C   0  0  0  0  0  0  0  0  0  0  0  0
   -0.0463    0.5247    1.7148 H   0  0  0  0  0  0  0  0  0  0  0  0
    2.1292   -0.7868    2.8077 H   0  0  0  0  0  0  0  0  0  0  0  0
   -0.8236   -1.1444    3.5976 H   0  0  0  0  0  0  0  0  0  0  0  0
    0.5610   -1.5319    4.6261 H   0  0  0  0  0  0  0  0  0  0  0  0
    0.2391    0.1506    4.1662 H   0  0  0  0  0  0  0  0  0  0  0  0
    1.8277   -3.3395    2.8015 N   0  0  0  0  0  0  0  0  0  0  0  0
    1.9322   -4.7511    2.5144 C   0  0  0  0  0  0  0  0  0  0  0  0
    2.3924   -2.9668    3.5591 H   0  0  0  0  0  0  0  0  0  0  0  0
    1.1897   -5.3028    3.1096 H   0  0  0  0  0  0  0  0  0  0  0  0
    1.7446   -4.9224    1.4442 H   0  0  0  0  0  0  0  0  0  0  0  0
    2.9423   -5.1034    2.7706 H   0  0  0  0  0  0  0  0  0  0  0  0
 22 24  2  0  0  0  0
 24 26  1  0  0  0  0
 25 26  2  0  0  0  0
 23 25  1  0  0  0  0
 21 22  1  0  0  0  0
 22 23  1  0  0  0  0
  1  3  1  0  0  0  0
  1  7  1  0  0  0  0
  1  2  2  0  0  0  0
 35 36  1  0  0  0  0
 36 44  1  0  0  0  0
 36 37  2  0  0  0  0
  8  9  1  0  0  0  0
  9 17  1  0  0  0  0
  9 10  2  0  0  0  0
 18 19  1  0  0  0  0
 19 34  1  0  0  0  0
 19 20  2  0  0  0  0
 35 38  1  0  0  0  0
  8 11  1  0  0  0  0
 44 45  1  0  0  0  0
 18 21  1  0  0  0  0
 34 35  1  0  0  0  0
  7  8  1  0  0  0  0
 17 18  1  0  0  0  0
 24 32  1  0  0  0  0
 25 33  1  0  0  0  0
  3  4  1  0  0  0  0
  3  5  1  0  0  0  0
  3  6  1  0  0  0  0
 38 41  1  0  0  0  0
 38 42  1  0  0  0  0
 38 43  1  0  0  0  0
 11 14  1  0  0  0  0
 11 15  1  0  0  0  0
 11 16  1  0  0  0  0
 45 47  1  0  0  0  0
 45 48  1  0  0  0  0
 45 49  1  0  0  0  0
 21 29  1  0  0  0  0
 21 30  1  0  0  0  0
 35 40  1  0  0  0  0
  8 13  1  0  0  0  0
 18 28  1  0  0  0  0
 23 31  1  0  0  0  0
 44 46  1  0  0  0  0
  7 12  1  0  0  0  0
 34 39  1  0  0  0  0
 17 27  1  0  0  0  0
M  END
$$$$

  -OEChem-05262214473D

 49 49  0     1  0  0  0  0  0999 V2000
   -1.5619    0.5658    3.7981 C   0  0  0  0  0  0  0  0  0  0  0  0
   -0.6145   -0.0489    3.3224 O   0  0  0  0  0  0  0  0  0  0  0  0
   -1.9938    0.2834    5.1988 C   0  0  0  0  0  0  0  0  0  0  0  0
   -2.7535   -0.5129    5.2522 H   0  0  0  0  0  0  0  0  0  0  0  0
   -1.1626   -0.0642    5.8331 H   0  0  0  0  0  0  0  0  0  0  0  0
   -2.4318    1.1383    5.7384 H   0  0  0  0  0  0  0  0  0  0  0  0
   -2.3116    1.5383    3.1570 N   0  0  0  0  0  0  0  0  0  0  0  0
   -2.0648    1.9643    1.8046 C   0  0  2  0  0  0  0  0  0  0  0  0
   -0.7298    1.3789    1.3634 C   0  0  0  0  0  0  0  0  0  0  0  0
    0.1423    1.0262    2.1547 O   0  0  0  0  0  0  0  0  0  0  0  0
   -2.0560    3.4811    1.6952 C   0  0  0  0  0  0  0  0  0  0  0  0
   -3.0767    1.9741    3.6688 H   0  0  0  0  0  0  0  0  0  0  0  0
   -2.8689    1.5458    1.1895 H   0  0  0  0  0  0  0  0  0  0  0  0
   -1.2569    3.9183    2.3049 H   0  0  0  0  0  0  0  0  0  0  0  0
   -1.8965    3.8033    0.6609 H   0  0  0  0  0  0  0  0  0  0  0  0
   -3.0062    3.9023    2.0409 H   0  0  0  0  0  0  0  0  0  0  0  0
   -0.6071    1.3358   -0.0200 N   0  0  0  0  0  0  0  0  0  0  0  0
    0.5702    0.8350   -0.6836 C   0  0  2  0  0  0  0  0  0  0  0  0
    1.1822   -0.2264    0.2236 C   0  0  0  0  0  0  0  0  0  0  0  0
    2.2261   -0.8165   -0.0466 O   0  0  0  0  0  0  0  0  0  0  0  0
    1.5895    1.9438   -0.9696 C   0  0  0  0  0  0  0  0  0  0  0  0
    1.0672    2.9827   -1.9317 C   0  0  0  0  0  0  0  0  0  0  0  0
    0.9543    2.7561   -3.2745 N   0  0  0  0  0  0  0  0  0  0  0  0
    0.6201    4.2706   -1.7533 C   0  0  0  0  0  0  0  0  0  0  0  0
    0.4538    3.8949   -3.8417 C   0  0  0  0  0  0  0  0  0  0  0  0
    0.2395    4.8329   -2.9460 N   0  0  0  0  0  0  0  0  0  0  0  0
   -1.3903    1.6325   -0.5973 H   0  0  0  0  0  0  0  0  0  0  0  0
    0.2281    0.3606   -1.6110 H   0  0  0  0  0  0  0  0  0  0  0  0
    2.5208    1.5127   -1.3612 H   0  0  0  0  0  0  0  0  0  0  0  0
    1.8761    2.4507   -0.0386 H   0  0  0  0  0  0  0  0  0  0  0  0
    1.1970    1.9038   -3.7626 H   0  0  0  0  0  0  0  0  0  0  0  0
    0.5519    4.8239   -0.8274 H   0  0  0  0  0  0  0  0  0  0  0  0
    0.2703    3.9746   -4.9038 H   0  0  0  0  0  0  0  0  0  0  0  0
    0.4502   -0.3974    1.3904 N   0  0  0  0  0  0  0  0  0  0  0  0
    0.8241   -1.3261    2.4327 C   0  0  2  0  0  0  0  0  0  0  0  0
    1.0914   -2.6781    1.7845 C   0  0  0  0  0  0  0  0  0  0  0  0
    0.6265   -3.0026    0.6938 O   0  0  0  0  0  0  0  0  0  0  0  0
   -0.2620   -1.4362    3.4914 C   0  0  0  0  0  0  0  0  0  0  0  0
   -0.3905    0.1580    1.5181 H   0  0  0  0  0  0  0  0  0  0  0  0
    1.7492   -0.9451    2.8789 H   0  0  0  0  0  0  0  0  0  0  0  0
   -1.1967   -1.8164    3.0631 H   0  0  0  0  0  0  0  0  0  0  0  0
    0.0348   -2.1183    4.2950 H   0  0  0  0  0  0  0  0  0  0  0  0
   -0.4739   -0.4576    3.9357 H   0  0  0  0  0  0  0  0  0  0  0  0
    1.8748   -3.4958    2.5868 N   0  0  0  0  0  0  0  0  0  0  0  0
    2.2566   -4.8337    2.1990 C   0  0  0  0  0  0  0  0  0  0  0  0
    2.2321   -3.1375    3.4675 H   0  0  0  0  0  0  0  0  0  0  0  0
    1.5232   -5.5532    2.5917 H   0  0  0  0  0  0  0  0  0  0  0  0
    2.2865   -4.9027    1.1016 H   0  0  0  0  0  0  0  0  0  0  0  0
    3.2514   -5.0640    2.6081 H   0  0  0  0  0  0  0  0  0  0  0  0
 22 24  2  0  0  0  0
 24 26  1  0  0  0  0
 25 26  2  0  0  0  0
 23 25  1  0  0  0  0
 21 22  1  0  0  0  0
 22 23  1  0  0  0  0
  1  3  1  0  0  0  0
  1  7  1  0  0  0  0
  1  2  2  0  0  0  0
 35 36  1  0  0  0  0
 36 44  1  0  0  0  0
 36 37  2  0  0  0  0
  8  9  1  0  0  0  0
  9 17  1  0  0  0  0
  9 10  2  0  0  0  0
 18 19  1  0  0  0  0
 19 34  1  0  0  0  0
 19 20  2  0  0  0  0
 35 38  1  0  0  0  0
  8 11  1  0  0  0  0
 44 45  1  0  0  0  0
 18 21  1  0  0  0  0
 34 35  1  0  0  0  0
  7  8  1  0  0  0  0
 17 18  1  0  0  0  0
 24 32  1  0  0  0  0
 25 33  1  0  0  0  0
  3  4  1  0  0  0  0
  3  5  1  0  0  0  0
  3  6  1  0  0  0  0
 38 41  1  0  0  0  0
 38 42  1  0  0  0  0
 38 43  1  0  0  0  0
 11 14  1  0  0  0  0
 11 15  1  0  0  0  0
 11 16  1  0  0  0  0
 45 47  1  0  0  0  0
 45 48  1  0  0  0  0
 45 49  1  0  0  0  0
 21 29  1  0  0  0  0
 21 30  1  0  0  0  0
 35 40  1  0  0  0  0
  8 13  1  0  0  0  0
 18 28  1  0  0  0  0
 23 31  1  0  0  0  0
 44 46  1  0  0  0  0
  7 12  1  0  0  0  0
 34 39  1  0  0  0  0
 17 27  1  0  0  0  0
M  END
$$$$

  -OEChem-05262214473D

 49 49  0     1  0  0  0  0  0999 V2000
   -1.5619    0.5658    3.7981 C   0  0  0  0  0  0  0  0  0  0  0  0
   -0.6145   -0.0489    3.3224 O   0  0  0  0  0  0  0  0  0  0  0  0
   -1.9938    0.2834    5.1988 C   0  0  0  0  0  0  0  0  0  0  0  0
   -2.7535   -0.5129    5.2522 H   0  0  0  0  0  0  0  0  0  0  0  0
   -1.1626   -0.0642    5.8331 H   0  0  0  0  0  0  0  0  0  0  0  0
   -2.4318    1.1383    5.7384 H   0  0  0  0  0  0  0  0  0  0  0  0
   -2.3116    1.5383    3.1570 N   0  0  0  0  0  0  0  0  0  0  0  0
   -2.0648    1.9643    1.8046 C   0  0  2  0  0  0  0  0  0  0  0  0
   -0.7298    1.3789    1.3634 C   0  0  0  0  0  0  0  0  0  0  0  0
    0.1423    1.0262    2.1547 O   0  0  0  0  0  0  0  0  0  0  0  0
   -2.0560    3.4811    1.6952 C   0  0  0  0  0  0  0  0  0  0  0  0
   -3.0767    1.9741    3.6688 H   0  0  0  0  0  0  0  0  0  0  0  0
   -2.8689    1.5458    1.1895 H   0  0  0  0  0  0  0  0  0  0  0  0
   -1.2569    3.9183    2.3049 H   0  0  0  0  0  0  0  0  0  0  0  0
   -1.8965    3.8033    0.6609 H   0  0  0  0  0  0  0  0  0  0  0  0
   -3.0062    3.9023    2.0409 H   0  0  0  0  0  0  0  0  0  0  0  0
   -0.6071    1.3358   -0.0200 N   0  0  0  0  0  0  0  0  0  0  0  0
    0.5702    0.8350   -0.6836 C   0  0  2  0  0  0  0  0  0  0  0  0
    1.1822   -0.2264    0.2236 C   0  0  0  0  0  0  0  0  0  0  0  0
    2.3392   -0.6234    0.1029 O   0  0  0  0  0  0  0  0  0  0  0  0
    1.5895    1.9438   -0.9696 C   0  0  0  0  0  0  0  0  0  0  0  0
    1.0672    2.9827   -1.9317 C   0  0  0  0  0  0  0  0  0  0  0  0
    0.9543    2.7561   -3.2745 N   0  0  0  0  0  0  0  0  0  0  0  0
    0.6201    4.2706   -1.7533 C   0  0  0  0  0  0  0  0  0  0  0  0
    0.4538    3.8949   -3.8417 C   0  0  0  0  0  0  0  0  0  0  0  0
    0.2395    4.8329   -2.9460 N   0  0  0  0  0  0  0  0  0  0  0  0
   -1.3903    1.6325   -0.5973 H   0  0  0  0  0  0  0  0  0  0  0  0
    0.2281    0.3606   -1.6110 H   0  0  0  0  0  0  0  0  0  0  0  0
    2.5208    1.5127   -1.3612 H   0  0  0  0  0  0  0  0  0  0  0  0
    1.8761    2.4507   -0.0386 H   0  0  0  0  0  0  0  0  0  0  0  0
    1.1970    1.9038   -3.7626 H   0  0  0  0  0  0  0  0  0  0  0  0
    0.5519    4.8239   -0.8274 H   0  0  0  0  0  0  0  0  0  0  0  0
    0.2703    3.9746   -4.9038 H   0  0  0  0  0  0  0  0  0  0  0  0
    0.2984   -0.6379    1.2115 N   0  0  0  0  0  0  0  0  0  0  0  0
    0.6341   -1.6193    2.2179 C   0  0  2  0  0  0  0  0  0  0  0  0
    1.2264   -2.8324    1.5129 C   0  0  0  0  0  0  0  0  0  0  0  0
    1.0155   -3.0897    0.3295 O   0  0  0  0  0  0  0  0  0  0  0  0
   -0.5852   -2.0093    3.0389 C   0  0  0  0  0  0  0  0  0  0  0  0
   -0.6312   -0.2288    1.2279 H   0  0  0  0  0  0  0  0  0  0  0  0
    1.3937   -1.1639    2.8627 H   0  0  0  0  0  0  0  0  0  0  0  0
   -1.3572   -2.4673    2.4098 H   0  0  0  0  0  0  0  0  0  0  0  0
   -0.3235   -2.7314    3.8194 H   0  0  0  0  0  0  0  0  0  0  0  0
   -1.0274   -1.1310    3.5213 H   0  0  0  0  0  0  0  0  0  0  0  0
    1.9831   -3.6173    2.3716 N   0  0  0  0  0  0  0  0  0  0  0  0
    2.6395   -4.8307    1.9442 C   0  0  0  0  0  0  0  0  0  0  0  0
    2.1200   -3.3175    3.3325 H   0  0  0  0  0  0  0  0  0  0  0  0
    1.9771   -5.6899    2.1255 H   0  0  0  0  0  0  0  0  0  0  0  0
    2.8687   -4.7647    0.8703 H   0  0  0  0  0  0  0  0  0  0  0  0
    3.5732   -4.9615    2.5110 H   0  0  0  0  0  0  0  0  0  0  0  0
 22 24  2  0  0  0  0
 24 26  1  0  0  0  0
 25 26  2  0  0  0  0
 23 25  1  0  0  0  0
 21 22  1  0  0  0  0
 22 23  1  0  0  0  0
  1  3  1  0  0  0  0
  1  7  1  0  0  0  0
  1  2  2  0  0  0  0
 35 36  1  0  0  0  0
 36 44  1  0  0  0  0
 36 37  2  0  0  0  0
  8  9  1  0  0  0  0
  9 17  1  0  0  0  0
  9 10  2  0  0  0  0
 18 19  1  0  0  0  0
 19 34  1  0  0  0  0
 19 20  2  0  0  0  0
 35 38  1  0  0  0  0
  8 11  1  0  0  0  0
 44 45  1  0  0  0  0
 18 21  1  0  0  0  0
 34 35  1  0  0  0  0
  7  8  1  0  0  0  0
 17 18  1  0  0  0  0
 24 32  1  0  0  0  0
 25 33  1  0  0  0  0
  3  4  1  0  0  0  0
  3  5  1  0  0  0  0
  3  6  1  0  0  0  0
 38 41  1  0  0  0  0
 38 42  1  0  0  0  0
 38 43  1  0  0  0  0
 11 14  1  0  0  0  0
 11 15  1  0  0  0  0
 11 16  1  0  0  0  0
 45 47  1  0  0  0  0
 45 48  1  0  0  0  0
 45 49  1  0  0  0  0
 21 29  1  0  0  0  0
 21 30  1  0  0  0  0
 35 40  1  0  0  0  0
  8 13  1  0  0  0  0
 18 28  1  0  0  0  0
 23 31  1  0  0  0  0
 44 46  1  0  0  0  0
  7 12  1  0  0  0  0
 34 39  1  0  0  0  0
 17 27  1  0  0  0  0
M  END
$$$$

  -OEChem-05262214473D

 49 49  0     1  0  0  0  0  0999 V2000
   -1.5619    0.5658    3.7981 C   0  0  0  0  0  0  0  0  0  0  0  0
   -0.6145   -0.0489    3.3224 O   0  0  0  0  0  0  0  0  0  0  0  0
   -1.9938    0.2834    5.1988 C   0  0  0  0  0  0  0  0  0  0  0  0
   -2.7535   -0.5129    5.2522 H   0  0  0  0  0  0  0  0  0  0  0  0
   -1.1626   -0.0642    5.8331 H   0  0  0  0  0  0  0  0  0  0  0  0
   -2.4318    1.1383    5.7384 H   0  0  0  0  0  0  0  0  0  0  0  0
   -2.3116    1.5383    3.1570 N   0  0  0  0  0  0  0  0  0  0  0  0
   -2.0648    1.9643    1.8046 C   0  0  2  0  0  0  0  0  0  0  0  0
   -0.7298    1.3789    1.3634 C   0  0  0  0  0  0  0  0  0  0  0  0
    0.1423    1.0262    2.1547 O   0  0  0  0  0  0  0  0  0  0  0  0
   -2.0560    3.4811    1.6952 C   0  0  0  0  0  0  0  0  0  0  0  0
   -3.0767    1.9741    3.6688 H   0  0  0  0  0  0  0  0  0  0  0  0
   -2.8689    1.5458    1.1895 H   0  0  0  0  0  0  0  0  0  0  0  0
   -1.2569    3.9183    2.3049 H   0  0  0  0  0  0  0  0  0  0  0  0
   -1.8965    3.8033    0.6609 H   0  0  0  0  0  0  0  0  0  0  0  0
   -3.0062    3.9023    2.0409 H   0  0  0  0  0  0  0  0  0  0  0  0
   -0.6071    1.3358   -0.0200 N   0  0  0  0  0  0  0  0  0  0  0  0
    0.5702    0.8350   -0.6836 C   0  0  2  0  0  0  0  0  0  0  0  0
    1.1822   -0.2264    0.2236 C   0  0  0  0  0  0  0  0  0  0  0  0
    2.3919   -0.4350    0.2879 O   0  0  0  0  0  0  0  0  0  0  0  0
    1.5895    1.9438   -0.9696 C   0  0  0  0  0  0  0  0  0  0  0  0
    1.0672    2.9827   -1.9317 C   0  0  0  0  0  0  0  0  0  0  0  0
    0.9543    2.7561   -3.2745 N   0  0  0  0  0  0  0  0  0  0  0  0
    0.6201    4.2706   -1.7533 C   0  0  0  0  0  0  0  0  0  0  0  0
    0.4538    3.8949   -3.8417 C   0  0  0  0  0  0  0  0  0  0  0  0
    0.2395    4.8329   -2.9460 N   0  0  0  0  0  0  0  0  0  0  0  0
   -1.3903    1.6325   -0.5973 H   0  0  0  0  0  0  0  0  0  0  0  0
    0.2281    0.3606   -1.6110 H   0  0  0  0  0  0  0  0  0  0  0  0
    2.5208    1.5127   -1.3612 H   0  0  0  0  0  0  0  0  0  0  0  0
    1.8761    2.4507   -0.0386 H   0  0  0  0  0  0  0  0  0  0  0  0
    1.1970    1.9038   -3.7626 H   0  0  0  0  0  0  0  0  0  0  0  0
    0.5519    4.8239   -0.8274 H   0  0  0  0  0  0  0  0  0  0  0  0
    0.2703    3.9746   -4.9038 H   0  0  0  0  0  0  0  0  0  0  0  0
    0.2210   -0.8750    0.9863 N   0  0  0  0  0  0  0  0  0  0  0  0
    0.5344   -1.9094    1.9458 C   0  0  2  0  0  0  0  0  0  0  0  0
    1.4295   -2.9324    1.2588 C   0  0  0  0  0  0  0  0  0  0  0  0
    1.4703   -3.0760    0.0387 O   0  0  0  0  0  0  0  0  0  0  0  0
   -0.7274   -2.5657    2.4840 C   0  0  0  0  0  0  0  0  0  0  0  0
   -0.7518   -0.6093    0.8641 H   0  0  0  0  0  0  0  0  0  0  0  0
    1.0869   -1.4284    2.7603 H   0  0  0  0  0  0  0  0  0  0  0  0
   -1.2943   -3.0529    1.6823 H   0  0  0  0  0  0  0  0  0  0  0  0
   -0.4895   -3.3294    3.2318 H   0  0  0  0  0  0  0  0  0  0  0  0
   -1.3837   -1.8236    2.9514 H   0  0  0  0  0  0  0  0  0  0  0  0
    2.1452   -3.6955    2.1707 N   0  0  0  0  0  0  0  0  0  0  0  0
    3.0548   -4.7423    1.7674 C   0  0  0  0  0  0  0  0  0  0  0  0
    2.0639   -3.4947    3.1631 H   0  0  0  0  0  0  0  0  0  0  0  0
    2.5207   -5.7036    1.7428 H   0  0  0  0  0  0  0  0  0  0  0  0
    3.4514   -4.5176    0.7662 H   0  0  0  0  0  0  0  0  0  0  0  0
    3.8857   -4.8029    2.4857 H   0  0  0  0  0  0  0  0  0  0  0  0
 22 24  2  0  0  0  0
 24 26  1  0  0  0  0
 25 26  2  0  0  0  0
 23 25  1  0  0  0  0
 21 22  1  0  0  0  0
 22 23  1  0  0  0  0
  1  3  1  0  0  0  0
  1  7  1  0  0  0  0
  1  2  2  0  0  0  0
 35 36  1  0  0  0  0
 36 44  1  0  0  0  0
 36 37  2  0  0  0  0
  8  9  1  0  0  0  0
  9 17  1  0  0  0  0
  9 10  2  0  0  0  0
 18 19  1  0  0  0  0
 19 34  1  0  0  0  0
 19 20  2  0  0  0  0
 35 38  1  0  0  0  0
  8 11  1  0  0  0  0
 44 45  1  0  0  0  0
 18 21  1  0  0  0  0
 34 35  1  0  0  0  0
  7  8  1  0  0  0  0
 17 18  1  0  0  0  0
 24 32  1  0  0  0  0
 25 33  1  0  0  0  0
  3  4  1  0  0  0  0
  3  5  1  0  0  0  0
  3  6  1  0  0  0  0
 38 41  1  0  0  0  0
 38 42  1  0  0  0  0
 38 43  1  0  0  0  0
 11 14  1  0  0  0  0
 11 15  1  0  0  0  0
 11 16  1  0  0  0  0
 45 47  1  0  0  0  0
 45 48  1  0  0  0  0
 45 49  1  0  0  0  0
 21 29  1  0  0  0  0
 21 30  1  0  0  0  0
 35 40  1  0  0  0  0
  8 13  1  0  0  0  0
 18 28  1  0  0  0  0
 23 31  1  0  0  0  0
 44 46  1  0  0  0  0
  7 12  1  0  0  0  0
 34 39  1  0  0  0  0
 17 27  1  0  0  0  0
M  END
$$$$

  -OEChem-05262214473D

 49 49  0     1  0  0  0  0  0999 V2000
   -1.5619    0.5658    3.7981 C   0  0  0  0  0  0  0  0  0  0  0  0
   -0.6145   -0.0489    3.3224 O   0  0  0  0  0  0  0  0  0  0  0  0
   -1.9938    0.2834    5.1988 C   0  0  0  0  0  0  0  0  0  0  0  0
   -2.7535   -0.5129    5.2522 H   0  0  0  0  0  0  0  0  0  0  0  0
   -1.1626   -0.0642    5.8331 H   0  0  0  0  0  0  0  0  0  0  0  0
   -2.4318    1.1383    5.7384 H   0  0  0  0  0  0  0  0  0  0  0  0
   -2.3116    1.5383    3.1570 N   0  0  0  0  0  0  0  0  0  0  0  0
   -2.0648    1.9643    1.8046 C   0  0  2  0  0  0  0  0  0  0  0  0
   -0.7298    1.3789    1.3634 C   0  0  0  0  0  0  0  0  0  0  0  0
    0.1423    1.0262    2.1547 O   0  0  0  0  0  0  0  0  0  0  0  0
   -2.0560    3.4811    1.6952 C   0  0  0  0  0  0  0  0  0  0  0  0
   -3.0767    1.9741    3.6688 H   0  0  0  0  0  0  0  0  0  0  0  0
   -2.8689    1.5458    1.1895 H   0  0  0  0  0  0  0  0  0  0  0  0
   -1.2569    3.9183    2.3049 H   0  0  0  0  0  0  0  0  0  0  0  0
   -1.8965    3.8033    0.6609 H   0  0  0  0  0  0  0  0  0  0  0  0
   -3.0062    3.9023    2.0409 H   0  0  0  0  0  0  0  0  0  0  0  0
   -0.6071    1.3358   -0.0200 N   0  0  0  0  0  0  0  0  0  0  0  0
    0.5702    0.8350   -0.6836 C   0  0  2  0  0  0  0  0  0  0  0  0
    1.1822   -0.2264    0.2236 C   0  0  0  0  0  0  0  0  0  0  0  0
    2.3803   -0.2641    0.4955 O   0  0  0  0  0  0  0  0  0  0  0  0
    1.5895    1.9438   -0.9696 C   0  0  0  0  0  0  0  0  0  0  0  0
    1.0672    2.9827   -1.9317 C   0  0  0  0  0  0  0  0  0  0  0  0
    0.9543    2.7561   -3.2745 N   0  0  0  0  0  0  0  0  0  0  0  0
    0.6201    4.2706   -1.7533 C   0  0  0  0  0  0  0  0  0  0  0  0
    0.4538    3.8949   -3.8417 C   0  0  0  0  0  0  0  0  0  0  0  0
    0.2395    4.8329   -2.9460 N   0  0  0  0  0  0  0  0  0  0  0  0
   -1.3903    1.6325   -0.5973 H   0  0  0  0  0  0  0  0  0  0  0  0
    0.2281    0.3606   -1.6110 H   0  0  0  0  0  0  0  0  0  0  0  0
    2.5208    1.5127   -1.3612 H   0  0  0  0  0  0  0  0  0  0  0  0
    1.8761    2.4507   -0.0386 H   0  0  0  0  0  0  0  0  0  0  0  0
    1.1970    1.9038   -3.7626 H   0  0  0  0  0  0  0  0  0  0  0  0
    0.5519    4.8239   -0.8274 H   0  0  0  0  0  0  0  0  0  0  0  0
    0.2703    3.9746   -4.9038 H   0  0  0  0  0  0  0  0  0  0  0  0
    0.2233   -1.0925    0.7303 N   0  0  0  0  0  0  0  0  0  0  0  0
    0.5319   -2.1767    1.6347 C   0  0  2  0  0  0  0  0  0  0  0  0
    1.6869   -2.9713    1.0396 C   0  0  0  0  0  0  0  0  0  0  0  0
    1.9599   -2.9625   -0.1589 O   0  0  0  0  0  0  0  0  0  0  0  0
   -0.6792   -3.0673    1.8646 C   0  0  0  0  0  0  0  0  0  0  0  0
   -0.7441   -0.9576    0.4514 H   0  0  0  0  0  0  0  0  0  0  0  0
    0.8498   -1.7204    2.5786 H   0  0  0  0  0  0  0  0  0  0  0  0
   -1.0122   -3.5333    0.9300 H   0  0  0  0  0  0  0  0  0  0  0  0
   -0.4518   -3.8715    2.5721 H   0  0  0  0  0  0  0  0  0  0  0  0
   -1.5185   -2.4882    2.2647 H   0  0  0  0  0  0  0  0  0  0  0  0
    2.3500   -3.7253    1.9978 N   0  0  0  0  0  0  0  0  0  0  0  0
    3.4743   -4.5746    1.6806 C   0  0  0  0  0  0  0  0  0  0  0  0
    2.0674   -3.6568    2.9710 H   0  0  0  0  0  0  0  0  0  0  0  0
    3.1168   -5.5933    1.4697 H   0  0  0  0  0  0  0  0  0  0  0  0
    3.9950   -4.1785    0.7963 H   0  0  0  0  0  0  0  0  0  0  0  0
    4.1676   -4.5989    2.5342 H   0  0  0  0  0  0  0  0  0  0  0  0
 22 24  2  0  0  0  0
 24 26  1  0  0  0  0
 25 26  2  0  0  0  0
 23 25  1  0  0  0  0
 21 22  1  0  0  0  0
 22 23  1  0  0  0  0
  1  3  1  0  0  0  0
  1  7  1  0  0  0  0
  1  2  2  0  0  0  0
 35 36  1  0  0  0  0
 36 44  1  0  0  0  0
 36 37  2  0  0  0  0
  8  9  1  0  0  0  0
  9 17  1  0  0  0  0
  9 10  2  0  0  0  0
 18 19  1  0  0  0  0
 19 34  1  0  0  0  0
 19 20  2  0  0  0  0
 35 38  1  0  0  0  0
  8 11  1  0  0  0  0
 44 45  1  0  0  0  0
 18 21  1  0  0  0  0
 34 35  1  0  0  0  0
  7  8  1  0  0  0  0
 17 18  1  0  0  0  0
 24 32  1  0  0  0  0
 25 33  1  0  0  0  0
  3  4  1  0  0  0  0
  3  5  1  0  0  0  0
  3  6  1  0  0  0  0
 38 41  1  0  0  0  0
 38 42  1  0  0  0  0
 38 43  1  0  0  0  0
 11 14  1  0  0  0  0
 11 15  1  0  0  0  0
 11 16  1  0  0  0  0
 45 47  1  0  0  0  0
 45 48  1  0  0  0  0
 45 49  1  0  0  0  0
 21 29  1  0  0  0  0
 21 30  1  0  0  0  0
 35 40  1  0  0  0  0
  8 13  1  0  0  0  0
 18 28  1  0  0  0  0
 23 31  1  0  0  0  0
 44 46  1  0  0  0  0
  7 12  1  0  0  0  0
 34 39  1  0  0  0  0
 17 27  1  0  0  0  0
M  END
$$$$

  -OEChem-05262214473D

 49 49  0     1  0  0  0  0  0999 V2000
   -1.5619    0.5658    3.7981 C   0  0  0  0  0  0  0  0  0  0  0  0
   -0.6145   -0.0489    3.3224 O   0  0  0  0  0  0  0  0  0  0  0  0
   -1.9938    0.2834    5.1988 C   0  0  0  0  0  0  0  0  0  0  0  0
   -2.7535   -0.5129    5.2522 H   0  0  0  0  0  0  0  0  0  0  0  0
   -1.1626   -0.0642    5.8331 H   0  0  0  0  0  0  0  0  0  0  0  0
   -2.4318    1.1383    5.7384 H   0  0  0  0  0  0  0  0  0  0  0  0
   -2.3116    1.5383    3.1570 N   0  0  0  0  0  0  0  0  0  0  0  0
   -2.0648    1.9643    1.8046 C   0  0  2  0  0  0  0  0  0  0  0  0
   -0.7298    1.3789    1.3634 C   0  0  0  0  0  0  0  0  0  0  0  0
    0.1423    1.0262    2.1547 O   0  0  0  0  0  0  0  0  0  0  0  0
   -2.0560    3.4811    1.6952 C   0  0  0  0  0  0  0  0  0  0  0  0
   -3.0767    1.9741    3.6688 H   0  0  0  0  0  0  0  0  0  0  0  0
   -2.8689    1.5458    1.1895 H   0  0  0  0  0  0  0  0  0  0  0  0
   -1.2569    3.9183    2.3049 H   0  0  0  0  0  0  0  0  0  0  0  0
   -1.8965    3.8033    0.6609 H   0  0  0  0  0  0  0  0  0  0  0  0
   -3.0062    3.9023    2.0409 H   0  0  0  0  0  0  0  0  0  0  0  0
   -0.6071    1.3358   -0.0200 N   0  0  0  0  0  0  0  0  0  0  0  0
    0.5702    0.8350   -0.6836 C   0  0  2  0  0  0  0  0  0  0  0  0
    1.1822   -0.2264    0.2236 C   0  0  0  0  0  0  0  0  0  0  0  0
    2.3055   -0.1224    0.7118 O   0  0  0  0  0  0  0  0  0  0  0  0
    1.5895    1.9438   -0.9696 C   0  0  0  0  0  0  0  0  0  0  0  0
    1.0672    2.9827   -1.9317 C   0  0  0  0  0  0  0  0  0  0  0  0
    0.9543    2.7561   -3.2745 N   0  0  0  0  0  0  0  0  0  0  0  0
    0.6201    4.2706   -1.7533 C   0  0  0  0  0  0  0  0  0  0  0  0
    0.4538    3.8949   -3.8417 C   0  0  0  0  0  0  0  0  0  0  0  0
    0.2395    4.8329   -2.9460 N   0  0  0  0  0  0  0  0  0  0  0  0
   -1.3903    1.6325   -0.5973 H   0  0  0  0  0  0  0  0  0  0  0  0
    0.2281    0.3606   -1.6110 H   0  0  0  0  0  0  0  0  0  0  0  0
    2.5208    1.5127   -1.3612 H   0  0  0  0  0  0  0  0  0  0  0  0
    1.8761    2.4507   -0.0386 H   0  0  0  0  0  0  0  0  0  0  0  0
    1.1970    1.9038   -3.7626 H   0  0  0  0  0  0  0  0  0  0  0  0
    0.5519    4.8239   -0.8274 H   0  0  0  0  0  0  0  0  0  0  0  0
    0.2703    3.9746   -4.9038 H   0  0  0  0  0  0  0  0  0  0  0  0
    0.3052   -1.2757    0.4608 N   0  0  0  0  0  0  0  0  0  0  0  0
    0.6266   -2.4030    1.3061 C   0  0  2  0  0  0  0  0  0  0  0  0
    1.9809   -2.9465    0.8703 C   0  0  0  0  0  0  0  0  0  0  0  0
    2.4510   -2.7570   -0.2497 O   0  0  0  0  0  0  0  0  0  0  0  0
   -0.4437   -3.4801    1.2228 C   0  0  0  0  0  0  0  0  0  0  0  0
   -0.6086   -1.2500    0.0179 H   0  0  0  0  0  0  0  0  0  0  0  0
    0.6984   -2.0202    2.3300 H   0  0  0  0  0  0  0  0  0  0  0  0
   -0.5302   -3.8757    0.2042 H   0  0  0  0  0  0  0  0  0  0  0  0
   -0.2130   -4.3208    1.8854 H   0  0  0  0  0  0  0  0  0  0  0  0
   -1.4225   -3.0797    1.5080 H   0  0  0  0  0  0  0  0  0  0  0  0
    2.5836   -3.7045    1.8645 N   0  0  0  0  0  0  0  0  0  0  0  0
    3.8692   -4.3391    1.6898 C   0  0  0  0  0  0  0  0  0  0  0  0
    2.1304   -3.7929    2.7692 H   0  0  0  0  0  0  0  0  0  0  0  0
    3.7249   -5.3666    1.3247 H   0  0  0  0  0  0  0  0  0  0  0  0
    4.4624   -3.7702    0.9586 H   0  0  0  0  0  0  0  0  0  0  0  0
    4.3998   -4.3634    2.6530 H   0  0  0  0  0  0  0  0  0  0  0  0
 22 24  2  0  0  0  0
 24 26  1  0  0  0  0
 25 26  2  0  0  0  0
 23 25  1  0  0  0  0
 21 22  1  0  0  0  0
 22 23  1  0  0  0  0
  1  3  1  0  0  0  0
  1  7  1  0  0  0  0
  1  2  2  0  0  0  0
 35 36  1  0  0  0  0
 36 44  1  0  0  0  0
 36 37  2  0  0  0  0
  8  9  1  0  0  0  0
  9 17  1  0  0  0  0
  9 10  2  0  0  0  0
 18 19  1  0  0  0  0
 19 34  1  0  0  0  0
 19 20  2  0  0  0  0
 35 38  1  0  0  0  0
  8 11  1  0  0  0  0
 44 45  1  0  0  0  0
 18 21  1  0  0  0  0
 34 35  1  0  0  0  0
  7  8  1  0  0  0  0
 17 18  1  0  0  0  0
 24 32  1  0  0  0  0
 25 33  1  0  0  0  0
  3  4  1  0  0  0  0
  3  5  1  0  0  0  0
  3  6  1  0  0  0  0
 38 41  1  0  0  0  0
 38 42  1  0  0  0  0
 38 43  1  0  0  0  0
 11 14  1  0  0  0  0
 11 15  1  0  0  0  0
 11 16  1  0  0  0  0
 45 47  1  0  0  0  0
 45 48  1  0  0  0  0
 45 49  1  0  0  0  0
 21 29  1  0  0  0  0
 21 30  1  0  0  0  0
 35 40  1  0  0  0  0
  8 13  1  0  0  0  0
 18 28  1  0  0  0  0
 23 31  1  0  0  0  0
 44 46  1  0  0  0  0
  7 12  1  0  0  0  0
 34 39  1  0  0  0  0
 17 27  1  0  0  0  0
M  END
$$$$

  -OEChem-05262214473D

 49 49  0     1  0  0  0  0  0999 V2000
   -1.5619    0.5658    3.7981 C   0  0  0  0  0  0  0  0  0  0  0  0
   -0.6145   -0.0489    3.3224 O   0  0  0  0  0  0  0  0  0  0  0  0
   -1.9938    0.2834    5.1988 C   0  0  0  0  0  0  0  0  0  0  0  0
   -2.7535   -0.5129    5.2522 H   0  0  0  0  0  0  0  0  0  0  0  0
   -1.1626   -0.0642    5.8331 H   0  0  0  0  0  0  0  0  0  0  0  0
   -2.4318    1.1383    5.7384 H   0  0  0  0  0  0  0  0  0  0  0  0
   -2.3116    1.5383    3.1570 N   0  0  0  0  0  0  0  0  0  0  0  0
   -2.0648    1.9643    1.8046 C   0  0  2  0  0  0  0  0  0  0  0  0
   -0.7298    1.3789    1.3634 C   0  0  0  0  0  0  0  0  0  0  0  0
    0.1423    1.0262    2.1547 O   0  0  0  0  0  0  0  0  0  0  0  0
   -2.0560    3.4811    1.6952 C   0  0  0  0  0  0  0  0  0  0  0  0
   -3.0767    1.9741    3.6688 H   0  0  0  0  0  0  0  0  0  0  0  0
   -2.8689    1.5458    1.1895 H   0  0  0  0  0  0  0  0  0  0  0  0
   -1.2569    3.9183    2.3049 H   0  0  0  0  0  0  0  0  0  0  0  0
   -1.8965    3.8033    0.6609 H   0  0  0  0  0  0  0  0  0  0  0  0
   -3.0062    3.9023    2.0409 H   0  0  0  0  0  0  0  0  0  0  0  0
   -0.6071    1.3358   -0.0200 N   0  0  0  0  0  0  0  0  0  0  0  0
    0.5702    0.8350   -0.6836 C   0  0  2  0  0  0  0  0  0  0  0  0
    1.1822   -0.2264    0.2236 C   0  0  0  0  0  0  0  0  0  0  0  0
    2.1724   -0.0196    0.9219 O   0  0  0  0  0  0  0  0  0  0  0  0
    1.5895    1.9438   -0.9696 C   0  0  0  0  0  0  0  0  0  0  0  0
    1.0672    2.9827   -1.9317 C   0  0  0  0  0  0  0  0  0  0  0  0
    0.9543    2.7561   -3.2745 N   0  0  0  0  0  0  0  0  0  0  0  0
    0.6201    4.2706   -1.7533 C   0  0  0  0  0  0  0  0  0  0  0  0
    0.4538    3.8949   -3.8417 C   0  0  0  0  0  0  0  0  0  0  0  0
    0.2395    4.8329   -2.9460 N   0  0  0  0  0  0  0  0  0  0  0  0
   -1.3903    1.6325   -0.5973 H   0  0  0  0  0  0  0  0  0  0  0  0
    0.2281    0.3606   -1.6110 H   0  0  0  0  0  0  0  0  0  0  0  0
    2.5208    1.5127   -1.3612 H   0  0  0  0  0  0  0  0  0  0  0  0
    1.8761    2.4507   -0.0386 H   0  0  0  0  0  0  0  0  0  0  0  0
    1.1970    1.9038   -3.7626 H   0  0  0  0  0  0  0  0  0  0  0  0
    0.5519    4.8239   -0.8274 H   0  0  0  0  0  0  0  0  0  0  0  0
    0.2703    3.9746   -4.9038 H   0  0  0  0  0  0  0  0  0  0  0  0
    0.4610   -1.4120    0.1961 N   0  0  0  0  0  0  0  0  0  0  0  0
    0.8122   -2.5728    0.9822 C   0  0  2  0  0  0  0  0  0  0  0  0
    2.2917   -2.8597    0.7622 C   0  0  0  0  0  0  0  0  0  0  0  0
    2.9100   -2.4733   -0.2275 O   0  0  0  0  0  0  0  0  0  0  0  0
   -0.0370   -3.7758    0.6024 C   0  0  0  0  0  0  0  0  0  0  0  0
   -0.3546   -1.4665   -0.4067 H   0  0  0  0  0  0  0  0  0  0  0  0
    0.6432   -2.3072    2.0314 H   0  0  0  0  0  0  0  0  0  0  0  0
    0.1189   -4.0567   -0.4455 H   0  0  0  0  0  0  0  0  0  0  0  0
    0.2105   -4.6466    1.2184 H   0  0  0  0  0  0  0  0  0  0  0  0
   -1.1025   -3.5575    0.7330 H   0  0  0  0  0  0  0  0  0  0  0  0
    2.8300   -3.6346    1.7800 N   0  0  0  0  0  0  0  0  0  0  0  0
    4.2127   -4.0516    1.7943 C   0  0  0  0  0  0  0  0  0  0  0  0
    2.2486   -3.8937    2.5716 H   0  0  0  0  0  0  0  0  0  0  0  0
    4.3034   -5.0389    1.3178 H   0  0  0  0  0  0  0  0  0  0  0  0
    4.8217   -3.3208    1.2420 H   0  0  0  0  0  0  0  0  0  0  0  0
    4.5665   -4.1126    2.8341 H   0  0  0  0  0  0  0  0  0  0  0  0
 22 24  2  0  0  0  0
 24 26  1  0  0  0  0
 25 26  2  0  0  0  0
 23 25  1  0  0  0  0
 21 22  1  0  0  0  0
 22 23  1  0  0  0  0
  1  3  1  0  0  0  0
  1  7  1  0  0  0  0
  1  2  2  0  0  0  0
 35 36  1  0  0  0  0
 36 44  1  0  0  0  0
 36 37  2  0  0  0  0
  8  9  1  0  0  0  0
  9 17  1  0  0  0  0
  9 10  2  0  0  0  0
 18 19  1  0  0  0  0
 19 34  1  0  0  0  0
 19 20  2  0  0  0  0
 35 38  1  0  0  0  0
  8 11  1  0  0  0  0
 44 45  1  0  0  0  0
 18 21  1  0  0  0  0
 34 35  1  0  0  0  0
  7  8  1  0  0  0  0
 17 18  1  0  0  0  0
 24 32  1  0  0  0  0
 25 33  1  0  0  0  0
  3  4  1  0  0  0  0
  3  5  1  0  0  0  0
  3  6  1  0  0  0  0
 38 41  1  0  0  0  0
 38 42  1  0  0  0  0
 38 43  1  0  0  0  0
 11 14  1  0  0  0  0
 11 15  1  0  0  0  0
 11 16  1  0  0  0  0
 45 47  1  0  0  0  0
 45 48  1  0  0  0  0
 45 49  1  0  0  0  0
 21 29  1  0  0  0  0
 21 30  1  0  0  0  0
 35 40  1  0  0  0  0
  8 13  1  0  0  0  0
 18 28  1  0  0  0  0
 23 31  1  0  0  0  0
 44 46  1  0  0  0  0
  7 12  1  0  0  0  0
 34 39  1  0  0  0  0
 17 27  1  0  0  0  0
M  END
$$$$

  -OEChem-05262214473D

 49 49  0     1  0  0  0  0  0999 V2000
   -1.5619    0.5658    3.7981 C   0  0  0  0  0  0  0  0  0  0  0  0
   -0.6145   -0.0489    3.3224 O   0  0  0  0  0  0  0  0  0  0  0  0
   -1.9938    0.2834    5.1988 C   0  0  0  0  0  0  0  0  0  0  0  0
   -2.7535   -0.5129    5.2522 H   0  0  0  0  0  0  0  0  0  0  0  0
   -1.1626   -0.0642    5.8331 H   0  0  0  0  0  0  0  0  0  0  0  0
   -2.4318    1.1383    5.7384 H   0  0  0  0  0  0  0  0  0  0  0  0
   -2.3116    1.5383    3.1570 N   0  0  0  0  0  0  0  0  0  0  0  0
   -2.0648    1.9643    1.8046 C   0  0  2  0  0  0  0  0  0  0  0  0
   -0.7298    1.3789    1.3634 C   0  0  0  0  0  0  0  0  0  0  0  0
    0.1423    1.0262    2.1547 O   0  0  0  0  0  0  0  0  0  0  0  0
   -2.0560    3.4811    1.6952 C   0  0  0  0  0  0  0  0  0  0  0  0
   -3.0767    1.9741    3.6688 H   0  0  0  0  0  0  0  0  0  0  0  0
   -2.8689    1.5458    1.1895 H   0  0  0  0  0  0  0  0  0  0  0  0
   -1.2569    3.9183    2.3049 H   0  0  0  0  0  0  0  0  0  0  0  0
   -1.8965    3.8033    0.6609 H   0  0  0  0  0  0  0  0  0  0  0  0
   -3.0062    3.9023    2.0409 H   0  0  0  0  0  0  0  0  0  0  0  0
   -0.6071    1.3358   -0.0200 N   0  0  0  0  0  0  0  0  0  0  0  0
    0.5702    0.8350   -0.6836 C   0  0  2  0  0  0  0  0  0  0  0  0
    1.1822   -0.2264    0.2236 C   0  0  0  0  0  0  0  0  0  0  0  0
    1.9901    0.0374    1.1116 O   0  0  0  0  0  0  0  0  0  0  0  0
    1.5895    1.9438   -0.9696 C   0  0  0  0  0  0  0  0  0  0  0  0
    1.0672    2.9827   -1.9317 C   0  0  0  0  0  0  0  0  0  0  0  0
    0.9543    2.7561   -3.2745 N   0  0  0  0  0  0  0  0  0  0  0  0
    0.6201    4.2706   -1.7533 C   0  0  0  0  0  0  0  0  0  0  0  0
    0.4538    3.8949   -3.8417 C   0  0  0  0  0  0  0  0  0  0  0  0
    0.2395    4.8329   -2.9460 N   0  0  0  0  0  0  0  0  0  0  0  0
   -1.3903    1.6325   -0.5973 H   0  0  0  0  0  0  0  0  0  0  0  0
    0.2281    0.3606   -1.6110 H   0  0  0  0  0  0  0  0  0  0  0  0
    2.5208    1.5127   -1.3612 H   0  0  0  0  0  0  0  0  0  0  0  0
    1.8761    2.4507   -0.0386 H   0  0  0  0  0  0  0  0  0  0  0  0
    1.1970    1.9038   -3.7626 H   0  0  0  0  0  0  0  0  0  0  0  0
    0.5519    4.8239   -0.8274 H   0  0  0  0  0  0  0  0  0  0  0  0
    0.2703    3.9746   -4.9038 H   0  0  0  0  0  0  0  0  0  0  0  0
    0.6803   -1.4921   -0.0455 N   0  0  0  0  0  0  0  0  0  0  0  0
    1.0760   -2.6746    0.6852 C   0  0  2  0  0  0  0  0  0  0  0  0
    2.5980   -2.7167    0.7229 C   0  0  0  0  0  0  0  0  0  0  0  0
    3.3057   -2.1310   -0.0939 O   0  0  0  0  0  0  0  0  0  0  0  0
    0.5131   -3.9344    0.0458 C   0  0  0  0  0  0  0  0  0  0  0  0
    0.0006   -1.5924   -0.7937 H   0  0  0  0  0  0  0  0  0  0  0  0
    0.6879   -2.5619    1.7033 H   0  0  0  0  0  0  0  0  0  0  0  0
    0.8908   -4.0642   -0.9750 H   0  0  0  0  0  0  0  0  0  0  0  0
    0.7900   -4.8268    0.6166 H   0  0  0  0  0  0  0  0  0  0  0  0
   -0.5800   -3.8893   -0.0076 H   0  0  0  0  0  0  0  0  0  0  0  0
    3.0725   -3.5204    1.7501 N   0  0  0  0  0  0  0  0  0  0  0  0
    4.4814   -3.7320    1.9870 C   0  0  0  0  0  0  0  0  0  0  0  0
    2.4139   -3.9524    2.3914 H   0  0  0  0  0  0  0  0  0  0  0  0
    4.8130   -4.6326    1.4494 H   0  0  0  0  0  0  0  0  0  0  0  0
    5.0485   -2.8608    1.6272 H   0  0  0  0  0  0  0  0  0  0  0  0
    4.6562   -3.8634    3.0650 H   0  0  0  0  0  0  0  0  0  0  0  0
 22 24  2  0  0  0  0
 24 26  1  0  0  0  0
 25 26  2  0  0  0  0
 23 25  1  0  0  0  0
 21 22  1  0  0  0  0
 22 23  1  0  0  0  0
  1  3  1  0  0  0  0
  1  7  1  0  0  0  0
  1  2  2  0  0  0  0
 35 36  1  0  0  0  0
 36 44  1  0  0  0  0
 36 37  2  0  0  0  0
  8  9  1  0  0  0  0
  9 17  1  0  0  0  0
  9 10  2  0  0  0  0
 18 19  1  0  0  0  0
 19 34  1  0  0  0  0
 19 20  2  0  0  0  0
 35 38  1  0  0  0  0
  8 11  1  0  0  0  0
 44 45  1  0  0  0  0
 18 21  1  0  0  0  0
 34 35  1  0  0  0  0
  7  8  1  0  0  0  0
 17 18  1  0  0  0  0
 24 32  1  0  0  0  0
 25 33  1  0  0  0  0
  3  4  1  0  0  0  0
  3  5  1  0  0  0  0
  3  6  1  0  0  0  0
 38 41  1  0  0  0  0
 38 42  1  0  0  0  0
 38 43  1  0  0  0  0
 11 14  1  0  0  0  0
 11 15  1  0  0  0  0
 11 16  1  0  0  0  0
 45 47  1  0  0  0  0
 45 48  1  0  0  0  0
 45 49  1  0  0  0  0
 21 29  1  0  0  0  0
 21 30  1  0  0  0  0
 35 40  1  0  0  0  0
  8 13  1  0  0  0  0
 18 28  1  0  0  0  0
 23 31  1  0  0  0  0
 44 46  1  0  0  0  0
  7 12  1  0  0  0  0
 34 39  1  0  0  0  0
 17 27  1  0  0  0  0
M  END
$$$$

  -OEChem-05262214473D

 49 49  0     1  0  0  0  0  0999 V2000
   -1.5619    0.5658    3.7981 C   0  0  0  0  0  0  0  0  0  0  0  0
   -0.6145   -0.0489    3.3224 O   0  0  0  0  0  0  0  0  0  0  0  0
   -1.9938    0.2834    5.1988 C   0  0  0  0  0  0  0  0  0  0  0  0
   -2.7535   -0.5129    5.2522 H   0  0  0  0  0  0  0  0  0  0  0  0
   -1.1626   -0.0642    5.8331 H   0  0  0  0  0  0  0  0  0  0  0  0
   -2.4318    1.1383    5.7384 H   0  0  0  0  0  0  0  0  0  0  0  0
   -2.3116    1.5383    3.1570 N   0  0  0  0  0  0  0  0  0  0  0  0
   -2.0648    1.9643    1.8046 C   0  0  2  0  0  0  0  0  0  0  0  0
   -0.7298    1.3789    1.3634 C   0  0  0  0  0  0  0  0  0  0  0  0
    0.1423    1.0262    2.1547 O   0  0  0  0  0  0  0  0  0  0  0  0
   -2.0560    3.4811    1.6952 C   0  0  0  0  0  0  0  0  0  0  0  0
   -3.0767    1.9741    3.6688 H   0  0  0  0  0  0  0  0  0  0  0  0
   -2.8689    1.5458    1.1895 H   0  0  0  0  0  0  0  0  0  0  0  0
   -1.2569    3.9183    2.3049 H   0  0  0  0  0  0  0  0  0  0  0  0
   -1.8965    3.8033    0.6609 H   0  0  0  0  0  0  0  0  0  0  0  0
   -3.0062    3.9023    2.0409 H   0  0  0  0  0  0  0  0  0  0  0  0
   -0.6071    1.3358   -0.0200 N   0  0  0  0  0  0  0  0  0  0  0  0
    0.5702    0.8350   -0.6836 C   0  0  2  0  0  0  0  0  0  0  0  0
    1.1822   -0.2264    0.2236 C   0  0  0  0  0  0  0  0  0  0  0  0
    1.7711    0.0447    1.2679 O   0  0  0  0  0  0  0  0  0  0  0  0
    1.5895    1.9438   -0.9696 C   0  0  0  0  0  0  0  0  0  0  0  0
    1.0672    2.9827   -1.9317 C   0  0  0  0  0  0  0  0  0  0  0  0
    0.9543    2.7561   -3.2745 N   0  0  0  0  0  0  0  0  0  0  0  0
    0.6201    4.2706   -1.7533 C   0  0  0  0  0  0  0  0  0  0  0  0
    0.4538    3.8949   -3.8417 C   0  0  0  0  0  0  0  0  0  0  0  0
    0.2395    4.8329   -2.9460 N   0  0  0  0  0  0  0  0  0  0  0  0
   -1.3903    1.6325   -0.5973 H   0  0  0  0  0  0  0  0  0  0  0  0
    0.2281    0.3606   -1.6110 H   0  0  0  0  0  0  0  0  0  0  0  0
    2.5208    1.5127   -1.3612 H   0  0  0  0  0  0  0  0  0  0  0  0
    1.8761    2.4507   -0.0386 H   0  0  0  0  0  0  0  0  0  0  0  0
    1.1970    1.9038   -3.7626 H   0  0  0  0  0  0  0  0  0  0  0  0
    0.5519    4.8239   -0.8274 H   0  0  0  0  0  0  0  0  0  0  0  0
    0.2703    3.9746   -4.9038 H   0  0  0  0  0  0  0  0  0  0  0  0
    0.9479   -1.5107   -0.2478 N   0  0  0  0  0  0  0  0  0  0  0  0
    1.4000   -2.7014    0.4352 C   0  0  2  0  0  0  0  0  0  0  0  0
    2.8789   -2.5273    0.7549 C   0  0  0  0  0  0  0  0  0  0  0  0
    3.6111   -1.7533    0.1420 O   0  0  0  0  0  0  0  0  0  0  0  0
    1.1692   -3.9450   -0.4092 C   0  0  0  0  0  0  0  0  0  0  0  0
    0.4327   -1.6191   -1.1165 H   0  0  0  0  0  0  0  0  0  0  0  0
    0.8294   -2.7670    1.3679 H   0  0  0  0  0  0  0  0  0  0  0  0
    1.7330   -3.8974   -1.3481 H   0  0  0  0  0  0  0  0  0  0  0  0
    1.4860   -4.8491    0.1211 H   0  0  0  0  0  0  0  0  0  0  0  0
    0.1092   -4.0523   -0.6633 H   0  0  0  0  0  0  0  0  0  0  0  0
    3.2946   -3.3695    1.7767 N   0  0  0  0  0  0  0  0  0  0  0  0
    4.6571   -3.4018    2.2548 C   0  0  0  0  0  0  0  0  0  0  0  0
    2.6151   -3.9648    2.2412 H   0  0  0  0  0  0  0  0  0  0  0  0
    5.2189   -4.1753    1.7106 H   0  0  0  0  0  0  0  0  0  0  0  0
    5.1274   -2.4215    2.0879 H   0  0  0  0  0  0  0  0  0  0  0  0
    4.6628   -3.6330    3.3302 H   0  0  0  0  0  0  0  0  0  0  0  0
 22 24  2  0  0  0  0
 24 26  1  0  0  0  0
 25 26  2  0  0  0  0
 23 25  1  0  0  0  0
 21 22  1  0  0  0  0
 22 23  1  0  0  0  0
  1  3  1  0  0  0  0
  1  7  1  0  0  0  0
  1  2  2  0  0  0  0
 35 36  1  0  0  0  0
 36 44  1  0  0  0  0
 36 37  2  0  0  0  0
  8  9  1  0  0  0  0
  9 17  1  0  0  0  0
  9 10  2  0  0  0  0
 18 19  1  0  0  0  0
 19 34  1  0  0  0  0
 19 20  2  0  0  0  0
 35 38  1  0  0  0  0
  8 11  1  0  0  0  0
 44 45  1  0  0  0  0
 18 21  1  0  0  0  0
 34 35  1  0  0  0  0
  7  8  1  0  0  0  0
 17 18  1  0  0  0  0
 24 32  1  0  0  0  0
 25 33  1  0  0  0  0
  3  4  1  0  0  0  0
  3  5  1  0  0  0  0
  3  6  1  0  0  0  0
 38 41  1  0  0  0  0
 38 42  1  0  0  0  0
 38 43  1  0  0  0  0
 11 14  1  0  0  0  0
 11 15  1  0  0  0  0
 11 16  1  0  0  0  0
 45 47  1  0  0  0  0
 45 48  1  0  0  0  0
 45 49  1  0  0  0  0
 21 29  1  0  0  0  0
 21 30  1  0  0  0  0
 35 40  1  0  0  0  0
  8 13  1  0  0  0  0
 18 28  1  0  0  0  0
 23 31  1  0  0  0  0
 44 46  1  0  0  0  0
  7 12  1  0  0  0  0
 34 39  1  0  0  0  0
 17 27  1  0  0  0  0
M  END
$$$$

  -OEChem-05262214473D

 49 49  0     1  0  0  0  0  0999 V2000
   -1.5619    0.5658    3.7981 C   0  0  0  0  0  0  0  0  0  0  0  0
   -0.6145   -0.0489    3.3224 O   0  0  0  0  0  0  0  0  0  0  0  0
   -1.9938    0.2834    5.1988 C   0  0  0  0  0  0  0  0  0  0  0  0
   -2.7535   -0.5129    5.2522 H   0  0  0  0  0  0  0  0  0  0  0  0
   -1.1626   -0.0642    5.8331 H   0  0  0  0  0  0  0  0  0  0  0  0
   -2.4318    1.1383    5.7384 H   0  0  0  0  0  0  0  0  0  0  0  0
   -2.3116    1.5383    3.1570 N   0  0  0  0  0  0  0  0  0  0  0  0
   -2.0648    1.9643    1.8046 C   0  0  2  0  0  0  0  0  0  0  0  0
   -0.7298    1.3789    1.3634 C   0  0  0  0  0  0  0  0  0  0  0  0
    0.1423    1.0262    2.1547 O   0  0  0  0  0  0  0  0  0  0  0  0
   -2.0560    3.4811    1.6952 C   0  0  0  0  0  0  0  0  0  0  0  0
   -3.0767    1.9741    3.6688 H   0  0  0  0  0  0  0  0  0  0  0  0
   -2.8689    1.5458    1.1895 H   0  0  0  0  0  0  0  0  0  0  0  0
   -1.2569    3.9183    2.3049 H   0  0  0  0  0  0  0  0  0  0  0  0
   -1.8965    3.8033    0.6609 H   0  0  0  0  0  0  0  0  0  0  0  0
   -3.0062    3.9023    2.0409 H   0  0  0  0  0  0  0  0  0  0  0  0
   -0.6071    1.3358   -0.0200 N   0  0  0  0  0  0  0  0  0  0  0  0
    0.5702    0.8350   -0.6836 C   0  0  2  0  0  0  0  0  0  0  0  0
    1.1822   -0.2264    0.2236 C   0  0  0  0  0  0  0  0  0  0  0  0
    1.5302    0.0018    1.3802 O   0  0  0  0  0  0  0  0  0  0  0  0
    1.5895    1.9438   -0.9696 C   0  0  0  0  0  0  0  0  0  0  0  0
    1.0672    2.9827   -1.9317 C   0  0  0  0  0  0  0  0  0  0  0  0
    0.9543    2.7561   -3.2745 N   0  0  0  0  0  0  0  0  0  0  0  0
    0.6201    4.2706   -1.7533 C   0  0  0  0  0  0  0  0  0  0  0  0
    0.4538    3.8949   -3.8417 C   0  0  0  0  0  0  0  0  0  0  0  0
    0.2395    4.8329   -2.9460 N   0  0  0  0  0  0  0  0  0  0  0  0
   -1.3903    1.6325   -0.5973 H   0  0  0  0  0  0  0  0  0  0  0  0
    0.2281    0.3606   -1.6110 H   0  0  0  0  0  0  0  0  0  0  0  0
    2.5208    1.5127   -1.3612 H   0  0  0  0  0  0  0  0  0  0  0  0
    1.8761    2.4507   -0.0386 H   0  0  0  0  0  0  0  0  0  0  0  0
    1.1970    1.9038   -3.7626 H   0  0  0  0  0  0  0  0  0  0  0  0
    0.5519    4.8239   -0.8274 H   0  0  0  0  0  0  0  0  0  0  0  0
    0.2703    3.9746   -4.9038 H   0  0  0  0  0  0  0  0  0  0  0  0
    1.2457   -1.4663   -0.3969 N   0  0  0  0  0  0  0  0  0  0  0  0
    1.7622   -2.6515    0.2493 C   0  0  2  0  0  0  0  0  0  0  0  0
    3.1153   -2.3045    0.8562 C   0  0  0  0  0  0  0  0  0  0  0  0
    3.8054   -1.3659    0.4641 O   0  0  0  0  0  0  0  0  0  0  0  0
    1.8866   -3.8069   -0.7317 C   0  0  0  0  0  0  0  0  0  0  0  0
    0.9125   -1.5448   -1.3532 H   0  0  0  0  0  0  0  0  0  0  0  0
    1.0581   -2.9084    1.0482 H   0  0  0  0  0  0  0  0  0  0  0  0
    2.5880   -3.5679   -1.5394 H   0  0  0  0  0  0  0  0  0  0  0  0
    2.2509   -4.7119   -0.2345 H   0  0  0  0  0  0  0  0  0  0  0  0
    0.9181   -4.0355   -1.1894 H   0  0  0  0  0  0  0  0  0  0  0  0
    3.4810   -3.1924    1.8581 N   0  0  0  0  0  0  0  0  0  0  0  0
    4.7276   -3.0837    2.5794 C   0  0  0  0  0  0  0  0  0  0  0  0
    2.8384   -3.9303    2.1309 H   0  0  0  0  0  0  0  0  0  0  0  0
    5.4935   -3.6982    2.0836 H   0  0  0  0  0  0  0  0  0  0  0  0
    5.0528   -2.0330    2.5928 H   0  0  0  0  0  0  0  0  0  0  0  0
    4.5859   -3.4369    3.6115 H   0  0  0  0  0  0  0  0  0  0  0  0
 22 24  2  0  0  0  0
 24 26  1  0  0  0  0
 25 26  2  0  0  0  0
 23 25  1  0  0  0  0
 21 22  1  0  0  0  0
 22 23  1  0  0  0  0
  1  3  1  0  0  0  0
  1  7  1  0  0  0  0
  1  2  2  0  0  0  0
 35 36  1  0  0  0  0
 36 44  1  0  0  0  0
 36 37  2  0  0  0  0
  8  9  1  0  0  0  0
  9 17  1  0  0  0  0
  9 10  2  0  0  0  0
 18 19  1  0  0  0  0
 19 34  1  0  0  0  0
 19 20  2  0  0  0  0
 35 38  1  0  0  0  0
  8 11  1  0  0  0  0
 44 45  1  0  0  0  0
 18 21  1  0  0  0  0
 34 35  1  0  0  0  0
  7  8  1  0  0  0  0
 17 18  1  0  0  0  0
 24 32  1  0  0  0  0
 25 33  1  0  0  0  0
  3  4  1  0  0  0  0
  3  5  1  0  0  0  0
  3  6  1  0  0  0  0
 38 41  1  0  0  0  0
 38 42  1  0  0  0  0
 38 43  1  0  0  0  0
 11 14  1  0  0  0  0
 11 15  1  0  0  0  0
 11 16  1  0  0  0  0
 45 47  1  0  0  0  0
 45 48  1  0  0  0  0
 45 49  1  0  0  0  0
 21 29  1  0  0  0  0
 21 30  1  0  0  0  0
 35 40  1  0  0  0  0
  8 13  1  0  0  0  0
 18 28  1  0  0  0  0
 23 31  1  0  0  0  0
 44 46  1  0  0  0  0
  7 12  1  0  0  0  0
 34 39  1  0  0  0  0
 17 27  1  0  0  0  0
M  END
$$$$

  -OEChem-05262214473D

 49 49  0     1  0  0  0  0  0999 V2000
   -1.5619    0.5658    3.7981 C   0  0  0  0  0  0  0  0  0  0  0  0
   -0.6145   -0.0489    3.3224 O   0  0  0  0  0  0  0  0  0  0  0  0
   -1.9938    0.2834    5.1988 C   0  0  0  0  0  0  0  0  0  0  0  0
   -2.7535   -0.5129    5.2522 H   0  0  0  0  0  0  0  0  0  0  0  0
   -1.1626   -0.0642    5.8331 H   0  0  0  0  0  0  0  0  0  0  0  0
   -2.4318    1.1383    5.7384 H   0  0  0  0  0  0  0  0  0  0  0  0
   -2.3116    1.5383    3.1570 N   0  0  0  0  0  0  0  0  0  0  0  0
   -2.0648    1.9643    1.8046 C   0  0  2  0  0  0  0  0  0  0  0  0
   -0.7298    1.3789    1.3634 C   0  0  0  0  0  0  0  0  0  0  0  0
    0.1423    1.0262    2.1547 O   0  0  0  0  0  0  0  0  0  0  0  0
   -2.0560    3.4811    1.6952 C   0  0  0  0  0  0  0  0  0  0  0  0
   -3.0767    1.9741    3.6688 H   0  0  0  0  0  0  0  0  0  0  0  0
   -2.8689    1.5458    1.1895 H   0  0  0  0  0  0  0  0  0  0  0  0
   -1.2569    3.9183    2.3049 H   0  0  0  0  0  0  0  0  0  0  0  0
   -1.8965    3.8033    0.6609 H   0  0  0  0  0  0  0  0  0  0  0  0
   -3.0062    3.9023    2.0409 H   0  0  0  0  0  0  0  0  0  0  0  0
   -0.6071    1.3358   -0.0200 N   0  0  0  0  0  0  0  0  0  0  0  0
    0.5702    0.8350   -0.6836 C   0  0  2  0  0  0  0  0  0  0  0  0
    1.1822   -0.2264    0.2236 C   0  0  0  0  0  0  0  0  0  0  0  0
    1.2840   -0.0884    1.4407 O   0  0  0  0  0  0  0  0  0  0  0  0
    1.5895    1.9438   -0.9696 C   0  0  0  0  0  0  0  0  0  0  0  0
    1.0672    2.9827   -1.9317 C   0  0  0  0  0  0  0  0  0  0  0  0
    0.9543    2.7561   -3.2745 N   0  0  0  0  0  0  0  0  0  0  0  0
    0.6201    4.2706   -1.7533 C   0  0  0  0  0  0  0  0  0  0  0  0
    0.4538    3.8949   -3.8417 C   0  0  0  0  0  0  0  0  0  0  0  0
    0.2395    4.8329   -2.9460 N   0  0  0  0  0  0  0  0  0  0  0  0
   -1.3903    1.6325   -0.5973 H   0  0  0  0  0  0  0  0  0  0  0  0
    0.2281    0.3606   -1.6110 H   0  0  0  0  0  0  0  0  0  0  0  0
    2.5208    1.5127   -1.3612 H   0  0  0  0  0  0  0  0  0  0  0  0
    1.8761    2.4507   -0.0386 H   0  0  0  0  0  0  0  0  0  0  0  0
    1.1970    1.9038   -3.7626 H   0  0  0  0  0  0  0  0  0  0  0  0
    0.5519    4.8239   -0.8274 H   0  0  0  0  0  0  0  0  0  0  0  0
    0.2703    3.9746   -4.9038 H   0  0  0  0  0  0  0  0  0  0  0  0
    1.5535   -1.3622   -0.4826 N   0  0  0  0  0  0  0  0  0  0  0  0
    2.1378   -2.5281    0.1402 C   0  0  2  0  0  0  0  0  0  0  0  0
    3.2910   -2.0633    1.0197 C   0  0  0  0  0  0  0  0  0  0  0  0
    3.8754   -0.9952    0.8505 O   0  0  0  0  0  0  0  0  0  0  0  0
    2.6164   -3.5295   -0.8995 C   0  0  0  0  0  0  0  0  0  0  0  0
    1.4071   -1.3745   -1.4876 H   0  0  0  0  0  0  0  0  0  0  0  0
    1.3584   -2.9766    0.7658 H   0  0  0  0  0  0  0  0  0  0  0  0
    3.3976   -3.0980   -1.5358 H   0  0  0  0  0  0  0  0  0  0  0  0
    3.0328   -4.4247   -0.4259 H   0  0  0  0  0  0  0  0  0  0  0  0
    1.7917   -3.8401   -1.5500 H   0  0  0  0  0  0  0  0  0  0  0  0
    3.6191   -3.0011    1.9888 N   0  0  0  0  0  0  0  0  0  0  0  0
    4.6882   -2.7993    2.9387 C   0  0  0  0  0  0  0  0  0  0  0  0
    3.0686   -3.8510    2.0683 H   0  0  0  0  0  0  0  0  0  0  0  0
    5.6180   -3.2338    2.5428 H   0  0  0  0  0  0  0  0  0  0  0  0
    4.8300   -1.7216    3.1074 H   0  0  0  0  0  0  0  0  0  0  0  0
    4.4308   -3.2885    3.8897 H   0  0  0  0  0  0  0  0  0  0  0  0
 22 24  2  0  0  0  0
 24 26  1  0  0  0  0
 25 26  2  0  0  0  0
 23 25  1  0  0  0  0
 21 22  1  0  0  0  0
 22 23  1  0  0  0  0
  1  3  1  0  0  0  0
  1  7  1  0  0  0  0
  1  2  2  0  0  0  0
 35 36  1  0  0  0  0
 36 44  1  0  0  0  0
 36 37  2  0  0  0  0
  8  9  1  0  0  0  0
  9 17  1  0  0  0  0
  9 10  2  0  0  0  0
 18 19  1  0  0  0  0
 19 34  1  0  0  0  0
 19 20  2  0  0  0  0
 35 38  1  0  0  0  0
  8 11  1  0  0  0  0
 44 45  1  0  0  0  0
 18 21  1  0  0  0  0
 34 35  1  0  0  0  0
  7  8  1  0  0  0  0
 17 18  1  0  0  0  0
 24 32  1  0  0  0  0
 25 33  1  0  0  0  0
  3  4  1  0  0  0  0
  3  5  1  0  0  0  0
  3  6  1  0  0  0  0
 38 41  1  0  0  0  0
 38 42  1  0  0  0  0
 38 43  1  0  0  0  0
 11 14  1  0  0  0  0
 11 15  1  0  0  0  0
 11 16  1  0  0  0  0
 45 47  1  0  0  0  0
 45 48  1  0  0  0  0
 45 49  1  0  0  0  0
 21 29  1  0  0  0  0
 21 30  1  0  0  0  0
 35 40  1  0  0  0  0
  8 13  1  0  0  0  0
 18 28  1  0  0  0  0
 23 31  1  0  0  0  0
 44 46  1  0  0  0  0
  7 12  1  0  0  0  0
 34 39  1  0  0  0  0
 17 27  1  0  0  0  0
M  END
$$$$

  -OEChem-05262214473D

 49 49  0     1  0  0  0  0  0999 V2000
   -1.5619    0.5658    3.7981 C   0  0  0  0  0  0  0  0  0  0  0  0
   -0.6145   -0.0489    3.3224 O   0  0  0  0  0  0  0  0  0  0  0  0
   -1.9938    0.2834    5.1988 C   0  0  0  0  0  0  0  0  0  0  0  0
   -2.7535   -0.5129    5.2522 H   0  0  0  0  0  0  0  0  0  0  0  0
   -1.1626   -0.0642    5.8331 H   0  0  0  0  0  0  0  0  0  0  0  0
   -2.4318    1.1383    5.7384 H   0  0  0  0  0  0  0  0  0  0  0  0
   -2.3116    1.5383    3.1570 N   0  0  0  0  0  0  0  0  0  0  0  0
   -2.0648    1.9643    1.8046 C   0  0  2  0  0  0  0  0  0  0  0  0
   -0.7298    1.3789    1.3634 C   0  0  0  0  0  0  0  0  0  0  0  0
    0.1423    1.0262    2.1547 O   0  0  0  0  0  0  0  0  0  0  0  0
   -2.0560    3.4811    1.6952 C   0  0  0  0  0  0  0  0  0  0  0  0
   -3.0767    1.9741    3.6688 H   0  0  0  0  0  0  0  0  0  0  0  0
   -2.8689    1.5458    1.1895 H   0  0  0  0  0  0  0  0  0  0  0  0
   -1.2569    3.9183    2.3049 H   0  0  0  0  0  0  0  0  0  0  0  0
   -1.8965    3.8033    0.6609 H   0  0  0  0  0  0  0  0  0  0  0  0
   -3.0062    3.9023    2.0409 H   0  0  0  0  0  0  0  0  0  0  0  0
   -0.6071    1.3358   -0.0200 N   0  0  0  0  0  0  0  0  0  0  0  0
    0.5702    0.8350   -0.6836 C   0  0  2  0  0  0  0  0  0  0  0  0
    1.1822   -0.2264    0.2236 C   0  0  0  0  0  0  0  0  0  0  0  0
    1.0491   -0.2198    1.4455 O   0  0  0  0  0  0  0  0  0  0  0  0
    1.5895    1.9438   -0.9696 C   0  0  0  0  0  0  0  0  0  0  0  0
    1.0672    2.9827   -1.9317 C   0  0  0  0  0  0  0  0  0  0  0  0
    0.9543    2.7561   -3.2745 N   0  0  0  0  0  0  0  0  0  0  0  0
    0.6201    4.2706   -1.7533 C   0  0  0  0  0  0  0  0  0  0  0  0
    0.4538    3.8949   -3.8417 C   0  0  0  0  0  0  0  0  0  0  0  0
    0.2395    4.8329   -2.9460 N   0  0  0  0  0  0  0  0  0  0  0  0
   -1.3903    1.6325   -0.5973 H   0  0  0  0  0  0  0  0  0  0  0  0
    0.2281    0.3606   -1.6110 H   0  0  0  0  0  0  0  0  0  0  0  0
    2.5208    1.5127   -1.3612 H   0  0  0  0  0  0  0  0  0  0  0  0
    1.8761    2.4507   -0.0386 H   0  0  0  0  0  0  0  0  0  0  0  0
    1.1970    1.9038   -3.7626 H   0  0  0  0  0  0  0  0  0  0  0  0
    0.5519    4.8239   -0.8274 H   0  0  0  0  0  0  0  0  0  0  0  0
    0.2703    3.9746   -4.9038 H   0  0  0  0  0  0  0  0  0  0  0  0
    1.8501   -1.2052   -0.4991 N   0  0  0  0  0  0  0  0  0  0  0  0
    2.5012   -2.3398    0.1154 C   0  0  2  0  0  0  0  0  0  0  0  0
    3.3942   -1.8203    1.2344 C   0  0  0  0  0  0  0  0  0  0  0  0
    3.8163   -0.6665    1.2749 O   0  0  0  0  0  0  0  0  0  0  0  0
    3.3088   -3.1317   -0.9012 C   0  0  0  0  0  0  0  0  0  0  0  0
    1.8829   -1.1199   -1.5107 H   0  0  0  0  0  0  0  0  0  0  0  0
    1.7098   -2.9668    0.5401 H   0  0  0  0  0  0  0  0  0  0  0  0
    4.1067   -2.5198   -1.3377 H   0  0  0  0  0  0  0  0  0  0  0  0
    3.7782   -4.0069   -0.4401 H   0  0  0  0  0  0  0  0  0  0  0  0
    2.6704   -3.4792   -1.7207 H   0  0  0  0  0  0  0  0  0  0  0  0
    3.6996   -2.8086    2.1598 N   0  0  0  0  0  0  0  0  0  0  0  0
    4.5416   -2.5679    3.3082 C   0  0  0  0  0  0  0  0  0  0  0  0
    3.2901   -3.7325    2.0575 H   0  0  0  0  0  0  0  0  0  0  0  0
    5.5840   -2.8137    3.0572 H   0  0  0  0  0  0  0  0  0  0  0  0
    4.4741   -1.5086    3.5967 H   0  0  0  0  0  0  0  0  0  0  0  0
    4.2080   -3.1980    4.1459 H   0  0  0  0  0  0  0  0  0  0  0  0
 22 24  2  0  0  0  0
 24 26  1  0  0  0  0
 25 26  2  0  0  0  0
 23 25  1  0  0  0  0
 21 22  1  0  0  0  0
 22 23  1  0  0  0  0
  1  3  1  0  0  0  0
  1  7  1  0  0  0  0
  1  2  2  0  0  0  0
 35 36  1  0  0  0  0
 36 44  1  0  0  0  0
 36 37  2  0  0  0  0
  8  9  1  0  0  0  0
  9 17  1  0  0  0  0
  9 10  2  0  0  0  0
 18 19  1  0  0  0  0
 19 34  1  0  0  0  0
 19 20  2  0  0  0  0
 35 38  1  0  0  0  0
  8 11  1  0  0  0  0
 44 45  1  0  0  0  0
 18 21  1  0  0  0  0
 34 35  1  0  0  0  0
  7  8  1  0  0  0  0
 17 18  1  0  0  0  0
 24 32  1  0  0  0  0
 25 33  1  0  0  0  0
  3  4  1  0  0  0  0
  3  5  1  0  0  0  0
  3  6  1  0  0  0  0
 38 41  1  0  0  0  0
 38 42  1  0  0  0  0
 38 43  1  0  0  0  0
 11 14  1  0  0  0  0
 11 15  1  0  0  0  0
 11 16  1  0  0  0  0
 45 47  1  0  0  0  0
 45 48  1  0  0  0  0
 45 49  1  0  0  0  0
 21 29  1  0  0  0  0
 21 30  1  0  0  0  0
 35 40  1  0  0  0  0
  8 13  1  0  0  0  0
 18 28  1  0  0  0  0
 23 31  1  0  0  0  0
 44 46  1  0  0  0  0
  7 12  1  0  0  0  0
 34 39  1  0  0  0  0
 17 27  1  0  0  0  0
M  END
$$$$

  -OEChem-05262214473D

 49 49  0     1  0  0  0  0  0999 V2000
   -1.5619    0.5658    3.7981 C   0  0  0  0  0  0  0  0  0  0  0  0
   -0.6145   -0.0489    3.3224 O   0  0  0  0  0  0  0  0  0  0  0  0
   -1.9938    0.2834    5.1988 C   0  0  0  0  0  0  0  0  0  0  0  0
   -2.7535   -0.5129    5.2522 H   0  0  0  0  0  0  0  0  0  0  0  0
   -1.1626   -0.0642    5.8331 H   0  0  0  0  0  0  0  0  0  0  0  0
   -2.4318    1.1383    5.7384 H   0  0  0  0  0  0  0  0  0  0  0  0
   -2.3116    1.5383    3.1570 N   0  0  0  0  0  0  0  0  0  0  0  0
   -2.0648    1.9643    1.8046 C   0  0  2  0  0  0  0  0  0  0  0  0
   -0.7298    1.3789    1.3634 C   0  0  0  0  0  0  0  0  0  0  0  0
    0.1423    1.0262    2.1547 O   0  0  0  0  0  0  0  0  0  0  0  0
   -2.0560    3.4811    1.6952 C   0  0  0  0  0  0  0  0  0  0  0  0
   -3.0767    1.9741    3.6688 H   0  0  0  0  0  0  0  0  0  0  0  0
   -2.8689    1.5458    1.1895 H   0  0  0  0  0  0  0  0  0  0  0  0
   -1.2569    3.9183    2.3049 H   0  0  0  0  0  0  0  0  0  0  0  0
   -1.8965    3.8033    0.6609 H   0  0  0  0  0  0  0  0  0  0  0  0
   -3.0062    3.9023    2.0409 H   0  0  0  0  0  0  0  0  0  0  0  0
   -0.6071    1.3358   -0.0200 N   0  0  0  0  0  0  0  0  0  0  0  0
    0.5702    0.8350   -0.6836 C   0  0  2  0  0  0  0  0  0  0  0  0
    1.1822   -0.2264    0.2236 C   0  0  0  0  0  0  0  0  0  0  0  0
    0.8416   -0.3834    1.3941 O   0  0  0  0  0  0  0  0  0  0  0  0
    1.5895    1.9438   -0.9696 C   0  0  0  0  0  0  0  0  0  0  0  0
    1.0672    2.9827   -1.9317 C   0  0  0  0  0  0  0  0  0  0  0  0
    0.9543    2.7561   -3.2745 N   0  0  0  0  0  0  0  0  0  0  0  0
    0.6201    4.2706   -1.7533 C   0  0  0  0  0  0  0  0  0  0  0  0
    0.4538    3.8949   -3.8417 C   0  0  0  0  0  0  0  0  0  0  0  0
    0.2395    4.8329   -2.9460 N   0  0  0  0  0  0  0  0  0  0  0  0
   -1.3903    1.6325   -0.5973 H   0  0  0  0  0  0  0  0  0  0  0  0
    0.2281    0.3606   -1.6110 H   0  0  0  0  0  0  0  0  0  0  0  0
    2.5208    1.5127   -1.3612 H   0  0  0  0  0  0  0  0  0  0  0  0
    1.8761    2.4507   -0.0386 H   0  0  0  0  0  0  0  0  0  0  0  0
    1.1970    1.9038   -3.7626 H   0  0  0  0  0  0  0  0  0  0  0  0
    0.5519    4.8239   -0.8274 H   0  0  0  0  0  0  0  0  0  0  0  0
    0.2703    3.9746   -4.9038 H   0  0  0  0  0  0  0  0  0  0  0  0
    2.1154   -1.0063   -0.4453 N   0  0  0  0  0  0  0  0  0  0  0  0
    2.8278   -2.0993    0.1764 C   0  0  2  0  0  0  0  0  0  0  0  0
    3.4177   -1.5920    1.4856 C   0  0  0  0  0  0  0  0  0  0  0  0
    3.6321   -0.4023    1.7083 O   0  0  0  0  0  0  0  0  0  0  0  0
    3.9167   -2.6407   -0.7368 C   0  0  0  0  0  0  0  0  0  0  0  0
    2.3074   -0.7983   -1.4208 H   0  0  0  0  0  0  0  0  0  0  0  0
    2.0884   -2.8799    0.3865 H   0  0  0  0  0  0  0  0  0  0  0  0
    4.6668   -1.8727   -0.9585 H   0  0  0  0  0  0  0  0  0  0  0  0
    4.4365   -3.4871   -0.2760 H   0  0  0  0  0  0  0  0  0  0  0  0
    3.4944   -2.9776   -1.6897 H   0  0  0  0  0  0  0  0  0  0  0  0
    3.7168   -2.6280    2.3594 N   0  0  0  0  0  0  0  0  0  0  0  0
    4.2979   -2.4055    3.6628 C   0  0  0  0  0  0  0  0  0  0  0  0
    3.4877   -3.5828    2.0994 H   0  0  0  0  0  0  0  0  0  0  0  0
    5.3938   -2.4667    3.5915 H   0  0  0  0  0  0  0  0  0  0  0  0
    4.0094   -1.4085    4.0273 H   0  0  0  0  0  0  0  0  0  0  0  0
    3.9327   -3.1716    4.3626 H   0  0  0  0  0  0  0  0  0  0  0  0
 22 24  2  0  0  0  0
 24 26  1  0  0  0  0
 25 26  2  0  0  0  0
 23 25  1  0  0  0  0
 21 22  1  0  0  0  0
 22 23  1  0  0  0  0
  1  3  1  0  0  0  0
  1  7  1  0  0  0  0
  1  2  2  0  0  0  0
 35 36  1  0  0  0  0
 36 44  1  0  0  0  0
 36 37  2  0  0  0  0
  8  9  1  0  0  0  0
  9 17  1  0  0  0  0
  9 10  2  0  0  0  0
 18 19  1  0  0  0  0
 19 34  1  0  0  0  0
 19 20  2  0  0  0  0
 35 38  1  0  0  0  0
  8 11  1  0  0  0  0
 44 45  1  0  0  0  0
 18 21  1  0  0  0  0
 34 35  1  0  0  0  0
  7  8  1  0  0  0  0
 17 18  1  0  0  0  0
 24 32  1  0  0  0  0
 25 33  1  0  0  0  0
  3  4  1  0  0  0  0
  3  5  1  0  0  0  0
  3  6  1  0  0  0  0
 38 41  1  0  0  0  0
 38 42  1  0  0  0  0
 38 43  1  0  0  0  0
 11 14  1  0  0  0  0
 11 15  1  0  0  0  0
 11 16  1  0  0  0  0
 45 47  1  0  0  0  0
 45 48  1  0  0  0  0
 45 49  1  0  0  0  0
 21 29  1  0  0  0  0
 21 30  1  0  0  0  0
 35 40  1  0  0  0  0
  8 13  1  0  0  0  0
 18 28  1  0  0  0  0
 23 31  1  0  0  0  0
 44 46  1  0  0  0  0
  7 12  1  0  0  0  0
 34 39  1  0  0  0  0
 17 27  1  0  0  0  0
M  END
$$$$

  -OEChem-05262214473D

 49 49  0     1  0  0  0  0  0999 V2000
   -1.5619    0.5658    3.7981 C   0  0  0  0  0  0  0  0  0  0  0  0
   -0.6145   -0.0489    3.3224 O   0  0  0  0  0  0  0  0  0  0  0  0
   -1.9938    0.2834    5.1988 C   0  0  0  0  0  0  0  0  0  0  0  0
   -2.7535   -0.5129    5.2522 H   0  0  0  0  0  0  0  0  0  0  0  0
   -1.1626   -0.0642    5.8331 H   0  0  0  0  0  0  0  0  0  0  0  0
   -2.4318    1.1383    5.7384 H   0  0  0  0  0  0  0  0  0  0  0  0
   -2.3116    1.5383    3.1570 N   0  0  0  0  0  0  0  0  0  0  0  0
   -2.0648    1.9643    1.8046 C   0  0  2  0  0  0  0  0  0  0  0  0
   -0.7298    1.3789    1.3634 C   0  0  0  0  0  0  0  0  0  0  0  0
    0.1423    1.0262    2.1547 O   0  0  0  0  0  0  0  0  0  0  0  0
   -2.0560    3.4811    1.6952 C   0  0  0  0  0  0  0  0  0  0  0  0
   -3.0767    1.9741    3.6688 H   0  0  0  0  0  0  0  0  0  0  0  0
   -2.8689    1.5458    1.1895 H   0  0  0  0  0  0  0  0  0  0  0  0
   -1.2569    3.9183    2.3049 H   0  0  0  0  0  0  0  0  0  0  0  0
   -1.8965    3.8033    0.6609 H   0  0  0  0  0  0  0  0  0  0  0  0
   -3.0062    3.9023    2.0409 H   0  0  0  0  0  0  0  0  0  0  0  0
   -0.6071    1.3358   -0.0200 N   0  0  0  0  0  0  0  0  0  0  0  0
    0.5702    0.8350   -0.6836 C   0  0  2  0  0  0  0  0  0  0  0  0
    0.9658   -0.4603    0.0162 C   0  0  0  0  0  0  0  0  0  0  0  0
    0.3179   -0.9460    0.9410 O   0  0  0  0  0  0  0  0  0  0  0  0
    1.7287    1.8382   -0.6428 C   0  0  0  0  0  0  0  0  0  0  0  0
    1.4250    3.1114   -1.3941 C   0  0  0  0  0  0  0  0  0  0  0  0
    1.4266    3.1826   -2.7587 N   0  0  0  0  0  0  0  0  0  0  0  0
    1.1057    4.3815   -0.9756 C   0  0  0  0  0  0  0  0  0  0  0  0
    1.1147    4.4687   -3.1023 C   0  0  0  0  0  0  0  0  0  0  0  0
    0.9135    5.2216   -2.0438 N   0  0  0  0  0  0  0  0  0  0  0  0
   -1.3903    1.6325   -0.5973 H   0  0  0  0  0  0  0  0  0  0  0  0
    0.2753    0.6099   -1.7153 H   0  0  0  0  0  0  0  0  0  0  0  0
    2.6425    1.3806   -1.0456 H   0  0  0  0  0  0  0  0  0  0  0  0
    1.9719    2.1012    0.3951 H   0  0  0  0  0  0  0  0  0  0  0  0
    1.6233    2.4252   -3.3998 H   0  0  0  0  0  0  0  0  0  0  0  0
    1.0037    4.7364    0.0401 H   0  0  0  0  0  0  0  0  0  0  0  0
    1.0512    4.7884   -4.1328 H   0  0  0  0  0  0  0  0  0  0  0  0
    2.0978   -1.0313   -0.5486 N   0  0  0  0  0  0  0  0  0  0  0  0
    2.6724   -2.2753   -0.0895 C   0  0  2  0  0  0  0  0  0  0  0  0
    2.8336   -2.1892    1.4225 C   0  0  0  0  0  0  0  0  0  0  0  0
    2.9003   -1.1228    2.0303 O   0  0  0  0  0  0  0  0  0  0  0  0
    4.0076   -2.5503   -0.7637 C   0  0  0  0  0  0  0  0  0  0  0  0
    2.5449   -0.5505   -1.3238 H   0  0  0  0  0  0  0  0  0  0  0  0
    1.9548   -3.0653   -0.3364 H   0  0  0  0  0  0  0  0  0  0  0  0
    4.7395   -1.7692   -0.5279 H   0  0  0  0  0  0  0  0  0  0  0  0
    4.4279   -3.5069   -0.4361 H   0  0  0  0  0  0  0  0  0  0  0  0
    3.8949   -2.5823   -1.8528 H   0  0  0  0  0  0  0  0  0  0  0  0
    2.9377   -3.4430    2.0085 N   0  0  0  0  0  0  0  0  0  0  0  0
    3.1101   -3.6270    3.4306 C   0  0  0  0  0  0  0  0  0  0  0  0
    2.8527   -4.2735    1.4300 H   0  0  0  0  0  0  0  0  0  0  0  0
    4.1829   -3.6906    3.6653 H   0  0  0  0  0  0  0  0  0  0  0  0
    2.6675   -2.7745    3.9668 H   0  0  0  0  0  0  0  0  0  0  0  0
    2.6107   -4.5559    3.7432 H   0  0  0  0  0  0  0  0  0  0  0  0
 22 24  2  0  0  0  0
 24 26  1  0  0  0  0
 25 26  2  0  0  0  0
 23 25  1  0  0  0  0
 21 22  1  0  0  0  0
 22 23  1  0  0  0  0
  1  3  1  0  0  0  0
  1  7  1  0  0  0  0
  1  2  2  0  0  0  0
 35 36  1  0  0  0  0
 36 44  1  0  0  0  0
 36 37  2  0  0  0  0
  8  9  1  0  0  0  0
  9 17  1  0  0  0  0
  9 10  2  0  0  0  0
 18 19  1  0  0  0  0
 19 34  1  0  0  0  0
 19 20  2  0  0  0  0
 35 38  1  0  0  0  0
  8 11  1  0  0  0  0
 44 45  1  0  0  0  0
 18 21  1  0  0  0  0
 34 35  1  0  0  0  0
  7  8  1  0  0  0  0
 17 18  1  0  0  0  0
 24 32  1  0  0  0  0
 25 33  1  0  0  0  0
  3  4  1  0  0  0  0
  3  5  1  0  0  0  0
  3  6  1  0  0  0  0
 38 41  1  0  0  0  0
 38 42  1  0  0  0  0
 38 43  1  0  0  0  0
 11 14  1  0  0  0  0
 11 15  1  0  0  0  0
 11 16  1  0  0  0  0
 45 47  1  0  0  0  0
 45 48  1  0  0  0  0
 45 49  1  0  0  0  0
 21 29  1  0  0  0  0
 21 30  1  0  0  0  0
 35 40  1  0  0  0  0
  8 13  1  0  0  0  0
 18 28  1  0  0  0  0
 23 31  1  0  0  0  0
 44 46  1  0  0  0  0
  7 12  1  0  0  0  0
 34 39  1  0  0  0  0
 17 27  1  0  0  0  0
M  END
$$$$

  -OEChem-05262214473D

 49 49  0     1  0  0  0  0  0999 V2000
   -1.5619    0.5658    3.7981 C   0  0  0  0  0  0  0  0  0  0  0  0
   -0.6145   -0.0489    3.3224 O   0  0  0  0  0  0  0  0  0  0  0  0
   -1.9938    0.2834    5.1988 C   0  0  0  0  0  0  0  0  0  0  0  0
   -2.7535   -0.5129    5.2522 H   0  0  0  0  0  0  0  0  0  0  0  0
   -1.1626   -0.0642    5.8331 H   0  0  0  0  0  0  0  0  0  0  0  0
   -2.4318    1.1383    5.7384 H   0  0  0  0  0  0  0  0  0  0  0  0
   -2.3116    1.5383    3.1570 N   0  0  0  0  0  0  0  0  0  0  0  0
   -2.0648    1.9643    1.8046 C   0  0  2  0  0  0  0  0  0  0  0  0
   -0.7298    1.3789    1.3634 C   0  0  0  0  0  0  0  0  0  0  0  0
    0.1423    1.0262    2.1547 O   0  0  0  0  0  0  0  0  0  0  0  0
   -2.0560    3.4811    1.6952 C   0  0  0  0  0  0  0  0  0  0  0  0
   -3.0767    1.9741    3.6688 H   0  0  0  0  0  0  0  0  0  0  0  0
   -2.8689    1.5458    1.1895 H   0  0  0  0  0  0  0  0  0  0  0  0
   -1.2569    3.9183    2.3049 H   0  0  0  0  0  0  0  0  0  0  0  0
   -1.8965    3.8033    0.6609 H   0  0  0  0  0  0  0  0  0  0  0  0
   -3.0062    3.9023    2.0409 H   0  0  0  0  0  0  0  0  0  0  0  0
   -0.6071    1.3358   -0.0200 N   0  0  0  0  0  0  0  0  0  0  0  0
    0.5702    0.8350   -0.6836 C   0  0  2  0  0  0  0  0  0  0  0  0
    0.9658   -0.4603    0.0162 C   0  0  0  0  0  0  0  0  0  0  0  0
    0.2003   -1.0880    0.7448 O   0  0  0  0  0  0  0  0  0  0  0  0
    1.7287    1.8382   -0.6428 C   0  0  0  0  0  0  0  0  0  0  0  0
    1.4250    3.1114   -1.3941 C   0  0  0  0  0  0  0  0  0  0  0  0
    1.4266    3.1826   -2.7587 N   0  0  0  0  0  0  0  0  0  0  0  0
    1.1057    4.3815   -0.9756 C   0  0  0  0  0  0  0  0  0  0  0  0
    1.1147    4.4687   -3.1023 C   0  0  0  0  0  0  0  0  0  0  0  0
    0.9135    5.2216   -2.0438 N   0  0  0  0  0  0  0  0  0  0  0  0
   -1.3903    1.6325   -0.5973 H   0  0  0  0  0  0  0  0  0  0  0  0
    0.2753    0.6099   -1.7153 H   0  0  0  0  0  0  0  0  0  0  0  0
    2.6425    1.3806   -1.0456 H   0  0  0  0  0  0  0  0  0  0  0  0
    1.9719    2.1012    0.3951 H   0  0  0  0  0  0  0  0  0  0  0  0
    1.6233    2.4252   -3.3998 H   0  0  0  0  0  0  0  0  0  0  0  0
    1.0037    4.7364    0.0401 H   0  0  0  0  0  0  0  0  0  0  0  0
    1.0512    4.7884   -4.1328 H   0  0  0  0  0  0  0  0  0  0  0  0
    2.2559   -0.8544   -0.3107 N   0  0  0  0  0  0  0  0  0  0  0  0
    2.8703   -2.0597    0.1978 C   0  0  2  0  0  0  0  0  0  0  0  0
    2.6892   -2.0781    1.7098 C   0  0  0  0  0  0  0  0  0  0  0  0
    2.4878   -1.0633    2.3737 O   0  0  0  0  0  0  0  0  0  0  0  0
    4.3433   -2.1292   -0.1741 C   0  0  0  0  0  0  0  0  0  0  0  0
    2.7953   -0.2661   -0.9389 H   0  0  0  0  0  0  0  0  0  0  0  0
    2.3286   -2.9022   -0.2458 H   0  0  0  0  0  0  0  0  0  0  0  0
    4.9024   -1.2930    0.2614 H   0  0  0  0  0  0  0  0  0  0  0  0
    4.8004   -3.0563    0.1873 H   0  0  0  0  0  0  0  0  0  0  0  0
    4.4733   -2.0858   -1.2608 H   0  0  0  0  0  0  0  0  0  0  0  0
    2.8218   -3.3555    2.2359 N   0  0  0  0  0  0  0  0  0  0  0  0
    2.7050   -3.6330    3.6484 C   0  0  0  0  0  0  0  0  0  0  0  0
    2.9693   -4.1412    1.6091 H   0  0  0  0  0  0  0  0  0  0  0  0
    3.7011   -3.5956    4.1136 H   0  0  0  0  0  0  0  0  0  0  0  0
    2.0531   -2.8811    4.1170 H   0  0  0  0  0  0  0  0  0  0  0  0
    2.2714   -4.6339    3.7907 H   0  0  0  0  0  0  0  0  0  0  0  0
 22 24  2  0  0  0  0
 24 26  1  0  0  0  0
 25 26  2  0  0  0  0
 23 25  1  0  0  0  0
 21 22  1  0  0  0  0
 22 23  1  0  0  0  0
  1  3  1  0  0  0  0
  1  7  1  0  0  0  0
  1  2  2  0  0  0  0
 35 36  1  0  0  0  0
 36 44  1  0  0  0  0
 36 37  2  0  0  0  0
  8  9  1  0  0  0  0
  9 17  1  0  0  0  0
  9 10  2  0  0  0  0
 18 19  1  0  0  0  0
 19 34  1  0  0  0  0
 19 20  2  0  0  0  0
 35 38  1  0  0  0  0
  8 11  1  0  0  0  0
 44 45  1  0  0  0  0
 18 21  1  0  0  0  0
 34 35  1  0  0  0  0
  7  8  1  0  0  0  0
 17 18  1  0  0  0  0
 24 32  1  0  0  0  0
 25 33  1  0  0  0  0
  3  4  1  0  0  0  0
  3  5  1  0  0  0  0
  3  6  1  0  0  0  0
 38 41  1  0  0  0  0
 38 42  1  0  0  0  0
 38 43  1  0  0  0  0
 11 14  1  0  0  0  0
 11 15  1  0  0  0  0
 11 16  1  0  0  0  0
 45 47  1  0  0  0  0
 45 48  1  0  0  0  0
 45 49  1  0  0  0  0
 21 29  1  0  0  0  0
 21 30  1  0  0  0  0
 35 40  1  0  0  0  0
  8 13  1  0  0  0  0
 18 28  1  0  0  0  0
 23 31  1  0  0  0  0
 44 46  1  0  0  0  0
  7 12  1  0  0  0  0
 34 39  1  0  0  0  0
 17 27  1  0  0  0  0
M  END
$$$$

  -OEChem-05262214473D

 49 49  0     1  0  0  0  0  0999 V2000
   -1.5619    0.5658    3.7981 C   0  0  0  0  0  0  0  0  0  0  0  0
   -0.6145   -0.0489    3.3224 O   0  0  0  0  0  0  0  0  0  0  0  0
   -1.9938    0.2834    5.1988 C   0  0  0  0  0  0  0  0  0  0  0  0
   -2.7535   -0.5129    5.2522 H   0  0  0  0  0  0  0  0  0  0  0  0
   -1.1626   -0.0642    5.8331 H   0  0  0  0  0  0  0  0  0  0  0  0
   -2.4318    1.1383    5.7384 H   0  0  0  0  0  0  0  0  0  0  0  0
   -2.3116    1.5383    3.1570 N   0  0  0  0  0  0  0  0  0  0  0  0
   -2.0648    1.9643    1.8046 C   0  0  2  0  0  0  0  0  0  0  0  0
   -0.7298    1.3789    1.3634 C   0  0  0  0  0  0  0  0  0  0  0  0
    0.1423    1.0262    2.1547 O   0  0  0  0  0  0  0  0  0  0  0  0
   -2.0560    3.4811    1.6952 C   0  0  0  0  0  0  0  0  0  0  0  0
   -3.0767    1.9741    3.6688 H   0  0  0  0  0  0  0  0  0  0  0  0
   -2.8689    1.5458    1.1895 H   0  0  0  0  0  0  0  0  0  0  0  0
   -1.2569    3.9183    2.3049 H   0  0  0  0  0  0  0  0  0  0  0  0
   -1.8965    3.8033    0.6609 H   0  0  0  0  0  0  0  0  0  0  0  0
   -3.0062    3.9023    2.0409 H   0  0  0  0  0  0  0  0  0  0  0  0
   -0.6071    1.3358   -0.0200 N   0  0  0  0  0  0  0  0  0  0  0  0
    0.5702    0.8350   -0.6836 C   0  0  2  0  0  0  0  0  0  0  0  0
    0.9658   -0.4603    0.0162 C   0  0  0  0  0  0  0  0  0  0  0  0
    0.1466   -1.2258    0.5200 O   0  0  0  0  0  0  0  0  0  0  0  0
    1.7287    1.8382   -0.6428 C   0  0  0  0  0  0  0  0  0  0  0  0
    1.4250    3.1114   -1.3941 C   0  0  0  0  0  0  0  0  0  0  0  0
    1.4266    3.1826   -2.7587 N   0  0  0  0  0  0  0  0  0  0  0  0
    1.1057    4.3815   -0.9756 C   0  0  0  0  0  0  0  0  0  0  0  0
    1.1147    4.4687   -3.1023 C   0  0  0  0  0  0  0  0  0  0  0  0
    0.9135    5.2216   -2.0438 N   0  0  0  0  0  0  0  0  0  0  0  0
   -1.3903    1.6325   -0.5973 H   0  0  0  0  0  0  0  0  0  0  0  0
    0.2753    0.6099   -1.7153 H   0  0  0  0  0  0  0  0  0  0  0  0
    2.6425    1.3806   -1.0456 H   0  0  0  0  0  0  0  0  0  0  0  0
    1.9719    2.1012    0.3951 H   0  0  0  0  0  0  0  0  0  0  0  0
    1.6233    2.4252   -3.3998 H   0  0  0  0  0  0  0  0  0  0  0  0
    1.0037    4.7364    0.0401 H   0  0  0  0  0  0  0  0  0  0  0  0
    1.0512    4.7884   -4.1328 H   0  0  0  0  0  0  0  0  0  0  0  0
    2.3352   -0.6808   -0.0342 N   0  0  0  0  0  0  0  0  0  0  0  0
    2.9727   -1.8472    0.5333 C   0  0  2  0  0  0  0  0  0  0  0  0
    2.4732   -2.0072    1.9631 C   0  0  0  0  0  0  0  0  0  0  0  0
    2.0067   -1.0778    2.6187 O   0  0  0  0  0  0  0  0  0  0  0  0
    4.4878   -1.7221    0.4976 C   0  0  0  0  0  0  0  0  0  0  0  0
    2.9188    0.0125   -0.4930 H   0  0  0  0  0  0  0  0  0  0  0  0
    2.6503   -2.7063   -0.0651 H   0  0  0  0  0  0  0  0  0  0  0  0
    4.8296   -0.8667    1.0916 H   0  0  0  0  0  0  0  0  0  0  0  0
    4.9696   -2.6186    0.9016 H   0  0  0  0  0  0  0  0  0  0  0  0
    4.8429   -1.5773   -0.5285 H   0  0  0  0  0  0  0  0  0  0  0  0
    2.6495   -3.3001    2.4358 N   0  0  0  0  0  0  0  0  0  0  0  0
    2.2665   -3.7016    3.7693 C   0  0  0  0  0  0  0  0  0  0  0  0
    3.0268   -4.0114    1.8167 H   0  0  0  0  0  0  0  0  0  0  0  0
    3.1259   -3.5911    4.4471 H   0  0  0  0  0  0  0  0  0  0  0  0
    1.4392   -3.0671    4.1198 H   0  0  0  0  0  0  0  0  0  0  0  0
    1.9425   -4.7528    3.7567 H   0  0  0  0  0  0  0  0  0  0  0  0
 22 24  2  0  0  0  0
 24 26  1  0  0  0  0
 25 26  2  0  0  0  0
 23 25  1  0  0  0  0
 21 22  1  0  0  0  0
 22 23  1  0  0  0  0
  1  3  1  0  0  0  0
  1  7  1  0  0  0  0
  1  2  2  0  0  0  0
 35 36  1  0  0  0  0
 36 44  1  0  0  0  0
 36 37  2  0  0  0  0
  8  9  1  0  0  0  0
  9 17  1  0  0  0  0
  9 10  2  0  0  0  0
 18 19  1  0  0  0  0
 19 34  1  0  0  0  0
 19 20  2  0  0  0  0
 35 38  1  0  0  0  0
  8 11  1  0  0  0  0
 44 45  1  0  0  0  0
 18 21  1  0  0  0  0
 34 35  1  0  0  0  0
  7  8  1  0  0  0  0
 17 18  1  0  0  0  0
 24 32  1  0  0  0  0
 25 33  1  0  0  0  0
  3  4  1  0  0  0  0
  3  5  1  0  0  0  0
  3  6  1  0  0  0  0
 38 41  1  0  0  0  0
 38 42  1  0  0  0  0
 38 43  1  0  0  0  0
 11 14  1  0  0  0  0
 11 15  1  0  0  0  0
 11 16  1  0  0  0  0
 45 47  1  0  0  0  0
 45 48  1  0  0  0  0
 45 49  1  0  0  0  0
 21 29  1  0  0  0  0
 21 30  1  0  0  0  0
 35 40  1  0  0  0  0
  8 13  1  0  0  0  0
 18 28  1  0  0  0  0
 23 31  1  0  0  0  0
 44 46  1  0  0  0  0
  7 12  1  0  0  0  0
 34 39  1  0  0  0  0
 17 27  1  0  0  0  0
M  END
$$$$

  -OEChem-05262214473D

 49 49  0     1  0  0  0  0  0999 V2000
   -1.5619    0.5658    3.7981 C   0  0  0  0  0  0  0  0  0  0  0  0
   -0.6145   -0.0489    3.3224 O   0  0  0  0  0  0  0  0  0  0  0  0
   -1.9938    0.2834    5.1988 C   0  0  0  0  0  0  0  0  0  0  0  0
   -2.7535   -0.5129    5.2522 H   0  0  0  0  0  0  0  0  0  0  0  0
   -1.1626   -0.0642    5.8331 H   0  0  0  0  0  0  0  0  0  0  0  0
   -2.4318    1.1383    5.7384 H   0  0  0  0  0  0  0  0  0  0  0  0
   -2.3116    1.5383    3.1570 N   0  0  0  0  0  0  0  0  0  0  0  0
   -2.0648    1.9643    1.8046 C   0  0  2  0  0  0  0  0  0  0  0  0
   -0.7298    1.3789    1.3634 C   0  0  0  0  0  0  0  0  0  0  0  0
    0.1423    1.0262    2.1547 O   0  0  0  0  0  0  0  0  0  0  0  0
   -2.0560    3.4811    1.6952 C   0  0  0  0  0  0  0  0  0  0  0  0
   -3.0767    1.9741    3.6688 H   0  0  0  0  0  0  0  0  0  0  0  0
   -2.8689    1.5458    1.1895 H   0  0  0  0  0  0  0  0  0  0  0  0
   -1.2569    3.9183    2.3049 H   0  0  0  0  0  0  0  0  0  0  0  0
   -1.8965    3.8033    0.6609 H   0  0  0  0  0  0  0  0  0  0  0  0
   -3.0062    3.9023    2.0409 H   0  0  0  0  0  0  0  0  0  0  0  0
   -0.6071    1.3358   -0.0200 N   0  0  0  0  0  0  0  0  0  0  0  0
    0.5702    0.8350   -0.6836 C   0  0  2  0  0  0  0  0  0  0  0  0
    0.9658   -0.4603    0.0162 C   0  0  0  0  0  0  0  0  0  0  0  0
    0.1607   -1.3503    0.2817 O   0  0  0  0  0  0  0  0  0  0  0  0
    1.7287    1.8382   -0.6428 C   0  0  0  0  0  0  0  0  0  0  0  0
    1.4250    3.1114   -1.3941 C   0  0  0  0  0  0  0  0  0  0  0  0
    1.4266    3.1826   -2.7587 N   0  0  0  0  0  0  0  0  0  0  0  0
    1.1057    4.3815   -0.9756 C   0  0  0  0  0  0  0  0  0  0  0  0
    1.1147    4.4687   -3.1023 C   0  0  0  0  0  0  0  0  0  0  0  0
    0.9135    5.2216   -2.0438 N   0  0  0  0  0  0  0  0  0  0  0  0
   -1.3903    1.6325   -0.5973 H   0  0  0  0  0  0  0  0  0  0  0  0
    0.2753    0.6099   -1.7153 H   0  0  0  0  0  0  0  0  0  0  0  0
    2.6425    1.3806   -1.0456 H   0  0  0  0  0  0  0  0  0  0  0  0
    1.9719    2.1012    0.3951 H   0  0  0  0  0  0  0  0  0  0  0  0
    1.6233    2.4252   -3.3998 H   0  0  0  0  0  0  0  0  0  0  0  0
    1.0037    4.7364    0.0401 H   0  0  0  0  0  0  0  0  0  0  0  0
    1.0512    4.7884   -4.1328 H   0  0  0  0  0  0  0  0  0  0  0  0
    2.3305   -0.5222    0.2620 N   0  0  0  0  0  0  0  0  0  0  0  0
    2.9725   -1.6523    0.8941 C   0  0  2  0  0  0  0  0  0  0  0  0
    2.2005   -1.9814    2.1650 C   0  0  0  0  0  0  0  0  0  0  0  0
    1.4899   -1.1655    2.7485 O   0  0  0  0  0  0  0  0  0  0  0  0
    4.4314   -1.3569    1.2054 C   0  0  0  0  0  0  0  0  0  0  0  0
    2.9069    0.2664   -0.0165 H   0  0  0  0  0  0  0  0  0  0  0  0
    2.8981   -2.4910    0.1933 H   0  0  0  0  0  0  0  0  0  0  0  0
    4.5260   -0.5193    1.9061 H   0  0  0  0  0  0  0  0  0  0  0  0
    4.9239   -2.2238    1.6582 H   0  0  0  0  0  0  0  0  0  0  0  0
    4.9783   -1.0913    0.2943 H   0  0  0  0  0  0  0  0  0  0  0  0
    2.4325   -3.2805    2.5948 N   0  0  0  0  0  0  0  0  0  0  0  0
    1.8246   -3.8281    3.7850 C   0  0  0  0  0  0  0  0  0  0  0  0
    3.0213   -3.8933    2.0385 H   0  0  0  0  0  0  0  0  0  0  0  0
    2.4964   -3.6775    4.6430 H   0  0  0  0  0  0  0  0  0  0  0  0
    0.8678   -3.3198    3.9750 H   0  0  0  0  0  0  0  0  0  0  0  0
    1.6464   -4.9043    3.6436 H   0  0  0  0  0  0  0  0  0  0  0  0
 22 24  2  0  0  0  0
 24 26  1  0  0  0  0
 25 26  2  0  0  0  0
 23 25  1  0  0  0  0
 21 22  1  0  0  0  0
 22 23  1  0  0  0  0
  1  3  1  0  0  0  0
  1  7  1  0  0  0  0
  1  2  2  0  0  0  0
 35 36  1  0  0  0  0
 36 44  1  0  0  0  0
 36 37  2  0  0  0  0
  8  9  1  0  0  0  0
  9 17  1  0  0  0  0
  9 10  2  0  0  0  0
 18 19  1  0  0  0  0
 19 34  1  0  0  0  0
 19 20  2  0  0  0  0
 35 38  1  0  0  0  0
  8 11  1  0  0  0  0
 44 45  1  0  0  0  0
 18 21  1  0  0  0  0
 34 35  1  0  0  0  0
  7  8  1  0  0  0  0
 17 18  1  0  0  0  0
 24 32  1  0  0  0  0
 25 33  1  0  0  0  0
  3  4  1  0  0  0  0
  3  5  1  0  0  0  0
  3  6  1  0  0  0  0
 38 41  1  0  0  0  0
 38 42  1  0  0  0  0
 38 43  1  0  0  0  0
 11 14  1  0  0  0  0
 11 15  1  0  0  0  0
 11 16  1  0  0  0  0
 45 47  1  0  0  0  0
 45 48  1  0  0  0  0
 45 49  1  0  0  0  0
 21 29  1  0  0  0  0
 21 30  1  0  0  0  0
 35 40  1  0  0  0  0
  8 13  1  0  0  0  0
 18 28  1  0  0  0  0
 23 31  1  0  0  0  0
 44 46  1  0  0  0  0
  7 12  1  0  0  0  0
 34 39  1  0  0  0  0
 17 27  1  0  0  0  0
M  END
$$$$

  -OEChem-05262214473D

 49 49  0     1  0  0  0  0  0999 V2000
   -1.5619    0.5658    3.7981 C   0  0  0  0  0  0  0  0  0  0  0  0
   -0.6145   -0.0489    3.3224 O   0  0  0  0  0  0  0  0  0  0  0  0
   -1.9938    0.2834    5.1988 C   0  0  0  0  0  0  0  0  0  0  0  0
   -2.7535   -0.5129    5.2522 H   0  0  0  0  0  0  0  0  0  0  0  0
   -1.1626   -0.0642    5.8331 H   0  0  0  0  0  0  0  0  0  0  0  0
   -2.4318    1.1383    5.7384 H   0  0  0  0  0  0  0  0  0  0  0  0
   -2.3116    1.5383    3.1570 N   0  0  0  0  0  0  0  0  0  0  0  0
   -2.0648    1.9643    1.8046 C   0  0  2  0  0  0  0  0  0  0  0  0
   -0.7298    1.3789    1.3634 C   0  0  0  0  0  0  0  0  0  0  0  0
    0.1423    1.0262    2.1547 O   0  0  0  0  0  0  0  0  0  0  0  0
   -2.0560    3.4811    1.6952 C   0  0  0  0  0  0  0  0  0  0  0  0
   -3.0767    1.9741    3.6688 H   0  0  0  0  0  0  0  0  0  0  0  0
   -2.8689    1.5458    1.1895 H   0  0  0  0  0  0  0  0  0  0  0  0
   -1.2569    3.9183    2.3049 H   0  0  0  0  0  0  0  0  0  0  0  0
   -1.8965    3.8033    0.6609 H   0  0  0  0  0  0  0  0  0  0  0  0
   -3.0062    3.9023    2.0409 H   0  0  0  0  0  0  0  0  0  0  0  0
   -0.6071    1.3358   -0.0200 N   0  0  0  0  0  0  0  0  0  0  0  0
    0.5702    0.8350   -0.6836 C   0  0  2  0  0  0  0  0  0  0  0  0
    0.9658   -0.4603    0.0162 C   0  0  0  0  0  0  0  0  0  0  0  0
    0.2414   -1.4528    0.0463 O   0  0  0  0  0  0  0  0  0  0  0  0
    1.7287    1.8382   -0.6428 C   0  0  0  0  0  0  0  0  0  0  0  0
    1.4250    3.1114   -1.3941 C   0  0  0  0  0  0  0  0  0  0  0  0
    1.4266    3.1826   -2.7587 N   0  0  0  0  0  0  0  0  0  0  0  0
    1.1057    4.3815   -0.9756 C   0  0  0  0  0  0  0  0  0  0  0  0
    1.1147    4.4687   -3.1023 C   0  0  0  0  0  0  0  0  0  0  0  0
    0.9135    5.2216   -2.0438 N   0  0  0  0  0  0  0  0  0  0  0  0
   -1.3903    1.6325   -0.5973 H   0  0  0  0  0  0  0  0  0  0  0  0
    0.2753    0.6099   -1.7153 H   0  0  0  0  0  0  0  0  0  0  0  0
    2.6425    1.3806   -1.0456 H   0  0  0  0  0  0  0  0  0  0  0  0
    1.9719    2.1012    0.3951 H   0  0  0  0  0  0  0  0  0  0  0  0
    1.6233    2.4252   -3.3998 H   0  0  0  0  0  0  0  0  0  0  0  0
    1.0037    4.7364    0.0401 H   0  0  0  0  0  0  0  0  0  0  0  0
    1.0512    4.7884   -4.1328 H   0  0  0  0  0  0  0  0  0  0  0  0
    2.2419   -0.3895    0.5577 N   0  0  0  0  0  0  0  0  0  0  0  0
    2.8698   -1.4882    1.2557 C   0  0  2  0  0  0  0  0  0  0  0  0
    1.8896   -2.0025    2.3018 C   0  0  0  0  0  0  0  0  0  0  0  0
    0.9726   -1.3204    2.7544 O   0  0  0  0  0  0  0  0  0  0  0  0
    4.1779   -1.0583    1.9013 C   0  0  0  0  0  0  0  0  0  0  0  0
    2.7605    0.4782    0.4583 H   0  0  0  0  0  0  0  0  0  0  0  0
    3.0550   -2.2709    0.5119 H   0  0  0  0  0  0  0  0  0  0  0  0
    4.0124   -0.2745    2.6495 H   0  0  0  0  0  0  0  0  0  0  0  0
    4.6665   -1.8986    2.4055 H   0  0  0  0  0  0  0  0  0  0  0  0
    4.8705   -0.6611    1.1515 H   0  0  0  0  0  0  0  0  0  0  0  0
    2.1856   -3.2980    2.7020 N   0  0  0  0  0  0  0  0  0  0  0  0
    1.4093   -4.0039    3.6946 C   0  0  0  0  0  0  0  0  0  0  0  0
    2.9532   -3.7946    2.2595 H   0  0  0  0  0  0  0  0  0  0  0  0
    1.8555   -3.8489    4.6880 H   0  0  0  0  0  0  0  0  0  0  0  0
    0.3777   -3.6222    3.6925 H   0  0  0  0  0  0  0  0  0  0  0  0
    1.4032   -5.0783    3.4590 H   0  0  0  0  0  0  0  0  0  0  0  0
 22 24  2  0  0  0  0
 24 26  1  0  0  0  0
 25 26  2  0  0  0  0
 23 25  1  0  0  0  0
 21 22  1  0  0  0  0
 22 23  1  0  0  0  0
  1  3  1  0  0  0  0
  1  7  1  0  0  0  0
  1  2  2  0  0  0  0
 35 36  1  0  0  0  0
 36 44  1  0  0  0  0
 36 37  2  0  0  0  0
  8  9  1  0  0  0  0
  9 17  1  0  0  0  0
  9 10  2  0  0  0  0
 18 19  1  0  0  0  0
 19 34  1  0  0  0  0
 19 20  2  0  0  0  0
 35 38  1  0  0  0  0
  8 11  1  0  0  0  0
 44 45  1  0  0  0  0
 18 21  1  0  0  0  0
 34 35  1  0  0  0  0
  7  8  1  0  0  0  0
 17 18  1  0  0  0  0
 24 32  1  0  0  0  0
 25 33  1  0  0  0  0
  3  4  1  0  0  0  0
  3  5  1  0  0  0  0
  3  6  1  0  0  0  0
 38 41  1  0  0  0  0
 38 42  1  0  0  0  0
 38 43  1  0  0  0  0
 11 14  1  0  0  0  0
 11 15  1  0  0  0  0
 11 16  1  0  0  0  0
 45 47  1  0  0  0  0
 45 48  1  0  0  0  0
 45 49  1  0  0  0  0
 21 29  1  0  0  0  0
 21 30  1  0  0  0  0
 35 40  1  0  0  0  0
  8 13  1  0  0  0  0
 18 28  1  0  0  0  0
 23 31  1  0  0  0  0
 44 46  1  0  0  0  0
  7 12  1  0  0  0  0
 34 39  1  0  0  0  0
 17 27  1  0  0  0  0
M  END
$$$$

  -OEChem-05262214473D

 49 49  0     1  0  0  0  0  0999 V2000
   -1.5619    0.5658    3.7981 C   0  0  0  0  0  0  0  0  0  0  0  0
   -0.6145   -0.0489    3.3224 O   0  0  0  0  0  0  0  0  0  0  0  0
   -1.9938    0.2834    5.1988 C   0  0  0  0  0  0  0  0  0  0  0  0
   -2.7535   -0.5129    5.2522 H   0  0  0  0  0  0  0  0  0  0  0  0
   -1.1626   -0.0642    5.8331 H   0  0  0  0  0  0  0  0  0  0  0  0
   -2.4318    1.1383    5.7384 H   0  0  0  0  0  0  0  0  0  0  0  0
   -2.3116    1.5383    3.1570 N   0  0  0  0  0  0  0  0  0  0  0  0
   -2.0648    1.9643    1.8046 C   0  0  2  0  0  0  0  0  0  0  0  0
   -0.7298    1.3789    1.3634 C   0  0  0  0  0  0  0  0  0  0  0  0
    0.1423    1.0262    2.1547 O   0  0  0  0  0  0  0  0  0  0  0  0
   -2.0560    3.4811    1.6952 C   0  0  0  0  0  0  0  0  0  0  0  0
   -3.0767    1.9741    3.6688 H   0  0  0  0  0  0  0  0  0  0  0  0
   -2.8689    1.5458    1.1895 H   0  0  0  0  0  0  0  0  0  0  0  0
   -1.2569    3.9183    2.3049 H   0  0  0  0  0  0  0  0  0  0  0  0
   -1.8965    3.8033    0.6609 H   0  0  0  0  0  0  0  0  0  0  0  0
   -3.0062    3.9023    2.0409 H   0  0  0  0  0  0  0  0  0  0  0  0
   -0.6071    1.3358   -0.0200 N   0  0  0  0  0  0  0  0  0  0  0  0
    0.5702    0.8350   -0.6836 C   0  0  2  0  0  0  0  0  0  0  0  0
    0.9658   -0.4603    0.0162 C   0  0  0  0  0  0  0  0  0  0  0  0
    0.3833   -1.5265   -0.1702 O   0  0  0  0  0  0  0  0  0  0  0  0
    1.7287    1.8382   -0.6428 C   0  0  0  0  0  0  0  0  0  0  0  0
    1.4250    3.1114   -1.3941 C   0  0  0  0  0  0  0  0  0  0  0  0
    1.4266    3.1826   -2.7587 N   0  0  0  0  0  0  0  0  0  0  0  0
    1.1057    4.3815   -0.9756 C   0  0  0  0  0  0  0  0  0  0  0  0
    1.1147    4.4687   -3.1023 C   0  0  0  0  0  0  0  0  0  0  0  0
    0.9135    5.2216   -2.0438 N   0  0  0  0  0  0  0  0  0  0  0  0
   -1.3903    1.6325   -0.5973 H   0  0  0  0  0  0  0  0  0  0  0  0
    0.2753    0.6099   -1.7153 H   0  0  0  0  0  0  0  0  0  0  0  0
    2.6425    1.3806   -1.0456 H   0  0  0  0  0  0  0  0  0  0  0  0
    1.9719    2.1012    0.3951 H   0  0  0  0  0  0  0  0  0  0  0  0
    1.6233    2.4252   -3.3998 H   0  0  0  0  0  0  0  0  0  0  0  0
    1.0037    4.7364    0.0401 H   0  0  0  0  0  0  0  0  0  0  0  0
    1.0512    4.7884   -4.1328 H   0  0  0  0  0  0  0  0  0  0  0  0
    2.0755   -0.2917    0.8327 N   0  0  0  0  0  0  0  0  0  0  0  0
    2.6716   -1.3663    1.5934 C   0  0  2  0  0  0  0  0  0  0  0  0
    1.5618   -2.0689    2.3641 C   0  0  0  0  0  0  0  0  0  0  0  0
    0.4900   -1.5318    2.6360 O   0  0  0  0  0  0  0  0  0  0  0  0
    3.7445   -0.8468    2.5378 C   0  0  0  0  0  0  0  0  0  0  0  0
    2.4895    0.6335    0.8989 H   0  0  0  0  0  0  0  0  0  0  0  0
    3.1104   -2.0611    0.8689 H   0  0  0  0  0  0  0  0  0  0  0  0
    3.3237   -0.1491    3.2710 H   0  0  0  0  0  0  0  0  0  0  0  0
    4.2149   -1.6653    3.0926 H   0  0  0  0  0  0  0  0  0  0  0  0
    4.5268   -0.3159    1.9846 H   0  0  0  0  0  0  0  0  0  0  0  0
    1.9256   -3.3514    2.7501 N   0  0  0  0  0  0  0  0  0  0  0  0
    1.0489   -4.2169    3.5040 C   0  0  0  0  0  0  0  0  0  0  0  0
    2.8271   -3.7223    2.4646 H   0  0  0  0  0  0  0  0  0  0  0  0
    1.2469   -4.0937    4.5790 H   0  0  0  0  0  0  0  0  0  0  0  0
    0.0023   -3.9535    3.2916 H   0  0  0  0  0  0  0  0  0  0  0  0
    1.2296   -5.2629    3.2156 H   0  0  0  0  0  0  0  0  0  0  0  0
 22 24  2  0  0  0  0
 24 26  1  0  0  0  0
 25 26  2  0  0  0  0
 23 25  1  0  0  0  0
 21 22  1  0  0  0  0
 22 23  1  0  0  0  0
  1  3  1  0  0  0  0
  1  7  1  0  0  0  0
  1  2  2  0  0  0  0
 35 36  1  0  0  0  0
 36 44  1  0  0  0  0
 36 37  2  0  0  0  0
  8  9  1  0  0  0  0
  9 17  1  0  0  0  0
  9 10  2  0  0  0  0
 18 19  1  0  0  0  0
 19 34  1  0  0  0  0
 19 20  2  0  0  0  0
 35 38  1  0  0  0  0
  8 11  1  0  0  0  0
 44 45  1  0  0  0  0
 18 21  1  0  0  0  0
 34 35  1  0  0  0  0
  7  8  1  0  0  0  0
 17 18  1  0  0  0  0
 24 32  1  0  0  0  0
 25 33  1  0  0  0  0
  3  4  1  0  0  0  0
  3  5  1  0  0  0  0
  3  6  1  0  0  0  0
 38 41  1  0  0  0  0
 38 42  1  0  0  0  0
 38 43  1  0  0  0  0
 11 14  1  0  0  0  0
 11 15  1  0  0  0  0
 11 16  1  0  0  0  0
 45 47  1  0  0  0  0
 45 48  1  0  0  0  0
 45 49  1  0  0  0  0
 21 29  1  0  0  0  0
 21 30  1  0  0  0  0
 35 40  1  0  0  0  0
  8 13  1  0  0  0  0
 18 28  1  0  0  0  0
 23 31  1  0  0  0  0
 44 46  1  0  0  0  0
  7 12  1  0  0  0  0
 34 39  1  0  0  0  0
 17 27  1  0  0  0  0
M  END
$$$$

  -OEChem-05262214473D

 49 49  0     1  0  0  0  0  0999 V2000
   -1.5619    0.5658    3.7981 C   0  0  0  0  0  0  0  0  0  0  0  0
   -0.6145   -0.0489    3.3224 O   0  0  0  0  0  0  0  0  0  0  0  0
   -1.9938    0.2834    5.1988 C   0  0  0  0  0  0  0  0  0  0  0  0
   -2.7535   -0.5129    5.2522 H   0  0  0  0  0  0  0  0  0  0  0  0
   -1.1626   -0.0642    5.8331 H   0  0  0  0  0  0  0  0  0  0  0  0
   -2.4318    1.1383    5.7384 H   0  0  0  0  0  0  0  0  0  0  0  0
   -2.3116    1.5383    3.1570 N   0  0  0  0  0  0  0  0  0  0  0  0
   -2.0648    1.9643    1.8046 C   0  0  2  0  0  0  0  0  0  0  0  0
   -0.7298    1.3789    1.3634 C   0  0  0  0  0  0  0  0  0  0  0  0
    0.1423    1.0262    2.1547 O   0  0  0  0  0  0  0  0  0  0  0  0
   -2.0560    3.4811    1.6952 C   0  0  0  0  0  0  0  0  0  0  0  0
   -3.0767    1.9741    3.6688 H   0  0  0  0  0  0  0  0  0  0  0  0
   -2.8689    1.5458    1.1895 H   0  0  0  0  0  0  0  0  0  0  0  0
   -1.2569    3.9183    2.3049 H   0  0  0  0  0  0  0  0  0  0  0  0
   -1.8965    3.8033    0.6609 H   0  0  0  0  0  0  0  0  0  0  0  0
   -3.0062    3.9023    2.0409 H   0  0  0  0  0  0  0  0  0  0  0  0
   -0.6071    1.3358   -0.0200 N   0  0  0  0  0  0  0  0  0  0  0  0
    0.5702    0.8350   -0.6836 C   0  0  2  0  0  0  0  0  0  0  0  0
    0.9658   -0.4603    0.0162 C   0  0  0  0  0  0  0  0  0  0  0  0
    0.5768   -1.5662   -0.3531 O   0  0  0  0  0  0  0  0  0  0  0  0
    1.7287    1.8382   -0.6428 C   0  0  0  0  0  0  0  0  0  0  0  0
    1.4250    3.1114   -1.3941 C   0  0  0  0  0  0  0  0  0  0  0  0
    1.4266    3.1826   -2.7587 N   0  0  0  0  0  0  0  0  0  0  0  0
    1.1057    4.3815   -0.9756 C   0  0  0  0  0  0  0  0  0  0  0  0
    1.1147    4.4687   -3.1023 C   0  0  0  0  0  0  0  0  0  0  0  0
    0.9135    5.2216   -2.0438 N   0  0  0  0  0  0  0  0  0  0  0  0
   -1.3903    1.6325   -0.5973 H   0  0  0  0  0  0  0  0  0  0  0  0
    0.2753    0.6099   -1.7153 H   0  0  0  0  0  0  0  0  0  0  0  0
    2.6425    1.3806   -1.0456 H   0  0  0  0  0  0  0  0  0  0  0  0
    1.9719    2.1012    0.3951 H   0  0  0  0  0  0  0  0  0  0  0  0
    1.6233    2.4252   -3.3998 H   0  0  0  0  0  0  0  0  0  0  0  0
    1.0037    4.7364    0.0401 H   0  0  0  0  0  0  0  0  0  0  0  0
    1.0512    4.7884   -4.1328 H   0  0  0  0  0  0  0  0  0  0  0  0
    1.8427   -0.2355    1.0684 N   0  0  0  0  0  0  0  0  0  0  0  0
    2.3915   -1.2948    1.8842 C   0  0  2  0  0  0  0  0  0  0  0  0
    1.2393   -2.1763    2.3478 C   0  0  0  0  0  0  0  0  0  0  0  0
    0.0751   -1.7854    2.4012 O   0  0  0  0  0  0  0  0  0  0  0  0
    3.1607   -0.7368    3.0715 C   0  0  0  0  0  0  0  0  0  0  0  0
    2.1124    0.7217    1.2754 H   0  0  0  0  0  0  0  0  0  0  0  0
    3.0604   -1.8758    1.2401 H   0  0  0  0  0  0  0  0  0  0  0  0
    2.5070   -0.1515    3.7283 H   0  0  0  0  0  0  0  0  0  0  0  0
    3.5999   -1.5398    3.6726 H   0  0  0  0  0  0  0  0  0  0  0  0
    3.9705   -0.0793    2.7370 H   0  0  0  0  0  0  0  0  0  0  0  0
    1.6702   -3.4372    2.7357 N   0  0  0  0  0  0  0  0  0  0  0  0
    0.7680   -4.4527    3.2265 C   0  0  0  0  0  0  0  0  0  0  0  0
    2.6516   -3.6813    2.6399 H   0  0  0  0  0  0  0  0  0  0  0  0
    0.7122   -4.3951    4.3235 H   0  0  0  0  0  0  0  0  0  0  0  0
   -0.2328   -4.2912    2.7995 H   0  0  0  0  0  0  0  0  0  0  0  0
    1.1374   -5.4455    2.9299 H   0  0  0  0  0  0  0  0  0  0  0  0
 22 24  2  0  0  0  0
 24 26  1  0  0  0  0
 25 26  2  0  0  0  0
 23 25  1  0  0  0  0
 21 22  1  0  0  0  0
 22 23  1  0  0  0  0
  1  3  1  0  0  0  0
  1  7  1  0  0  0  0
  1  2  2  0  0  0  0
 35 36  1  0  0  0  0
 36 44  1  0  0  0  0
 36 37  2  0  0  0  0
  8  9  1  0  0  0  0
  9 17  1  0  0  0  0
  9 10  2  0  0  0  0
 18 19  1  0  0  0  0
 19 34  1  0  0  0  0
 19 20  2  0  0  0  0
 35 38  1  0  0  0  0
  8 11  1  0  0  0  0
 44 45  1  0  0  0  0
 18 21  1  0  0  0  0
 34 35  1  0  0  0  0
  7  8  1  0  0  0  0
 17 18  1  0  0  0  0
 24 32  1  0  0  0  0
 25 33  1  0  0  0  0
  3  4  1  0  0  0  0
  3  5  1  0  0  0  0
  3  6  1  0  0  0  0
 38 41  1  0  0  0  0
 38 42  1  0  0  0  0
 38 43  1  0  0  0  0
 11 14  1  0  0  0  0
 11 15  1  0  0  0  0
 11 16  1  0  0  0  0
 45 47  1  0  0  0  0
 45 48  1  0  0  0  0
 45 49  1  0  0  0  0
 21 29  1  0  0  0  0
 21 30  1  0  0  0  0
 35 40  1  0  0  0  0
  8 13  1  0  0  0  0
 18 28  1  0  0  0  0
 23 31  1  0  0  0  0
 44 46  1  0  0  0  0
  7 12  1  0  0  0  0
 34 39  1  0  0  0  0
 17 27  1  0  0  0  0
M  END
$$$$

  -OEChem-05262214473D

 49 49  0     1  0  0  0  0  0999 V2000
   -1.5619    0.5658    3.7981 C   0  0  0  0  0  0  0  0  0  0  0  0
   -0.6145   -0.0489    3.3224 O   0  0  0  0  0  0  0  0  0  0  0  0
   -1.9938    0.2834    5.1988 C   0  0  0  0  0  0  0  0  0  0  0  0
   -2.7535   -0.5129    5.2522 H   0  0  0  0  0  0  0  0  0  0  0  0
   -1.1626   -0.0642    5.8331 H   0  0  0  0  0  0  0  0  0  0  0  0
   -2.4318    1.1383    5.7384 H   0  0  0  0  0  0  0  0  0  0  0  0
   -2.3116    1.5383    3.1570 N   0  0  0  0  0  0  0  0  0  0  0  0
   -2.0648    1.9643    1.8046 C   0  0  2  0  0  0  0  0  0  0  0  0
   -0.7298    1.3789    1.3634 C   0  0  0  0  0  0  0  0  0  0  0  0
    0.1423    1.0262    2.1547 O   0  0  0  0  0  0  0  0  0  0  0  0
   -2.0560    3.4811    1.6952 C   0  0  0  0  0  0  0  0  0  0  0  0
   -3.0767    1.9741    3.6688 H   0  0  0  0  0  0  0  0  0  0  0  0
   -2.8689    1.5458    1.1895 H   0  0  0  0  0  0  0  0  0  0  0  0
   -1.2569    3.9183    2.3049 H   0  0  0  0  0  0  0  0  0  0  0  0
   -1.8965    3.8033    0.6609 H   0  0  0  0  0  0  0  0  0  0  0  0
   -3.0062    3.9023    2.0409 H   0  0  0  0  0  0  0  0  0  0  0  0
   -0.6071    1.3358   -0.0200 N   0  0  0  0  0  0  0  0  0  0  0  0
    0.5702    0.8350   -0.6836 C   0  0  2  0  0  0  0  0  0  0  0  0
    0.9658   -0.4603    0.0162 C   0  0  0  0  0  0  0  0  0  0  0  0
    0.8086   -1.5693   -0.4899 O   0  0  0  0  0  0  0  0  0  0  0  0
    1.7287    1.8382   -0.6428 C   0  0  0  0  0  0  0  0  0  0  0  0
    1.4250    3.1114   -1.3941 C   0  0  0  0  0  0  0  0  0  0  0  0
    1.4266    3.1826   -2.7587 N   0  0  0  0  0  0  0  0  0  0  0  0
    1.1057    4.3815   -0.9756 C   0  0  0  0  0  0  0  0  0  0  0  0
    1.1147    4.4687   -3.1023 C   0  0  0  0  0  0  0  0  0  0  0  0
    0.9135    5.2216   -2.0438 N   0  0  0  0  0  0  0  0  0  0  0  0
   -1.3903    1.6325   -0.5973 H   0  0  0  0  0  0  0  0  0  0  0  0
    0.2753    0.6099   -1.7153 H   0  0  0  0  0  0  0  0  0  0  0  0
    2.6425    1.3806   -1.0456 H   0  0  0  0  0  0  0  0  0  0  0  0
    1.9719    2.1012    0.3951 H   0  0  0  0  0  0  0  0  0  0  0  0
    1.6233    2.4252   -3.3998 H   0  0  0  0  0  0  0  0  0  0  0  0
    1.0037    4.7364    0.0401 H   0  0  0  0  0  0  0  0  0  0  0  0
    1.0512    4.7884   -4.1328 H   0  0  0  0  0  0  0  0  0  0  0  0
    1.5594   -0.2247    1.2486 N   0  0  0  0  0  0  0  0  0  0  0  0
    2.0484   -1.2785    2.1083 C   0  0  2  0  0  0  0  0  0  0  0  0
    0.9441   -2.3172    2.2539 C   0  0  0  0  0  0  0  0  0  0  0  0
   -0.2440   -2.0638    2.0662 O   0  0  0  0  0  0  0  0  0  0  0  0
    2.4665   -0.7357    3.4660 C   0  0  0  0  0  0  0  0  0  0  0  0
    1.6548    0.7368    1.5620 H   0  0  0  0  0  0  0  0  0  0  0  0
    2.9085   -1.7278    1.6000 H   0  0  0  0  0  0  0  0  0  0  0  0
    1.6177   -0.2815    3.9903 H   0  0  0  0  0  0  0  0  0  0  0  0
    2.8633   -1.5306    4.1060 H   0  0  0  0  0  0  0  0  0  0  0  0
    3.2396    0.0326    3.3573 H   0  0  0  0  0  0  0  0  0  0  0  0
    1.4369   -3.5494    2.6600 N   0  0  0  0  0  0  0  0  0  0  0  0
    0.5858   -4.6951    2.8807 C   0  0  0  0  0  0  0  0  0  0  0  0
    2.4386   -3.6742    2.7733 H   0  0  0  0  0  0  0  0  0  0  0  0
    0.2876   -4.7326    3.9389 H   0  0  0  0  0  0  0  0  0  0  0  0
   -0.3115   -4.6122    2.2498 H   0  0  0  0  0  0  0  0  0  0  0  0
    1.1328   -5.6136    2.6213 H   0  0  0  0  0  0  0  0  0  0  0  0
 22 24  2  0  0  0  0
 24 26  1  0  0  0  0
 25 26  2  0  0  0  0
 23 25  1  0  0  0  0
 21 22  1  0  0  0  0
 22 23  1  0  0  0  0
  1  3  1  0  0  0  0
  1  7  1  0  0  0  0
  1  2  2  0  0  0  0
 35 36  1  0  0  0  0
 36 44  1  0  0  0  0
 36 37  2  0  0  0  0
  8  9  1  0  0  0  0
  9 17  1  0  0  0  0
  9 10  2  0  0  0  0
 18 19  1  0  0  0  0
 19 34  1  0  0  0  0
 19 20  2  0  0  0  0
 35 38  1  0  0  0  0
  8 11  1  0  0  0  0
 44 45  1  0  0  0  0
 18 21  1  0  0  0  0
 34 35  1  0  0  0  0
  7  8  1  0  0  0  0
 17 18  1  0  0  0  0
 24 32  1  0  0  0  0
 25 33  1  0  0  0  0
  3  4  1  0  0  0  0
  3  5  1  0  0  0  0
  3  6  1  0  0  0  0
 38 41  1  0  0  0  0
 38 42  1  0  0  0  0
 38 43  1  0  0  0  0
 11 14  1  0  0  0  0
 11 15  1  0  0  0  0
 11 16  1  0  0  0  0
 45 47  1  0  0  0  0
 45 48  1  0  0  0  0
 45 49  1  0  0  0  0
 21 29  1  0  0  0  0
 21 30  1  0  0  0  0
 35 40  1  0  0  0  0
  8 13  1  0  0  0  0
 18 28  1  0  0  0  0
 23 31  1  0  0  0  0
 44 46  1  0  0  0  0
  7 12  1  0  0  0  0
 34 39  1  0  0  0  0
 17 27  1  0  0  0  0
M  END
$$$$

  -OEChem-05262214473D

 49 49  0     1  0  0  0  0  0999 V2000
   -1.5619    0.5658    3.7981 C   0  0  0  0  0  0  0  0  0  0  0  0
   -0.6145   -0.0489    3.3224 O   0  0  0  0  0  0  0  0  0  0  0  0
   -1.9938    0.2834    5.1988 C   0  0  0  0  0  0  0  0  0  0  0  0
   -2.7535   -0.5129    5.2522 H   0  0  0  0  0  0  0  0  0  0  0  0
   -1.1626   -0.0642    5.8331 H   0  0  0  0  0  0  0  0  0  0  0  0
   -2.4318    1.1383    5.7384 H   0  0  0  0  0  0  0  0  0  0  0  0
   -2.3116    1.5383    3.1570 N   0  0  0  0  0  0  0  0  0  0  0  0
   -2.0648    1.9643    1.8046 C   0  0  2  0  0  0  0  0  0  0  0  0
   -0.7298    1.3789    1.3634 C   0  0  0  0  0  0  0  0  0  0  0  0
    0.1423    1.0262    2.1547 O   0  0  0  0  0  0  0  0  0  0  0  0
   -2.0560    3.4811    1.6952 C   0  0  0  0  0  0  0  0  0  0  0  0
   -3.0767    1.9741    3.6688 H   0  0  0  0  0  0  0  0  0  0  0  0
   -2.8689    1.5458    1.1895 H   0  0  0  0  0  0  0  0  0  0  0  0
   -1.2569    3.9183    2.3049 H   0  0  0  0  0  0  0  0  0  0  0  0
   -1.8965    3.8033    0.6609 H   0  0  0  0  0  0  0  0  0  0  0  0
   -3.0062    3.9023    2.0409 H   0  0  0  0  0  0  0  0  0  0  0  0
   -0.6071    1.3358   -0.0200 N   0  0  0  0  0  0  0  0  0  0  0  0
    0.5702    0.8350   -0.6836 C   0  0  2  0  0  0  0  0  0  0  0  0
    0.9658   -0.4603    0.0162 C   0  0  0  0  0  0  0  0  0  0  0  0
    1.0629   -1.5356   -0.5713 O   0  0  0  0  0  0  0  0  0  0  0  0
    1.7287    1.8382   -0.6428 C   0  0  0  0  0  0  0  0  0  0  0  0
    1.4250    3.1114   -1.3941 C   0  0  0  0  0  0  0  0  0  0  0  0
    1.4266    3.1826   -2.7587 N   0  0  0  0  0  0  0  0  0  0  0  0
    1.1057    4.3815   -0.9756 C   0  0  0  0  0  0  0  0  0  0  0  0
    1.1147    4.4687   -3.1023 C   0  0  0  0  0  0  0  0  0  0  0  0
    0.9135    5.2216   -2.0438 N   0  0  0  0  0  0  0  0  0  0  0  0
   -1.3903    1.6325   -0.5973 H   0  0  0  0  0  0  0  0  0  0  0  0
    0.2753    0.6099   -1.7153 H   0  0  0  0  0  0  0  0  0  0  0  0
    2.6425    1.3806   -1.0456 H   0  0  0  0  0  0  0  0  0  0  0  0
    1.9719    2.1012    0.3951 H   0  0  0  0  0  0  0  0  0  0  0  0
    1.6233    2.4252   -3.3998 H   0  0  0  0  0  0  0  0  0  0  0  0
    1.0037    4.7364    0.0401 H   0  0  0  0  0  0  0  0  0  0  0  0
    1.0512    4.7884   -4.1328 H   0  0  0  0  0  0  0  0  0  0  0  0
    1.2447   -0.2600    1.3610 N   0  0  0  0  0  0  0  0  0  0  0  0
    1.6658   -1.3185    2.2504 C   0  0  2  0  0  0  0  0  0  0  0  0
    0.6964   -2.4820    2.0888 C   0  0  0  0  0  0  0  0  0  0  0  0
   -0.4455   -2.3483    1.6537 O   0  0  0  0  0  0  0  0  0  0  0  0
    1.7090   -0.8436    3.6945 C   0  0  0  0  0  0  0  0  0  0  0  0
    1.1481    0.6778    1.7392 H   0  0  0  0  0  0  0  0  0  0  0  0
    2.6650   -1.6270    1.9242 H   0  0  0  0  0  0  0  0  0  0  0  0
    0.7167   -0.5304    4.0390 H   0  0  0  0  0  0  0  0  0  0  0  0
    2.0555   -1.6383    4.3633 H   0  0  0  0  0  0  0  0  0  0  0  0
    2.3839    0.0122    3.8033 H   0  0  0  0  0  0  0  0  0  0  0  0
    1.2416   -3.6804    2.5279 N   0  0  0  0  0  0  0  0  0  0  0  0
    0.5146   -4.9278    2.4904 C   0  0  0  0  0  0  0  0  0  0  0  0
    2.2027   -3.7017    2.8559 H   0  0  0  0  0  0  0  0  0  0  0  0
    0.0022   -5.0832    3.4513 H   0  0  0  0  0  0  0  0  0  0  0  0
   -0.2285   -4.8947    1.6800 H   0  0  0  0  0  0  0  0  0  0  0  0
    1.2162   -5.7557    2.3110 H   0  0  0  0  0  0  0  0  0  0  0  0
 22 24  2  0  0  0  0
 24 26  1  0  0  0  0
 25 26  2  0  0  0  0
 23 25  1  0  0  0  0
 21 22  1  0  0  0  0
 22 23  1  0  0  0  0
  1  3  1  0  0  0  0
  1  7  1  0  0  0  0
  1  2  2  0  0  0  0
 35 36  1  0  0  0  0
 36 44  1  0  0  0  0
 36 37  2  0  0  0  0
  8  9  1  0  0  0  0
  9 17  1  0  0  0  0
  9 10  2  0  0  0  0
 18 19  1  0  0  0  0
 19 34  1  0  0  0  0
 19 20  2  0  0  0  0
 35 38  1  0  0  0  0
  8 11  1  0  0  0  0
 44 45  1  0  0  0  0
 18 21  1  0  0  0  0
 34 35  1  0  0  0  0
  7  8  1  0  0  0  0
 17 18  1  0  0  0  0
 24 32  1  0  0  0  0
 25 33  1  0  0  0  0
  3  4  1  0  0  0  0
  3  5  1  0  0  0  0
  3  6  1  0  0  0  0
 38 41  1  0  0  0  0
 38 42  1  0  0  0  0
 38 43  1  0  0  0  0
 11 14  1  0  0  0  0
 11 15  1  0  0  0  0
 11 16  1  0  0  0  0
 45 47  1  0  0  0  0
 45 48  1  0  0  0  0
 45 49  1  0  0  0  0
 21 29  1  0  0  0  0
 21 30  1  0  0  0  0
 35 40  1  0  0  0  0
  8 13  1  0  0  0  0
 18 28  1  0  0  0  0
 23 31  1  0  0  0  0
 44 46  1  0  0  0  0
  7 12  1  0  0  0  0
 34 39  1  0  0  0  0
 17 27  1  0  0  0  0
M  END
$$$$

  -OEChem-05262214473D

 49 49  0     1  0  0  0  0  0999 V2000
   -1.5619    0.5658    3.7981 C   0  0  0  0  0  0  0  0  0  0  0  0
   -0.6145   -0.0489    3.3224 O   0  0  0  0  0  0  0  0  0  0  0  0
   -1.9938    0.2834    5.1988 C   0  0  0  0  0  0  0  0  0  0  0  0
   -2.7535   -0.5129    5.2522 H   0  0  0  0  0  0  0  0  0  0  0  0
   -1.1626   -0.0642    5.8331 H   0  0  0  0  0  0  0  0  0  0  0  0
   -2.4318    1.1383    5.7384 H   0  0  0  0  0  0  0  0  0  0  0  0
   -2.3116    1.5383    3.1570 N   0  0  0  0  0  0  0  0  0  0  0  0
   -2.0648    1.9643    1.8046 C   0  0  2  0  0  0  0  0  0  0  0  0
   -0.7298    1.3789    1.3634 C   0  0  0  0  0  0  0  0  0  0  0  0
    0.1423    1.0262    2.1547 O   0  0  0  0  0  0  0  0  0  0  0  0
   -2.0560    3.4811    1.6952 C   0  0  0  0  0  0  0  0  0  0  0  0
   -3.0767    1.9741    3.6688 H   0  0  0  0  0  0  0  0  0  0  0  0
   -2.8689    1.5458    1.1895 H   0  0  0  0  0  0  0  0  0  0  0  0
   -1.2569    3.9183    2.3049 H   0  0  0  0  0  0  0  0  0  0  0  0
   -1.8965    3.8033    0.6609 H   0  0  0  0  0  0  0  0  0  0  0  0
   -3.0062    3.9023    2.0409 H   0  0  0  0  0  0  0  0  0  0  0  0
   -0.6071    1.3358   -0.0200 N   0  0  0  0  0  0  0  0  0  0  0  0
    0.5702    0.8350   -0.6836 C   0  0  2  0  0  0  0  0  0  0  0  0
    0.9658   -0.4603    0.0162 C   0  0  0  0  0  0  0  0  0  0  0  0
    1.3225   -1.4673   -0.5917 O   0  0  0  0  0  0  0  0  0  0  0  0
    1.7287    1.8382   -0.6428 C   0  0  0  0  0  0  0  0  0  0  0  0
    1.4250    3.1114   -1.3941 C   0  0  0  0  0  0  0  0  0  0  0  0
    1.4266    3.1826   -2.7587 N   0  0  0  0  0  0  0  0  0  0  0  0
    1.1057    4.3815   -0.9756 C   0  0  0  0  0  0  0  0  0  0  0  0
    1.1147    4.4687   -3.1023 C   0  0  0  0  0  0  0  0  0  0  0  0
    0.9135    5.2216   -2.0438 N   0  0  0  0  0  0  0  0  0  0  0  0
   -1.3903    1.6325   -0.5973 H   0  0  0  0  0  0  0  0  0  0  0  0
    0.2753    0.6099   -1.7153 H   0  0  0  0  0  0  0  0  0  0  0  0
    2.6425    1.3806   -1.0456 H   0  0  0  0  0  0  0  0  0  0  0  0
    1.9719    2.1012    0.3951 H   0  0  0  0  0  0  0  0  0  0  0  0
    1.6233    2.4252   -3.3998 H   0  0  0  0  0  0  0  0  0  0  0  0
    1.0037    4.7364    0.0401 H   0  0  0  0  0  0  0  0  0  0  0  0
    1.0512    4.7884   -4.1328 H   0  0  0  0  0  0  0  0  0  0  0  0
    0.9203   -0.3390    1.3981 N   0  0  0  0  0  0  0  0  0  0  0  0
    1.2697   -1.4123    2.3009 C   0  0  2  0  0  0  0  0  0  0  0  0
    0.5130   -2.6596    1.8638 C   0  0  0  0  0  0  0  0  0  0  0  0
   -0.5156   -2.6192    1.1919 O   0  0  0  0  0  0  0  0  0  0  0  0
    0.9398   -1.0532    3.7413 C   0  0  0  0  0  0  0  0  0  0  0  0
    0.6266    0.5486    1.7950 H   0  0  0  0  0  0  0  0  0  0  0  0
    2.3466   -1.5803    2.1906 H   0  0  0  0  0  0  0  0  0  0  0  0
   -0.1349   -0.8812    3.8713 H   0  0  0  0  0  0  0  0  0  0  0  0
    1.2314   -1.8556    4.4270 H   0  0  0  0  0  0  0  0  0  0  0  0
    1.4618   -0.1392    4.0445 H   0  0  0  0  0  0  0  0  0  0  0  0
    1.0975   -3.8213    2.3486 N   0  0  0  0  0  0  0  0  0  0  0  0
    0.5593   -5.1348    2.0821 C   0  0  0  0  0  0  0  0  0  0  0  0
    1.9600   -3.7618    2.8819 H   0  0  0  0  0  0  0  0  0  0  0  0
   -0.1246   -5.4231    2.8940 H   0  0  0  0  0  0  0  0  0  0  0  0
    0.0106   -5.1195    1.1288 H   0  0  0  0  0  0  0  0  0  0  0  0
    1.3819   -5.8623    2.0201 H   0  0  0  0  0  0  0  0  0  0  0  0
 22 24  2  0  0  0  0
 24 26  1  0  0  0  0
 25 26  2  0  0  0  0
 23 25  1  0  0  0  0
 21 22  1  0  0  0  0
 22 23  1  0  0  0  0
  1  3  1  0  0  0  0
  1  7  1  0  0  0  0
  1  2  2  0  0  0  0
 35 36  1  0  0  0  0
 36 44  1  0  0  0  0
 36 37  2  0  0  0  0
  8  9  1  0  0  0  0
  9 17  1  0  0  0  0
  9 10  2  0  0  0  0
 18 19  1  0  0  0  0
 19 34  1  0  0  0  0
 19 20  2  0  0  0  0
 35 38  1  0  0  0  0
  8 11  1  0  0  0  0
 44 45  1  0  0  0  0
 18 21  1  0  0  0  0
 34 35  1  0  0  0  0
  7  8  1  0  0  0  0
 17 18  1  0  0  0  0
 24 32  1  0  0  0  0
 25 33  1  0  0  0  0
  3  4  1  0  0  0  0
  3  5  1  0  0  0  0
  3  6  1  0  0  0  0
 38 41  1  0  0  0  0
 38 42  1  0  0  0  0
 38 43  1  0  0  0  0
 11 14  1  0  0  0  0
 11 15  1  0  0  0  0
 11 16  1  0  0  0  0
 45 47  1  0  0  0  0
 45 48  1  0  0  0  0
 45 49  1  0  0  0  0
 21 29  1  0  0  0  0
 21 30  1  0  0  0  0
 35 40  1  0  0  0  0
  8 13  1  0  0  0  0
 18 28  1  0  0  0  0
 23 31  1  0  0  0  0
 44 46  1  0  0  0  0
  7 12  1  0  0  0  0
 34 39  1  0  0  0  0
 17 27  1  0  0  0  0
M  END
$$$$

  -OEChem-05262214473D

 49 49  0     1  0  0  0  0  0999 V2000
   -1.5619    0.5658    3.7981 C   0  0  0  0  0  0  0  0  0  0  0  0
   -0.6145   -0.0489    3.3224 O   0  0  0  0  0  0  0  0  0  0  0  0
   -1.9938    0.2834    5.1988 C   0  0  0  0  0  0  0  0  0  0  0  0
   -2.7535   -0.5129    5.2522 H   0  0  0  0  0  0  0  0  0  0  0  0
   -1.1626   -0.0642    5.8331 H   0  0  0  0  0  0  0  0  0  0  0  0
   -2.4318    1.1383    5.7384 H   0  0  0  0  0  0  0  0  0  0  0  0
   -2.3116    1.5383    3.1570 N   0  0  0  0  0  0  0  0  0  0  0  0
   -2.0648    1.9643    1.8046 C   0  0  2  0  0  0  0  0  0  0  0  0
   -0.7298    1.3789    1.3634 C   0  0  0  0  0  0  0  0  0  0  0  0
    0.1423    1.0262    2.1547 O   0  0  0  0  0  0  0  0  0  0  0  0
   -2.0560    3.4811    1.6952 C   0  0  0  0  0  0  0  0  0  0  0  0
   -3.0767    1.9741    3.6688 H   0  0  0  0  0  0  0  0  0  0  0  0
   -2.8689    1.5458    1.1895 H   0  0  0  0  0  0  0  0  0  0  0  0
   -1.2569    3.9183    2.3049 H   0  0  0  0  0  0  0  0  0  0  0  0
   -1.8965    3.8033    0.6609 H   0  0  0  0  0  0  0  0  0  0  0  0
   -3.0062    3.9023    2.0409 H   0  0  0  0  0  0  0  0  0  0  0  0
   -0.6071    1.3358   -0.0200 N   0  0  0  0  0  0  0  0  0  0  0  0
    0.5702    0.8350   -0.6836 C   0  0  2  0  0  0  0  0  0  0  0  0
    0.9658   -0.4603    0.0162 C   0  0  0  0  0  0  0  0  0  0  0  0
    1.5696   -1.3692   -0.5497 O   0  0  0  0  0  0  0  0  0  0  0  0
    1.7287    1.8382   -0.6428 C   0  0  0  0  0  0  0  0  0  0  0  0
    1.4250    3.1114   -1.3941 C   0  0  0  0  0  0  0  0  0  0  0  0
    1.4266    3.1826   -2.7587 N   0  0  0  0  0  0  0  0  0  0  0  0
    1.1057    4.3815   -0.9756 C   0  0  0  0  0  0  0  0  0  0  0  0
    1.1147    4.4687   -3.1023 C   0  0  0  0  0  0  0  0  0  0  0  0
    0.9135    5.2216   -2.0438 N   0  0  0  0  0  0  0  0  0  0  0  0
   -1.3903    1.6325   -0.5973 H   0  0  0  0  0  0  0  0  0  0  0  0
    0.2753    0.6099   -1.7153 H   0  0  0  0  0  0  0  0  0  0  0  0
    2.6425    1.3806   -1.0456 H   0  0  0  0  0  0  0  0  0  0  0  0
    1.9719    2.1012    0.3951 H   0  0  0  0  0  0  0  0  0  0  0  0
    1.6233    2.4252   -3.3998 H   0  0  0  0  0  0  0  0  0  0  0  0
    1.0037    4.7364    0.0401 H   0  0  0  0  0  0  0  0  0  0  0  0
    1.0512    4.7884   -4.1328 H   0  0  0  0  0  0  0  0  0  0  0  0
    0.6081   -0.4565    1.3573 N   0  0  0  0  0  0  0  0  0  0  0  0
    0.8872   -1.5532    2.2562 C   0  0  2  0  0  0  0  0  0  0  0  0
    0.4065   -2.8378    1.5942 C   0  0  0  0  0  0  0  0  0  0  0  0
   -0.4495   -2.8582    0.7122 O   0  0  0  0  0  0  0  0  0  0  0  0
    0.2115   -1.3502    3.6034 C   0  0  0  0  0  0  0  0  0  0  0  0
    0.1260    0.3582    1.7256 H   0  0  0  0  0  0  0  0  0  0  0  0
    1.9749   -1.5909    2.3810 H   0  0  0  0  0  0  0  0  0  0  0  0
   -0.8788   -1.3099    3.4984 H   0  0  0  0  0  0  0  0  0  0  0  0
    0.4472   -2.1677    4.2927 H   0  0  0  0  0  0  0  0  0  0  0  0
    0.5360   -0.4111    4.0645 H   0  0  0  0  0  0  0  0  0  0  0  0
    1.0145   -3.9624    2.1343 N   0  0  0  0  0  0  0  0  0  0  0  0
    0.7168   -5.3019    1.6836 C   0  0  0  0  0  0  0  0  0  0  0  0
    1.7269   -3.8504    2.8496 H   0  0  0  0  0  0  0  0  0  0  0  0
   -0.0841   -5.7290    2.3050 H   0  0  0  0  0  0  0  0  0  0  0  0
    0.3894   -5.2712    0.6339 H   0  0  0  0  0  0  0  0  0  0  0  0
    1.6186   -5.9261    1.7683 H   0  0  0  0  0  0  0  0  0  0  0  0
 22 24  2  0  0  0  0
 24 26  1  0  0  0  0
 25 26  2  0  0  0  0
 23 25  1  0  0  0  0
 21 22  1  0  0  0  0
 22 23  1  0  0  0  0
  1  3  1  0  0  0  0
  1  7  1  0  0  0  0
  1  2  2  0  0  0  0
 35 36  1  0  0  0  0
 36 44  1  0  0  0  0
 36 37  2  0  0  0  0
  8  9  1  0  0  0  0
  9 17  1  0  0  0  0
  9 10  2  0  0  0  0
 18 19  1  0  0  0  0
 19 34  1  0  0  0  0
 19 20  2  0  0  0  0
 35 38  1  0  0  0  0
  8 11  1  0  0  0  0
 44 45  1  0  0  0  0
 18 21  1  0  0  0  0
 34 35  1  0  0  0  0
  7  8  1  0  0  0  0
 17 18  1  0  0  0  0
 24 32  1  0  0  0  0
 25 33  1  0  0  0  0
  3  4  1  0  0  0  0
  3  5  1  0  0  0  0
  3  6  1  0  0  0  0
 38 41  1  0  0  0  0
 38 42  1  0  0  0  0
 38 43  1  0  0  0  0
 11 14  1  0  0  0  0
 11 15  1  0  0  0  0
 11 16  1  0  0  0  0
 45 47  1  0  0  0  0
 45 48  1  0  0  0  0
 45 49  1  0  0  0  0
 21 29  1  0  0  0  0
 21 30  1  0  0  0  0
 35 40  1  0  0  0  0
  8 13  1  0  0  0  0
 18 28  1  0  0  0  0
 23 31  1  0  0  0  0
 44 46  1  0  0  0  0
  7 12  1  0  0  0  0
 34 39  1  0  0  0  0
 17 27  1  0  0  0  0
M  END
$$$$

  -OEChem-05262214473D

 49 49  0     1  0  0  0  0  0999 V2000
   -1.5619    0.5658    3.7981 C   0  0  0  0  0  0  0  0  0  0  0  0
   -0.6145   -0.0489    3.3224 O   0  0  0  0  0  0  0  0  0  0  0  0
   -1.9938    0.2834    5.1988 C   0  0  0  0  0  0  0  0  0  0  0  0
   -2.7535   -0.5129    5.2522 H   0  0  0  0  0  0  0  0  0  0  0  0
   -1.1626   -0.0642    5.8331 H   0  0  0  0  0  0  0  0  0  0  0  0
   -2.4318    1.1383    5.7384 H   0  0  0  0  0  0  0  0  0  0  0  0
   -2.3116    1.5383    3.1570 N   0  0  0  0  0  0  0  0  0  0  0  0
   -2.0648    1.9643    1.8046 C   0  0  2  0  0  0  0  0  0  0  0  0
   -0.7298    1.3789    1.3634 C   0  0  0  0  0  0  0  0  0  0  0  0
    0.1423    1.0262    2.1547 O   0  0  0  0  0  0  0  0  0  0  0  0
   -2.0560    3.4811    1.6952 C   0  0  0  0  0  0  0  0  0  0  0  0
   -3.0767    1.9741    3.6688 H   0  0  0  0  0  0  0  0  0  0  0  0
   -2.8689    1.5458    1.1895 H   0  0  0  0  0  0  0  0  0  0  0  0
   -1.2569    3.9183    2.3049 H   0  0  0  0  0  0  0  0  0  0  0  0
   -1.8965    3.8033    0.6609 H   0  0  0  0  0  0  0  0  0  0  0  0
   -3.0062    3.9023    2.0409 H   0  0  0  0  0  0  0  0  0  0  0  0
   -0.6071    1.3358   -0.0200 N   0  0  0  0  0  0  0  0  0  0  0  0
    0.5702    0.8350   -0.6836 C   0  0  2  0  0  0  0  0  0  0  0  0
    0.9658   -0.4603    0.0162 C   0  0  0  0  0  0  0  0  0  0  0  0
    1.7874   -1.2478   -0.4482 O   0  0  0  0  0  0  0  0  0  0  0  0
    1.7287    1.8382   -0.6428 C   0  0  0  0  0  0  0  0  0  0  0  0
    1.4250    3.1114   -1.3941 C   0  0  0  0  0  0  0  0  0  0  0  0
    1.4266    3.1826   -2.7587 N   0  0  0  0  0  0  0  0  0  0  0  0
    1.1057    4.3815   -0.9756 C   0  0  0  0  0  0  0  0  0  0  0  0
    1.1147    4.4687   -3.1023 C   0  0  0  0  0  0  0  0  0  0  0  0
    0.9135    5.2216   -2.0438 N   0  0  0  0  0  0  0  0  0  0  0  0
   -1.3903    1.6325   -0.5973 H   0  0  0  0  0  0  0  0  0  0  0  0
    0.2753    0.6099   -1.7153 H   0  0  0  0  0  0  0  0  0  0  0  0
    2.6425    1.3806   -1.0456 H   0  0  0  0  0  0  0  0  0  0  0  0
    1.9719    2.1012    0.3951 H   0  0  0  0  0  0  0  0  0  0  0  0
    1.6233    2.4252   -3.3998 H   0  0  0  0  0  0  0  0  0  0  0  0
    1.0037    4.7364    0.0401 H   0  0  0  0  0  0  0  0  0  0  0  0
    1.0512    4.7884   -4.1328 H   0  0  0  0  0  0  0  0  0  0  0  0
    0.3296   -0.6042    1.2413 N   0  0  0  0  0  0  0  0  0  0  0  0
    0.5443   -1.7319    2.1195 C   0  0  2  0  0  0  0  0  0  0  0  0
    0.3840   -3.0045    1.2984 C   0  0  0  0  0  0  0  0  0  0  0  0
   -0.2518   -3.0490    0.2473 O   0  0  0  0  0  0  0  0  0  0  0  0
   -0.4263   -1.7144    3.2900 C   0  0  0  0  0  0  0  0  0  0  0  0
   -0.3197    0.1194    1.5356 H   0  0  0  0  0  0  0  0  0  0  0  0
    1.5752   -1.6582    2.4825 H   0  0  0  0  0  0  0  0  0  0  0  0
   -1.4645   -1.7873    2.9459 H   0  0  0  0  0  0  0  0  0  0  0  0
   -0.2437   -2.5534    3.9695 H   0  0  0  0  0  0  0  0  0  0  0  0
   -0.3304   -0.7852    3.8620 H   0  0  0  0  0  0  0  0  0  0  0  0
    0.9982   -4.0943    1.8996 N   0  0  0  0  0  0  0  0  0  0  0  0
    0.9765   -5.4179    1.3221 C   0  0  0  0  0  0  0  0  0  0  0  0
    1.5195   -3.9615    2.7612 H   0  0  0  0  0  0  0  0  0  0  0  0
    0.1208   -5.9801    1.7244 H   0  0  0  0  0  0  0  0  0  0  0  0
    0.8822   -5.3395    0.2290 H   0  0  0  0  0  0  0  0  0  0  0  0
    1.9102   -5.9426    1.5729 H   0  0  0  0  0  0  0  0  0  0  0  0
 22 24  2  0  0  0  0
 24 26  1  0  0  0  0
 25 26  2  0  0  0  0
 23 25  1  0  0  0  0
 21 22  1  0  0  0  0
 22 23  1  0  0  0  0
  1  3  1  0  0  0  0
  1  7  1  0  0  0  0
  1  2  2  0  0  0  0
 35 36  1  0  0  0  0
 36 44  1  0  0  0  0
 36 37  2  0  0  0  0
  8  9  1  0  0  0  0
  9 17  1  0  0  0  0
  9 10  2  0  0  0  0
 18 19  1  0  0  0  0
 19 34  1  0  0  0  0
 19 20  2  0  0  0  0
 35 38  1  0  0  0  0
  8 11  1  0  0  0  0
 44 45  1  0  0  0  0
 18 21  1  0  0  0  0
 34 35  1  0  0  0  0
  7  8  1  0  0  0  0
 17 18  1  0  0  0  0
 24 32  1  0  0  0  0
 25 33  1  0  0  0  0
  3  4  1  0  0  0  0
  3  5  1  0  0  0  0
  3  6  1  0  0  0  0
 38 41  1  0  0  0  0
 38 42  1  0  0  0  0
 38 43  1  0  0  0  0
 11 14  1  0  0  0  0
 11 15  1  0  0  0  0
 11 16  1  0  0  0  0
 45 47  1  0  0  0  0
 45 48  1  0  0  0  0
 45 49  1  0  0  0  0
 21 29  1  0  0  0  0
 21 30  1  0  0  0  0
 35 40  1  0  0  0  0
  8 13  1  0  0  0  0
 18 28  1  0  0  0  0
 23 31  1  0  0  0  0
 44 46  1  0  0  0  0
  7 12  1  0  0  0  0
 34 39  1  0  0  0  0
 17 27  1  0  0  0  0
M  END
$$$$

  -OEChem-05262214473D

 49 49  0     1  0  0  0  0  0999 V2000
   -1.5619    0.5658    3.7981 C   0  0  0  0  0  0  0  0  0  0  0  0
   -0.6145   -0.0489    3.3224 O   0  0  0  0  0  0  0  0  0  0  0  0
   -1.9938    0.2834    5.1988 C   0  0  0  0  0  0  0  0  0  0  0  0
   -2.7535   -0.5129    5.2522 H   0  0  0  0  0  0  0  0  0  0  0  0
   -1.1626   -0.0642    5.8331 H   0  0  0  0  0  0  0  0  0  0  0  0
   -2.4318    1.1383    5.7384 H   0  0  0  0  0  0  0  0  0  0  0  0
   -2.3116    1.5383    3.1570 N   0  0  0  0  0  0  0  0  0  0  0  0
   -2.0648    1.9643    1.8046 C   0  0  2  0  0  0  0  0  0  0  0  0
   -0.7298    1.3789    1.3634 C   0  0  0  0  0  0  0  0  0  0  0  0
    0.1423    1.0262    2.1547 O   0  0  0  0  0  0  0  0  0  0  0  0
   -2.0560    3.4811    1.6952 C   0  0  0  0  0  0  0  0  0  0  0  0
   -3.0767    1.9741    3.6688 H   0  0  0  0  0  0  0  0  0  0  0  0
   -2.8689    1.5458    1.1895 H   0  0  0  0  0  0  0  0  0  0  0  0
   -1.2569    3.9183    2.3049 H   0  0  0  0  0  0  0  0  0  0  0  0
   -1.8965    3.8033    0.6609 H   0  0  0  0  0  0  0  0  0  0  0  0
   -3.0062    3.9023    2.0409 H   0  0  0  0  0  0  0  0  0  0  0  0
   -0.6071    1.3358   -0.0200 N   0  0  0  0  0  0  0  0  0  0  0  0
    0.5702    0.8350   -0.6836 C   0  0  2  0  0  0  0  0  0  0  0  0
    0.9658   -0.4603    0.0162 C   0  0  0  0  0  0  0  0  0  0  0  0
    1.9610   -1.1116   -0.2942 O   0  0  0  0  0  0  0  0  0  0  0  0
    1.7287    1.8382   -0.6428 C   0  0  0  0  0  0  0  0  0  0  0  0
    1.4250    3.1114   -1.3941 C   0  0  0  0  0  0  0  0  0  0  0  0
    1.4266    3.1826   -2.7587 N   0  0  0  0  0  0  0  0  0  0  0  0
    1.1057    4.3815   -0.9756 C   0  0  0  0  0  0  0  0  0  0  0  0
    1.1147    4.4687   -3.1023 C   0  0  0  0  0  0  0  0  0  0  0  0
    0.9135    5.2216   -2.0438 N   0  0  0  0  0  0  0  0  0  0  0  0
   -1.3903    1.6325   -0.5973 H   0  0  0  0  0  0  0  0  0  0  0  0
    0.2753    0.6099   -1.7153 H   0  0  0  0  0  0  0  0  0  0  0  0
    2.6425    1.3806   -1.0456 H   0  0  0  0  0  0  0  0  0  0  0  0
    1.9719    2.1012    0.3951 H   0  0  0  0  0  0  0  0  0  0  0  0
    1.6233    2.4252   -3.3998 H   0  0  0  0  0  0  0  0  0  0  0  0
    1.0037    4.7364    0.0401 H   0  0  0  0  0  0  0  0  0  0  0  0
    1.0512    4.7884   -4.1328 H   0  0  0  0  0  0  0  0  0  0  0  0
    0.1035   -0.7722    1.0581 N   0  0  0  0  0  0  0  0  0  0  0  0
    0.2644   -1.9360    1.9000 C   0  0  2  0  0  0  0  0  0  0  0  0
    0.4472   -3.1483    0.9965 C   0  0  0  0  0  0  0  0  0  0  0  0
    0.0641   -3.1786   -0.1711 O   0  0  0  0  0  0  0  0  0  0  0  0
   -0.9303   -2.1208    2.8226 C   0  0  0  0  0  0  0  0  0  0  0  0
   -0.6800   -0.1514    1.2381 H   0  0  0  0  0  0  0  0  0  0  0  0
    1.1749   -1.7774    2.4881 H   0  0  0  0  0  0  0  0  0  0  0  0
   -1.8519   -2.2810    2.2513 H   0  0  0  0  0  0  0  0  0  0  0  0
   -0.7941   -2.9863    3.4795 H   0  0  0  0  0  0  0  0  0  0  0  0
   -1.0782   -1.2358    3.4508 H   0  0  0  0  0  0  0  0  0  0  0  0
    1.0497   -4.2078    1.6604 N   0  0  0  0  0  0  0  0  0  0  0  0
    1.3206   -5.4748    1.0223 C   0  0  0  0  0  0  0  0  0  0  0  0
    1.3517   -4.0876    2.6227 H   0  0  0  0  0  0  0  0  0  0  0  0
    0.4763   -6.1592    1.1919 H   0  0  0  0  0  0  0  0  0  0  0  0
    1.4553   -5.3197   -0.0583 H   0  0  0  0  0  0  0  0  0  0  0  0
    2.2368   -5.9108    1.4472 H   0  0  0  0  0  0  0  0  0  0  0  0
 22 24  2  0  0  0  0
 24 26  1  0  0  0  0
 25 26  2  0  0  0  0
 23 25  1  0  0  0  0
 21 22  1  0  0  0  0
 22 23  1  0  0  0  0
  1  3  1  0  0  0  0
  1  7  1  0  0  0  0
  1  2  2  0  0  0  0
 35 36  1  0  0  0  0
 36 44  1  0  0  0  0
 36 37  2  0  0  0  0
  8  9  1  0  0  0  0
  9 17  1  0  0  0  0
  9 10  2  0  0  0  0
 18 19  1  0  0  0  0
 19 34  1  0  0  0  0
 19 20  2  0  0  0  0
 35 38  1  0  0  0  0
  8 11  1  0  0  0  0
 44 45  1  0  0  0  0
 18 21  1  0  0  0  0
 34 35  1  0  0  0  0
  7  8  1  0  0  0  0
 17 18  1  0  0  0  0
 24 32  1  0  0  0  0
 25 33  1  0  0  0  0
  3  4  1  0  0  0  0
  3  5  1  0  0  0  0
  3  6  1  0  0  0  0
 38 41  1  0  0  0  0
 38 42  1  0  0  0  0
 38 43  1  0  0  0  0
 11 14  1  0  0  0  0
 11 15  1  0  0  0  0
 11 16  1  0  0  0  0
 45 47  1  0  0  0  0
 45 48  1  0  0  0  0
 45 49  1  0  0  0  0
 21 29  1  0  0  0  0
 21 30  1  0  0  0  0
 35 40  1  0  0  0  0
  8 13  1  0  0  0  0
 18 28  1  0  0  0  0
 23 31  1  0  0  0  0
 44 46  1  0  0  0  0
  7 12  1  0  0  0  0
 34 39  1  0  0  0  0
 17 27  1  0  0  0  0
M  END
$$$$

  -OEChem-05262214473D

 49 49  0     1  0  0  0  0  0999 V2000
   -1.5619    0.5658    3.7981 C   0  0  0  0  0  0  0  0  0  0  0  0
   -0.6145   -0.0489    3.3224 O   0  0  0  0  0  0  0  0  0  0  0  0
   -1.9938    0.2834    5.1988 C   0  0  0  0  0  0  0  0  0  0  0  0
   -2.7535   -0.5129    5.2522 H   0  0  0  0  0  0  0  0  0  0  0  0
   -1.1626   -0.0642    5.8331 H   0  0  0  0  0  0  0  0  0  0  0  0
   -2.4318    1.1383    5.7384 H   0  0  0  0  0  0  0  0  0  0  0  0
   -2.3116    1.5383    3.1570 N   0  0  0  0  0  0  0  0  0  0  0  0
   -2.0648    1.9643    1.8046 C   0  0  2  0  0  0  0  0  0  0  0  0
   -0.7298    1.3789    1.3634 C   0  0  0  0  0  0  0  0  0  0  0  0
    0.1423    1.0262    2.1547 O   0  0  0  0  0  0  0  0  0  0  0  0
   -2.0560    3.4811    1.6952 C   0  0  0  0  0  0  0  0  0  0  0  0
   -3.0767    1.9741    3.6688 H   0  0  0  0  0  0  0  0  0  0  0  0
   -2.8689    1.5458    1.1895 H   0  0  0  0  0  0  0  0  0  0  0  0
   -1.2569    3.9183    2.3049 H   0  0  0  0  0  0  0  0  0  0  0  0
   -1.8965    3.8033    0.6609 H   0  0  0  0  0  0  0  0  0  0  0  0
   -3.0062    3.9023    2.0409 H   0  0  0  0  0  0  0  0  0  0  0  0
   -0.6071    1.3358   -0.0200 N   0  0  0  0  0  0  0  0  0  0  0  0
    0.5702    0.8350   -0.6836 C   0  0  2  0  0  0  0  0  0  0  0  0
    0.9658   -0.4603    0.0162 C   0  0  0  0  0  0  0  0  0  0  0  0
    2.0787   -0.9696   -0.0980 O   0  0  0  0  0  0  0  0  0  0  0  0
    1.7287    1.8382   -0.6428 C   0  0  0  0  0  0  0  0  0  0  0  0
    1.4250    3.1114   -1.3941 C   0  0  0  0  0  0  0  0  0  0  0  0
    1.4266    3.1826   -2.7587 N   0  0  0  0  0  0  0  0  0  0  0  0
    1.1057    4.3815   -0.9756 C   0  0  0  0  0  0  0  0  0  0  0  0
    1.1147    4.4687   -3.1023 C   0  0  0  0  0  0  0  0  0  0  0  0
    0.9135    5.2216   -2.0438 N   0  0  0  0  0  0  0  0  0  0  0  0
   -1.3903    1.6325   -0.5973 H   0  0  0  0  0  0  0  0  0  0  0  0
    0.2753    0.6099   -1.7153 H   0  0  0  0  0  0  0  0  0  0  0  0
    2.6425    1.3806   -1.0456 H   0  0  0  0  0  0  0  0  0  0  0  0
    1.9719    2.1012    0.3951 H   0  0  0  0  0  0  0  0  0  0  0  0
    1.6233    2.4252   -3.3998 H   0  0  0  0  0  0  0  0  0  0  0  0
    1.0037    4.7364    0.0401 H   0  0  0  0  0  0  0  0  0  0  0  0
    1.0512    4.7884   -4.1328 H   0  0  0  0  0  0  0  0  0  0  0  0
   -0.0546   -0.9491    0.8202 N   0  0  0  0  0  0  0  0  0  0  0  0
    0.0665   -2.1516    1.6127 C   0  0  2  0  0  0  0  0  0  0  0  0
    0.5917   -3.2594    0.7092 C   0  0  0  0  0  0  0  0  0  0  0  0
    0.4766   -3.2381   -0.5145 O   0  0  0  0  0  0  0  0  0  0  0  0
   -1.2660   -2.5420    2.2330 C   0  0  0  0  0  0  0  0  0  0  0  0
   -0.9305   -0.4358    0.8532 H   0  0  0  0  0  0  0  0  0  0  0  0
    0.8011   -1.9406    2.3975 H   0  0  0  0  0  0  0  0  0  0  0  0
   -2.0148   -2.7572    1.4620 H   0  0  0  0  0  0  0  0  0  0  0  0
   -1.1666   -3.4369    2.8561 H   0  0  0  0  0  0  0  0  0  0  0  0
   -1.6566   -1.7323    2.8589 H   0  0  0  0  0  0  0  0  0  0  0  0
    1.1656   -4.2952    1.4330 N   0  0  0  0  0  0  0  0  0  0  0  0
    1.7256   -5.4688    0.8045 C   0  0  0  0  0  0  0  0  0  0  0  0
    1.2351   -4.2200    2.4436 H   0  0  0  0  0  0  0  0  0  0  0  0
    0.9580   -6.2543    0.7435 H   0  0  0  0  0  0  0  0  0  0  0  0
    2.0697   -5.2131   -0.2085 H   0  0  0  0  0  0  0  0  0  0  0  0
    2.5761   -5.8328    1.3997 H   0  0  0  0  0  0  0  0  0  0  0  0
 22 24  2  0  0  0  0
 24 26  1  0  0  0  0
 25 26  2  0  0  0  0
 23 25  1  0  0  0  0
 21 22  1  0  0  0  0
 22 23  1  0  0  0  0
  1  3  1  0  0  0  0
  1  7  1  0  0  0  0
  1  2  2  0  0  0  0
 35 36  1  0  0  0  0
 36 44  1  0  0  0  0
 36 37  2  0  0  0  0
  8  9  1  0  0  0  0
  9 17  1  0  0  0  0
  9 10  2  0  0  0  0
 18 19  1  0  0  0  0
 19 34  1  0  0  0  0
 19 20  2  0  0  0  0
 35 38  1  0  0  0  0
  8 11  1  0  0  0  0
 44 45  1  0  0  0  0
 18 21  1  0  0  0  0
 34 35  1  0  0  0  0
  7  8  1  0  0  0  0
 17 18  1  0  0  0  0
 24 32  1  0  0  0  0
 25 33  1  0  0  0  0
  3  4  1  0  0  0  0
  3  5  1  0  0  0  0
  3  6  1  0  0  0  0
 38 41  1  0  0  0  0
 38 42  1  0  0  0  0
 38 43  1  0  0  0  0
 11 14  1  0  0  0  0
 11 15  1  0  0  0  0
 11 16  1  0  0  0  0
 45 47  1  0  0  0  0
 45 48  1  0  0  0  0
 45 49  1  0  0  0  0
 21 29  1  0  0  0  0
 21 30  1  0  0  0  0
 35 40  1  0  0  0  0
  8 13  1  0  0  0  0
 18 28  1  0  0  0  0
 23 31  1  0  0  0  0
 44 46  1  0  0  0  0
  7 12  1  0  0  0  0
 34 39  1  0  0  0  0
 17 27  1  0  0  0  0
M  END
$$$$

  -OEChem-05262214473D

 49 49  0     1  0  0  0  0  0999 V2000
   -1.5619    0.5658    3.7981 C   0  0  0  0  0  0  0  0  0  0  0  0
   -0.6145   -0.0489    3.3224 O   0  0  0  0  0  0  0  0  0  0  0  0
   -1.9938    0.2834    5.1988 C   0  0  0  0  0  0  0  0  0  0  0  0
   -2.7535   -0.5129    5.2522 H   0  0  0  0  0  0  0  0  0  0  0  0
   -1.1626   -0.0642    5.8331 H   0  0  0  0  0  0  0  0  0  0  0  0
   -2.4318    1.1383    5.7384 H   0  0  0  0  0  0  0  0  0  0  0  0
   -2.3116    1.5383    3.1570 N   0  0  0  0  0  0  0  0  0  0  0  0
   -2.0648    1.9643    1.8046 C   0  0  2  0  0  0  0  0  0  0  0  0
   -0.7298    1.3789    1.3634 C   0  0  0  0  0  0  0  0  0  0  0  0
    0.1423    1.0262    2.1547 O   0  0  0  0  0  0  0  0  0  0  0  0
   -2.0560    3.4811    1.6952 C   0  0  0  0  0  0  0  0  0  0  0  0
   -3.0767    1.9741    3.6688 H   0  0  0  0  0  0  0  0  0  0  0  0
   -2.8689    1.5458    1.1895 H   0  0  0  0  0  0  0  0  0  0  0  0
   -1.2569    3.9183    2.3049 H   0  0  0  0  0  0  0  0  0  0  0  0
   -1.8965    3.8033    0.6609 H   0  0  0  0  0  0  0  0  0  0  0  0
   -3.0062    3.9023    2.0409 H   0  0  0  0  0  0  0  0  0  0  0  0
   -0.6071    1.3358   -0.0200 N   0  0  0  0  0  0  0  0  0  0  0  0
    0.5702    0.8350   -0.6836 C   0  0  2  0  0  0  0  0  0  0  0  0
    0.9658   -0.4603    0.0162 C   0  0  0  0  0  0  0  0  0  0  0  0
    2.1323   -0.8318    0.1268 O   0  0  0  0  0  0  0  0  0  0  0  0
    1.7287    1.8382   -0.6428 C   0  0  0  0  0  0  0  0  0  0  0  0
    1.4250    3.1114   -1.3941 C   0  0  0  0  0  0  0  0  0  0  0  0
    1.4266    3.1826   -2.7587 N   0  0  0  0  0  0  0  0  0  0  0  0
    1.1057    4.3815   -0.9756 C   0  0  0  0  0  0  0  0  0  0  0  0
    1.1147    4.4687   -3.1023 C   0  0  0  0  0  0  0  0  0  0  0  0
    0.9135    5.2216   -2.0438 N   0  0  0  0  0  0  0  0  0  0  0  0
   -1.3903    1.6325   -0.5973 H   0  0  0  0  0  0  0  0  0  0  0  0
    0.2753    0.6099   -1.7153 H   0  0  0  0  0  0  0  0  0  0  0  0
    2.6425    1.3806   -1.0456 H   0  0  0  0  0  0  0  0  0  0  0  0
    1.9719    2.1012    0.3951 H   0  0  0  0  0  0  0  0  0  0  0  0
    1.6233    2.4252   -3.3998 H   0  0  0  0  0  0  0  0  0  0  0  0
    1.0037    4.7364    0.0401 H   0  0  0  0  0  0  0  0  0  0  0  0
    1.0512    4.7884   -4.1328 H   0  0  0  0  0  0  0  0  0  0  0  0
   -0.1339   -1.1227    0.5437 N   0  0  0  0  0  0  0  0  0  0  0  0
   -0.0359   -2.3641    1.2772 C   0  0  2  0  0  0  0  0  0  0  0  0
    0.8076   -3.3303    0.4559 C   0  0  0  0  0  0  0  0  0  0  0  0
    0.9576   -3.2236   -0.7595 O   0  0  0  0  0  0  0  0  0  0  0  0
   -1.4106   -2.9490    1.5614 C   0  0  0  0  0  0  0  0  0  0  0  0
   -1.0540   -0.7145    0.4073 H   0  0  0  0  0  0  0  0  0  0  0  0
    0.4793   -2.1365    2.2168 H   0  0  0  0  0  0  0  0  0  0  0  0
   -1.9420   -3.1835    0.6318 H   0  0  0  0  0  0  0  0  0  0  0  0
   -1.3358   -3.8745    2.1418 H   0  0  0  0  0  0  0  0  0  0  0  0
   -2.0262   -2.2409    2.1265 H   0  0  0  0  0  0  0  0  0  0  0  0
    1.3379   -4.3506    1.2330 N   0  0  0  0  0  0  0  0  0  0  0  0
    2.1641   -5.4002    0.6836 C   0  0  0  0  0  0  0  0  0  0  0  0
    1.1776   -4.3497    2.2361 H   0  0  0  0  0  0  0  0  0  0  0  0
    1.5333   -6.2588    0.4101 H   0  0  0  0  0  0  0  0  0  0  0  0
    2.6836   -5.0271   -0.2113 H   0  0  0  0  0  0  0  0  0  0  0  0
    2.9050   -5.7139    1.4336 H   0  0  0  0  0  0  0  0  0  0  0  0
 22 24  2  0  0  0  0
 24 26  1  0  0  0  0
 25 26  2  0  0  0  0
 23 25  1  0  0  0  0
 21 22  1  0  0  0  0
 22 23  1  0  0  0  0
  1  3  1  0  0  0  0
  1  7  1  0  0  0  0
  1  2  2  0  0  0  0
 35 36  1  0  0  0  0
 36 44  1  0  0  0  0
 36 37  2  0  0  0  0
  8  9  1  0  0  0  0
  9 17  1  0  0  0  0
  9 10  2  0  0  0  0
 18 19  1  0  0  0  0
 19 34  1  0  0  0  0
 19 20  2  0  0  0  0
 35 38  1  0  0  0  0
  8 11  1  0  0  0  0
 44 45  1  0  0  0  0
 18 21  1  0  0  0  0
 34 35  1  0  0  0  0
  7  8  1  0  0  0  0
 17 18  1  0  0  0  0
 24 32  1  0  0  0  0
 25 33  1  0  0  0  0
  3  4  1  0  0  0  0
  3  5  1  0  0  0  0
  3  6  1  0  0  0  0
 38 41  1  0  0  0  0
 38 42  1  0  0  0  0
 38 43  1  0  0  0  0
 11 14  1  0  0  0  0
 11 15  1  0  0  0  0
 11 16  1  0  0  0  0
 45 47  1  0  0  0  0
 45 48  1  0  0  0  0
 45 49  1  0  0  0  0
 21 29  1  0  0  0  0
 21 30  1  0  0  0  0
 35 40  1  0  0  0  0
  8 13  1  0  0  0  0
 18 28  1  0  0  0  0
 23 31  1  0  0  0  0
 44 46  1  0  0  0  0
  7 12  1  0  0  0  0
 34 39  1  0  0  0  0
 17 27  1  0  0  0  0
M  END
$$$$

  -OEChem-05262214473D

 49 49  0     1  0  0  0  0  0999 V2000
   -1.5619    0.5658    3.7981 C   0  0  0  0  0  0  0  0  0  0  0  0
   -0.6145   -0.0489    3.3224 O   0  0  0  0  0  0  0  0  0  0  0  0
   -1.9938    0.2834    5.1988 C   0  0  0  0  0  0  0  0  0  0  0  0
   -2.7535   -0.5129    5.2522 H   0  0  0  0  0  0  0  0  0  0  0  0
   -1.1626   -0.0642    5.8331 H   0  0  0  0  0  0  0  0  0  0  0  0
   -2.4318    1.1383    5.7384 H   0  0  0  0  0  0  0  0  0  0  0  0
   -2.3116    1.5383    3.1570 N   0  0  0  0  0  0  0  0  0  0  0  0
   -2.0648    1.9643    1.8046 C   0  0  2  0  0  0  0  0  0  0  0  0
   -0.7298    1.3789    1.3634 C   0  0  0  0  0  0  0  0  0  0  0  0
    0.1423    1.0262    2.1547 O   0  0  0  0  0  0  0  0  0  0  0  0
   -2.0560    3.4811    1.6952 C   0  0  0  0  0  0  0  0  0  0  0  0
   -3.0767    1.9741    3.6688 H   0  0  0  0  0  0  0  0  0  0  0  0
   -2.8689    1.5458    1.1895 H   0  0  0  0  0  0  0  0  0  0  0  0
   -1.2569    3.9183    2.3049 H   0  0  0  0  0  0  0  0  0  0  0  0
   -1.8965    3.8033    0.6609 H   0  0  0  0  0  0  0  0  0  0  0  0
   -3.0062    3.9023    2.0409 H   0  0  0  0  0  0  0  0  0  0  0  0
   -0.6071    1.3358   -0.0200 N   0  0  0  0  0  0  0  0  0  0  0  0
    0.5702    0.8350   -0.6836 C   0  0  2  0  0  0  0  0  0  0  0  0
    0.9658   -0.4603    0.0162 C   0  0  0  0  0  0  0  0  0  0  0  0
    2.1183   -0.7073    0.3651 O   0  0  0  0  0  0  0  0  0  0  0  0
    1.7287    1.8382   -0.6428 C   0  0  0  0  0  0  0  0  0  0  0  0
    1.4250    3.1114   -1.3941 C   0  0  0  0  0  0  0  0  0  0  0  0
    1.4266    3.1826   -2.7587 N   0  0  0  0  0  0  0  0  0  0  0  0
    1.1057    4.3815   -0.9756 C   0  0  0  0  0  0  0  0  0  0  0  0
    1.1147    4.4687   -3.1023 C   0  0  0  0  0  0  0  0  0  0  0  0
    0.9135    5.2216   -2.0438 N   0  0  0  0  0  0  0  0  0  0  0  0
   -1.3903    1.6325   -0.5973 H   0  0  0  0  0  0  0  0  0  0  0  0
    0.2753    0.6099   -1.7153 H   0  0  0  0  0  0  0  0  0  0  0  0
    2.6425    1.3806   -1.0456 H   0  0  0  0  0  0  0  0  0  0  0  0
    1.9719    2.1012    0.3951 H   0  0  0  0  0  0  0  0  0  0  0  0
    1.6233    2.4252   -3.3998 H   0  0  0  0  0  0  0  0  0  0  0  0
    1.0037    4.7364    0.0401 H   0  0  0  0  0  0  0  0  0  0  0  0
    1.0512    4.7884   -4.1328 H   0  0  0  0  0  0  0  0  0  0  0  0
   -0.1291   -1.2813    0.2475 N   0  0  0  0  0  0  0  0  0  0  0  0
   -0.0357   -2.5591    0.9164 C   0  0  2  0  0  0  0  0  0  0  0  0
    1.0803   -3.3561    0.2540 C   0  0  0  0  0  0  0  0  0  0  0  0
    1.4744   -3.1359   -0.8893 O   0  0  0  0  0  0  0  0  0  0  0  0
   -1.3542   -3.3142    0.8535 C   0  0  0  0  0  0  0  0  0  0  0  0
   -1.0421   -0.9683   -0.0692 H   0  0  0  0  0  0  0  0  0  0  0  0
    0.2316   -2.3518    1.9583 H   0  0  0  0  0  0  0  0  0  0  0  0
   -1.6384   -3.5309   -0.1827 H   0  0  0  0  0  0  0  0  0  0  0  0
   -1.2901   -4.2694    1.3852 H   0  0  0  0  0  0  0  0  0  0  0  0
   -2.1616   -2.7268    1.3037 H   0  0  0  0  0  0  0  0  0  0  0  0
    1.5549   -4.3702    1.0740 N   0  0  0  0  0  0  0  0  0  0  0  0
    2.6060   -5.2737    0.6679 C   0  0  0  0  0  0  0  0  0  0  0  0
    1.1830   -4.4679    2.0142 H   0  0  0  0  0  0  0  0  0  0  0  0
    2.1628   -6.1724    0.2141 H   0  0  0  0  0  0  0  0  0  0  0  0
    3.2551   -4.7744   -0.0665 H   0  0  0  0  0  0  0  0  0  0  0  0
    3.2012   -5.5624    1.5468 H   0  0  0  0  0  0  0  0  0  0  0  0
 22 24  2  0  0  0  0
 24 26  1  0  0  0  0
 25 26  2  0  0  0  0
 23 25  1  0  0  0  0
 21 22  1  0  0  0  0
 22 23  1  0  0  0  0
  1  3  1  0  0  0  0
  1  7  1  0  0  0  0
  1  2  2  0  0  0  0
 35 36  1  0  0  0  0
 36 44  1  0  0  0  0
 36 37  2  0  0  0  0
  8  9  1  0  0  0  0
  9 17  1  0  0  0  0
  9 10  2  0  0  0  0
 18 19  1  0  0  0  0
 19 34  1  0  0  0  0
 19 20  2  0  0  0  0
 35 38  1  0  0  0  0
  8 11  1  0  0  0  0
 44 45  1  0  0  0  0
 18 21  1  0  0  0  0
 34 35  1  0  0  0  0
  7  8  1  0  0  0  0
 17 18  1  0  0  0  0
 24 32  1  0  0  0  0
 25 33  1  0  0  0  0
  3  4  1  0  0  0  0
  3  5  1  0  0  0  0
  3  6  1  0  0  0  0
 38 41  1  0  0  0  0
 38 42  1  0  0  0  0
 38 43  1  0  0  0  0
 11 14  1  0  0  0  0
 11 15  1  0  0  0  0
 11 16  1  0  0  0  0
 45 47  1  0  0  0  0
 45 48  1  0  0  0  0
 45 49  1  0  0  0  0
 21 29  1  0  0  0  0
 21 30  1  0  0  0  0
 35 40  1  0  0  0  0
  8 13  1  0  0  0  0
 18 28  1  0  0  0  0
 23 31  1  0  0  0  0
 44 46  1  0  0  0  0
  7 12  1  0  0  0  0
 34 39  1  0  0  0  0
 17 27  1  0  0  0  0
M  END
$$$$

  -OEChem-05262214473D

 49 49  0     1  0  0  0  0  0999 V2000
   -1.5619    0.5658    3.7981 C   0  0  0  0  0  0  0  0  0  0  0  0
   -0.6145   -0.0489    3.3224 O   0  0  0  0  0  0  0  0  0  0  0  0
   -1.9938    0.2834    5.1988 C   0  0  0  0  0  0  0  0  0  0  0  0
   -2.7535   -0.5129    5.2522 H   0  0  0  0  0  0  0  0  0  0  0  0
   -1.1626   -0.0642    5.8331 H   0  0  0  0  0  0  0  0  0  0  0  0
   -2.4318    1.1383    5.7384 H   0  0  0  0  0  0  0  0  0  0  0  0
   -2.3116    1.5383    3.1570 N   0  0  0  0  0  0  0  0  0  0  0  0
   -2.0648    1.9643    1.8046 C   0  0  2  0  0  0  0  0  0  0  0  0
   -0.7298    1.3789    1.3634 C   0  0  0  0  0  0  0  0  0  0  0  0
    0.1423    1.0262    2.1547 O   0  0  0  0  0  0  0  0  0  0  0  0
   -2.0560    3.4811    1.6952 C   0  0  0  0  0  0  0  0  0  0  0  0
   -3.0767    1.9741    3.6688 H   0  0  0  0  0  0  0  0  0  0  0  0
   -2.8689    1.5458    1.1895 H   0  0  0  0  0  0  0  0  0  0  0  0
   -1.2569    3.9183    2.3049 H   0  0  0  0  0  0  0  0  0  0  0  0
   -1.8965    3.8033    0.6609 H   0  0  0  0  0  0  0  0  0  0  0  0
   -3.0062    3.9023    2.0409 H   0  0  0  0  0  0  0  0  0  0  0  0
   -0.6071    1.3358   -0.0200 N   0  0  0  0  0  0  0  0  0  0  0  0
    0.5702    0.8350   -0.6836 C   0  0  2  0  0  0  0  0  0  0  0  0
    0.9658   -0.4603    0.0162 C   0  0  0  0  0  0  0  0  0  0  0  0
    2.0376   -0.6048    0.6005 O   0  0  0  0  0  0  0  0  0  0  0  0
    1.7287    1.8382   -0.6428 C   0  0  0  0  0  0  0  0  0  0  0  0
    1.4250    3.1114   -1.3941 C   0  0  0  0  0  0  0  0  0  0  0  0
    1.4266    3.1826   -2.7587 N   0  0  0  0  0  0  0  0  0  0  0  0
    1.1057    4.3815   -0.9756 C   0  0  0  0  0  0  0  0  0  0  0  0
    1.1147    4.4687   -3.1023 C   0  0  0  0  0  0  0  0  0  0  0  0
    0.9135    5.2216   -2.0438 N   0  0  0  0  0  0  0  0  0  0  0  0
   -1.3903    1.6325   -0.5973 H   0  0  0  0  0  0  0  0  0  0  0  0
    0.2753    0.6099   -1.7153 H   0  0  0  0  0  0  0  0  0  0  0  0
    2.6425    1.3806   -1.0456 H   0  0  0  0  0  0  0  0  0  0  0  0
    1.9719    2.1012    0.3951 H   0  0  0  0  0  0  0  0  0  0  0  0
    1.6233    2.4252   -3.3998 H   0  0  0  0  0  0  0  0  0  0  0  0
    1.0037    4.7364    0.0401 H   0  0  0  0  0  0  0  0  0  0  0  0
    1.0512    4.7884   -4.1328 H   0  0  0  0  0  0  0  0  0  0  0  0
   -0.0405   -1.4140   -0.0481 N   0  0  0  0  0  0  0  0  0  0  0  0
    0.0670   -2.7231    0.5548 C   0  0  2  0  0  0  0  0  0  0  0  0
    1.3912   -3.3351    0.1172 C   0  0  0  0  0  0  0  0  0  0  0  0
    1.9917   -2.9811   -0.8953 O   0  0  0  0  0  0  0  0  0  0  0  0
   -1.1006   -3.6128    0.1576 C   0  0  0  0  0  0  0  0  0  0  0  0
   -0.8956   -1.1801   -0.5440 H   0  0  0  0  0  0  0  0  0  0  0  0
    0.0747   -2.5719    1.6398 H   0  0  0  0  0  0  0  0  0  0  0  0
   -1.1248   -3.7756   -0.9261 H   0  0  0  0  0  0  0  0  0  0  0  0
   -1.0327   -4.5945    0.6379 H   0  0  0  0  0  0  0  0  0  0  0  0
   -2.0538   -3.1570    0.4466 H   0  0  0  0  0  0  0  0  0  0  0  0
    1.8018   -4.3527    0.9669 N   0  0  0  0  0  0  0  0  0  0  0  0
    3.0213   -5.0980    0.7584 C   0  0  0  0  0  0  0  0  0  0  0  0
    1.2512   -4.5665    1.7932 H   0  0  0  0  0  0  0  0  0  0  0  0
    2.8036   -6.0010    0.1691 H   0  0  0  0  0  0  0  0  0  0  0  0
    3.7452   -4.4720    0.2159 H   0  0  0  0  0  0  0  0  0  0  0  0
    3.4443   -5.3884    1.7314 H   0  0  0  0  0  0  0  0  0  0  0  0
 22 24  2  0  0  0  0
 24 26  1  0  0  0  0
 25 26  2  0  0  0  0
 23 25  1  0  0  0  0
 21 22  1  0  0  0  0
 22 23  1  0  0  0  0
  1  3  1  0  0  0  0
  1  7  1  0  0  0  0
  1  2  2  0  0  0  0
 35 36  1  0  0  0  0
 36 44  1  0  0  0  0
 36 37  2  0  0  0  0
  8  9  1  0  0  0  0
  9 17  1  0  0  0  0
  9 10  2  0  0  0  0
 18 19  1  0  0  0  0
 19 34  1  0  0  0  0
 19 20  2  0  0  0  0
 35 38  1  0  0  0  0
  8 11  1  0  0  0  0
 44 45  1  0  0  0  0
 18 21  1  0  0  0  0
 34 35  1  0  0  0  0
  7  8  1  0  0  0  0
 17 18  1  0  0  0  0
 24 32  1  0  0  0  0
 25 33  1  0  0  0  0
  3  4  1  0  0  0  0
  3  5  1  0  0  0  0
  3  6  1  0  0  0  0
 38 41  1  0  0  0  0
 38 42  1  0  0  0  0
 38 43  1  0  0  0  0
 11 14  1  0  0  0  0
 11 15  1  0  0  0  0
 11 16  1  0  0  0  0
 45 47  1  0  0  0  0
 45 48  1  0  0  0  0
 45 49  1  0  0  0  0
 21 29  1  0  0  0  0
 21 30  1  0  0  0  0
 35 40  1  0  0  0  0
  8 13  1  0  0  0  0
 18 28  1  0  0  0  0
 23 31  1  0  0  0  0
 44 46  1  0  0  0  0
  7 12  1  0  0  0  0
 34 39  1  0  0  0  0
 17 27  1  0  0  0  0
M  END
$$$$

  -OEChem-05262214473D

 49 49  0     1  0  0  0  0  0999 V2000
   -1.5619    0.5658    3.7981 C   0  0  0  0  0  0  0  0  0  0  0  0
   -0.6145   -0.0489    3.3224 O   0  0  0  0  0  0  0  0  0  0  0  0
   -1.9938    0.2834    5.1988 C   0  0  0  0  0  0  0  0  0  0  0  0
   -2.7535   -0.5129    5.2522 H   0  0  0  0  0  0  0  0  0  0  0  0
   -1.1626   -0.0642    5.8331 H   0  0  0  0  0  0  0  0  0  0  0  0
   -2.4318    1.1383    5.7384 H   0  0  0  0  0  0  0  0  0  0  0  0
   -2.3116    1.5383    3.1570 N   0  0  0  0  0  0  0  0  0  0  0  0
   -2.0648    1.9643    1.8046 C   0  0  2  0  0  0  0  0  0  0  0  0
   -0.7298    1.3789    1.3634 C   0  0  0  0  0  0  0  0  0  0  0  0
    0.1423    1.0262    2.1547 O   0  0  0  0  0  0  0  0  0  0  0  0
   -2.0560    3.4811    1.6952 C   0  0  0  0  0  0  0  0  0  0  0  0
   -3.0767    1.9741    3.6688 H   0  0  0  0  0  0  0  0  0  0  0  0
   -2.8689    1.5458    1.1895 H   0  0  0  0  0  0  0  0  0  0  0  0
   -1.2569    3.9183    2.3049 H   0  0  0  0  0  0  0  0  0  0  0  0
   -1.8965    3.8033    0.6609 H   0  0  0  0  0  0  0  0  0  0  0  0
   -3.0062    3.9023    2.0409 H   0  0  0  0  0  0  0  0  0  0  0  0
   -0.6071    1.3358   -0.0200 N   0  0  0  0  0  0  0  0  0  0  0  0
    0.5702    0.8350   -0.6836 C   0  0  2  0  0  0  0  0  0  0  0  0
    0.9658   -0.4603    0.0162 C   0  0  0  0  0  0  0  0  0  0  0  0
    1.8956   -0.5311    0.8170 O   0  0  0  0  0  0  0  0  0  0  0  0
    1.7287    1.8382   -0.6428 C   0  0  0  0  0  0  0  0  0  0  0  0
    1.4250    3.1114   -1.3941 C   0  0  0  0  0  0  0  0  0  0  0  0
    1.4266    3.1826   -2.7587 N   0  0  0  0  0  0  0  0  0  0  0  0
    1.1057    4.3815   -0.9756 C   0  0  0  0  0  0  0  0  0  0  0  0
    1.1147    4.4687   -3.1023 C   0  0  0  0  0  0  0  0  0  0  0  0
    0.9135    5.2216   -2.0438 N   0  0  0  0  0  0  0  0  0  0  0  0
   -1.3903    1.6325   -0.5973 H   0  0  0  0  0  0  0  0  0  0  0  0
    0.2753    0.6099   -1.7153 H   0  0  0  0  0  0  0  0  0  0  0  0
    2.6425    1.3806   -1.0456 H   0  0  0  0  0  0  0  0  0  0  0  0
    1.9719    2.1012    0.3951 H   0  0  0  0  0  0  0  0  0  0  0  0
    1.6233    2.4252   -3.3998 H   0  0  0  0  0  0  0  0  0  0  0  0
    1.0037    4.7364    0.0401 H   0  0  0  0  0  0  0  0  0  0  0  0
    1.0512    4.7884   -4.1328 H   0  0  0  0  0  0  0  0  0  0  0  0
    0.1258   -1.5118   -0.3232 N   0  0  0  0  0  0  0  0  0  0  0  0
    0.2652   -2.8450    0.2171 C   0  0  2  0  0  0  0  0  0  0  0  0
    1.7190   -3.2686    0.0549 C   0  0  0  0  0  0  0  0  0  0  0  0
    2.4743   -2.7697   -0.7768 O   0  0  0  0  0  0  0  0  0  0  0  0
   -0.6672   -3.8243   -0.4788 C   0  0  0  0  0  0  0  0  0  0  0  0
   -0.6246   -1.3354   -0.9846 H   0  0  0  0  0  0  0  0  0  0  0  0
    0.0193   -2.7817    1.2827 H   0  0  0  0  0  0  0  0  0  0  0  0
   -0.4361   -3.9011   -1.5476 H   0  0  0  0  0  0  0  0  0  0  0  0
   -0.5811   -4.8278   -0.0492 H   0  0  0  0  0  0  0  0  0  0  0  0
   -1.7101   -3.5022   -0.3866 H   0  0  0  0  0  0  0  0  0  0  0  0
    2.0618   -4.2993    0.9188 N   0  0  0  0  0  0  0  0  0  0  0  0
    3.3817   -4.8849    0.9489 C   0  0  0  0  0  0  0  0  0  0  0  0
    1.3773   -4.6388    1.5881 H   0  0  0  0  0  0  0  0  0  0  0  0
    3.4122   -5.7562    0.2781 H   0  0  0  0  0  0  0  0  0  0  0  0
    4.1206   -4.1407    0.6169 H   0  0  0  0  0  0  0  0  0  0  0  0
    3.6179   -5.2038    1.9748 H   0  0  0  0  0  0  0  0  0  0  0  0
 22 24  2  0  0  0  0
 24 26  1  0  0  0  0
 25 26  2  0  0  0  0
 23 25  1  0  0  0  0
 21 22  1  0  0  0  0
 22 23  1  0  0  0  0
  1  3  1  0  0  0  0
  1  7  1  0  0  0  0
  1  2  2  0  0  0  0
 35 36  1  0  0  0  0
 36 44  1  0  0  0  0
 36 37  2  0  0  0  0
  8  9  1  0  0  0  0
  9 17  1  0  0  0  0
  9 10  2  0  0  0  0
 18 19  1  0  0  0  0
 19 34  1  0  0  0  0
 19 20  2  0  0  0  0
 35 38  1  0  0  0  0
  8 11  1  0  0  0  0
 44 45  1  0  0  0  0
 18 21  1  0  0  0  0
 34 35  1  0  0  0  0
  7  8  1  0  0  0  0
 17 18  1  0  0  0  0
 24 32  1  0  0  0  0
 25 33  1  0  0  0  0
  3  4  1  0  0  0  0
  3  5  1  0  0  0  0
  3  6  1  0  0  0  0
 38 41  1  0  0  0  0
 38 42  1  0  0  0  0
 38 43  1  0  0  0  0
 11 14  1  0  0  0  0
 11 15  1  0  0  0  0
 11 16  1  0  0  0  0
 45 47  1  0  0  0  0
 45 48  1  0  0  0  0
 45 49  1  0  0  0  0
 21 29  1  0  0  0  0
 21 30  1  0  0  0  0
 35 40  1  0  0  0  0
  8 13  1  0  0  0  0
 18 28  1  0  0  0  0
 23 31  1  0  0  0  0
 44 46  1  0  0  0  0
  7 12  1  0  0  0  0
 34 39  1  0  0  0  0
 17 27  1  0  0  0  0
M  END
$$$$

  -OEChem-05262214473D

 49 49  0     1  0  0  0  0  0999 V2000
   -1.5619    0.5658    3.7981 C   0  0  0  0  0  0  0  0  0  0  0  0
   -0.6145   -0.0489    3.3224 O   0  0  0  0  0  0  0  0  0  0  0  0
   -1.9938    0.2834    5.1988 C   0  0  0  0  0  0  0  0  0  0  0  0
   -2.7535   -0.5129    5.2522 H   0  0  0  0  0  0  0  0  0  0  0  0
   -1.1626   -0.0642    5.8331 H   0  0  0  0  0  0  0  0  0  0  0  0
   -2.4318    1.1383    5.7384 H   0  0  0  0  0  0  0  0  0  0  0  0
   -2.3116    1.5383    3.1570 N   0  0  0  0  0  0  0  0  0  0  0  0
   -2.0648    1.9643    1.8046 C   0  0  2  0  0  0  0  0  0  0  0  0
   -0.7298    1.3789    1.3634 C   0  0  0  0  0  0  0  0  0  0  0  0
    0.1423    1.0262    2.1547 O   0  0  0  0  0  0  0  0  0  0  0  0
   -2.0560    3.4811    1.6952 C   0  0  0  0  0  0  0  0  0  0  0  0
   -3.0767    1.9741    3.6688 H   0  0  0  0  0  0  0  0  0  0  0  0
   -2.8689    1.5458    1.1895 H   0  0  0  0  0  0  0  0  0  0  0  0
   -1.2569    3.9183    2.3049 H   0  0  0  0  0  0  0  0  0  0  0  0
   -1.8965    3.8033    0.6609 H   0  0  0  0  0  0  0  0  0  0  0  0
   -3.0062    3.9023    2.0409 H   0  0  0  0  0  0  0  0  0  0  0  0
   -0.6071    1.3358   -0.0200 N   0  0  0  0  0  0  0  0  0  0  0  0
    0.5702    0.8350   -0.6836 C   0  0  2  0  0  0  0  0  0  0  0  0
    0.9658   -0.4603    0.0162 C   0  0  0  0  0  0  0  0  0  0  0  0
    1.7022   -0.4914    0.9999 O   0  0  0  0  0  0  0  0  0  0  0  0
    1.7287    1.8382   -0.6428 C   0  0  0  0  0  0  0  0  0  0  0  0
    1.4250    3.1114   -1.3941 C   0  0  0  0  0  0  0  0  0  0  0  0
    1.4266    3.1826   -2.7587 N   0  0  0  0  0  0  0  0  0  0  0  0
    1.1057    4.3815   -0.9756 C   0  0  0  0  0  0  0  0  0  0  0  0
    1.1147    4.4687   -3.1023 C   0  0  0  0  0  0  0  0  0  0  0  0
    0.9135    5.2216   -2.0438 N   0  0  0  0  0  0  0  0  0  0  0  0
   -1.3903    1.6325   -0.5973 H   0  0  0  0  0  0  0  0  0  0  0  0
    0.2753    0.6099   -1.7153 H   0  0  0  0  0  0  0  0  0  0  0  0
    2.6425    1.3806   -1.0456 H   0  0  0  0  0  0  0  0  0  0  0  0
    1.9719    2.1012    0.3951 H   0  0  0  0  0  0  0  0  0  0  0  0
    1.6233    2.4252   -3.3998 H   0  0  0  0  0  0  0  0  0  0  0  0
    1.0037    4.7364    0.0401 H   0  0  0  0  0  0  0  0  0  0  0  0
    1.0512    4.7884   -4.1328 H   0  0  0  0  0  0  0  0  0  0  0  0
    0.3586   -1.5680   -0.5588 N   0  0  0  0  0  0  0  0  0  0  0  0
    0.5453   -2.9166   -0.0737 C   0  0  2  0  0  0  0  0  0  0  0  0
    2.0415   -3.1613    0.0712 C   0  0  0  0  0  0  0  0  0  0  0  0
    2.8893   -2.5161   -0.5421 O   0  0  0  0  0  0  0  0  0  0  0  0
   -0.0835   -3.9344   -1.0125 C   0  0  0  0  0  0  0  0  0  0  0  0
   -0.2475   -1.4236   -1.3611 H   0  0  0  0  0  0  0  0  0  0  0  0
    0.0693   -2.9669    0.9116 H   0  0  0  0  0  0  0  0  0  0  0  0
    0.3806   -3.8987   -2.0049 H   0  0  0  0  0  0  0  0  0  0  0  0
    0.0339   -4.9533   -0.6292 H   0  0  0  0  0  0  0  0  0  0  0  0
   -1.1538   -3.7388   -1.1390 H   0  0  0  0  0  0  0  0  0  0  0  0
    2.3171   -4.2135    0.9332 N   0  0  0  0  0  0  0  0  0  0  0  0
    3.6626   -4.6492    1.2265 C   0  0  0  0  0  0  0  0  0  0  0  0
    1.5528   -4.6799    1.4128 H   0  0  0  0  0  0  0  0  0  0  0  0
    3.9470   -5.4548    0.5336 H   0  0  0  0  0  0  0  0  0  0  0  0
    4.3556   -3.8030    1.1090 H   0  0  0  0  0  0  0  0  0  0  0  0
    3.7101   -5.0212    2.2605 H   0  0  0  0  0  0  0  0  0  0  0  0
 22 24  2  0  0  0  0
 24 26  1  0  0  0  0
 25 26  2  0  0  0  0
 23 25  1  0  0  0  0
 21 22  1  0  0  0  0
 22 23  1  0  0  0  0
  1  3  1  0  0  0  0
  1  7  1  0  0  0  0
  1  2  2  0  0  0  0
 35 36  1  0  0  0  0
 36 44  1  0  0  0  0
 36 37  2  0  0  0  0
  8  9  1  0  0  0  0
  9 17  1  0  0  0  0
  9 10  2  0  0  0  0
 18 19  1  0  0  0  0
 19 34  1  0  0  0  0
 19 20  2  0  0  0  0
 35 38  1  0  0  0  0
  8 11  1  0  0  0  0
 44 45  1  0  0  0  0
 18 21  1  0  0  0  0
 34 35  1  0  0  0  0
  7  8  1  0  0  0  0
 17 18  1  0  0  0  0
 24 32  1  0  0  0  0
 25 33  1  0  0  0  0
  3  4  1  0  0  0  0
  3  5  1  0  0  0  0
  3  6  1  0  0  0  0
 38 41  1  0  0  0  0
 38 42  1  0  0  0  0
 38 43  1  0  0  0  0
 11 14  1  0  0  0  0
 11 15  1  0  0  0  0
 11 16  1  0  0  0  0
 45 47  1  0  0  0  0
 45 48  1  0  0  0  0
 45 49  1  0  0  0  0
 21 29  1  0  0  0  0
 21 30  1  0  0  0  0
 35 40  1  0  0  0  0
  8 13  1  0  0  0  0
 18 28  1  0  0  0  0
 23 31  1  0  0  0  0
 44 46  1  0  0  0  0
  7 12  1  0  0  0  0
 34 39  1  0  0  0  0
 17 27  1  0  0  0  0
M  END
$$$$

  -OEChem-05262214473D

 49 49  0     1  0  0  0  0  0999 V2000
   -1.5619    0.5658    3.7981 C   0  0  0  0  0  0  0  0  0  0  0  0
   -0.6145   -0.0489    3.3224 O   0  0  0  0  0  0  0  0  0  0  0  0
   -1.9938    0.2834    5.1988 C   0  0  0  0  0  0  0  0  0  0  0  0
   -2.7535   -0.5129    5.2522 H   0  0  0  0  0  0  0  0  0  0  0  0
   -1.1626   -0.0642    5.8331 H   0  0  0  0  0  0  0  0  0  0  0  0
   -2.4318    1.1383    5.7384 H   0  0  0  0  0  0  0  0  0  0  0  0
   -2.3116    1.5383    3.1570 N   0  0  0  0  0  0  0  0  0  0  0  0
   -2.0648    1.9643    1.8046 C   0  0  2  0  0  0  0  0  0  0  0  0
   -0.7298    1.3789    1.3634 C   0  0  0  0  0  0  0  0  0  0  0  0
    0.1423    1.0262    2.1547 O   0  0  0  0  0  0  0  0  0  0  0  0
   -2.0560    3.4811    1.6952 C   0  0  0  0  0  0  0  0  0  0  0  0
   -3.0767    1.9741    3.6688 H   0  0  0  0  0  0  0  0  0  0  0  0
   -2.8689    1.5458    1.1895 H   0  0  0  0  0  0  0  0  0  0  0  0
   -1.2569    3.9183    2.3049 H   0  0  0  0  0  0  0  0  0  0  0  0
   -1.8965    3.8033    0.6609 H   0  0  0  0  0  0  0  0  0  0  0  0
   -3.0062    3.9023    2.0409 H   0  0  0  0  0  0  0  0  0  0  0  0
   -0.6071    1.3358   -0.0200 N   0  0  0  0  0  0  0  0  0  0  0  0
    0.5702    0.8350   -0.6836 C   0  0  2  0  0  0  0  0  0  0  0  0
    0.9658   -0.4603    0.0162 C   0  0  0  0  0  0  0  0  0  0  0  0
    1.4704   -0.4883    1.1367 O   0  0  0  0  0  0  0  0  0  0  0  0
    1.7287    1.8382   -0.6428 C   0  0  0  0  0  0  0  0  0  0  0  0
    1.4250    3.1114   -1.3941 C   0  0  0  0  0  0  0  0  0  0  0  0
    1.4266    3.1826   -2.7587 N   0  0  0  0  0  0  0  0  0  0  0  0
    1.1057    4.3815   -0.9756 C   0  0  0  0  0  0  0  0  0  0  0  0
    1.1147    4.4687   -3.1023 C   0  0  0  0  0  0  0  0  0  0  0  0
    0.9135    5.2216   -2.0438 N   0  0  0  0  0  0  0  0  0  0  0  0
   -1.3903    1.6325   -0.5973 H   0  0  0  0  0  0  0  0  0  0  0  0
    0.2753    0.6099   -1.7153 H   0  0  0  0  0  0  0  0  0  0  0  0
    2.6425    1.3806   -1.0456 H   0  0  0  0  0  0  0  0  0  0  0  0
    1.9719    2.1012    0.3951 H   0  0  0  0  0  0  0  0  0  0  0  0
    1.6233    2.4252   -3.3998 H   0  0  0  0  0  0  0  0  0  0  0  0
    1.0037    4.7364    0.0401 H   0  0  0  0  0  0  0  0  0  0  0  0
    1.0512    4.7884   -4.1328 H   0  0  0  0  0  0  0  0  0  0  0  0
    0.6420   -1.5788   -0.7391 N   0  0  0  0  0  0  0  0  0  0  0  0
    0.8884   -2.9328   -0.2978 C   0  0  2  0  0  0  0  0  0  0  0  0
    2.3367   -3.0204    0.1651 C   0  0  0  0  0  0  0  0  0  0  0  0
    3.2083   -2.2376   -0.2070 O   0  0  0  0  0  0  0  0  0  0  0  0
    0.6108   -3.9355   -1.4070 C   0  0  0  0  0  0  0  0  0  0  0  0
    0.2100   -1.4387   -1.6477 H   0  0  0  0  0  0  0  0  0  0  0  0
    0.2212   -3.1150    0.5517 H   0  0  0  0  0  0  0  0  0  0  0  0
    1.2698   -3.7686   -2.2669 H   0  0  0  0  0  0  0  0  0  0  0  0
    0.7705   -4.9625   -1.0626 H   0  0  0  0  0  0  0  0  0  0  0  0
   -0.4229   -3.8507   -1.7593 H   0  0  0  0  0  0  0  0  0  0  0  0
    2.5504   -4.1013    1.0089 N   0  0  0  0  0  0  0  0  0  0  0  0
    3.8448   -4.4067    1.5722 C   0  0  0  0  0  0  0  0  0  0  0  0
    1.7658   -4.6869    1.2794 H   0  0  0  0  0  0  0  0  0  0  0  0
    4.3715   -5.1173    0.9182 H   0  0  0  0  0  0  0  0  0  0  0  0
    4.4343   -3.4820    1.6587 H   0  0  0  0  0  0  0  0  0  0  0  0
    3.7147   -4.8531    2.5691 H   0  0  0  0  0  0  0  0  0  0  0  0
 22 24  2  0  0  0  0
 24 26  1  0  0  0  0
 25 26  2  0  0  0  0
 23 25  1  0  0  0  0
 21 22  1  0  0  0  0
 22 23  1  0  0  0  0
  1  3  1  0  0  0  0
  1  7  1  0  0  0  0
  1  2  2  0  0  0  0
 35 36  1  0  0  0  0
 36 44  1  0  0  0  0
 36 37  2  0  0  0  0
  8  9  1  0  0  0  0
  9 17  1  0  0  0  0
  9 10  2  0  0  0  0
 18 19  1  0  0  0  0
 19 34  1  0  0  0  0
 19 20  2  0  0  0  0
 35 38  1  0  0  0  0
  8 11  1  0  0  0  0
 44 45  1  0  0  0  0
 18 21  1  0  0  0  0
 34 35  1  0  0  0  0
  7  8  1  0  0  0  0
 17 18  1  0  0  0  0
 24 32  1  0  0  0  0
 25 33  1  0  0  0  0
  3  4  1  0  0  0  0
  3  5  1  0  0  0  0
  3  6  1  0  0  0  0
 38 41  1  0  0  0  0
 38 42  1  0  0  0  0
 38 43  1  0  0  0  0
 11 14  1  0  0  0  0
 11 15  1  0  0  0  0
 11 16  1  0  0  0  0
 45 47  1  0  0  0  0
 45 48  1  0  0  0  0
 45 49  1  0  0  0  0
 21 29  1  0  0  0  0
 21 30  1  0  0  0  0
 35 40  1  0  0  0  0
  8 13  1  0  0  0  0
 18 28  1  0  0  0  0
 23 31  1  0  0  0  0
 44 46  1  0  0  0  0
  7 12  1  0  0  0  0
 34 39  1  0  0  0  0
 17 27  1  0  0  0  0
M  END
$$$$

  -OEChem-05262214473D

 49 49  0     1  0  0  0  0  0999 V2000
   -1.5619    0.5658    3.7981 C   0  0  0  0  0  0  0  0  0  0  0  0
   -0.6145   -0.0489    3.3224 O   0  0  0  0  0  0  0  0  0  0  0  0
   -1.9938    0.2834    5.1988 C   0  0  0  0  0  0  0  0  0  0  0  0
   -2.7535   -0.5129    5.2522 H   0  0  0  0  0  0  0  0  0  0  0  0
   -1.1626   -0.0642    5.8331 H   0  0  0  0  0  0  0  0  0  0  0  0
   -2.4318    1.1383    5.7384 H   0  0  0  0  0  0  0  0  0  0  0  0
   -2.3116    1.5383    3.1570 N   0  0  0  0  0  0  0  0  0  0  0  0
   -2.0648    1.9643    1.8046 C   0  0  2  0  0  0  0  0  0  0  0  0
   -0.7298    1.3789    1.3634 C   0  0  0  0  0  0  0  0  0  0  0  0
    0.1423    1.0262    2.1547 O   0  0  0  0  0  0  0  0  0  0  0  0
   -2.0560    3.4811    1.6952 C   0  0  0  0  0  0  0  0  0  0  0  0
   -3.0767    1.9741    3.6688 H   0  0  0  0  0  0  0  0  0  0  0  0
   -2.8689    1.5458    1.1895 H   0  0  0  0  0  0  0  0  0  0  0  0
   -1.2569    3.9183    2.3049 H   0  0  0  0  0  0  0  0  0  0  0  0
   -1.8965    3.8033    0.6609 H   0  0  0  0  0  0  0  0  0  0  0  0
   -3.0062    3.9023    2.0409 H   0  0  0  0  0  0  0  0  0  0  0  0
   -0.6071    1.3358   -0.0200 N   0  0  0  0  0  0  0  0  0  0  0  0
    0.5702    0.8350   -0.6836 C   0  0  2  0  0  0  0  0  0  0  0  0
    0.9658   -0.4603    0.0162 C   0  0  0  0  0  0  0  0  0  0  0  0
    1.2160   -0.5220    1.2181 O   0  0  0  0  0  0  0  0  0  0  0  0
    1.7287    1.8382   -0.6428 C   0  0  0  0  0  0  0  0  0  0  0  0
    1.4250    3.1114   -1.3941 C   0  0  0  0  0  0  0  0  0  0  0  0
    1.4266    3.1826   -2.7587 N   0  0  0  0  0  0  0  0  0  0  0  0
    1.1057    4.3815   -0.9756 C   0  0  0  0  0  0  0  0  0  0  0  0
    1.1147    4.4687   -3.1023 C   0  0  0  0  0  0  0  0  0  0  0  0
    0.9135    5.2216   -2.0438 N   0  0  0  0  0  0  0  0  0  0  0  0
   -1.3903    1.6325   -0.5973 H   0  0  0  0  0  0  0  0  0  0  0  0
    0.2753    0.6099   -1.7153 H   0  0  0  0  0  0  0  0  0  0  0  0
    2.6425    1.3806   -1.0456 H   0  0  0  0  0  0  0  0  0  0  0  0
    1.9719    2.1012    0.3951 H   0  0  0  0  0  0  0  0  0  0  0  0
    1.6233    2.4252   -3.3998 H   0  0  0  0  0  0  0  0  0  0  0  0
    1.0037    4.7364    0.0401 H   0  0  0  0  0  0  0  0  0  0  0  0
    1.0512    4.7884   -4.1328 H   0  0  0  0  0  0  0  0  0  0  0  0
    0.9566   -1.5435   -0.8515 N   0  0  0  0  0  0  0  0  0  0  0  0
    1.2710   -2.8928   -0.4399 C   0  0  2  0  0  0  0  0  0  0  0  0
    2.5844   -2.8555    0.3302 C   0  0  0  0  0  0  0  0  0  0  0  0
    3.4098   -1.9532    0.2055 O   0  0  0  0  0  0  0  0  0  0  0  0
    1.3683   -3.8275   -1.6355 C   0  0  0  0  0  0  0  0  0  0  0  0
    0.7168   -1.3797   -1.8249 H   0  0  0  0  0  0  0  0  0  0  0  0
    0.4647   -3.2158    0.2275 H   0  0  0  0  0  0  0  0  0  0  0  0
    2.1709   -3.5197   -2.3156 H   0  0  0  0  0  0  0  0  0  0  0  0
    1.5783   -4.8548   -1.3199 H   0  0  0  0  0  0  0  0  0  0  0  0
    0.4328   -3.8303   -2.2052 H   0  0  0  0  0  0  0  0  0  0  0  0
    2.7458   -3.9703    1.1409 N   0  0  0  0  0  0  0  0  0  0  0  0
    3.9161   -4.1740    1.9625 C   0  0  0  0  0  0  0  0  0  0  0  0
    2.0017   -4.6595    1.1969 H   0  0  0  0  0  0  0  0  0  0  0  0
    4.6569   -4.7667    1.4058 H   0  0  0  0  0  0  0  0  0  0  0  0
    4.3513   -3.1995    2.2285 H   0  0  0  0  0  0  0  0  0  0  0  0
    3.6313   -4.7110    2.8794 H   0  0  0  0  0  0  0  0  0  0  0  0
 22 24  2  0  0  0  0
 24 26  1  0  0  0  0
 25 26  2  0  0  0  0
 23 25  1  0  0  0  0
 21 22  1  0  0  0  0
 22 23  1  0  0  0  0
  1  3  1  0  0  0  0
  1  7  1  0  0  0  0
  1  2  2  0  0  0  0
 35 36  1  0  0  0  0
 36 44  1  0  0  0  0
 36 37  2  0  0  0  0
  8  9  1  0  0  0  0
  9 17  1  0  0  0  0
  9 10  2  0  0  0  0
 18 19  1  0  0  0  0
 19 34  1  0  0  0  0
 19 20  2  0  0  0  0
 35 38  1  0  0  0  0
  8 11  1  0  0  0  0
 44 45  1  0  0  0  0
 18 21  1  0  0  0  0
 34 35  1  0  0  0  0
  7  8  1  0  0  0  0
 17 18  1  0  0  0  0
 24 32  1  0  0  0  0
 25 33  1  0  0  0  0
  3  4  1  0  0  0  0
  3  5  1  0  0  0  0
  3  6  1  0  0  0  0
 38 41  1  0  0  0  0
 38 42  1  0  0  0  0
 38 43  1  0  0  0  0
 11 14  1  0  0  0  0
 11 15  1  0  0  0  0
 11 16  1  0  0  0  0
 45 47  1  0  0  0  0
 45 48  1  0  0  0  0
 45 49  1  0  0  0  0
 21 29  1  0  0  0  0
 21 30  1  0  0  0  0
 35 40  1  0  0  0  0
  8 13  1  0  0  0  0
 18 28  1  0  0  0  0
 23 31  1  0  0  0  0
 44 46  1  0  0  0  0
  7 12  1  0  0  0  0
 34 39  1  0  0  0  0
 17 27  1  0  0  0  0
M  END
$$$$

  -OEChem-05262214473D

 49 49  0     1  0  0  0  0  0999 V2000
   -1.5619    0.5658    3.7981 C   0  0  0  0  0  0  0  0  0  0  0  0
   -0.6145   -0.0489    3.3224 O   0  0  0  0  0  0  0  0  0  0  0  0
   -1.9938    0.2834    5.1988 C   0  0  0  0  0  0  0  0  0  0  0  0
   -2.7535   -0.5129    5.2522 H   0  0  0  0  0  0  0  0  0  0  0  0
   -1.1626   -0.0642    5.8331 H   0  0  0  0  0  0  0  0  0  0  0  0
   -2.4318    1.1383    5.7384 H   0  0  0  0  0  0  0  0  0  0  0  0
   -2.3116    1.5383    3.1570 N   0  0  0  0  0  0  0  0  0  0  0  0
   -2.0648    1.9643    1.8046 C   0  0  2  0  0  0  0  0  0  0  0  0
   -0.7298    1.3789    1.3634 C   0  0  0  0  0  0  0  0  0  0  0  0
    0.1423    1.0262    2.1547 O   0  0  0  0  0  0  0  0  0  0  0  0
   -2.0560    3.4811    1.6952 C   0  0  0  0  0  0  0  0  0  0  0  0
   -3.0767    1.9741    3.6688 H   0  0  0  0  0  0  0  0  0  0  0  0
   -2.8689    1.5458    1.1895 H   0  0  0  0  0  0  0  0  0  0  0  0
   -1.2569    3.9183    2.3049 H   0  0  0  0  0  0  0  0  0  0  0  0
   -1.8965    3.8033    0.6609 H   0  0  0  0  0  0  0  0  0  0  0  0
   -3.0062    3.9023    2.0409 H   0  0  0  0  0  0  0  0  0  0  0  0
   -0.6071    1.3358   -0.0200 N   0  0  0  0  0  0  0  0  0  0  0  0
    0.5702    0.8350   -0.6836 C   0  0  2  0  0  0  0  0  0  0  0  0
    0.9658   -0.4603    0.0162 C   0  0  0  0  0  0  0  0  0  0  0  0
    0.9565   -0.5903    1.2385 O   0  0  0  0  0  0  0  0  0  0  0  0
    1.7287    1.8382   -0.6428 C   0  0  0  0  0  0  0  0  0  0  0  0
    1.4250    3.1114   -1.3941 C   0  0  0  0  0  0  0  0  0  0  0  0
    1.4266    3.1826   -2.7587 N   0  0  0  0  0  0  0  0  0  0  0  0
    1.1057    4.3815   -0.9756 C   0  0  0  0  0  0  0  0  0  0  0  0
    1.1147    4.4687   -3.1023 C   0  0  0  0  0  0  0  0  0  0  0  0
    0.9135    5.2216   -2.0438 N   0  0  0  0  0  0  0  0  0  0  0  0
   -1.3903    1.6325   -0.5973 H   0  0  0  0  0  0  0  0  0  0  0  0
    0.2753    0.6099   -1.7153 H   0  0  0  0  0  0  0  0  0  0  0  0
    2.6425    1.3806   -1.0456 H   0  0  0  0  0  0  0  0  0  0  0  0
    1.9719    2.1012    0.3951 H   0  0  0  0  0  0  0  0  0  0  0  0
    1.6233    2.4252   -3.3998 H   0  0  0  0  0  0  0  0  0  0  0  0
    1.0037    4.7364    0.0401 H   0  0  0  0  0  0  0  0  0  0  0  0
    1.0512    4.7884   -4.1328 H   0  0  0  0  0  0  0  0  0  0  0  0
    1.2810   -1.4644   -0.8886 N   0  0  0  0  0  0  0  0  0  0  0  0
    1.6671   -2.7990   -0.4904 C   0  0  2  0  0  0  0  0  0  0  0  0
    2.7678   -2.6779    0.5552 C   0  0  0  0  0  0  0  0  0  0  0  0
    3.4799   -1.6822    0.6673 O   0  0  0  0  0  0  0  0  0  0  0  0
    2.1374   -3.6179   -1.6824 C   0  0  0  0  0  0  0  0  0  0  0  0
    1.2383   -1.2506   -1.8807 H   0  0  0  0  0  0  0  0  0  0  0  0
    0.7831   -3.2625   -0.0389 H   0  0  0  0  0  0  0  0  0  0  0  0
    3.0224   -3.1690   -2.1479 H   0  0  0  0  0  0  0  0  0  0  0  0
    2.4024   -4.6375   -1.3836 H   0  0  0  0  0  0  0  0  0  0  0  0
    1.3549   -3.6790   -2.4464 H   0  0  0  0  0  0  0  0  0  0  0  0
    2.8899   -3.8295    1.3202 N   0  0  0  0  0  0  0  0  0  0  0  0
    3.8714   -3.9671    2.3708 C   0  0  0  0  0  0  0  0  0  0  0  0
    2.2444   -4.5994    1.1708 H   0  0  0  0  0  0  0  0  0  0  0  0
    4.7837   -4.4268    1.9631 H   0  0  0  0  0  0  0  0  0  0  0  0
    4.1122   -2.9747    2.7797 H   0  0  0  0  0  0  0  0  0  0  0  0
    3.4656   -4.6044    3.1703 H   0  0  0  0  0  0  0  0  0  0  0  0
 22 24  2  0  0  0  0
 24 26  1  0  0  0  0
 25 26  2  0  0  0  0
 23 25  1  0  0  0  0
 21 22  1  0  0  0  0
 22 23  1  0  0  0  0
  1  3  1  0  0  0  0
  1  7  1  0  0  0  0
  1  2  2  0  0  0  0
 35 36  1  0  0  0  0
 36 44  1  0  0  0  0
 36 37  2  0  0  0  0
  8  9  1  0  0  0  0
  9 17  1  0  0  0  0
  9 10  2  0  0  0  0
 18 19  1  0  0  0  0
 19 34  1  0  0  0  0
 19 20  2  0  0  0  0
 35 38  1  0  0  0  0
  8 11  1  0  0  0  0
 44 45  1  0  0  0  0
 18 21  1  0  0  0  0
 34 35  1  0  0  0  0
  7  8  1  0  0  0  0
 17 18  1  0  0  0  0
 24 32  1  0  0  0  0
 25 33  1  0  0  0  0
  3  4  1  0  0  0  0
  3  5  1  0  0  0  0
  3  6  1  0  0  0  0
 38 41  1  0  0  0  0
 38 42  1  0  0  0  0
 38 43  1  0  0  0  0
 11 14  1  0  0  0  0
 11 15  1  0  0  0  0
 11 16  1  0  0  0  0
 45 47  1  0  0  0  0
 45 48  1  0  0  0  0
 45 49  1  0  0  0  0
 21 29  1  0  0  0  0
 21 30  1  0  0  0  0
 35 40  1  0  0  0  0
  8 13  1  0  0  0  0
 18 28  1  0  0  0  0
 23 31  1  0  0  0  0
 44 46  1  0  0  0  0
  7 12  1  0  0  0  0
 34 39  1  0  0  0  0
 17 27  1  0  0  0  0
M  END
$$$$

  -OEChem-05262214473D

 49 49  0     1  0  0  0  0  0999 V2000
   -1.5619    0.5658    3.7981 C   0  0  0  0  0  0  0  0  0  0  0  0
   -0.6145   -0.0489    3.3224 O   0  0  0  0  0  0  0  0  0  0  0  0
   -1.9938    0.2834    5.1988 C   0  0  0  0  0  0  0  0  0  0  0  0
   -2.7535   -0.5129    5.2522 H   0  0  0  0  0  0  0  0  0  0  0  0
   -1.1626   -0.0642    5.8331 H   0  0  0  0  0  0  0  0  0  0  0  0
   -2.4318    1.1383    5.7384 H   0  0  0  0  0  0  0  0  0  0  0  0
   -2.3116    1.5383    3.1570 N   0  0  0  0  0  0  0  0  0  0  0  0
   -2.0648    1.9643    1.8046 C   0  0  2  0  0  0  0  0  0  0  0  0
   -0.7298    1.3789    1.3634 C   0  0  0  0  0  0  0  0  0  0  0  0
    0.1423    1.0262    2.1547 O   0  0  0  0  0  0  0  0  0  0  0  0
   -2.0560    3.4811    1.6952 C   0  0  0  0  0  0  0  0  0  0  0  0
   -3.0767    1.9741    3.6688 H   0  0  0  0  0  0  0  0  0  0  0  0
   -2.8689    1.5458    1.1895 H   0  0  0  0  0  0  0  0  0  0  0  0
   -1.2569    3.9183    2.3049 H   0  0  0  0  0  0  0  0  0  0  0  0
   -1.8965    3.8033    0.6609 H   0  0  0  0  0  0  0  0  0  0  0  0
   -3.0062    3.9023    2.0409 H   0  0  0  0  0  0  0  0  0  0  0  0
   -0.6071    1.3358   -0.0200 N   0  0  0  0  0  0  0  0  0  0  0  0
    0.5702    0.8350   -0.6836 C   0  0  2  0  0  0  0  0  0  0  0  0
    0.9658   -0.4603    0.0162 C   0  0  0  0  0  0  0  0  0  0  0  0
    0.7094   -0.6884    1.1965 O   0  0  0  0  0  0  0  0  0  0  0  0
    1.7287    1.8382   -0.6428 C   0  0  0  0  0  0  0  0  0  0  0  0
    1.4250    3.1114   -1.3941 C   0  0  0  0  0  0  0  0  0  0  0  0
    1.4266    3.1826   -2.7587 N   0  0  0  0  0  0  0  0  0  0  0  0
    1.1057    4.3815   -0.9756 C   0  0  0  0  0  0  0  0  0  0  0  0
    1.1147    4.4687   -3.1023 C   0  0  0  0  0  0  0  0  0  0  0  0
    0.9135    5.2216   -2.0438 N   0  0  0  0  0  0  0  0  0  0  0  0
   -1.3903    1.6325   -0.5973 H   0  0  0  0  0  0  0  0  0  0  0  0
    0.2753    0.6099   -1.7153 H   0  0  0  0  0  0  0  0  0  0  0  0
    2.6425    1.3806   -1.0456 H   0  0  0  0  0  0  0  0  0  0  0  0
    1.9719    2.1012    0.3951 H   0  0  0  0  0  0  0  0  0  0  0  0
    1.6233    2.4252   -3.3998 H   0  0  0  0  0  0  0  0  0  0  0  0
    1.0037    4.7364    0.0401 H   0  0  0  0  0  0  0  0  0  0  0  0
    1.0512    4.7884   -4.1328 H   0  0  0  0  0  0  0  0  0  0  0  0
    1.5932   -1.3470   -0.8478 N   0  0  0  0  0  0  0  0  0  0  0  0
    2.0496   -2.6581   -0.4457 C   0  0  2  0  0  0  0  0  0  0  0  0
    2.8743   -2.4997    0.8248 C   0  0  0  0  0  0  0  0  0  0  0  0
    3.4138   -1.4432    1.1470 O   0  0  0  0  0  0  0  0  0  0  0  0
    2.8657   -3.3209   -1.5444 C   0  0  0  0  0  0  0  0  0  0  0  0
    1.7389   -1.0601   -1.8112 H   0  0  0  0  0  0  0  0  0  0  0  0
    1.1548   -3.2518   -0.2293 H   0  0  0  0  0  0  0  0  0  0  0  0
    3.7664   -2.7403   -1.7750 H   0  0  0  0  0  0  0  0  0  0  0  0
    3.1866   -4.3254   -1.2493 H   0  0  0  0  0  0  0  0  0  0  0  0
    2.2807   -3.4070   -2.4665 H   0  0  0  0  0  0  0  0  0  0  0  0
    2.9729   -3.6883    1.5346 N   0  0  0  0  0  0  0  0  0  0  0  0
    3.7138   -3.7999    2.7693 C   0  0  0  0  0  0  0  0  0  0  0  0
    2.4774   -4.5107    1.2031 H   0  0  0  0  0  0  0  0  0  0  0  0
    4.7433   -4.1209    2.5521 H   0  0  0  0  0  0  0  0  0  0  0  0
    3.7334   -2.8230    3.2746 H   0  0  0  0  0  0  0  0  0  0  0  0
    3.2289   -4.5406    3.4221 H   0  0  0  0  0  0  0  0  0  0  0  0
 22 24  2  0  0  0  0
 24 26  1  0  0  0  0
 25 26  2  0  0  0  0
 23 25  1  0  0  0  0
 21 22  1  0  0  0  0
 22 23  1  0  0  0  0
  1  3  1  0  0  0  0
  1  7  1  0  0  0  0
  1  2  2  0  0  0  0
 35 36  1  0  0  0  0
 36 44  1  0  0  0  0
 36 37  2  0  0  0  0
  8  9  1  0  0  0  0
  9 17  1  0  0  0  0
  9 10  2  0  0  0  0
 18 19  1  0  0  0  0
 19 34  1  0  0  0  0
 19 20  2  0  0  0  0
 35 38  1  0  0  0  0
  8 11  1  0  0  0  0
 44 45  1  0  0  0  0
 18 21  1  0  0  0  0
 34 35  1  0  0  0  0
  7  8  1  0  0  0  0
 17 18  1  0  0  0  0
 24 32  1  0  0  0  0
 25 33  1  0  0  0  0
  3  4  1  0  0  0  0
  3  5  1  0  0  0  0
  3  6  1  0  0  0  0
 38 41  1  0  0  0  0
 38 42  1  0  0  0  0
 38 43  1  0  0  0  0
 11 14  1  0  0  0  0
 11 15  1  0  0  0  0
 11 16  1  0  0  0  0
 45 47  1  0  0  0  0
 45 48  1  0  0  0  0
 45 49  1  0  0  0  0
 21 29  1  0  0  0  0
 21 30  1  0  0  0  0
 35 40  1  0  0  0  0
  8 13  1  0  0  0  0
 18 28  1  0  0  0  0
 23 31  1  0  0  0  0
 44 46  1  0  0  0  0
  7 12  1  0  0  0  0
 34 39  1  0  0  0  0
 17 27  1  0  0  0  0
M  END
$$$$

  -OEChem-05262214473D

 49 49  0     1  0  0  0  0  0999 V2000
   -1.5619    0.5658    3.7981 C   0  0  0  0  0  0  0  0  0  0  0  0
   -0.6145   -0.0489    3.3224 O   0  0  0  0  0  0  0  0  0  0  0  0
   -1.9938    0.2834    5.1988 C   0  0  0  0  0  0  0  0  0  0  0  0
   -2.7535   -0.5129    5.2522 H   0  0  0  0  0  0  0  0  0  0  0  0
   -1.1626   -0.0642    5.8331 H   0  0  0  0  0  0  0  0  0  0  0  0
   -2.4318    1.1383    5.7384 H   0  0  0  0  0  0  0  0  0  0  0  0
   -2.3116    1.5383    3.1570 N   0  0  0  0  0  0  0  0  0  0  0  0
   -2.0648    1.9643    1.8046 C   0  0  2  0  0  0  0  0  0  0  0  0
   -0.7298    1.3789    1.3634 C   0  0  0  0  0  0  0  0  0  0  0  0
    0.1423    1.0262    2.1547 O   0  0  0  0  0  0  0  0  0  0  0  0
   -2.0560    3.4811    1.6952 C   0  0  0  0  0  0  0  0  0  0  0  0
   -3.0767    1.9741    3.6688 H   0  0  0  0  0  0  0  0  0  0  0  0
   -2.8689    1.5458    1.1895 H   0  0  0  0  0  0  0  0  0  0  0  0
   -1.2569    3.9183    2.3049 H   0  0  0  0  0  0  0  0  0  0  0  0
   -1.8965    3.8033    0.6609 H   0  0  0  0  0  0  0  0  0  0  0  0
   -3.0062    3.9023    2.0409 H   0  0  0  0  0  0  0  0  0  0  0  0
   -0.6071    1.3358   -0.0200 N   0  0  0  0  0  0  0  0  0  0  0  0
    0.5702    0.8350   -0.6836 C   0  0  2  0  0  0  0  0  0  0  0  0
    0.9658   -0.4603    0.0162 C   0  0  0  0  0  0  0  0  0  0  0  0
    0.4916   -0.8098    1.0950 O   0  0  0  0  0  0  0  0  0  0  0  0
    1.7287    1.8382   -0.6428 C   0  0  0  0  0  0  0  0  0  0  0  0
    1.4250    3.1114   -1.3941 C   0  0  0  0  0  0  0  0  0  0  0  0
    1.4266    3.1826   -2.7587 N   0  0  0  0  0  0  0  0  0  0  0  0
    1.1057    4.3815   -0.9756 C   0  0  0  0  0  0  0  0  0  0  0  0
    1.1147    4.4687   -3.1023 C   0  0  0  0  0  0  0  0  0  0  0  0
    0.9135    5.2216   -2.0438 N   0  0  0  0  0  0  0  0  0  0  0  0
   -1.3903    1.6325   -0.5973 H   0  0  0  0  0  0  0  0  0  0  0  0
    0.2753    0.6099   -1.7153 H   0  0  0  0  0  0  0  0  0  0  0  0
    2.6425    1.3806   -1.0456 H   0  0  0  0  0  0  0  0  0  0  0  0
    1.9719    2.1012    0.3951 H   0  0  0  0  0  0  0  0  0  0  0  0
    1.6233    2.4252   -3.3998 H   0  0  0  0  0  0  0  0  0  0  0  0
    1.0037    4.7364    0.0401 H   0  0  0  0  0  0  0  0  0  0  0  0
    1.0512    4.7884   -4.1328 H   0  0  0  0  0  0  0  0  0  0  0  0
    1.8718   -1.1993   -0.7318 N   0  0  0  0  0  0  0  0  0  0  0  0
    2.3925   -2.4794   -0.3090 C   0  0  2  0  0  0  0  0  0  0  0  0
    2.8968   -2.3330    1.1206 C   0  0  0  0  0  0  0  0  0  0  0  0
    3.2161   -1.2524    1.6119 O   0  0  0  0  0  0  0  0  0  0  0  0
    3.5036   -2.9568   -1.2311 C   0  0  0  0  0  0  0  0  0  0  0  0
    2.1845   -0.8214   -1.6213 H   0  0  0  0  0  0  0  0  0  0  0  0
    1.5545   -3.1846   -0.3308 H   0  0  0  0  0  0  0  0  0  0  0  0
    4.3520   -2.2629   -1.2224 H   0  0  0  0  0  0  0  0  0  0  0  0
    3.8775   -3.9397   -0.9261 H   0  0  0  0  0  0  0  0  0  0  0  0
    3.1471   -3.0330   -2.2640 H   0  0  0  0  0  0  0  0  0  0  0  0
    2.9892   -3.5565    1.7693 N   0  0  0  0  0  0  0  0  0  0  0  0
    3.4541   -3.6839    3.1308 C   0  0  0  0  0  0  0  0  0  0  0  0
    2.6849   -4.3996    1.2915 H   0  0  0  0  0  0  0  0  0  0  0  0
    4.5383   -3.8698    3.1327 H   0  0  0  0  0  0  0  0  0  0  0  0
    3.2407   -2.7547    3.6795 H   0  0  0  0  0  0  0  0  0  0  0  0
    2.9373   -4.5241    3.6175 H   0  0  0  0  0  0  0  0  0  0  0  0
 22 24  2  0  0  0  0
 24 26  1  0  0  0  0
 25 26  2  0  0  0  0
 23 25  1  0  0  0  0
 21 22  1  0  0  0  0
 22 23  1  0  0  0  0
  1  3  1  0  0  0  0
  1  7  1  0  0  0  0
  1  2  2  0  0  0  0
 35 36  1  0  0  0  0
 36 44  1  0  0  0  0
 36 37  2  0  0  0  0
  8  9  1  0  0  0  0
  9 17  1  0  0  0  0
  9 10  2  0  0  0  0
 18 19  1  0  0  0  0
 19 34  1  0  0  0  0
 19 20  2  0  0  0  0
 35 38  1  0  0  0  0
  8 11  1  0  0  0  0
 44 45  1  0  0  0  0
 18 21  1  0  0  0  0
 34 35  1  0  0  0  0
  7  8  1  0  0  0  0
 17 18  1  0  0  0  0
 24 32  1  0  0  0  0
 25 33  1  0  0  0  0
  3  4  1  0  0  0  0
  3  5  1  0  0  0  0
  3  6  1  0  0  0  0
 38 41  1  0  0  0  0
 38 42  1  0  0  0  0
 38 43  1  0  0  0  0
 11 14  1  0  0  0  0
 11 15  1  0  0  0  0
 11 16  1  0  0  0  0
 45 47  1  0  0  0  0
 45 48  1  0  0  0  0
 45 49  1  0  0  0  0
 21 29  1  0  0  0  0
 21 30  1  0  0  0  0
 35 40  1  0  0  0  0
  8 13  1  0  0  0  0
 18 28  1  0  0  0  0
 23 31  1  0  0  0  0
 44 46  1  0  0  0  0
  7 12  1  0  0  0  0
 34 39  1  0  0  0  0
 17 27  1  0  0  0  0
M  END
$$$$

  -OEChem-05262214473D

 49 49  0     1  0  0  0  0  0999 V2000
   -1.5619    0.5658    3.7981 C   0  0  0  0  0  0  0  0  0  0  0  0
   -0.6145   -0.0489    3.3224 O   0  0  0  0  0  0  0  0  0  0  0  0
   -1.9938    0.2834    5.1988 C   0  0  0  0  0  0  0  0  0  0  0  0
   -2.7535   -0.5129    5.2522 H   0  0  0  0  0  0  0  0  0  0  0  0
   -1.1626   -0.0642    5.8331 H   0  0  0  0  0  0  0  0  0  0  0  0
   -2.4318    1.1383    5.7384 H   0  0  0  0  0  0  0  0  0  0  0  0
   -2.3116    1.5383    3.1570 N   0  0  0  0  0  0  0  0  0  0  0  0
   -2.0648    1.9643    1.8046 C   0  0  2  0  0  0  0  0  0  0  0  0
   -0.7298    1.3789    1.3634 C   0  0  0  0  0  0  0  0  0  0  0  0
    0.1423    1.0262    2.1547 O   0  0  0  0  0  0  0  0  0  0  0  0
   -2.0560    3.4811    1.6952 C   0  0  0  0  0  0  0  0  0  0  0  0
   -3.0767    1.9741    3.6688 H   0  0  0  0  0  0  0  0  0  0  0  0
   -2.8689    1.5458    1.1895 H   0  0  0  0  0  0  0  0  0  0  0  0
   -1.2569    3.9183    2.3049 H   0  0  0  0  0  0  0  0  0  0  0  0
   -1.8965    3.8033    0.6609 H   0  0  0  0  0  0  0  0  0  0  0  0
   -3.0062    3.9023    2.0409 H   0  0  0  0  0  0  0  0  0  0  0  0
   -0.6071    1.3358   -0.0200 N   0  0  0  0  0  0  0  0  0  0  0  0
    0.5702    0.8350   -0.6836 C   0  0  2  0  0  0  0  0  0  0  0  0
    0.7476   -0.6166   -0.2530 C   0  0  0  0  0  0  0  0  0  0  0  0
   -0.0412   -1.1948    0.4917 O   0  0  0  0  0  0  0  0  0  0  0  0
    1.8212    1.6504   -0.3371 C   0  0  0  0  0  0  0  0  0  0  0  0
    1.7376    3.0793   -0.8155 C   0  0  0  0  0  0  0  0  0  0  0  0
    1.8871    3.4293   -2.1279 N   0  0  0  0  0  0  0  0  0  0  0  0
    1.5180    4.2664   -0.1574 C   0  0  0  0  0  0  0  0  0  0  0  0
    1.7550    4.7878   -2.2074 C   0  0  0  0  0  0  0  0  0  0  0  0
    1.5297    5.3261   -1.0295 N   0  0  0  0  0  0  0  0  0  0  0  0
   -1.3903    1.6325   -0.5973 H   0  0  0  0  0  0  0  0  0  0  0  0
    0.3600    0.8671   -1.7592 H   0  0  0  0  0  0  0  0  0  0  0  0
    2.7159    1.1718   -0.7578 H   0  0  0  0  0  0  0  0  0  0  0  0
    1.9839    1.6604    0.7488 H   0  0  0  0  0  0  0  0  0  0  0  0
    2.0645    2.8013   -2.9008 H   0  0  0  0  0  0  0  0  0  0  0  0
    1.3516    4.4146    0.9001 H   0  0  0  0  0  0  0  0  0  0  0  0
    1.8330    5.3183   -3.1457 H   0  0  0  0  0  0  0  0  0  0  0  0
    1.8622   -1.2000   -0.8392 N   0  0  0  0  0  0  0  0  0  0  0  0
    2.2469   -2.5754   -0.6179 C   0  0  2  0  0  0  0  0  0  0  0  0
    2.2604   -2.8240    0.8846 C   0  0  0  0  0  0  0  0  0  0  0  0
    2.3806   -1.9234    1.7125 O   0  0  0  0  0  0  0  0  0  0  0  0
    3.6061   -2.8753   -1.2306 C   0  0  0  0  0  0  0  0  0  0  0  0
    2.4365   -0.6316   -1.4548 H   0  0  0  0  0  0  0  0  0  0  0  0
    1.4763   -3.1984   -1.0848 H   0  0  0  0  0  0  0  0  0  0  0  0
    4.3911   -2.2605   -0.7753 H   0  0  0  0  0  0  0  0  0  0  0  0
    3.8833   -3.9248   -1.0869 H   0  0  0  0  0  0  0  0  0  0  0  0
    3.6031   -2.6675   -2.3061 H   0  0  0  0  0  0  0  0  0  0  0  0
    2.1657   -4.1743    1.1910 N   0  0  0  0  0  0  0  0  0  0  0  0
    2.1699   -4.6680    2.5484 C   0  0  0  0  0  0  0  0  0  0  0  0
    2.0502   -4.8499    0.4414 H   0  0  0  0  0  0  0  0  0  0  0  0
    3.1995   -4.9163    2.8456 H   0  0  0  0  0  0  0  0  0  0  0  0
    1.7707   -3.8945    3.2209 H   0  0  0  0  0  0  0  0  0  0  0  0
    1.5424   -5.5691    2.6126 H   0  0  0  0  0  0  0  0  0  0  0  0
 22 24  2  0  0  0  0
 24 26  1  0  0  0  0
 25 26  2  0  0  0  0
 23 25  1  0  0  0  0
 21 22  1  0  0  0  0
 22 23  1  0  0  0  0
  1  3  1  0  0  0  0
  1  7  1  0  0  0  0
  1  2  2  0  0  0  0
 35 36  1  0  0  0  0
 36 44  1  0  0  0  0
 36 37  2  0  0  0  0
  8  9  1  0  0  0  0
  9 17  1  0  0  0  0
  9 10  2  0  0  0  0
 18 19  1  0  0  0  0
 19 34  1  0  0  0  0
 19 20  2  0  0  0  0
 35 38  1  0  0  0  0
  8 11  1  0  0  0  0
 44 45  1  0  0  0  0
 18 21  1  0  0  0  0
 34 35  1  0  0  0  0
  7  8  1  0  0  0  0
 17 18  1  0  0  0  0
 24 32  1  0  0  0  0
 25 33  1  0  0  0  0
  3  4  1  0  0  0  0
  3  5  1  0  0  0  0
  3  6  1  0  0  0  0
 38 41  1  0  0  0  0
 38 42  1  0  0  0  0
 38 43  1  0  0  0  0
 11 14  1  0  0  0  0
 11 15  1  0  0  0  0
 11 16  1  0  0  0  0
 45 47  1  0  0  0  0
 45 48  1  0  0  0  0
 45 49  1  0  0  0  0
 21 29  1  0  0  0  0
 21 30  1  0  0  0  0
 35 40  1  0  0  0  0
  8 13  1  0  0  0  0
 18 28  1  0  0  0  0
 23 31  1  0  0  0  0
 44 46  1  0  0  0  0
  7 12  1  0  0  0  0
 34 39  1  0  0  0  0
 17 27  1  0  0  0  0
M  END
$$$$

  -OEChem-05262214473D

 49 49  0     1  0  0  0  0  0999 V2000
   -1.5619    0.5658    3.7981 C   0  0  0  0  0  0  0  0  0  0  0  0
   -0.6145   -0.0489    3.3224 O   0  0  0  0  0  0  0  0  0  0  0  0
   -1.9938    0.2834    5.1988 C   0  0  0  0  0  0  0  0  0  0  0  0
   -2.7535   -0.5129    5.2522 H   0  0  0  0  0  0  0  0  0  0  0  0
   -1.1626   -0.0642    5.8331 H   0  0  0  0  0  0  0  0  0  0  0  0
   -2.4318    1.1383    5.7384 H   0  0  0  0  0  0  0  0  0  0  0  0
   -2.3116    1.5383    3.1570 N   0  0  0  0  0  0  0  0  0  0  0  0
   -2.0648    1.9643    1.8046 C   0  0  2  0  0  0  0  0  0  0  0  0
   -0.7298    1.3789    1.3634 C   0  0  0  0  0  0  0  0  0  0  0  0
    0.1423    1.0262    2.1547 O   0  0  0  0  0  0  0  0  0  0  0  0
   -2.0560    3.4811    1.6952 C   0  0  0  0  0  0  0  0  0  0  0  0
   -3.0767    1.9741    3.6688 H   0  0  0  0  0  0  0  0  0  0  0  0
   -2.8689    1.5458    1.1895 H   0  0  0  0  0  0  0  0  0  0  0  0
   -1.2569    3.9183    2.3049 H   0  0  0  0  0  0  0  0  0  0  0  0
   -1.8965    3.8033    0.6609 H   0  0  0  0  0  0  0  0  0  0  0  0
   -3.0062    3.9023    2.0409 H   0  0  0  0  0  0  0  0  0  0  0  0
   -0.6071    1.3358   -0.0200 N   0  0  0  0  0  0  0  0  0  0  0  0
    0.5702    0.8350   -0.6836 C   0  0  2  0  0  0  0  0  0  0  0  0
    0.7476   -0.6166   -0.2530 C   0  0  0  0  0  0  0  0  0  0  0  0
   -0.1529   -1.2769    0.2609 O   0  0  0  0  0  0  0  0  0  0  0  0
    1.8212    1.6504   -0.3371 C   0  0  0  0  0  0  0  0  0  0  0  0
    1.7376    3.0793   -0.8155 C   0  0  0  0  0  0  0  0  0  0  0  0
    1.8871    3.4293   -2.1279 N   0  0  0  0  0  0  0  0  0  0  0  0
    1.5180    4.2664   -0.1574 C   0  0  0  0  0  0  0  0  0  0  0  0
    1.7550    4.7878   -2.2074 C   0  0  0  0  0  0  0  0  0  0  0  0
    1.5297    5.3261   -1.0295 N   0  0  0  0  0  0  0  0  0  0  0  0
   -1.3903    1.6325   -0.5973 H   0  0  0  0  0  0  0  0  0  0  0  0
    0.3600    0.8671   -1.7592 H   0  0  0  0  0  0  0  0  0  0  0  0
    2.7159    1.1718   -0.7578 H   0  0  0  0  0  0  0  0  0  0  0  0
    1.9839    1.6604    0.7488 H   0  0  0  0  0  0  0  0  0  0  0  0
    2.0645    2.8013   -2.9008 H   0  0  0  0  0  0  0  0  0  0  0  0
    1.3516    4.4146    0.9001 H   0  0  0  0  0  0  0  0  0  0  0  0
    1.8330    5.3183   -3.1457 H   0  0  0  0  0  0  0  0  0  0  0  0
    2.0134   -1.0978   -0.5571 N   0  0  0  0  0  0  0  0  0  0  0  0
    2.4367   -2.4509   -0.2763 C   0  0  2  0  0  0  0  0  0  0  0  0
    2.1002   -2.7568    1.1772 C   0  0  0  0  0  0  0  0  0  0  0  0
    1.9440   -1.8832    2.0278 O   0  0  0  0  0  0  0  0  0  0  0  0
    3.9235   -2.6315   -0.5396 C   0  0  0  0  0  0  0  0  0  0  0  0
    2.6757   -0.4672   -0.9993 H   0  0  0  0  0  0  0  0  0  0  0  0
    1.8544   -3.1070   -0.9324 H   0  0  0  0  0  0  0  0  0  0  0  0
    4.5231   -1.9821    0.1086 H   0  0  0  0  0  0  0  0  0  0  0  0
    4.2368   -3.6641   -0.3538 H   0  0  0  0  0  0  0  0  0  0  0  0
    4.1685   -2.3824   -1.5778 H   0  0  0  0  0  0  0  0  0  0  0  0
    2.0374   -4.1214    1.4223 N   0  0  0  0  0  0  0  0  0  0  0  0
    1.7464   -4.6665    2.7278 C   0  0  0  0  0  0  0  0  0  0  0  0
    2.1616   -4.7734    0.6534 H   0  0  0  0  0  0  0  0  0  0  0  0
    2.6875   -4.8543    3.2654 H   0  0  0  0  0  0  0  0  0  0  0  0
    1.1361   -3.9496    3.2966 H   0  0  0  0  0  0  0  0  0  0  0  0
    1.1935   -5.6108    2.6157 H   0  0  0  0  0  0  0  0  0  0  0  0
 22 24  2  0  0  0  0
 24 26  1  0  0  0  0
 25 26  2  0  0  0  0
 23 25  1  0  0  0  0
 21 22  1  0  0  0  0
 22 23  1  0  0  0  0
  1  3  1  0  0  0  0
  1  7  1  0  0  0  0
  1  2  2  0  0  0  0
 35 36  1  0  0  0  0
 36 44  1  0  0  0  0
 36 37  2  0  0  0  0
  8  9  1  0  0  0  0
  9 17  1  0  0  0  0
  9 10  2  0  0  0  0
 18 19  1  0  0  0  0
 19 34  1  0  0  0  0
 19 20  2  0  0  0  0
 35 38  1  0  0  0  0
  8 11  1  0  0  0  0
 44 45  1  0  0  0  0
 18 21  1  0  0  0  0
 34 35  1  0  0  0  0
  7  8  1  0  0  0  0
 17 18  1  0  0  0  0
 24 32  1  0  0  0  0
 25 33  1  0  0  0  0
  3  4  1  0  0  0  0
  3  5  1  0  0  0  0
  3  6  1  0  0  0  0
 38 41  1  0  0  0  0
 38 42  1  0  0  0  0
 38 43  1  0  0  0  0
 11 14  1  0  0  0  0
 11 15  1  0  0  0  0
 11 16  1  0  0  0  0
 45 47  1  0  0  0  0
 45 48  1  0  0  0  0
 45 49  1  0  0  0  0
 21 29  1  0  0  0  0
 21 30  1  0  0  0  0
 35 40  1  0  0  0  0
  8 13  1  0  0  0  0
 18 28  1  0  0  0  0
 23 31  1  0  0  0  0
 44 46  1  0  0  0  0
  7 12  1  0  0  0  0
 34 39  1  0  0  0  0
 17 27  1  0  0  0  0
M  END
$$$$

  -OEChem-05262214473D

 49 49  0     1  0  0  0  0  0999 V2000
   -1.5619    0.5658    3.7981 C   0  0  0  0  0  0  0  0  0  0  0  0
   -0.6145   -0.0489    3.3224 O   0  0  0  0  0  0  0  0  0  0  0  0
   -1.9938    0.2834    5.1988 C   0  0  0  0  0  0  0  0  0  0  0  0
   -2.7535   -0.5129    5.2522 H   0  0  0  0  0  0  0  0  0  0  0  0
   -1.1626   -0.0642    5.8331 H   0  0  0  0  0  0  0  0  0  0  0  0
   -2.4318    1.1383    5.7384 H   0  0  0  0  0  0  0  0  0  0  0  0
   -2.3116    1.5383    3.1570 N   0  0  0  0  0  0  0  0  0  0  0  0
   -2.0648    1.9643    1.8046 C   0  0  2  0  0  0  0  0  0  0  0  0
   -0.7298    1.3789    1.3634 C   0  0  0  0  0  0  0  0  0  0  0  0
    0.1423    1.0262    2.1547 O   0  0  0  0  0  0  0  0  0  0  0  0
   -2.0560    3.4811    1.6952 C   0  0  0  0  0  0  0  0  0  0  0  0
   -3.0767    1.9741    3.6688 H   0  0  0  0  0  0  0  0  0  0  0  0
   -2.8689    1.5458    1.1895 H   0  0  0  0  0  0  0  0  0  0  0  0
   -1.2569    3.9183    2.3049 H   0  0  0  0  0  0  0  0  0  0  0  0
   -1.8965    3.8033    0.6609 H   0  0  0  0  0  0  0  0  0  0  0  0
   -3.0062    3.9023    2.0409 H   0  0  0  0  0  0  0  0  0  0  0  0
   -0.6071    1.3358   -0.0200 N   0  0  0  0  0  0  0  0  0  0  0  0
    0.5702    0.8350   -0.6836 C   0  0  2  0  0  0  0  0  0  0  0  0
    0.7476   -0.6166   -0.2530 C   0  0  0  0  0  0  0  0  0  0  0  0
   -0.1979   -1.3574    0.0081 O   0  0  0  0  0  0  0  0  0  0  0  0
    1.8212    1.6504   -0.3371 C   0  0  0  0  0  0  0  0  0  0  0  0
    1.7376    3.0793   -0.8155 C   0  0  0  0  0  0  0  0  0  0  0  0
    1.8871    3.4293   -2.1279 N   0  0  0  0  0  0  0  0  0  0  0  0
    1.5180    4.2664   -0.1574 C   0  0  0  0  0  0  0  0  0  0  0  0
    1.7550    4.7878   -2.2074 C   0  0  0  0  0  0  0  0  0  0  0  0
    1.5297    5.3261   -1.0295 N   0  0  0  0  0  0  0  0  0  0  0  0
   -1.3903    1.6325   -0.5973 H   0  0  0  0  0  0  0  0  0  0  0  0
    0.3600    0.8671   -1.7592 H   0  0  0  0  0  0  0  0  0  0  0  0
    2.7159    1.1718   -0.7578 H   0  0  0  0  0  0  0  0  0  0  0  0
    1.9839    1.6604    0.7488 H   0  0  0  0  0  0  0  0  0  0  0  0
    2.0645    2.8013   -2.9008 H   0  0  0  0  0  0  0  0  0  0  0  0
    1.3516    4.4146    0.9001 H   0  0  0  0  0  0  0  0  0  0  0  0
    1.8330    5.3183   -3.1457 H   0  0  0  0  0  0  0  0  0  0  0  0
    2.0825   -0.9965   -0.2443 N   0  0  0  0  0  0  0  0  0  0  0  0
    2.5267   -2.3270    0.1042 C   0  0  2  0  0  0  0  0  0  0  0  0
    1.8684   -2.7124    1.4224 C   0  0  0  0  0  0  0  0  0  0  0  0
    1.4417   -1.8858    2.2259 O   0  0  0  0  0  0  0  0  0  0  0  0
    4.0420   -2.3936    0.2134 C   0  0  0  0  0  0  0  0  0  0  0  0
    2.7825   -0.3047   -0.4954 H   0  0  0  0  0  0  0  0  0  0  0  0
    2.1754   -2.9956   -0.6893 H   0  0  0  0  0  0  0  0  0  0  0  0
    4.4125   -1.7302    1.0034 H   0  0  0  0  0  0  0  0  0  0  0  0
    4.3786   -3.4085    0.4493 H   0  0  0  0  0  0  0  0  0  0  0  0
    4.5143   -2.0875   -0.7263 H   0  0  0  0  0  0  0  0  0  0  0  0
    1.8525   -4.0866    1.6156 N   0  0  0  0  0  0  0  0  0  0  0  0
    1.2930   -4.7014    2.7967 C   0  0  0  0  0  0  0  0  0  0  0  0
    2.2113   -4.6977    0.8879 H   0  0  0  0  0  0  0  0  0  0  0  0
    2.0850   -4.8445    3.5465 H   0  0  0  0  0  0  0  0  0  0  0  0
    0.5085   -4.0515    3.2116 H   0  0  0  0  0  0  0  0  0  0  0  0
    0.8588   -5.6767    2.5315 H   0  0  0  0  0  0  0  0  0  0  0  0
 22 24  2  0  0  0  0
 24 26  1  0  0  0  0
 25 26  2  0  0  0  0
 23 25  1  0  0  0  0
 21 22  1  0  0  0  0
 22 23  1  0  0  0  0
  1  3  1  0  0  0  0
  1  7  1  0  0  0  0
  1  2  2  0  0  0  0
 35 36  1  0  0  0  0
 36 44  1  0  0  0  0
 36 37  2  0  0  0  0
  8  9  1  0  0  0  0
  9 17  1  0  0  0  0
  9 10  2  0  0  0  0
 18 19  1  0  0  0  0
 19 34  1  0  0  0  0
 19 20  2  0  0  0  0
 35 38  1  0  0  0  0
  8 11  1  0  0  0  0
 44 45  1  0  0  0  0
 18 21  1  0  0  0  0
 34 35  1  0  0  0  0
  7  8  1  0  0  0  0
 17 18  1  0  0  0  0
 24 32  1  0  0  0  0
 25 33  1  0  0  0  0
  3  4  1  0  0  0  0
  3  5  1  0  0  0  0
  3  6  1  0  0  0  0
 38 41  1  0  0  0  0
 38 42  1  0  0  0  0
 38 43  1  0  0  0  0
 11 14  1  0  0  0  0
 11 15  1  0  0  0  0
 11 16  1  0  0  0  0
 45 47  1  0  0  0  0
 45 48  1  0  0  0  0
 45 49  1  0  0  0  0
 21 29  1  0  0  0  0
 21 30  1  0  0  0  0
 35 40  1  0  0  0  0
  8 13  1  0  0  0  0
 18 28  1  0  0  0  0
 23 31  1  0  0  0  0
 44 46  1  0  0  0  0
  7 12  1  0  0  0  0
 34 39  1  0  0  0  0
 17 27  1  0  0  0  0
M  END
$$$$

  -OEChem-05262214473D

 49 49  0     1  0  0  0  0  0999 V2000
   -1.5619    0.5658    3.7981 C   0  0  0  0  0  0  0  0  0  0  0  0
   -0.6145   -0.0489    3.3224 O   0  0  0  0  0  0  0  0  0  0  0  0
   -1.9938    0.2834    5.1988 C   0  0  0  0  0  0  0  0  0  0  0  0
   -2.7535   -0.5129    5.2522 H   0  0  0  0  0  0  0  0  0  0  0  0
   -1.1626   -0.0642    5.8331 H   0  0  0  0  0  0  0  0  0  0  0  0
   -2.4318    1.1383    5.7384 H   0  0  0  0  0  0  0  0  0  0  0  0
   -2.3116    1.5383    3.1570 N   0  0  0  0  0  0  0  0  0  0  0  0
   -2.0648    1.9643    1.8046 C   0  0  2  0  0  0  0  0  0  0  0  0
   -0.7298    1.3789    1.3634 C   0  0  0  0  0  0  0  0  0  0  0  0
    0.1423    1.0262    2.1547 O   0  0  0  0  0  0  0  0  0  0  0  0
   -2.0560    3.4811    1.6952 C   0  0  0  0  0  0  0  0  0  0  0  0
   -3.0767    1.9741    3.6688 H   0  0  0  0  0  0  0  0  0  0  0  0
   -2.8689    1.5458    1.1895 H   0  0  0  0  0  0  0  0  0  0  0  0
   -1.2569    3.9183    2.3049 H   0  0  0  0  0  0  0  0  0  0  0  0
   -1.8965    3.8033    0.6609 H   0  0  0  0  0  0  0  0  0  0  0  0
   -3.0062    3.9023    2.0409 H   0  0  0  0  0  0  0  0  0  0  0  0
   -0.6071    1.3358   -0.0200 N   0  0  0  0  0  0  0  0  0  0  0  0
    0.5702    0.8350   -0.6836 C   0  0  2  0  0  0  0  0  0  0  0  0
    0.7476   -0.6166   -0.2530 C   0  0  0  0  0  0  0  0  0  0  0  0
   -0.1732   -1.4309   -0.2497 O   0  0  0  0  0  0  0  0  0  0  0  0
    1.8212    1.6504   -0.3371 C   0  0  0  0  0  0  0  0  0  0  0  0
    1.7376    3.0793   -0.8155 C   0  0  0  0  0  0  0  0  0  0  0  0
    1.8871    3.4293   -2.1279 N   0  0  0  0  0  0  0  0  0  0  0  0
    1.5180    4.2664   -0.1574 C   0  0  0  0  0  0  0  0  0  0  0  0
    1.7550    4.7878   -2.2074 C   0  0  0  0  0  0  0  0  0  0  0  0
    1.5297    5.3261   -1.0295 N   0  0  0  0  0  0  0  0  0  0  0  0
   -1.3903    1.6325   -0.5973 H   0  0  0  0  0  0  0  0  0  0  0  0
    0.3600    0.8671   -1.7592 H   0  0  0  0  0  0  0  0  0  0  0  0
    2.7159    1.1718   -0.7578 H   0  0  0  0  0  0  0  0  0  0  0  0
    1.9839    1.6604    0.7488 H   0  0  0  0  0  0  0  0  0  0  0  0
    2.0645    2.8013   -2.9008 H   0  0  0  0  0  0  0  0  0  0  0  0
    1.3516    4.4146    0.9001 H   0  0  0  0  0  0  0  0  0  0  0  0
    1.8330    5.3183   -3.1457 H   0  0  0  0  0  0  0  0  0  0  0  0
    2.0647   -0.9031    0.0780 N   0  0  0  0  0  0  0  0  0  0  0  0
    2.5108   -2.2122    0.4976 C   0  0  2  0  0  0  0  0  0  0  0  0
    1.5809   -2.6938    1.6034 C   0  0  0  0  0  0  0  0  0  0  0  0
    0.9078   -1.9310    2.2934 O   0  0  0  0  0  0  0  0  0  0  0  0
    3.9535   -2.1778    0.9771 C   0  0  0  0  0  0  0  0  0  0  0  0
    2.7496   -0.1551    0.0225 H   0  0  0  0  0  0  0  0  0  0  0  0
    2.4174   -2.8719   -0.3720 H   0  0  0  0  0  0  0  0  0  0  0  0
    4.0667   -1.5218    1.8479 H   0  0  0  0  0  0  0  0  0  0  0  0
    4.2990   -3.1754    1.2677 H   0  0  0  0  0  0  0  0  0  0  0  0
    4.6169   -1.8030    0.1902 H   0  0  0  0  0  0  0  0  0  0  0  0
    1.6238   -4.0724    1.7579 N   0  0  0  0  0  0  0  0  0  0  0  0
    0.8406   -4.7704    2.7505 C   0  0  0  0  0  0  0  0  0  0  0  0
    2.1961   -4.6281    1.1290 H   0  0  0  0  0  0  0  0  0  0  0  0
    1.4331   -4.8876    3.6699 H   0  0  0  0  0  0  0  0  0  0  0  0
   -0.0692   -4.1932    2.9718 H   0  0  0  0  0  0  0  0  0  0  0  0
    0.5610   -5.7623    2.3657 H   0  0  0  0  0  0  0  0  0  0  0  0
 22 24  2  0  0  0  0
 24 26  1  0  0  0  0
 25 26  2  0  0  0  0
 23 25  1  0  0  0  0
 21 22  1  0  0  0  0
 22 23  1  0  0  0  0
  1  3  1  0  0  0  0
  1  7  1  0  0  0  0
  1  2  2  0  0  0  0
 35 36  1  0  0  0  0
 36 44  1  0  0  0  0
 36 37  2  0  0  0  0
  8  9  1  0  0  0  0
  9 17  1  0  0  0  0
  9 10  2  0  0  0  0
 18 19  1  0  0  0  0
 19 34  1  0  0  0  0
 19 20  2  0  0  0  0
 35 38  1  0  0  0  0
  8 11  1  0  0  0  0
 44 45  1  0  0  0  0
 18 21  1  0  0  0  0
 34 35  1  0  0  0  0
  7  8  1  0  0  0  0
 17 18  1  0  0  0  0
 24 32  1  0  0  0  0
 25 33  1  0  0  0  0
  3  4  1  0  0  0  0
  3  5  1  0  0  0  0
  3  6  1  0  0  0  0
 38 41  1  0  0  0  0
 38 42  1  0  0  0  0
 38 43  1  0  0  0  0
 11 14  1  0  0  0  0
 11 15  1  0  0  0  0
 11 16  1  0  0  0  0
 45 47  1  0  0  0  0
 45 48  1  0  0  0  0
 45 49  1  0  0  0  0
 21 29  1  0  0  0  0
 21 30  1  0  0  0  0
 35 40  1  0  0  0  0
  8 13  1  0  0  0  0
 18 28  1  0  0  0  0
 23 31  1  0  0  0  0
 44 46  1  0  0  0  0
  7 12  1  0  0  0  0
 34 39  1  0  0  0  0
 17 27  1  0  0  0  0
M  END
$$$$

  -OEChem-05262214473D

 49 49  0     1  0  0  0  0  0999 V2000
   -1.5619    0.5658    3.7981 C   0  0  0  0  0  0  0  0  0  0  0  0
   -0.6145   -0.0489    3.3224 O   0  0  0  0  0  0  0  0  0  0  0  0
   -1.9938    0.2834    5.1988 C   0  0  0  0  0  0  0  0  0  0  0  0
   -2.7535   -0.5129    5.2522 H   0  0  0  0  0  0  0  0  0  0  0  0
   -1.1626   -0.0642    5.8331 H   0  0  0  0  0  0  0  0  0  0  0  0
   -2.4318    1.1383    5.7384 H   0  0  0  0  0  0  0  0  0  0  0  0
   -2.3116    1.5383    3.1570 N   0  0  0  0  0  0  0  0  0  0  0  0
   -2.0648    1.9643    1.8046 C   0  0  2  0  0  0  0  0  0  0  0  0
   -0.7298    1.3789    1.3634 C   0  0  0  0  0  0  0  0  0  0  0  0
    0.1423    1.0262    2.1547 O   0  0  0  0  0  0  0  0  0  0  0  0
   -2.0560    3.4811    1.6952 C   0  0  0  0  0  0  0  0  0  0  0  0
   -3.0767    1.9741    3.6688 H   0  0  0  0  0  0  0  0  0  0  0  0
   -2.8689    1.5458    1.1895 H   0  0  0  0  0  0  0  0  0  0  0  0
   -1.2569    3.9183    2.3049 H   0  0  0  0  0  0  0  0  0  0  0  0
   -1.8965    3.8033    0.6609 H   0  0  0  0  0  0  0  0  0  0  0  0
   -3.0062    3.9023    2.0409 H   0  0  0  0  0  0  0  0  0  0  0  0
   -0.6071    1.3358   -0.0200 N   0  0  0  0  0  0  0  0  0  0  0  0
    0.5702    0.8350   -0.6836 C   0  0  2  0  0  0  0  0  0  0  0  0
    0.7476   -0.6166   -0.2530 C   0  0  0  0  0  0  0  0  0  0  0  0
   -0.0804   -1.4923   -0.4948 O   0  0  0  0  0  0  0  0  0  0  0  0
    1.8212    1.6504   -0.3371 C   0  0  0  0  0  0  0  0  0  0  0  0
    1.7376    3.0793   -0.8155 C   0  0  0  0  0  0  0  0  0  0  0  0
    1.8871    3.4293   -2.1279 N   0  0  0  0  0  0  0  0  0  0  0  0
    1.5180    4.2664   -0.1574 C   0  0  0  0  0  0  0  0  0  0  0  0
    1.7550    4.7878   -2.2074 C   0  0  0  0  0  0  0  0  0  0  0  0
    1.5297    5.3261   -1.0295 N   0  0  0  0  0  0  0  0  0  0  0  0
   -1.3903    1.6325   -0.5973 H   0  0  0  0  0  0  0  0  0  0  0  0
    0.3600    0.8671   -1.7592 H   0  0  0  0  0  0  0  0  0  0  0  0
    2.7159    1.1718   -0.7578 H   0  0  0  0  0  0  0  0  0  0  0  0
    1.9839    1.6604    0.7488 H   0  0  0  0  0  0  0  0  0  0  0  0
    2.0645    2.8013   -2.9008 H   0  0  0  0  0  0  0  0  0  0  0  0
    1.3516    4.4146    0.9001 H   0  0  0  0  0  0  0  0  0  0  0  0
    1.8330    5.3183   -3.1457 H   0  0  0  0  0  0  0  0  0  0  0  0
    1.9613   -0.8239    0.3877 N   0  0  0  0  0  0  0  0  0  0  0  0
    2.3901   -2.1144    0.8771 C   0  0  2  0  0  0  0  0  0  0  0  0
    1.2572   -2.7024    1.7080 C   0  0  0  0  0  0  0  0  0  0  0  0
    0.3788   -2.0158    2.2257 O   0  0  0  0  0  0  0  0  0  0  0  0
    3.6640   -1.9989    1.6995 C   0  0  0  0  0  0  0  0  0  0  0  0
    2.5793   -0.0285    0.5192 H   0  0  0  0  0  0  0  0  0  0  0  0
    2.5639   -2.7443   -0.0021 H   0  0  0  0  0  0  0  0  0  0  0  0
    3.5094   -1.3713    2.5848 H   0  0  0  0  0  0  0  0  0  0  0  0
    4.0033   -2.9808    2.0456 H   0  0  0  0  0  0  0  0  0  0  0  0
    4.4694   -1.5483    1.1094 H   0  0  0  0  0  0  0  0  0  0  0  0
    1.3668   -4.0796    1.8394 N   0  0  0  0  0  0  0  0  0  0  0  0
    0.4201   -4.8688    2.5923 C   0  0  0  0  0  0  0  0  0  0  0  0
    2.1168   -4.5692    1.3602 H   0  0  0  0  0  0  0  0  0  0  0  0
    0.7761   -4.9806    3.6271 H   0  0  0  0  0  0  0  0  0  0  0  0
   -0.5579   -4.3652    2.5936 H   0  0  0  0  0  0  0  0  0  0  0  0
    0.3206   -5.8617    2.1296 H   0  0  0  0  0  0  0  0  0  0  0  0
 22 24  2  0  0  0  0
 24 26  1  0  0  0  0
 25 26  2  0  0  0  0
 23 25  1  0  0  0  0
 21 22  1  0  0  0  0
 22 23  1  0  0  0  0
  1  3  1  0  0  0  0
  1  7  1  0  0  0  0
  1  2  2  0  0  0  0
 35 36  1  0  0  0  0
 36 44  1  0  0  0  0
 36 37  2  0  0  0  0
  8  9  1  0  0  0  0
  9 17  1  0  0  0  0
  9 10  2  0  0  0  0
 18 19  1  0  0  0  0
 19 34  1  0  0  0  0
 19 20  2  0  0  0  0
 35 38  1  0  0  0  0
  8 11  1  0  0  0  0
 44 45  1  0  0  0  0
 18 21  1  0  0  0  0
 34 35  1  0  0  0  0
  7  8  1  0  0  0  0
 17 18  1  0  0  0  0
 24 32  1  0  0  0  0
 25 33  1  0  0  0  0
  3  4  1  0  0  0  0
  3  5  1  0  0  0  0
  3  6  1  0  0  0  0
 38 41  1  0  0  0  0
 38 42  1  0  0  0  0
 38 43  1  0  0  0  0
 11 14  1  0  0  0  0
 11 15  1  0  0  0  0
 11 16  1  0  0  0  0
 45 47  1  0  0  0  0
 45 48  1  0  0  0  0
 45 49  1  0  0  0  0
 21 29  1  0  0  0  0
 21 30  1  0  0  0  0
 35 40  1  0  0  0  0
  8 13  1  0  0  0  0
 18 28  1  0  0  0  0
 23 31  1  0  0  0  0
 44 46  1  0  0  0  0
  7 12  1  0  0  0  0
 34 39  1  0  0  0  0
 17 27  1  0  0  0  0
M  END
$$$$

  -OEChem-05262214473D

 49 49  0     1  0  0  0  0  0999 V2000
   -1.5619    0.5658    3.7981 C   0  0  0  0  0  0  0  0  0  0  0  0
   -0.6145   -0.0489    3.3224 O   0  0  0  0  0  0  0  0  0  0  0  0
   -1.9938    0.2834    5.1988 C   0  0  0  0  0  0  0  0  0  0  0  0
   -2.7535   -0.5129    5.2522 H   0  0  0  0  0  0  0  0  0  0  0  0
   -1.1626   -0.0642    5.8331 H   0  0  0  0  0  0  0  0  0  0  0  0
   -2.4318    1.1383    5.7384 H   0  0  0  0  0  0  0  0  0  0  0  0
   -2.3116    1.5383    3.1570 N   0  0  0  0  0  0  0  0  0  0  0  0
   -2.0648    1.9643    1.8046 C   0  0  2  0  0  0  0  0  0  0  0  0
   -0.7298    1.3789    1.3634 C   0  0  0  0  0  0  0  0  0  0  0  0
    0.1423    1.0262    2.1547 O   0  0  0  0  0  0  0  0  0  0  0  0
   -2.0560    3.4811    1.6952 C   0  0  0  0  0  0  0  0  0  0  0  0
   -3.0767    1.9741    3.6688 H   0  0  0  0  0  0  0  0  0  0  0  0
   -2.8689    1.5458    1.1895 H   0  0  0  0  0  0  0  0  0  0  0  0
   -1.2569    3.9183    2.3049 H   0  0  0  0  0  0  0  0  0  0  0  0
   -1.8965    3.8033    0.6609 H   0  0  0  0  0  0  0  0  0  0  0  0
   -3.0062    3.9023    2.0409 H   0  0  0  0  0  0  0  0  0  0  0  0
   -0.6071    1.3358   -0.0200 N   0  0  0  0  0  0  0  0  0  0  0  0
    0.5702    0.8350   -0.6836 C   0  0  2  0  0  0  0  0  0  0  0  0
    0.7476   -0.6166   -0.2530 C   0  0  0  0  0  0  0  0  0  0  0  0
    0.0741   -1.5374   -0.7106 O   0  0  0  0  0  0  0  0  0  0  0  0
    1.8212    1.6504   -0.3371 C   0  0  0  0  0  0  0  0  0  0  0  0
    1.7376    3.0793   -0.8155 C   0  0  0  0  0  0  0  0  0  0  0  0
    1.8871    3.4293   -2.1279 N   0  0  0  0  0  0  0  0  0  0  0  0
    1.5180    4.2664   -0.1574 C   0  0  0  0  0  0  0  0  0  0  0  0
    1.7550    4.7878   -2.2074 C   0  0  0  0  0  0  0  0  0  0  0  0
    1.5297    5.3261   -1.0295 N   0  0  0  0  0  0  0  0  0  0  0  0
   -1.3903    1.6325   -0.5973 H   0  0  0  0  0  0  0  0  0  0  0  0
    0.3600    0.8671   -1.7592 H   0  0  0  0  0  0  0  0  0  0  0  0
    2.7159    1.1718   -0.7578 H   0  0  0  0  0  0  0  0  0  0  0  0
    1.9839    1.6604    0.7488 H   0  0  0  0  0  0  0  0  0  0  0  0
    2.0645    2.8013   -2.9008 H   0  0  0  0  0  0  0  0  0  0  0  0
    1.3516    4.4146    0.9001 H   0  0  0  0  0  0  0  0  0  0  0  0
    1.8330    5.3183   -3.1457 H   0  0  0  0  0  0  0  0  0  0  0  0
    1.7793   -0.7642    0.6637 N   0  0  0  0  0  0  0  0  0  0  0  0
    2.1728   -2.0401    1.2169 C   0  0  2  0  0  0  0  0  0  0  0  0
    0.9194   -2.7374    1.7290 C   0  0  0  0  0  0  0  0  0  0  0  0
   -0.1093   -2.1343    2.0274 O   0  0  0  0  0  0  0  0  0  0  0  0
    3.1933   -1.8689    2.3313 C   0  0  0  0  0  0  0  0  0  0  0  0
    2.2831    0.0663    0.9607 H   0  0  0  0  0  0  0  0  0  0  0  0
    2.6049   -2.6214    0.3951 H   0  0  0  0  0  0  0  0  0  0  0  0
    2.7784   -1.2889    3.1637 H   0  0  0  0  0  0  0  0  0  0  0  0
    3.5118   -2.8378    2.7300 H   0  0  0  0  0  0  0  0  0  0  0  0
    4.0817   -1.3408    1.9685 H   0  0  0  0  0  0  0  0  0  0  0  0
    1.0990   -4.1079    1.8545 N   0  0  0  0  0  0  0  0  0  0  0  0
    0.0600   -4.9897    2.3329 C   0  0  0  0  0  0  0  0  0  0  0  0
    1.9790   -4.5250    1.5658 H   0  0  0  0  0  0  0  0  0  0  0  0
    0.1588   -5.1171    3.4211 H   0  0  0  0  0  0  0  0  0  0  0  0
   -0.9241   -4.5556    2.1026 H   0  0  0  0  0  0  0  0  0  0  0  0
    0.1537   -5.9683    1.8393 H   0  0  0  0  0  0  0  0  0  0  0  0
 22 24  2  0  0  0  0
 24 26  1  0  0  0  0
 25 26  2  0  0  0  0
 23 25  1  0  0  0  0
 21 22  1  0  0  0  0
 22 23  1  0  0  0  0
  1  3  1  0  0  0  0
  1  7  1  0  0  0  0
  1  2  2  0  0  0  0
 35 36  1  0  0  0  0
 36 44  1  0  0  0  0
 36 37  2  0  0  0  0
  8  9  1  0  0  0  0
  9 17  1  0  0  0  0
  9 10  2  0  0  0  0
 18 19  1  0  0  0  0
 19 34  1  0  0  0  0
 19 20  2  0  0  0  0
 35 38  1  0  0  0  0
  8 11  1  0  0  0  0
 44 45  1  0  0  0  0
 18 21  1  0  0  0  0
 34 35  1  0  0  0  0
  7  8  1  0  0  0  0
 17 18  1  0  0  0  0
 24 32  1  0  0  0  0
 25 33  1  0  0  0  0
  3  4  1  0  0  0  0
  3  5  1  0  0  0  0
  3  6  1  0  0  0  0
 38 41  1  0  0  0  0
 38 42  1  0  0  0  0
 38 43  1  0  0  0  0
 11 14  1  0  0  0  0
 11 15  1  0  0  0  0
 11 16  1  0  0  0  0
 45 47  1  0  0  0  0
 45 48  1  0  0  0  0
 45 49  1  0  0  0  0
 21 29  1  0  0  0  0
 21 30  1  0  0  0  0
 35 40  1  0  0  0  0
  8 13  1  0  0  0  0
 18 28  1  0  0  0  0
 23 31  1  0  0  0  0
 44 46  1  0  0  0  0
  7 12  1  0  0  0  0
 34 39  1  0  0  0  0
 17 27  1  0  0  0  0
M  END
$$$$

  -OEChem-05262214473D

 49 49  0     1  0  0  0  0  0999 V2000
   -1.5619    0.5658    3.7981 C   0  0  0  0  0  0  0  0  0  0  0  0
   -0.6145   -0.0489    3.3224 O   0  0  0  0  0  0  0  0  0  0  0  0
   -1.9938    0.2834    5.1988 C   0  0  0  0  0  0  0  0  0  0  0  0
   -2.7535   -0.5129    5.2522 H   0  0  0  0  0  0  0  0  0  0  0  0
   -1.1626   -0.0642    5.8331 H   0  0  0  0  0  0  0  0  0  0  0  0
   -2.4318    1.1383    5.7384 H   0  0  0  0  0  0  0  0  0  0  0  0
   -2.3116    1.5383    3.1570 N   0  0  0  0  0  0  0  0  0  0  0  0
   -2.0648    1.9643    1.8046 C   0  0  2  0  0  0  0  0  0  0  0  0
   -0.7298    1.3789    1.3634 C   0  0  0  0  0  0  0  0  0  0  0  0
    0.1423    1.0262    2.1547 O   0  0  0  0  0  0  0  0  0  0  0  0
   -2.0560    3.4811    1.6952 C   0  0  0  0  0  0  0  0  0  0  0  0
   -3.0767    1.9741    3.6688 H   0  0  0  0  0  0  0  0  0  0  0  0
   -2.8689    1.5458    1.1895 H   0  0  0  0  0  0  0  0  0  0  0  0
   -1.2569    3.9183    2.3049 H   0  0  0  0  0  0  0  0  0  0  0  0
   -1.8965    3.8033    0.6609 H   0  0  0  0  0  0  0  0  0  0  0  0
   -3.0062    3.9023    2.0409 H   0  0  0  0  0  0  0  0  0  0  0  0
   -0.6071    1.3358   -0.0200 N   0  0  0  0  0  0  0  0  0  0  0  0
    0.5702    0.8350   -0.6836 C   0  0  2  0  0  0  0  0  0  0  0  0
    0.7476   -0.6166   -0.2530 C   0  0  0  0  0  0  0  0  0  0  0  0
    0.2798   -1.5632   -0.8822 O   0  0  0  0  0  0  0  0  0  0  0  0
    1.8212    1.6504   -0.3371 C   0  0  0  0  0  0  0  0  0  0  0  0
    1.7376    3.0793   -0.8155 C   0  0  0  0  0  0  0  0  0  0  0  0
    1.8871    3.4293   -2.1279 N   0  0  0  0  0  0  0  0  0  0  0  0
    1.5180    4.2664   -0.1574 C   0  0  0  0  0  0  0  0  0  0  0  0
    1.7550    4.7878   -2.2074 C   0  0  0  0  0  0  0  0  0  0  0  0
    1.5297    5.3261   -1.0295 N   0  0  0  0  0  0  0  0  0  0  0  0
   -1.3903    1.6325   -0.5973 H   0  0  0  0  0  0  0  0  0  0  0  0
    0.3600    0.8671   -1.7592 H   0  0  0  0  0  0  0  0  0  0  0  0
    2.7159    1.1718   -0.7578 H   0  0  0  0  0  0  0  0  0  0  0  0
    1.9839    1.6604    0.7488 H   0  0  0  0  0  0  0  0  0  0  0  0
    2.0645    2.8013   -2.9008 H   0  0  0  0  0  0  0  0  0  0  0  0
    1.3516    4.4146    0.9001 H   0  0  0  0  0  0  0  0  0  0  0  0
    1.8330    5.3183   -3.1457 H   0  0  0  0  0  0  0  0  0  0  0  0
    1.5310   -0.7282    0.8873 N   0  0  0  0  0  0  0  0  0  0  0  0
    1.8738   -1.9945    1.4938 C   0  0  2  0  0  0  0  0  0  0  0  0
    0.5905   -2.7966    1.6649 C   0  0  0  0  0  0  0  0  0  0  0  0
   -0.5232   -2.2784    1.7120 O   0  0  0  0  0  0  0  0  0  0  0  0
    2.5734   -1.7969    2.8295 C   0  0  0  0  0  0  0  0  0  0  0  0
    1.8812    0.1229    1.3171 H   0  0  0  0  0  0  0  0  0  0  0  0
    2.5376   -2.5117    0.7925 H   0  0  0  0  0  0  0  0  0  0  0  0
    1.9237   -1.2802    3.5453 H   0  0  0  0  0  0  0  0  0  0  0  0
    2.8579   -2.7562    3.2742 H   0  0  0  0  0  0  0  0  0  0  0  0
    3.4804   -1.1946    2.7091 H   0  0  0  0  0  0  0  0  0  0  0  0
    0.8386   -4.1552    1.8022 N   0  0  0  0  0  0  0  0  0  0  0  0
   -0.2150   -5.1251    1.9900 C   0  0  0  0  0  0  0  0  0  0  0  0
    1.7919   -4.4987    1.7317 H   0  0  0  0  0  0  0  0  0  0  0  0
   -0.3767   -5.2880    3.0658 H   0  0  0  0  0  0  0  0  0  0  0  0
   -1.1429   -4.7515    1.5324 H   0  0  0  0  0  0  0  0  0  0  0  0
    0.0719   -6.0746    1.5145 H   0  0  0  0  0  0  0  0  0  0  0  0
 22 24  2  0  0  0  0
 24 26  1  0  0  0  0
 25 26  2  0  0  0  0
 23 25  1  0  0  0  0
 21 22  1  0  0  0  0
 22 23  1  0  0  0  0
  1  3  1  0  0  0  0
  1  7  1  0  0  0  0
  1  2  2  0  0  0  0
 35 36  1  0  0  0  0
 36 44  1  0  0  0  0
 36 37  2  0  0  0  0
  8  9  1  0  0  0  0
  9 17  1  0  0  0  0
  9 10  2  0  0  0  0
 18 19  1  0  0  0  0
 19 34  1  0  0  0  0
 19 20  2  0  0  0  0
 35 38  1  0  0  0  0
  8 11  1  0  0  0  0
 44 45  1  0  0  0  0
 18 21  1  0  0  0  0
 34 35  1  0  0  0  0
  7  8  1  0  0  0  0
 17 18  1  0  0  0  0
 24 32  1  0  0  0  0
 25 33  1  0  0  0  0
  3  4  1  0  0  0  0
  3  5  1  0  0  0  0
  3  6  1  0  0  0  0
 38 41  1  0  0  0  0
 38 42  1  0  0  0  0
 38 43  1  0  0  0  0
 11 14  1  0  0  0  0
 11 15  1  0  0  0  0
 11 16  1  0  0  0  0
 45 47  1  0  0  0  0
 45 48  1  0  0  0  0
 45 49  1  0  0  0  0
 21 29  1  0  0  0  0
 21 30  1  0  0  0  0
 35 40  1  0  0  0  0
  8 13  1  0  0  0  0
 18 28  1  0  0  0  0
 23 31  1  0  0  0  0
 44 46  1  0  0  0  0
  7 12  1  0  0  0  0
 34 39  1  0  0  0  0
 17 27  1  0  0  0  0
M  END
$$$$

  -OEChem-05262214473D

 49 49  0     1  0  0  0  0  0999 V2000
   -1.5619    0.5658    3.7981 C   0  0  0  0  0  0  0  0  0  0  0  0
   -0.6145   -0.0489    3.3224 O   0  0  0  0  0  0  0  0  0  0  0  0
   -1.9938    0.2834    5.1988 C   0  0  0  0  0  0  0  0  0  0  0  0
   -2.7535   -0.5129    5.2522 H   0  0  0  0  0  0  0  0  0  0  0  0
   -1.1626   -0.0642    5.8331 H   0  0  0  0  0  0  0  0  0  0  0  0
   -2.4318    1.1383    5.7384 H   0  0  0  0  0  0  0  0  0  0  0  0
   -2.3116    1.5383    3.1570 N   0  0  0  0  0  0  0  0  0  0  0  0
   -2.0648    1.9643    1.8046 C   0  0  2  0  0  0  0  0  0  0  0  0
   -0.7298    1.3789    1.3634 C   0  0  0  0  0  0  0  0  0  0  0  0
    0.1423    1.0262    2.1547 O   0  0  0  0  0  0  0  0  0  0  0  0
   -2.0560    3.4811    1.6952 C   0  0  0  0  0  0  0  0  0  0  0  0
   -3.0767    1.9741    3.6688 H   0  0  0  0  0  0  0  0  0  0  0  0
   -2.8689    1.5458    1.1895 H   0  0  0  0  0  0  0  0  0  0  0  0
   -1.2569    3.9183    2.3049 H   0  0  0  0  0  0  0  0  0  0  0  0
   -1.8965    3.8033    0.6609 H   0  0  0  0  0  0  0  0  0  0  0  0
   -3.0062    3.9023    2.0409 H   0  0  0  0  0  0  0  0  0  0  0  0
   -0.6071    1.3358   -0.0200 N   0  0  0  0  0  0  0  0  0  0  0  0
    0.5702    0.8350   -0.6836 C   0  0  2  0  0  0  0  0  0  0  0  0
    0.7476   -0.6166   -0.2530 C   0  0  0  0  0  0  0  0  0  0  0  0
    0.5227   -1.5679   -0.9982 O   0  0  0  0  0  0  0  0  0  0  0  0
    1.8212    1.6504   -0.3371 C   0  0  0  0  0  0  0  0  0  0  0  0
    1.7376    3.0793   -0.8155 C   0  0  0  0  0  0  0  0  0  0  0  0
    1.8871    3.4293   -2.1279 N   0  0  0  0  0  0  0  0  0  0  0  0
    1.5180    4.2664   -0.1574 C   0  0  0  0  0  0  0  0  0  0  0  0
    1.7550    4.7878   -2.2074 C   0  0  0  0  0  0  0  0  0  0  0  0
    1.5297    5.3261   -1.0295 N   0  0  0  0  0  0  0  0  0  0  0  0
   -1.3903    1.6325   -0.5973 H   0  0  0  0  0  0  0  0  0  0  0  0
    0.3600    0.8671   -1.7592 H   0  0  0  0  0  0  0  0  0  0  0  0
    2.7159    1.1718   -0.7578 H   0  0  0  0  0  0  0  0  0  0  0  0
    1.9839    1.6604    0.7488 H   0  0  0  0  0  0  0  0  0  0  0  0
    2.0645    2.8013   -2.9008 H   0  0  0  0  0  0  0  0  0  0  0  0
    1.3516    4.4146    0.9001 H   0  0  0  0  0  0  0  0  0  0  0  0
    1.8330    5.3183   -3.1457 H   0  0  0  0  0  0  0  0  0  0  0  0
    1.2336   -0.7183    1.0432 N   0  0  0  0  0  0  0  0  0  0  0  0
    1.5133   -1.9806    1.6890 C   0  0  2  0  0  0  0  0  0  0  0  0
    0.2929   -2.8759    1.5202 C   0  0  0  0  0  0  0  0  0  0  0  0
   -0.8348   -2.4385    1.3009 O   0  0  0  0  0  0  0  0  0  0  0  0
    1.8466   -1.7876    3.1602 C   0  0  0  0  0  0  0  0  0  0  0  0
    1.4010    0.1375    1.5640 H   0  0  0  0  0  0  0  0  0  0  0  0
    2.3667   -2.4226    1.1632 H   0  0  0  0  0  0  0  0  0  0  0  0
    1.0034   -1.3457    3.7034 H   0  0  0  0  0  0  0  0  0  0  0  0
    2.0862   -2.7417    3.6412 H   0  0  0  0  0  0  0  0  0  0  0  0
    2.7063   -1.1196    3.2806 H   0  0  0  0  0  0  0  0  0  0  0  0
    0.6034   -4.2184    1.6862 N   0  0  0  0  0  0  0  0  0  0  0  0
   -0.3862   -5.2656    1.5869 C   0  0  0  0  0  0  0  0  0  0  0  0
    1.5684   -4.4919    1.8467 H   0  0  0  0  0  0  0  0  0  0  0  0
   -0.7938   -5.4815    2.5855 H   0  0  0  0  0  0  0  0  0  0  0  0
   -1.1994   -4.9396    0.9217 H   0  0  0  0  0  0  0  0  0  0  0  0
    0.0807   -6.1736    1.1775 H   0  0  0  0  0  0  0  0  0  0  0  0
 22 24  2  0  0  0  0
 24 26  1  0  0  0  0
 25 26  2  0  0  0  0
 23 25  1  0  0  0  0
 21 22  1  0  0  0  0
 22 23  1  0  0  0  0
  1  3  1  0  0  0  0
  1  7  1  0  0  0  0
  1  2  2  0  0  0  0
 35 36  1  0  0  0  0
 36 44  1  0  0  0  0
 36 37  2  0  0  0  0
  8  9  1  0  0  0  0
  9 17  1  0  0  0  0
  9 10  2  0  0  0  0
 18 19  1  0  0  0  0
 19 34  1  0  0  0  0
 19 20  2  0  0  0  0
 35 38  1  0  0  0  0
  8 11  1  0  0  0  0
 44 45  1  0  0  0  0
 18 21  1  0  0  0  0
 34 35  1  0  0  0  0
  7  8  1  0  0  0  0
 17 18  1  0  0  0  0
 24 32  1  0  0  0  0
 25 33  1  0  0  0  0
  3  4  1  0  0  0  0
  3  5  1  0  0  0  0
  3  6  1  0  0  0  0
 38 41  1  0  0  0  0
 38 42  1  0  0  0  0
 38 43  1  0  0  0  0
 11 14  1  0  0  0  0
 11 15  1  0  0  0  0
 11 16  1  0  0  0  0
 45 47  1  0  0  0  0
 45 48  1  0  0  0  0
 45 49  1  0  0  0  0
 21 29  1  0  0  0  0
 21 30  1  0  0  0  0
 35 40  1  0  0  0  0
  8 13  1  0  0  0  0
 18 28  1  0  0  0  0
 23 31  1  0  0  0  0
 44 46  1  0  0  0  0
  7 12  1  0  0  0  0
 34 39  1  0  0  0  0
 17 27  1  0  0  0  0
M  END
$$$$

  -OEChem-05262214473D

 49 49  0     1  0  0  0  0  0999 V2000
   -1.5619    0.5658    3.7981 C   0  0  0  0  0  0  0  0  0  0  0  0
   -0.6145   -0.0489    3.3224 O   0  0  0  0  0  0  0  0  0  0  0  0
   -1.9938    0.2834    5.1988 C   0  0  0  0  0  0  0  0  0  0  0  0
   -2.7535   -0.5129    5.2522 H   0  0  0  0  0  0  0  0  0  0  0  0
   -1.1626   -0.0642    5.8331 H   0  0  0  0  0  0  0  0  0  0  0  0
   -2.4318    1.1383    5.7384 H   0  0  0  0  0  0  0  0  0  0  0  0
   -2.3116    1.5383    3.1570 N   0  0  0  0  0  0  0  0  0  0  0  0
   -2.0648    1.9643    1.8046 C   0  0  2  0  0  0  0  0  0  0  0  0
   -0.7298    1.3789    1.3634 C   0  0  0  0  0  0  0  0  0  0  0  0
    0.1423    1.0262    2.1547 O   0  0  0  0  0  0  0  0  0  0  0  0
   -2.0560    3.4811    1.6952 C   0  0  0  0  0  0  0  0  0  0  0  0
   -3.0767    1.9741    3.6688 H   0  0  0  0  0  0  0  0  0  0  0  0
   -2.8689    1.5458    1.1895 H   0  0  0  0  0  0  0  0  0  0  0  0
   -1.2569    3.9183    2.3049 H   0  0  0  0  0  0  0  0  0  0  0  0
   -1.8965    3.8033    0.6609 H   0  0  0  0  0  0  0  0  0  0  0  0
   -3.0062    3.9023    2.0409 H   0  0  0  0  0  0  0  0  0  0  0  0
   -0.6071    1.3358   -0.0200 N   0  0  0  0  0  0  0  0  0  0  0  0
    0.5702    0.8350   -0.6836 C   0  0  2  0  0  0  0  0  0  0  0  0
    0.7476   -0.6166   -0.2530 C   0  0  0  0  0  0  0  0  0  0  0  0
    0.7862   -1.5512   -1.0504 O   0  0  0  0  0  0  0  0  0  0  0  0
    1.8212    1.6504   -0.3371 C   0  0  0  0  0  0  0  0  0  0  0  0
    1.7376    3.0793   -0.8155 C   0  0  0  0  0  0  0  0  0  0  0  0
    1.8871    3.4293   -2.1279 N   0  0  0  0  0  0  0  0  0  0  0  0
    1.5180    4.2664   -0.1574 C   0  0  0  0  0  0  0  0  0  0  0  0
    1.7550    4.7878   -2.2074 C   0  0  0  0  0  0  0  0  0  0  0  0
    1.5297    5.3261   -1.0295 N   0  0  0  0  0  0  0  0  0  0  0  0
   -1.3903    1.6325   -0.5973 H   0  0  0  0  0  0  0  0  0  0  0  0
    0.3600    0.8671   -1.7592 H   0  0  0  0  0  0  0  0  0  0  0  0
    2.7159    1.1718   -0.7578 H   0  0  0  0  0  0  0  0  0  0  0  0
    1.9839    1.6604    0.7488 H   0  0  0  0  0  0  0  0  0  0  0  0
    2.0645    2.8013   -2.9008 H   0  0  0  0  0  0  0  0  0  0  0  0
    1.3516    4.4146    0.9001 H   0  0  0  0  0  0  0  0  0  0  0  0
    1.8330    5.3183   -3.1457 H   0  0  0  0  0  0  0  0  0  0  0  0
    0.9071   -0.7352    1.1207 N   0  0  0  0  0  0  0  0  0  0  0  0
    1.1161   -1.9995    1.7891 C   0  0  2  0  0  0  0  0  0  0  0  0
    0.0469   -2.9699    1.3047 C   0  0  0  0  0  0  0  0  0  0  0  0
   -1.0227   -2.6034    0.8223 O   0  0  0  0  0  0  0  0  0  0  0  0
    1.0624   -1.8418    3.3007 C   0  0  0  0  0  0  0  0  0  0  0  0
    0.8753    0.1090    1.6846 H   0  0  0  0  0  0  0  0  0  0  0  0
    2.1037   -2.3602    1.4818 H   0  0  0  0  0  0  0  0  0  0  0  0
    0.0802   -1.4811    3.6274 H   0  0  0  0  0  0  0  0  0  0  0  0
    1.2492   -2.7951    3.8060 H   0  0  0  0  0  0  0  0  0  0  0  0
    1.8123   -1.1210    3.6442 H   0  0  0  0  0  0  0  0  0  0  0  0
    0.4095   -4.2931    1.5142 N   0  0  0  0  0  0  0  0  0  0  0  0
   -0.4420   -5.4017    1.1511 C   0  0  0  0  0  0  0  0  0  0  0  0
    1.3237   -4.5051    1.9029 H   0  0  0  0  0  0  0  0  0  0  0  0
   -1.0643   -5.6844    2.0130 H   0  0  0  0  0  0  0  0  0  0  0  0
   -1.0897   -5.1070    0.3123 H   0  0  0  0  0  0  0  0  0  0  0  0
    0.1795   -6.2583    0.8511 H   0  0  0  0  0  0  0  0  0  0  0  0
 22 24  2  0  0  0  0
 24 26  1  0  0  0  0
 25 26  2  0  0  0  0
 23 25  1  0  0  0  0
 21 22  1  0  0  0  0
 22 23  1  0  0  0  0
  1  3  1  0  0  0  0
  1  7  1  0  0  0  0
  1  2  2  0  0  0  0
 35 36  1  0  0  0  0
 36 44  1  0  0  0  0
 36 37  2  0  0  0  0
  8  9  1  0  0  0  0
  9 17  1  0  0  0  0
  9 10  2  0  0  0  0
 18 19  1  0  0  0  0
 19 34  1  0  0  0  0
 19 20  2  0  0  0  0
 35 38  1  0  0  0  0
  8 11  1  0  0  0  0
 44 45  1  0  0  0  0
 18 21  1  0  0  0  0
 34 35  1  0  0  0  0
  7  8  1  0  0  0  0
 17 18  1  0  0  0  0
 24 32  1  0  0  0  0
 25 33  1  0  0  0  0
  3  4  1  0  0  0  0
  3  5  1  0  0  0  0
  3  6  1  0  0  0  0
 38 41  1  0  0  0  0
 38 42  1  0  0  0  0
 38 43  1  0  0  0  0
 11 14  1  0  0  0  0
 11 15  1  0  0  0  0
 11 16  1  0  0  0  0
 45 47  1  0  0  0  0
 45 48  1  0  0  0  0
 45 49  1  0  0  0  0
 21 29  1  0  0  0  0
 21 30  1  0  0  0  0
 35 40  1  0  0  0  0
  8 13  1  0  0  0  0
 18 28  1  0  0  0  0
 23 31  1  0  0  0  0
 44 46  1  0  0  0  0
  7 12  1  0  0  0  0
 34 39  1  0  0  0  0
 17 27  1  0  0  0  0
M  END
$$$$

  -OEChem-05262214473D

 49 49  0     1  0  0  0  0  0999 V2000
   -1.5619    0.5658    3.7981 C   0  0  0  0  0  0  0  0  0  0  0  0
   -0.6145   -0.0489    3.3224 O   0  0  0  0  0  0  0  0  0  0  0  0
   -1.9938    0.2834    5.1988 C   0  0  0  0  0  0  0  0  0  0  0  0
   -2.7535   -0.5129    5.2522 H   0  0  0  0  0  0  0  0  0  0  0  0
   -1.1626   -0.0642    5.8331 H   0  0  0  0  0  0  0  0  0  0  0  0
   -2.4318    1.1383    5.7384 H   0  0  0  0  0  0  0  0  0  0  0  0
   -2.3116    1.5383    3.1570 N   0  0  0  0  0  0  0  0  0  0  0  0
   -2.0648    1.9643    1.8046 C   0  0  2  0  0  0  0  0  0  0  0  0
   -0.7298    1.3789    1.3634 C   0  0  0  0  0  0  0  0  0  0  0  0
    0.1423    1.0262    2.1547 O   0  0  0  0  0  0  0  0  0  0  0  0
   -2.0560    3.4811    1.6952 C   0  0  0  0  0  0  0  0  0  0  0  0
   -3.0767    1.9741    3.6688 H   0  0  0  0  0  0  0  0  0  0  0  0
   -2.8689    1.5458    1.1895 H   0  0  0  0  0  0  0  0  0  0  0  0
   -1.2569    3.9183    2.3049 H   0  0  0  0  0  0  0  0  0  0  0  0
   -1.8965    3.8033    0.6609 H   0  0  0  0  0  0  0  0  0  0  0  0
   -3.0062    3.9023    2.0409 H   0  0  0  0  0  0  0  0  0  0  0  0
   -0.6071    1.3358   -0.0200 N   0  0  0  0  0  0  0  0  0  0  0  0
    0.5702    0.8350   -0.6836 C   0  0  2  0  0  0  0  0  0  0  0  0
    0.7476   -0.6166   -0.2530 C   0  0  0  0  0  0  0  0  0  0  0  0
    1.0524   -1.5142   -1.0354 O   0  0  0  0  0  0  0  0  0  0  0  0
    1.8212    1.6504   -0.3371 C   0  0  0  0  0  0  0  0  0  0  0  0
    1.7376    3.0793   -0.8155 C   0  0  0  0  0  0  0  0  0  0  0  0
    1.8871    3.4293   -2.1279 N   0  0  0  0  0  0  0  0  0  0  0  0
    1.5180    4.2664   -0.1574 C   0  0  0  0  0  0  0  0  0  0  0  0
    1.7550    4.7878   -2.2074 C   0  0  0  0  0  0  0  0  0  0  0  0
    1.5297    5.3261   -1.0295 N   0  0  0  0  0  0  0  0  0  0  0  0
   -1.3903    1.6325   -0.5973 H   0  0  0  0  0  0  0  0  0  0  0  0
    0.3600    0.8671   -1.7592 H   0  0  0  0  0  0  0  0  0  0  0  0
    2.7159    1.1718   -0.7578 H   0  0  0  0  0  0  0  0  0  0  0  0
    1.9839    1.6604    0.7488 H   0  0  0  0  0  0  0  0  0  0  0  0
    2.0645    2.8013   -2.9008 H   0  0  0  0  0  0  0  0  0  0  0  0
    1.3516    4.4146    0.9001 H   0  0  0  0  0  0  0  0  0  0  0  0
    1.8330    5.3183   -3.1457 H   0  0  0  0  0  0  0  0  0  0  0  0
    0.5739   -0.7778    1.1146 N   0  0  0  0  0  0  0  0  0  0  0  0
    0.7091   -2.0498    1.7873 C   0  0  2  0  0  0  0  0  0  0  0  0
   -0.1307   -3.0722    1.0331 C   0  0  0  0  0  0  0  0  0  0  0  0
   -1.0742   -2.7621    0.3087 O   0  0  0  0  0  0  0  0  0  0  0  0
    0.2742   -1.9556    3.2415 C   0  0  0  0  0  0  0  0  0  0  0  0
    0.3399    0.0394    1.6707 H   0  0  0  0  0  0  0  0  0  0  0  0
    1.7666   -2.3288    1.7266 H   0  0  0  0  0  0  0  0  0  0  0  0
   -0.7828   -1.6771    3.3224 H   0  0  0  0  0  0  0  0  0  0  0  0
    0.4041   -2.9128    3.7572 H   0  0  0  0  0  0  0  0  0  0  0  0
    0.8592   -1.1987    3.7750 H   0  0  0  0  0  0  0  0  0  0  0  0
    0.2700   -4.3743    1.2981 N   0  0  0  0  0  0  0  0  0  0  0  0
   -0.3785   -5.5241    0.7123 C   0  0  0  0  0  0  0  0  0  0  0  0
    1.0745   -4.5375    1.8964 H   0  0  0  0  0  0  0  0  0  0  0  0
   -1.1696   -5.8829    1.3872 H   0  0  0  0  0  0  0  0  0  0  0  0
   -0.8213   -5.2423   -0.2543 H   0  0  0  0  0  0  0  0  0  0  0  0
    0.3615   -6.3231    0.5576 H   0  0  0  0  0  0  0  0  0  0  0  0
 22 24  2  0  0  0  0
 24 26  1  0  0  0  0
 25 26  2  0  0  0  0
 23 25  1  0  0  0  0
 21 22  1  0  0  0  0
 22 23  1  0  0  0  0
  1  3  1  0  0  0  0
  1  7  1  0  0  0  0
  1  2  2  0  0  0  0
 35 36  1  0  0  0  0
 36 44  1  0  0  0  0
 36 37  2  0  0  0  0
  8  9  1  0  0  0  0
  9 17  1  0  0  0  0
  9 10  2  0  0  0  0
 18 19  1  0  0  0  0
 19 34  1  0  0  0  0
 19 20  2  0  0  0  0
 35 38  1  0  0  0  0
  8 11  1  0  0  0  0
 44 45  1  0  0  0  0
 18 21  1  0  0  0  0
 34 35  1  0  0  0  0
  7  8  1  0  0  0  0
 17 18  1  0  0  0  0
 24 32  1  0  0  0  0
 25 33  1  0  0  0  0
  3  4  1  0  0  0  0
  3  5  1  0  0  0  0
  3  6  1  0  0  0  0
 38 41  1  0  0  0  0
 38 42  1  0  0  0  0
 38 43  1  0  0  0  0
 11 14  1  0  0  0  0
 11 15  1  0  0  0  0
 11 16  1  0  0  0  0
 45 47  1  0  0  0  0
 45 48  1  0  0  0  0
 45 49  1  0  0  0  0
 21 29  1  0  0  0  0
 21 30  1  0  0  0  0
 35 40  1  0  0  0  0
  8 13  1  0  0  0  0
 18 28  1  0  0  0  0
 23 31  1  0  0  0  0
 44 46  1  0  0  0  0
  7 12  1  0  0  0  0
 34 39  1  0  0  0  0
 17 27  1  0  0  0  0
M  END
$$$$

  -OEChem-05262214473D

 49 49  0     1  0  0  0  0  0999 V2000
   -1.5619    0.5658    3.7981 C   0  0  0  0  0  0  0  0  0  0  0  0
   -0.6145   -0.0489    3.3224 O   0  0  0  0  0  0  0  0  0  0  0  0
   -1.9938    0.2834    5.1988 C   0  0  0  0  0  0  0  0  0  0  0  0
   -2.7535   -0.5129    5.2522 H   0  0  0  0  0  0  0  0  0  0  0  0
   -1.1626   -0.0642    5.8331 H   0  0  0  0  0  0  0  0  0  0  0  0
   -2.4318    1.1383    5.7384 H   0  0  0  0  0  0  0  0  0  0  0  0
   -2.3116    1.5383    3.1570 N   0  0  0  0  0  0  0  0  0  0  0  0
   -2.0648    1.9643    1.8046 C   0  0  2  0  0  0  0  0  0  0  0  0
   -0.7298    1.3789    1.3634 C   0  0  0  0  0  0  0  0  0  0  0  0
    0.1423    1.0262    2.1547 O   0  0  0  0  0  0  0  0  0  0  0  0
   -2.0560    3.4811    1.6952 C   0  0  0  0  0  0  0  0  0  0  0  0
   -3.0767    1.9741    3.6688 H   0  0  0  0  0  0  0  0  0  0  0  0
   -2.8689    1.5458    1.1895 H   0  0  0  0  0  0  0  0  0  0  0  0
   -1.2569    3.9183    2.3049 H   0  0  0  0  0  0  0  0  0  0  0  0
   -1.8965    3.8033    0.6609 H   0  0  0  0  0  0  0  0  0  0  0  0
   -3.0062    3.9023    2.0409 H   0  0  0  0  0  0  0  0  0  0  0  0
   -0.6071    1.3358   -0.0200 N   0  0  0  0  0  0  0  0  0  0  0  0
    0.5702    0.8350   -0.6836 C   0  0  2  0  0  0  0  0  0  0  0  0
    0.7476   -0.6166   -0.2530 C   0  0  0  0  0  0  0  0  0  0  0  0
    1.3031   -1.4595   -0.9543 O   0  0  0  0  0  0  0  0  0  0  0  0
    1.8212    1.6504   -0.3371 C   0  0  0  0  0  0  0  0  0  0  0  0
    1.7376    3.0793   -0.8155 C   0  0  0  0  0  0  0  0  0  0  0  0
    1.8871    3.4293   -2.1279 N   0  0  0  0  0  0  0  0  0  0  0  0
    1.5180    4.2664   -0.1574 C   0  0  0  0  0  0  0  0  0  0  0  0
    1.7550    4.7878   -2.2074 C   0  0  0  0  0  0  0  0  0  0  0  0
    1.5297    5.3261   -1.0295 N   0  0  0  0  0  0  0  0  0  0  0  0
   -1.3903    1.6325   -0.5973 H   0  0  0  0  0  0  0  0  0  0  0  0
    0.3600    0.8671   -1.7592 H   0  0  0  0  0  0  0  0  0  0  0  0
    2.7159    1.1718   -0.7578 H   0  0  0  0  0  0  0  0  0  0  0  0
    1.9839    1.6604    0.7488 H   0  0  0  0  0  0  0  0  0  0  0  0
    2.0645    2.8013   -2.9008 H   0  0  0  0  0  0  0  0  0  0  0  0
    1.3516    4.4146    0.9001 H   0  0  0  0  0  0  0  0  0  0  0  0
    1.8330    5.3183   -3.1457 H   0  0  0  0  0  0  0  0  0  0  0  0
    0.2566   -0.8430    1.0254 N   0  0  0  0  0  0  0  0  0  0  0  0
    0.3200   -2.1280    1.6838 C   0  0  2  0  0  0  0  0  0  0  0  0
   -0.2279   -3.1758    0.7239 C   0  0  0  0  0  0  0  0  0  0  0  0
   -0.9858   -2.9037   -0.2049 O   0  0  0  0  0  0  0  0  0  0  0  0
   -0.4642   -2.1215    2.9867 C   0  0  0  0  0  0  0  0  0  0  0  0
   -0.1687   -0.0665    1.5232 H   0  0  0  0  0  0  0  0  0  0  0  0
    1.3784   -2.3305    1.8809 H   0  0  0  0  0  0  0  0  0  0  0  0
   -1.5270   -1.9203    2.8092 H   0  0  0  0  0  0  0  0  0  0  0  0
   -0.3916   -3.0869    3.4984 H   0  0  0  0  0  0  0  0  0  0  0  0
   -0.0880   -1.3473    3.6642 H   0  0  0  0  0  0  0  0  0  0  0  0
    0.1945   -4.4564    1.0525 N   0  0  0  0  0  0  0  0  0  0  0  0
   -0.2001   -5.6245    0.3005 C   0  0  0  0  0  0  0  0  0  0  0  0
    0.8377   -4.5868    1.8278 H   0  0  0  0  0  0  0  0  0  0  0  0
   -1.1026   -6.0635    0.7508 H   0  0  0  0  0  0  0  0  0  0  0  0
   -0.4126   -5.3363   -0.7396 H   0  0  0  0  0  0  0  0  0  0  0  0
    0.6144   -6.3636    0.3171 H   0  0  0  0  0  0  0  0  0  0  0  0
 22 24  2  0  0  0  0
 24 26  1  0  0  0  0
 25 26  2  0  0  0  0
 23 25  1  0  0  0  0
 21 22  1  0  0  0  0
 22 23  1  0  0  0  0
  1  3  1  0  0  0  0
  1  7  1  0  0  0  0
  1  2  2  0  0  0  0
 35 36  1  0  0  0  0
 36 44  1  0  0  0  0
 36 37  2  0  0  0  0
  8  9  1  0  0  0  0
  9 17  1  0  0  0  0
  9 10  2  0  0  0  0
 18 19  1  0  0  0  0
 19 34  1  0  0  0  0
 19 20  2  0  0  0  0
 35 38  1  0  0  0  0
  8 11  1  0  0  0  0
 44 45  1  0  0  0  0
 18 21  1  0  0  0  0
 34 35  1  0  0  0  0
  7  8  1  0  0  0  0
 17 18  1  0  0  0  0
 24 32  1  0  0  0  0
 25 33  1  0  0  0  0
  3  4  1  0  0  0  0
  3  5  1  0  0  0  0
  3  6  1  0  0  0  0
 38 41  1  0  0  0  0
 38 42  1  0  0  0  0
 38 43  1  0  0  0  0
 11 14  1  0  0  0  0
 11 15  1  0  0  0  0
 11 16  1  0  0  0  0
 45 47  1  0  0  0  0
 45 48  1  0  0  0  0
 45 49  1  0  0  0  0
 21 29  1  0  0  0  0
 21 30  1  0  0  0  0
 35 40  1  0  0  0  0
  8 13  1  0  0  0  0
 18 28  1  0  0  0  0
 23 31  1  0  0  0  0
 44 46  1  0  0  0  0
  7 12  1  0  0  0  0
 34 39  1  0  0  0  0
 17 27  1  0  0  0  0
M  END
$$$$

  -OEChem-05262214473D

 49 49  0     1  0  0  0  0  0999 V2000
   -1.5619    0.5658    3.7981 C   0  0  0  0  0  0  0  0  0  0  0  0
   -0.6145   -0.0489    3.3224 O   0  0  0  0  0  0  0  0  0  0  0  0
   -1.9938    0.2834    5.1988 C   0  0  0  0  0  0  0  0  0  0  0  0
   -2.7535   -0.5129    5.2522 H   0  0  0  0  0  0  0  0  0  0  0  0
   -1.1626   -0.0642    5.8331 H   0  0  0  0  0  0  0  0  0  0  0  0
   -2.4318    1.1383    5.7384 H   0  0  0  0  0  0  0  0  0  0  0  0
   -2.3116    1.5383    3.1570 N   0  0  0  0  0  0  0  0  0  0  0  0
   -2.0648    1.9643    1.8046 C   0  0  2  0  0  0  0  0  0  0  0  0
   -0.7298    1.3789    1.3634 C   0  0  0  0  0  0  0  0  0  0  0  0
    0.1423    1.0262    2.1547 O   0  0  0  0  0  0  0  0  0  0  0  0
   -2.0560    3.4811    1.6952 C   0  0  0  0  0  0  0  0  0  0  0  0
   -3.0767    1.9741    3.6688 H   0  0  0  0  0  0  0  0  0  0  0  0
   -2.8689    1.5458    1.1895 H   0  0  0  0  0  0  0  0  0  0  0  0
   -1.2569    3.9183    2.3049 H   0  0  0  0  0  0  0  0  0  0  0  0
   -1.8965    3.8033    0.6609 H   0  0  0  0  0  0  0  0  0  0  0  0
   -3.0062    3.9023    2.0409 H   0  0  0  0  0  0  0  0  0  0  0  0
   -0.6071    1.3358   -0.0200 N   0  0  0  0  0  0  0  0  0  0  0  0
    0.5702    0.8350   -0.6836 C   0  0  2  0  0  0  0  0  0  0  0  0
    0.7476   -0.6166   -0.2530 C   0  0  0  0  0  0  0  0  0  0  0  0
    1.5213   -1.3907   -0.8124 O   0  0  0  0  0  0  0  0  0  0  0  0
    1.8212    1.6504   -0.3371 C   0  0  0  0  0  0  0  0  0  0  0  0
    1.7376    3.0793   -0.8155 C   0  0  0  0  0  0  0  0  0  0  0  0
    1.8871    3.4293   -2.1279 N   0  0  0  0  0  0  0  0  0  0  0  0
    1.5180    4.2664   -0.1574 C   0  0  0  0  0  0  0  0  0  0  0  0
    1.7550    4.7878   -2.2074 C   0  0  0  0  0  0  0  0  0  0  0  0
    1.5297    5.3261   -1.0295 N   0  0  0  0  0  0  0  0  0  0  0  0
   -1.3903    1.6325   -0.5973 H   0  0  0  0  0  0  0  0  0  0  0  0
    0.3600    0.8671   -1.7592 H   0  0  0  0  0  0  0  0  0  0  0  0
    2.7159    1.1718   -0.7578 H   0  0  0  0  0  0  0  0  0  0  0  0
    1.9839    1.6604    0.7488 H   0  0  0  0  0  0  0  0  0  0  0  0
    2.0645    2.8013   -2.9008 H   0  0  0  0  0  0  0  0  0  0  0  0
    1.3516    4.4146    0.9001 H   0  0  0  0  0  0  0  0  0  0  0  0
    1.8330    5.3183   -3.1457 H   0  0  0  0  0  0  0  0  0  0  0  0
   -0.0231   -0.9266    0.8590 N   0  0  0  0  0  0  0  0  0  0  0  0
   -0.0245   -2.2290    1.4855 C   0  0  2  0  0  0  0  0  0  0  0  0
   -0.2380   -3.2737    0.3981 C   0  0  0  0  0  0  0  0  0  0  0  0
   -0.7635   -3.0185   -0.6834 O   0  0  0  0  0  0  0  0  0  0  0  0
   -1.1025   -2.3280    2.5536 C   0  0  0  0  0  0  0  0  0  0  0  0
   -0.6160   -0.2016    1.2522 H   0  0  0  0  0  0  0  0  0  0  0  0
    0.9655   -2.3651    1.9343 H   0  0  0  0  0  0  0  0  0  0  0  0
   -2.1015   -2.1941    2.1228 H   0  0  0  0  0  0  0  0  0  0  0  0
   -1.0836   -3.3054    3.0470 H   0  0  0  0  0  0  0  0  0  0  0  0
   -0.9646   -1.5568    3.3192 H   0  0  0  0  0  0  0  0  0  0  0  0
    0.1881   -4.5338    0.7942 N   0  0  0  0  0  0  0  0  0  0  0  0
    0.0810   -5.6961   -0.0564 C   0  0  0  0  0  0  0  0  0  0  0  0
    0.6295   -4.6496    1.7017 H   0  0  0  0  0  0  0  0  0  0  0  0
   -0.8678   -6.2140    0.1472 H   0  0  0  0  0  0  0  0  0  0  0  0
    0.1087   -5.3827   -1.1105 H   0  0  0  0  0  0  0  0  0  0  0  0
    0.9210   -6.3769    0.1458 H   0  0  0  0  0  0  0  0  0  0  0  0
 22 24  2  0  0  0  0
 24 26  1  0  0  0  0
 25 26  2  0  0  0  0
 23 25  1  0  0  0  0
 21 22  1  0  0  0  0
 22 23  1  0  0  0  0
  1  3  1  0  0  0  0
  1  7  1  0  0  0  0
  1  2  2  0  0  0  0
 35 36  1  0  0  0  0
 36 44  1  0  0  0  0
 36 37  2  0  0  0  0
  8  9  1  0  0  0  0
  9 17  1  0  0  0  0
  9 10  2  0  0  0  0
 18 19  1  0  0  0  0
 19 34  1  0  0  0  0
 19 20  2  0  0  0  0
 35 38  1  0  0  0  0
  8 11  1  0  0  0  0
 44 45  1  0  0  0  0
 18 21  1  0  0  0  0
 34 35  1  0  0  0  0
  7  8  1  0  0  0  0
 17 18  1  0  0  0  0
 24 32  1  0  0  0  0
 25 33  1  0  0  0  0
  3  4  1  0  0  0  0
  3  5  1  0  0  0  0
  3  6  1  0  0  0  0
 38 41  1  0  0  0  0
 38 42  1  0  0  0  0
 38 43  1  0  0  0  0
 11 14  1  0  0  0  0
 11 15  1  0  0  0  0
 11 16  1  0  0  0  0
 45 47  1  0  0  0  0
 45 48  1  0  0  0  0
 45 49  1  0  0  0  0
 21 29  1  0  0  0  0
 21 30  1  0  0  0  0
 35 40  1  0  0  0  0
  8 13  1  0  0  0  0
 18 28  1  0  0  0  0
 23 31  1  0  0  0  0
 44 46  1  0  0  0  0
  7 12  1  0  0  0  0
 34 39  1  0  0  0  0
 17 27  1  0  0  0  0
M  END
$$$$

  -OEChem-05262214473D

 49 49  0     1  0  0  0  0  0999 V2000
   -1.5619    0.5658    3.7981 C   0  0  0  0  0  0  0  0  0  0  0  0
   -0.6145   -0.0489    3.3224 O   0  0  0  0  0  0  0  0  0  0  0  0
   -1.9938    0.2834    5.1988 C   0  0  0  0  0  0  0  0  0  0  0  0
   -2.7535   -0.5129    5.2522 H   0  0  0  0  0  0  0  0  0  0  0  0
   -1.1626   -0.0642    5.8331 H   0  0  0  0  0  0  0  0  0  0  0  0
   -2.4318    1.1383    5.7384 H   0  0  0  0  0  0  0  0  0  0  0  0
   -2.3116    1.5383    3.1570 N   0  0  0  0  0  0  0  0  0  0  0  0
   -2.0648    1.9643    1.8046 C   0  0  2  0  0  0  0  0  0  0  0  0
   -0.7298    1.3789    1.3634 C   0  0  0  0  0  0  0  0  0  0  0  0
    0.1423    1.0262    2.1547 O   0  0  0  0  0  0  0  0  0  0  0  0
   -2.0560    3.4811    1.6952 C   0  0  0  0  0  0  0  0  0  0  0  0
   -3.0767    1.9741    3.6688 H   0  0  0  0  0  0  0  0  0  0  0  0
   -2.8689    1.5458    1.1895 H   0  0  0  0  0  0  0  0  0  0  0  0
   -1.2569    3.9183    2.3049 H   0  0  0  0  0  0  0  0  0  0  0  0
   -1.8965    3.8033    0.6609 H   0  0  0  0  0  0  0  0  0  0  0  0
   -3.0062    3.9023    2.0409 H   0  0  0  0  0  0  0  0  0  0  0  0
   -0.6071    1.3358   -0.0200 N   0  0  0  0  0  0  0  0  0  0  0  0
    0.5702    0.8350   -0.6836 C   0  0  2  0  0  0  0  0  0  0  0  0
    0.7476   -0.6166   -0.2530 C   0  0  0  0  0  0  0  0  0  0  0  0
    1.6921   -1.3127   -0.6195 O   0  0  0  0  0  0  0  0  0  0  0  0
    1.8212    1.6504   -0.3371 C   0  0  0  0  0  0  0  0  0  0  0  0
    1.7376    3.0793   -0.8155 C   0  0  0  0  0  0  0  0  0  0  0  0
    1.8871    3.4293   -2.1279 N   0  0  0  0  0  0  0  0  0  0  0  0
    1.5180    4.2664   -0.1574 C   0  0  0  0  0  0  0  0  0  0  0  0
    1.7550    4.7878   -2.2074 C   0  0  0  0  0  0  0  0  0  0  0  0
    1.5297    5.3261   -1.0295 N   0  0  0  0  0  0  0  0  0  0  0  0
   -1.3903    1.6325   -0.5973 H   0  0  0  0  0  0  0  0  0  0  0  0
    0.3600    0.8671   -1.7592 H   0  0  0  0  0  0  0  0  0  0  0  0
    2.7159    1.1718   -0.7578 H   0  0  0  0  0  0  0  0  0  0  0  0
    1.9839    1.6604    0.7488 H   0  0  0  0  0  0  0  0  0  0  0  0
    2.0645    2.8013   -2.9008 H   0  0  0  0  0  0  0  0  0  0  0  0
    1.3516    4.4146    0.9001 H   0  0  0  0  0  0  0  0  0  0  0  0
    1.8330    5.3183   -3.1457 H   0  0  0  0  0  0  0  0  0  0  0  0
   -0.2462   -1.0227    0.6268 N   0  0  0  0  0  0  0  0  0  0  0  0
   -0.3011   -2.3457    1.2061 C   0  0  2  0  0  0  0  0  0  0  0  0
   -0.1603   -3.3592    0.0781 C   0  0  0  0  0  0  0  0  0  0  0  0
   -0.4224   -3.0987   -1.0943 O   0  0  0  0  0  0  0  0  0  0  0  0
   -1.5972   -2.5611    1.9717 C   0  0  0  0  0  0  0  0  0  0  0  0
   -0.9713   -0.3566    0.8761 H   0  0  0  0  0  0  0  0  0  0  0  0
    0.5560   -2.4303    1.8830 H   0  0  0  0  0  0  0  0  0  0  0  0
   -2.4672   -2.4800    1.3099 H   0  0  0  0  0  0  0  0  0  0  0  0
   -1.6249   -3.5534    2.4338 H   0  0  0  0  0  0  0  0  0  0  0  0
   -1.7111   -1.8129    2.7636 H   0  0  0  0  0  0  0  0  0  0  0  0
    0.2512   -4.6012    0.5408 N   0  0  0  0  0  0  0  0  0  0  0  0
    0.4458   -5.7338   -0.3340 C   0  0  0  0  0  0  0  0  0  0  0  0
    0.4641   -4.7218    1.5267 H   0  0  0  0  0  0  0  0  0  0  0  0
   -0.4813   -6.3239   -0.3826 H   0  0  0  0  0  0  0  0  0  0  0  0
    0.7070   -5.3781   -1.3416 H   0  0  0  0  0  0  0  0  0  0  0  0
    1.2602   -6.3623    0.0555 H   0  0  0  0  0  0  0  0  0  0  0  0
 22 24  2  0  0  0  0
 24 26  1  0  0  0  0
 25 26  2  0  0  0  0
 23 25  1  0  0  0  0
 21 22  1  0  0  0  0
 22 23  1  0  0  0  0
  1  3  1  0  0  0  0
  1  7  1  0  0  0  0
  1  2  2  0  0  0  0
 35 36  1  0  0  0  0
 36 44  1  0  0  0  0
 36 37  2  0  0  0  0
  8  9  1  0  0  0  0
  9 17  1  0  0  0  0
  9 10  2  0  0  0  0
 18 19  1  0  0  0  0
 19 34  1  0  0  0  0
 19 20  2  0  0  0  0
 35 38  1  0  0  0  0
  8 11  1  0  0  0  0
 44 45  1  0  0  0  0
 18 21  1  0  0  0  0
 34 35  1  0  0  0  0
  7  8  1  0  0  0  0
 17 18  1  0  0  0  0
 24 32  1  0  0  0  0
 25 33  1  0  0  0  0
  3  4  1  0  0  0  0
  3  5  1  0  0  0  0
  3  6  1  0  0  0  0
 38 41  1  0  0  0  0
 38 42  1  0  0  0  0
 38 43  1  0  0  0  0
 11 14  1  0  0  0  0
 11 15  1  0  0  0  0
 11 16  1  0  0  0  0
 45 47  1  0  0  0  0
 45 48  1  0  0  0  0
 45 49  1  0  0  0  0
 21 29  1  0  0  0  0
 21 30  1  0  0  0  0
 35 40  1  0  0  0  0
  8 13  1  0  0  0  0
 18 28  1  0  0  0  0
 23 31  1  0  0  0  0
 44 46  1  0  0  0  0
  7 12  1  0  0  0  0
 34 39  1  0  0  0  0
 17 27  1  0  0  0  0
M  END
$$$$

  -OEChem-05262214473D

 49 49  0     1  0  0  0  0  0999 V2000
   -1.5619    0.5658    3.7981 C   0  0  0  0  0  0  0  0  0  0  0  0
   -0.6145   -0.0489    3.3224 O   0  0  0  0  0  0  0  0  0  0  0  0
   -1.9938    0.2834    5.1988 C   0  0  0  0  0  0  0  0  0  0  0  0
   -2.7535   -0.5129    5.2522 H   0  0  0  0  0  0  0  0  0  0  0  0
   -1.1626   -0.0642    5.8331 H   0  0  0  0  0  0  0  0  0  0  0  0
   -2.4318    1.1383    5.7384 H   0  0  0  0  0  0  0  0  0  0  0  0
   -2.3116    1.5383    3.1570 N   0  0  0  0  0  0  0  0  0  0  0  0
   -2.0648    1.9643    1.8046 C   0  0  2  0  0  0  0  0  0  0  0  0
   -0.7298    1.3789    1.3634 C   0  0  0  0  0  0  0  0  0  0  0  0
    0.1423    1.0262    2.1547 O   0  0  0  0  0  0  0  0  0  0  0  0
   -2.0560    3.4811    1.6952 C   0  0  0  0  0  0  0  0  0  0  0  0
   -3.0767    1.9741    3.6688 H   0  0  0  0  0  0  0  0  0  0  0  0
   -2.8689    1.5458    1.1895 H   0  0  0  0  0  0  0  0  0  0  0  0
   -1.2569    3.9183    2.3049 H   0  0  0  0  0  0  0  0  0  0  0  0
   -1.8965    3.8033    0.6609 H   0  0  0  0  0  0  0  0  0  0  0  0
   -3.0062    3.9023    2.0409 H   0  0  0  0  0  0  0  0  0  0  0  0
   -0.6071    1.3358   -0.0200 N   0  0  0  0  0  0  0  0  0  0  0  0
    0.5702    0.8350   -0.6836 C   0  0  2  0  0  0  0  0  0  0  0  0
    0.7476   -0.6166   -0.2530 C   0  0  0  0  0  0  0  0  0  0  0  0
    1.8038   -1.2306   -0.3888 O   0  0  0  0  0  0  0  0  0  0  0  0
    1.8212    1.6504   -0.3371 C   0  0  0  0  0  0  0  0  0  0  0  0
    1.7376    3.0793   -0.8155 C   0  0  0  0  0  0  0  0  0  0  0  0
    1.8871    3.4293   -2.1279 N   0  0  0  0  0  0  0  0  0  0  0  0
    1.5180    4.2664   -0.1574 C   0  0  0  0  0  0  0  0  0  0  0  0
    1.7550    4.7878   -2.2074 C   0  0  0  0  0  0  0  0  0  0  0  0
    1.5297    5.3261   -1.0295 N   0  0  0  0  0  0  0  0  0  0  0  0
   -1.3903    1.6325   -0.5973 H   0  0  0  0  0  0  0  0  0  0  0  0
    0.3600    0.8671   -1.7592 H   0  0  0  0  0  0  0  0  0  0  0  0
    2.7159    1.1718   -0.7578 H   0  0  0  0  0  0  0  0  0  0  0  0
    1.9839    1.6604    0.7488 H   0  0  0  0  0  0  0  0  0  0  0  0
    2.0645    2.8013   -2.9008 H   0  0  0  0  0  0  0  0  0  0  0  0
    1.3516    4.4146    0.9001 H   0  0  0  0  0  0  0  0  0  0  0  0
    1.8330    5.3183   -3.1457 H   0  0  0  0  0  0  0  0  0  0  0  0
   -0.3974   -1.1249    0.3447 N   0  0  0  0  0  0  0  0  0  0  0  0
   -0.4908   -2.4702    0.8645 C   0  0  2  0  0  0  0  0  0  0  0  0
   -0.0001   -3.4264   -0.2145 C   0  0  0  0  0  0  0  0  0  0  0  0
    0.0142   -3.1389   -1.4096 O   0  0  0  0  0  0  0  0  0  0  0  0
   -1.9147   -2.8049    1.2808 C   0  0  0  0  0  0  0  0  0  0  0  0
   -1.2105   -0.5209    0.4207 H   0  0  0  0  0  0  0  0  0  0  0  0
    0.1779   -2.5218    1.7306 H   0  0  0  0  0  0  0  0  0  0  0  0
   -2.5993   -2.7584    0.4260 H   0  0  0  0  0  0  0  0  0  0  0  0
   -1.9784   -3.8142    1.7007 H   0  0  0  0  0  0  0  0  0  0  0  0
   -2.2765   -2.0981    2.0353 H   0  0  0  0  0  0  0  0  0  0  0  0
    0.3796   -4.6542    0.3095 N   0  0  0  0  0  0  0  0  0  0  0  0
    0.8693   -5.7353   -0.5134 C   0  0  0  0  0  0  0  0  0  0  0  0
    0.3527   -4.7983    1.3146 H   0  0  0  0  0  0  0  0  0  0  0  0
    0.0307   -6.3858   -0.8023 H   0  0  0  0  0  0  0  0  0  0  0  0
    1.3416   -5.3230   -1.4173 H   0  0  0  0  0  0  0  0  0  0  0  0
    1.6091   -6.3206    0.0524 H   0  0  0  0  0  0  0  0  0  0  0  0
 22 24  2  0  0  0  0
 24 26  1  0  0  0  0
 25 26  2  0  0  0  0
 23 25  1  0  0  0  0
 21 22  1  0  0  0  0
 22 23  1  0  0  0  0
  1  3  1  0  0  0  0
  1  7  1  0  0  0  0
  1  2  2  0  0  0  0
 35 36  1  0  0  0  0
 36 44  1  0  0  0  0
 36 37  2  0  0  0  0
  8  9  1  0  0  0  0
  9 17  1  0  0  0  0
  9 10  2  0  0  0  0
 18 19  1  0  0  0  0
 19 34  1  0  0  0  0
 19 20  2  0  0  0  0
 35 38  1  0  0  0  0
  8 11  1  0  0  0  0
 44 45  1  0  0  0  0
 18 21  1  0  0  0  0
 34 35  1  0  0  0  0
  7  8  1  0  0  0  0
 17 18  1  0  0  0  0
 24 32  1  0  0  0  0
 25 33  1  0  0  0  0
  3  4  1  0  0  0  0
  3  5  1  0  0  0  0
  3  6  1  0  0  0  0
 38 41  1  0  0  0  0
 38 42  1  0  0  0  0
 38 43  1  0  0  0  0
 11 14  1  0  0  0  0
 11 15  1  0  0  0  0
 11 16  1  0  0  0  0
 45 47  1  0  0  0  0
 45 48  1  0  0  0  0
 45 49  1  0  0  0  0
 21 29  1  0  0  0  0
 21 30  1  0  0  0  0
 35 40  1  0  0  0  0
  8 13  1  0  0  0  0
 18 28  1  0  0  0  0
 23 31  1  0  0  0  0
 44 46  1  0  0  0  0
  7 12  1  0  0  0  0
 34 39  1  0  0  0  0
 17 27  1  0  0  0  0
M  END
$$$$

  -OEChem-05262214473D

 49 49  0     1  0  0  0  0  0999 V2000
   -1.5619    0.5658    3.7981 C   0  0  0  0  0  0  0  0  0  0  0  0
   -0.6145   -0.0489    3.3224 O   0  0  0  0  0  0  0  0  0  0  0  0
   -1.9938    0.2834    5.1988 C   0  0  0  0  0  0  0  0  0  0  0  0
   -2.7535   -0.5129    5.2522 H   0  0  0  0  0  0  0  0  0  0  0  0
   -1.1626   -0.0642    5.8331 H   0  0  0  0  0  0  0  0  0  0  0  0
   -2.4318    1.1383    5.7384 H   0  0  0  0  0  0  0  0  0  0  0  0
   -2.3116    1.5383    3.1570 N   0  0  0  0  0  0  0  0  0  0  0  0
   -2.0648    1.9643    1.8046 C   0  0  2  0  0  0  0  0  0  0  0  0
   -0.7298    1.3789    1.3634 C   0  0  0  0  0  0  0  0  0  0  0  0
    0.1423    1.0262    2.1547 O   0  0  0  0  0  0  0  0  0  0  0  0
   -2.0560    3.4811    1.6952 C   0  0  0  0  0  0  0  0  0  0  0  0
   -3.0767    1.9741    3.6688 H   0  0  0  0  0  0  0  0  0  0  0  0
   -2.8689    1.5458    1.1895 H   0  0  0  0  0  0  0  0  0  0  0  0
   -1.2569    3.9183    2.3049 H   0  0  0  0  0  0  0  0  0  0  0  0
   -1.8965    3.8033    0.6609 H   0  0  0  0  0  0  0  0  0  0  0  0
   -3.0062    3.9023    2.0409 H   0  0  0  0  0  0  0  0  0  0  0  0
   -0.6071    1.3358   -0.0200 N   0  0  0  0  0  0  0  0  0  0  0  0
    0.5702    0.8350   -0.6836 C   0  0  2  0  0  0  0  0  0  0  0  0
    0.7476   -0.6166   -0.2530 C   0  0  0  0  0  0  0  0  0  0  0  0
    1.8488   -1.1500   -0.1359 O   0  0  0  0  0  0  0  0  0  0  0  0
    1.8212    1.6504   -0.3371 C   0  0  0  0  0  0  0  0  0  0  0  0
    1.7376    3.0793   -0.8155 C   0  0  0  0  0  0  0  0  0  0  0  0
    1.8871    3.4293   -2.1279 N   0  0  0  0  0  0  0  0  0  0  0  0
    1.5180    4.2664   -0.1574 C   0  0  0  0  0  0  0  0  0  0  0  0
    1.7550    4.7878   -2.2074 C   0  0  0  0  0  0  0  0  0  0  0  0
    1.5297    5.3261   -1.0295 N   0  0  0  0  0  0  0  0  0  0  0  0
   -1.3903    1.6325   -0.5973 H   0  0  0  0  0  0  0  0  0  0  0  0
    0.3600    0.8671   -1.7592 H   0  0  0  0  0  0  0  0  0  0  0  0
    2.7159    1.1718   -0.7578 H   0  0  0  0  0  0  0  0  0  0  0  0
    1.9839    1.6604    0.7488 H   0  0  0  0  0  0  0  0  0  0  0  0
    2.0645    2.8013   -2.9008 H   0  0  0  0  0  0  0  0  0  0  0  0
    1.3516    4.4146    0.9001 H   0  0  0  0  0  0  0  0  0  0  0  0
    1.8330    5.3183   -3.1457 H   0  0  0  0  0  0  0  0  0  0  0  0
   -0.4664   -1.2261    0.0319 N   0  0  0  0  0  0  0  0  0  0  0  0
   -0.5808   -2.5941    0.4841 C   0  0  2  0  0  0  0  0  0  0  0  0
    0.2317   -3.4708   -0.4597 C   0  0  0  0  0  0  0  0  0  0  0  0
    0.5166   -3.1363   -1.6077 O   0  0  0  0  0  0  0  0  0  0  0  0
   -2.0332   -3.0428    0.5277 C   0  0  0  0  0  0  0  0  0  0  0  0
   -1.3173   -0.6835   -0.0832 H   0  0  0  0  0  0  0  0  0  0  0  0
   -0.1430   -2.6331    1.4875 H   0  0  0  0  0  0  0  0  0  0  0  0
   -2.4887   -3.0103   -0.4687 H   0  0  0  0  0  0  0  0  0  0  0  0
   -2.1202   -4.0698    0.8976 H   0  0  0  0  0  0  0  0  0  0  0  0
   -2.6223   -2.3930    1.1838 H   0  0  0  0  0  0  0  0  0  0  0  0
    0.5644   -4.6889    0.1162 N   0  0  0  0  0  0  0  0  0  0  0  0
    1.3227   -5.7004   -0.5824 C   0  0  0  0  0  0  0  0  0  0  0  0
    0.3029   -4.8740    1.0801 H   0  0  0  0  0  0  0  0  0  0  0  0
    0.6331   -6.3956   -1.0835 H   0  0  0  0  0  0  0  0  0  0  0  0
    1.9692   -5.2211   -1.3323 H   0  0  0  0  0  0  0  0  0  0  0  0
    1.9439   -6.2547    0.1366 H   0  0  0  0  0  0  0  0  0  0  0  0
 22 24  2  0  0  0  0
 24 26  1  0  0  0  0
 25 26  2  0  0  0  0
 23 25  1  0  0  0  0
 21 22  1  0  0  0  0
 22 23  1  0  0  0  0
  1  3  1  0  0  0  0
  1  7  1  0  0  0  0
  1  2  2  0  0  0  0
 35 36  1  0  0  0  0
 36 44  1  0  0  0  0
 36 37  2  0  0  0  0
  8  9  1  0  0  0  0
  9 17  1  0  0  0  0
  9 10  2  0  0  0  0
 18 19  1  0  0  0  0
 19 34  1  0  0  0  0
 19 20  2  0  0  0  0
 35 38  1  0  0  0  0
  8 11  1  0  0  0  0
 44 45  1  0  0  0  0
 18 21  1  0  0  0  0
 34 35  1  0  0  0  0
  7  8  1  0  0  0  0
 17 18  1  0  0  0  0
 24 32  1  0  0  0  0
 25 33  1  0  0  0  0
  3  4  1  0  0  0  0
  3  5  1  0  0  0  0
  3  6  1  0  0  0  0
 38 41  1  0  0  0  0
 38 42  1  0  0  0  0
 38 43  1  0  0  0  0
 11 14  1  0  0  0  0
 11 15  1  0  0  0  0
 11 16  1  0  0  0  0
 45 47  1  0  0  0  0
 45 48  1  0  0  0  0
 45 49  1  0  0  0  0
 21 29  1  0  0  0  0
 21 30  1  0  0  0  0
 35 40  1  0  0  0  0
  8 13  1  0  0  0  0
 18 28  1  0  0  0  0
 23 31  1  0  0  0  0
 44 46  1  0  0  0  0
  7 12  1  0  0  0  0
 34 39  1  0  0  0  0
 17 27  1  0  0  0  0
M  END
$$$$

  -OEChem-05262214473D

 49 49  0     1  0  0  0  0  0999 V2000
   -1.5619    0.5658    3.7981 C   0  0  0  0  0  0  0  0  0  0  0  0
   -0.6145   -0.0489    3.3224 O   0  0  0  0  0  0  0  0  0  0  0  0
   -1.9938    0.2834    5.1988 C   0  0  0  0  0  0  0  0  0  0  0  0
   -2.7535   -0.5129    5.2522 H   0  0  0  0  0  0  0  0  0  0  0  0
   -1.1626   -0.0642    5.8331 H   0  0  0  0  0  0  0  0  0  0  0  0
   -2.4318    1.1383    5.7384 H   0  0  0  0  0  0  0  0  0  0  0  0
   -2.3116    1.5383    3.1570 N   0  0  0  0  0  0  0  0  0  0  0  0
   -2.0648    1.9643    1.8046 C   0  0  2  0  0  0  0  0  0  0  0  0
   -0.7298    1.3789    1.3634 C   0  0  0  0  0  0  0  0  0  0  0  0
    0.1423    1.0262    2.1547 O   0  0  0  0  0  0  0  0  0  0  0  0
   -2.0560    3.4811    1.6952 C   0  0  0  0  0  0  0  0  0  0  0  0
   -3.0767    1.9741    3.6688 H   0  0  0  0  0  0  0  0  0  0  0  0
   -2.8689    1.5458    1.1895 H   0  0  0  0  0  0  0  0  0  0  0  0
   -1.2569    3.9183    2.3049 H   0  0  0  0  0  0  0  0  0  0  0  0
   -1.8965    3.8033    0.6609 H   0  0  0  0  0  0  0  0  0  0  0  0
   -3.0062    3.9023    2.0409 H   0  0  0  0  0  0  0  0  0  0  0  0
   -0.6071    1.3358   -0.0200 N   0  0  0  0  0  0  0  0  0  0  0  0
    0.5702    0.8350   -0.6836 C   0  0  2  0  0  0  0  0  0  0  0  0
    0.7476   -0.6166   -0.2530 C   0  0  0  0  0  0  0  0  0  0  0  0
    1.8241   -1.0766    0.1218 O   0  0  0  0  0  0  0  0  0  0  0  0
    1.8212    1.6504   -0.3371 C   0  0  0  0  0  0  0  0  0  0  0  0
    1.7376    3.0793   -0.8155 C   0  0  0  0  0  0  0  0  0  0  0  0
    1.8871    3.4293   -2.1279 N   0  0  0  0  0  0  0  0  0  0  0  0
    1.5180    4.2664   -0.1574 C   0  0  0  0  0  0  0  0  0  0  0  0
    1.7550    4.7878   -2.2074 C   0  0  0  0  0  0  0  0  0  0  0  0
    1.5297    5.3261   -1.0295 N   0  0  0  0  0  0  0  0  0  0  0  0
   -1.3903    1.6325   -0.5973 H   0  0  0  0  0  0  0  0  0  0  0  0
    0.3600    0.8671   -1.7592 H   0  0  0  0  0  0  0  0  0  0  0  0
    2.7159    1.1718   -0.7578 H   0  0  0  0  0  0  0  0  0  0  0  0
    1.9839    1.6604    0.7488 H   0  0  0  0  0  0  0  0  0  0  0  0
    2.0645    2.8013   -2.9008 H   0  0  0  0  0  0  0  0  0  0  0  0
    1.3516    4.4146    0.9001 H   0  0  0  0  0  0  0  0  0  0  0  0
    1.8330    5.3183   -3.1457 H   0  0  0  0  0  0  0  0  0  0  0  0
   -0.4486   -1.3196   -0.2903 N   0  0  0  0  0  0  0  0  0  0  0  0
   -0.5649   -2.7088    0.0907 C   0  0  2  0  0  0  0  0  0  0  0  0
    0.5192   -3.4894   -0.6407 C   0  0  0  0  0  0  0  0  0  0  0  0
    1.0504   -3.0911   -1.6753 O   0  0  0  0  0  0  0  0  0  0  0  0
   -1.9447   -3.2586   -0.2360 C   0  0  0  0  0  0  0  0  0  0  0  0
   -1.2844   -0.8331   -0.6011 H   0  0  0  0  0  0  0  0  0  0  0  0
   -0.3850   -2.7569    1.1702 H   0  0  0  0  0  0  0  0  0  0  0  0
   -2.1429   -3.2187   -1.3133 H   0  0  0  0  0  0  0  0  0  0  0  0
   -2.0406   -4.3028    0.0792 H   0  0  0  0  0  0  0  0  0  0  0  0
   -2.7249   -2.6774    0.2673 H   0  0  0  0  0  0  0  0  0  0  0  0
    0.7931   -4.7032   -0.0261 N   0  0  0  0  0  0  0  0  0  0  0  0
    1.7751   -5.6314   -0.5362 C   0  0  0  0  0  0  0  0  0  0  0  0
    0.3182   -4.9436    0.8390 H   0  0  0  0  0  0  0  0  0  0  0  0
    1.2851   -6.3526   -1.2068 H   0  0  0  0  0  0  0  0  0  0  0  0
    2.5469   -5.0794   -1.0926 H   0  0  0  0  0  0  0  0  0  0  0  0
    2.2416   -6.1691    0.3024 H   0  0  0  0  0  0  0  0  0  0  0  0
 22 24  2  0  0  0  0
 24 26  1  0  0  0  0
 25 26  2  0  0  0  0
 23 25  1  0  0  0  0
 21 22  1  0  0  0  0
 22 23  1  0  0  0  0
  1  3  1  0  0  0  0
  1  7  1  0  0  0  0
  1  2  2  0  0  0  0
 35 36  1  0  0  0  0
 36 44  1  0  0  0  0
 36 37  2  0  0  0  0
  8  9  1  0  0  0  0
  9 17  1  0  0  0  0
  9 10  2  0  0  0  0
 18 19  1  0  0  0  0
 19 34  1  0  0  0  0
 19 20  2  0  0  0  0
 35 38  1  0  0  0  0
  8 11  1  0  0  0  0
 44 45  1  0  0  0  0
 18 21  1  0  0  0  0
 34 35  1  0  0  0  0
  7  8  1  0  0  0  0
 17 18  1  0  0  0  0
 24 32  1  0  0  0  0
 25 33  1  0  0  0  0
  3  4  1  0  0  0  0
  3  5  1  0  0  0  0
  3  6  1  0  0  0  0
 38 41  1  0  0  0  0
 38 42  1  0  0  0  0
 38 43  1  0  0  0  0
 11 14  1  0  0  0  0
 11 15  1  0  0  0  0
 11 16  1  0  0  0  0
 45 47  1  0  0  0  0
 45 48  1  0  0  0  0
 45 49  1  0  0  0  0
 21 29  1  0  0  0  0
 21 30  1  0  0  0  0
 35 40  1  0  0  0  0
  8 13  1  0  0  0  0
 18 28  1  0  0  0  0
 23 31  1  0  0  0  0
 44 46  1  0  0  0  0
  7 12  1  0  0  0  0
 34 39  1  0  0  0  0
 17 27  1  0  0  0  0
M  END
$$$$

  -OEChem-05262214473D

 49 49  0     1  0  0  0  0  0999 V2000
   -1.5619    0.5658    3.7981 C   0  0  0  0  0  0  0  0  0  0  0  0
   -0.6145   -0.0489    3.3224 O   0  0  0  0  0  0  0  0  0  0  0  0
   -1.9938    0.2834    5.1988 C   0  0  0  0  0  0  0  0  0  0  0  0
   -2.7535   -0.5129    5.2522 H   0  0  0  0  0  0  0  0  0  0  0  0
   -1.1626   -0.0642    5.8331 H   0  0  0  0  0  0  0  0  0  0  0  0
   -2.4318    1.1383    5.7384 H   0  0  0  0  0  0  0  0  0  0  0  0
   -2.3116    1.5383    3.1570 N   0  0  0  0  0  0  0  0  0  0  0  0
   -2.0648    1.9643    1.8046 C   0  0  2  0  0  0  0  0  0  0  0  0
   -0.7298    1.3789    1.3634 C   0  0  0  0  0  0  0  0  0  0  0  0
    0.1423    1.0262    2.1547 O   0  0  0  0  0  0  0  0  0  0  0  0
   -2.0560    3.4811    1.6952 C   0  0  0  0  0  0  0  0  0  0  0  0
   -3.0767    1.9741    3.6688 H   0  0  0  0  0  0  0  0  0  0  0  0
   -2.8689    1.5458    1.1895 H   0  0  0  0  0  0  0  0  0  0  0  0
   -1.2569    3.9183    2.3049 H   0  0  0  0  0  0  0  0  0  0  0  0
   -1.8965    3.8033    0.6609 H   0  0  0  0  0  0  0  0  0  0  0  0
   -3.0062    3.9023    2.0409 H   0  0  0  0  0  0  0  0  0  0  0  0
   -0.6071    1.3358   -0.0200 N   0  0  0  0  0  0  0  0  0  0  0  0
    0.5702    0.8350   -0.6836 C   0  0  2  0  0  0  0  0  0  0  0  0
    0.7476   -0.6166   -0.2530 C   0  0  0  0  0  0  0  0  0  0  0  0
    1.7313   -1.0152    0.3669 O   0  0  0  0  0  0  0  0  0  0  0  0
    1.8212    1.6504   -0.3371 C   0  0  0  0  0  0  0  0  0  0  0  0
    1.7376    3.0793   -0.8155 C   0  0  0  0  0  0  0  0  0  0  0  0
    1.8871    3.4293   -2.1279 N   0  0  0  0  0  0  0  0  0  0  0  0
    1.5180    4.2664   -0.1574 C   0  0  0  0  0  0  0  0  0  0  0  0
    1.7550    4.7878   -2.2074 C   0  0  0  0  0  0  0  0  0  0  0  0
    1.5297    5.3261   -1.0295 N   0  0  0  0  0  0  0  0  0  0  0  0
   -1.3903    1.6325   -0.5973 H   0  0  0  0  0  0  0  0  0  0  0  0
    0.3600    0.8671   -1.7592 H   0  0  0  0  0  0  0  0  0  0  0  0
    2.7159    1.1718   -0.7578 H   0  0  0  0  0  0  0  0  0  0  0  0
    1.9839    1.6604    0.7488 H   0  0  0  0  0  0  0  0  0  0  0  0
    2.0645    2.8013   -2.9008 H   0  0  0  0  0  0  0  0  0  0  0  0
    1.3516    4.4146    0.9001 H   0  0  0  0  0  0  0  0  0  0  0  0
    1.8330    5.3183   -3.1457 H   0  0  0  0  0  0  0  0  0  0  0  0
   -0.3452   -1.3988   -0.6000 N   0  0  0  0  0  0  0  0  0  0  0  0
   -0.4442   -2.8067   -0.2889 C   0  0  2  0  0  0  0  0  0  0  0  0
    0.8429   -3.4809   -0.7453 C   0  0  0  0  0  0  0  0  0  0  0  0
    1.5794   -3.0063   -1.6075 O   0  0  0  0  0  0  0  0  0  0  0  0
   -1.6552   -3.4375   -0.9584 C   0  0  0  0  0  0  0  0  0  0  0  0
   -1.1140   -0.9596   -1.0978 H   0  0  0  0  0  0  0  0  0  0  0  0
   -0.5315   -2.8845    0.8003 H   0  0  0  0  0  0  0  0  0  0  0  0
   -1.5856   -3.3692   -2.0501 H   0  0  0  0  0  0  0  0  0  0  0  0
   -1.7449   -4.4975   -0.6987 H   0  0  0  0  0  0  0  0  0  0  0  0
   -2.5774   -2.9321   -0.6519 H   0  0  0  0  0  0  0  0  0  0  0  0
    1.0502   -4.6960   -0.1075 N   0  0  0  0  0  0  0  0  0  0  0  0
    2.1957   -5.5330   -0.3780 C   0  0  0  0  0  0  0  0  0  0  0  0
    0.3975   -5.0025    0.6078 H   0  0  0  0  0  0  0  0  0  0  0  0
    1.9421   -6.2596   -1.1641 H   0  0  0  0  0  0  0  0  0  0  0  0
    3.0356   -4.9074   -0.7143 H   0  0  0  0  0  0  0  0  0  0  0  0
    2.4821   -6.0696    0.5385 H   0  0  0  0  0  0  0  0  0  0  0  0
 22 24  2  0  0  0  0
 24 26  1  0  0  0  0
 25 26  2  0  0  0  0
 23 25  1  0  0  0  0
 21 22  1  0  0  0  0
 22 23  1  0  0  0  0
  1  3  1  0  0  0  0
  1  7  1  0  0  0  0
  1  2  2  0  0  0  0
 35 36  1  0  0  0  0
 36 44  1  0  0  0  0
 36 37  2  0  0  0  0
  8  9  1  0  0  0  0
  9 17  1  0  0  0  0
  9 10  2  0  0  0  0
 18 19  1  0  0  0  0
 19 34  1  0  0  0  0
 19 20  2  0  0  0  0
 35 38  1  0  0  0  0
  8 11  1  0  0  0  0
 44 45  1  0  0  0  0
 18 21  1  0  0  0  0
 34 35  1  0  0  0  0
  7  8  1  0  0  0  0
 17 18  1  0  0  0  0
 24 32  1  0  0  0  0
 25 33  1  0  0  0  0
  3  4  1  0  0  0  0
  3  5  1  0  0  0  0
  3  6  1  0  0  0  0
 38 41  1  0  0  0  0
 38 42  1  0  0  0  0
 38 43  1  0  0  0  0
 11 14  1  0  0  0  0
 11 15  1  0  0  0  0
 11 16  1  0  0  0  0
 45 47  1  0  0  0  0
 45 48  1  0  0  0  0
 45 49  1  0  0  0  0
 21 29  1  0  0  0  0
 21 30  1  0  0  0  0
 35 40  1  0  0  0  0
  8 13  1  0  0  0  0
 18 28  1  0  0  0  0
 23 31  1  0  0  0  0
 44 46  1  0  0  0  0
  7 12  1  0  0  0  0
 34 39  1  0  0  0  0
 17 27  1  0  0  0  0
M  END
$$$$

  -OEChem-05262214473D

 49 49  0     1  0  0  0  0  0999 V2000
   -1.5619    0.5658    3.7981 C   0  0  0  0  0  0  0  0  0  0  0  0
   -0.6145   -0.0489    3.3224 O   0  0  0  0  0  0  0  0  0  0  0  0
   -1.9938    0.2834    5.1988 C   0  0  0  0  0  0  0  0  0  0  0  0
   -2.7535   -0.5129    5.2522 H   0  0  0  0  0  0  0  0  0  0  0  0
   -1.1626   -0.0642    5.8331 H   0  0  0  0  0  0  0  0  0  0  0  0
   -2.4318    1.1383    5.7384 H   0  0  0  0  0  0  0  0  0  0  0  0
   -2.3116    1.5383    3.1570 N   0  0  0  0  0  0  0  0  0  0  0  0
   -2.0648    1.9643    1.8046 C   0  0  2  0  0  0  0  0  0  0  0  0
   -0.7298    1.3789    1.3634 C   0  0  0  0  0  0  0  0  0  0  0  0
    0.1423    1.0262    2.1547 O   0  0  0  0  0  0  0  0  0  0  0  0
   -2.0560    3.4811    1.6952 C   0  0  0  0  0  0  0  0  0  0  0  0
   -3.0767    1.9741    3.6688 H   0  0  0  0  0  0  0  0  0  0  0  0
   -2.8689    1.5458    1.1895 H   0  0  0  0  0  0  0  0  0  0  0  0
   -1.2569    3.9183    2.3049 H   0  0  0  0  0  0  0  0  0  0  0  0
   -1.8965    3.8033    0.6609 H   0  0  0  0  0  0  0  0  0  0  0  0
   -3.0062    3.9023    2.0409 H   0  0  0  0  0  0  0  0  0  0  0  0
   -0.6071    1.3358   -0.0200 N   0  0  0  0  0  0  0  0  0  0  0  0
    0.5702    0.8350   -0.6836 C   0  0  2  0  0  0  0  0  0  0  0  0
    0.7476   -0.6166   -0.2530 C   0  0  0  0  0  0  0  0  0  0  0  0
    1.5768   -0.9700    0.5827 O   0  0  0  0  0  0  0  0  0  0  0  0
    1.8212    1.6504   -0.3371 C   0  0  0  0  0  0  0  0  0  0  0  0
    1.7376    3.0793   -0.8155 C   0  0  0  0  0  0  0  0  0  0  0  0
    1.8871    3.4293   -2.1279 N   0  0  0  0  0  0  0  0  0  0  0  0
    1.5180    4.2664   -0.1574 C   0  0  0  0  0  0  0  0  0  0  0  0
    1.7550    4.7878   -2.2074 C   0  0  0  0  0  0  0  0  0  0  0  0
    1.5297    5.3261   -1.0295 N   0  0  0  0  0  0  0  0  0  0  0  0
   -1.3903    1.6325   -0.5973 H   0  0  0  0  0  0  0  0  0  0  0  0
    0.3600    0.8671   -1.7592 H   0  0  0  0  0  0  0  0  0  0  0  0
    2.7159    1.1718   -0.7578 H   0  0  0  0  0  0  0  0  0  0  0  0
    1.9839    1.6604    0.7488 H   0  0  0  0  0  0  0  0  0  0  0  0
    2.0645    2.8013   -2.9008 H   0  0  0  0  0  0  0  0  0  0  0  0
    1.3516    4.4146    0.9001 H   0  0  0  0  0  0  0  0  0  0  0  0
    1.8330    5.3183   -3.1457 H   0  0  0  0  0  0  0  0  0  0  0  0
   -0.1632   -1.4585   -0.8761 N   0  0  0  0  0  0  0  0  0  0  0  0
   -0.2269   -2.8810   -0.6287 C   0  0  2  0  0  0  0  0  0  0  0  0
    1.1807   -3.4458   -0.7663 C   0  0  0  0  0  0  0  0  0  0  0  0
    2.0675   -2.8878   -1.4092 O   0  0  0  0  0  0  0  0  0  0  0  0
   -1.1845   -3.5675   -1.5902 C   0  0  0  0  0  0  0  0  0  0  0  0
   -0.8178   -1.0545   -1.5394 H   0  0  0  0  0  0  0  0  0  0  0  0
   -0.5725   -3.0073    0.4031 H   0  0  0  0  0  0  0  0  0  0  0  0
   -0.8546   -3.4516   -2.6291 H   0  0  0  0  0  0  0  0  0  0  0  0
   -1.2534   -4.6405   -1.3830 H   0  0  0  0  0  0  0  0  0  0  0  0
   -2.1897   -3.1396   -1.5110 H   0  0  0  0  0  0  0  0  0  0  0  0
    1.3180   -4.6677   -0.1227 N   0  0  0  0  0  0  0  0  0  0  0  0
    2.5557   -5.4121   -0.1186 C   0  0  0  0  0  0  0  0  0  0  0  0
    0.5353   -5.0467    0.4022 H   0  0  0  0  0  0  0  0  0  0  0  0
    2.5593   -6.1230   -0.9580 H   0  0  0  0  0  0  0  0  0  0  0  0
    3.4018   -4.7170   -0.2233 H   0  0  0  0  0  0  0  0  0  0  0  0
    2.6489   -5.9631    0.8288 H   0  0  0  0  0  0  0  0  0  0  0  0
 22 24  2  0  0  0  0
 24 26  1  0  0  0  0
 25 26  2  0  0  0  0
 23 25  1  0  0  0  0
 21 22  1  0  0  0  0
 22 23  1  0  0  0  0
  1  3  1  0  0  0  0
  1  7  1  0  0  0  0
  1  2  2  0  0  0  0
 35 36  1  0  0  0  0
 36 44  1  0  0  0  0
 36 37  2  0  0  0  0
  8  9  1  0  0  0  0
  9 17  1  0  0  0  0
  9 10  2  0  0  0  0
 18 19  1  0  0  0  0
 19 34  1  0  0  0  0
 19 20  2  0  0  0  0
 35 38  1  0  0  0  0
  8 11  1  0  0  0  0
 44 45  1  0  0  0  0
 18 21  1  0  0  0  0
 34 35  1  0  0  0  0
  7  8  1  0  0  0  0
 17 18  1  0  0  0  0
 24 32  1  0  0  0  0
 25 33  1  0  0  0  0
  3  4  1  0  0  0  0
  3  5  1  0  0  0  0
  3  6  1  0  0  0  0
 38 41  1  0  0  0  0
 38 42  1  0  0  0  0
 38 43  1  0  0  0  0
 11 14  1  0  0  0  0
 11 15  1  0  0  0  0
 11 16  1  0  0  0  0
 45 47  1  0  0  0  0
 45 48  1  0  0  0  0
 45 49  1  0  0  0  0
 21 29  1  0  0  0  0
 21 30  1  0  0  0  0
 35 40  1  0  0  0  0
  8 13  1  0  0  0  0
 18 28  1  0  0  0  0
 23 31  1  0  0  0  0
 44 46  1  0  0  0  0
  7 12  1  0  0  0  0
 34 39  1  0  0  0  0
 17 27  1  0  0  0  0
M  END
$$$$

  -OEChem-05262214473D

 49 49  0     1  0  0  0  0  0999 V2000
   -1.5619    0.5658    3.7981 C   0  0  0  0  0  0  0  0  0  0  0  0
   -0.6145   -0.0489    3.3224 O   0  0  0  0  0  0  0  0  0  0  0  0
   -1.9938    0.2834    5.1988 C   0  0  0  0  0  0  0  0  0  0  0  0
   -2.7535   -0.5129    5.2522 H   0  0  0  0  0  0  0  0  0  0  0  0
   -1.1626   -0.0642    5.8331 H   0  0  0  0  0  0  0  0  0  0  0  0
   -2.4318    1.1383    5.7384 H   0  0  0  0  0  0  0  0  0  0  0  0
   -2.3116    1.5383    3.1570 N   0  0  0  0  0  0  0  0  0  0  0  0
   -2.0648    1.9643    1.8046 C   0  0  2  0  0  0  0  0  0  0  0  0
   -0.7298    1.3789    1.3634 C   0  0  0  0  0  0  0  0  0  0  0  0
    0.1423    1.0262    2.1547 O   0  0  0  0  0  0  0  0  0  0  0  0
   -2.0560    3.4811    1.6952 C   0  0  0  0  0  0  0  0  0  0  0  0
   -3.0767    1.9741    3.6688 H   0  0  0  0  0  0  0  0  0  0  0  0
   -2.8689    1.5458    1.1895 H   0  0  0  0  0  0  0  0  0  0  0  0
   -1.2569    3.9183    2.3049 H   0  0  0  0  0  0  0  0  0  0  0  0
   -1.8965    3.8033    0.6609 H   0  0  0  0  0  0  0  0  0  0  0  0
   -3.0062    3.9023    2.0409 H   0  0  0  0  0  0  0  0  0  0  0  0
   -0.6071    1.3358   -0.0200 N   0  0  0  0  0  0  0  0  0  0  0  0
    0.5702    0.8350   -0.6836 C   0  0  2  0  0  0  0  0  0  0  0  0
    0.7476   -0.6166   -0.2530 C   0  0  0  0  0  0  0  0  0  0  0  0
    1.3711   -0.9443    0.7544 O   0  0  0  0  0  0  0  0  0  0  0  0
    1.8212    1.6504   -0.3371 C   0  0  0  0  0  0  0  0  0  0  0  0
    1.7376    3.0793   -0.8155 C   0  0  0  0  0  0  0  0  0  0  0  0
    1.8871    3.4293   -2.1279 N   0  0  0  0  0  0  0  0  0  0  0  0
    1.5180    4.2664   -0.1574 C   0  0  0  0  0  0  0  0  0  0  0  0
    1.7550    4.7878   -2.2074 C   0  0  0  0  0  0  0  0  0  0  0  0
    1.5297    5.3261   -1.0295 N   0  0  0  0  0  0  0  0  0  0  0  0
   -1.3903    1.6325   -0.5973 H   0  0  0  0  0  0  0  0  0  0  0  0
    0.3600    0.8671   -1.7592 H   0  0  0  0  0  0  0  0  0  0  0  0
    2.7159    1.1718   -0.7578 H   0  0  0  0  0  0  0  0  0  0  0  0
    1.9839    1.6604    0.7488 H   0  0  0  0  0  0  0  0  0  0  0  0
    2.0645    2.8013   -2.9008 H   0  0  0  0  0  0  0  0  0  0  0  0
    1.3516    4.4146    0.9001 H   0  0  0  0  0  0  0  0  0  0  0  0
    1.8330    5.3183   -3.1457 H   0  0  0  0  0  0  0  0  0  0  0  0
    0.0850   -1.4945   -1.0996 N   0  0  0  0  0  0  0  0  0  0  0  0
    0.0721   -2.9266   -0.9056 C   0  0  2  0  0  0  0  0  0  0  0  0
    1.5097   -3.3866   -0.7022 C   0  0  0  0  0  0  0  0  0  0  0  0
    2.4814   -2.7436   -1.0938 O   0  0  0  0  0  0  0  0  0  0  0  0
   -0.5646   -3.6395   -2.0884 C   0  0  0  0  0  0  0  0  0  0  0  0
   -0.4160   -1.1111   -1.8957 H   0  0  0  0  0  0  0  0  0  0  0  0
   -0.5053   -3.1171    0.0056 H   0  0  0  0  0  0  0  0  0  0  0  0
    0.0001   -3.4603   -3.0106 H   0  0  0  0  0  0  0  0  0  0  0  0
   -0.5995   -4.7220   -1.9273 H   0  0  0  0  0  0  0  0  0  0  0  0
   -1.5883   -3.2859   -2.2516 H   0  0  0  0  0  0  0  0  0  0  0  0
    1.5784   -4.6204   -0.0704 N   0  0  0  0  0  0  0  0  0  0  0  0
    2.8307   -5.2767    0.2243 C   0  0  0  0  0  0  0  0  0  0  0  0
    0.7223   -5.0731    0.2363 H   0  0  0  0  0  0  0  0  0  0  0  0
    3.0948   -5.9522   -0.6028 H   0  0  0  0  0  0  0  0  0  0  0  0
    3.6206   -4.5211    0.3469 H   0  0  0  0  0  0  0  0  0  0  0  0
    2.7307   -5.8568    1.1536 H   0  0  0  0  0  0  0  0  0  0  0  0
 22 24  2  0  0  0  0
 24 26  1  0  0  0  0
 25 26  2  0  0  0  0
 23 25  1  0  0  0  0
 21 22  1  0  0  0  0
 22 23  1  0  0  0  0
  1  3  1  0  0  0  0
  1  7  1  0  0  0  0
  1  2  2  0  0  0  0
 35 36  1  0  0  0  0
 36 44  1  0  0  0  0
 36 37  2  0  0  0  0
  8  9  1  0  0  0  0
  9 17  1  0  0  0  0
  9 10  2  0  0  0  0
 18 19  1  0  0  0  0
 19 34  1  0  0  0  0
 19 20  2  0  0  0  0
 35 38  1  0  0  0  0
  8 11  1  0  0  0  0
 44 45  1  0  0  0  0
 18 21  1  0  0  0  0
 34 35  1  0  0  0  0
  7  8  1  0  0  0  0
 17 18  1  0  0  0  0
 24 32  1  0  0  0  0
 25 33  1  0  0  0  0
  3  4  1  0  0  0  0
  3  5  1  0  0  0  0
  3  6  1  0  0  0  0
 38 41  1  0  0  0  0
 38 42  1  0  0  0  0
 38 43  1  0  0  0  0
 11 14  1  0  0  0  0
 11 15  1  0  0  0  0
 11 16  1  0  0  0  0
 45 47  1  0  0  0  0
 45 48  1  0  0  0  0
 45 49  1  0  0  0  0
 21 29  1  0  0  0  0
 21 30  1  0  0  0  0
 35 40  1  0  0  0  0
  8 13  1  0  0  0  0
 18 28  1  0  0  0  0
 23 31  1  0  0  0  0
 44 46  1  0  0  0  0
  7 12  1  0  0  0  0
 34 39  1  0  0  0  0
 17 27  1  0  0  0  0
M  END
$$$$

  -OEChem-05262214473D

 49 49  0     1  0  0  0  0  0999 V2000
   -1.5619    0.5658    3.7981 C   0  0  0  0  0  0  0  0  0  0  0  0
   -0.6145   -0.0489    3.3224 O   0  0  0  0  0  0  0  0  0  0  0  0
   -1.9938    0.2834    5.1988 C   0  0  0  0  0  0  0  0  0  0  0  0
   -2.7535   -0.5129    5.2522 H   0  0  0  0  0  0  0  0  0  0  0  0
   -1.1626   -0.0642    5.8331 H   0  0  0  0  0  0  0  0  0  0  0  0
   -2.4318    1.1383    5.7384 H   0  0  0  0  0  0  0  0  0  0  0  0
   -2.3116    1.5383    3.1570 N   0  0  0  0  0  0  0  0  0  0  0  0
   -2.0648    1.9643    1.8046 C   0  0  2  0  0  0  0  0  0  0  0  0
   -0.7298    1.3789    1.3634 C   0  0  0  0  0  0  0  0  0  0  0  0
    0.1423    1.0262    2.1547 O   0  0  0  0  0  0  0  0  0  0  0  0
   -2.0560    3.4811    1.6952 C   0  0  0  0  0  0  0  0  0  0  0  0
   -3.0767    1.9741    3.6688 H   0  0  0  0  0  0  0  0  0  0  0  0
   -2.8689    1.5458    1.1895 H   0  0  0  0  0  0  0  0  0  0  0  0
   -1.2569    3.9183    2.3049 H   0  0  0  0  0  0  0  0  0  0  0  0
   -1.8965    3.8033    0.6609 H   0  0  0  0  0  0  0  0  0  0  0  0
   -3.0062    3.9023    2.0409 H   0  0  0  0  0  0  0  0  0  0  0  0
   -0.6071    1.3358   -0.0200 N   0  0  0  0  0  0  0  0  0  0  0  0
    0.5702    0.8350   -0.6836 C   0  0  2  0  0  0  0  0  0  0  0  0
    0.7476   -0.6166   -0.2530 C   0  0  0  0  0  0  0  0  0  0  0  0
    1.1282   -0.9395    0.8703 O   0  0  0  0  0  0  0  0  0  0  0  0
    1.8212    1.6504   -0.3371 C   0  0  0  0  0  0  0  0  0  0  0  0
    1.7376    3.0793   -0.8155 C   0  0  0  0  0  0  0  0  0  0  0  0
    1.8871    3.4293   -2.1279 N   0  0  0  0  0  0  0  0  0  0  0  0
    1.5180    4.2664   -0.1574 C   0  0  0  0  0  0  0  0  0  0  0  0
    1.7550    4.7878   -2.2074 C   0  0  0  0  0  0  0  0  0  0  0  0
    1.5297    5.3261   -1.0295 N   0  0  0  0  0  0  0  0  0  0  0  0
   -1.3903    1.6325   -0.5973 H   0  0  0  0  0  0  0  0  0  0  0  0
    0.3600    0.8671   -1.7592 H   0  0  0  0  0  0  0  0  0  0  0  0
    2.7159    1.1718   -0.7578 H   0  0  0  0  0  0  0  0  0  0  0  0
    1.9839    1.6604    0.7488 H   0  0  0  0  0  0  0  0  0  0  0  0
    2.0645    2.8013   -2.9008 H   0  0  0  0  0  0  0  0  0  0  0  0
    1.3516    4.4146    0.9001 H   0  0  0  0  0  0  0  0  0  0  0  0
    1.8330    5.3183   -3.1457 H   0  0  0  0  0  0  0  0  0  0  0  0
    0.3825   -1.5043   -1.2555 N   0  0  0  0  0  0  0  0  0  0  0  0
    0.4325   -2.9404   -1.1008 C   0  0  2  0  0  0  0  0  0  0  0  0
    1.8072   -3.3073   -0.5575 C   0  0  0  0  0  0  0  0  0  0  0  0
    2.7930   -2.5836   -0.6827 O   0  0  0  0  0  0  0  0  0  0  0  0
    0.1623   -3.6488   -2.4190 C   0  0  0  0  0  0  0  0  0  0  0  0
    0.0642   -1.1257   -2.1426 H   0  0  0  0  0  0  0  0  0  0  0  0
   -0.3343   -3.2061   -0.3650 H   0  0  0  0  0  0  0  0  0  0  0  0
    0.9204   -3.3948   -3.1688 H   0  0  0  0  0  0  0  0  0  0  0  0
    0.1723   -4.7366   -2.2943 H   0  0  0  0  0  0  0  0  0  0  0  0
   -0.8143   -3.3608   -2.8231 H   0  0  0  0  0  0  0  0  0  0  0  0
    1.8135   -4.5572    0.0456 N   0  0  0  0  0  0  0  0  0  0  0  0
    3.0019   -5.1362    0.6274 C   0  0  0  0  0  0  0  0  0  0  0  0
    0.9458   -5.0799    0.1214 H   0  0  0  0  0  0  0  0  0  0  0  0
    3.5120   -5.7587   -0.1225 H   0  0  0  0  0  0  0  0  0  0  0  0
    3.6771   -4.3330    0.9576 H   0  0  0  0  0  0  0  0  0  0  0  0
    2.7220   -5.7578    1.4906 H   0  0  0  0  0  0  0  0  0  0  0  0
 22 24  2  0  0  0  0
 24 26  1  0  0  0  0
 25 26  2  0  0  0  0
 23 25  1  0  0  0  0
 21 22  1  0  0  0  0
 22 23  1  0  0  0  0
  1  3  1  0  0  0  0
  1  7  1  0  0  0  0
  1  2  2  0  0  0  0
 35 36  1  0  0  0  0
 36 44  1  0  0  0  0
 36 37  2  0  0  0  0
  8  9  1  0  0  0  0
  9 17  1  0  0  0  0
  9 10  2  0  0  0  0
 18 19  1  0  0  0  0
 19 34  1  0  0  0  0
 19 20  2  0  0  0  0
 35 38  1  0  0  0  0
  8 11  1  0  0  0  0
 44 45  1  0  0  0  0
 18 21  1  0  0  0  0
 34 35  1  0  0  0  0
  7  8  1  0  0  0  0
 17 18  1  0  0  0  0
 24 32  1  0  0  0  0
 25 33  1  0  0  0  0
  3  4  1  0  0  0  0
  3  5  1  0  0  0  0
  3  6  1  0  0  0  0
 38 41  1  0  0  0  0
 38 42  1  0  0  0  0
 38 43  1  0  0  0  0
 11 14  1  0  0  0  0
 11 15  1  0  0  0  0
 11 16  1  0  0  0  0
 45 47  1  0  0  0  0
 45 48  1  0  0  0  0
 45 49  1  0  0  0  0
 21 29  1  0  0  0  0
 21 30  1  0  0  0  0
 35 40  1  0  0  0  0
  8 13  1  0  0  0  0
 18 28  1  0  0  0  0
 23 31  1  0  0  0  0
 44 46  1  0  0  0  0
  7 12  1  0  0  0  0
 34 39  1  0  0  0  0
 17 27  1  0  0  0  0
M  END
$$$$

  -OEChem-05262214473D

 49 49  0     1  0  0  0  0  0999 V2000
   -1.5619    0.5658    3.7981 C   0  0  0  0  0  0  0  0  0  0  0  0
   -0.6145   -0.0489    3.3224 O   0  0  0  0  0  0  0  0  0  0  0  0
   -1.9938    0.2834    5.1988 C   0  0  0  0  0  0  0  0  0  0  0  0
   -2.7535   -0.5129    5.2522 H   0  0  0  0  0  0  0  0  0  0  0  0
   -1.1626   -0.0642    5.8331 H   0  0  0  0  0  0  0  0  0  0  0  0
   -2.4318    1.1383    5.7384 H   0  0  0  0  0  0  0  0  0  0  0  0
   -2.3116    1.5383    3.1570 N   0  0  0  0  0  0  0  0  0  0  0  0
   -2.0648    1.9643    1.8046 C   0  0  2  0  0  0  0  0  0  0  0  0
   -0.7298    1.3789    1.3634 C   0  0  0  0  0  0  0  0  0  0  0  0
    0.1423    1.0262    2.1547 O   0  0  0  0  0  0  0  0  0  0  0  0
   -2.0560    3.4811    1.6952 C   0  0  0  0  0  0  0  0  0  0  0  0
   -3.0767    1.9741    3.6688 H   0  0  0  0  0  0  0  0  0  0  0  0
   -2.8689    1.5458    1.1895 H   0  0  0  0  0  0  0  0  0  0  0  0
   -1.2569    3.9183    2.3049 H   0  0  0  0  0  0  0  0  0  0  0  0
   -1.8965    3.8033    0.6609 H   0  0  0  0  0  0  0  0  0  0  0  0
   -3.0062    3.9023    2.0409 H   0  0  0  0  0  0  0  0  0  0  0  0
   -0.6071    1.3358   -0.0200 N   0  0  0  0  0  0  0  0  0  0  0  0
    0.5702    0.8350   -0.6836 C   0  0  2  0  0  0  0  0  0  0  0  0
    0.7476   -0.6166   -0.2530 C   0  0  0  0  0  0  0  0  0  0  0  0
    0.8647   -0.9563    0.9225 O   0  0  0  0  0  0  0  0  0  0  0  0
    1.8212    1.6504   -0.3371 C   0  0  0  0  0  0  0  0  0  0  0  0
    1.7376    3.0793   -0.8155 C   0  0  0  0  0  0  0  0  0  0  0  0
    1.8871    3.4293   -2.1279 N   0  0  0  0  0  0  0  0  0  0  0  0
    1.5180    4.2664   -0.1574 C   0  0  0  0  0  0  0  0  0  0  0  0
    1.7550    4.7878   -2.2074 C   0  0  0  0  0  0  0  0  0  0  0  0
    1.5297    5.3261   -1.0295 N   0  0  0  0  0  0  0  0  0  0  0  0
   -1.3903    1.6325   -0.5973 H   0  0  0  0  0  0  0  0  0  0  0  0
    0.3600    0.8671   -1.7592 H   0  0  0  0  0  0  0  0  0  0  0  0
    2.7159    1.1718   -0.7578 H   0  0  0  0  0  0  0  0  0  0  0  0
    1.9839    1.6604    0.7488 H   0  0  0  0  0  0  0  0  0  0  0  0
    2.0645    2.8013   -2.9008 H   0  0  0  0  0  0  0  0  0  0  0  0
    1.3516    4.4146    0.9001 H   0  0  0  0  0  0  0  0  0  0  0  0
    1.8330    5.3183   -3.1457 H   0  0  0  0  0  0  0  0  0  0  0  0
    0.7090   -1.4875   -1.3331 N   0  0  0  0  0  0  0  0  0  0  0  0
    0.8298   -2.9216   -1.2009 C   0  0  2  0  0  0  0  0  0  0  0  0
    2.0532   -3.2133   -0.3420 C   0  0  0  0  0  0  0  0  0  0  0  0
    2.9809   -2.4186   -0.2041 O   0  0  0  0  0  0  0  0  0  0  0  0
    0.9465   -3.5946   -2.5596 C   0  0  0  0  0  0  0  0  0  0  0  0
    0.5899   -1.0972   -2.2632 H   0  0  0  0  0  0  0  0  0  0  0  0
   -0.0714   -3.2685   -0.6836 H   0  0  0  0  0  0  0  0  0  0  0  0
    1.8436   -3.2594   -3.0928 H   0  0  0  0  0  0  0  0  0  0  0  0
    1.0092   -4.6832   -2.4590 H   0  0  0  0  0  0  0  0  0  0  0  0
    0.0798   -3.3594   -3.1867 H   0  0  0  0  0  0  0  0  0  0  0  0
    2.0074   -4.4825    0.2176 N   0  0  0  0  0  0  0  0  0  0  0  0
    3.0577   -5.0001    1.0632 C   0  0  0  0  0  0  0  0  0  0  0  0
    1.1905   -5.0666    0.0652 H   0  0  0  0  0  0  0  0  0  0  0  0
    3.7825   -5.5558    0.4500 H   0  0  0  0  0  0  0  0  0  0  0  0
    3.5674   -4.1656    1.5670 H   0  0  0  0  0  0  0  0  0  0  0  0
    2.6232   -5.6731    1.8170 H   0  0  0  0  0  0  0  0  0  0  0  0
 22 24  2  0  0  0  0
 24 26  1  0  0  0  0
 25 26  2  0  0  0  0
 23 25  1  0  0  0  0
 21 22  1  0  0  0  0
 22 23  1  0  0  0  0
  1  3  1  0  0  0  0
  1  7  1  0  0  0  0
  1  2  2  0  0  0  0
 35 36  1  0  0  0  0
 36 44  1  0  0  0  0
 36 37  2  0  0  0  0
  8  9  1  0  0  0  0
  9 17  1  0  0  0  0
  9 10  2  0  0  0  0
 18 19  1  0  0  0  0
 19 34  1  0  0  0  0
 19 20  2  0  0  0  0
 35 38  1  0  0  0  0
  8 11  1  0  0  0  0
 44 45  1  0  0  0  0
 18 21  1  0  0  0  0
 34 35  1  0  0  0  0
  7  8  1  0  0  0  0
 17 18  1  0  0  0  0
 24 32  1  0  0  0  0
 25 33  1  0  0  0  0
  3  4  1  0  0  0  0
  3  5  1  0  0  0  0
  3  6  1  0  0  0  0
 38 41  1  0  0  0  0
 38 42  1  0  0  0  0
 38 43  1  0  0  0  0
 11 14  1  0  0  0  0
 11 15  1  0  0  0  0
 11 16  1  0  0  0  0
 45 47  1  0  0  0  0
 45 48  1  0  0  0  0
 45 49  1  0  0  0  0
 21 29  1  0  0  0  0
 21 30  1  0  0  0  0
 35 40  1  0  0  0  0
  8 13  1  0  0  0  0
 18 28  1  0  0  0  0
 23 31  1  0  0  0  0
 44 46  1  0  0  0  0
  7 12  1  0  0  0  0
 34 39  1  0  0  0  0
 17 27  1  0  0  0  0
M  END
$$$$

  -OEChem-05262214473D

 49 49  0     1  0  0  0  0  0999 V2000
   -1.5619    0.5658    3.7981 C   0  0  0  0  0  0  0  0  0  0  0  0
   -0.6145   -0.0489    3.3224 O   0  0  0  0  0  0  0  0  0  0  0  0
   -1.9938    0.2834    5.1988 C   0  0  0  0  0  0  0  0  0  0  0  0
   -2.7535   -0.5129    5.2522 H   0  0  0  0  0  0  0  0  0  0  0  0
   -1.1626   -0.0642    5.8331 H   0  0  0  0  0  0  0  0  0  0  0  0
   -2.4318    1.1383    5.7384 H   0  0  0  0  0  0  0  0  0  0  0  0
   -2.3116    1.5383    3.1570 N   0  0  0  0  0  0  0  0  0  0  0  0
   -2.0648    1.9643    1.8046 C   0  0  2  0  0  0  0  0  0  0  0  0
   -0.7298    1.3789    1.3634 C   0  0  0  0  0  0  0  0  0  0  0  0
    0.1423    1.0262    2.1547 O   0  0  0  0  0  0  0  0  0  0  0  0
   -2.0560    3.4811    1.6952 C   0  0  0  0  0  0  0  0  0  0  0  0
   -3.0767    1.9741    3.6688 H   0  0  0  0  0  0  0  0  0  0  0  0
   -2.8689    1.5458    1.1895 H   0  0  0  0  0  0  0  0  0  0  0  0
   -1.2569    3.9183    2.3049 H   0  0  0  0  0  0  0  0  0  0  0  0
   -1.8965    3.8033    0.6609 H   0  0  0  0  0  0  0  0  0  0  0  0
   -3.0062    3.9023    2.0409 H   0  0  0  0  0  0  0  0  0  0  0  0
   -0.6071    1.3358   -0.0200 N   0  0  0  0  0  0  0  0  0  0  0  0
    0.5702    0.8350   -0.6836 C   0  0  2  0  0  0  0  0  0  0  0  0
    0.7476   -0.6166   -0.2530 C   0  0  0  0  0  0  0  0  0  0  0  0
    0.5985   -0.9932    0.9076 O   0  0  0  0  0  0  0  0  0  0  0  0
    1.8212    1.6504   -0.3371 C   0  0  0  0  0  0  0  0  0  0  0  0
    1.7376    3.0793   -0.8155 C   0  0  0  0  0  0  0  0  0  0  0  0
    1.8871    3.4293   -2.1279 N   0  0  0  0  0  0  0  0  0  0  0  0
    1.5180    4.2664   -0.1574 C   0  0  0  0  0  0  0  0  0  0  0  0
    1.7550    4.7878   -2.2074 C   0  0  0  0  0  0  0  0  0  0  0  0
    1.5297    5.3261   -1.0295 N   0  0  0  0  0  0  0  0  0  0  0  0
   -1.3903    1.6325   -0.5973 H   0  0  0  0  0  0  0  0  0  0  0  0
    0.3600    0.8671   -1.7592 H   0  0  0  0  0  0  0  0  0  0  0  0
    2.7159    1.1718   -0.7578 H   0  0  0  0  0  0  0  0  0  0  0  0
    1.9839    1.6604    0.7488 H   0  0  0  0  0  0  0  0  0  0  0  0
    2.0645    2.8013   -2.9008 H   0  0  0  0  0  0  0  0  0  0  0  0
    1.3516    4.4146    0.9001 H   0  0  0  0  0  0  0  0  0  0  0  0
    1.8330    5.3183   -3.1457 H   0  0  0  0  0  0  0  0  0  0  0  0
    1.0422   -1.4449   -1.3270 N   0  0  0  0  0  0  0  0  0  0  0  0
    1.2368   -2.8713   -1.1991 C   0  0  2  0  0  0  0  0  0  0  0  0
    2.2309   -3.1110   -0.0704 C   0  0  0  0  0  0  0  0  0  0  0  0
    3.0324   -2.2600    0.3095 O   0  0  0  0  0  0  0  0  0  0  0  0
    1.7346   -3.4807   -2.5004 C   0  0  0  0  0  0  0  0  0  0  0  0
    1.1253   -1.0276   -2.2493 H   0  0  0  0  0  0  0  0  0  0  0  0
    0.2657   -3.3000   -0.9284 H   0  0  0  0  0  0  0  0  0  0  0  0
    2.7066   -3.0634   -2.7878 H   0  0  0  0  0  0  0  0  0  0  0  0
    1.8543   -4.5655   -2.4103 H   0  0  0  0  0  0  0  0  0  0  0  0
    1.0328   -3.2818   -3.3175 H   0  0  0  0  0  0  0  0  0  0  0  0
    2.1469   -4.4013    0.4337 N   0  0  0  0  0  0  0  0  0  0  0  0
    2.9942   -4.8777    1.5020 C   0  0  0  0  0  0  0  0  0  0  0  0
    1.4398   -5.0342    0.0716 H   0  0  0  0  0  0  0  0  0  0  0  0
    3.8878   -5.3572    1.0758 H   0  0  0  0  0  0  0  0  0  0  0  0
    3.2990   -4.0303    2.1336 H   0  0  0  0  0  0  0  0  0  0  0  0
    2.4411   -5.6083    2.1105 H   0  0  0  0  0  0  0  0  0  0  0  0
 22 24  2  0  0  0  0
 24 26  1  0  0  0  0
 25 26  2  0  0  0  0
 23 25  1  0  0  0  0
 21 22  1  0  0  0  0
 22 23  1  0  0  0  0
  1  3  1  0  0  0  0
  1  7  1  0  0  0  0
  1  2  2  0  0  0  0
 35 36  1  0  0  0  0
 36 44  1  0  0  0  0
 36 37  2  0  0  0  0
  8  9  1  0  0  0  0
  9 17  1  0  0  0  0
  9 10  2  0  0  0  0
 18 19  1  0  0  0  0
 19 34  1  0  0  0  0
 19 20  2  0  0  0  0
 35 38  1  0  0  0  0
  8 11  1  0  0  0  0
 44 45  1  0  0  0  0
 18 21  1  0  0  0  0
 34 35  1  0  0  0  0
  7  8  1  0  0  0  0
 17 18  1  0  0  0  0
 24 32  1  0  0  0  0
 25 33  1  0  0  0  0
  3  4  1  0  0  0  0
  3  5  1  0  0  0  0
  3  6  1  0  0  0  0
 38 41  1  0  0  0  0
 38 42  1  0  0  0  0
 38 43  1  0  0  0  0
 11 14  1  0  0  0  0
 11 15  1  0  0  0  0
 11 16  1  0  0  0  0
 45 47  1  0  0  0  0
 45 48  1  0  0  0  0
 45 49  1  0  0  0  0
 21 29  1  0  0  0  0
 21 30  1  0  0  0  0
 35 40  1  0  0  0  0
  8 13  1  0  0  0  0
 18 28  1  0  0  0  0
 23 31  1  0  0  0  0
 44 46  1  0  0  0  0
  7 12  1  0  0  0  0
 34 39  1  0  0  0  0
 17 27  1  0  0  0  0
M  END
$$$$

  -OEChem-05262214473D

 49 49  0     1  0  0  0  0  0999 V2000
   -1.5619    0.5658    3.7981 C   0  0  0  0  0  0  0  0  0  0  0  0
   -0.6145   -0.0489    3.3224 O   0  0  0  0  0  0  0  0  0  0  0  0
   -1.9938    0.2834    5.1988 C   0  0  0  0  0  0  0  0  0  0  0  0
   -2.7535   -0.5129    5.2522 H   0  0  0  0  0  0  0  0  0  0  0  0
   -1.1626   -0.0642    5.8331 H   0  0  0  0  0  0  0  0  0  0  0  0
   -2.4318    1.1383    5.7384 H   0  0  0  0  0  0  0  0  0  0  0  0
   -2.3116    1.5383    3.1570 N   0  0  0  0  0  0  0  0  0  0  0  0
   -2.0648    1.9643    1.8046 C   0  0  2  0  0  0  0  0  0  0  0  0
   -0.7298    1.3789    1.3634 C   0  0  0  0  0  0  0  0  0  0  0  0
    0.1423    1.0262    2.1547 O   0  0  0  0  0  0  0  0  0  0  0  0
   -2.0560    3.4811    1.6952 C   0  0  0  0  0  0  0  0  0  0  0  0
   -3.0767    1.9741    3.6688 H   0  0  0  0  0  0  0  0  0  0  0  0
   -2.8689    1.5458    1.1895 H   0  0  0  0  0  0  0  0  0  0  0  0
   -1.2569    3.9183    2.3049 H   0  0  0  0  0  0  0  0  0  0  0  0
   -1.8965    3.8033    0.6609 H   0  0  0  0  0  0  0  0  0  0  0  0
   -3.0062    3.9023    2.0409 H   0  0  0  0  0  0  0  0  0  0  0  0
   -0.6071    1.3358   -0.0200 N   0  0  0  0  0  0  0  0  0  0  0  0
    0.5702    0.8350   -0.6836 C   0  0  2  0  0  0  0  0  0  0  0  0
    0.7476   -0.6166   -0.2530 C   0  0  0  0  0  0  0  0  0  0  0  0
    0.3478   -1.0480    0.8264 O   0  0  0  0  0  0  0  0  0  0  0  0
    1.8212    1.6504   -0.3371 C   0  0  0  0  0  0  0  0  0  0  0  0
    1.7376    3.0793   -0.8155 C   0  0  0  0  0  0  0  0  0  0  0  0
    1.8871    3.4293   -2.1279 N   0  0  0  0  0  0  0  0  0  0  0  0
    1.5180    4.2664   -0.1574 C   0  0  0  0  0  0  0  0  0  0  0  0
    1.7550    4.7878   -2.2074 C   0  0  0  0  0  0  0  0  0  0  0  0
    1.5297    5.3261   -1.0295 N   0  0  0  0  0  0  0  0  0  0  0  0
   -1.3903    1.6325   -0.5973 H   0  0  0  0  0  0  0  0  0  0  0  0
    0.3600    0.8671   -1.7592 H   0  0  0  0  0  0  0  0  0  0  0  0
    2.7159    1.1718   -0.7578 H   0  0  0  0  0  0  0  0  0  0  0  0
    1.9839    1.6604    0.7488 H   0  0  0  0  0  0  0  0  0  0  0  0
    2.0645    2.8013   -2.9008 H   0  0  0  0  0  0  0  0  0  0  0  0
    1.3516    4.4146    0.9001 H   0  0  0  0  0  0  0  0  0  0  0  0
    1.8330    5.3183   -3.1457 H   0  0  0  0  0  0  0  0  0  0  0  0
    1.3595   -1.3797   -1.2377 N   0  0  0  0  0  0  0  0  0  0  0  0
    1.6258   -2.7930   -1.0955 C   0  0  2  0  0  0  0  0  0  0  0  0
    2.3280   -3.0074    0.2388 C   0  0  0  0  0  0  0  0  0  0  0  0
    2.9440   -2.1184    0.8231 O   0  0  0  0  0  0  0  0  0  0  0  0
    2.4730   -3.3149   -2.2456 C   0  0  0  0  0  0  0  0  0  0  0  0
    1.6339   -0.9217   -2.1018 H   0  0  0  0  0  0  0  0  0  0  0  0
    0.6539   -3.2983   -1.0827 H   0  0  0  0  0  0  0  0  0  0  0  0
    3.4508   -2.8202   -2.2746 H   0  0  0  0  0  0  0  0  0  0  0  0
    2.6500   -4.3914   -2.1514 H   0  0  0  0  0  0  0  0  0  0  0  0
    1.9800   -3.1331   -3.2067 H   0  0  0  0  0  0  0  0  0  0  0  0
    2.2224   -4.3192    0.6793 N   0  0  0  0  0  0  0  0  0  0  0  0
    2.8158   -4.7773    1.9139 C   0  0  0  0  0  0  0  0  0  0  0  0
    1.6766   -4.9849    0.1402 H   0  0  0  0  0  0  0  0  0  0  0  0
    3.8208   -5.1766    1.7122 H   0  0  0  0  0  0  0  0  0  0  0  0
    2.8903   -3.9362    2.6189 H   0  0  0  0  0  0  0  0  0  0  0  0
    2.1882   -5.5678    2.3511 H   0  0  0  0  0  0  0  0  0  0  0  0
 22 24  2  0  0  0  0
 24 26  1  0  0  0  0
 25 26  2  0  0  0  0
 23 25  1  0  0  0  0
 21 22  1  0  0  0  0
 22 23  1  0  0  0  0
  1  3  1  0  0  0  0
  1  7  1  0  0  0  0
  1  2  2  0  0  0  0
 35 36  1  0  0  0  0
 36 44  1  0  0  0  0
 36 37  2  0  0  0  0
  8  9  1  0  0  0  0
  9 17  1  0  0  0  0
  9 10  2  0  0  0  0
 18 19  1  0  0  0  0
 19 34  1  0  0  0  0
 19 20  2  0  0  0  0
 35 38  1  0  0  0  0
  8 11  1  0  0  0  0
 44 45  1  0  0  0  0
 18 21  1  0  0  0  0
 34 35  1  0  0  0  0
  7  8  1  0  0  0  0
 17 18  1  0  0  0  0
 24 32  1  0  0  0  0
 25 33  1  0  0  0  0
  3  4  1  0  0  0  0
  3  5  1  0  0  0  0
  3  6  1  0  0  0  0
 38 41  1  0  0  0  0
 38 42  1  0  0  0  0
 38 43  1  0  0  0  0
 11 14  1  0  0  0  0
 11 15  1  0  0  0  0
 11 16  1  0  0  0  0
 45 47  1  0  0  0  0
 45 48  1  0  0  0  0
 45 49  1  0  0  0  0
 21 29  1  0  0  0  0
 21 30  1  0  0  0  0
 35 40  1  0  0  0  0
  8 13  1  0  0  0  0
 18 28  1  0  0  0  0
 23 31  1  0  0  0  0
 44 46  1  0  0  0  0
  7 12  1  0  0  0  0
 34 39  1  0  0  0  0
 17 27  1  0  0  0  0
M  END
$$$$

  -OEChem-05262214473D

 49 49  0     1  0  0  0  0  0999 V2000
   -1.5619    0.5658    3.7981 C   0  0  0  0  0  0  0  0  0  0  0  0
   -0.6145   -0.0489    3.3224 O   0  0  0  0  0  0  0  0  0  0  0  0
   -1.9938    0.2834    5.1988 C   0  0  0  0  0  0  0  0  0  0  0  0
   -2.7535   -0.5129    5.2522 H   0  0  0  0  0  0  0  0  0  0  0  0
   -1.1626   -0.0642    5.8331 H   0  0  0  0  0  0  0  0  0  0  0  0
   -2.4318    1.1383    5.7384 H   0  0  0  0  0  0  0  0  0  0  0  0
   -2.3116    1.5383    3.1570 N   0  0  0  0  0  0  0  0  0  0  0  0
   -2.0648    1.9643    1.8046 C   0  0  2  0  0  0  0  0  0  0  0  0
   -0.7298    1.3789    1.3634 C   0  0  0  0  0  0  0  0  0  0  0  0
    0.1423    1.0262    2.1547 O   0  0  0  0  0  0  0  0  0  0  0  0
   -2.0560    3.4811    1.6952 C   0  0  0  0  0  0  0  0  0  0  0  0
   -3.0767    1.9741    3.6688 H   0  0  0  0  0  0  0  0  0  0  0  0
   -2.8689    1.5458    1.1895 H   0  0  0  0  0  0  0  0  0  0  0  0
   -1.2569    3.9183    2.3049 H   0  0  0  0  0  0  0  0  0  0  0  0
   -1.8965    3.8033    0.6609 H   0  0  0  0  0  0  0  0  0  0  0  0
   -3.0062    3.9023    2.0409 H   0  0  0  0  0  0  0  0  0  0  0  0
   -0.6071    1.3358   -0.0200 N   0  0  0  0  0  0  0  0  0  0  0  0
    0.5702    0.8350   -0.6836 C   0  0  2  0  0  0  0  0  0  0  0  0
    0.7476   -0.6166   -0.2530 C   0  0  0  0  0  0  0  0  0  0  0  0
    0.1296   -1.1167    0.6845 O   0  0  0  0  0  0  0  0  0  0  0  0
    1.8212    1.6504   -0.3371 C   0  0  0  0  0  0  0  0  0  0  0  0
    1.7376    3.0793   -0.8155 C   0  0  0  0  0  0  0  0  0  0  0  0
    1.8871    3.4293   -2.1279 N   0  0  0  0  0  0  0  0  0  0  0  0
    1.5180    4.2664   -0.1574 C   0  0  0  0  0  0  0  0  0  0  0  0
    1.7550    4.7878   -2.2074 C   0  0  0  0  0  0  0  0  0  0  0  0
    1.5297    5.3261   -1.0295 N   0  0  0  0  0  0  0  0  0  0  0  0
   -1.3903    1.6325   -0.5973 H   0  0  0  0  0  0  0  0  0  0  0  0
    0.3600    0.8671   -1.7592 H   0  0  0  0  0  0  0  0  0  0  0  0
    2.7159    1.1718   -0.7578 H   0  0  0  0  0  0  0  0  0  0  0  0
    1.9839    1.6604    0.7488 H   0  0  0  0  0  0  0  0  0  0  0  0
    2.0645    2.8013   -2.9008 H   0  0  0  0  0  0  0  0  0  0  0  0
    1.3516    4.4146    0.9001 H   0  0  0  0  0  0  0  0  0  0  0  0
    1.8330    5.3183   -3.1457 H   0  0  0  0  0  0  0  0  0  0  0  0
    1.6392   -1.2961   -1.0713 N   0  0  0  0  0  0  0  0  0  0  0  0
    1.9704   -2.6921   -0.8973 C   0  0  2  0  0  0  0  0  0  0  0  0
    2.3381   -2.9095    0.5646 C   0  0  0  0  0  0  0  0  0  0  0  0
    2.7217   -2.0036    1.3016 O   0  0  0  0  0  0  0  0  0  0  0  0
    3.1114   -3.1084   -1.8125 C   0  0  0  0  0  0  0  0  0  0  0  0
    2.0812   -0.7866   -1.8308 H   0  0  0  0  0  0  0  0  0  0  0  0
    1.0669   -3.2637   -1.1361 H   0  0  0  0  0  0  0  0  0  0  0  0
    4.0253   -2.5464   -1.5882 H   0  0  0  0  0  0  0  0  0  0  0  0
    3.3420   -4.1729   -1.7000 H   0  0  0  0  0  0  0  0  0  0  0  0
    2.8567   -2.9236   -2.8617 H   0  0  0  0  0  0  0  0  0  0  0  0
    2.2289   -4.2418    0.9376 N   0  0  0  0  0  0  0  0  0  0  0  0
    2.5347   -4.7057    2.2708 C   0  0  0  0  0  0  0  0  0  0  0  0
    1.8848   -4.9221    0.2664 H   0  0  0  0  0  0  0  0  0  0  0  0
    3.5860   -5.0262    2.3159 H   0  0  0  0  0  0  0  0  0  0  0  0
    2.3690   -3.8899    2.9898 H   0  0  0  0  0  0  0  0  0  0  0  0
    1.8817   -5.5544    2.5223 H   0  0  0  0  0  0  0  0  0  0  0  0
 22 24  2  0  0  0  0
 24 26  1  0  0  0  0
 25 26  2  0  0  0  0
 23 25  1  0  0  0  0
 21 22  1  0  0  0  0
 22 23  1  0  0  0  0
  1  3  1  0  0  0  0
  1  7  1  0  0  0  0
  1  2  2  0  0  0  0
 35 36  1  0  0  0  0
 36 44  1  0  0  0  0
 36 37  2  0  0  0  0
  8  9  1  0  0  0  0
  9 17  1  0  0  0  0
  9 10  2  0  0  0  0
 18 19  1  0  0  0  0
 19 34  1  0  0  0  0
 19 20  2  0  0  0  0
 35 38  1  0  0  0  0
  8 11  1  0  0  0  0
 44 45  1  0  0  0  0
 18 21  1  0  0  0  0
 34 35  1  0  0  0  0
  7  8  1  0  0  0  0
 17 18  1  0  0  0  0
 24 32  1  0  0  0  0
 25 33  1  0  0  0  0
  3  4  1  0  0  0  0
  3  5  1  0  0  0  0
  3  6  1  0  0  0  0
 38 41  1  0  0  0  0
 38 42  1  0  0  0  0
 38 43  1  0  0  0  0
 11 14  1  0  0  0  0
 11 15  1  0  0  0  0
 11 16  1  0  0  0  0
 45 47  1  0  0  0  0
 45 48  1  0  0  0  0
 45 49  1  0  0  0  0
 21 29  1  0  0  0  0
 21 30  1  0  0  0  0
 35 40  1  0  0  0  0
  8 13  1  0  0  0  0
 18 28  1  0  0  0  0
 23 31  1  0  0  0  0
 44 46  1  0  0  0  0
  7 12  1  0  0  0  0
 34 39  1  0  0  0  0
 17 27  1  0  0  0  0
M  END
$$$$

  -OEChem-05262214473D

 49 49  0     1  0  0  0  0  0999 V2000
   -1.5619    0.5658    3.7981 C   0  0  0  0  0  0  0  0  0  0  0  0
   -0.6145   -0.0489    3.3224 O   0  0  0  0  0  0  0  0  0  0  0  0
   -1.9938    0.2834    5.1988 C   0  0  0  0  0  0  0  0  0  0  0  0
   -2.7535   -0.5129    5.2522 H   0  0  0  0  0  0  0  0  0  0  0  0
   -1.1626   -0.0642    5.8331 H   0  0  0  0  0  0  0  0  0  0  0  0
   -2.4318    1.1383    5.7384 H   0  0  0  0  0  0  0  0  0  0  0  0
   -2.3116    1.5383    3.1570 N   0  0  0  0  0  0  0  0  0  0  0  0
   -2.0648    1.9643    1.8046 C   0  0  2  0  0  0  0  0  0  0  0  0
   -0.7298    1.3789    1.3634 C   0  0  0  0  0  0  0  0  0  0  0  0
    0.1423    1.0262    2.1547 O   0  0  0  0  0  0  0  0  0  0  0  0
   -2.0560    3.4811    1.6952 C   0  0  0  0  0  0  0  0  0  0  0  0
   -3.0767    1.9741    3.6688 H   0  0  0  0  0  0  0  0  0  0  0  0
   -2.8689    1.5458    1.1895 H   0  0  0  0  0  0  0  0  0  0  0  0
   -1.2569    3.9183    2.3049 H   0  0  0  0  0  0  0  0  0  0  0  0
   -1.8965    3.8033    0.6609 H   0  0  0  0  0  0  0  0  0  0  0  0
   -3.0062    3.9023    2.0409 H   0  0  0  0  0  0  0  0  0  0  0  0
   -0.6071    1.3358   -0.0200 N   0  0  0  0  0  0  0  0  0  0  0  0
    0.5702    0.8350   -0.6836 C   0  0  2  0  0  0  0  0  0  0  0  0
    0.5424   -0.6847   -0.5657 C   0  0  0  0  0  0  0  0  0  0  0  0
   -0.3773   -1.2973   -0.0272 O   0  0  0  0  0  0  0  0  0  0  0  0
    1.8607    1.3934   -0.0731 C   0  0  0  0  0  0  0  0  0  0  0  0
    1.9837    2.8888   -0.2352 C   0  0  0  0  0  0  0  0  0  0  0  0
    2.3047    3.4794   -1.4249 N   0  0  0  0  0  0  0  0  0  0  0  0
    1.8289    3.9331    0.6457 C   0  0  0  0  0  0  0  0  0  0  0  0
    2.3310    4.8306   -1.2179 C   0  0  0  0  0  0  0  0  0  0  0  0
    2.0461    5.1392    0.0278 N   0  0  0  0  0  0  0  0  0  0  0  0
   -1.3903    1.6325   -0.5973 H   0  0  0  0  0  0  0  0  0  0  0  0
    0.4764    1.1148   -1.7396 H   0  0  0  0  0  0  0  0  0  0  0  0
    2.7361    0.9005   -0.5173 H   0  0  0  0  0  0  0  0  0  0  0  0
    1.9110    1.1585    0.9984 H   0  0  0  0  0  0  0  0  0  0  0  0
    2.4907    3.0065   -2.2996 H   0  0  0  0  0  0  0  0  0  0  0  0
    1.5720    3.8804    1.6942 H   0  0  0  0  0  0  0  0  0  0  0  0
    2.5626    5.5284   -2.0099 H   0  0  0  0  0  0  0  0  0  0  0  0
    1.6407   -1.2735   -1.1767 N   0  0  0  0  0  0  0  0  0  0  0  0
    1.8477   -2.7028   -1.2299 C   0  0  2  0  0  0  0  0  0  0  0  0
    1.6794   -3.2552    0.1793 C   0  0  0  0  0  0  0  0  0  0  0  0
    1.8118   -2.5675    1.1896 O   0  0  0  0  0  0  0  0  0  0  0  0
    3.2216   -3.0426   -1.7865 C   0  0  0  0  0  0  0  0  0  0  0  0
    2.3340   -0.6693   -1.6082 H   0  0  0  0  0  0  0  0  0  0  0  0
    1.0656   -3.1117   -1.8789 H   0  0  0  0  0  0  0  0  0  0  0  0
    4.0182   -2.6412   -1.1495 H   0  0  0  0  0  0  0  0  0  0  0  0
    3.3659   -4.1261   -1.8528 H   0  0  0  0  0  0  0  0  0  0  0  0
    3.3519   -2.6192   -2.7882 H   0  0  0  0  0  0  0  0  0  0  0  0
    1.4065   -4.6160    0.1774 N   0  0  0  0  0  0  0  0  0  0  0  0
    1.2171   -5.3749    1.3915 C   0  0  0  0  0  0  0  0  0  0  0  0
    1.2953   -5.1020   -0.7076 H   0  0  0  0  0  0  0  0  0  0  0  0
    2.1772   -5.8096    1.7063 H   0  0  0  0  0  0  0  0  0  0  0  0
    0.8380   -4.7116    2.1830 H   0  0  0  0  0  0  0  0  0  0  0  0
    0.4914   -6.1814    1.2102 H   0  0  0  0  0  0  0  0  0  0  0  0
 22 24  2  0  0  0  0
 24 26  1  0  0  0  0
 25 26  2  0  0  0  0
 23 25  1  0  0  0  0
 21 22  1  0  0  0  0
 22 23  1  0  0  0  0
  1  3  1  0  0  0  0
  1  7  1  0  0  0  0
  1  2  2  0  0  0  0
 35 36  1  0  0  0  0
 36 44  1  0  0  0  0
 36 37  2  0  0  0  0
  8  9  1  0  0  0  0
  9 17  1  0  0  0  0
  9 10  2  0  0  0  0
 18 19  1  0  0  0  0
 19 34  1  0  0  0  0
 19 20  2  0  0  0  0
 35 38  1  0  0  0  0
  8 11  1  0  0  0  0
 44 45  1  0  0  0  0
 18 21  1  0  0  0  0
 34 35  1  0  0  0  0
  7  8  1  0  0  0  0
 17 18  1  0  0  0  0
 24 32  1  0  0  0  0
 25 33  1  0  0  0  0
  3  4  1  0  0  0  0
  3  5  1  0  0  0  0
  3  6  1  0  0  0  0
 38 41  1  0  0  0  0
 38 42  1  0  0  0  0
 38 43  1  0  0  0  0
 11 14  1  0  0  0  0
 11 15  1  0  0  0  0
 11 16  1  0  0  0  0
 45 47  1  0  0  0  0
 45 48  1  0  0  0  0
 45 49  1  0  0  0  0
 21 29  1  0  0  0  0
 21 30  1  0  0  0  0
 35 40  1  0  0  0  0
  8 13  1  0  0  0  0
 18 28  1  0  0  0  0
 23 31  1  0  0  0  0
 44 46  1  0  0  0  0
  7 12  1  0  0  0  0
 34 39  1  0  0  0  0
 17 27  1  0  0  0  0
M  END
$$$$

  -OEChem-05262214473D

 49 49  0     1  0  0  0  0  0999 V2000
   -1.5619    0.5658    3.7981 C   0  0  0  0  0  0  0  0  0  0  0  0
   -0.6145   -0.0489    3.3224 O   0  0  0  0  0  0  0  0  0  0  0  0
   -1.9938    0.2834    5.1988 C   0  0  0  0  0  0  0  0  0  0  0  0
   -2.7535   -0.5129    5.2522 H   0  0  0  0  0  0  0  0  0  0  0  0
   -1.1626   -0.0642    5.8331 H   0  0  0  0  0  0  0  0  0  0  0  0
   -2.4318    1.1383    5.7384 H   0  0  0  0  0  0  0  0  0  0  0  0
   -2.3116    1.5383    3.1570 N   0  0  0  0  0  0  0  0  0  0  0  0
   -2.0648    1.9643    1.8046 C   0  0  2  0  0  0  0  0  0  0  0  0
   -0.7298    1.3789    1.3634 C   0  0  0  0  0  0  0  0  0  0  0  0
    0.1423    1.0262    2.1547 O   0  0  0  0  0  0  0  0  0  0  0  0
   -2.0560    3.4811    1.6952 C   0  0  0  0  0  0  0  0  0  0  0  0
   -3.0767    1.9741    3.6688 H   0  0  0  0  0  0  0  0  0  0  0  0
   -2.8689    1.5458    1.1895 H   0  0  0  0  0  0  0  0  0  0  0  0
   -1.2569    3.9183    2.3049 H   0  0  0  0  0  0  0  0  0  0  0  0
   -1.8965    3.8033    0.6609 H   0  0  0  0  0  0  0  0  0  0  0  0
   -3.0062    3.9023    2.0409 H   0  0  0  0  0  0  0  0  0  0  0  0
   -0.6071    1.3358   -0.0200 N   0  0  0  0  0  0  0  0  0  0  0  0
    0.5702    0.8350   -0.6836 C   0  0  2  0  0  0  0  0  0  0  0  0
    0.5424   -0.6847   -0.5657 C   0  0  0  0  0  0  0  0  0  0  0  0
   -0.4730   -1.3150   -0.2782 O   0  0  0  0  0  0  0  0  0  0  0  0
    1.8607    1.3934   -0.0731 C   0  0  0  0  0  0  0  0  0  0  0  0
    1.9837    2.8888   -0.2352 C   0  0  0  0  0  0  0  0  0  0  0  0
    2.3047    3.4794   -1.4249 N   0  0  0  0  0  0  0  0  0  0  0  0
    1.8289    3.9331    0.6457 C   0  0  0  0  0  0  0  0  0  0  0  0
    2.3310    4.8306   -1.2179 C   0  0  0  0  0  0  0  0  0  0  0  0
    2.0461    5.1392    0.0278 N   0  0  0  0  0  0  0  0  0  0  0  0
   -1.3903    1.6325   -0.5973 H   0  0  0  0  0  0  0  0  0  0  0  0
    0.4764    1.1148   -1.7396 H   0  0  0  0  0  0  0  0  0  0  0  0
    2.7361    0.9005   -0.5173 H   0  0  0  0  0  0  0  0  0  0  0  0
    1.9110    1.1585    0.9984 H   0  0  0  0  0  0  0  0  0  0  0  0
    2.4907    3.0065   -2.2996 H   0  0  0  0  0  0  0  0  0  0  0  0
    1.5720    3.8804    1.6942 H   0  0  0  0  0  0  0  0  0  0  0  0
    2.5626    5.5284   -2.0099 H   0  0  0  0  0  0  0  0  0  0  0  0
    1.7724   -1.2519   -0.8684 N   0  0  0  0  0  0  0  0  0  0  0  0
    2.0138   -2.6768   -0.8559 C   0  0  2  0  0  0  0  0  0  0  0  0
    1.4983   -3.2296    0.4663 C   0  0  0  0  0  0  0  0  0  0  0  0
    1.3522   -2.5372    1.4714 O   0  0  0  0  0  0  0  0  0  0  0  0
    3.4911   -2.9894   -1.0367 C   0  0  0  0  0  0  0  0  0  0  0  0
    2.5417   -0.6345   -1.1109 H   0  0  0  0  0  0  0  0  0  0  0  0
    1.4337   -3.1031   -1.6816 H   0  0  0  0  0  0  0  0  0  0  0  0
    4.0884   -2.5702   -0.2188 H   0  0  0  0  0  0  0  0  0  0  0  0
    3.6687   -4.0697   -1.0556 H   0  0  0  0  0  0  0  0  0  0  0  0
    3.8673   -2.5655   -1.9740 H   0  0  0  0  0  0  0  0  0  0  0  0
    1.2616   -4.5957    0.4040 N   0  0  0  0  0  0  0  0  0  0  0  0
    0.7801   -5.3558    1.5338 C   0  0  0  0  0  0  0  0  0  0  0  0
    1.3920   -5.0858   -0.4761 H   0  0  0  0  0  0  0  0  0  0  0  0
    1.6347   -5.7700    2.0888 H   0  0  0  0  0  0  0  0  0  0  0  0
    0.1968   -4.6989    2.1957 H   0  0  0  0  0  0  0  0  0  0  0  0
    0.1416   -6.1776    1.1773 H   0  0  0  0  0  0  0  0  0  0  0  0
 22 24  2  0  0  0  0
 24 26  1  0  0  0  0
 25 26  2  0  0  0  0
 23 25  1  0  0  0  0
 21 22  1  0  0  0  0
 22 23  1  0  0  0  0
  1  3  1  0  0  0  0
  1  7  1  0  0  0  0
  1  2  2  0  0  0  0
 35 36  1  0  0  0  0
 36 44  1  0  0  0  0
 36 37  2  0  0  0  0
  8  9  1  0  0  0  0
  9 17  1  0  0  0  0
  9 10  2  0  0  0  0
 18 19  1  0  0  0  0
 19 34  1  0  0  0  0
 19 20  2  0  0  0  0
 35 38  1  0  0  0  0
  8 11  1  0  0  0  0
 44 45  1  0  0  0  0
 18 21  1  0  0  0  0
 34 35  1  0  0  0  0
  7  8  1  0  0  0  0
 17 18  1  0  0  0  0
 24 32  1  0  0  0  0
 25 33  1  0  0  0  0
  3  4  1  0  0  0  0
  3  5  1  0  0  0  0
  3  6  1  0  0  0  0
 38 41  1  0  0  0  0
 38 42  1  0  0  0  0
 38 43  1  0  0  0  0
 11 14  1  0  0  0  0
 11 15  1  0  0  0  0
 11 16  1  0  0  0  0
 45 47  1  0  0  0  0
 45 48  1  0  0  0  0
 45 49  1  0  0  0  0
 21 29  1  0  0  0  0
 21 30  1  0  0  0  0
 35 40  1  0  0  0  0
  8 13  1  0  0  0  0
 18 28  1  0  0  0  0
 23 31  1  0  0  0  0
 44 46  1  0  0  0  0
  7 12  1  0  0  0  0
 34 39  1  0  0  0  0
 17 27  1  0  0  0  0
M  END
$$$$

  -OEChem-05262214473D

 49 49  0     1  0  0  0  0  0999 V2000
   -1.5619    0.5658    3.7981 C   0  0  0  0  0  0  0  0  0  0  0  0
   -0.6145   -0.0489    3.3224 O   0  0  0  0  0  0  0  0  0  0  0  0
   -1.9938    0.2834    5.1988 C   0  0  0  0  0  0  0  0  0  0  0  0
   -2.7535   -0.5129    5.2522 H   0  0  0  0  0  0  0  0  0  0  0  0
   -1.1626   -0.0642    5.8331 H   0  0  0  0  0  0  0  0  0  0  0  0
   -2.4318    1.1383    5.7384 H   0  0  0  0  0  0  0  0  0  0  0  0
   -2.3116    1.5383    3.1570 N   0  0  0  0  0  0  0  0  0  0  0  0
   -2.0648    1.9643    1.8046 C   0  0  2  0  0  0  0  0  0  0  0  0
   -0.7298    1.3789    1.3634 C   0  0  0  0  0  0  0  0  0  0  0  0
    0.1423    1.0262    2.1547 O   0  0  0  0  0  0  0  0  0  0  0  0
   -2.0560    3.4811    1.6952 C   0  0  0  0  0  0  0  0  0  0  0  0
   -3.0767    1.9741    3.6688 H   0  0  0  0  0  0  0  0  0  0  0  0
   -2.8689    1.5458    1.1895 H   0  0  0  0  0  0  0  0  0  0  0  0
   -1.2569    3.9183    2.3049 H   0  0  0  0  0  0  0  0  0  0  0  0
   -1.8965    3.8033    0.6609 H   0  0  0  0  0  0  0  0  0  0  0  0
   -3.0062    3.9023    2.0409 H   0  0  0  0  0  0  0  0  0  0  0  0
   -0.6071    1.3358   -0.0200 N   0  0  0  0  0  0  0  0  0  0  0  0
    0.5702    0.8350   -0.6836 C   0  0  2  0  0  0  0  0  0  0  0  0
    0.5424   -0.6847   -0.5657 C   0  0  0  0  0  0  0  0  0  0  0  0
   -0.5004   -1.3353   -0.5452 O   0  0  0  0  0  0  0  0  0  0  0  0
    1.8607    1.3934   -0.0731 C   0  0  0  0  0  0  0  0  0  0  0  0
    1.9837    2.8888   -0.2352 C   0  0  0  0  0  0  0  0  0  0  0  0
    2.3047    3.4794   -1.4249 N   0  0  0  0  0  0  0  0  0  0  0  0
    1.8289    3.9331    0.6457 C   0  0  0  0  0  0  0  0  0  0  0  0
    2.3310    4.8306   -1.2179 C   0  0  0  0  0  0  0  0  0  0  0  0
    2.0461    5.1392    0.0278 N   0  0  0  0  0  0  0  0  0  0  0  0
   -1.3903    1.6325   -0.5973 H   0  0  0  0  0  0  0  0  0  0  0  0
    0.4764    1.1148   -1.7396 H   0  0  0  0  0  0  0  0  0  0  0  0
    2.7361    0.9005   -0.5173 H   0  0  0  0  0  0  0  0  0  0  0  0
    1.9110    1.1585    0.9984 H   0  0  0  0  0  0  0  0  0  0  0  0
    2.4907    3.0065   -2.2996 H   0  0  0  0  0  0  0  0  0  0  0  0
    1.5720    3.8804    1.6942 H   0  0  0  0  0  0  0  0  0  0  0  0
    2.5626    5.5284   -2.0099 H   0  0  0  0  0  0  0  0  0  0  0  0
    1.8196   -1.2270   -0.5366 N   0  0  0  0  0  0  0  0  0  0  0  0
    2.0773   -2.6466   -0.4518 C   0  0  2  0  0  0  0  0  0  0  0  0
    1.2489   -3.2072    0.6966 C   0  0  0  0  0  0  0  0  0  0  0  0
    0.8349   -2.5158    1.6250 O   0  0  0  0  0  0  0  0  0  0  0  0
    3.5569   -2.9290   -0.2431 C   0  0  0  0  0  0  0  0  0  0  0  0
    2.6133   -0.5944   -0.5770 H   0  0  0  0  0  0  0  0  0  0  0  0
    1.7383   -3.0865   -1.3961 H   0  0  0  0  0  0  0  0  0  0  0  0
    3.9147   -2.4958    0.6981 H   0  0  0  0  0  0  0  0  0  0  0  0
    3.7543   -4.0054   -0.2077 H   0  0  0  0  0  0  0  0  0  0  0  0
    4.1540   -2.4993   -1.0548 H   0  0  0  0  0  0  0  0  0  0  0  0
    1.0628   -4.5780    0.5855 N   0  0  0  0  0  0  0  0  0  0  0  0
    0.3209   -5.3455    1.5583 C   0  0  0  0  0  0  0  0  0  0  0  0
    1.4254   -5.0671   -0.2276 H   0  0  0  0  0  0  0  0  0  0  0  0
    1.0113   -5.7408    2.3180 H   0  0  0  0  0  0  0  0  0  0  0  0
   -0.4261   -4.6994    2.0426 H   0  0  0  0  0  0  0  0  0  0  0  0
   -0.1879   -6.1810    1.0553 H   0  0  0  0  0  0  0  0  0  0  0  0
 22 24  2  0  0  0  0
 24 26  1  0  0  0  0
 25 26  2  0  0  0  0
 23 25  1  0  0  0  0
 21 22  1  0  0  0  0
 22 23  1  0  0  0  0
  1  3  1  0  0  0  0
  1  7  1  0  0  0  0
  1  2  2  0  0  0  0
 35 36  1  0  0  0  0
 36 44  1  0  0  0  0
 36 37  2  0  0  0  0
  8  9  1  0  0  0  0
  9 17  1  0  0  0  0
  9 10  2  0  0  0  0
 18 19  1  0  0  0  0
 19 34  1  0  0  0  0
 19 20  2  0  0  0  0
 35 38  1  0  0  0  0
  8 11  1  0  0  0  0
 44 45  1  0  0  0  0
 18 21  1  0  0  0  0
 34 35  1  0  0  0  0
  7  8  1  0  0  0  0
 17 18  1  0  0  0  0
 24 32  1  0  0  0  0
 25 33  1  0  0  0  0
  3  4  1  0  0  0  0
  3  5  1  0  0  0  0
  3  6  1  0  0  0  0
 38 41  1  0  0  0  0
 38 42  1  0  0  0  0
 38 43  1  0  0  0  0
 11 14  1  0  0  0  0
 11 15  1  0  0  0  0
 11 16  1  0  0  0  0
 45 47  1  0  0  0  0
 45 48  1  0  0  0  0
 45 49  1  0  0  0  0
 21 29  1  0  0  0  0
 21 30  1  0  0  0  0
 35 40  1  0  0  0  0
  8 13  1  0  0  0  0
 18 28  1  0  0  0  0
 23 31  1  0  0  0  0
 44 46  1  0  0  0  0
  7 12  1  0  0  0  0
 34 39  1  0  0  0  0
 17 27  1  0  0  0  0
M  END
$$$$

  -OEChem-05262214473D

 49 49  0     1  0  0  0  0  0999 V2000
   -1.5619    0.5658    3.7981 C   0  0  0  0  0  0  0  0  0  0  0  0
   -0.6145   -0.0489    3.3224 O   0  0  0  0  0  0  0  0  0  0  0  0
   -1.9938    0.2834    5.1988 C   0  0  0  0  0  0  0  0  0  0  0  0
   -2.7535   -0.5129    5.2522 H   0  0  0  0  0  0  0  0  0  0  0  0
   -1.1626   -0.0642    5.8331 H   0  0  0  0  0  0  0  0  0  0  0  0
   -2.4318    1.1383    5.7384 H   0  0  0  0  0  0  0  0  0  0  0  0
   -2.3116    1.5383    3.1570 N   0  0  0  0  0  0  0  0  0  0  0  0
   -2.0648    1.9643    1.8046 C   0  0  2  0  0  0  0  0  0  0  0  0
   -0.7298    1.3789    1.3634 C   0  0  0  0  0  0  0  0  0  0  0  0
    0.1423    1.0262    2.1547 O   0  0  0  0  0  0  0  0  0  0  0  0
   -2.0560    3.4811    1.6952 C   0  0  0  0  0  0  0  0  0  0  0  0
   -3.0767    1.9741    3.6688 H   0  0  0  0  0  0  0  0  0  0  0  0
   -2.8689    1.5458    1.1895 H   0  0  0  0  0  0  0  0  0  0  0  0
   -1.2569    3.9183    2.3049 H   0  0  0  0  0  0  0  0  0  0  0  0
   -1.8965    3.8033    0.6609 H   0  0  0  0  0  0  0  0  0  0  0  0
   -3.0062    3.9023    2.0409 H   0  0  0  0  0  0  0  0  0  0  0  0
   -0.6071    1.3358   -0.0200 N   0  0  0  0  0  0  0  0  0  0  0  0
    0.5702    0.8350   -0.6836 C   0  0  2  0  0  0  0  0  0  0  0  0
    0.5424   -0.6847   -0.5657 C   0  0  0  0  0  0  0  0  0  0  0  0
   -0.4575   -1.3566   -0.8101 O   0  0  0  0  0  0  0  0  0  0  0  0
    1.8607    1.3934   -0.0731 C   0  0  0  0  0  0  0  0  0  0  0  0
    1.9837    2.8888   -0.2352 C   0  0  0  0  0  0  0  0  0  0  0  0
    2.3047    3.4794   -1.4249 N   0  0  0  0  0  0  0  0  0  0  0  0
    1.8289    3.9331    0.6457 C   0  0  0  0  0  0  0  0  0  0  0  0
    2.3310    4.8306   -1.2179 C   0  0  0  0  0  0  0  0  0  0  0  0
    2.0461    5.1392    0.0278 N   0  0  0  0  0  0  0  0  0  0  0  0
   -1.3903    1.6325   -0.5973 H   0  0  0  0  0  0  0  0  0  0  0  0
    0.4764    1.1148   -1.7396 H   0  0  0  0  0  0  0  0  0  0  0  0
    2.7361    0.9005   -0.5173 H   0  0  0  0  0  0  0  0  0  0  0  0
    1.9110    1.1585    0.9984 H   0  0  0  0  0  0  0  0  0  0  0  0
    2.4907    3.0065   -2.2996 H   0  0  0  0  0  0  0  0  0  0  0  0
    1.5720    3.8804    1.6942 H   0  0  0  0  0  0  0  0  0  0  0  0
    2.5626    5.5284   -2.0099 H   0  0  0  0  0  0  0  0  0  0  0  0
    1.7792   -1.2005   -0.2042 N   0  0  0  0  0  0  0  0  0  0  0  0
    2.0337   -2.6143   -0.0453 C   0  0  2  0  0  0  0  0  0  0  0  0
    0.9480   -3.1894    0.8547 C   0  0  0  0  0  0  0  0  0  0  0  0
    0.2952   -2.5048    1.6397 O   0  0  0  0  0  0  0  0  0  0  0  0
    3.4146   -2.8655    0.5400 C   0  0  0  0  0  0  0  0  0  0  0  0
    2.5439   -0.5517   -0.0431 H   0  0  0  0  0  0  0  0  0  0  0  0
    1.9585   -3.0630   -1.0418 H   0  0  0  0  0  0  0  0  0  0  0  0
    3.5089   -2.4232    1.5385 H   0  0  0  0  0  0  0  0  0  0  0  0
    3.6170   -3.9376    0.6331 H   0  0  0  0  0  0  0  0  0  0  0  0
    4.1924   -2.4254   -0.0933 H   0  0  0  0  0  0  0  0  0  0  0  0
    0.8236   -4.5640    0.7093 N   0  0  0  0  0  0  0  0  0  0  0  0
   -0.1292   -5.3447    1.4635 C   0  0  0  0  0  0  0  0  0  0  0  0
    1.3931   -5.0473    0.0210 H   0  0  0  0  0  0  0  0  0  0  0  0
    0.3493   -5.7240    2.3785 H   0  0  0  0  0  0  0  0  0  0  0  0
   -0.9882   -4.7131    1.7339 H   0  0  0  0  0  0  0  0  0  0  0  0
   -0.4746   -6.1915    0.8524 H   0  0  0  0  0  0  0  0  0  0  0  0
 22 24  2  0  0  0  0
 24 26  1  0  0  0  0
 25 26  2  0  0  0  0
 23 25  1  0  0  0  0
 21 22  1  0  0  0  0
 22 23  1  0  0  0  0
  1  3  1  0  0  0  0
  1  7  1  0  0  0  0
  1  2  2  0  0  0  0
 35 36  1  0  0  0  0
 36 44  1  0  0  0  0
 36 37  2  0  0  0  0
  8  9  1  0  0  0  0
  9 17  1  0  0  0  0
  9 10  2  0  0  0  0
 18 19  1  0  0  0  0
 19 34  1  0  0  0  0
 19 20  2  0  0  0  0
 35 38  1  0  0  0  0
  8 11  1  0  0  0  0
 44 45  1  0  0  0  0
 18 21  1  0  0  0  0
 34 35  1  0  0  0  0
  7  8  1  0  0  0  0
 17 18  1  0  0  0  0
 24 32  1  0  0  0  0
 25 33  1  0  0  0  0
  3  4  1  0  0  0  0
  3  5  1  0  0  0  0
  3  6  1  0  0  0  0
 38 41  1  0  0  0  0
 38 42  1  0  0  0  0
 38 43  1  0  0  0  0
 11 14  1  0  0  0  0
 11 15  1  0  0  0  0
 11 16  1  0  0  0  0
 45 47  1  0  0  0  0
 45 48  1  0  0  0  0
 45 49  1  0  0  0  0
 21 29  1  0  0  0  0
 21 30  1  0  0  0  0
 35 40  1  0  0  0  0
  8 13  1  0  0  0  0
 18 28  1  0  0  0  0
 23 31  1  0  0  0  0
 44 46  1  0  0  0  0
  7 12  1  0  0  0  0
 34 39  1  0  0  0  0
 17 27  1  0  0  0  0
M  END
$$$$

  -OEChem-05262214473D

 49 49  0     1  0  0  0  0  0999 V2000
   -1.5619    0.5658    3.7981 C   0  0  0  0  0  0  0  0  0  0  0  0
   -0.6145   -0.0489    3.3224 O   0  0  0  0  0  0  0  0  0  0  0  0
   -1.9938    0.2834    5.1988 C   0  0  0  0  0  0  0  0  0  0  0  0
   -2.7535   -0.5129    5.2522 H   0  0  0  0  0  0  0  0  0  0  0  0
   -1.1626   -0.0642    5.8331 H   0  0  0  0  0  0  0  0  0  0  0  0
   -2.4318    1.1383    5.7384 H   0  0  0  0  0  0  0  0  0  0  0  0
   -2.3116    1.5383    3.1570 N   0  0  0  0  0  0  0  0  0  0  0  0
   -2.0648    1.9643    1.8046 C   0  0  2  0  0  0  0  0  0  0  0  0
   -0.7298    1.3789    1.3634 C   0  0  0  0  0  0  0  0  0  0  0  0
    0.1423    1.0262    2.1547 O   0  0  0  0  0  0  0  0  0  0  0  0
   -2.0560    3.4811    1.6952 C   0  0  0  0  0  0  0  0  0  0  0  0
   -3.0767    1.9741    3.6688 H   0  0  0  0  0  0  0  0  0  0  0  0
   -2.8689    1.5458    1.1895 H   0  0  0  0  0  0  0  0  0  0  0  0
   -1.2569    3.9183    2.3049 H   0  0  0  0  0  0  0  0  0  0  0  0
   -1.8965    3.8033    0.6609 H   0  0  0  0  0  0  0  0  0  0  0  0
   -3.0062    3.9023    2.0409 H   0  0  0  0  0  0  0  0  0  0  0  0
   -0.6071    1.3358   -0.0200 N   0  0  0  0  0  0  0  0  0  0  0  0
    0.5702    0.8350   -0.6836 C   0  0  2  0  0  0  0  0  0  0  0  0
    0.5424   -0.6847   -0.5657 C   0  0  0  0  0  0  0  0  0  0  0  0
   -0.3473   -1.3776   -1.0548 O   0  0  0  0  0  0  0  0  0  0  0  0
    1.8607    1.3934   -0.0731 C   0  0  0  0  0  0  0  0  0  0  0  0
    1.9837    2.8888   -0.2352 C   0  0  0  0  0  0  0  0  0  0  0  0
    2.3047    3.4794   -1.4249 N   0  0  0  0  0  0  0  0  0  0  0  0
    1.8289    3.9331    0.6457 C   0  0  0  0  0  0  0  0  0  0  0  0
    2.3310    4.8306   -1.2179 C   0  0  0  0  0  0  0  0  0  0  0  0
    2.0461    5.1392    0.0278 N   0  0  0  0  0  0  0  0  0  0  0  0
   -1.3903    1.6325   -0.5973 H   0  0  0  0  0  0  0  0  0  0  0  0
    0.4764    1.1148   -1.7396 H   0  0  0  0  0  0  0  0  0  0  0  0
    2.7361    0.9005   -0.5173 H   0  0  0  0  0  0  0  0  0  0  0  0
    1.9110    1.1585    0.9984 H   0  0  0  0  0  0  0  0  0  0  0  0
    2.4907    3.0065   -2.2996 H   0  0  0  0  0  0  0  0  0  0  0  0
    1.5720    3.8804    1.6942 H   0  0  0  0  0  0  0  0  0  0  0  0
    2.5626    5.5284   -2.0099 H   0  0  0  0  0  0  0  0  0  0  0  0
    1.6538   -1.1741    0.1064 N   0  0  0  0  0  0  0  0  0  0  0  0
    1.8861   -2.5820    0.3359 C   0  0  2  0  0  0  0  0  0  0  0  0
    0.6163   -3.1775    0.9296 C   0  0  0  0  0  0  0  0  0  0  0  0
   -0.2302   -2.5049    1.5146 O   0  0  0  0  0  0  0  0  0  0  0  0
    3.0738   -2.8034    1.2595 C   0  0  0  0  0  0  0  0  0  0  0  0
    2.3383   -0.5093    0.4545 H   0  0  0  0  0  0  0  0  0  0  0  0
    2.0793   -3.0343   -0.6429 H   0  0  0  0  0  0  0  0  0  0  0  0
    2.8986   -2.3571    2.2452 H   0  0  0  0  0  0  0  0  0  0  0  0
    3.2661   -3.8709    1.4095 H   0  0  0  0  0  0  0  0  0  0  0  0
    3.9799   -2.3486    0.8450 H   0  0  0  0  0  0  0  0  0  0  0  0
    0.5603   -4.5547    0.7672 N   0  0  0  0  0  0  0  0  0  0  0  0
   -0.5394   -5.3533    1.2558 C   0  0  0  0  0  0  0  0  0  0  0  0
    1.2975   -5.0275    0.2526 H   0  0  0  0  0  0  0  0  0  0  0  0
   -0.3060   -5.7207    2.2660 H   0  0  0  0  0  0  0  0  0  0  0  0
   -1.4513   -4.7390    1.2908 H   0  0  0  0  0  0  0  0  0  0  0  0
   -0.6990   -6.2084    0.5825 H   0  0  0  0  0  0  0  0  0  0  0  0
 22 24  2  0  0  0  0
 24 26  1  0  0  0  0
 25 26  2  0  0  0  0
 23 25  1  0  0  0  0
 21 22  1  0  0  0  0
 22 23  1  0  0  0  0
  1  3  1  0  0  0  0
  1  7  1  0  0  0  0
  1  2  2  0  0  0  0
 35 36  1  0  0  0  0
 36 44  1  0  0  0  0
 36 37  2  0  0  0  0
  8  9  1  0  0  0  0
  9 17  1  0  0  0  0
  9 10  2  0  0  0  0
 18 19  1  0  0  0  0
 19 34  1  0  0  0  0
 19 20  2  0  0  0  0
 35 38  1  0  0  0  0
  8 11  1  0  0  0  0
 44 45  1  0  0  0  0
 18 21  1  0  0  0  0
 34 35  1  0  0  0  0
  7  8  1  0  0  0  0
 17 18  1  0  0  0  0
 24 32  1  0  0  0  0
 25 33  1  0  0  0  0
  3  4  1  0  0  0  0
  3  5  1  0  0  0  0
  3  6  1  0  0  0  0
 38 41  1  0  0  0  0
 38 42  1  0  0  0  0
 38 43  1  0  0  0  0
 11 14  1  0  0  0  0
 11 15  1  0  0  0  0
 11 16  1  0  0  0  0
 45 47  1  0  0  0  0
 45 48  1  0  0  0  0
 45 49  1  0  0  0  0
 21 29  1  0  0  0  0
 21 30  1  0  0  0  0
 35 40  1  0  0  0  0
  8 13  1  0  0  0  0
 18 28  1  0  0  0  0
 23 31  1  0  0  0  0
 44 46  1  0  0  0  0
  7 12  1  0  0  0  0
 34 39  1  0  0  0  0
 17 27  1  0  0  0  0
M  END
$$$$

  -OEChem-05262214473D

 49 49  0     1  0  0  0  0  0999 V2000
   -1.5619    0.5658    3.7981 C   0  0  0  0  0  0  0  0  0  0  0  0
   -0.6145   -0.0489    3.3224 O   0  0  0  0  0  0  0  0  0  0  0  0
   -1.9938    0.2834    5.1988 C   0  0  0  0  0  0  0  0  0  0  0  0
   -2.7535   -0.5129    5.2522 H   0  0  0  0  0  0  0  0  0  0  0  0
   -1.1626   -0.0642    5.8331 H   0  0  0  0  0  0  0  0  0  0  0  0
   -2.4318    1.1383    5.7384 H   0  0  0  0  0  0  0  0  0  0  0  0
   -2.3116    1.5383    3.1570 N   0  0  0  0  0  0  0  0  0  0  0  0
   -2.0648    1.9643    1.8046 C   0  0  2  0  0  0  0  0  0  0  0  0
   -0.7298    1.3789    1.3634 C   0  0  0  0  0  0  0  0  0  0  0  0
    0.1423    1.0262    2.1547 O   0  0  0  0  0  0  0  0  0  0  0  0
   -2.0560    3.4811    1.6952 C   0  0  0  0  0  0  0  0  0  0  0  0
   -3.0767    1.9741    3.6688 H   0  0  0  0  0  0  0  0  0  0  0  0
   -2.8689    1.5458    1.1895 H   0  0  0  0  0  0  0  0  0  0  0  0
   -1.2569    3.9183    2.3049 H   0  0  0  0  0  0  0  0  0  0  0  0
   -1.8965    3.8033    0.6609 H   0  0  0  0  0  0  0  0  0  0  0  0
   -3.0062    3.9023    2.0409 H   0  0  0  0  0  0  0  0  0  0  0  0
   -0.6071    1.3358   -0.0200 N   0  0  0  0  0  0  0  0  0  0  0  0
    0.5702    0.8350   -0.6836 C   0  0  2  0  0  0  0  0  0  0  0  0
    0.5424   -0.6847   -0.5657 C   0  0  0  0  0  0  0  0  0  0  0  0
   -0.1773   -1.3969   -1.2626 O   0  0  0  0  0  0  0  0  0  0  0  0
    1.8607    1.3934   -0.0731 C   0  0  0  0  0  0  0  0  0  0  0  0
    1.9837    2.8888   -0.2352 C   0  0  0  0  0  0  0  0  0  0  0  0
    2.3047    3.4794   -1.4249 N   0  0  0  0  0  0  0  0  0  0  0  0
    1.8289    3.9331    0.6457 C   0  0  0  0  0  0  0  0  0  0  0  0
    2.3310    4.8306   -1.2179 C   0  0  0  0  0  0  0  0  0  0  0  0
    2.0461    5.1392    0.0278 N   0  0  0  0  0  0  0  0  0  0  0  0
   -1.3903    1.6325   -0.5973 H   0  0  0  0  0  0  0  0  0  0  0  0
    0.4764    1.1148   -1.7396 H   0  0  0  0  0  0  0  0  0  0  0  0
    2.7361    0.9005   -0.5173 H   0  0  0  0  0  0  0  0  0  0  0  0
    1.9110    1.1585    0.9984 H   0  0  0  0  0  0  0  0  0  0  0  0
    2.4907    3.0065   -2.2996 H   0  0  0  0  0  0  0  0  0  0  0  0
    1.5720    3.8804    1.6942 H   0  0  0  0  0  0  0  0  0  0  0  0
    2.5626    5.5284   -2.0099 H   0  0  0  0  0  0  0  0  0  0  0  0
    1.4520   -1.1496    0.3740 N   0  0  0  0  0  0  0  0  0  0  0  0
    1.6445   -2.5519    0.6659 C   0  0  2  0  0  0  0  0  0  0  0  0
    0.2763   -3.1723    0.9164 C   0  0  0  0  0  0  0  0  0  0  0  0
   -0.7053   -2.5161    1.2583 O   0  0  0  0  0  0  0  0  0  0  0  0
    2.5577   -2.7469    1.8663 C   0  0  0  0  0  0  0  0  0  0  0  0
    2.0105   -0.4701    0.8820 H   0  0  0  0  0  0  0  0  0  0  0  0
    2.0925   -3.0022   -0.2266 H   0  0  0  0  0  0  0  0  0  0  0  0
    2.1255   -2.3022    2.7701 H   0  0  0  0  0  0  0  0  0  0  0  0
    2.7255   -3.8099    2.0687 H   0  0  0  0  0  0  0  0  0  0  0  0
    3.5311   -2.2743    1.6962 H   0  0  0  0  0  0  0  0  0  0  0  0
    0.2909   -4.5507    0.7552 N   0  0  0  0  0  0  0  0  0  0  0  0
   -0.8820   -5.3708    0.9494 C   0  0  0  0  0  0  0  0  0  0  0  0
    1.1449   -5.0093    0.4516 H   0  0  0  0  0  0  0  0  0  0  0  0
   -0.9101   -5.7312    1.9883 H   0  0  0  0  0  0  0  0  0  0  0  0
   -1.7837   -4.7754    0.7435 H   0  0  0  0  0  0  0  0  0  0  0  0
   -0.8458   -6.2304    0.2640 H   0  0  0  0  0  0  0  0  0  0  0  0
 22 24  2  0  0  0  0
 24 26  1  0  0  0  0
 25 26  2  0  0  0  0
 23 25  1  0  0  0  0
 21 22  1  0  0  0  0
 22 23  1  0  0  0  0
  1  3  1  0  0  0  0
  1  7  1  0  0  0  0
  1  2  2  0  0  0  0
 35 36  1  0  0  0  0
 36 44  1  0  0  0  0
 36 37  2  0  0  0  0
  8  9  1  0  0  0  0
  9 17  1  0  0  0  0
  9 10  2  0  0  0  0
 18 19  1  0  0  0  0
 19 34  1  0  0  0  0
 19 20  2  0  0  0  0
 35 38  1  0  0  0  0
  8 11  1  0  0  0  0
 44 45  1  0  0  0  0
 18 21  1  0  0  0  0
 34 35  1  0  0  0  0
  7  8  1  0  0  0  0
 17 18  1  0  0  0  0
 24 32  1  0  0  0  0
 25 33  1  0  0  0  0
  3  4  1  0  0  0  0
  3  5  1  0  0  0  0
  3  6  1  0  0  0  0
 38 41  1  0  0  0  0
 38 42  1  0  0  0  0
 38 43  1  0  0  0  0
 11 14  1  0  0  0  0
 11 15  1  0  0  0  0
 11 16  1  0  0  0  0
 45 47  1  0  0  0  0
 45 48  1  0  0  0  0
 45 49  1  0  0  0  0
 21 29  1  0  0  0  0
 21 30  1  0  0  0  0
 35 40  1  0  0  0  0
  8 13  1  0  0  0  0
 18 28  1  0  0  0  0
 23 31  1  0  0  0  0
 44 46  1  0  0  0  0
  7 12  1  0  0  0  0
 34 39  1  0  0  0  0
 17 27  1  0  0  0  0
M  END
$$$$

  -OEChem-05262214473D

 49 49  0     1  0  0  0  0  0999 V2000
   -1.5619    0.5658    3.7981 C   0  0  0  0  0  0  0  0  0  0  0  0
   -0.6145   -0.0489    3.3224 O   0  0  0  0  0  0  0  0  0  0  0  0
   -1.9938    0.2834    5.1988 C   0  0  0  0  0  0  0  0  0  0  0  0
   -2.7535   -0.5129    5.2522 H   0  0  0  0  0  0  0  0  0  0  0  0
   -1.1626   -0.0642    5.8331 H   0  0  0  0  0  0  0  0  0  0  0  0
   -2.4318    1.1383    5.7384 H   0  0  0  0  0  0  0  0  0  0  0  0
   -2.3116    1.5383    3.1570 N   0  0  0  0  0  0  0  0  0  0  0  0
   -2.0648    1.9643    1.8046 C   0  0  2  0  0  0  0  0  0  0  0  0
   -0.7298    1.3789    1.3634 C   0  0  0  0  0  0  0  0  0  0  0  0
    0.1423    1.0262    2.1547 O   0  0  0  0  0  0  0  0  0  0  0  0
   -2.0560    3.4811    1.6952 C   0  0  0  0  0  0  0  0  0  0  0  0
   -3.0767    1.9741    3.6688 H   0  0  0  0  0  0  0  0  0  0  0  0
   -2.8689    1.5458    1.1895 H   0  0  0  0  0  0  0  0  0  0  0  0
   -1.2569    3.9183    2.3049 H   0  0  0  0  0  0  0  0  0  0  0  0
   -1.8965    3.8033    0.6609 H   0  0  0  0  0  0  0  0  0  0  0  0
   -3.0062    3.9023    2.0409 H   0  0  0  0  0  0  0  0  0  0  0  0
   -0.6071    1.3358   -0.0200 N   0  0  0  0  0  0  0  0  0  0  0  0
    0.5702    0.8350   -0.6836 C   0  0  2  0  0  0  0  0  0  0  0  0
    0.5424   -0.6847   -0.5657 C   0  0  0  0  0  0  0  0  0  0  0  0
    0.0408   -1.4130   -1.4194 O   0  0  0  0  0  0  0  0  0  0  0  0
    1.8607    1.3934   -0.0731 C   0  0  0  0  0  0  0  0  0  0  0  0
    1.9837    2.8888   -0.2352 C   0  0  0  0  0  0  0  0  0  0  0  0
    2.3047    3.4794   -1.4249 N   0  0  0  0  0  0  0  0  0  0  0  0
    1.8289    3.9331    0.6457 C   0  0  0  0  0  0  0  0  0  0  0  0
    2.3310    4.8306   -1.2179 C   0  0  0  0  0  0  0  0  0  0  0  0
    2.0461    5.1392    0.0278 N   0  0  0  0  0  0  0  0  0  0  0  0
   -1.3903    1.6325   -0.5973 H   0  0  0  0  0  0  0  0  0  0  0  0
    0.4764    1.1148   -1.7396 H   0  0  0  0  0  0  0  0  0  0  0  0
    2.7361    0.9005   -0.5173 H   0  0  0  0  0  0  0  0  0  0  0  0
    1.9110    1.1585    0.9984 H   0  0  0  0  0  0  0  0  0  0  0  0
    2.4907    3.0065   -2.2996 H   0  0  0  0  0  0  0  0  0  0  0  0
    1.5720    3.8804    1.6942 H   0  0  0  0  0  0  0  0  0  0  0  0
    2.5626    5.5284   -2.0099 H   0  0  0  0  0  0  0  0  0  0  0  0
    1.1876   -1.1288    0.5802 N   0  0  0  0  0  0  0  0  0  0  0  0
    1.3254   -2.5262    0.9223 C   0  0  2  0  0  0  0  0  0  0  0  0
   -0.0488   -3.1742    0.8159 C   0  0  0  0  0  0  0  0  0  0  0  0
   -1.0979   -2.5377    0.8881 O   0  0  0  0  0  0  0  0  0  0  0  0
    1.9015   -2.6997    2.3189 C   0  0  0  0  0  0  0  0  0  0  0  0
    1.5828   -0.4368    1.2101 H   0  0  0  0  0  0  0  0  0  0  0  0
    1.9972   -2.9690    0.1788 H   0  0  0  0  0  0  0  0  0  0  0  0
    1.2422   -2.2622    3.0774 H   0  0  0  0  0  0  0  0  0  0  0  0
    2.0320   -3.7586    2.5655 H   0  0  0  0  0  0  0  0  0  0  0  0
    2.8765   -2.2075    2.4023 H   0  0  0  0  0  0  0  0  0  0  0  0
    0.0337   -4.5523    0.6740 N   0  0  0  0  0  0  0  0  0  0  0  0
   -1.1335   -5.3960    0.5651 C   0  0  0  0  0  0  0  0  0  0  0  0
    0.9458   -4.9938    0.6044 H   0  0  0  0  0  0  0  0  0  0  0  0
   -1.4217   -5.7548    1.5642 H   0  0  0  0  0  0  0  0  0  0  0  0
   -1.9629   -4.8198    0.1292 H   0  0  0  0  0  0  0  0  0  0  0  0
   -0.9050   -6.2562   -0.0814 H   0  0  0  0  0  0  0  0  0  0  0  0
 22 24  2  0  0  0  0
 24 26  1  0  0  0  0
 25 26  2  0  0  0  0
 23 25  1  0  0  0  0
 21 22  1  0  0  0  0
 22 23  1  0  0  0  0
  1  3  1  0  0  0  0
  1  7  1  0  0  0  0
  1  2  2  0  0  0  0
 35 36  1  0  0  0  0
 36 44  1  0  0  0  0
 36 37  2  0  0  0  0
  8  9  1  0  0  0  0
  9 17  1  0  0  0  0
  9 10  2  0  0  0  0
 18 19  1  0  0  0  0
 19 34  1  0  0  0  0
 19 20  2  0  0  0  0
 35 38  1  0  0  0  0
  8 11  1  0  0  0  0
 44 45  1  0  0  0  0
 18 21  1  0  0  0  0
 34 35  1  0  0  0  0
  7  8  1  0  0  0  0
 17 18  1  0  0  0  0
 24 32  1  0  0  0  0
 25 33  1  0  0  0  0
  3  4  1  0  0  0  0
  3  5  1  0  0  0  0
  3  6  1  0  0  0  0
 38 41  1  0  0  0  0
 38 42  1  0  0  0  0
 38 43  1  0  0  0  0
 11 14  1  0  0  0  0
 11 15  1  0  0  0  0
 11 16  1  0  0  0  0
 45 47  1  0  0  0  0
 45 48  1  0  0  0  0
 45 49  1  0  0  0  0
 21 29  1  0  0  0  0
 21 30  1  0  0  0  0
 35 40  1  0  0  0  0
  8 13  1  0  0  0  0
 18 28  1  0  0  0  0
 23 31  1  0  0  0  0
 44 46  1  0  0  0  0
  7 12  1  0  0  0  0
 34 39  1  0  0  0  0
 17 27  1  0  0  0  0
M  END
$$$$

  -OEChem-05262214473D

 49 49  0     1  0  0  0  0  0999 V2000
   -1.5619    0.5658    3.7981 C   0  0  0  0  0  0  0  0  0  0  0  0
   -0.6145   -0.0489    3.3224 O   0  0  0  0  0  0  0  0  0  0  0  0
   -1.9938    0.2834    5.1988 C   0  0  0  0  0  0  0  0  0  0  0  0
   -2.7535   -0.5129    5.2522 H   0  0  0  0  0  0  0  0  0  0  0  0
   -1.1626   -0.0642    5.8331 H   0  0  0  0  0  0  0  0  0  0  0  0
   -2.4318    1.1383    5.7384 H   0  0  0  0  0  0  0  0  0  0  0  0
   -2.3116    1.5383    3.1570 N   0  0  0  0  0  0  0  0  0  0  0  0
   -2.0648    1.9643    1.8046 C   0  0  2  0  0  0  0  0  0  0  0  0
   -0.7298    1.3789    1.3634 C   0  0  0  0  0  0  0  0  0  0  0  0
    0.1423    1.0262    2.1547 O   0  0  0  0  0  0  0  0  0  0  0  0
   -2.0560    3.4811    1.6952 C   0  0  0  0  0  0  0  0  0  0  0  0
   -3.0767    1.9741    3.6688 H   0  0  0  0  0  0  0  0  0  0  0  0
   -2.8689    1.5458    1.1895 H   0  0  0  0  0  0  0  0  0  0  0  0
   -1.2569    3.9183    2.3049 H   0  0  0  0  0  0  0  0  0  0  0  0
   -1.8965    3.8033    0.6609 H   0  0  0  0  0  0  0  0  0  0  0  0
   -3.0062    3.9023    2.0409 H   0  0  0  0  0  0  0  0  0  0  0  0
   -0.6071    1.3358   -0.0200 N   0  0  0  0  0  0  0  0  0  0  0  0
    0.5702    0.8350   -0.6836 C   0  0  2  0  0  0  0  0  0  0  0  0
    0.5424   -0.6847   -0.5657 C   0  0  0  0  0  0  0  0  0  0  0  0
    0.2924   -1.4250   -1.5145 O   0  0  0  0  0  0  0  0  0  0  0  0
    1.8607    1.3934   -0.0731 C   0  0  0  0  0  0  0  0  0  0  0  0
    1.9837    2.8888   -0.2352 C   0  0  0  0  0  0  0  0  0  0  0  0
    2.3047    3.4794   -1.4249 N   0  0  0  0  0  0  0  0  0  0  0  0
    1.8289    3.9331    0.6457 C   0  0  0  0  0  0  0  0  0  0  0  0
    2.3310    4.8306   -1.2179 C   0  0  0  0  0  0  0  0  0  0  0  0
    2.0461    5.1392    0.0278 N   0  0  0  0  0  0  0  0  0  0  0  0
   -1.3903    1.6325   -0.5973 H   0  0  0  0  0  0  0  0  0  0  0  0
    0.4764    1.1148   -1.7396 H   0  0  0  0  0  0  0  0  0  0  0  0
    2.7361    0.9005   -0.5173 H   0  0  0  0  0  0  0  0  0  0  0  0
    1.9110    1.1585    0.9984 H   0  0  0  0  0  0  0  0  0  0  0  0
    2.4907    3.0065   -2.2996 H   0  0  0  0  0  0  0  0  0  0  0  0
    1.5720    3.8804    1.6942 H   0  0  0  0  0  0  0  0  0  0  0  0
    2.5626    5.5284   -2.0099 H   0  0  0  0  0  0  0  0  0  0  0  0
    0.8785   -1.1129    0.7111 N   0  0  0  0  0  0  0  0  0  0  0  0
    0.9505   -2.5065    1.0874 C   0  0  2  0  0  0  0  0  0  0  0  0
   -0.3368   -3.1829    0.6349 C   0  0  0  0  0  0  0  0  0  0  0  0
   -1.3812   -2.5681    0.4294 O   0  0  0  0  0  0  0  0  0  0  0  0
    1.1500   -2.6652    2.5866 C   0  0  0  0  0  0  0  0  0  0  0  0
    1.0843   -0.4116    1.4165 H   0  0  0  0  0  0  0  0  0  0  0  0
    1.7998   -2.9369    0.5457 H   0  0  0  0  0  0  0  0  0  0  0  0
    0.3089   -2.2398    3.1461 H   0  0  0  0  0  0  0  0  0  0  0  0
    1.2329   -3.7206    2.8663 H   0  0  0  0  0  0  0  0  0  0  0  0
    2.0607   -2.1528    2.9150 H   0  0  0  0  0  0  0  0  0  0  0  0
   -0.1938   -4.5594    0.5292 N   0  0  0  0  0  0  0  0  0  0  0  0
   -1.2767   -5.4272    0.1292 C   0  0  0  0  0  0  0  0  0  0  0  0
    0.7138   -4.9821    0.7005 H   0  0  0  0  0  0  0  0  0  0  0  0
   -1.8060   -5.7898    1.0227 H   0  0  0  0  0  0  0  0  0  0  0  0
   -1.9766   -4.8692   -0.5102 H   0  0  0  0  0  0  0  0  0  0  0  0
   -0.8725   -6.2838   -0.4301 H   0  0  0  0  0  0  0  0  0  0  0  0
 22 24  2  0  0  0  0
 24 26  1  0  0  0  0
 25 26  2  0  0  0  0
 23 25  1  0  0  0  0
 21 22  1  0  0  0  0
 22 23  1  0  0  0  0
  1  3  1  0  0  0  0
  1  7  1  0  0  0  0
  1  2  2  0  0  0  0
 35 36  1  0  0  0  0
 36 44  1  0  0  0  0
 36 37  2  0  0  0  0
  8  9  1  0  0  0  0
  9 17  1  0  0  0  0
  9 10  2  0  0  0  0
 18 19  1  0  0  0  0
 19 34  1  0  0  0  0
 19 20  2  0  0  0  0
 35 38  1  0  0  0  0
  8 11  1  0  0  0  0
 44 45  1  0  0  0  0
 18 21  1  0  0  0  0
 34 35  1  0  0  0  0
  7  8  1  0  0  0  0
 17 18  1  0  0  0  0
 24 32  1  0  0  0  0
 25 33  1  0  0  0  0
  3  4  1  0  0  0  0
  3  5  1  0  0  0  0
  3  6  1  0  0  0  0
 38 41  1  0  0  0  0
 38 42  1  0  0  0  0
 38 43  1  0  0  0  0
 11 14  1  0  0  0  0
 11 15  1  0  0  0  0
 11 16  1  0  0  0  0
 45 47  1  0  0  0  0
 45 48  1  0  0  0  0
 45 49  1  0  0  0  0
 21 29  1  0  0  0  0
 21 30  1  0  0  0  0
 35 40  1  0  0  0  0
  8 13  1  0  0  0  0
 18 28  1  0  0  0  0
 23 31  1  0  0  0  0
 44 46  1  0  0  0  0
  7 12  1  0  0  0  0
 34 39  1  0  0  0  0
 17 27  1  0  0  0  0
M  END
$$$$

  -OEChem-05262214473D

 49 49  0     1  0  0  0  0  0999 V2000
   -1.5619    0.5658    3.7981 C   0  0  0  0  0  0  0  0  0  0  0  0
   -0.6145   -0.0489    3.3224 O   0  0  0  0  0  0  0  0  0  0  0  0
   -1.9938    0.2834    5.1988 C   0  0  0  0  0  0  0  0  0  0  0  0
   -2.7535   -0.5129    5.2522 H   0  0  0  0  0  0  0  0  0  0  0  0
   -1.1626   -0.0642    5.8331 H   0  0  0  0  0  0  0  0  0  0  0  0
   -2.4318    1.1383    5.7384 H   0  0  0  0  0  0  0  0  0  0  0  0
   -2.3116    1.5383    3.1570 N   0  0  0  0  0  0  0  0  0  0  0  0
   -2.0648    1.9643    1.8046 C   0  0  2  0  0  0  0  0  0  0  0  0
   -0.7298    1.3789    1.3634 C   0  0  0  0  0  0  0  0  0  0  0  0
    0.1423    1.0262    2.1547 O   0  0  0  0  0  0  0  0  0  0  0  0
   -2.0560    3.4811    1.6952 C   0  0  0  0  0  0  0  0  0  0  0  0
   -3.0767    1.9741    3.6688 H   0  0  0  0  0  0  0  0  0  0  0  0
   -2.8689    1.5458    1.1895 H   0  0  0  0  0  0  0  0  0  0  0  0
   -1.2569    3.9183    2.3049 H   0  0  0  0  0  0  0  0  0  0  0  0
   -1.8965    3.8033    0.6609 H   0  0  0  0  0  0  0  0  0  0  0  0
   -3.0062    3.9023    2.0409 H   0  0  0  0  0  0  0  0  0  0  0  0
   -0.6071    1.3358   -0.0200 N   0  0  0  0  0  0  0  0  0  0  0  0
    0.5702    0.8350   -0.6836 C   0  0  2  0  0  0  0  0  0  0  0  0
    0.5424   -0.6847   -0.5657 C   0  0  0  0  0  0  0  0  0  0  0  0
    0.5601   -1.4320   -1.5414 O   0  0  0  0  0  0  0  0  0  0  0  0
    1.8607    1.3934   -0.0731 C   0  0  0  0  0  0  0  0  0  0  0  0
    1.9837    2.8888   -0.2352 C   0  0  0  0  0  0  0  0  0  0  0  0
    2.3047    3.4794   -1.4249 N   0  0  0  0  0  0  0  0  0  0  0  0
    1.8289    3.9331    0.6457 C   0  0  0  0  0  0  0  0  0  0  0  0
    2.3310    4.8306   -1.2179 C   0  0  0  0  0  0  0  0  0  0  0  0
    2.0461    5.1392    0.0278 N   0  0  0  0  0  0  0  0  0  0  0  0
   -1.3903    1.6325   -0.5973 H   0  0  0  0  0  0  0  0  0  0  0  0
    0.4764    1.1148   -1.7396 H   0  0  0  0  0  0  0  0  0  0  0  0
    2.7361    0.9005   -0.5173 H   0  0  0  0  0  0  0  0  0  0  0  0
    1.9110    1.1585    0.9984 H   0  0  0  0  0  0  0  0  0  0  0  0
    2.4907    3.0065   -2.2996 H   0  0  0  0  0  0  0  0  0  0  0  0
    1.5720    3.8804    1.6942 H   0  0  0  0  0  0  0  0  0  0  0  0
    2.5626    5.5284   -2.0099 H   0  0  0  0  0  0  0  0  0  0  0  0
    0.5459   -1.1032    0.7577 N   0  0  0  0  0  0  0  0  0  0  0  0
    0.5454   -2.4942    1.1501 C   0  0  2  0  0  0  0  0  0  0  0  0
   -0.5682   -3.1980    0.3858 C   0  0  0  0  0  0  0  0  0  0  0  0
   -1.5359   -2.6053   -0.0867 O   0  0  0  0  0  0  0  0  0  0  0  0
    0.3543   -2.6456    2.6512 C   0  0  0  0  0  0  0  0  0  0  0  0
    0.5490   -0.3963    1.4871 H   0  0  0  0  0  0  0  0  0  0  0  0
    1.5139   -2.9081    0.8490 H   0  0  0  0  0  0  0  0  0  0  0  0
   -0.6108   -2.2365    2.9716 H   0  0  0  0  0  0  0  0  0  0  0  0
    0.3827   -3.6985    2.9505 H   0  0  0  0  0  0  0  0  0  0  0  0
    1.1393   -2.1138    3.1996 H   0  0  0  0  0  0  0  0  0  0  0  0
   -0.3761   -4.5714    0.3307 N   0  0  0  0  0  0  0  0  0  0  0  0
   -1.3020   -5.4623   -0.3287 C   0  0  0  0  0  0  0  0  0  0  0  0
    0.4646   -4.9749    0.7334 H   0  0  0  0  0  0  0  0  0  0  0  0
   -2.0368   -5.8339    0.4007 H   0  0  0  0  0  0  0  0  0  0  0  0
   -1.8239   -4.9202   -1.1311 H   0  0  0  0  0  0  0  0  0  0  0  0
   -0.7506   -6.3116   -0.7585 H   0  0  0  0  0  0  0  0  0  0  0  0
 22 24  2  0  0  0  0
 24 26  1  0  0  0  0
 25 26  2  0  0  0  0
 23 25  1  0  0  0  0
 21 22  1  0  0  0  0
 22 23  1  0  0  0  0
  1  3  1  0  0  0  0
  1  7  1  0  0  0  0
  1  2  2  0  0  0  0
 35 36  1  0  0  0  0
 36 44  1  0  0  0  0
 36 37  2  0  0  0  0
  8  9  1  0  0  0  0
  9 17  1  0  0  0  0
  9 10  2  0  0  0  0
 18 19  1  0  0  0  0
 19 34  1  0  0  0  0
 19 20  2  0  0  0  0
 35 38  1  0  0  0  0
  8 11  1  0  0  0  0
 44 45  1  0  0  0  0
 18 21  1  0  0  0  0
 34 35  1  0  0  0  0
  7  8  1  0  0  0  0
 17 18  1  0  0  0  0
 24 32  1  0  0  0  0
 25 33  1  0  0  0  0
  3  4  1  0  0  0  0
  3  5  1  0  0  0  0
  3  6  1  0  0  0  0
 38 41  1  0  0  0  0
 38 42  1  0  0  0  0
 38 43  1  0  0  0  0
 11 14  1  0  0  0  0
 11 15  1  0  0  0  0
 11 16  1  0  0  0  0
 45 47  1  0  0  0  0
 45 48  1  0  0  0  0
 45 49  1  0  0  0  0
 21 29  1  0  0  0  0
 21 30  1  0  0  0  0
 35 40  1  0  0  0  0
  8 13  1  0  0  0  0
 18 28  1  0  0  0  0
 23 31  1  0  0  0  0
 44 46  1  0  0  0  0
  7 12  1  0  0  0  0
 34 39  1  0  0  0  0
 17 27  1  0  0  0  0
M  END
$$$$

  -OEChem-05262214473D

 49 49  0     1  0  0  0  0  0999 V2000
   -1.5619    0.5658    3.7981 C   0  0  0  0  0  0  0  0  0  0  0  0
   -0.6145   -0.0489    3.3224 O   0  0  0  0  0  0  0  0  0  0  0  0
   -1.9938    0.2834    5.1988 C   0  0  0  0  0  0  0  0  0  0  0  0
   -2.7535   -0.5129    5.2522 H   0  0  0  0  0  0  0  0  0  0  0  0
   -1.1626   -0.0642    5.8331 H   0  0  0  0  0  0  0  0  0  0  0  0
   -2.4318    1.1383    5.7384 H   0  0  0  0  0  0  0  0  0  0  0  0
   -2.3116    1.5383    3.1570 N   0  0  0  0  0  0  0  0  0  0  0  0
   -2.0648    1.9643    1.8046 C   0  0  2  0  0  0  0  0  0  0  0  0
   -0.7298    1.3789    1.3634 C   0  0  0  0  0  0  0  0  0  0  0  0
    0.1423    1.0262    2.1547 O   0  0  0  0  0  0  0  0  0  0  0  0
   -2.0560    3.4811    1.6952 C   0  0  0  0  0  0  0  0  0  0  0  0
   -3.0767    1.9741    3.6688 H   0  0  0  0  0  0  0  0  0  0  0  0
   -2.8689    1.5458    1.1895 H   0  0  0  0  0  0  0  0  0  0  0  0
   -1.2569    3.9183    2.3049 H   0  0  0  0  0  0  0  0  0  0  0  0
   -1.8965    3.8033    0.6609 H   0  0  0  0  0  0  0  0  0  0  0  0
   -3.0062    3.9023    2.0409 H   0  0  0  0  0  0  0  0  0  0  0  0
   -0.6071    1.3358   -0.0200 N   0  0  0  0  0  0  0  0  0  0  0  0
    0.5702    0.8350   -0.6836 C   0  0  2  0  0  0  0  0  0  0  0  0
    0.5424   -0.6847   -0.5657 C   0  0  0  0  0  0  0  0  0  0  0  0
    0.8258   -1.4335   -1.4983 O   0  0  0  0  0  0  0  0  0  0  0  0
    1.8607    1.3934   -0.0731 C   0  0  0  0  0  0  0  0  0  0  0  0
    1.9837    2.8888   -0.2352 C   0  0  0  0  0  0  0  0  0  0  0  0
    2.3047    3.4794   -1.4249 N   0  0  0  0  0  0  0  0  0  0  0  0
    1.8289    3.9331    0.6457 C   0  0  0  0  0  0  0  0  0  0  0  0
    2.3310    4.8306   -1.2179 C   0  0  0  0  0  0  0  0  0  0  0  0
    2.0461    5.1392    0.0278 N   0  0  0  0  0  0  0  0  0  0  0  0
   -1.3903    1.6325   -0.5973 H   0  0  0  0  0  0  0  0  0  0  0  0
    0.4764    1.1148   -1.7396 H   0  0  0  0  0  0  0  0  0  0  0  0
    2.7361    0.9005   -0.5173 H   0  0  0  0  0  0  0  0  0  0  0  0
    1.9110    1.1585    0.9984 H   0  0  0  0  0  0  0  0  0  0  0  0
    2.4907    3.0065   -2.2996 H   0  0  0  0  0  0  0  0  0  0  0  0
    1.5720    3.8804    1.6942 H   0  0  0  0  0  0  0  0  0  0  0  0
    2.5626    5.5284   -2.0099 H   0  0  0  0  0  0  0  0  0  0  0  0
    0.2124   -1.1003    0.7169 N   0  0  0  0  0  0  0  0  0  0  0  0
    0.1377   -2.4902    1.1061 C   0  0  2  0  0  0  0  0  0  0  0  0
   -0.7271   -3.2184    0.0856 C   0  0  0  0  0  0  0  0  0  0  0  0
   -1.5514   -2.6468   -0.6248 O   0  0  0  0  0  0  0  0  0  0  0  0
   -0.4313   -2.6423    2.5081 C   0  0  0  0  0  0  0  0  0  0  0  0
    0.0135   -0.3920    1.4172 H   0  0  0  0  0  0  0  0  0  0  0  0
    1.1590   -2.8846    1.0680 H   0  0  0  0  0  0  0  0  0  0  0  0
   -1.4542   -2.2526    2.5657 H   0  0  0  0  0  0  0  0  0  0  0  0
   -0.4607   -3.6938    2.8124 H   0  0  0  0  0  0  0  0  0  0  0  0
    0.1751   -2.0933    3.2365 H   0  0  0  0  0  0  0  0  0  0  0  0
   -0.5006   -4.5877    0.0920 N   0  0  0  0  0  0  0  0  0  0  0  0
   -1.2076   -5.4989   -0.7774 C   0  0  0  0  0  0  0  0  0  0  0  0
    0.2153   -4.9729    0.7009 H   0  0  0  0  0  0  0  0  0  0  0  0
   -2.0983   -5.8840   -0.2594 H   0  0  0  0  0  0  0  0  0  0  0  0
   -1.5152   -4.9694   -1.6911 H   0  0  0  0  0  0  0  0  0  0  0  0
   -0.5475   -6.3375   -1.0441 H   0  0  0  0  0  0  0  0  0  0  0  0
 22 24  2  0  0  0  0
 24 26  1  0  0  0  0
 25 26  2  0  0  0  0
 23 25  1  0  0  0  0
 21 22  1  0  0  0  0
 22 23  1  0  0  0  0
  1  3  1  0  0  0  0
  1  7  1  0  0  0  0
  1  2  2  0  0  0  0
 35 36  1  0  0  0  0
 36 44  1  0  0  0  0
 36 37  2  0  0  0  0
  8  9  1  0  0  0  0
  9 17  1  0  0  0  0
  9 10  2  0  0  0  0
 18 19  1  0  0  0  0
 19 34  1  0  0  0  0
 19 20  2  0  0  0  0
 35 38  1  0  0  0  0
  8 11  1  0  0  0  0
 44 45  1  0  0  0  0
 18 21  1  0  0  0  0
 34 35  1  0  0  0  0
  7  8  1  0  0  0  0
 17 18  1  0  0  0  0
 24 32  1  0  0  0  0
 25 33  1  0  0  0  0
  3  4  1  0  0  0  0
  3  5  1  0  0  0  0
  3  6  1  0  0  0  0
 38 41  1  0  0  0  0
 38 42  1  0  0  0  0
 38 43  1  0  0  0  0
 11 14  1  0  0  0  0
 11 15  1  0  0  0  0
 11 16  1  0  0  0  0
 45 47  1  0  0  0  0
 45 48  1  0  0  0  0
 45 49  1  0  0  0  0
 21 29  1  0  0  0  0
 21 30  1  0  0  0  0
 35 40  1  0  0  0  0
  8 13  1  0  0  0  0
 18 28  1  0  0  0  0
 23 31  1  0  0  0  0
 44 46  1  0  0  0  0
  7 12  1  0  0  0  0
 34 39  1  0  0  0  0
 17 27  1  0  0  0  0
M  END
$$$$

  -OEChem-05262214473D

 49 49  0     1  0  0  0  0  0999 V2000
   -1.5619    0.5658    3.7981 C   0  0  0  0  0  0  0  0  0  0  0  0
   -0.6145   -0.0489    3.3224 O   0  0  0  0  0  0  0  0  0  0  0  0
   -1.9938    0.2834    5.1988 C   0  0  0  0  0  0  0  0  0  0  0  0
   -2.7535   -0.5129    5.2522 H   0  0  0  0  0  0  0  0  0  0  0  0
   -1.1626   -0.0642    5.8331 H   0  0  0  0  0  0  0  0  0  0  0  0
   -2.4318    1.1383    5.7384 H   0  0  0  0  0  0  0  0  0  0  0  0
   -2.3116    1.5383    3.1570 N   0  0  0  0  0  0  0  0  0  0  0  0
   -2.0648    1.9643    1.8046 C   0  0  2  0  0  0  0  0  0  0  0  0
   -0.7298    1.3789    1.3634 C   0  0  0  0  0  0  0  0  0  0  0  0
    0.1423    1.0262    2.1547 O   0  0  0  0  0  0  0  0  0  0  0  0
   -2.0560    3.4811    1.6952 C   0  0  0  0  0  0  0  0  0  0  0  0
   -3.0767    1.9741    3.6688 H   0  0  0  0  0  0  0  0  0  0  0  0
   -2.8689    1.5458    1.1895 H   0  0  0  0  0  0  0  0  0  0  0  0
   -1.2569    3.9183    2.3049 H   0  0  0  0  0  0  0  0  0  0  0  0
   -1.8965    3.8033    0.6609 H   0  0  0  0  0  0  0  0  0  0  0  0
   -3.0062    3.9023    2.0409 H   0  0  0  0  0  0  0  0  0  0  0  0
   -0.6071    1.3358   -0.0200 N   0  0  0  0  0  0  0  0  0  0  0  0
    0.5702    0.8350   -0.6836 C   0  0  2  0  0  0  0  0  0  0  0  0
    0.5424   -0.6847   -0.5657 C   0  0  0  0  0  0  0  0  0  0  0  0
    1.0713   -1.4295   -1.3881 O   0  0  0  0  0  0  0  0  0  0  0  0
    1.8607    1.3934   -0.0731 C   0  0  0  0  0  0  0  0  0  0  0  0
    1.9837    2.8888   -0.2352 C   0  0  0  0  0  0  0  0  0  0  0  0
    2.3047    3.4794   -1.4249 N   0  0  0  0  0  0  0  0  0  0  0  0
    1.8289    3.9331    0.6457 C   0  0  0  0  0  0  0  0  0  0  0  0
    2.3310    4.8306   -1.2179 C   0  0  0  0  0  0  0  0  0  0  0  0
    2.0461    5.1392    0.0278 N   0  0  0  0  0  0  0  0  0  0  0  0
   -1.3903    1.6325   -0.5973 H   0  0  0  0  0  0  0  0  0  0  0  0
    0.4764    1.1148   -1.7396 H   0  0  0  0  0  0  0  0  0  0  0  0
    2.7361    0.9005   -0.5173 H   0  0  0  0  0  0  0  0  0  0  0  0
    1.9110    1.1585    0.9984 H   0  0  0  0  0  0  0  0  0  0  0  0
    2.4907    3.0065   -2.2996 H   0  0  0  0  0  0  0  0  0  0  0  0
    1.5720    3.8804    1.6942 H   0  0  0  0  0  0  0  0  0  0  0  0
    2.5626    5.5284   -2.0099 H   0  0  0  0  0  0  0  0  0  0  0  0
   -0.0992   -1.1043    0.5914 N   0  0  0  0  0  0  0  0  0  0  0  0
   -0.2449   -2.4946    0.9583 C   0  0  2  0  0  0  0  0  0  0  0  0
   -0.8027   -3.2427   -0.2453 C   0  0  0  0  0  0  0  0  0  0  0  0
   -1.4268   -2.6898   -1.1485 O   0  0  0  0  0  0  0  0  0  0  0  0
   -1.1533   -2.6556    2.1672 C   0  0  0  0  0  0  0  0  0  0  0  0
   -0.4858   -0.3988    1.2115 H   0  0  0  0  0  0  0  0  0  0  0  0
    0.7591   -2.8680    1.1879 H   0  0  0  0  0  0  0  0  0  0  0  0
   -2.1638   -2.2869    1.9562 H   0  0  0  0  0  0  0  0  0  0  0  0
   -1.2398   -3.7068    2.4614 H   0  0  0  0  0  0  0  0  0  0  0  0
   -0.7662   -2.0926    3.0234 H   0  0  0  0  0  0  0  0  0  0  0  0
   -0.5590   -4.6070   -0.1706 N   0  0  0  0  0  0  0  0  0  0  0  0
   -0.9999   -5.5344   -1.1862 C   0  0  0  0  0  0  0  0  0  0  0  0
   -0.0171   -4.9761    0.6052 H   0  0  0  0  0  0  0  0  0  0  0  0
   -1.9865   -5.9368   -0.9128 H   0  0  0  0  0  0  0  0  0  0  0  0
   -1.0715   -5.0133   -2.1523 H   0  0  0  0  0  0  0  0  0  0  0  0
   -0.2772   -6.3597   -1.2675 H   0  0  0  0  0  0  0  0  0  0  0  0
 22 24  2  0  0  0  0
 24 26  1  0  0  0  0
 25 26  2  0  0  0  0
 23 25  1  0  0  0  0
 21 22  1  0  0  0  0
 22 23  1  0  0  0  0
  1  3  1  0  0  0  0
  1  7  1  0  0  0  0
  1  2  2  0  0  0  0
 35 36  1  0  0  0  0
 36 44  1  0  0  0  0
 36 37  2  0  0  0  0
  8  9  1  0  0  0  0
  9 17  1  0  0  0  0
  9 10  2  0  0  0  0
 18 19  1  0  0  0  0
 19 34  1  0  0  0  0
 19 20  2  0  0  0  0
 35 38  1  0  0  0  0
  8 11  1  0  0  0  0
 44 45  1  0  0  0  0
 18 21  1  0  0  0  0
 34 35  1  0  0  0  0
  7  8  1  0  0  0  0
 17 18  1  0  0  0  0
 24 32  1  0  0  0  0
 25 33  1  0  0  0  0
  3  4  1  0  0  0  0
  3  5  1  0  0  0  0
  3  6  1  0  0  0  0
 38 41  1  0  0  0  0
 38 42  1  0  0  0  0
 38 43  1  0  0  0  0
 11 14  1  0  0  0  0
 11 15  1  0  0  0  0
 11 16  1  0  0  0  0
 45 47  1  0  0  0  0
 45 48  1  0  0  0  0
 45 49  1  0  0  0  0
 21 29  1  0  0  0  0
 21 30  1  0  0  0  0
 35 40  1  0  0  0  0
  8 13  1  0  0  0  0
 18 28  1  0  0  0  0
 23 31  1  0  0  0  0
 44 46  1  0  0  0  0
  7 12  1  0  0  0  0
 34 39  1  0  0  0  0
 17 27  1  0  0  0  0
M  END
$$$$

  -OEChem-05262214473D

 49 49  0     1  0  0  0  0  0999 V2000
   -1.5619    0.5658    3.7981 C   0  0  0  0  0  0  0  0  0  0  0  0
   -0.6145   -0.0489    3.3224 O   0  0  0  0  0  0  0  0  0  0  0  0
   -1.9938    0.2834    5.1988 C   0  0  0  0  0  0  0  0  0  0  0  0
   -2.7535   -0.5129    5.2522 H   0  0  0  0  0  0  0  0  0  0  0  0
   -1.1626   -0.0642    5.8331 H   0  0  0  0  0  0  0  0  0  0  0  0
   -2.4318    1.1383    5.7384 H   0  0  0  0  0  0  0  0  0  0  0  0
   -2.3116    1.5383    3.1570 N   0  0  0  0  0  0  0  0  0  0  0  0
   -2.0648    1.9643    1.8046 C   0  0  2  0  0  0  0  0  0  0  0  0
   -0.7298    1.3789    1.3634 C   0  0  0  0  0  0  0  0  0  0  0  0
    0.1423    1.0262    2.1547 O   0  0  0  0  0  0  0  0  0  0  0  0
   -2.0560    3.4811    1.6952 C   0  0  0  0  0  0  0  0  0  0  0  0
   -3.0767    1.9741    3.6688 H   0  0  0  0  0  0  0  0  0  0  0  0
   -2.8689    1.5458    1.1895 H   0  0  0  0  0  0  0  0  0  0  0  0
   -1.2569    3.9183    2.3049 H   0  0  0  0  0  0  0  0  0  0  0  0
   -1.8965    3.8033    0.6609 H   0  0  0  0  0  0  0  0  0  0  0  0
   -3.0062    3.9023    2.0409 H   0  0  0  0  0  0  0  0  0  0  0  0
   -0.6071    1.3358   -0.0200 N   0  0  0  0  0  0  0  0  0  0  0  0
    0.5702    0.8350   -0.6836 C   0  0  2  0  0  0  0  0  0  0  0  0
    0.5424   -0.6847   -0.5657 C   0  0  0  0  0  0  0  0  0  0  0  0
    1.2800   -1.4201   -1.2183 O   0  0  0  0  0  0  0  0  0  0  0  0
    1.8607    1.3934   -0.0731 C   0  0  0  0  0  0  0  0  0  0  0  0
    1.9837    2.8888   -0.2352 C   0  0  0  0  0  0  0  0  0  0  0  0
    2.3047    3.4794   -1.4249 N   0  0  0  0  0  0  0  0  0  0  0  0
    1.8289    3.9331    0.6457 C   0  0  0  0  0  0  0  0  0  0  0  0
    2.3310    4.8306   -1.2179 C   0  0  0  0  0  0  0  0  0  0  0  0
    2.0461    5.1392    0.0278 N   0  0  0  0  0  0  0  0  0  0  0  0
   -1.3903    1.6325   -0.5973 H   0  0  0  0  0  0  0  0  0  0  0  0
    0.4764    1.1148   -1.7396 H   0  0  0  0  0  0  0  0  0  0  0  0
    2.7361    0.9005   -0.5173 H   0  0  0  0  0  0  0  0  0  0  0  0
    1.9110    1.1585    0.9984 H   0  0  0  0  0  0  0  0  0  0  0  0
    2.4907    3.0065   -2.2996 H   0  0  0  0  0  0  0  0  0  0  0  0
    1.5720    3.8804    1.6942 H   0  0  0  0  0  0  0  0  0  0  0  0
    2.5626    5.5284   -2.0099 H   0  0  0  0  0  0  0  0  0  0  0  0
   -0.3678   -1.1151    0.3898 N   0  0  0  0  0  0  0  0  0  0  0  0
   -0.5762   -2.5073    0.7170 C   0  0  2  0  0  0  0  0  0  0  0  0
   -0.7899   -3.2693   -0.5843 C   0  0  0  0  0  0  0  0  0  0  0  0
   -1.1704   -2.7312   -1.6220 O   0  0  0  0  0  0  0  0  0  0  0  0
   -1.7625   -2.6845    1.6518 C   0  0  0  0  0  0  0  0  0  0  0  0
   -0.9149   -0.4164    0.8840 H   0  0  0  0  0  0  0  0  0  0  0  0
    0.3416   -2.8594    1.2005 H   0  0  0  0  0  0  0  0  0  0  0  0
   -2.6913   -2.3372    1.1845 H   0  0  0  0  0  0  0  0  0  0  0  0
   -1.9016   -3.7366    1.9214 H   0  0  0  0  0  0  0  0  0  0  0  0
   -1.6204   -2.1118    2.5746 H   0  0  0  0  0  0  0  0  0  0  0  0
   -0.5473   -4.6281   -0.4392 N   0  0  0  0  0  0  0  0  0  0  0  0
   -0.6931   -5.5665   -1.5274 C   0  0  0  0  0  0  0  0  0  0  0  0
   -0.2169   -4.9843    0.4528 H   0  0  0  0  0  0  0  0  0  0  0  0
   -1.7088   -5.9886   -1.5147 H   0  0  0  0  0  0  0  0  0  0  0  0
   -0.5231   -5.0490   -2.4830 H   0  0  0  0  0  0  0  0  0  0  0  0
    0.0420   -6.3769   -1.4134 H   0  0  0  0  0  0  0  0  0  0  0  0
 22 24  2  0  0  0  0
 24 26  1  0  0  0  0
 25 26  2  0  0  0  0
 23 25  1  0  0  0  0
 21 22  1  0  0  0  0
 22 23  1  0  0  0  0
  1  3  1  0  0  0  0
  1  7  1  0  0  0  0
  1  2  2  0  0  0  0
 35 36  1  0  0  0  0
 36 44  1  0  0  0  0
 36 37  2  0  0  0  0
  8  9  1  0  0  0  0
  9 17  1  0  0  0  0
  9 10  2  0  0  0  0
 18 19  1  0  0  0  0
 19 34  1  0  0  0  0
 19 20  2  0  0  0  0
 35 38  1  0  0  0  0
  8 11  1  0  0  0  0
 44 45  1  0  0  0  0
 18 21  1  0  0  0  0
 34 35  1  0  0  0  0
  7  8  1  0  0  0  0
 17 18  1  0  0  0  0
 24 32  1  0  0  0  0
 25 33  1  0  0  0  0
  3  4  1  0  0  0  0
  3  5  1  0  0  0  0
  3  6  1  0  0  0  0
 38 41  1  0  0  0  0
 38 42  1  0  0  0  0
 38 43  1  0  0  0  0
 11 14  1  0  0  0  0
 11 15  1  0  0  0  0
 11 16  1  0  0  0  0
 45 47  1  0  0  0  0
 45 48  1  0  0  0  0
 45 49  1  0  0  0  0
 21 29  1  0  0  0  0
 21 30  1  0  0  0  0
 35 40  1  0  0  0  0
  8 13  1  0  0  0  0
 18 28  1  0  0  0  0
 23 31  1  0  0  0  0
 44 46  1  0  0  0  0
  7 12  1  0  0  0  0
 34 39  1  0  0  0  0
 17 27  1  0  0  0  0
M  END
$$$$

  -OEChem-05262214473D

 49 49  0     1  0  0  0  0  0999 V2000
   -1.5619    0.5658    3.7981 C   0  0  0  0  0  0  0  0  0  0  0  0
   -0.6145   -0.0489    3.3224 O   0  0  0  0  0  0  0  0  0  0  0  0
   -1.9938    0.2834    5.1988 C   0  0  0  0  0  0  0  0  0  0  0  0
   -2.7535   -0.5129    5.2522 H   0  0  0  0  0  0  0  0  0  0  0  0
   -1.1626   -0.0642    5.8331 H   0  0  0  0  0  0  0  0  0  0  0  0
   -2.4318    1.1383    5.7384 H   0  0  0  0  0  0  0  0  0  0  0  0
   -2.3116    1.5383    3.1570 N   0  0  0  0  0  0  0  0  0  0  0  0
   -2.0648    1.9643    1.8046 C   0  0  2  0  0  0  0  0  0  0  0  0
   -0.7298    1.3789    1.3634 C   0  0  0  0  0  0  0  0  0  0  0  0
    0.1423    1.0262    2.1547 O   0  0  0  0  0  0  0  0  0  0  0  0
   -2.0560    3.4811    1.6952 C   0  0  0  0  0  0  0  0  0  0  0  0
   -3.0767    1.9741    3.6688 H   0  0  0  0  0  0  0  0  0  0  0  0
   -2.8689    1.5458    1.1895 H   0  0  0  0  0  0  0  0  0  0  0  0
   -1.2569    3.9183    2.3049 H   0  0  0  0  0  0  0  0  0  0  0  0
   -1.8965    3.8033    0.6609 H   0  0  0  0  0  0  0  0  0  0  0  0
   -3.0062    3.9023    2.0409 H   0  0  0  0  0  0  0  0  0  0  0  0
   -0.6071    1.3358   -0.0200 N   0  0  0  0  0  0  0  0  0  0  0  0
    0.5702    0.8350   -0.6836 C   0  0  2  0  0  0  0  0  0  0  0  0
    0.5424   -0.6847   -0.5657 C   0  0  0  0  0  0  0  0  0  0  0  0
    1.4376   -1.4061   -1.0005 O   0  0  0  0  0  0  0  0  0  0  0  0
    1.8607    1.3934   -0.0731 C   0  0  0  0  0  0  0  0  0  0  0  0
    1.9837    2.8888   -0.2352 C   0  0  0  0  0  0  0  0  0  0  0  0
    2.3047    3.4794   -1.4249 N   0  0  0  0  0  0  0  0  0  0  0  0
    1.8289    3.9331    0.6457 C   0  0  0  0  0  0  0  0  0  0  0  0
    2.3310    4.8306   -1.2179 C   0  0  0  0  0  0  0  0  0  0  0  0
    2.0461    5.1392    0.0278 N   0  0  0  0  0  0  0  0  0  0  0  0
   -1.3903    1.6325   -0.5973 H   0  0  0  0  0  0  0  0  0  0  0  0
    0.4764    1.1148   -1.7396 H   0  0  0  0  0  0  0  0  0  0  0  0
    2.7361    0.9005   -0.5173 H   0  0  0  0  0  0  0  0  0  0  0  0
    1.9110    1.1585    0.9984 H   0  0  0  0  0  0  0  0  0  0  0  0
    2.4907    3.0065   -2.2996 H   0  0  0  0  0  0  0  0  0  0  0  0
    1.5720    3.8804    1.6942 H   0  0  0  0  0  0  0  0  0  0  0  0
    2.5626    5.5284   -2.0099 H   0  0  0  0  0  0  0  0  0  0  0  0
   -0.5750   -1.1318    0.1258 N   0  0  0  0  0  0  0  0  0  0  0  0
   -0.8337   -2.5273    0.3984 C   0  0  2  0  0  0  0  0  0  0  0  0
   -0.6895   -3.2963   -0.9083 C   0  0  0  0  0  0  0  0  0  0  0  0
   -0.7997   -2.7684   -2.0129 O   0  0  0  0  0  0  0  0  0  0  0  0
   -2.2174   -2.7270    0.9968 C   0  0  0  0  0  0  0  0  0  0  0  0
   -1.2446   -0.4435    0.4570 H   0  0  0  0  0  0  0  0  0  0  0  0
   -0.0651   -2.8593    1.1049 H   0  0  0  0  0  0  0  0  0  0  0  0
   -3.0007   -2.3999    0.3033 H   0  0  0  0  0  0  0  0  0  0  0  0
   -2.4008   -3.7812    1.2292 H   0  0  0  0  0  0  0  0  0  0  0  0
   -2.3294   -2.1496    1.9209 H   0  0  0  0  0  0  0  0  0  0  0  0
   -0.4663   -4.6495   -0.6956 N   0  0  0  0  0  0  0  0  0  0  0  0
   -0.3081   -5.5930   -1.7776 C   0  0  0  0  0  0  0  0  0  0  0  0
   -0.3704   -4.9969    0.2540 H   0  0  0  0  0  0  0  0  0  0  0  0
   -1.2843   -6.0359   -2.0243 H   0  0  0  0  0  0  0  0  0  0  0  0
    0.0927   -5.0741   -2.6608 H   0  0  0  0  0  0  0  0  0  0  0  0
    0.3883   -6.3878   -1.4719 H   0  0  0  0  0  0  0  0  0  0  0  0
 22 24  2  0  0  0  0
 24 26  1  0  0  0  0
 25 26  2  0  0  0  0
 23 25  1  0  0  0  0
 21 22  1  0  0  0  0
 22 23  1  0  0  0  0
  1  3  1  0  0  0  0
  1  7  1  0  0  0  0
  1  2  2  0  0  0  0
 35 36  1  0  0  0  0
 36 44  1  0  0  0  0
 36 37  2  0  0  0  0
  8  9  1  0  0  0  0
  9 17  1  0  0  0  0
  9 10  2  0  0  0  0
 18 19  1  0  0  0  0
 19 34  1  0  0  0  0
 19 20  2  0  0  0  0
 35 38  1  0  0  0  0
  8 11  1  0  0  0  0
 44 45  1  0  0  0  0
 18 21  1  0  0  0  0
 34 35  1  0  0  0  0
  7  8  1  0  0  0  0
 17 18  1  0  0  0  0
 24 32  1  0  0  0  0
 25 33  1  0  0  0  0
  3  4  1  0  0  0  0
  3  5  1  0  0  0  0
  3  6  1  0  0  0  0
 38 41  1  0  0  0  0
 38 42  1  0  0  0  0
 38 43  1  0  0  0  0
 11 14  1  0  0  0  0
 11 15  1  0  0  0  0
 11 16  1  0  0  0  0
 45 47  1  0  0  0  0
 45 48  1  0  0  0  0
 45 49  1  0  0  0  0
 21 29  1  0  0  0  0
 21 30  1  0  0  0  0
 35 40  1  0  0  0  0
  8 13  1  0  0  0  0
 18 28  1  0  0  0  0
 23 31  1  0  0  0  0
 44 46  1  0  0  0  0
  7 12  1  0  0  0  0
 34 39  1  0  0  0  0
 17 27  1  0  0  0  0
M  END
$$$$

  -OEChem-05262214473D

 49 49  0     1  0  0  0  0  0999 V2000
   -1.5619    0.5658    3.7981 C   0  0  0  0  0  0  0  0  0  0  0  0
   -0.6145   -0.0489    3.3224 O   0  0  0  0  0  0  0  0  0  0  0  0
   -1.9938    0.2834    5.1988 C   0  0  0  0  0  0  0  0  0  0  0  0
   -2.7535   -0.5129    5.2522 H   0  0  0  0  0  0  0  0  0  0  0  0
   -1.1626   -0.0642    5.8331 H   0  0  0  0  0  0  0  0  0  0  0  0
   -2.4318    1.1383    5.7384 H   0  0  0  0  0  0  0  0  0  0  0  0
   -2.3116    1.5383    3.1570 N   0  0  0  0  0  0  0  0  0  0  0  0
   -2.0648    1.9643    1.8046 C   0  0  2  0  0  0  0  0  0  0  0  0
   -0.7298    1.3789    1.3634 C   0  0  0  0  0  0  0  0  0  0  0  0
    0.1423    1.0262    2.1547 O   0  0  0  0  0  0  0  0  0  0  0  0
   -2.0560    3.4811    1.6952 C   0  0  0  0  0  0  0  0  0  0  0  0
   -3.0767    1.9741    3.6688 H   0  0  0  0  0  0  0  0  0  0  0  0
   -2.8689    1.5458    1.1895 H   0  0  0  0  0  0  0  0  0  0  0  0
   -1.2569    3.9183    2.3049 H   0  0  0  0  0  0  0  0  0  0  0  0
   -1.8965    3.8033    0.6609 H   0  0  0  0  0  0  0  0  0  0  0  0
   -3.0062    3.9023    2.0409 H   0  0  0  0  0  0  0  0  0  0  0  0
   -0.6071    1.3358   -0.0200 N   0  0  0  0  0  0  0  0  0  0  0  0
    0.5702    0.8350   -0.6836 C   0  0  2  0  0  0  0  0  0  0  0  0
    0.5424   -0.6847   -0.5657 C   0  0  0  0  0  0  0  0  0  0  0  0
    1.5333   -1.3883   -0.7495 O   0  0  0  0  0  0  0  0  0  0  0  0
    1.8607    1.3934   -0.0731 C   0  0  0  0  0  0  0  0  0  0  0  0
    1.9837    2.8888   -0.2352 C   0  0  0  0  0  0  0  0  0  0  0  0
    2.3047    3.4794   -1.4249 N   0  0  0  0  0  0  0  0  0  0  0  0
    1.8289    3.9331    0.6457 C   0  0  0  0  0  0  0  0  0  0  0  0
    2.3310    4.8306   -1.2179 C   0  0  0  0  0  0  0  0  0  0  0  0
    2.0461    5.1392    0.0278 N   0  0  0  0  0  0  0  0  0  0  0  0
   -1.3903    1.6325   -0.5973 H   0  0  0  0  0  0  0  0  0  0  0  0
    0.4764    1.1148   -1.7396 H   0  0  0  0  0  0  0  0  0  0  0  0
    2.7361    0.9005   -0.5173 H   0  0  0  0  0  0  0  0  0  0  0  0
    1.9110    1.1585    0.9984 H   0  0  0  0  0  0  0  0  0  0  0  0
    2.4907    3.0065   -2.2996 H   0  0  0  0  0  0  0  0  0  0  0  0
    1.5720    3.8804    1.6942 H   0  0  0  0  0  0  0  0  0  0  0  0
    2.5626    5.5284   -2.0099 H   0  0  0  0  0  0  0  0  0  0  0  0
   -0.7067   -1.1533   -0.1825 N   0  0  0  0  0  0  0  0  0  0  0  0
   -0.9998   -2.5533    0.0243 C   0  0  2  0  0  0  0  0  0  0  0  0
   -0.5085   -3.3219   -1.1953 C   0  0  0  0  0  0  0  0  0  0  0  0
   -0.3401   -2.7987   -2.2948 O   0  0  0  0  0  0  0  0  0  0  0  0
   -2.4869   -2.7803    0.2470 C   0  0  0  0  0  0  0  0  0  0  0  0
   -1.4523   -0.4783   -0.0404 H   0  0  0  0  0  0  0  0  0  0  0  0
   -0.4333   -2.8679    0.9076 H   0  0  0  0  0  0  0  0  0  0  0  0
   -3.0709   -2.4709   -0.6275 H   0  0  0  0  0  0  0  0  0  0  0  0
   -2.7036   -3.8376    0.4319 H   0  0  0  0  0  0  0  0  0  0  0  0
   -2.8448   -2.2034    1.1066 H   0  0  0  0  0  0  0  0  0  0  0  0
   -0.3214   -4.6697   -0.9223 N   0  0  0  0  0  0  0  0  0  0  0  0
    0.1289   -5.6121   -1.9198 C   0  0  0  0  0  0  0  0  0  0  0  0
   -0.4671   -5.0131    0.0225 H   0  0  0  0  0  0  0  0  0  0  0  0
   -0.7418   -6.0756   -2.4067 H   0  0  0  0  0  0  0  0  0  0  0  0
    0.7339   -5.0868   -2.6736 H   0  0  0  0  0  0  0  0  0  0  0  0
    0.7381   -6.3916   -1.4390 H   0  0  0  0  0  0  0  0  0  0  0  0
 22 24  2  0  0  0  0
 24 26  1  0  0  0  0
 25 26  2  0  0  0  0
 23 25  1  0  0  0  0
 21 22  1  0  0  0  0
 22 23  1  0  0  0  0
  1  3  1  0  0  0  0
  1  7  1  0  0  0  0
  1  2  2  0  0  0  0
 35 36  1  0  0  0  0
 36 44  1  0  0  0  0
 36 37  2  0  0  0  0
  8  9  1  0  0  0  0
  9 17  1  0  0  0  0
  9 10  2  0  0  0  0
 18 19  1  0  0  0  0
 19 34  1  0  0  0  0
 19 20  2  0  0  0  0
 35 38  1  0  0  0  0
  8 11  1  0  0  0  0
 44 45  1  0  0  0  0
 18 21  1  0  0  0  0
 34 35  1  0  0  0  0
  7  8  1  0  0  0  0
 17 18  1  0  0  0  0
 24 32  1  0  0  0  0
 25 33  1  0  0  0  0
  3  4  1  0  0  0  0
  3  5  1  0  0  0  0
  3  6  1  0  0  0  0
 38 41  1  0  0  0  0
 38 42  1  0  0  0  0
 38 43  1  0  0  0  0
 11 14  1  0  0  0  0
 11 15  1  0  0  0  0
 11 16  1  0  0  0  0
 45 47  1  0  0  0  0
 45 48  1  0  0  0  0
 45 49  1  0  0  0  0
 21 29  1  0  0  0  0
 21 30  1  0  0  0  0
 35 40  1  0  0  0  0
  8 13  1  0  0  0  0
 18 28  1  0  0  0  0
 23 31  1  0  0  0  0
 44 46  1  0  0  0  0
  7 12  1  0  0  0  0
 34 39  1  0  0  0  0
 17 27  1  0  0  0  0
M  END
$$$$

  -OEChem-05262214473D

 49 49  0     1  0  0  0  0  0999 V2000
   -1.5619    0.5658    3.7981 C   0  0  0  0  0  0  0  0  0  0  0  0
   -0.6145   -0.0489    3.3224 O   0  0  0  0  0  0  0  0  0  0  0  0
   -1.9938    0.2834    5.1988 C   0  0  0  0  0  0  0  0  0  0  0  0
   -2.7535   -0.5129    5.2522 H   0  0  0  0  0  0  0  0  0  0  0  0
   -1.1626   -0.0642    5.8331 H   0  0  0  0  0  0  0  0  0  0  0  0
   -2.4318    1.1383    5.7384 H   0  0  0  0  0  0  0  0  0  0  0  0
   -2.3116    1.5383    3.1570 N   0  0  0  0  0  0  0  0  0  0  0  0
   -2.0648    1.9643    1.8046 C   0  0  2  0  0  0  0  0  0  0  0  0
   -0.7298    1.3789    1.3634 C   0  0  0  0  0  0  0  0  0  0  0  0
    0.1423    1.0262    2.1547 O   0  0  0  0  0  0  0  0  0  0  0  0
   -2.0560    3.4811    1.6952 C   0  0  0  0  0  0  0  0  0  0  0  0
   -3.0767    1.9741    3.6688 H   0  0  0  0  0  0  0  0  0  0  0  0
   -2.8689    1.5458    1.1895 H   0  0  0  0  0  0  0  0  0  0  0  0
   -1.2569    3.9183    2.3049 H   0  0  0  0  0  0  0  0  0  0  0  0
   -1.8965    3.8033    0.6609 H   0  0  0  0  0  0  0  0  0  0  0  0
   -3.0062    3.9023    2.0409 H   0  0  0  0  0  0  0  0  0  0  0  0
   -0.6071    1.3358   -0.0200 N   0  0  0  0  0  0  0  0  0  0  0  0
    0.5702    0.8350   -0.6836 C   0  0  2  0  0  0  0  0  0  0  0  0
    0.5424   -0.6847   -0.5657 C   0  0  0  0  0  0  0  0  0  0  0  0
    1.5606   -1.3681   -0.4825 O   0  0  0  0  0  0  0  0  0  0  0  0
    1.8607    1.3934   -0.0731 C   0  0  0  0  0  0  0  0  0  0  0  0
    1.9837    2.8888   -0.2352 C   0  0  0  0  0  0  0  0  0  0  0  0
    2.3047    3.4794   -1.4249 N   0  0  0  0  0  0  0  0  0  0  0  0
    1.8289    3.9331    0.6457 C   0  0  0  0  0  0  0  0  0  0  0  0
    2.3310    4.8306   -1.2179 C   0  0  0  0  0  0  0  0  0  0  0  0
    2.0461    5.1392    0.0278 N   0  0  0  0  0  0  0  0  0  0  0  0
   -1.3903    1.6325   -0.5973 H   0  0  0  0  0  0  0  0  0  0  0  0
    0.4764    1.1148   -1.7396 H   0  0  0  0  0  0  0  0  0  0  0  0
    2.7361    0.9005   -0.5173 H   0  0  0  0  0  0  0  0  0  0  0  0
    1.9110    1.1585    0.9984 H   0  0  0  0  0  0  0  0  0  0  0  0
    2.4907    3.0065   -2.2996 H   0  0  0  0  0  0  0  0  0  0  0  0
    1.5720    3.8804    1.6942 H   0  0  0  0  0  0  0  0  0  0  0  0
    2.5626    5.5284   -2.0099 H   0  0  0  0  0  0  0  0  0  0  0  0
   -0.7539   -1.1782   -0.5142 N   0  0  0  0  0  0  0  0  0  0  0  0
   -1.0632   -2.5835   -0.3797 C   0  0  2  0  0  0  0  0  0  0  0  0
   -0.2590   -3.3443   -1.4256 C   0  0  0  0  0  0  0  0  0  0  0  0
    0.1772   -2.8201   -2.4483 O   0  0  0  0  0  0  0  0  0  0  0  0
   -2.5528   -2.8407   -0.5465 C   0  0  0  0  0  0  0  0  0  0  0  0
   -1.5239   -0.5184   -0.5742 H   0  0  0  0  0  0  0  0  0  0  0  0
   -0.7378   -2.8845    0.6221 H   0  0  0  0  0  0  0  0  0  0  0  0
   -2.8972   -2.5453   -1.5443 H   0  0  0  0  0  0  0  0  0  0  0  0
   -2.7893   -3.9018   -0.4160 H   0  0  0  0  0  0  0  0  0  0  0  0
   -3.1315   -2.2695    0.1874 H   0  0  0  0  0  0  0  0  0  0  0  0
   -0.1226   -4.6874   -1.1037 N   0  0  0  0  0  0  0  0  0  0  0  0
    0.5881   -5.6224   -1.9444 C   0  0  0  0  0  0  0  0  0  0  0  0
   -0.5005   -5.0318   -0.2259 H   0  0  0  0  0  0  0  0  0  0  0  0
   -0.1183   -6.1048   -2.6360 H   0  0  0  0  0  0  0  0  0  0  0  0
    1.3568   -5.0863   -2.5204 H   0  0  0  0  0  0  0  0  0  0  0  0
    1.0676   -6.3882   -1.3170 H   0  0  0  0  0  0  0  0  0  0  0  0
 22 24  2  0  0  0  0
 24 26  1  0  0  0  0
 25 26  2  0  0  0  0
 23 25  1  0  0  0  0
 21 22  1  0  0  0  0
 22 23  1  0  0  0  0
  1  3  1  0  0  0  0
  1  7  1  0  0  0  0
  1  2  2  0  0  0  0
 35 36  1  0  0  0  0
 36 44  1  0  0  0  0
 36 37  2  0  0  0  0
  8  9  1  0  0  0  0
  9 17  1  0  0  0  0
  9 10  2  0  0  0  0
 18 19  1  0  0  0  0
 19 34  1  0  0  0  0
 19 20  2  0  0  0  0
 35 38  1  0  0  0  0
  8 11  1  0  0  0  0
 44 45  1  0  0  0  0
 18 21  1  0  0  0  0
 34 35  1  0  0  0  0
  7  8  1  0  0  0  0
 17 18  1  0  0  0  0
 24 32  1  0  0  0  0
 25 33  1  0  0  0  0
  3  4  1  0  0  0  0
  3  5  1  0  0  0  0
  3  6  1  0  0  0  0
 38 41  1  0  0  0  0
 38 42  1  0  0  0  0
 38 43  1  0  0  0  0
 11 14  1  0  0  0  0
 11 15  1  0  0  0  0
 11 16  1  0  0  0  0
 45 47  1  0  0  0  0
 45 48  1  0  0  0  0
 45 49  1  0  0  0  0
 21 29  1  0  0  0  0
 21 30  1  0  0  0  0
 35 40  1  0  0  0  0
  8 13  1  0  0  0  0
 18 28  1  0  0  0  0
 23 31  1  0  0  0  0
 44 46  1  0  0  0  0
  7 12  1  0  0  0  0
 34 39  1  0  0  0  0
 17 27  1  0  0  0  0
M  END
$$$$

  -OEChem-05262214473D

 49 49  0     1  0  0  0  0  0999 V2000
   -1.5619    0.5658    3.7981 C   0  0  0  0  0  0  0  0  0  0  0  0
   -0.6145   -0.0489    3.3224 O   0  0  0  0  0  0  0  0  0  0  0  0
   -1.9938    0.2834    5.1988 C   0  0  0  0  0  0  0  0  0  0  0  0
   -2.7535   -0.5129    5.2522 H   0  0  0  0  0  0  0  0  0  0  0  0
   -1.1626   -0.0642    5.8331 H   0  0  0  0  0  0  0  0  0  0  0  0
   -2.4318    1.1383    5.7384 H   0  0  0  0  0  0  0  0  0  0  0  0
   -2.3116    1.5383    3.1570 N   0  0  0  0  0  0  0  0  0  0  0  0
   -2.0648    1.9643    1.8046 C   0  0  2  0  0  0  0  0  0  0  0  0
   -0.7298    1.3789    1.3634 C   0  0  0  0  0  0  0  0  0  0  0  0
    0.1423    1.0262    2.1547 O   0  0  0  0  0  0  0  0  0  0  0  0
   -2.0560    3.4811    1.6952 C   0  0  0  0  0  0  0  0  0  0  0  0
   -3.0767    1.9741    3.6688 H   0  0  0  0  0  0  0  0  0  0  0  0
   -2.8689    1.5458    1.1895 H   0  0  0  0  0  0  0  0  0  0  0  0
   -1.2569    3.9183    2.3049 H   0  0  0  0  0  0  0  0  0  0  0  0
   -1.8965    3.8033    0.6609 H   0  0  0  0  0  0  0  0  0  0  0  0
   -3.0062    3.9023    2.0409 H   0  0  0  0  0  0  0  0  0  0  0  0
   -0.6071    1.3358   -0.0200 N   0  0  0  0  0  0  0  0  0  0  0  0
    0.5702    0.8350   -0.6836 C   0  0  2  0  0  0  0  0  0  0  0  0
    0.5424   -0.6847   -0.5657 C   0  0  0  0  0  0  0  0  0  0  0  0
    1.5178   -1.3468   -0.2177 O   0  0  0  0  0  0  0  0  0  0  0  0
    1.8607    1.3934   -0.0731 C   0  0  0  0  0  0  0  0  0  0  0  0
    1.9837    2.8888   -0.2352 C   0  0  0  0  0  0  0  0  0  0  0  0
    2.3047    3.4794   -1.4249 N   0  0  0  0  0  0  0  0  0  0  0  0
    1.8289    3.9331    0.6457 C   0  0  0  0  0  0  0  0  0  0  0  0
    2.3310    4.8306   -1.2179 C   0  0  0  0  0  0  0  0  0  0  0  0
    2.0461    5.1392    0.0278 N   0  0  0  0  0  0  0  0  0  0  0  0
   -1.3903    1.6325   -0.5973 H   0  0  0  0  0  0  0  0  0  0  0  0
    0.4764    1.1148   -1.7396 H   0  0  0  0  0  0  0  0  0  0  0  0
    2.7361    0.9005   -0.5173 H   0  0  0  0  0  0  0  0  0  0  0  0
    1.9110    1.1585    0.9984 H   0  0  0  0  0  0  0  0  0  0  0  0
    2.4907    3.0065   -2.2996 H   0  0  0  0  0  0  0  0  0  0  0  0
    1.5720    3.8804    1.6942 H   0  0  0  0  0  0  0  0  0  0  0  0
    2.5626    5.5284   -2.0099 H   0  0  0  0  0  0  0  0  0  0  0  0
   -0.7134   -1.2048   -0.8467 N   0  0  0  0  0  0  0  0  0  0  0  0
   -1.0197   -2.6159   -0.7862 C   0  0  2  0  0  0  0  0  0  0  0  0
    0.0418   -3.3621   -1.5836 C   0  0  0  0  0  0  0  0  0  0  0  0
    0.7169   -2.8311   -2.4630 O   0  0  0  0  0  0  0  0  0  0  0  0
   -2.4104   -2.9041   -1.3297 C   0  0  0  0  0  0  0  0  0  0  0  0
   -1.4545   -0.5612   -1.1081 H   0  0  0  0  0  0  0  0  0  0  0  0
   -0.9580   -2.9080    0.2678 H   0  0  0  0  0  0  0  0  0  0  0  0
   -2.4914   -2.6179   -2.3847 H   0  0  0  0  0  0  0  0  0  0  0  0
   -2.6520   -3.9696   -1.2568 H   0  0  0  0  0  0  0  0  0  0  0  0
   -3.1699   -2.3435   -0.7741 H   0  0  0  0  0  0  0  0  0  0  0  0
    0.1166   -4.7014   -1.2276 N   0  0  0  0  0  0  0  0  0  0  0  0
    1.0382   -5.6233   -1.8496 C   0  0  0  0  0  0  0  0  0  0  0  0
   -0.4682   -5.0517   -0.4745 H   0  0  0  0  0  0  0  0  0  0  0  0
    0.5436   -6.1216   -2.6964 H   0  0  0  0  0  0  0  0  0  0  0  0
    1.9189   -5.0726   -2.2118 H   0  0  0  0  0  0  0  0  0  0  0  0
    1.3543   -6.3777   -1.1141 H   0  0  0  0  0  0  0  0  0  0  0  0
 22 24  2  0  0  0  0
 24 26  1  0  0  0  0
 25 26  2  0  0  0  0
 23 25  1  0  0  0  0
 21 22  1  0  0  0  0
 22 23  1  0  0  0  0
  1  3  1  0  0  0  0
  1  7  1  0  0  0  0
  1  2  2  0  0  0  0
 35 36  1  0  0  0  0
 36 44  1  0  0  0  0
 36 37  2  0  0  0  0
  8  9  1  0  0  0  0
  9 17  1  0  0  0  0
  9 10  2  0  0  0  0
 18 19  1  0  0  0  0
 19 34  1  0  0  0  0
 19 20  2  0  0  0  0
 35 38  1  0  0  0  0
  8 11  1  0  0  0  0
 44 45  1  0  0  0  0
 18 21  1  0  0  0  0
 34 35  1  0  0  0  0
  7  8  1  0  0  0  0
 17 18  1  0  0  0  0
 24 32  1  0  0  0  0
 25 33  1  0  0  0  0
  3  4  1  0  0  0  0
  3  5  1  0  0  0  0
  3  6  1  0  0  0  0
 38 41  1  0  0  0  0
 38 42  1  0  0  0  0
 38 43  1  0  0  0  0
 11 14  1  0  0  0  0
 11 15  1  0  0  0  0
 11 16  1  0  0  0  0
 45 47  1  0  0  0  0
 45 48  1  0  0  0  0
 45 49  1  0  0  0  0
 21 29  1  0  0  0  0
 21 30  1  0  0  0  0
 35 40  1  0  0  0  0
  8 13  1  0  0  0  0
 18 28  1  0  0  0  0
 23 31  1  0  0  0  0
 44 46  1  0  0  0  0
  7 12  1  0  0  0  0
 34 39  1  0  0  0  0
 17 27  1  0  0  0  0
M  END
$$$$

  -OEChem-05262214473D

 49 49  0     1  0  0  0  0  0999 V2000
   -1.5619    0.5658    3.7981 C   0  0  0  0  0  0  0  0  0  0  0  0
   -0.6145   -0.0489    3.3224 O   0  0  0  0  0  0  0  0  0  0  0  0
   -1.9938    0.2834    5.1988 C   0  0  0  0  0  0  0  0  0  0  0  0
   -2.7535   -0.5129    5.2522 H   0  0  0  0  0  0  0  0  0  0  0  0
   -1.1626   -0.0642    5.8331 H   0  0  0  0  0  0  0  0  0  0  0  0
   -2.4318    1.1383    5.7384 H   0  0  0  0  0  0  0  0  0  0  0  0
   -2.3116    1.5383    3.1570 N   0  0  0  0  0  0  0  0  0  0  0  0
   -2.0648    1.9643    1.8046 C   0  0  2  0  0  0  0  0  0  0  0  0
   -0.7298    1.3789    1.3634 C   0  0  0  0  0  0  0  0  0  0  0  0
    0.1423    1.0262    2.1547 O   0  0  0  0  0  0  0  0  0  0  0  0
   -2.0560    3.4811    1.6952 C   0  0  0  0  0  0  0  0  0  0  0  0
   -3.0767    1.9741    3.6688 H   0  0  0  0  0  0  0  0  0  0  0  0
   -2.8689    1.5458    1.1895 H   0  0  0  0  0  0  0  0  0  0  0  0
   -1.2569    3.9183    2.3049 H   0  0  0  0  0  0  0  0  0  0  0  0
   -1.8965    3.8033    0.6609 H   0  0  0  0  0  0  0  0  0  0  0  0
   -3.0062    3.9023    2.0409 H   0  0  0  0  0  0  0  0  0  0  0  0
   -0.6071    1.3358   -0.0200 N   0  0  0  0  0  0  0  0  0  0  0  0
    0.5702    0.8350   -0.6836 C   0  0  2  0  0  0  0  0  0  0  0  0
    0.5424   -0.6847   -0.5657 C   0  0  0  0  0  0  0  0  0  0  0  0
    1.4076   -1.3257    0.0270 O   0  0  0  0  0  0  0  0  0  0  0  0
    1.8607    1.3934   -0.0731 C   0  0  0  0  0  0  0  0  0  0  0  0
    1.9837    2.8888   -0.2352 C   0  0  0  0  0  0  0  0  0  0  0  0
    2.3047    3.4794   -1.4249 N   0  0  0  0  0  0  0  0  0  0  0  0
    1.8289    3.9331    0.6457 C   0  0  0  0  0  0  0  0  0  0  0  0
    2.3310    4.8306   -1.2179 C   0  0  0  0  0  0  0  0  0  0  0  0
    2.0461    5.1392    0.0278 N   0  0  0  0  0  0  0  0  0  0  0  0
   -1.3903    1.6325   -0.5973 H   0  0  0  0  0  0  0  0  0  0  0  0
    0.4764    1.1148   -1.7396 H   0  0  0  0  0  0  0  0  0  0  0  0
    2.7361    0.9005   -0.5173 H   0  0  0  0  0  0  0  0  0  0  0  0
    1.9110    1.1585    0.9984 H   0  0  0  0  0  0  0  0  0  0  0  0
    2.4907    3.0065   -2.2996 H   0  0  0  0  0  0  0  0  0  0  0  0
    1.5720    3.8804    1.6942 H   0  0  0  0  0  0  0  0  0  0  0  0
    2.5626    5.5284   -2.0099 H   0  0  0  0  0  0  0  0  0  0  0  0
   -0.5880   -1.2312   -1.1573 N   0  0  0  0  0  0  0  0  0  0  0  0
   -0.8721   -2.6482   -1.1675 C   0  0  2  0  0  0  0  0  0  0  0  0
    0.3735   -3.3740   -1.6586 C   0  0  0  0  0  0  0  0  0  0  0  0
    1.2423   -2.8310   -2.3380 O   0  0  0  0  0  0  0  0  0  0  0  0
   -2.0696   -2.9662   -2.0492 C   0  0  0  0  0  0  0  0  0  0  0  0
   -1.2489   -0.6036   -1.6058 H   0  0  0  0  0  0  0  0  0  0  0  0
   -1.0788   -2.9367   -0.1311 H   0  0  0  0  0  0  0  0  0  0  0  0
   -1.8811   -2.6840   -3.0914 H   0  0  0  0  0  0  0  0  0  0  0  0
   -2.3010   -4.0363   -2.0332 H   0  0  0  0  0  0  0  0  0  0  0  0
   -2.9575   -2.4202   -1.7124 H   0  0  0  0  0  0  0  0  0  0  0  0
    0.3799   -4.7108   -1.2855 N   0  0  0  0  0  0  0  0  0  0  0  0
    1.4485   -5.6146   -1.6419 C   0  0  0  0  0  0  0  0  0  0  0  0
   -0.3725   -5.0714   -0.7062 H   0  0  0  0  0  0  0  0  0  0  0  0
    1.1990   -6.1248   -2.5839 H   0  0  0  0  0  0  0  0  0  0  0  0
    2.3819   -5.0467   -1.7687 H   0  0  0  0  0  0  0  0  0  0  0  0
    1.5787   -6.3608   -0.8443 H   0  0  0  0  0  0  0  0  0  0  0  0
 22 24  2  0  0  0  0
 24 26  1  0  0  0  0
 25 26  2  0  0  0  0
 23 25  1  0  0  0  0
 21 22  1  0  0  0  0
 22 23  1  0  0  0  0
  1  3  1  0  0  0  0
  1  7  1  0  0  0  0
  1  2  2  0  0  0  0
 35 36  1  0  0  0  0
 36 44  1  0  0  0  0
 36 37  2  0  0  0  0
  8  9  1  0  0  0  0
  9 17  1  0  0  0  0
  9 10  2  0  0  0  0
 18 19  1  0  0  0  0
 19 34  1  0  0  0  0
 19 20  2  0  0  0  0
 35 38  1  0  0  0  0
  8 11  1  0  0  0  0
 44 45  1  0  0  0  0
 18 21  1  0  0  0  0
 34 35  1  0  0  0  0
  7  8  1  0  0  0  0
 17 18  1  0  0  0  0
 24 32  1  0  0  0  0
 25 33  1  0  0  0  0
  3  4  1  0  0  0  0
  3  5  1  0  0  0  0
  3  6  1  0  0  0  0
 38 41  1  0  0  0  0
 38 42  1  0  0  0  0
 38 43  1  0  0  0  0
 11 14  1  0  0  0  0
 11 15  1  0  0  0  0
 11 16  1  0  0  0  0
 45 47  1  0  0  0  0
 45 48  1  0  0  0  0
 45 49  1  0  0  0  0
 21 29  1  0  0  0  0
 21 30  1  0  0  0  0
 35 40  1  0  0  0  0
  8 13  1  0  0  0  0
 18 28  1  0  0  0  0
 23 31  1  0  0  0  0
 44 46  1  0  0  0  0
  7 12  1  0  0  0  0
 34 39  1  0  0  0  0
 17 27  1  0  0  0  0
M  END
$$$$

  -OEChem-05262214473D

 49 49  0     1  0  0  0  0  0999 V2000
   -1.5619    0.5658    3.7981 C   0  0  0  0  0  0  0  0  0  0  0  0
   -0.6145   -0.0489    3.3224 O   0  0  0  0  0  0  0  0  0  0  0  0
   -1.9938    0.2834    5.1988 C   0  0  0  0  0  0  0  0  0  0  0  0
   -2.7535   -0.5129    5.2522 H   0  0  0  0  0  0  0  0  0  0  0  0
   -1.1626   -0.0642    5.8331 H   0  0  0  0  0  0  0  0  0  0  0  0
   -2.4318    1.1383    5.7384 H   0  0  0  0  0  0  0  0  0  0  0  0
   -2.3116    1.5383    3.1570 N   0  0  0  0  0  0  0  0  0  0  0  0
   -2.0648    1.9643    1.8046 C   0  0  2  0  0  0  0  0  0  0  0  0
   -0.7298    1.3789    1.3634 C   0  0  0  0  0  0  0  0  0  0  0  0
    0.1423    1.0262    2.1547 O   0  0  0  0  0  0  0  0  0  0  0  0
   -2.0560    3.4811    1.6952 C   0  0  0  0  0  0  0  0  0  0  0  0
   -3.0767    1.9741    3.6688 H   0  0  0  0  0  0  0  0  0  0  0  0
   -2.8689    1.5458    1.1895 H   0  0  0  0  0  0  0  0  0  0  0  0
   -1.2569    3.9183    2.3049 H   0  0  0  0  0  0  0  0  0  0  0  0
   -1.8965    3.8033    0.6609 H   0  0  0  0  0  0  0  0  0  0  0  0
   -3.0062    3.9023    2.0409 H   0  0  0  0  0  0  0  0  0  0  0  0
   -0.6071    1.3358   -0.0200 N   0  0  0  0  0  0  0  0  0  0  0  0
    0.5702    0.8350   -0.6836 C   0  0  2  0  0  0  0  0  0  0  0  0
    0.5424   -0.6847   -0.5657 C   0  0  0  0  0  0  0  0  0  0  0  0
    1.2376   -1.3065    0.2349 O   0  0  0  0  0  0  0  0  0  0  0  0
    1.8607    1.3934   -0.0731 C   0  0  0  0  0  0  0  0  0  0  0  0
    1.9837    2.8888   -0.2352 C   0  0  0  0  0  0  0  0  0  0  0  0
    2.3047    3.4794   -1.4249 N   0  0  0  0  0  0  0  0  0  0  0  0
    1.8289    3.9331    0.6457 C   0  0  0  0  0  0  0  0  0  0  0  0
    2.3310    4.8306   -1.2179 C   0  0  0  0  0  0  0  0  0  0  0  0
    2.0461    5.1392    0.0278 N   0  0  0  0  0  0  0  0  0  0  0  0
   -1.3903    1.6325   -0.5973 H   0  0  0  0  0  0  0  0  0  0  0  0
    0.4764    1.1148   -1.7396 H   0  0  0  0  0  0  0  0  0  0  0  0
    2.7361    0.9005   -0.5173 H   0  0  0  0  0  0  0  0  0  0  0  0
    1.9110    1.1585    0.9984 H   0  0  0  0  0  0  0  0  0  0  0  0
    2.4907    3.0065   -2.2996 H   0  0  0  0  0  0  0  0  0  0  0  0
    1.5720    3.8804    1.6942 H   0  0  0  0  0  0  0  0  0  0  0  0
    2.5626    5.5284   -2.0099 H   0  0  0  0  0  0  0  0  0  0  0  0
   -0.3862   -1.2556   -1.4248 N   0  0  0  0  0  0  0  0  0  0  0  0
   -0.6305   -2.6783   -1.4975 C   0  0  2  0  0  0  0  0  0  0  0  0
    0.7135   -3.3792   -1.6454 C   0  0  0  0  0  0  0  0  0  0  0  0
    1.7174   -2.8198   -2.0816 O   0  0  0  0  0  0  0  0  0  0  0  0
   -1.5535   -3.0228   -2.6559 C   0  0  0  0  0  0  0  0  0  0  0  0
   -0.9211   -0.6428   -2.0332 H   0  0  0  0  0  0  0  0  0  0  0  0
   -1.0920   -2.9688   -0.5475 H   0  0  0  0  0  0  0  0  0  0  0  0
   -1.1080   -2.7389   -3.6163 H   0  0  0  0  0  0  0  0  0  0  0  0
   -1.7604   -4.0974   -2.6923 H   0  0  0  0  0  0  0  0  0  0  0  0
   -2.5086   -2.4945   -2.5636 H   0  0  0  0  0  0  0  0  0  0  0  0
    0.6493   -4.7147   -1.2734 N   0  0  0  0  0  0  0  0  0  0  0  0
    1.7910   -5.5971   -1.3355 C   0  0  0  0  0  0  0  0  0  0  0  0
   -0.2200   -5.0896   -0.9051 H   0  0  0  0  0  0  0  0  0  0  0  0
    1.8030   -6.1143   -2.3062 H   0  0  0  0  0  0  0  0  0  0  0  0
    2.7144   -5.0103   -1.2214 H   0  0  0  0  0  0  0  0  0  0  0  0
    1.7255   -6.3388   -0.5258 H   0  0  0  0  0  0  0  0  0  0  0  0
 22 24  2  0  0  0  0
 24 26  1  0  0  0  0
 25 26  2  0  0  0  0
 23 25  1  0  0  0  0
 21 22  1  0  0  0  0
 22 23  1  0  0  0  0
  1  3  1  0  0  0  0
  1  7  1  0  0  0  0
  1  2  2  0  0  0  0
 35 36  1  0  0  0  0
 36 44  1  0  0  0  0
 36 37  2  0  0  0  0
  8  9  1  0  0  0  0
  9 17  1  0  0  0  0
  9 10  2  0  0  0  0
 18 19  1  0  0  0  0
 19 34  1  0  0  0  0
 19 20  2  0  0  0  0
 35 38  1  0  0  0  0
  8 11  1  0  0  0  0
 44 45  1  0  0  0  0
 18 21  1  0  0  0  0
 34 35  1  0  0  0  0
  7  8  1  0  0  0  0
 17 18  1  0  0  0  0
 24 32  1  0  0  0  0
 25 33  1  0  0  0  0
  3  4  1  0  0  0  0
  3  5  1  0  0  0  0
  3  6  1  0  0  0  0
 38 41  1  0  0  0  0
 38 42  1  0  0  0  0
 38 43  1  0  0  0  0
 11 14  1  0  0  0  0
 11 15  1  0  0  0  0
 11 16  1  0  0  0  0
 45 47  1  0  0  0  0
 45 48  1  0  0  0  0
 45 49  1  0  0  0  0
 21 29  1  0  0  0  0
 21 30  1  0  0  0  0
 35 40  1  0  0  0  0
  8 13  1  0  0  0  0
 18 28  1  0  0  0  0
 23 31  1  0  0  0  0
 44 46  1  0  0  0  0
  7 12  1  0  0  0  0
 34 39  1  0  0  0  0
 17 27  1  0  0  0  0
M  END
$$$$

  -OEChem-05262214473D

 49 49  0     1  0  0  0  0  0999 V2000
   -1.5619    0.5658    3.7981 C   0  0  0  0  0  0  0  0  0  0  0  0
   -0.6145   -0.0489    3.3224 O   0  0  0  0  0  0  0  0  0  0  0  0
   -1.9938    0.2834    5.1988 C   0  0  0  0  0  0  0  0  0  0  0  0
   -2.7535   -0.5129    5.2522 H   0  0  0  0  0  0  0  0  0  0  0  0
   -1.1626   -0.0642    5.8331 H   0  0  0  0  0  0  0  0  0  0  0  0
   -2.4318    1.1383    5.7384 H   0  0  0  0  0  0  0  0  0  0  0  0
   -2.3116    1.5383    3.1570 N   0  0  0  0  0  0  0  0  0  0  0  0
   -2.0648    1.9643    1.8046 C   0  0  2  0  0  0  0  0  0  0  0  0
   -0.7298    1.3789    1.3634 C   0  0  0  0  0  0  0  0  0  0  0  0
    0.1423    1.0262    2.1547 O   0  0  0  0  0  0  0  0  0  0  0  0
   -2.0560    3.4811    1.6952 C   0  0  0  0  0  0  0  0  0  0  0  0
   -3.0767    1.9741    3.6688 H   0  0  0  0  0  0  0  0  0  0  0  0
   -2.8689    1.5458    1.1895 H   0  0  0  0  0  0  0  0  0  0  0  0
   -1.2569    3.9183    2.3049 H   0  0  0  0  0  0  0  0  0  0  0  0
   -1.8965    3.8033    0.6609 H   0  0  0  0  0  0  0  0  0  0  0  0
   -3.0062    3.9023    2.0409 H   0  0  0  0  0  0  0  0  0  0  0  0
   -0.6071    1.3358   -0.0200 N   0  0  0  0  0  0  0  0  0  0  0  0
    0.5702    0.8350   -0.6836 C   0  0  2  0  0  0  0  0  0  0  0  0
    0.5424   -0.6847   -0.5657 C   0  0  0  0  0  0  0  0  0  0  0  0
    1.0194   -1.2903    0.3917 O   0  0  0  0  0  0  0  0  0  0  0  0
    1.8607    1.3934   -0.0731 C   0  0  0  0  0  0  0  0  0  0  0  0
    1.9837    2.8888   -0.2352 C   0  0  0  0  0  0  0  0  0  0  0  0
    2.3047    3.4794   -1.4249 N   0  0  0  0  0  0  0  0  0  0  0  0
    1.8289    3.9331    0.6457 C   0  0  0  0  0  0  0  0  0  0  0  0
    2.3310    4.8306   -1.2179 C   0  0  0  0  0  0  0  0  0  0  0  0
    2.0461    5.1392    0.0278 N   0  0  0  0  0  0  0  0  0  0  0  0
   -1.3903    1.6325   -0.5973 H   0  0  0  0  0  0  0  0  0  0  0  0
    0.4764    1.1148   -1.7396 H   0  0  0  0  0  0  0  0  0  0  0  0
    2.7361    0.9005   -0.5173 H   0  0  0  0  0  0  0  0  0  0  0  0
    1.9110    1.1585    0.9984 H   0  0  0  0  0  0  0  0  0  0  0  0
    2.4907    3.0065   -2.2996 H   0  0  0  0  0  0  0  0  0  0  0  0
    1.5720    3.8804    1.6942 H   0  0  0  0  0  0  0  0  0  0  0  0
    2.5626    5.5284   -2.0099 H   0  0  0  0  0  0  0  0  0  0  0  0
   -0.1218   -1.2765   -1.6311 N   0  0  0  0  0  0  0  0  0  0  0  0
   -0.3114   -2.7040   -1.7538 C   0  0  2  0  0  0  0  0  0  0  0  0
    1.0386   -3.3773   -1.5448 C   0  0  0  0  0  0  0  0  0  0  0  0
    2.1100   -2.7982   -1.7115 O   0  0  0  0  0  0  0  0  0  0  0  0
   -0.8974   -3.0699   -3.1086 C   0  0  0  0  0  0  0  0  0  0  0  0
   -0.4934   -0.6761   -2.3613 H   0  0  0  0  0  0  0  0  0  0  0  0
   -0.9967   -3.0021   -0.9529 H   0  0  0  0  0  0  0  0  0  0  0  0
   -0.2247   -2.7789   -3.9236 H   0  0  0  0  0  0  0  0  0  0  0  0
   -1.0670   -4.1487   -3.1892 H   0  0  0  0  0  0  0  0  0  0  0  0
   -1.8540   -2.5613   -3.2696 H   0  0  0  0  0  0  0  0  0  0  0  0
    0.9065   -4.7132   -1.1922 N   0  0  0  0  0  0  0  0  0  0  0  0
    2.0425   -5.5719   -0.9512 C   0  0  0  0  0  0  0  0  0  0  0  0
   -0.0209   -5.1051   -1.0579 H   0  0  0  0  0  0  0  0  0  0  0  0
    2.3146   -6.0908   -1.8822 H   0  0  0  0  0  0  0  0  0  0  0  0
    2.8936   -4.9659   -0.6071 H   0  0  0  0  0  0  0  0  0  0  0  0
    1.7847   -6.3131   -0.1804 H   0  0  0  0  0  0  0  0  0  0  0  0
 22 24  2  0  0  0  0
 24 26  1  0  0  0  0
 25 26  2  0  0  0  0
 23 25  1  0  0  0  0
 21 22  1  0  0  0  0
 22 23  1  0  0  0  0
  1  3  1  0  0  0  0
  1  7  1  0  0  0  0
  1  2  2  0  0  0  0
 35 36  1  0  0  0  0
 36 44  1  0  0  0  0
 36 37  2  0  0  0  0
  8  9  1  0  0  0  0
  9 17  1  0  0  0  0
  9 10  2  0  0  0  0
 18 19  1  0  0  0  0
 19 34  1  0  0  0  0
 19 20  2  0  0  0  0
 35 38  1  0  0  0  0
  8 11  1  0  0  0  0
 44 45  1  0  0  0  0
 18 21  1  0  0  0  0
 34 35  1  0  0  0  0
  7  8  1  0  0  0  0
 17 18  1  0  0  0  0
 24 32  1  0  0  0  0
 25 33  1  0  0  0  0
  3  4  1  0  0  0  0
  3  5  1  0  0  0  0
  3  6  1  0  0  0  0
 38 41  1  0  0  0  0
 38 42  1  0  0  0  0
 38 43  1  0  0  0  0
 11 14  1  0  0  0  0
 11 15  1  0  0  0  0
 11 16  1  0  0  0  0
 45 47  1  0  0  0  0
 45 48  1  0  0  0  0
 45 49  1  0  0  0  0
 21 29  1  0  0  0  0
 21 30  1  0  0  0  0
 35 40  1  0  0  0  0
  8 13  1  0  0  0  0
 18 28  1  0  0  0  0
 23 31  1  0  0  0  0
 44 46  1  0  0  0  0
  7 12  1  0  0  0  0
 34 39  1  0  0  0  0
 17 27  1  0  0  0  0
M  END
$$$$

  -OEChem-05262214473D

 49 49  0     1  0  0  0  0  0999 V2000
   -1.5619    0.5658    3.7981 C   0  0  0  0  0  0  0  0  0  0  0  0
   -0.6145   -0.0489    3.3224 O   0  0  0  0  0  0  0  0  0  0  0  0
   -1.9938    0.2834    5.1988 C   0  0  0  0  0  0  0  0  0  0  0  0
   -2.7535   -0.5129    5.2522 H   0  0  0  0  0  0  0  0  0  0  0  0
   -1.1626   -0.0642    5.8331 H   0  0  0  0  0  0  0  0  0  0  0  0
   -2.4318    1.1383    5.7384 H   0  0  0  0  0  0  0  0  0  0  0  0
   -2.3116    1.5383    3.1570 N   0  0  0  0  0  0  0  0  0  0  0  0
   -2.0648    1.9643    1.8046 C   0  0  2  0  0  0  0  0  0  0  0  0
   -0.7298    1.3789    1.3634 C   0  0  0  0  0  0  0  0  0  0  0  0
    0.1423    1.0262    2.1547 O   0  0  0  0  0  0  0  0  0  0  0  0
   -2.0560    3.4811    1.6952 C   0  0  0  0  0  0  0  0  0  0  0  0
   -3.0767    1.9741    3.6688 H   0  0  0  0  0  0  0  0  0  0  0  0
   -2.8689    1.5458    1.1895 H   0  0  0  0  0  0  0  0  0  0  0  0
   -1.2569    3.9183    2.3049 H   0  0  0  0  0  0  0  0  0  0  0  0
   -1.8965    3.8033    0.6609 H   0  0  0  0  0  0  0  0  0  0  0  0
   -3.0062    3.9023    2.0409 H   0  0  0  0  0  0  0  0  0  0  0  0
   -0.6071    1.3358   -0.0200 N   0  0  0  0  0  0  0  0  0  0  0  0
    0.5702    0.8350   -0.6836 C   0  0  2  0  0  0  0  0  0  0  0  0
    0.5424   -0.6847   -0.5657 C   0  0  0  0  0  0  0  0  0  0  0  0
    0.7679   -1.2783    0.4868 O   0  0  0  0  0  0  0  0  0  0  0  0
    1.8607    1.3934   -0.0731 C   0  0  0  0  0  0  0  0  0  0  0  0
    1.9837    2.8888   -0.2352 C   0  0  0  0  0  0  0  0  0  0  0  0
    2.3047    3.4794   -1.4249 N   0  0  0  0  0  0  0  0  0  0  0  0
    1.8289    3.9331    0.6457 C   0  0  0  0  0  0  0  0  0  0  0  0
    2.3310    4.8306   -1.2179 C   0  0  0  0  0  0  0  0  0  0  0  0
    2.0461    5.1392    0.0278 N   0  0  0  0  0  0  0  0  0  0  0  0
   -1.3903    1.6325   -0.5973 H   0  0  0  0  0  0  0  0  0  0  0  0
    0.4764    1.1148   -1.7396 H   0  0  0  0  0  0  0  0  0  0  0  0
    2.7361    0.9005   -0.5173 H   0  0  0  0  0  0  0  0  0  0  0  0
    1.9110    1.1585    0.9984 H   0  0  0  0  0  0  0  0  0  0  0  0
    2.4907    3.0065   -2.2996 H   0  0  0  0  0  0  0  0  0  0  0  0
    1.5720    3.8804    1.6942 H   0  0  0  0  0  0  0  0  0  0  0  0
    2.5626    5.5284   -2.0099 H   0  0  0  0  0  0  0  0  0  0  0  0
    0.1872   -1.2923   -1.7620 N   0  0  0  0  0  0  0  0  0  0  0  0
    0.0635   -2.7237   -1.9189 C   0  0  2  0  0  0  0  0  0  0  0  0
    1.3266   -3.3686   -1.3639 C   0  0  0  0  0  0  0  0  0  0  0  0
    2.3933   -2.7678   -1.2527 O   0  0  0  0  0  0  0  0  0  0  0  0
   -0.1458   -3.1045   -3.3763 C   0  0  0  0  0  0  0  0  0  0  0  0
    0.0051   -0.7012   -2.5677 H   0  0  0  0  0  0  0  0  0  0  0  0
   -0.7994   -3.0341   -1.3197 H   0  0  0  0  0  0  0  0  0  0  0  0
    0.7086   -2.8013   -3.9923 H   0  0  0  0  0  0  0  0  0  0  0  0
   -0.2679   -4.1867   -3.4900 H   0  0  0  0  0  0  0  0  0  0  0  0
   -1.0382   -2.6161   -3.7824 H   0  0  0  0  0  0  0  0  0  0  0  0
    1.1340   -4.7061   -1.0475 N   0  0  0  0  0  0  0  0  0  0  0  0
    2.1858   -5.5407   -0.5152 C   0  0  0  0  0  0  0  0  0  0  0  0
    0.2111   -5.1168   -1.1540 H   0  0  0  0  0  0  0  0  0  0  0  0
    2.6989   -6.0558   -1.3407 H   0  0  0  0  0  0  0  0  0  0  0  0
    2.9073   -4.9165    0.0323 H   0  0  0  0  0  0  0  0  0  0  0  0
    1.7522   -6.2854    0.1684 H   0  0  0  0  0  0  0  0  0  0  0  0
 22 24  2  0  0  0  0
 24 26  1  0  0  0  0
 25 26  2  0  0  0  0
 23 25  1  0  0  0  0
 21 22  1  0  0  0  0
 22 23  1  0  0  0  0
  1  3  1  0  0  0  0
  1  7  1  0  0  0  0
  1  2  2  0  0  0  0
 35 36  1  0  0  0  0
 36 44  1  0  0  0  0
 36 37  2  0  0  0  0
  8  9  1  0  0  0  0
  9 17  1  0  0  0  0
  9 10  2  0  0  0  0
 18 19  1  0  0  0  0
 19 34  1  0  0  0  0
 19 20  2  0  0  0  0
 35 38  1  0  0  0  0
  8 11  1  0  0  0  0
 44 45  1  0  0  0  0
 18 21  1  0  0  0  0
 34 35  1  0  0  0  0
  7  8  1  0  0  0  0
 17 18  1  0  0  0  0
 24 32  1  0  0  0  0
 25 33  1  0  0  0  0
  3  4  1  0  0  0  0
  3  5  1  0  0  0  0
  3  6  1  0  0  0  0
 38 41  1  0  0  0  0
 38 42  1  0  0  0  0
 38 43  1  0  0  0  0
 11 14  1  0  0  0  0
 11 15  1  0  0  0  0
 11 16  1  0  0  0  0
 45 47  1  0  0  0  0
 45 48  1  0  0  0  0
 45 49  1  0  0  0  0
 21 29  1  0  0  0  0
 21 30  1  0  0  0  0
 35 40  1  0  0  0  0
  8 13  1  0  0  0  0
 18 28  1  0  0  0  0
 23 31  1  0  0  0  0
 44 46  1  0  0  0  0
  7 12  1  0  0  0  0
 34 39  1  0  0  0  0
 17 27  1  0  0  0  0
M  END
$$$$

  -OEChem-05262214473D

 49 49  0     1  0  0  0  0  0999 V2000
   -1.5619    0.5658    3.7981 C   0  0  0  0  0  0  0  0  0  0  0  0
   -0.6145   -0.0489    3.3224 O   0  0  0  0  0  0  0  0  0  0  0  0
   -1.9938    0.2834    5.1988 C   0  0  0  0  0  0  0  0  0  0  0  0
   -2.7535   -0.5129    5.2522 H   0  0  0  0  0  0  0  0  0  0  0  0
   -1.1626   -0.0642    5.8331 H   0  0  0  0  0  0  0  0  0  0  0  0
   -2.4318    1.1383    5.7384 H   0  0  0  0  0  0  0  0  0  0  0  0
   -2.3116    1.5383    3.1570 N   0  0  0  0  0  0  0  0  0  0  0  0
   -2.0648    1.9643    1.8046 C   0  0  2  0  0  0  0  0  0  0  0  0
   -0.7298    1.3789    1.3634 C   0  0  0  0  0  0  0  0  0  0  0  0
    0.1423    1.0262    2.1547 O   0  0  0  0  0  0  0  0  0  0  0  0
   -2.0560    3.4811    1.6952 C   0  0  0  0  0  0  0  0  0  0  0  0
   -3.0767    1.9741    3.6688 H   0  0  0  0  0  0  0  0  0  0  0  0
   -2.8689    1.5458    1.1895 H   0  0  0  0  0  0  0  0  0  0  0  0
   -1.2569    3.9183    2.3049 H   0  0  0  0  0  0  0  0  0  0  0  0
   -1.8965    3.8033    0.6609 H   0  0  0  0  0  0  0  0  0  0  0  0
   -3.0062    3.9023    2.0409 H   0  0  0  0  0  0  0  0  0  0  0  0
   -0.6071    1.3358   -0.0200 N   0  0  0  0  0  0  0  0  0  0  0  0
    0.5702    0.8350   -0.6836 C   0  0  2  0  0  0  0  0  0  0  0  0
    0.5424   -0.6847   -0.5657 C   0  0  0  0  0  0  0  0  0  0  0  0
    0.5002   -1.2714    0.5137 O   0  0  0  0  0  0  0  0  0  0  0  0
    1.8607    1.3934   -0.0731 C   0  0  0  0  0  0  0  0  0  0  0  0
    1.9837    2.8888   -0.2352 C   0  0  0  0  0  0  0  0  0  0  0  0
    2.3047    3.4794   -1.4249 N   0  0  0  0  0  0  0  0  0  0  0  0
    1.8289    3.9331    0.6457 C   0  0  0  0  0  0  0  0  0  0  0  0
    2.3310    4.8306   -1.2179 C   0  0  0  0  0  0  0  0  0  0  0  0
    2.0461    5.1392    0.0278 N   0  0  0  0  0  0  0  0  0  0  0  0
   -1.3903    1.6325   -0.5973 H   0  0  0  0  0  0  0  0  0  0  0  0
    0.4764    1.1148   -1.7396 H   0  0  0  0  0  0  0  0  0  0  0  0
    2.7361    0.9005   -0.5173 H   0  0  0  0  0  0  0  0  0  0  0  0
    1.9110    1.1585    0.9984 H   0  0  0  0  0  0  0  0  0  0  0  0
    2.4907    3.0065   -2.2996 H   0  0  0  0  0  0  0  0  0  0  0  0
    1.5720    3.8804    1.6942 H   0  0  0  0  0  0  0  0  0  0  0  0
    2.5626    5.5284   -2.0099 H   0  0  0  0  0  0  0  0  0  0  0  0
    0.5198   -1.3020   -1.8086 N   0  0  0  0  0  0  0  0  0  0  0  0
    0.4686   -2.7360   -1.9816 C   0  0  2  0  0  0  0  0  0  0  0  0
    1.5580   -3.3535   -1.1148 C   0  0  0  0  0  0  0  0  0  0  0  0
    2.5480   -2.7306   -0.7367 O   0  0  0  0  0  0  0  0  0  0  0  0
    0.6499   -3.1240   -3.4408 C   0  0  0  0  0  0  0  0  0  0  0  0
    0.5403   -0.7165   -2.6383 H   0  0  0  0  0  0  0  0  0  0  0  0
   -0.5135   -3.0629   -1.6230 H   0  0  0  0  0  0  0  0  0  0  0  0
    1.6283   -2.8046   -3.8178 H   0  0  0  0  0  0  0  0  0  0  0  0
    0.5823   -4.2088   -3.5742 H   0  0  0  0  0  0  0  0  0  0  0  0
   -0.1168   -2.6550   -4.0670 H   0  0  0  0  0  0  0  0  0  0  0  0
    1.3162   -4.6940   -0.8490 N   0  0  0  0  0  0  0  0  0  0  0  0
    2.2110   -5.5056   -0.0573 C   0  0  0  0  0  0  0  0  0  0  0  0
    0.4603   -5.1240   -1.1870 H   0  0  0  0  0  0  0  0  0  0  0  0
    2.9297   -6.0117   -0.7186 H   0  0  0  0  0  0  0  0  0  0  0  0
    2.7546   -4.8655    0.6532 H   0  0  0  0  0  0  0  0  0  0  0  0
    1.6303   -6.2577    0.4968 H   0  0  0  0  0  0  0  0  0  0  0  0
 22 24  2  0  0  0  0
 24 26  1  0  0  0  0
 25 26  2  0  0  0  0
 23 25  1  0  0  0  0
 21 22  1  0  0  0  0
 22 23  1  0  0  0  0
  1  3  1  0  0  0  0
  1  7  1  0  0  0  0
  1  2  2  0  0  0  0
 35 36  1  0  0  0  0
 36 44  1  0  0  0  0
 36 37  2  0  0  0  0
  8  9  1  0  0  0  0
  9 17  1  0  0  0  0
  9 10  2  0  0  0  0
 18 19  1  0  0  0  0
 19 34  1  0  0  0  0
 19 20  2  0  0  0  0
 35 38  1  0  0  0  0
  8 11  1  0  0  0  0
 44 45  1  0  0  0  0
 18 21  1  0  0  0  0
 34 35  1  0  0  0  0
  7  8  1  0  0  0  0
 17 18  1  0  0  0  0
 24 32  1  0  0  0  0
 25 33  1  0  0  0  0
  3  4  1  0  0  0  0
  3  5  1  0  0  0  0
  3  6  1  0  0  0  0
 38 41  1  0  0  0  0
 38 42  1  0  0  0  0
 38 43  1  0  0  0  0
 11 14  1  0  0  0  0
 11 15  1  0  0  0  0
 11 16  1  0  0  0  0
 45 47  1  0  0  0  0
 45 48  1  0  0  0  0
 45 49  1  0  0  0  0
 21 29  1  0  0  0  0
 21 30  1  0  0  0  0
 35 40  1  0  0  0  0
  8 13  1  0  0  0  0
 18 28  1  0  0  0  0
 23 31  1  0  0  0  0
 44 46  1  0  0  0  0
  7 12  1  0  0  0  0
 34 39  1  0  0  0  0
 17 27  1  0  0  0  0
M  END
$$$$

  -OEChem-05262214473D

 49 49  0     1  0  0  0  0  0999 V2000
   -1.5619    0.5658    3.7981 C   0  0  0  0  0  0  0  0  0  0  0  0
   -0.6145   -0.0489    3.3224 O   0  0  0  0  0  0  0  0  0  0  0  0
   -1.9938    0.2834    5.1988 C   0  0  0  0  0  0  0  0  0  0  0  0
   -2.7535   -0.5129    5.2522 H   0  0  0  0  0  0  0  0  0  0  0  0
   -1.1626   -0.0642    5.8331 H   0  0  0  0  0  0  0  0  0  0  0  0
   -2.4318    1.1383    5.7384 H   0  0  0  0  0  0  0  0  0  0  0  0
   -2.3116    1.5383    3.1570 N   0  0  0  0  0  0  0  0  0  0  0  0
   -2.0648    1.9643    1.8046 C   0  0  2  0  0  0  0  0  0  0  0  0
   -0.7298    1.3789    1.3634 C   0  0  0  0  0  0  0  0  0  0  0  0
    0.1423    1.0262    2.1547 O   0  0  0  0  0  0  0  0  0  0  0  0
   -2.0560    3.4811    1.6952 C   0  0  0  0  0  0  0  0  0  0  0  0
   -3.0767    1.9741    3.6688 H   0  0  0  0  0  0  0  0  0  0  0  0
   -2.8689    1.5458    1.1895 H   0  0  0  0  0  0  0  0  0  0  0  0
   -1.2569    3.9183    2.3049 H   0  0  0  0  0  0  0  0  0  0  0  0
   -1.8965    3.8033    0.6609 H   0  0  0  0  0  0  0  0  0  0  0  0
   -3.0062    3.9023    2.0409 H   0  0  0  0  0  0  0  0  0  0  0  0
   -0.6071    1.3358   -0.0200 N   0  0  0  0  0  0  0  0  0  0  0  0
    0.5702    0.8350   -0.6836 C   0  0  2  0  0  0  0  0  0  0  0  0
    0.5424   -0.6847   -0.5657 C   0  0  0  0  0  0  0  0  0  0  0  0
    0.2345   -1.2698    0.4705 O   0  0  0  0  0  0  0  0  0  0  0  0
    1.8607    1.3934   -0.0731 C   0  0  0  0  0  0  0  0  0  0  0  0
    1.9837    2.8888   -0.2352 C   0  0  0  0  0  0  0  0  0  0  0  0
    2.3047    3.4794   -1.4249 N   0  0  0  0  0  0  0  0  0  0  0  0
    1.8289    3.9331    0.6457 C   0  0  0  0  0  0  0  0  0  0  0  0
    2.3310    4.8306   -1.2179 C   0  0  0  0  0  0  0  0  0  0  0  0
    2.0461    5.1392    0.0278 N   0  0  0  0  0  0  0  0  0  0  0  0
   -1.3903    1.6325   -0.5973 H   0  0  0  0  0  0  0  0  0  0  0  0
    0.4764    1.1148   -1.7396 H   0  0  0  0  0  0  0  0  0  0  0  0
    2.7361    0.9005   -0.5173 H   0  0  0  0  0  0  0  0  0  0  0  0
    1.9110    1.1585    0.9984 H   0  0  0  0  0  0  0  0  0  0  0  0
    2.4907    3.0065   -2.2996 H   0  0  0  0  0  0  0  0  0  0  0  0
    1.5720    3.8804    1.6942 H   0  0  0  0  0  0  0  0  0  0  0  0
    2.5626    5.5284   -2.0099 H   0  0  0  0  0  0  0  0  0  0  0  0
    0.8533   -1.3049   -1.7678 N   0  0  0  0  0  0  0  0  0  0  0  0
    0.8763   -2.7400   -1.9376 C   0  0  2  0  0  0  0  0  0  0  0  0
    1.7169   -3.3331   -0.8146 C   0  0  0  0  0  0  0  0  0  0  0  0
    2.5635   -2.6891   -0.1985 O   0  0  0  0  0  0  0  0  0  0  0  0
    1.4355   -3.1273   -3.2978 C   0  0  0  0  0  0  0  0  0  0  0  0
    1.0759   -0.7209   -2.5684 H   0  0  0  0  0  0  0  0  0  0  0  0
   -0.1585   -3.0864   -1.8421 H   0  0  0  0  0  0  0  0  0  0  0  0
    2.4717   -2.7885   -3.4120 H   0  0  0  0  0  0  0  0  0  0  0  0
    1.4257   -4.2135   -3.4361 H   0  0  0  0  0  0  0  0  0  0  0  0
    0.8474   -2.6756   -4.1039 H   0  0  0  0  0  0  0  0  0  0  0  0
    1.4408   -4.6777   -0.6103 N   0  0  0  0  0  0  0  0  0  0  0  0
    2.1166   -5.4690    0.3913 C   0  0  0  0  0  0  0  0  0  0  0  0
    0.7096   -5.1260   -1.1544 H   0  0  0  0  0  0  0  0  0  0  0  0
    2.9913   -5.9616   -0.0585 H   0  0  0  0  0  0  0  0  0  0  0  0
    2.4459   -4.8164    1.2133 H   0  0  0  0  0  0  0  0  0  0  0  0
    1.4272   -6.2318    0.7824 H   0  0  0  0  0  0  0  0  0  0  0  0
 22 24  2  0  0  0  0
 24 26  1  0  0  0  0
 25 26  2  0  0  0  0
 23 25  1  0  0  0  0
 21 22  1  0  0  0  0
 22 23  1  0  0  0  0
  1  3  1  0  0  0  0
  1  7  1  0  0  0  0
  1  2  2  0  0  0  0
 35 36  1  0  0  0  0
 36 44  1  0  0  0  0
 36 37  2  0  0  0  0
  8  9  1  0  0  0  0
  9 17  1  0  0  0  0
  9 10  2  0  0  0  0
 18 19  1  0  0  0  0
 19 34  1  0  0  0  0
 19 20  2  0  0  0  0
 35 38  1  0  0  0  0
  8 11  1  0  0  0  0
 44 45  1  0  0  0  0
 18 21  1  0  0  0  0
 34 35  1  0  0  0  0
  7  8  1  0  0  0  0
 17 18  1  0  0  0  0
 24 32  1  0  0  0  0
 25 33  1  0  0  0  0
  3  4  1  0  0  0  0
  3  5  1  0  0  0  0
  3  6  1  0  0  0  0
 38 41  1  0  0  0  0
 38 42  1  0  0  0  0
 38 43  1  0  0  0  0
 11 14  1  0  0  0  0
 11 15  1  0  0  0  0
 11 16  1  0  0  0  0
 45 47  1  0  0  0  0
 45 48  1  0  0  0  0
 45 49  1  0  0  0  0
 21 29  1  0  0  0  0
 21 30  1  0  0  0  0
 35 40  1  0  0  0  0
  8 13  1  0  0  0  0
 18 28  1  0  0  0  0
 23 31  1  0  0  0  0
 44 46  1  0  0  0  0
  7 12  1  0  0  0  0
 34 39  1  0  0  0  0
 17 27  1  0  0  0  0
M  END
$$$$

  -OEChem-05262214473D

 49 49  0     1  0  0  0  0  0999 V2000
   -1.5619    0.5658    3.7981 C   0  0  0  0  0  0  0  0  0  0  0  0
   -0.6145   -0.0489    3.3224 O   0  0  0  0  0  0  0  0  0  0  0  0
   -1.9938    0.2834    5.1988 C   0  0  0  0  0  0  0  0  0  0  0  0
   -2.7535   -0.5129    5.2522 H   0  0  0  0  0  0  0  0  0  0  0  0
   -1.1626   -0.0642    5.8331 H   0  0  0  0  0  0  0  0  0  0  0  0
   -2.4318    1.1383    5.7384 H   0  0  0  0  0  0  0  0  0  0  0  0
   -2.3116    1.5383    3.1570 N   0  0  0  0  0  0  0  0  0  0  0  0
   -2.0648    1.9643    1.8046 C   0  0  2  0  0  0  0  0  0  0  0  0
   -0.7298    1.3789    1.3634 C   0  0  0  0  0  0  0  0  0  0  0  0
    0.1423    1.0262    2.1547 O   0  0  0  0  0  0  0  0  0  0  0  0
   -2.0560    3.4811    1.6952 C   0  0  0  0  0  0  0  0  0  0  0  0
   -3.0767    1.9741    3.6688 H   0  0  0  0  0  0  0  0  0  0  0  0
   -2.8689    1.5458    1.1895 H   0  0  0  0  0  0  0  0  0  0  0  0
   -1.2569    3.9183    2.3049 H   0  0  0  0  0  0  0  0  0  0  0  0
   -1.8965    3.8033    0.6609 H   0  0  0  0  0  0  0  0  0  0  0  0
   -3.0062    3.9023    2.0409 H   0  0  0  0  0  0  0  0  0  0  0  0
   -0.6071    1.3358   -0.0200 N   0  0  0  0  0  0  0  0  0  0  0  0
    0.5702    0.8350   -0.6836 C   0  0  2  0  0  0  0  0  0  0  0  0
    0.5424   -0.6847   -0.5657 C   0  0  0  0  0  0  0  0  0  0  0  0
   -0.0111   -1.2739    0.3603 O   0  0  0  0  0  0  0  0  0  0  0  0
    1.8607    1.3934   -0.0731 C   0  0  0  0  0  0  0  0  0  0  0  0
    1.9837    2.8888   -0.2352 C   0  0  0  0  0  0  0  0  0  0  0  0
    2.3047    3.4794   -1.4249 N   0  0  0  0  0  0  0  0  0  0  0  0
    1.8289    3.9331    0.6457 C   0  0  0  0  0  0  0  0  0  0  0  0
    2.3310    4.8306   -1.2179 C   0  0  0  0  0  0  0  0  0  0  0  0
    2.0461    5.1392    0.0278 N   0  0  0  0  0  0  0  0  0  0  0  0
   -1.3903    1.6325   -0.5973 H   0  0  0  0  0  0  0  0  0  0  0  0
    0.4764    1.1148   -1.7396 H   0  0  0  0  0  0  0  0  0  0  0  0
    2.7361    0.9005   -0.5173 H   0  0  0  0  0  0  0  0  0  0  0  0
    1.9110    1.1585    0.9984 H   0  0  0  0  0  0  0  0  0  0  0  0
    2.4907    3.0065   -2.2996 H   0  0  0  0  0  0  0  0  0  0  0  0
    1.5720    3.8804    1.6942 H   0  0  0  0  0  0  0  0  0  0  0  0
    2.5626    5.5284   -2.0099 H   0  0  0  0  0  0  0  0  0  0  0  0
    1.1650   -1.3009   -1.6423 N   0  0  0  0  0  0  0  0  0  0  0  0
    1.2589   -2.7355   -1.7899 C   0  0  2  0  0  0  0  0  0  0  0  0
    1.7925   -3.3088   -0.4837 C   0  0  0  0  0  0  0  0  0  0  0  0
    2.4389   -2.6461    0.3252 O   0  0  0  0  0  0  0  0  0  0  0  0
    2.1575   -3.1140   -2.9569 C   0  0  0  0  0  0  0  0  0  0  0  0
    1.5752   -0.7140   -2.3627 H   0  0  0  0  0  0  0  0  0  0  0  0
    0.2414   -3.1031   -1.9619 H   0  0  0  0  0  0  0  0  0  0  0  0
    3.1813   -2.7542   -2.8024 H   0  0  0  0  0  0  0  0  0  0  0  0
    2.2049   -4.2005   -3.0851 H   0  0  0  0  0  0  0  0  0  0  0  0
    1.7887   -2.6762   -3.8908 H   0  0  0  0  0  0  0  0  0  0  0  0
    1.4992   -4.6584   -0.3476 N   0  0  0  0  0  0  0  0  0  0  0  0
    1.9089   -5.4335    0.8002 C   0  0  0  0  0  0  0  0  0  0  0  0
    0.9420   -5.1228   -1.0587 H   0  0  0  0  0  0  0  0  0  0  0  0
    2.8794   -5.9088    0.5948 H   0  0  0  0  0  0  0  0  0  0  0  0
    2.0022   -4.7724    1.6744 H   0  0  0  0  0  0  0  0  0  0  0  0
    1.1569   -6.2095    1.0058 H   0  0  0  0  0  0  0  0  0  0  0  0
 22 24  2  0  0  0  0
 24 26  1  0  0  0  0
 25 26  2  0  0  0  0
 23 25  1  0  0  0  0
 21 22  1  0  0  0  0
 22 23  1  0  0  0  0
  1  3  1  0  0  0  0
  1  7  1  0  0  0  0
  1  2  2  0  0  0  0
 35 36  1  0  0  0  0
 36 44  1  0  0  0  0
 36 37  2  0  0  0  0
  8  9  1  0  0  0  0
  9 17  1  0  0  0  0
  9 10  2  0  0  0  0
 18 19  1  0  0  0  0
 19 34  1  0  0  0  0
 19 20  2  0  0  0  0
 35 38  1  0  0  0  0
  8 11  1  0  0  0  0
 44 45  1  0  0  0  0
 18 21  1  0  0  0  0
 34 35  1  0  0  0  0
  7  8  1  0  0  0  0
 17 18  1  0  0  0  0
 24 32  1  0  0  0  0
 25 33  1  0  0  0  0
  3  4  1  0  0  0  0
  3  5  1  0  0  0  0
  3  6  1  0  0  0  0
 38 41  1  0  0  0  0
 38 42  1  0  0  0  0
 38 43  1  0  0  0  0
 11 14  1  0  0  0  0
 11 15  1  0  0  0  0
 11 16  1  0  0  0  0
 45 47  1  0  0  0  0
 45 48  1  0  0  0  0
 45 49  1  0  0  0  0
 21 29  1  0  0  0  0
 21 30  1  0  0  0  0
 35 40  1  0  0  0  0
  8 13  1  0  0  0  0
 18 28  1  0  0  0  0
 23 31  1  0  0  0  0
 44 46  1  0  0  0  0
  7 12  1  0  0  0  0
 34 39  1  0  0  0  0
 17 27  1  0  0  0  0
M  END
$$$$

  -OEChem-05262214473D

 49 49  0     1  0  0  0  0  0999 V2000
   -1.5619    0.5658    3.7981 C   0  0  0  0  0  0  0  0  0  0  0  0
   -0.6145   -0.0489    3.3224 O   0  0  0  0  0  0  0  0  0  0  0  0
   -1.9938    0.2834    5.1988 C   0  0  0  0  0  0  0  0  0  0  0  0
   -2.7535   -0.5129    5.2522 H   0  0  0  0  0  0  0  0  0  0  0  0
   -1.1626   -0.0642    5.8331 H   0  0  0  0  0  0  0  0  0  0  0  0
   -2.4318    1.1383    5.7384 H   0  0  0  0  0  0  0  0  0  0  0  0
   -2.3116    1.5383    3.1570 N   0  0  0  0  0  0  0  0  0  0  0  0
   -2.0648    1.9643    1.8046 C   0  0  2  0  0  0  0  0  0  0  0  0
   -0.7298    1.3789    1.3634 C   0  0  0  0  0  0  0  0  0  0  0  0
    0.1423    1.0262    2.1547 O   0  0  0  0  0  0  0  0  0  0  0  0
   -2.0560    3.4811    1.6952 C   0  0  0  0  0  0  0  0  0  0  0  0
   -3.0767    1.9741    3.6688 H   0  0  0  0  0  0  0  0  0  0  0  0
   -2.8689    1.5458    1.1895 H   0  0  0  0  0  0  0  0  0  0  0  0
   -1.2569    3.9183    2.3049 H   0  0  0  0  0  0  0  0  0  0  0  0
   -1.8965    3.8033    0.6609 H   0  0  0  0  0  0  0  0  0  0  0  0
   -3.0062    3.9023    2.0409 H   0  0  0  0  0  0  0  0  0  0  0  0
   -0.6071    1.3358   -0.0200 N   0  0  0  0  0  0  0  0  0  0  0  0
    0.5702    0.8350   -0.6836 C   0  0  2  0  0  0  0  0  0  0  0  0
    0.5424   -0.6847   -0.5657 C   0  0  0  0  0  0  0  0  0  0  0  0
   -0.2197   -1.2833    0.1906 O   0  0  0  0  0  0  0  0  0  0  0  0
    1.8607    1.3934   -0.0731 C   0  0  0  0  0  0  0  0  0  0  0  0
    1.9837    2.8888   -0.2352 C   0  0  0  0  0  0  0  0  0  0  0  0
    2.3047    3.4794   -1.4249 N   0  0  0  0  0  0  0  0  0  0  0  0
    1.8289    3.9331    0.6457 C   0  0  0  0  0  0  0  0  0  0  0  0
    2.3310    4.8306   -1.2179 C   0  0  0  0  0  0  0  0  0  0  0  0
    2.0461    5.1392    0.0278 N   0  0  0  0  0  0  0  0  0  0  0  0
   -1.3903    1.6325   -0.5973 H   0  0  0  0  0  0  0  0  0  0  0  0
    0.4764    1.1148   -1.7396 H   0  0  0  0  0  0  0  0  0  0  0  0
    2.7361    0.9005   -0.5173 H   0  0  0  0  0  0  0  0  0  0  0  0
    1.9110    1.1585    0.9984 H   0  0  0  0  0  0  0  0  0  0  0  0
    2.4907    3.0065   -2.2996 H   0  0  0  0  0  0  0  0  0  0  0  0
    1.5720    3.8804    1.6942 H   0  0  0  0  0  0  0  0  0  0  0  0
    2.5626    5.5284   -2.0099 H   0  0  0  0  0  0  0  0  0  0  0  0
    1.4335   -1.2902   -1.4407 N   0  0  0  0  0  0  0  0  0  0  0  0
    1.5902   -2.7229   -1.5485 C   0  0  2  0  0  0  0  0  0  0  0  0
    1.7797   -3.2822   -0.1447 C   0  0  0  0  0  0  0  0  0  0  0  0
    2.1825   -2.6047    0.7986 O   0  0  0  0  0  0  0  0  0  0  0  0
    2.7667   -3.0852   -2.4414 C   0  0  0  0  0  0  0  0  0  0  0  0
    2.0043   -0.6965   -2.0352 H   0  0  0  0  0  0  0  0  0  0  0  0
    0.6589   -3.1117   -1.9745 H   0  0  0  0  0  0  0  0  0  0  0  0
    3.7088   -2.7039   -2.0307 H   0  0  0  0  0  0  0  0  0  0  0  0
    2.8666   -4.1707   -2.5451 H   0  0  0  0  0  0  0  0  0  0  0  0
    2.6429   -2.6570   -3.4420 H   0  0  0  0  0  0  0  0  0  0  0  0
    1.4875   -4.6374   -0.0790 N   0  0  0  0  0  0  0  0  0  0  0  0
    1.6021   -5.4014    1.1413 C   0  0  0  0  0  0  0  0  0  0  0  0
    1.1418   -5.1146   -0.9063 H   0  0  0  0  0  0  0  0  0  0  0  0
    2.6018   -5.8570    1.1968 H   0  0  0  0  0  0  0  0  0  0  0  0
    1.4537   -4.7367    2.0052 H   0  0  0  0  0  0  0  0  0  0  0  0
    0.8377   -6.1923    1.1517 H   0  0  0  0  0  0  0  0  0  0  0  0
 22 24  2  0  0  0  0
 24 26  1  0  0  0  0
 25 26  2  0  0  0  0
 23 25  1  0  0  0  0
 21 22  1  0  0  0  0
 22 23  1  0  0  0  0
  1  3  1  0  0  0  0
  1  7  1  0  0  0  0
  1  2  2  0  0  0  0
 35 36  1  0  0  0  0
 36 44  1  0  0  0  0
 36 37  2  0  0  0  0
  8  9  1  0  0  0  0
  9 17  1  0  0  0  0
  9 10  2  0  0  0  0
 18 19  1  0  0  0  0
 19 34  1  0  0  0  0
 19 20  2  0  0  0  0
 35 38  1  0  0  0  0
  8 11  1  0  0  0  0
 44 45  1  0  0  0  0
 18 21  1  0  0  0  0
 34 35  1  0  0  0  0
  7  8  1  0  0  0  0
 17 18  1  0  0  0  0
 24 32  1  0  0  0  0
 25 33  1  0  0  0  0
  3  4  1  0  0  0  0
  3  5  1  0  0  0  0
  3  6  1  0  0  0  0
 38 41  1  0  0  0  0
 38 42  1  0  0  0  0
 38 43  1  0  0  0  0
 11 14  1  0  0  0  0
 11 15  1  0  0  0  0
 11 16  1  0  0  0  0
 45 47  1  0  0  0  0
 45 48  1  0  0  0  0
 45 49  1  0  0  0  0
 21 29  1  0  0  0  0
 21 30  1  0  0  0  0
 35 40  1  0  0  0  0
  8 13  1  0  0  0  0
 18 28  1  0  0  0  0
 23 31  1  0  0  0  0
 44 46  1  0  0  0  0
  7 12  1  0  0  0  0
 34 39  1  0  0  0  0
 17 27  1  0  0  0  0
M  END
$$$$

  -OEChem-05262214473D

 49 49  0     1  0  0  0  0  0999 V2000
   -1.5619    0.5658    3.7981 C   0  0  0  0  0  0  0  0  0  0  0  0
   -0.6145   -0.0489    3.3224 O   0  0  0  0  0  0  0  0  0  0  0  0
   -1.9938    0.2834    5.1988 C   0  0  0  0  0  0  0  0  0  0  0  0
   -2.7535   -0.5129    5.2522 H   0  0  0  0  0  0  0  0  0  0  0  0
   -1.1626   -0.0642    5.8331 H   0  0  0  0  0  0  0  0  0  0  0  0
   -2.4318    1.1383    5.7384 H   0  0  0  0  0  0  0  0  0  0  0  0
   -2.3116    1.5383    3.1570 N   0  0  0  0  0  0  0  0  0  0  0  0
   -2.0648    1.9643    1.8046 C   0  0  2  0  0  0  0  0  0  0  0  0
   -0.7298    1.3789    1.3634 C   0  0  0  0  0  0  0  0  0  0  0  0
    0.1423    1.0262    2.1547 O   0  0  0  0  0  0  0  0  0  0  0  0
   -2.0560    3.4811    1.6952 C   0  0  0  0  0  0  0  0  0  0  0  0
   -3.0767    1.9741    3.6688 H   0  0  0  0  0  0  0  0  0  0  0  0
   -2.8689    1.5458    1.1895 H   0  0  0  0  0  0  0  0  0  0  0  0
   -1.2569    3.9183    2.3049 H   0  0  0  0  0  0  0  0  0  0  0  0
   -1.8965    3.8033    0.6609 H   0  0  0  0  0  0  0  0  0  0  0  0
   -3.0062    3.9023    2.0409 H   0  0  0  0  0  0  0  0  0  0  0  0
   -0.6071    1.3358   -0.0200 N   0  0  0  0  0  0  0  0  0  0  0  0
    0.5702    0.8350   -0.6836 C   0  0  2  0  0  0  0  0  0  0  0  0
    0.3641   -0.6599   -0.9005 C   0  0  0  0  0  0  0  0  0  0  0  0
   -0.6675   -1.2465   -0.5803 O   0  0  0  0  0  0  0  0  0  0  0  0
    1.8445    1.0846    0.1312 C   0  0  0  0  0  0  0  0  0  0  0  0
    2.1465    2.5528    0.3072 C   0  0  0  0  0  0  0  0  0  0  0  0
    2.6508    3.3293   -0.6978 N   0  0  0  0  0  0  0  0  0  0  0  0
    2.0173    3.4043    1.3790 C   0  0  0  0  0  0  0  0  0  0  0  0
    2.8034    4.5940   -0.2012 C   0  0  0  0  0  0  0  0  0  0  0  0
    2.4277    4.6735    1.0559 N   0  0  0  0  0  0  0  0  0  0  0  0
   -1.3903    1.6325   -0.5973 H   0  0  0  0  0  0  0  0  0  0  0  0
    0.6166    1.3359   -1.6578 H   0  0  0  0  0  0  0  0  0  0  0  0
    2.7016    0.5852   -0.3406 H   0  0  0  0  0  0  0  0  0  0  0  0
    1.7584    0.6296    1.1268 H   0  0  0  0  0  0  0  0  0  0  0  0
    2.8728    3.0268   -1.6372 H   0  0  0  0  0  0  0  0  0  0  0  0
    1.6498    3.1704    2.3680 H   0  0  0  0  0  0  0  0  0  0  0  0
    3.1903    5.4042   -0.8028 H   0  0  0  0  0  0  0  0  0  0  0  0
    1.4483   -1.2467   -1.5382 N   0  0  0  0  0  0  0  0  0  0  0  0
    1.5019   -2.6489   -1.8840 C   0  0  2  0  0  0  0  0  0  0  0  0
    1.1302   -3.4533   -0.6453 C   0  0  0  0  0  0  0  0  0  0  0  0
    1.2327   -3.0114    0.4972 O   0  0  0  0  0  0  0  0  0  0  0  0
    2.8802   -3.0410   -2.3933 C   0  0  0  0  0  0  0  0  0  0  0  0
    2.2442   -0.6611   -1.7736 H   0  0  0  0  0  0  0  0  0  0  0  0
    0.7506   -2.8111   -2.6645 H   0  0  0  0  0  0  0  0  0  0  0  0
    3.6463   -2.8854   -1.6250 H   0  0  0  0  0  0  0  0  0  0  0  0
    2.9110   -4.0968   -2.6818 H   0  0  0  0  0  0  0  0  0  0  0  0
    3.1583   -2.4407   -3.2663 H   0  0  0  0  0  0  0  0  0  0  0  0
    0.7116   -4.7377   -0.9634 N   0  0  0  0  0  0  0  0  0  0  0  0
    0.3165   -5.6996    0.0390 C   0  0  0  0  0  0  0  0  0  0  0  0
    0.6394   -5.0127   -1.9386 H   0  0  0  0  0  0  0  0  0  0  0  0
    1.1858   -6.3099    0.3251 H   0  0  0  0  0  0  0  0  0  0  0  0
   -0.0670   -5.1704    0.9238 H   0  0  0  0  0  0  0  0  0  0  0  0
   -0.4707   -6.3511   -0.3683 H   0  0  0  0  0  0  0  0  0  0  0  0
 22 24  2  0  0  0  0
 24 26  1  0  0  0  0
 25 26  2  0  0  0  0
 23 25  1  0  0  0  0
 21 22  1  0  0  0  0
 22 23  1  0  0  0  0
  1  3  1  0  0  0  0
  1  7  1  0  0  0  0
  1  2  2  0  0  0  0
 35 36  1  0  0  0  0
 36 44  1  0  0  0  0
 36 37  2  0  0  0  0
  8  9  1  0  0  0  0
  9 17  1  0  0  0  0
  9 10  2  0  0  0  0
 18 19  1  0  0  0  0
 19 34  1  0  0  0  0
 19 20  2  0  0  0  0
 35 38  1  0  0  0  0
  8 11  1  0  0  0  0
 44 45  1  0  0  0  0
 18 21  1  0  0  0  0
 34 35  1  0  0  0  0
  7  8  1  0  0  0  0
 17 18  1  0  0  0  0
 24 32  1  0  0  0  0
 25 33  1  0  0  0  0
  3  4  1  0  0  0  0
  3  5  1  0  0  0  0
  3  6  1  0  0  0  0
 38 41  1  0  0  0  0
 38 42  1  0  0  0  0
 38 43  1  0  0  0  0
 11 14  1  0  0  0  0
 11 15  1  0  0  0  0
 11 16  1  0  0  0  0
 45 47  1  0  0  0  0
 45 48  1  0  0  0  0
 45 49  1  0  0  0  0
 21 29  1  0  0  0  0
 21 30  1  0  0  0  0
 35 40  1  0  0  0  0
  8 13  1  0  0  0  0
 18 28  1  0  0  0  0
 23 31  1  0  0  0  0
 44 46  1  0  0  0  0
  7 12  1  0  0  0  0
 34 39  1  0  0  0  0
 17 27  1  0  0  0  0
M  END
$$$$

  -OEChem-05262214473D

 49 49  0     1  0  0  0  0  0999 V2000
   -1.5619    0.5658    3.7981 C   0  0  0  0  0  0  0  0  0  0  0  0
   -0.6145   -0.0489    3.3224 O   0  0  0  0  0  0  0  0  0  0  0  0
   -1.9938    0.2834    5.1988 C   0  0  0  0  0  0  0  0  0  0  0  0
   -2.7535   -0.5129    5.2522 H   0  0  0  0  0  0  0  0  0  0  0  0
   -1.1626   -0.0642    5.8331 H   0  0  0  0  0  0  0  0  0  0  0  0
   -2.4318    1.1383    5.7384 H   0  0  0  0  0  0  0  0  0  0  0  0
   -2.3116    1.5383    3.1570 N   0  0  0  0  0  0  0  0  0  0  0  0
   -2.0648    1.9643    1.8046 C   0  0  2  0  0  0  0  0  0  0  0  0
   -0.7298    1.3789    1.3634 C   0  0  0  0  0  0  0  0  0  0  0  0
    0.1423    1.0262    2.1547 O   0  0  0  0  0  0  0  0  0  0  0  0
   -2.0560    3.4811    1.6952 C   0  0  0  0  0  0  0  0  0  0  0  0
   -3.0767    1.9741    3.6688 H   0  0  0  0  0  0  0  0  0  0  0  0
   -2.8689    1.5458    1.1895 H   0  0  0  0  0  0  0  0  0  0  0  0
   -1.2569    3.9183    2.3049 H   0  0  0  0  0  0  0  0  0  0  0  0
   -1.8965    3.8033    0.6609 H   0  0  0  0  0  0  0  0  0  0  0  0
   -3.0062    3.9023    2.0409 H   0  0  0  0  0  0  0  0  0  0  0  0
   -0.6071    1.3358   -0.0200 N   0  0  0  0  0  0  0  0  0  0  0  0
    0.5702    0.8350   -0.6836 C   0  0  2  0  0  0  0  0  0  0  0  0
    0.3641   -0.6599   -0.9005 C   0  0  0  0  0  0  0  0  0  0  0  0
   -0.7383   -1.1997   -0.8358 O   0  0  0  0  0  0  0  0  0  0  0  0
    1.8445    1.0846    0.1312 C   0  0  0  0  0  0  0  0  0  0  0  0
    2.1465    2.5528    0.3072 C   0  0  0  0  0  0  0  0  0  0  0  0
    2.6508    3.3293   -0.6978 N   0  0  0  0  0  0  0  0  0  0  0  0
    2.0173    3.4043    1.3790 C   0  0  0  0  0  0  0  0  0  0  0  0
    2.8034    4.5940   -0.2012 C   0  0  0  0  0  0  0  0  0  0  0  0
    2.4277    4.6735    1.0559 N   0  0  0  0  0  0  0  0  0  0  0  0
   -1.3903    1.6325   -0.5973 H   0  0  0  0  0  0  0  0  0  0  0  0
    0.6166    1.3359   -1.6578 H   0  0  0  0  0  0  0  0  0  0  0  0
    2.7016    0.5852   -0.3406 H   0  0  0  0  0  0  0  0  0  0  0  0
    1.7584    0.6296    1.1268 H   0  0  0  0  0  0  0  0  0  0  0  0
    2.8728    3.0268   -1.6372 H   0  0  0  0  0  0  0  0  0  0  0  0
    1.6498    3.1704    2.3680 H   0  0  0  0  0  0  0  0  0  0  0  0
    3.1903    5.4042   -0.8028 H   0  0  0  0  0  0  0  0  0  0  0  0
    1.5492   -1.3063   -1.2233 N   0  0  0  0  0  0  0  0  0  0  0  0
    1.6306   -2.7222   -1.5015 C   0  0  2  0  0  0  0  0  0  0  0  0
    0.9245   -3.4643   -0.3745 C   0  0  0  0  0  0  0  0  0  0  0  0
    0.7526   -2.9808    0.7426 O   0  0  0  0  0  0  0  0  0  0  0  0
    3.0754   -3.1784   -1.6313 C   0  0  0  0  0  0  0  0  0  0  0  0
    2.4023   -0.7565   -1.2661 H   0  0  0  0  0  0  0  0  0  0  0  0
    1.0952   -2.8909   -2.4423 H   0  0  0  0  0  0  0  0  0  0  0  0
    3.6278   -3.0173   -0.6984 H   0  0  0  0  0  0  0  0  0  0  0  0
    3.1346   -4.2454   -1.8704 H   0  0  0  0  0  0  0  0  0  0  0  0
    3.5901   -2.6226   -2.4226 H   0  0  0  0  0  0  0  0  0  0  0  0
    0.5473   -4.7461   -0.7496 N   0  0  0  0  0  0  0  0  0  0  0  0
   -0.1281   -5.6541    0.1478 C   0  0  0  0  0  0  0  0  0  0  0  0
    0.7130   -5.0571   -1.7023 H   0  0  0  0  0  0  0  0  0  0  0  0
    0.6145   -6.2803    0.6640 H   0  0  0  0  0  0  0  0  0  0  0  0
   -0.7008   -5.0780    0.8895 H   0  0  0  0  0  0  0  0  0  0  0  0
   -0.8127   -6.2956   -0.4265 H   0  0  0  0  0  0  0  0  0  0  0  0
 22 24  2  0  0  0  0
 24 26  1  0  0  0  0
 25 26  2  0  0  0  0
 23 25  1  0  0  0  0
 21 22  1  0  0  0  0
 22 23  1  0  0  0  0
  1  3  1  0  0  0  0
  1  7  1  0  0  0  0
  1  2  2  0  0  0  0
 35 36  1  0  0  0  0
 36 44  1  0  0  0  0
 36 37  2  0  0  0  0
  8  9  1  0  0  0  0
  9 17  1  0  0  0  0
  9 10  2  0  0  0  0
 18 19  1  0  0  0  0
 19 34  1  0  0  0  0
 19 20  2  0  0  0  0
 35 38  1  0  0  0  0
  8 11  1  0  0  0  0
 44 45  1  0  0  0  0
 18 21  1  0  0  0  0
 34 35  1  0  0  0  0
  7  8  1  0  0  0  0
 17 18  1  0  0  0  0
 24 32  1  0  0  0  0
 25 33  1  0  0  0  0
  3  4  1  0  0  0  0
  3  5  1  0  0  0  0
  3  6  1  0  0  0  0
 38 41  1  0  0  0  0
 38 42  1  0  0  0  0
 38 43  1  0  0  0  0
 11 14  1  0  0  0  0
 11 15  1  0  0  0  0
 11 16  1  0  0  0  0
 45 47  1  0  0  0  0
 45 48  1  0  0  0  0
 45 49  1  0  0  0  0
 21 29  1  0  0  0  0
 21 30  1  0  0  0  0
 35 40  1  0  0  0  0
  8 13  1  0  0  0  0
 18 28  1  0  0  0  0
 23 31  1  0  0  0  0
 44 46  1  0  0  0  0
  7 12  1  0  0  0  0
 34 39  1  0  0  0  0
 17 27  1  0  0  0  0
M  END
$$$$

  -OEChem-05262214473D

 49 49  0     1  0  0  0  0  0999 V2000
   -1.5619    0.5658    3.7981 C   0  0  0  0  0  0  0  0  0  0  0  0
   -0.6145   -0.0489    3.3224 O   0  0  0  0  0  0  0  0  0  0  0  0
   -1.9938    0.2834    5.1988 C   0  0  0  0  0  0  0  0  0  0  0  0
   -2.7535   -0.5129    5.2522 H   0  0  0  0  0  0  0  0  0  0  0  0
   -1.1626   -0.0642    5.8331 H   0  0  0  0  0  0  0  0  0  0  0  0
   -2.4318    1.1383    5.7384 H   0  0  0  0  0  0  0  0  0  0  0  0
   -2.3116    1.5383    3.1570 N   0  0  0  0  0  0  0  0  0  0  0  0
   -2.0648    1.9643    1.8046 C   0  0  2  0  0  0  0  0  0  0  0  0
   -0.7298    1.3789    1.3634 C   0  0  0  0  0  0  0  0  0  0  0  0
    0.1423    1.0262    2.1547 O   0  0  0  0  0  0  0  0  0  0  0  0
   -2.0560    3.4811    1.6952 C   0  0  0  0  0  0  0  0  0  0  0  0
   -3.0767    1.9741    3.6688 H   0  0  0  0  0  0  0  0  0  0  0  0
   -2.8689    1.5458    1.1895 H   0  0  0  0  0  0  0  0  0  0  0  0
   -1.2569    3.9183    2.3049 H   0  0  0  0  0  0  0  0  0  0  0  0
   -1.8965    3.8033    0.6609 H   0  0  0  0  0  0  0  0  0  0  0  0
   -3.0062    3.9023    2.0409 H   0  0  0  0  0  0  0  0  0  0  0  0
   -0.6071    1.3358   -0.0200 N   0  0  0  0  0  0  0  0  0  0  0  0
    0.5702    0.8350   -0.6836 C   0  0  2  0  0  0  0  0  0  0  0  0
    0.3641   -0.6599   -0.9005 C   0  0  0  0  0  0  0  0  0  0  0  0
   -0.7401   -1.1608   -1.1021 O   0  0  0  0  0  0  0  0  0  0  0  0
    1.8445    1.0846    0.1312 C   0  0  0  0  0  0  0  0  0  0  0  0
    2.1465    2.5528    0.3072 C   0  0  0  0  0  0  0  0  0  0  0  0
    2.6508    3.3293   -0.6978 N   0  0  0  0  0  0  0  0  0  0  0  0
    2.0173    3.4043    1.3790 C   0  0  0  0  0  0  0  0  0  0  0  0
    2.8034    4.5940   -0.2012 C   0  0  0  0  0  0  0  0  0  0  0  0
    2.4277    4.6735    1.0559 N   0  0  0  0  0  0  0  0  0  0  0  0
   -1.3903    1.6325   -0.5973 H   0  0  0  0  0  0  0  0  0  0  0  0
    0.6166    1.3359   -1.6578 H   0  0  0  0  0  0  0  0  0  0  0  0
    2.7016    0.5852   -0.3406 H   0  0  0  0  0  0  0  0  0  0  0  0
    1.7584    0.6296    1.1268 H   0  0  0  0  0  0  0  0  0  0  0  0
    2.8728    3.0268   -1.6372 H   0  0  0  0  0  0  0  0  0  0  0  0
    1.6498    3.1704    2.3680 H   0  0  0  0  0  0  0  0  0  0  0  0
    3.1903    5.4042   -0.8028 H   0  0  0  0  0  0  0  0  0  0  0  0
    1.5646   -1.3565   -0.8914 N   0  0  0  0  0  0  0  0  0  0  0  0
    1.6551   -2.7842   -1.0969 C   0  0  2  0  0  0  0  0  0  0  0  0
    0.6567   -3.4578   -0.1647 C   0  0  0  0  0  0  0  0  0  0  0  0
    0.2277   -2.9250    0.8567 O   0  0  0  0  0  0  0  0  0  0  0  0
    3.0656   -3.2918   -0.8409 C   0  0  0  0  0  0  0  0  0  0  0  0
    2.4226   -0.8368   -0.7323 H   0  0  0  0  0  0  0  0  0  0  0  0
    1.3688   -2.9728   -2.1373 H   0  0  0  0  0  0  0  0  0  0  0  0
    3.3701   -3.1116    0.1965 H   0  0  0  0  0  0  0  0  0  0  0  0
    3.1392   -4.3687   -1.0247 H   0  0  0  0  0  0  0  0  0  0  0  0
    3.7863   -2.7848   -1.4916 H   0  0  0  0  0  0  0  0  0  0  0  0
    0.3341   -4.7407   -0.5845 N   0  0  0  0  0  0  0  0  0  0  0  0
   -0.5834   -5.5900    0.1385 C   0  0  0  0  0  0  0  0  0  0  0  0
    0.7225   -5.0944   -1.4539 H   0  0  0  0  0  0  0  0  0  0  0  0
   -0.0223   -6.2189    0.8454 H   0  0  0  0  0  0  0  0  0  0  0  0
   -1.3010   -4.9667    0.6923 H   0  0  0  0  0  0  0  0  0  0  0  0
   -1.1263   -6.2313   -0.5714 H   0  0  0  0  0  0  0  0  0  0  0  0
 22 24  2  0  0  0  0
 24 26  1  0  0  0  0
 25 26  2  0  0  0  0
 23 25  1  0  0  0  0
 21 22  1  0  0  0  0
 22 23  1  0  0  0  0
  1  3  1  0  0  0  0
  1  7  1  0  0  0  0
  1  2  2  0  0  0  0
 35 36  1  0  0  0  0
 36 44  1  0  0  0  0
 36 37  2  0  0  0  0
  8  9  1  0  0  0  0
  9 17  1  0  0  0  0
  9 10  2  0  0  0  0
 18 19  1  0  0  0  0
 19 34  1  0  0  0  0
 19 20  2  0  0  0  0
 35 38  1  0  0  0  0
  8 11  1  0  0  0  0
 44 45  1  0  0  0  0
 18 21  1  0  0  0  0
 34 35  1  0  0  0  0
  7  8  1  0  0  0  0
 17 18  1  0  0  0  0
 24 32  1  0  0  0  0
 25 33  1  0  0  0  0
  3  4  1  0  0  0  0
  3  5  1  0  0  0  0
  3  6  1  0  0  0  0
 38 41  1  0  0  0  0
 38 42  1  0  0  0  0
 38 43  1  0  0  0  0
 11 14  1  0  0  0  0
 11 15  1  0  0  0  0
 11 16  1  0  0  0  0
 45 47  1  0  0  0  0
 45 48  1  0  0  0  0
 45 49  1  0  0  0  0
 21 29  1  0  0  0  0
 21 30  1  0  0  0  0
 35 40  1  0  0  0  0
  8 13  1  0  0  0  0
 18 28  1  0  0  0  0
 23 31  1  0  0  0  0
 44 46  1  0  0  0  0
  7 12  1  0  0  0  0
 34 39  1  0  0  0  0
 17 27  1  0  0  0  0
M  END
$$$$

  -OEChem-05262214473D

 49 49  0     1  0  0  0  0  0999 V2000
   -1.5619    0.5658    3.7981 C   0  0  0  0  0  0  0  0  0  0  0  0
   -0.6145   -0.0489    3.3224 O   0  0  0  0  0  0  0  0  0  0  0  0
   -1.9938    0.2834    5.1988 C   0  0  0  0  0  0  0  0  0  0  0  0
   -2.7535   -0.5129    5.2522 H   0  0  0  0  0  0  0  0  0  0  0  0
   -1.1626   -0.0642    5.8331 H   0  0  0  0  0  0  0  0  0  0  0  0
   -2.4318    1.1383    5.7384 H   0  0  0  0  0  0  0  0  0  0  0  0
   -2.3116    1.5383    3.1570 N   0  0  0  0  0  0  0  0  0  0  0  0
   -2.0648    1.9643    1.8046 C   0  0  2  0  0  0  0  0  0  0  0  0
   -0.7298    1.3789    1.3634 C   0  0  0  0  0  0  0  0  0  0  0  0
    0.1423    1.0262    2.1547 O   0  0  0  0  0  0  0  0  0  0  0  0
   -2.0560    3.4811    1.6952 C   0  0  0  0  0  0  0  0  0  0  0  0
   -3.0767    1.9741    3.6688 H   0  0  0  0  0  0  0  0  0  0  0  0
   -2.8689    1.5458    1.1895 H   0  0  0  0  0  0  0  0  0  0  0  0
   -1.2569    3.9183    2.3049 H   0  0  0  0  0  0  0  0  0  0  0  0
   -1.8965    3.8033    0.6609 H   0  0  0  0  0  0  0  0  0  0  0  0
   -3.0062    3.9023    2.0409 H   0  0  0  0  0  0  0  0  0  0  0  0
   -0.6071    1.3358   -0.0200 N   0  0  0  0  0  0  0  0  0  0  0  0
    0.5702    0.8350   -0.6836 C   0  0  2  0  0  0  0  0  0  0  0  0
    0.3641   -0.6599   -0.9005 C   0  0  0  0  0  0  0  0  0  0  0  0
   -0.6728   -1.1325   -1.3612 O   0  0  0  0  0  0  0  0  0  0  0  0
    1.8445    1.0846    0.1312 C   0  0  0  0  0  0  0  0  0  0  0  0
    2.1465    2.5528    0.3072 C   0  0  0  0  0  0  0  0  0  0  0  0
    2.6508    3.3293   -0.6978 N   0  0  0  0  0  0  0  0  0  0  0  0
    2.0173    3.4043    1.3790 C   0  0  0  0  0  0  0  0  0  0  0  0
    2.8034    4.5940   -0.2012 C   0  0  0  0  0  0  0  0  0  0  0  0
    2.4277    4.6735    1.0559 N   0  0  0  0  0  0  0  0  0  0  0  0
   -1.3903    1.6325   -0.5973 H   0  0  0  0  0  0  0  0  0  0  0  0
    0.6166    1.3359   -1.6578 H   0  0  0  0  0  0  0  0  0  0  0  0
    2.7016    0.5852   -0.3406 H   0  0  0  0  0  0  0  0  0  0  0  0
    1.7584    0.6296    1.1268 H   0  0  0  0  0  0  0  0  0  0  0  0
    2.8728    3.0268   -1.6372 H   0  0  0  0  0  0  0  0  0  0  0  0
    1.6498    3.1704    2.3680 H   0  0  0  0  0  0  0  0  0  0  0  0
    3.1903    5.4042   -0.8028 H   0  0  0  0  0  0  0  0  0  0  0  0
    1.4933   -1.3940   -0.5652 N   0  0  0  0  0  0  0  0  0  0  0  0
    1.5738   -2.8310   -0.6977 C   0  0  2  0  0  0  0  0  0  0  0  0
    0.3450   -3.4343   -0.0302 C   0  0  0  0  0  0  0  0  0  0  0  0
   -0.3062   -2.8478    0.8318 O   0  0  0  0  0  0  0  0  0  0  0  0
    2.8514   -3.3732   -0.0760 C   0  0  0  0  0  0  0  0  0  0  0  0
    2.3039   -0.8964   -0.2088 H   0  0  0  0  0  0  0  0  0  0  0  0
    1.5527   -3.0514   -1.7705 H   0  0  0  0  0  0  0  0  0  0  0  0
    2.8905   -3.1619    0.9988 H   0  0  0  0  0  0  0  0  0  0  0  0
    2.9245   -4.4584   -0.2023 H   0  0  0  0  0  0  0  0  0  0  0  0
    3.7336   -2.9160   -0.5369 H   0  0  0  0  0  0  0  0  0  0  0  0
    0.0864   -4.7218   -0.4794 N   0  0  0  0  0  0  0  0  0  0  0  0
   -1.0186   -5.5116    0.0118 C   0  0  0  0  0  0  0  0  0  0  0  0
    0.6672   -5.1222   -1.2102 H   0  0  0  0  0  0  0  0  0  0  0  0
   -0.6811   -6.1297    0.8568 H   0  0  0  0  0  0  0  0  0  0  0  0
   -1.8265   -4.8440    0.3457 H   0  0  0  0  0  0  0  0  0  0  0  0
   -1.3901   -6.1628   -0.7932 H   0  0  0  0  0  0  0  0  0  0  0  0
 22 24  2  0  0  0  0
 24 26  1  0  0  0  0
 25 26  2  0  0  0  0
 23 25  1  0  0  0  0
 21 22  1  0  0  0  0
 22 23  1  0  0  0  0
  1  3  1  0  0  0  0
  1  7  1  0  0  0  0
  1  2  2  0  0  0  0
 35 36  1  0  0  0  0
 36 44  1  0  0  0  0
 36 37  2  0  0  0  0
  8  9  1  0  0  0  0
  9 17  1  0  0  0  0
  9 10  2  0  0  0  0
 18 19  1  0  0  0  0
 19 34  1  0  0  0  0
 19 20  2  0  0  0  0
 35 38  1  0  0  0  0
  8 11  1  0  0  0  0
 44 45  1  0  0  0  0
 18 21  1  0  0  0  0
 34 35  1  0  0  0  0
  7  8  1  0  0  0  0
 17 18  1  0  0  0  0
 24 32  1  0  0  0  0
 25 33  1  0  0  0  0
  3  4  1  0  0  0  0
  3  5  1  0  0  0  0
  3  6  1  0  0  0  0
 38 41  1  0  0  0  0
 38 42  1  0  0  0  0
 38 43  1  0  0  0  0
 11 14  1  0  0  0  0
 11 15  1  0  0  0  0
 11 16  1  0  0  0  0
 45 47  1  0  0  0  0
 45 48  1  0  0  0  0
 45 49  1  0  0  0  0
 21 29  1  0  0  0  0
 21 30  1  0  0  0  0
 35 40  1  0  0  0  0
  8 13  1  0  0  0  0
 18 28  1  0  0  0  0
 23 31  1  0  0  0  0
 44 46  1  0  0  0  0
  7 12  1  0  0  0  0
 34 39  1  0  0  0  0
 17 27  1  0  0  0  0
M  END
$$$$

  -OEChem-05262214473D

 49 49  0     1  0  0  0  0  0999 V2000
   -1.5619    0.5658    3.7981 C   0  0  0  0  0  0  0  0  0  0  0  0
   -0.6145   -0.0489    3.3224 O   0  0  0  0  0  0  0  0  0  0  0  0
   -1.9938    0.2834    5.1988 C   0  0  0  0  0  0  0  0  0  0  0  0
   -2.7535   -0.5129    5.2522 H   0  0  0  0  0  0  0  0  0  0  0  0
   -1.1626   -0.0642    5.8331 H   0  0  0  0  0  0  0  0  0  0  0  0
   -2.4318    1.1383    5.7384 H   0  0  0  0  0  0  0  0  0  0  0  0
   -2.3116    1.5383    3.1570 N   0  0  0  0  0  0  0  0  0  0  0  0
   -2.0648    1.9643    1.8046 C   0  0  2  0  0  0  0  0  0  0  0  0
   -0.7298    1.3789    1.3634 C   0  0  0  0  0  0  0  0  0  0  0  0
    0.1423    1.0262    2.1547 O   0  0  0  0  0  0  0  0  0  0  0  0
   -2.0560    3.4811    1.6952 C   0  0  0  0  0  0  0  0  0  0  0  0
   -3.0767    1.9741    3.6688 H   0  0  0  0  0  0  0  0  0  0  0  0
   -2.8689    1.5458    1.1895 H   0  0  0  0  0  0  0  0  0  0  0  0
   -1.2569    3.9183    2.3049 H   0  0  0  0  0  0  0  0  0  0  0  0
   -1.8965    3.8033    0.6609 H   0  0  0  0  0  0  0  0  0  0  0  0
   -3.0062    3.9023    2.0409 H   0  0  0  0  0  0  0  0  0  0  0  0
   -0.6071    1.3358   -0.0200 N   0  0  0  0  0  0  0  0  0  0  0  0
    0.5702    0.8350   -0.6836 C   0  0  2  0  0  0  0  0  0  0  0  0
    0.3641   -0.6599   -0.9005 C   0  0  0  0  0  0  0  0  0  0  0  0
   -0.5411   -1.1167   -1.5954 O   0  0  0  0  0  0  0  0  0  0  0  0
    1.8445    1.0846    0.1312 C   0  0  0  0  0  0  0  0  0  0  0  0
    2.1465    2.5528    0.3072 C   0  0  0  0  0  0  0  0  0  0  0  0
    2.6508    3.3293   -0.6978 N   0  0  0  0  0  0  0  0  0  0  0  0
    2.0173    3.4043    1.3790 C   0  0  0  0  0  0  0  0  0  0  0  0
    2.8034    4.5940   -0.2012 C   0  0  0  0  0  0  0  0  0  0  0  0
    2.4277    4.6735    1.0559 N   0  0  0  0  0  0  0  0  0  0  0  0
   -1.3903    1.6325   -0.5973 H   0  0  0  0  0  0  0  0  0  0  0  0
    0.6166    1.3359   -1.6578 H   0  0  0  0  0  0  0  0  0  0  0  0
    2.7016    0.5852   -0.3406 H   0  0  0  0  0  0  0  0  0  0  0  0
    1.7584    0.6296    1.1268 H   0  0  0  0  0  0  0  0  0  0  0  0
    2.8728    3.0268   -1.6372 H   0  0  0  0  0  0  0  0  0  0  0  0
    1.6498    3.1704    2.3680 H   0  0  0  0  0  0  0  0  0  0  0  0
    3.1903    5.4042   -0.8028 H   0  0  0  0  0  0  0  0  0  0  0  0
    1.3403   -1.4162   -0.2669 N   0  0  0  0  0  0  0  0  0  0  0  0
    1.3922   -2.8591   -0.3310 C   0  0  2  0  0  0  0  0  0  0  0  0
    0.0106   -3.3955    0.0197 C   0  0  0  0  0  0  0  0  0  0  0  0
   -0.8127   -2.7545    0.6696 O   0  0  0  0  0  0  0  0  0  0  0  0
    2.4473   -3.4172    0.6114 C   0  0  0  0  0  0  0  0  0  0  0  0
    2.0541   -0.9312    0.2688 H   0  0  0  0  0  0  0  0  0  0  0  0
    1.6343   -3.1212   -1.3668 H   0  0  0  0  0  0  0  0  0  0  0  0
    2.2217   -3.1647    1.6539 H   0  0  0  0  0  0  0  0  0  0  0  0
    2.5051   -4.5084    0.5407 H   0  0  0  0  0  0  0  0  0  0  0  0
    3.4356   -3.0075    0.3765 H   0  0  0  0  0  0  0  0  0  0  0  0
   -0.1789   -4.6908   -0.4413 N   0  0  0  0  0  0  0  0  0  0  0  0
   -1.4038   -5.4244   -0.2238 C   0  0  0  0  0  0  0  0  0  0  0  0
    0.5510   -5.1384   -0.9878 H   0  0  0  0  0  0  0  0  0  0  0  0
   -1.3171   -6.0189    0.6975 H   0  0  0  0  0  0  0  0  0  0  0  0
   -2.2416   -4.7182   -0.1269 H   0  0  0  0  0  0  0  0  0  0  0  0
   -1.5860   -6.0946   -1.0768 H   0  0  0  0  0  0  0  0  0  0  0  0
 22 24  2  0  0  0  0
 24 26  1  0  0  0  0
 25 26  2  0  0  0  0
 23 25  1  0  0  0  0
 21 22  1  0  0  0  0
 22 23  1  0  0  0  0
  1  3  1  0  0  0  0
  1  7  1  0  0  0  0
  1  2  2  0  0  0  0
 35 36  1  0  0  0  0
 36 44  1  0  0  0  0
 36 37  2  0  0  0  0
  8  9  1  0  0  0  0
  9 17  1  0  0  0  0
  9 10  2  0  0  0  0
 18 19  1  0  0  0  0
 19 34  1  0  0  0  0
 19 20  2  0  0  0  0
 35 38  1  0  0  0  0
  8 11  1  0  0  0  0
 44 45  1  0  0  0  0
 18 21  1  0  0  0  0
 34 35  1  0  0  0  0
  7  8  1  0  0  0  0
 17 18  1  0  0  0  0
 24 32  1  0  0  0  0
 25 33  1  0  0  0  0
  3  4  1  0  0  0  0
  3  5  1  0  0  0  0
  3  6  1  0  0  0  0
 38 41  1  0  0  0  0
 38 42  1  0  0  0  0
 38 43  1  0  0  0  0
 11 14  1  0  0  0  0
 11 15  1  0  0  0  0
 11 16  1  0  0  0  0
 45 47  1  0  0  0  0
 45 48  1  0  0  0  0
 45 49  1  0  0  0  0
 21 29  1  0  0  0  0
 21 30  1  0  0  0  0
 35 40  1  0  0  0  0
  8 13  1  0  0  0  0
 18 28  1  0  0  0  0
 23 31  1  0  0  0  0
 44 46  1  0  0  0  0
  7 12  1  0  0  0  0
 34 39  1  0  0  0  0
 17 27  1  0  0  0  0
M  END
$$$$

  -OEChem-05262214473D

 49 49  0     1  0  0  0  0  0999 V2000
   -1.5619    0.5658    3.7981 C   0  0  0  0  0  0  0  0  0  0  0  0
   -0.6145   -0.0489    3.3224 O   0  0  0  0  0  0  0  0  0  0  0  0
   -1.9938    0.2834    5.1988 C   0  0  0  0  0  0  0  0  0  0  0  0
   -2.7535   -0.5129    5.2522 H   0  0  0  0  0  0  0  0  0  0  0  0
   -1.1626   -0.0642    5.8331 H   0  0  0  0  0  0  0  0  0  0  0  0
   -2.4318    1.1383    5.7384 H   0  0  0  0  0  0  0  0  0  0  0  0
   -2.3116    1.5383    3.1570 N   0  0  0  0  0  0  0  0  0  0  0  0
   -2.0648    1.9643    1.8046 C   0  0  2  0  0  0  0  0  0  0  0  0
   -0.7298    1.3789    1.3634 C   0  0  0  0  0  0  0  0  0  0  0  0
    0.1423    1.0262    2.1547 O   0  0  0  0  0  0  0  0  0  0  0  0
   -2.0560    3.4811    1.6952 C   0  0  0  0  0  0  0  0  0  0  0  0
   -3.0767    1.9741    3.6688 H   0  0  0  0  0  0  0  0  0  0  0  0
   -2.8689    1.5458    1.1895 H   0  0  0  0  0  0  0  0  0  0  0  0
   -1.2569    3.9183    2.3049 H   0  0  0  0  0  0  0  0  0  0  0  0
   -1.8965    3.8033    0.6609 H   0  0  0  0  0  0  0  0  0  0  0  0
   -3.0062    3.9023    2.0409 H   0  0  0  0  0  0  0  0  0  0  0  0
   -0.6071    1.3358   -0.0200 N   0  0  0  0  0  0  0  0  0  0  0  0
    0.5702    0.8350   -0.6836 C   0  0  2  0  0  0  0  0  0  0  0  0
    0.3641   -0.6599   -0.9005 C   0  0  0  0  0  0  0  0  0  0  0  0
   -0.3538   -1.1144   -1.7887 O   0  0  0  0  0  0  0  0  0  0  0  0
    1.8445    1.0846    0.1312 C   0  0  0  0  0  0  0  0  0  0  0  0
    2.1465    2.5528    0.3072 C   0  0  0  0  0  0  0  0  0  0  0  0
    2.6508    3.3293   -0.6978 N   0  0  0  0  0  0  0  0  0  0  0  0
    2.0173    3.4043    1.3790 C   0  0  0  0  0  0  0  0  0  0  0  0
    2.8034    4.5940   -0.2012 C   0  0  0  0  0  0  0  0  0  0  0  0
    2.4277    4.6735    1.0559 N   0  0  0  0  0  0  0  0  0  0  0  0
   -1.3903    1.6325   -0.5973 H   0  0  0  0  0  0  0  0  0  0  0  0
    0.6166    1.3359   -1.6578 H   0  0  0  0  0  0  0  0  0  0  0  0
    2.7016    0.5852   -0.3406 H   0  0  0  0  0  0  0  0  0  0  0  0
    1.7584    0.6296    1.1268 H   0  0  0  0  0  0  0  0  0  0  0  0
    2.8728    3.0268   -1.6372 H   0  0  0  0  0  0  0  0  0  0  0  0
    1.6498    3.1704    2.3680 H   0  0  0  0  0  0  0  0  0  0  0  0
    3.1903    5.4042   -0.8028 H   0  0  0  0  0  0  0  0  0  0  0  0
    1.1160   -1.4216   -0.0168 N   0  0  0  0  0  0  0  0  0  0  0  0
    1.1228   -2.8668   -0.0220 C   0  0  2  0  0  0  0  0  0  0  0  0
   -0.3236   -3.3439   -0.0183 C   0  0  0  0  0  0  0  0  0  0  0  0
   -1.2574   -2.6513    0.3810 O   0  0  0  0  0  0  0  0  0  0  0  0
    1.8809   -3.4209    1.1743 C   0  0  0  0  0  0  0  0  0  0  0  0
    1.6904   -0.9390    0.6680 H   0  0  0  0  0  0  0  0  0  0  0  0
    1.6080   -3.1775   -0.9536 H   0  0  0  0  0  0  0  0  0  0  0  0
    1.4094   -3.1200    2.1170 H   0  0  0  0  0  0  0  0  0  0  0  0
    1.9096   -4.5153    1.1536 H   0  0  0  0  0  0  0  0  0  0  0  0
    2.9125   -3.0529    1.1863 H   0  0  0  0  0  0  0  0  0  0  0  0
   -0.4436   -4.6497   -0.4730 N   0  0  0  0  0  0  0  0  0  0  0  0
   -1.7129   -5.3341   -0.5523 C   0  0  0  0  0  0  0  0  0  0  0  0
    0.3817   -5.1420   -0.8020 H   0  0  0  0  0  0  0  0  0  0  0  0
   -1.8869   -5.8941    0.3784 H   0  0  0  0  0  0  0  0  0  0  0  0
   -2.5181   -4.5980   -0.6930 H   0  0  0  0  0  0  0  0  0  0  0  0
   -1.7008   -6.0315   -1.4029 H   0  0  0  0  0  0  0  0  0  0  0  0
 22 24  2  0  0  0  0
 24 26  1  0  0  0  0
 25 26  2  0  0  0  0
 23 25  1  0  0  0  0
 21 22  1  0  0  0  0
 22 23  1  0  0  0  0
  1  3  1  0  0  0  0
  1  7  1  0  0  0  0
  1  2  2  0  0  0  0
 35 36  1  0  0  0  0
 36 44  1  0  0  0  0
 36 37  2  0  0  0  0
  8  9  1  0  0  0  0
  9 17  1  0  0  0  0
  9 10  2  0  0  0  0
 18 19  1  0  0  0  0
 19 34  1  0  0  0  0
 19 20  2  0  0  0  0
 35 38  1  0  0  0  0
  8 11  1  0  0  0  0
 44 45  1  0  0  0  0
 18 21  1  0  0  0  0
 34 35  1  0  0  0  0
  7  8  1  0  0  0  0
 17 18  1  0  0  0  0
 24 32  1  0  0  0  0
 25 33  1  0  0  0  0
  3  4  1  0  0  0  0
  3  5  1  0  0  0  0
  3  6  1  0  0  0  0
 38 41  1  0  0  0  0
 38 42  1  0  0  0  0
 38 43  1  0  0  0  0
 11 14  1  0  0  0  0
 11 15  1  0  0  0  0
 11 16  1  0  0  0  0
 45 47  1  0  0  0  0
 45 48  1  0  0  0  0
 45 49  1  0  0  0  0
 21 29  1  0  0  0  0
 21 30  1  0  0  0  0
 35 40  1  0  0  0  0
  8 13  1  0  0  0  0
 18 28  1  0  0  0  0
 23 31  1  0  0  0  0
 44 46  1  0  0  0  0
  7 12  1  0  0  0  0
 34 39  1  0  0  0  0
 17 27  1  0  0  0  0
M  END
$$$$

  -OEChem-05262214473D

 49 49  0     1  0  0  0  0  0999 V2000
   -1.5619    0.5658    3.7981 C   0  0  0  0  0  0  0  0  0  0  0  0
   -0.6145   -0.0489    3.3224 O   0  0  0  0  0  0  0  0  0  0  0  0
   -1.9938    0.2834    5.1988 C   0  0  0  0  0  0  0  0  0  0  0  0
   -2.7535   -0.5129    5.2522 H   0  0  0  0  0  0  0  0  0  0  0  0
   -1.1626   -0.0642    5.8331 H   0  0  0  0  0  0  0  0  0  0  0  0
   -2.4318    1.1383    5.7384 H   0  0  0  0  0  0  0  0  0  0  0  0
   -2.3116    1.5383    3.1570 N   0  0  0  0  0  0  0  0  0  0  0  0
   -2.0648    1.9643    1.8046 C   0  0  2  0  0  0  0  0  0  0  0  0
   -0.7298    1.3789    1.3634 C   0  0  0  0  0  0  0  0  0  0  0  0
    0.1423    1.0262    2.1547 O   0  0  0  0  0  0  0  0  0  0  0  0
   -2.0560    3.4811    1.6952 C   0  0  0  0  0  0  0  0  0  0  0  0
   -3.0767    1.9741    3.6688 H   0  0  0  0  0  0  0  0  0  0  0  0
   -2.8689    1.5458    1.1895 H   0  0  0  0  0  0  0  0  0  0  0  0
   -1.2569    3.9183    2.3049 H   0  0  0  0  0  0  0  0  0  0  0  0
   -1.8965    3.8033    0.6609 H   0  0  0  0  0  0  0  0  0  0  0  0
   -3.0062    3.9023    2.0409 H   0  0  0  0  0  0  0  0  0  0  0  0
   -0.6071    1.3358   -0.0200 N   0  0  0  0  0  0  0  0  0  0  0  0
    0.5702    0.8350   -0.6836 C   0  0  2  0  0  0  0  0  0  0  0  0
    0.3641   -0.6599   -0.9005 C   0  0  0  0  0  0  0  0  0  0  0  0
   -0.1237   -1.1259   -1.9280 O   0  0  0  0  0  0  0  0  0  0  0  0
    1.8445    1.0846    0.1312 C   0  0  0  0  0  0  0  0  0  0  0  0
    2.1465    2.5528    0.3072 C   0  0  0  0  0  0  0  0  0  0  0  0
    2.6508    3.3293   -0.6978 N   0  0  0  0  0  0  0  0  0  0  0  0
    2.0173    3.4043    1.3790 C   0  0  0  0  0  0  0  0  0  0  0  0
    2.8034    4.5940   -0.2012 C   0  0  0  0  0  0  0  0  0  0  0  0
    2.4277    4.6735    1.0559 N   0  0  0  0  0  0  0  0  0  0  0  0
   -1.3903    1.6325   -0.5973 H   0  0  0  0  0  0  0  0  0  0  0  0
    0.6166    1.3359   -1.6578 H   0  0  0  0  0  0  0  0  0  0  0  0
    2.7016    0.5852   -0.3406 H   0  0  0  0  0  0  0  0  0  0  0  0
    1.7584    0.6296    1.1268 H   0  0  0  0  0  0  0  0  0  0  0  0
    2.8728    3.0268   -1.6372 H   0  0  0  0  0  0  0  0  0  0  0  0
    1.6498    3.1704    2.3680 H   0  0  0  0  0  0  0  0  0  0  0  0
    3.1903    5.4042   -0.8028 H   0  0  0  0  0  0  0  0  0  0  0  0
    0.8357   -1.4098    0.1680 N   0  0  0  0  0  0  0  0  0  0  0  0
    0.7838   -2.8535    0.2084 C   0  0  2  0  0  0  0  0  0  0  0  0
   -0.6348   -3.2831   -0.1416 C   0  0  0  0  0  0  0  0  0  0  0  0
   -1.6098   -2.5454   -0.0141 O   0  0  0  0  0  0  0  0  0  0  0  0
    1.1908   -3.3838    1.5744 C   0  0  0  0  0  0  0  0  0  0  0  0
    1.2374   -0.9192    0.9615 H   0  0  0  0  0  0  0  0  0  0  0  0
    1.4758   -3.2165   -0.5592 H   0  0  0  0  0  0  0  0  0  0  0  0
    0.5090   -3.0306    2.3565 H   0  0  0  0  0  0  0  0  0  0  0  0
    1.1785   -4.4785    1.5948 H   0  0  0  0  0  0  0  0  0  0  0  0
    2.2001   -3.0491    1.8374 H   0  0  0  0  0  0  0  0  0  0  0  0
   -0.6897   -4.6014   -0.5722 N   0  0  0  0  0  0  0  0  0  0  0  0
   -1.9248   -5.2470   -0.9511 C   0  0  0  0  0  0  0  0  0  0  0  0
    0.1709   -5.1328   -0.6653 H   0  0  0  0  0  0  0  0  0  0  0  0
   -2.3517   -5.7637   -0.0788 H   0  0  0  0  0  0  0  0  0  0  0  0
   -2.6370   -4.4914   -1.3143 H   0  0  0  0  0  0  0  0  0  0  0  0
   -1.7267   -5.9777   -1.7491 H   0  0  0  0  0  0  0  0  0  0  0  0
 22 24  2  0  0  0  0
 24 26  1  0  0  0  0
 25 26  2  0  0  0  0
 23 25  1  0  0  0  0
 21 22  1  0  0  0  0
 22 23  1  0  0  0  0
  1  3  1  0  0  0  0
  1  7  1  0  0  0  0
  1  2  2  0  0  0  0
 35 36  1  0  0  0  0
 36 44  1  0  0  0  0
 36 37  2  0  0  0  0
  8  9  1  0  0  0  0
  9 17  1  0  0  0  0
  9 10  2  0  0  0  0
 18 19  1  0  0  0  0
 19 34  1  0  0  0  0
 19 20  2  0  0  0  0
 35 38  1  0  0  0  0
  8 11  1  0  0  0  0
 44 45  1  0  0  0  0
 18 21  1  0  0  0  0
 34 35  1  0  0  0  0
  7  8  1  0  0  0  0
 17 18  1  0  0  0  0
 24 32  1  0  0  0  0
 25 33  1  0  0  0  0
  3  4  1  0  0  0  0
  3  5  1  0  0  0  0
  3  6  1  0  0  0  0
 38 41  1  0  0  0  0
 38 42  1  0  0  0  0
 38 43  1  0  0  0  0
 11 14  1  0  0  0  0
 11 15  1  0  0  0  0
 11 16  1  0  0  0  0
 45 47  1  0  0  0  0
 45 48  1  0  0  0  0
 45 49  1  0  0  0  0
 21 29  1  0  0  0  0
 21 30  1  0  0  0  0
 35 40  1  0  0  0  0
  8 13  1  0  0  0  0
 18 28  1  0  0  0  0
 23 31  1  0  0  0  0
 44 46  1  0  0  0  0
  7 12  1  0  0  0  0
 34 39  1  0  0  0  0
 17 27  1  0  0  0  0
M  END
$$$$

  -OEChem-05262214473D

 49 49  0     1  0  0  0  0  0999 V2000
   -1.5619    0.5658    3.7981 C   0  0  0  0  0  0  0  0  0  0  0  0
   -0.6145   -0.0489    3.3224 O   0  0  0  0  0  0  0  0  0  0  0  0
   -1.9938    0.2834    5.1988 C   0  0  0  0  0  0  0  0  0  0  0  0
   -2.7535   -0.5129    5.2522 H   0  0  0  0  0  0  0  0  0  0  0  0
   -1.1626   -0.0642    5.8331 H   0  0  0  0  0  0  0  0  0  0  0  0
   -2.4318    1.1383    5.7384 H   0  0  0  0  0  0  0  0  0  0  0  0
   -2.3116    1.5383    3.1570 N   0  0  0  0  0  0  0  0  0  0  0  0
   -2.0648    1.9643    1.8046 C   0  0  2  0  0  0  0  0  0  0  0  0
   -0.7298    1.3789    1.3634 C   0  0  0  0  0  0  0  0  0  0  0  0
    0.1423    1.0262    2.1547 O   0  0  0  0  0  0  0  0  0  0  0  0
   -2.0560    3.4811    1.6952 C   0  0  0  0  0  0  0  0  0  0  0  0
   -3.0767    1.9741    3.6688 H   0  0  0  0  0  0  0  0  0  0  0  0
   -2.8689    1.5458    1.1895 H   0  0  0  0  0  0  0  0  0  0  0  0
   -1.2569    3.9183    2.3049 H   0  0  0  0  0  0  0  0  0  0  0  0
   -1.8965    3.8033    0.6609 H   0  0  0  0  0  0  0  0  0  0  0  0
   -3.0062    3.9023    2.0409 H   0  0  0  0  0  0  0  0  0  0  0  0
   -0.6071    1.3358   -0.0200 N   0  0  0  0  0  0  0  0  0  0  0  0
    0.5702    0.8350   -0.6836 C   0  0  2  0  0  0  0  0  0  0  0  0
    0.3641   -0.6599   -0.9005 C   0  0  0  0  0  0  0  0  0  0  0  0
    0.1334   -1.1504   -2.0037 O   0  0  0  0  0  0  0  0  0  0  0  0
    1.8445    1.0846    0.1312 C   0  0  0  0  0  0  0  0  0  0  0  0
    2.1465    2.5528    0.3072 C   0  0  0  0  0  0  0  0  0  0  0  0
    2.6508    3.3293   -0.6978 N   0  0  0  0  0  0  0  0  0  0  0  0
    2.0173    3.4043    1.3790 C   0  0  0  0  0  0  0  0  0  0  0  0
    2.8034    4.5940   -0.2012 C   0  0  0  0  0  0  0  0  0  0  0  0
    2.4277    4.6735    1.0559 N   0  0  0  0  0  0  0  0  0  0  0  0
   -1.3903    1.6325   -0.5973 H   0  0  0  0  0  0  0  0  0  0  0  0
    0.6166    1.3359   -1.6578 H   0  0  0  0  0  0  0  0  0  0  0  0
    2.7016    0.5852   -0.3406 H   0  0  0  0  0  0  0  0  0  0  0  0
    1.7584    0.6296    1.1268 H   0  0  0  0  0  0  0  0  0  0  0  0
    2.8728    3.0268   -1.6372 H   0  0  0  0  0  0  0  0  0  0  0  0
    1.6498    3.1704    2.3680 H   0  0  0  0  0  0  0  0  0  0  0  0
    3.1903    5.4042   -0.8028 H   0  0  0  0  0  0  0  0  0  0  0  0
    0.5184   -1.3816    0.2750 N   0  0  0  0  0  0  0  0  0  0  0  0
    0.3983   -2.8202    0.3445 C   0  0  2  0  0  0  0  0  0  0  0  0
   -0.9020   -3.2173   -0.3418 C   0  0  0  0  0  0  0  0  0  0  0  0
   -1.8461   -2.4440   -0.4890 O   0  0  0  0  0  0  0  0  0  0  0  0
    0.4241   -3.3086    1.7845 C   0  0  0  0  0  0  0  0  0  0  0  0
    0.7262   -0.8731    1.1294 H   0  0  0  0  0  0  0  0  0  0  0  0
    1.2465   -3.2355   -0.2105 H   0  0  0  0  0  0  0  0  0  0  0  0
   -0.4184   -2.9028    2.3563 H   0  0  0  0  0  0  0  0  0  0  0  0
    0.3618   -4.4007    1.8342 H   0  0  0  0  0  0  0  0  0  0  0  0
    1.3469   -2.9965    2.2854 H   0  0  0  0  0  0  0  0  0  0  0  0
   -0.9005   -4.5491   -0.7321 N   0  0  0  0  0  0  0  0  0  0  0  0
   -2.0251   -5.1691   -1.3931 C   0  0  0  0  0  0  0  0  0  0  0  0
   -0.0671   -5.1114   -0.5871 H   0  0  0  0  0  0  0  0  0  0  0  0
   -2.6798   -5.6366   -0.6430 H   0  0  0  0  0  0  0  0  0  0  0  0
   -2.5902   -4.4059   -1.9483 H   0  0  0  0  0  0  0  0  0  0  0  0
   -1.6617   -5.9369   -2.0920 H   0  0  0  0  0  0  0  0  0  0  0  0
 22 24  2  0  0  0  0
 24 26  1  0  0  0  0
 25 26  2  0  0  0  0
 23 25  1  0  0  0  0
 21 22  1  0  0  0  0
 22 23  1  0  0  0  0
  1  3  1  0  0  0  0
  1  7  1  0  0  0  0
  1  2  2  0  0  0  0
 35 36  1  0  0  0  0
 36 44  1  0  0  0  0
 36 37  2  0  0  0  0
  8  9  1  0  0  0  0
  9 17  1  0  0  0  0
  9 10  2  0  0  0  0
 18 19  1  0  0  0  0
 19 34  1  0  0  0  0
 19 20  2  0  0  0  0
 35 38  1  0  0  0  0
  8 11  1  0  0  0  0
 44 45  1  0  0  0  0
 18 21  1  0  0  0  0
 34 35  1  0  0  0  0
  7  8  1  0  0  0  0
 17 18  1  0  0  0  0
 24 32  1  0  0  0  0
 25 33  1  0  0  0  0
  3  4  1  0  0  0  0
  3  5  1  0  0  0  0
  3  6  1  0  0  0  0
 38 41  1  0  0  0  0
 38 42  1  0  0  0  0
 38 43  1  0  0  0  0
 11 14  1  0  0  0  0
 11 15  1  0  0  0  0
 11 16  1  0  0  0  0
 45 47  1  0  0  0  0
 45 48  1  0  0  0  0
 45 49  1  0  0  0  0
 21 29  1  0  0  0  0
 21 30  1  0  0  0  0
 35 40  1  0  0  0  0
  8 13  1  0  0  0  0
 18 28  1  0  0  0  0
 23 31  1  0  0  0  0
 44 46  1  0  0  0  0
  7 12  1  0  0  0  0
 34 39  1  0  0  0  0
 17 27  1  0  0  0  0
M  END
$$$$

  -OEChem-05262214473D

 49 49  0     1  0  0  0  0  0999 V2000
   -1.5619    0.5658    3.7981 C   0  0  0  0  0  0  0  0  0  0  0  0
   -0.6145   -0.0489    3.3224 O   0  0  0  0  0  0  0  0  0  0  0  0
   -1.9938    0.2834    5.1988 C   0  0  0  0  0  0  0  0  0  0  0  0
   -2.7535   -0.5129    5.2522 H   0  0  0  0  0  0  0  0  0  0  0  0
   -1.1626   -0.0642    5.8331 H   0  0  0  0  0  0  0  0  0  0  0  0
   -2.4318    1.1383    5.7384 H   0  0  0  0  0  0  0  0  0  0  0  0
   -2.3116    1.5383    3.1570 N   0  0  0  0  0  0  0  0  0  0  0  0
   -2.0648    1.9643    1.8046 C   0  0  2  0  0  0  0  0  0  0  0  0
   -0.7298    1.3789    1.3634 C   0  0  0  0  0  0  0  0  0  0  0  0
    0.1423    1.0262    2.1547 O   0  0  0  0  0  0  0  0  0  0  0  0
   -2.0560    3.4811    1.6952 C   0  0  0  0  0  0  0  0  0  0  0  0
   -3.0767    1.9741    3.6688 H   0  0  0  0  0  0  0  0  0  0  0  0
   -2.8689    1.5458    1.1895 H   0  0  0  0  0  0  0  0  0  0  0  0
   -1.2569    3.9183    2.3049 H   0  0  0  0  0  0  0  0  0  0  0  0
   -1.8965    3.8033    0.6609 H   0  0  0  0  0  0  0  0  0  0  0  0
   -3.0062    3.9023    2.0409 H   0  0  0  0  0  0  0  0  0  0  0  0
   -0.6071    1.3358   -0.0200 N   0  0  0  0  0  0  0  0  0  0  0  0
    0.5702    0.8350   -0.6836 C   0  0  2  0  0  0  0  0  0  0  0  0
    0.3641   -0.6599   -0.9005 C   0  0  0  0  0  0  0  0  0  0  0  0
    0.4001   -1.1861   -2.0108 O   0  0  0  0  0  0  0  0  0  0  0  0
    1.8445    1.0846    0.1312 C   0  0  0  0  0  0  0  0  0  0  0  0
    2.1465    2.5528    0.3072 C   0  0  0  0  0  0  0  0  0  0  0  0
    2.6508    3.3293   -0.6978 N   0  0  0  0  0  0  0  0  0  0  0  0
    2.0173    3.4043    1.3790 C   0  0  0  0  0  0  0  0  0  0  0  0
    2.8034    4.5940   -0.2012 C   0  0  0  0  0  0  0  0  0  0  0  0
    2.4277    4.6735    1.0559 N   0  0  0  0  0  0  0  0  0  0  0  0
   -1.3903    1.6325   -0.5973 H   0  0  0  0  0  0  0  0  0  0  0  0
    0.6166    1.3359   -1.6578 H   0  0  0  0  0  0  0  0  0  0  0  0
    2.7016    0.5852   -0.3406 H   0  0  0  0  0  0  0  0  0  0  0  0
    1.7584    0.6296    1.1268 H   0  0  0  0  0  0  0  0  0  0  0  0
    2.8728    3.0268   -1.6372 H   0  0  0  0  0  0  0  0  0  0  0  0
    1.6498    3.1704    2.3680 H   0  0  0  0  0  0  0  0  0  0  0  0
    3.1903    5.4042   -0.8028 H   0  0  0  0  0  0  0  0  0  0  0  0
    0.1858   -1.3389    0.2968 N   0  0  0  0  0  0  0  0  0  0  0  0
   -0.0073   -2.7690    0.3769 C   0  0  2  0  0  0  0  0  0  0  0  0
   -1.1068   -3.1508   -0.6053 C   0  0  0  0  0  0  0  0  0  0  0  0
   -1.9501   -2.3539   -1.0112 O   0  0  0  0  0  0  0  0  0  0  0  0
   -0.3671   -3.2004    1.7901 C   0  0  0  0  0  0  0  0  0  0  0  0
    0.1914   -0.8038    1.1602 H   0  0  0  0  0  0  0  0  0  0  0  0
    0.9359   -3.2332    0.0688 H   0  0  0  0  0  0  0  0  0  0  0  0
   -1.3093   -2.7451    2.1163 H   0  0  0  0  0  0  0  0  0  0  0  0
   -0.4850   -4.2870    1.8553 H   0  0  0  0  0  0  0  0  0  0  0  0
    0.4109   -2.8986    2.4997 H   0  0  0  0  0  0  0  0  0  0  0  0
   -1.0616   -4.4965   -0.9420 N   0  0  0  0  0  0  0  0  0  0  0  0
   -2.0069   -5.1055   -1.8483 C   0  0  0  0  0  0  0  0  0  0  0  0
   -0.3160   -5.0791   -0.5727 H   0  0  0  0  0  0  0  0  0  0  0  0
   -2.8489   -5.5215   -1.2757 H   0  0  0  0  0  0  0  0  0  0  0  0
   -2.3810   -4.3472   -2.5518 H   0  0  0  0  0  0  0  0  0  0  0  0
   -1.5105   -5.9118   -2.4082 H   0  0  0  0  0  0  0  0  0  0  0  0
 22 24  2  0  0  0  0
 24 26  1  0  0  0  0
 25 26  2  0  0  0  0
 23 25  1  0  0  0  0
 21 22  1  0  0  0  0
 22 23  1  0  0  0  0
  1  3  1  0  0  0  0
  1  7  1  0  0  0  0
  1  2  2  0  0  0  0
 35 36  1  0  0  0  0
 36 44  1  0  0  0  0
 36 37  2  0  0  0  0
  8  9  1  0  0  0  0
  9 17  1  0  0  0  0
  9 10  2  0  0  0  0
 18 19  1  0  0  0  0
 19 34  1  0  0  0  0
 19 20  2  0  0  0  0
 35 38  1  0  0  0  0
  8 11  1  0  0  0  0
 44 45  1  0  0  0  0
 18 21  1  0  0  0  0
 34 35  1  0  0  0  0
  7  8  1  0  0  0  0
 17 18  1  0  0  0  0
 24 32  1  0  0  0  0
 25 33  1  0  0  0  0
  3  4  1  0  0  0  0
  3  5  1  0  0  0  0
  3  6  1  0  0  0  0
 38 41  1  0  0  0  0
 38 42  1  0  0  0  0
 38 43  1  0  0  0  0
 11 14  1  0  0  0  0
 11 15  1  0  0  0  0
 11 16  1  0  0  0  0
 45 47  1  0  0  0  0
 45 48  1  0  0  0  0
 45 49  1  0  0  0  0
 21 29  1  0  0  0  0
 21 30  1  0  0  0  0
 35 40  1  0  0  0  0
  8 13  1  0  0  0  0
 18 28  1  0  0  0  0
 23 31  1  0  0  0  0
 44 46  1  0  0  0  0
  7 12  1  0  0  0  0
 34 39  1  0  0  0  0
 17 27  1  0  0  0  0
M  END
$$$$

  -OEChem-05262214473D

 49 49  0     1  0  0  0  0  0999 V2000
   -1.5619    0.5658    3.7981 C   0  0  0  0  0  0  0  0  0  0  0  0
   -0.6145   -0.0489    3.3224 O   0  0  0  0  0  0  0  0  0  0  0  0
   -1.9938    0.2834    5.1988 C   0  0  0  0  0  0  0  0  0  0  0  0
   -2.7535   -0.5129    5.2522 H   0  0  0  0  0  0  0  0  0  0  0  0
   -1.1626   -0.0642    5.8331 H   0  0  0  0  0  0  0  0  0  0  0  0
   -2.4318    1.1383    5.7384 H   0  0  0  0  0  0  0  0  0  0  0  0
   -2.3116    1.5383    3.1570 N   0  0  0  0  0  0  0  0  0  0  0  0
   -2.0648    1.9643    1.8046 C   0  0  2  0  0  0  0  0  0  0  0  0
   -0.7298    1.3789    1.3634 C   0  0  0  0  0  0  0  0  0  0  0  0
    0.1423    1.0262    2.1547 O   0  0  0  0  0  0  0  0  0  0  0  0
   -2.0560    3.4811    1.6952 C   0  0  0  0  0  0  0  0  0  0  0  0
   -3.0767    1.9741    3.6688 H   0  0  0  0  0  0  0  0  0  0  0  0
   -2.8689    1.5458    1.1895 H   0  0  0  0  0  0  0  0  0  0  0  0
   -1.2569    3.9183    2.3049 H   0  0  0  0  0  0  0  0  0  0  0  0
   -1.8965    3.8033    0.6609 H   0  0  0  0  0  0  0  0  0  0  0  0
   -3.0062    3.9023    2.0409 H   0  0  0  0  0  0  0  0  0  0  0  0
   -0.6071    1.3358   -0.0200 N   0  0  0  0  0  0  0  0  0  0  0  0
    0.5702    0.8350   -0.6836 C   0  0  2  0  0  0  0  0  0  0  0  0
    0.3641   -0.6599   -0.9005 C   0  0  0  0  0  0  0  0  0  0  0  0
    0.6582   -1.2307   -1.9487 O   0  0  0  0  0  0  0  0  0  0  0  0
    1.8445    1.0846    0.1312 C   0  0  0  0  0  0  0  0  0  0  0  0
    2.1465    2.5528    0.3072 C   0  0  0  0  0  0  0  0  0  0  0  0
    2.6508    3.3293   -0.6978 N   0  0  0  0  0  0  0  0  0  0  0  0
    2.0173    3.4043    1.3790 C   0  0  0  0  0  0  0  0  0  0  0  0
    2.8034    4.5940   -0.2012 C   0  0  0  0  0  0  0  0  0  0  0  0
    2.4277    4.6735    1.0559 N   0  0  0  0  0  0  0  0  0  0  0  0
   -1.3903    1.6325   -0.5973 H   0  0  0  0  0  0  0  0  0  0  0  0
    0.6166    1.3359   -1.6578 H   0  0  0  0  0  0  0  0  0  0  0  0
    2.7016    0.5852   -0.3406 H   0  0  0  0  0  0  0  0  0  0  0  0
    1.7584    0.6296    1.1268 H   0  0  0  0  0  0  0  0  0  0  0  0
    2.8728    3.0268   -1.6372 H   0  0  0  0  0  0  0  0  0  0  0  0
    1.6498    3.1704    2.3680 H   0  0  0  0  0  0  0  0  0  0  0  0
    3.1903    5.4042   -0.8028 H   0  0  0  0  0  0  0  0  0  0  0  0
   -0.1393   -1.2847    0.2320 N   0  0  0  0  0  0  0  0  0  0  0  0
   -0.4054   -2.7034    0.3035 C   0  0  2  0  0  0  0  0  0  0  0  0
   -1.2353   -3.0883   -0.9141 C   0  0  0  0  0  0  0  0  0  0  0  0
   -1.9147   -2.2813   -1.5451 O   0  0  0  0  0  0  0  0  0  0  0  0
   -1.1287   -3.0665    1.5911 C   0  0  0  0  0  0  0  0  0  0  0  0
   -0.3304   -0.7162    1.0518 H   0  0  0  0  0  0  0  0  0  0  0  0
    0.5650   -3.2098    0.2597 H   0  0  0  0  0  0  0  0  0  0  0  0
   -2.1032   -2.5685    1.6528 H   0  0  0  0  0  0  0  0  0  0  0  0
   -1.3042   -4.1454    1.6569 H   0  0  0  0  0  0  0  0  0  0  0  0
   -0.5439   -2.7621    2.4658 H   0  0  0  0  0  0  0  0  0  0  0  0
   -1.1620   -4.4470   -1.1874 N   0  0  0  0  0  0  0  0  0  0  0  0
   -1.8714   -5.0608   -2.2856 C   0  0  0  0  0  0  0  0  0  0  0  0
   -0.5589   -5.0383   -0.6232 H   0  0  0  0  0  0  0  0  0  0  0  0
   -2.8474   -5.4262   -1.9337 H   0  0  0  0  0  0  0  0  0  0  0  0
   -2.0237   -4.3193   -3.0837 H   0  0  0  0  0  0  0  0  0  0  0  0
   -1.2832   -5.9043   -2.6761 H   0  0  0  0  0  0  0  0  0  0  0  0
 22 24  2  0  0  0  0
 24 26  1  0  0  0  0
 25 26  2  0  0  0  0
 23 25  1  0  0  0  0
 21 22  1  0  0  0  0
 22 23  1  0  0  0  0
  1  3  1  0  0  0  0
  1  7  1  0  0  0  0
  1  2  2  0  0  0  0
 35 36  1  0  0  0  0
 36 44  1  0  0  0  0
 36 37  2  0  0  0  0
  8  9  1  0  0  0  0
  9 17  1  0  0  0  0
  9 10  2  0  0  0  0
 18 19  1  0  0  0  0
 19 34  1  0  0  0  0
 19 20  2  0  0  0  0
 35 38  1  0  0  0  0
  8 11  1  0  0  0  0
 44 45  1  0  0  0  0
 18 21  1  0  0  0  0
 34 35  1  0  0  0  0
  7  8  1  0  0  0  0
 17 18  1  0  0  0  0
 24 32  1  0  0  0  0
 25 33  1  0  0  0  0
  3  4  1  0  0  0  0
  3  5  1  0  0  0  0
  3  6  1  0  0  0  0
 38 41  1  0  0  0  0
 38 42  1  0  0  0  0
 38 43  1  0  0  0  0
 11 14  1  0  0  0  0
 11 15  1  0  0  0  0
 11 16  1  0  0  0  0
 45 47  1  0  0  0  0
 45 48  1  0  0  0  0
 45 49  1  0  0  0  0
 21 29  1  0  0  0  0
 21 30  1  0  0  0  0
 35 40  1  0  0  0  0
  8 13  1  0  0  0  0
 18 28  1  0  0  0  0
 23 31  1  0  0  0  0
 44 46  1  0  0  0  0
  7 12  1  0  0  0  0
 34 39  1  0  0  0  0
 17 27  1  0  0  0  0
M  END
$$$$

  -OEChem-05262214473D

 49 49  0     1  0  0  0  0  0999 V2000
   -1.5619    0.5658    3.7981 C   0  0  0  0  0  0  0  0  0  0  0  0
   -0.6145   -0.0489    3.3224 O   0  0  0  0  0  0  0  0  0  0  0  0
   -1.9938    0.2834    5.1988 C   0  0  0  0  0  0  0  0  0  0  0  0
   -2.7535   -0.5129    5.2522 H   0  0  0  0  0  0  0  0  0  0  0  0
   -1.1626   -0.0642    5.8331 H   0  0  0  0  0  0  0  0  0  0  0  0
   -2.4318    1.1383    5.7384 H   0  0  0  0  0  0  0  0  0  0  0  0
   -2.3116    1.5383    3.1570 N   0  0  0  0  0  0  0  0  0  0  0  0
   -2.0648    1.9643    1.8046 C   0  0  2  0  0  0  0  0  0  0  0  0
   -0.7298    1.3789    1.3634 C   0  0  0  0  0  0  0  0  0  0  0  0
    0.1423    1.0262    2.1547 O   0  0  0  0  0  0  0  0  0  0  0  0
   -2.0560    3.4811    1.6952 C   0  0  0  0  0  0  0  0  0  0  0  0
   -3.0767    1.9741    3.6688 H   0  0  0  0  0  0  0  0  0  0  0  0
   -2.8689    1.5458    1.1895 H   0  0  0  0  0  0  0  0  0  0  0  0
   -1.2569    3.9183    2.3049 H   0  0  0  0  0  0  0  0  0  0  0  0
   -1.8965    3.8033    0.6609 H   0  0  0  0  0  0  0  0  0  0  0  0
   -3.0062    3.9023    2.0409 H   0  0  0  0  0  0  0  0  0  0  0  0
   -0.6071    1.3358   -0.0200 N   0  0  0  0  0  0  0  0  0  0  0  0
    0.5702    0.8350   -0.6836 C   0  0  2  0  0  0  0  0  0  0  0  0
    0.3641   -0.6599   -0.9005 C   0  0  0  0  0  0  0  0  0  0  0  0
    0.8901   -1.2811   -1.8216 O   0  0  0  0  0  0  0  0  0  0  0  0
    1.8445    1.0846    0.1312 C   0  0  0  0  0  0  0  0  0  0  0  0
    2.1465    2.5528    0.3072 C   0  0  0  0  0  0  0  0  0  0  0  0
    2.6508    3.3293   -0.6978 N   0  0  0  0  0  0  0  0  0  0  0  0
    2.0173    3.4043    1.3790 C   0  0  0  0  0  0  0  0  0  0  0  0
    2.8034    4.5940   -0.2012 C   0  0  0  0  0  0  0  0  0  0  0  0
    2.4277    4.6735    1.0559 N   0  0  0  0  0  0  0  0  0  0  0  0
   -1.3903    1.6325   -0.5973 H   0  0  0  0  0  0  0  0  0  0  0  0
    0.6166    1.3359   -1.6578 H   0  0  0  0  0  0  0  0  0  0  0  0
    2.7016    0.5852   -0.3406 H   0  0  0  0  0  0  0  0  0  0  0  0
    1.7584    0.6296    1.1268 H   0  0  0  0  0  0  0  0  0  0  0  0
    2.8728    3.0268   -1.6372 H   0  0  0  0  0  0  0  0  0  0  0  0
    1.6498    3.1704    2.3680 H   0  0  0  0  0  0  0  0  0  0  0  0
    3.1903    5.4042   -0.8028 H   0  0  0  0  0  0  0  0  0  0  0  0
   -0.4350   -1.2226    0.0850 N   0  0  0  0  0  0  0  0  0  0  0  0
   -0.7689   -2.6280    0.1293 C   0  0  2  0  0  0  0  0  0  0  0  0
   -1.2787   -3.0340   -1.2472 C   0  0  0  0  0  0  0  0  0  0  0  0
   -1.7423   -2.2311   -2.0544 O   0  0  0  0  0  0  0  0  0  0  0  0
   -1.8090   -2.9161    1.2008 C   0  0  0  0  0  0  0  0  0  0  0  0
   -0.8037   -0.6161    0.8116 H   0  0  0  0  0  0  0  0  0  0  0  0
    0.1592   -3.1668    0.3492 H   0  0  0  0  0  0  0  0  0  0  0  0
   -2.7459   -2.3848    0.9975 H   0  0  0  0  0  0  0  0  0  0  0  0
   -2.0398   -3.9853    1.2524 H   0  0  0  0  0  0  0  0  0  0  0  0
   -1.4525   -2.5962    2.1859 H   0  0  0  0  0  0  0  0  0  0  0  0
   -1.1949   -4.4041   -1.4516 N   0  0  0  0  0  0  0  0  0  0  0  0
   -1.6279   -5.0378   -2.6751 C   0  0  0  0  0  0  0  0  0  0  0  0
   -0.7792   -4.9918   -0.7349 H   0  0  0  0  0  0  0  0  0  0  0  0
   -2.6755   -5.3573   -2.5723 H   0  0  0  0  0  0  0  0  0  0  0  0
   -1.5424   -4.3241   -3.5077 H   0  0  0  0  0  0  0  0  0  0  0  0
   -0.9955   -5.9147   -2.8775 H   0  0  0  0  0  0  0  0  0  0  0  0
 22 24  2  0  0  0  0
 24 26  1  0  0  0  0
 25 26  2  0  0  0  0
 23 25  1  0  0  0  0
 21 22  1  0  0  0  0
 22 23  1  0  0  0  0
  1  3  1  0  0  0  0
  1  7  1  0  0  0  0
  1  2  2  0  0  0  0
 35 36  1  0  0  0  0
 36 44  1  0  0  0  0
 36 37  2  0  0  0  0
  8  9  1  0  0  0  0
  9 17  1  0  0  0  0
  9 10  2  0  0  0  0
 18 19  1  0  0  0  0
 19 34  1  0  0  0  0
 19 20  2  0  0  0  0
 35 38  1  0  0  0  0
  8 11  1  0  0  0  0
 44 45  1  0  0  0  0
 18 21  1  0  0  0  0
 34 35  1  0  0  0  0
  7  8  1  0  0  0  0
 17 18  1  0  0  0  0
 24 32  1  0  0  0  0
 25 33  1  0  0  0  0
  3  4  1  0  0  0  0
  3  5  1  0  0  0  0
  3  6  1  0  0  0  0
 38 41  1  0  0  0  0
 38 42  1  0  0  0  0
 38 43  1  0  0  0  0
 11 14  1  0  0  0  0
 11 15  1  0  0  0  0
 11 16  1  0  0  0  0
 45 47  1  0  0  0  0
 45 48  1  0  0  0  0
 45 49  1  0  0  0  0
 21 29  1  0  0  0  0
 21 30  1  0  0  0  0
 35 40  1  0  0  0  0
  8 13  1  0  0  0  0
 18 28  1  0  0  0  0
 23 31  1  0  0  0  0
 44 46  1  0  0  0  0
  7 12  1  0  0  0  0
 34 39  1  0  0  0  0
 17 27  1  0  0  0  0
M  END
$$$$

  -OEChem-05262214473D

 49 49  0     1  0  0  0  0  0999 V2000
   -1.5619    0.5658    3.7981 C   0  0  0  0  0  0  0  0  0  0  0  0
   -0.6145   -0.0489    3.3224 O   0  0  0  0  0  0  0  0  0  0  0  0
   -1.9938    0.2834    5.1988 C   0  0  0  0  0  0  0  0  0  0  0  0
   -2.7535   -0.5129    5.2522 H   0  0  0  0  0  0  0  0  0  0  0  0
   -1.1626   -0.0642    5.8331 H   0  0  0  0  0  0  0  0  0  0  0  0
   -2.4318    1.1383    5.7384 H   0  0  0  0  0  0  0  0  0  0  0  0
   -2.3116    1.5383    3.1570 N   0  0  0  0  0  0  0  0  0  0  0  0
   -2.0648    1.9643    1.8046 C   0  0  2  0  0  0  0  0  0  0  0  0
   -0.7298    1.3789    1.3634 C   0  0  0  0  0  0  0  0  0  0  0  0
    0.1423    1.0262    2.1547 O   0  0  0  0  0  0  0  0  0  0  0  0
   -2.0560    3.4811    1.6952 C   0  0  0  0  0  0  0  0  0  0  0  0
   -3.0767    1.9741    3.6688 H   0  0  0  0  0  0  0  0  0  0  0  0
   -2.8689    1.5458    1.1895 H   0  0  0  0  0  0  0  0  0  0  0  0
   -1.2569    3.9183    2.3049 H   0  0  0  0  0  0  0  0  0  0  0  0
   -1.8965    3.8033    0.6609 H   0  0  0  0  0  0  0  0  0  0  0  0
   -3.0062    3.9023    2.0409 H   0  0  0  0  0  0  0  0  0  0  0  0
   -0.6071    1.3358   -0.0200 N   0  0  0  0  0  0  0  0  0  0  0  0
    0.5702    0.8350   -0.6836 C   0  0  2  0  0  0  0  0  0  0  0  0
    0.3641   -0.6599   -0.9005 C   0  0  0  0  0  0  0  0  0  0  0  0
    1.0799   -1.3339   -1.6383 O   0  0  0  0  0  0  0  0  0  0  0  0
    1.8445    1.0846    0.1312 C   0  0  0  0  0  0  0  0  0  0  0  0
    2.1465    2.5528    0.3072 C   0  0  0  0  0  0  0  0  0  0  0  0
    2.6508    3.3293   -0.6978 N   0  0  0  0  0  0  0  0  0  0  0  0
    2.0173    3.4043    1.3790 C   0  0  0  0  0  0  0  0  0  0  0  0
    2.8034    4.5940   -0.2012 C   0  0  0  0  0  0  0  0  0  0  0  0
    2.4277    4.6735    1.0559 N   0  0  0  0  0  0  0  0  0  0  0  0
   -1.3903    1.6325   -0.5973 H   0  0  0  0  0  0  0  0  0  0  0  0
    0.6166    1.3359   -1.6578 H   0  0  0  0  0  0  0  0  0  0  0  0
    2.7016    0.5852   -0.3406 H   0  0  0  0  0  0  0  0  0  0  0  0
    1.7584    0.6296    1.1268 H   0  0  0  0  0  0  0  0  0  0  0  0
    2.8728    3.0268   -1.6372 H   0  0  0  0  0  0  0  0  0  0  0  0
    1.6498    3.1704    2.3680 H   0  0  0  0  0  0  0  0  0  0  0  0
    3.1903    5.4042   -0.8028 H   0  0  0  0  0  0  0  0  0  0  0  0
   -0.6810   -1.1569   -0.1343 N   0  0  0  0  0  0  0  0  0  0  0  0
   -1.0731   -2.5479   -0.1339 C   0  0  2  0  0  0  0  0  0  0  0  0
   -1.2341   -2.9916   -1.5819 C   0  0  0  0  0  0  0  0  0  0  0  0
   -1.4447   -2.2069   -2.5044 O   0  0  0  0  0  0  0  0  0  0  0  0
   -2.3614   -2.7595    0.6459 C   0  0  0  0  0  0  0  0  0  0  0  0
   -1.1962   -0.5104    0.4560 H   0  0  0  0  0  0  0  0  0  0  0  0
   -0.2540   -3.1073    0.3311 H   0  0  0  0  0  0  0  0  0  0  0  0
   -3.1936   -2.2067    0.1949 H   0  0  0  0  0  0  0  0  0  0  0  0
   -2.6418   -3.8177    0.6694 H   0  0  0  0  0  0  0  0  0  0  0  0
   -2.2531   -2.4124    1.6791 H   0  0  0  0  0  0  0  0  0  0  0  0
   -1.1580   -4.3708   -1.7168 N   0  0  0  0  0  0  0  0  0  0  0  0
   -1.2931   -5.0382   -2.9904 C   0  0  0  0  0  0  0  0  0  0  0  0
   -0.9620   -4.9426   -0.9004 H   0  0  0  0  0  0  0  0  0  0  0  0
   -2.3448   -5.3193   -3.1479 H   0  0  0  0  0  0  0  0  0  0  0  0
   -0.9702   -4.3613   -3.7951 H   0  0  0  0  0  0  0  0  0  0  0  0
   -0.6668   -5.9425   -2.9986 H   0  0  0  0  0  0  0  0  0  0  0  0
 22 24  2  0  0  0  0
 24 26  1  0  0  0  0
 25 26  2  0  0  0  0
 23 25  1  0  0  0  0
 21 22  1  0  0  0  0
 22 23  1  0  0  0  0
  1  3  1  0  0  0  0
  1  7  1  0  0  0  0
  1  2  2  0  0  0  0
 35 36  1  0  0  0  0
 36 44  1  0  0  0  0
 36 37  2  0  0  0  0
  8  9  1  0  0  0  0
  9 17  1  0  0  0  0
  9 10  2  0  0  0  0
 18 19  1  0  0  0  0
 19 34  1  0  0  0  0
 19 20  2  0  0  0  0
 35 38  1  0  0  0  0
  8 11  1  0  0  0  0
 44 45  1  0  0  0  0
 18 21  1  0  0  0  0
 34 35  1  0  0  0  0
  7  8  1  0  0  0  0
 17 18  1  0  0  0  0
 24 32  1  0  0  0  0
 25 33  1  0  0  0  0
  3  4  1  0  0  0  0
  3  5  1  0  0  0  0
  3  6  1  0  0  0  0
 38 41  1  0  0  0  0
 38 42  1  0  0  0  0
 38 43  1  0  0  0  0
 11 14  1  0  0  0  0
 11 15  1  0  0  0  0
 11 16  1  0  0  0  0
 45 47  1  0  0  0  0
 45 48  1  0  0  0  0
 45 49  1  0  0  0  0
 21 29  1  0  0  0  0
 21 30  1  0  0  0  0
 35 40  1  0  0  0  0
  8 13  1  0  0  0  0
 18 28  1  0  0  0  0
 23 31  1  0  0  0  0
 44 46  1  0  0  0  0
  7 12  1  0  0  0  0
 34 39  1  0  0  0  0
 17 27  1  0  0  0  0
M  END
$$$$

  -OEChem-05262214473D

 49 49  0     1  0  0  0  0  0999 V2000
   -1.5619    0.5658    3.7981 C   0  0  0  0  0  0  0  0  0  0  0  0
   -0.6145   -0.0489    3.3224 O   0  0  0  0  0  0  0  0  0  0  0  0
   -1.9938    0.2834    5.1988 C   0  0  0  0  0  0  0  0  0  0  0  0
   -2.7535   -0.5129    5.2522 H   0  0  0  0  0  0  0  0  0  0  0  0
   -1.1626   -0.0642    5.8331 H   0  0  0  0  0  0  0  0  0  0  0  0
   -2.4318    1.1383    5.7384 H   0  0  0  0  0  0  0  0  0  0  0  0
   -2.3116    1.5383    3.1570 N   0  0  0  0  0  0  0  0  0  0  0  0
   -2.0648    1.9643    1.8046 C   0  0  2  0  0  0  0  0  0  0  0  0
   -0.7298    1.3789    1.3634 C   0  0  0  0  0  0  0  0  0  0  0  0
    0.1423    1.0262    2.1547 O   0  0  0  0  0  0  0  0  0  0  0  0
   -2.0560    3.4811    1.6952 C   0  0  0  0  0  0  0  0  0  0  0  0
   -3.0767    1.9741    3.6688 H   0  0  0  0  0  0  0  0  0  0  0  0
   -2.8689    1.5458    1.1895 H   0  0  0  0  0  0  0  0  0  0  0  0
   -1.2569    3.9183    2.3049 H   0  0  0  0  0  0  0  0  0  0  0  0
   -1.8965    3.8033    0.6609 H   0  0  0  0  0  0  0  0  0  0  0  0
   -3.0062    3.9023    2.0409 H   0  0  0  0  0  0  0  0  0  0  0  0
   -0.6071    1.3358   -0.0200 N   0  0  0  0  0  0  0  0  0  0  0  0
    0.5702    0.8350   -0.6836 C   0  0  2  0  0  0  0  0  0  0  0  0
    0.3641   -0.6599   -0.9005 C   0  0  0  0  0  0  0  0  0  0  0  0
    1.2149   -1.3854   -1.4111 O   0  0  0  0  0  0  0  0  0  0  0  0
    1.8445    1.0846    0.1312 C   0  0  0  0  0  0  0  0  0  0  0  0
    2.1465    2.5528    0.3072 C   0  0  0  0  0  0  0  0  0  0  0  0
    2.6508    3.3293   -0.6978 N   0  0  0  0  0  0  0  0  0  0  0  0
    2.0173    3.4043    1.3790 C   0  0  0  0  0  0  0  0  0  0  0  0
    2.8034    4.5940   -0.2012 C   0  0  0  0  0  0  0  0  0  0  0  0
    2.4277    4.6735    1.0559 N   0  0  0  0  0  0  0  0  0  0  0  0
   -1.3903    1.6325   -0.5973 H   0  0  0  0  0  0  0  0  0  0  0  0
    0.6166    1.3359   -1.6578 H   0  0  0  0  0  0  0  0  0  0  0  0
    2.7016    0.5852   -0.3406 H   0  0  0  0  0  0  0  0  0  0  0  0
    1.7584    0.6296    1.1268 H   0  0  0  0  0  0  0  0  0  0  0  0
    2.8728    3.0268   -1.6372 H   0  0  0  0  0  0  0  0  0  0  0  0
    1.6498    3.1704    2.3680 H   0  0  0  0  0  0  0  0  0  0  0  0
    3.1903    5.4042   -0.8028 H   0  0  0  0  0  0  0  0  0  0  0  0
   -0.8605   -1.0920   -0.4107 N   0  0  0  0  0  0  0  0  0  0  0  0
   -1.2971   -2.4686   -0.4681 C   0  0  2  0  0  0  0  0  0  0  0  0
   -1.1046   -2.9639   -1.8953 C   0  0  0  0  0  0  0  0  0  0  0  0
   -1.0422   -2.2101   -2.8643 O   0  0  0  0  0  0  0  0  0  0  0  0
   -2.7485   -2.6072   -0.0358 C   0  0  0  0  0  0  0  0  0  0  0  0
   -1.4812   -0.4063    0.0091 H   0  0  0  0  0  0  0  0  0  0  0  0
   -0.6462   -3.0352    0.2067 H   0  0  0  0  0  0  0  0  0  0  0  0
   -3.4158   -2.0462   -0.7001 H   0  0  0  0  0  0  0  0  0  0  0  0
   -3.0692   -3.6541   -0.0524 H   0  0  0  0  0  0  0  0  0  0  0  0
   -2.8910   -2.2230    0.9801 H   0  0  0  0  0  0  0  0  0  0  0  0
   -1.0539   -4.3491   -1.9646 N   0  0  0  0  0  0  0  0  0  0  0  0
   -0.8896   -5.0620   -3.2100 C   0  0  0  0  0  0  0  0  0  0  0  0
   -1.0947   -4.8941   -1.1084 H   0  0  0  0  0  0  0  0  0  0  0  0
   -1.8779   -5.3150   -3.6213 H   0  0  0  0  0  0  0  0  0  0  0  0
   -0.3458   -4.4283   -3.9260 H   0  0  0  0  0  0  0  0  0  0  0  0
   -0.3196   -5.9856   -3.0312 H   0  0  0  0  0  0  0  0  0  0  0  0
 22 24  2  0  0  0  0
 24 26  1  0  0  0  0
 25 26  2  0  0  0  0
 23 25  1  0  0  0  0
 21 22  1  0  0  0  0
 22 23  1  0  0  0  0
  1  3  1  0  0  0  0
  1  7  1  0  0  0  0
  1  2  2  0  0  0  0
 35 36  1  0  0  0  0
 36 44  1  0  0  0  0
 36 37  2  0  0  0  0
  8  9  1  0  0  0  0
  9 17  1  0  0  0  0
  9 10  2  0  0  0  0
 18 19  1  0  0  0  0
 19 34  1  0  0  0  0
 19 20  2  0  0  0  0
 35 38  1  0  0  0  0
  8 11  1  0  0  0  0
 44 45  1  0  0  0  0
 18 21  1  0  0  0  0
 34 35  1  0  0  0  0
  7  8  1  0  0  0  0
 17 18  1  0  0  0  0
 24 32  1  0  0  0  0
 25 33  1  0  0  0  0
  3  4  1  0  0  0  0
  3  5  1  0  0  0  0
  3  6  1  0  0  0  0
 38 41  1  0  0  0  0
 38 42  1  0  0  0  0
 38 43  1  0  0  0  0
 11 14  1  0  0  0  0
 11 15  1  0  0  0  0
 11 16  1  0  0  0  0
 45 47  1  0  0  0  0
 45 48  1  0  0  0  0
 45 49  1  0  0  0  0
 21 29  1  0  0  0  0
 21 30  1  0  0  0  0
 35 40  1  0  0  0  0
  8 13  1  0  0  0  0
 18 28  1  0  0  0  0
 23 31  1  0  0  0  0
 44 46  1  0  0  0  0
  7 12  1  0  0  0  0
 34 39  1  0  0  0  0
 17 27  1  0  0  0  0
M  END
$$$$

  -OEChem-05262214473D

 49 49  0     1  0  0  0  0  0999 V2000
   -1.5619    0.5658    3.7981 C   0  0  0  0  0  0  0  0  0  0  0  0
   -0.6145   -0.0489    3.3224 O   0  0  0  0  0  0  0  0  0  0  0  0
   -1.9938    0.2834    5.1988 C   0  0  0  0  0  0  0  0  0  0  0  0
   -2.7535   -0.5129    5.2522 H   0  0  0  0  0  0  0  0  0  0  0  0
   -1.1626   -0.0642    5.8331 H   0  0  0  0  0  0  0  0  0  0  0  0
   -2.4318    1.1383    5.7384 H   0  0  0  0  0  0  0  0  0  0  0  0
   -2.3116    1.5383    3.1570 N   0  0  0  0  0  0  0  0  0  0  0  0
   -2.0648    1.9643    1.8046 C   0  0  2  0  0  0  0  0  0  0  0  0
   -0.7298    1.3789    1.3634 C   0  0  0  0  0  0  0  0  0  0  0  0
    0.1423    1.0262    2.1547 O   0  0  0  0  0  0  0  0  0  0  0  0
   -2.0560    3.4811    1.6952 C   0  0  0  0  0  0  0  0  0  0  0  0
   -3.0767    1.9741    3.6688 H   0  0  0  0  0  0  0  0  0  0  0  0
   -2.8689    1.5458    1.1895 H   0  0  0  0  0  0  0  0  0  0  0  0
   -1.2569    3.9183    2.3049 H   0  0  0  0  0  0  0  0  0  0  0  0
   -1.8965    3.8033    0.6609 H   0  0  0  0  0  0  0  0  0  0  0  0
   -3.0062    3.9023    2.0409 H   0  0  0  0  0  0  0  0  0  0  0  0
   -0.6071    1.3358   -0.0200 N   0  0  0  0  0  0  0  0  0  0  0  0
    0.5702    0.8350   -0.6836 C   0  0  2  0  0  0  0  0  0  0  0  0
    0.3641   -0.6599   -0.9005 C   0  0  0  0  0  0  0  0  0  0  0  0
    1.2857   -1.4323   -1.1557 O   0  0  0  0  0  0  0  0  0  0  0  0
    1.8445    1.0846    0.1312 C   0  0  0  0  0  0  0  0  0  0  0  0
    2.1465    2.5528    0.3072 C   0  0  0  0  0  0  0  0  0  0  0  0
    2.6508    3.3293   -0.6978 N   0  0  0  0  0  0  0  0  0  0  0  0
    2.0173    3.4043    1.3790 C   0  0  0  0  0  0  0  0  0  0  0  0
    2.8034    4.5940   -0.2012 C   0  0  0  0  0  0  0  0  0  0  0  0
    2.4277    4.6735    1.0559 N   0  0  0  0  0  0  0  0  0  0  0  0
   -1.3903    1.6325   -0.5973 H   0  0  0  0  0  0  0  0  0  0  0  0
    0.6166    1.3359   -1.6578 H   0  0  0  0  0  0  0  0  0  0  0  0
    2.7016    0.5852   -0.3406 H   0  0  0  0  0  0  0  0  0  0  0  0
    1.7584    0.6296    1.1268 H   0  0  0  0  0  0  0  0  0  0  0  0
    2.8728    3.0268   -1.6372 H   0  0  0  0  0  0  0  0  0  0  0  0
    1.6498    3.1704    2.3680 H   0  0  0  0  0  0  0  0  0  0  0  0
    3.1903    5.4042   -0.8028 H   0  0  0  0  0  0  0  0  0  0  0  0
   -0.9614   -1.0324   -0.7256 N   0  0  0  0  0  0  0  0  0  0  0  0
   -1.4258   -2.3953   -0.8506 C   0  0  2  0  0  0  0  0  0  0  0  0
   -0.8989   -2.9530   -2.1662 C   0  0  0  0  0  0  0  0  0  0  0  0
   -0.5621   -2.2407   -3.1097 O   0  0  0  0  0  0  0  0  0  0  0  0
   -2.9438   -2.4697   -0.7978 C   0  0  0  0  0  0  0  0  0  0  0  0
   -1.6393   -0.3109   -0.4984 H   0  0  0  0  0  0  0  0  0  0  0  0
   -0.9909   -2.9554   -0.0156 H   0  0  0  0  0  0  0  0  0  0  0  0
   -3.3974   -1.9143   -1.6267 H   0  0  0  0  0  0  0  0  0  0  0  0
   -3.2928   -3.5055   -0.8638 H   0  0  0  0  0  0  0  0  0  0  0  0
   -3.3228   -2.0411    0.1363 H   0  0  0  0  0  0  0  0  0  0  0  0
   -0.8896   -4.3408   -2.1784 N   0  0  0  0  0  0  0  0  0  0  0  0
   -0.4451   -5.1075   -3.3188 C   0  0  0  0  0  0  0  0  0  0  0  0
   -1.1683   -4.8497   -1.3447 H   0  0  0  0  0  0  0  0  0  0  0  0
   -1.3066   -5.3446   -3.9603 H   0  0  0  0  0  0  0  0  0  0  0  0
    0.2880   -4.5206   -3.8918 H   0  0  0  0  0  0  0  0  0  0  0  0
    0.0225   -6.0412   -2.9730 H   0  0  0  0  0  0  0  0  0  0  0  0
 22 24  2  0  0  0  0
 24 26  1  0  0  0  0
 25 26  2  0  0  0  0
 23 25  1  0  0  0  0
 21 22  1  0  0  0  0
 22 23  1  0  0  0  0
  1  3  1  0  0  0  0
  1  7  1  0  0  0  0
  1  2  2  0  0  0  0
 35 36  1  0  0  0  0
 36 44  1  0  0  0  0
 36 37  2  0  0  0  0
  8  9  1  0  0  0  0
  9 17  1  0  0  0  0
  9 10  2  0  0  0  0
 18 19  1  0  0  0  0
 19 34  1  0  0  0  0
 19 20  2  0  0  0  0
 35 38  1  0  0  0  0
  8 11  1  0  0  0  0
 44 45  1  0  0  0  0
 18 21  1  0  0  0  0
 34 35  1  0  0  0  0
  7  8  1  0  0  0  0
 17 18  1  0  0  0  0
 24 32  1  0  0  0  0
 25 33  1  0  0  0  0
  3  4  1  0  0  0  0
  3  5  1  0  0  0  0
  3  6  1  0  0  0  0
 38 41  1  0  0  0  0
 38 42  1  0  0  0  0
 38 43  1  0  0  0  0
 11 14  1  0  0  0  0
 11 15  1  0  0  0  0
 11 16  1  0  0  0  0
 45 47  1  0  0  0  0
 45 48  1  0  0  0  0
 45 49  1  0  0  0  0
 21 29  1  0  0  0  0
 21 30  1  0  0  0  0
 35 40  1  0  0  0  0
  8 13  1  0  0  0  0
 18 28  1  0  0  0  0
 23 31  1  0  0  0  0
 44 46  1  0  0  0  0
  7 12  1  0  0  0  0
 34 39  1  0  0  0  0
 17 27  1  0  0  0  0
M  END
$$$$

  -OEChem-05262214473D

 49 49  0     1  0  0  0  0  0999 V2000
   -1.5619    0.5658    3.7981 C   0  0  0  0  0  0  0  0  0  0  0  0
   -0.6145   -0.0489    3.3224 O   0  0  0  0  0  0  0  0  0  0  0  0
   -1.9938    0.2834    5.1988 C   0  0  0  0  0  0  0  0  0  0  0  0
   -2.7535   -0.5129    5.2522 H   0  0  0  0  0  0  0  0  0  0  0  0
   -1.1626   -0.0642    5.8331 H   0  0  0  0  0  0  0  0  0  0  0  0
   -2.4318    1.1383    5.7384 H   0  0  0  0  0  0  0  0  0  0  0  0
   -2.3116    1.5383    3.1570 N   0  0  0  0  0  0  0  0  0  0  0  0
   -2.0648    1.9643    1.8046 C   0  0  2  0  0  0  0  0  0  0  0  0
   -0.7298    1.3789    1.3634 C   0  0  0  0  0  0  0  0  0  0  0  0
    0.1423    1.0262    2.1547 O   0  0  0  0  0  0  0  0  0  0  0  0
   -2.0560    3.4811    1.6952 C   0  0  0  0  0  0  0  0  0  0  0  0
   -3.0767    1.9741    3.6688 H   0  0  0  0  0  0  0  0  0  0  0  0
   -2.8689    1.5458    1.1895 H   0  0  0  0  0  0  0  0  0  0  0  0
   -1.2569    3.9183    2.3049 H   0  0  0  0  0  0  0  0  0  0  0  0
   -1.8965    3.8033    0.6609 H   0  0  0  0  0  0  0  0  0  0  0  0
   -3.0062    3.9023    2.0409 H   0  0  0  0  0  0  0  0  0  0  0  0
   -0.6071    1.3358   -0.0200 N   0  0  0  0  0  0  0  0  0  0  0  0
    0.5702    0.8350   -0.6836 C   0  0  2  0  0  0  0  0  0  0  0  0
    0.3641   -0.6599   -0.9005 C   0  0  0  0  0  0  0  0  0  0  0  0
    1.2875   -1.4711   -0.8893 O   0  0  0  0  0  0  0  0  0  0  0  0
    1.8445    1.0846    0.1312 C   0  0  0  0  0  0  0  0  0  0  0  0
    2.1465    2.5528    0.3072 C   0  0  0  0  0  0  0  0  0  0  0  0
    2.6508    3.3293   -0.6978 N   0  0  0  0  0  0  0  0  0  0  0  0
    2.0173    3.4043    1.3790 C   0  0  0  0  0  0  0  0  0  0  0  0
    2.8034    4.5940   -0.2012 C   0  0  0  0  0  0  0  0  0  0  0  0
    2.4277    4.6735    1.0559 N   0  0  0  0  0  0  0  0  0  0  0  0
   -1.3903    1.6325   -0.5973 H   0  0  0  0  0  0  0  0  0  0  0  0
    0.6166    1.3359   -1.6578 H   0  0  0  0  0  0  0  0  0  0  0  0
    2.7016    0.5852   -0.3406 H   0  0  0  0  0  0  0  0  0  0  0  0
    1.7584    0.6296    1.1268 H   0  0  0  0  0  0  0  0  0  0  0  0
    2.8728    3.0268   -1.6372 H   0  0  0  0  0  0  0  0  0  0  0  0
    1.6498    3.1704    2.3680 H   0  0  0  0  0  0  0  0  0  0  0  0
    3.1903    5.4042   -0.8028 H   0  0  0  0  0  0  0  0  0  0  0  0
   -0.9768   -0.9822   -1.0575 N   0  0  0  0  0  0  0  0  0  0  0  0
   -1.4503   -2.3333   -1.2552 C   0  0  2  0  0  0  0  0  0  0  0  0
   -0.6310   -2.9595   -2.3760 C   0  0  0  0  0  0  0  0  0  0  0  0
   -0.0373   -2.2965   -3.2239 O   0  0  0  0  0  0  0  0  0  0  0  0
   -2.9340   -2.3564   -1.5882 C   0  0  0  0  0  0  0  0  0  0  0  0
   -1.6596   -0.2306   -1.0321 H   0  0  0  0  0  0  0  0  0  0  0  0
   -1.2645   -2.8735   -0.3205 H   0  0  0  0  0  0  0  0  0  0  0  0
   -3.1396   -1.8200   -2.5216 H   0  0  0  0  0  0  0  0  0  0  0  0
   -3.2974   -3.3822   -1.7095 H   0  0  0  0  0  0  0  0  0  0  0  0
   -3.5190   -1.8790   -0.7947 H   0  0  0  0  0  0  0  0  0  0  0  0
   -0.6764   -4.3462   -2.3435 N   0  0  0  0  0  0  0  0  0  0  0  0
    0.0103   -5.1716   -3.3095 C   0  0  0  0  0  0  0  0  0  0  0  0
   -1.1778   -4.8123   -1.5931 H   0  0  0  0  0  0  0  0  0  0  0  0
   -0.6699   -5.4060   -4.1416 H   0  0  0  0  0  0  0  0  0  0  0  0
    0.8881   -4.6320   -3.6946 H   0  0  0  0  0  0  0  0  0  0  0  0
    0.3361   -6.1054   -2.8281 H   0  0  0  0  0  0  0  0  0  0  0  0
 22 24  2  0  0  0  0
 24 26  1  0  0  0  0
 25 26  2  0  0  0  0
 23 25  1  0  0  0  0
 21 22  1  0  0  0  0
 22 23  1  0  0  0  0
  1  3  1  0  0  0  0
  1  7  1  0  0  0  0
  1  2  2  0  0  0  0
 35 36  1  0  0  0  0
 36 44  1  0  0  0  0
 36 37  2  0  0  0  0
  8  9  1  0  0  0  0
  9 17  1  0  0  0  0
  9 10  2  0  0  0  0
 18 19  1  0  0  0  0
 19 34  1  0  0  0  0
 19 20  2  0  0  0  0
 35 38  1  0  0  0  0
  8 11  1  0  0  0  0
 44 45  1  0  0  0  0
 18 21  1  0  0  0  0
 34 35  1  0  0  0  0
  7  8  1  0  0  0  0
 17 18  1  0  0  0  0
 24 32  1  0  0  0  0
 25 33  1  0  0  0  0
  3  4  1  0  0  0  0
  3  5  1  0  0  0  0
  3  6  1  0  0  0  0
 38 41  1  0  0  0  0
 38 42  1  0  0  0  0
 38 43  1  0  0  0  0
 11 14  1  0  0  0  0
 11 15  1  0  0  0  0
 11 16  1  0  0  0  0
 45 47  1  0  0  0  0
 45 48  1  0  0  0  0
 45 49  1  0  0  0  0
 21 29  1  0  0  0  0
 21 30  1  0  0  0  0
 35 40  1  0  0  0  0
  8 13  1  0  0  0  0
 18 28  1  0  0  0  0
 23 31  1  0  0  0  0
 44 46  1  0  0  0  0
  7 12  1  0  0  0  0
 34 39  1  0  0  0  0
 17 27  1  0  0  0  0
M  END
$$$$

  -OEChem-05262214473D

 49 49  0     1  0  0  0  0  0999 V2000
   -1.5619    0.5658    3.7981 C   0  0  0  0  0  0  0  0  0  0  0  0
   -0.6145   -0.0489    3.3224 O   0  0  0  0  0  0  0  0  0  0  0  0
   -1.9938    0.2834    5.1988 C   0  0  0  0  0  0  0  0  0  0  0  0
   -2.7535   -0.5129    5.2522 H   0  0  0  0  0  0  0  0  0  0  0  0
   -1.1626   -0.0642    5.8331 H   0  0  0  0  0  0  0  0  0  0  0  0
   -2.4318    1.1383    5.7384 H   0  0  0  0  0  0  0  0  0  0  0  0
   -2.3116    1.5383    3.1570 N   0  0  0  0  0  0  0  0  0  0  0  0
   -2.0648    1.9643    1.8046 C   0  0  2  0  0  0  0  0  0  0  0  0
   -0.7298    1.3789    1.3634 C   0  0  0  0  0  0  0  0  0  0  0  0
    0.1423    1.0262    2.1547 O   0  0  0  0  0  0  0  0  0  0  0  0
   -2.0560    3.4811    1.6952 C   0  0  0  0  0  0  0  0  0  0  0  0
   -3.0767    1.9741    3.6688 H   0  0  0  0  0  0  0  0  0  0  0  0
   -2.8689    1.5458    1.1895 H   0  0  0  0  0  0  0  0  0  0  0  0
   -1.2569    3.9183    2.3049 H   0  0  0  0  0  0  0  0  0  0  0  0
   -1.8965    3.8033    0.6609 H   0  0  0  0  0  0  0  0  0  0  0  0
   -3.0062    3.9023    2.0409 H   0  0  0  0  0  0  0  0  0  0  0  0
   -0.6071    1.3358   -0.0200 N   0  0  0  0  0  0  0  0  0  0  0  0
    0.5702    0.8350   -0.6836 C   0  0  2  0  0  0  0  0  0  0  0  0
    0.3641   -0.6599   -0.9005 C   0  0  0  0  0  0  0  0  0  0  0  0
    1.2202   -1.4995   -0.6303 O   0  0  0  0  0  0  0  0  0  0  0  0
    1.8445    1.0846    0.1312 C   0  0  0  0  0  0  0  0  0  0  0  0
    2.1465    2.5528    0.3072 C   0  0  0  0  0  0  0  0  0  0  0  0
    2.6508    3.3293   -0.6978 N   0  0  0  0  0  0  0  0  0  0  0  0
    2.0173    3.4043    1.3790 C   0  0  0  0  0  0  0  0  0  0  0  0
    2.8034    4.5940   -0.2012 C   0  0  0  0  0  0  0  0  0  0  0  0
    2.4277    4.6735    1.0559 N   0  0  0  0  0  0  0  0  0  0  0  0
   -1.3903    1.6325   -0.5973 H   0  0  0  0  0  0  0  0  0  0  0  0
    0.6166    1.3359   -1.6578 H   0  0  0  0  0  0  0  0  0  0  0  0
    2.7016    0.5852   -0.3406 H   0  0  0  0  0  0  0  0  0  0  0  0
    1.7584    0.6296    1.1268 H   0  0  0  0  0  0  0  0  0  0  0  0
    2.8728    3.0268   -1.6372 H   0  0  0  0  0  0  0  0  0  0  0  0
    1.6498    3.1704    2.3680 H   0  0  0  0  0  0  0  0  0  0  0  0
    3.1903    5.4042   -0.8028 H   0  0  0  0  0  0  0  0  0  0  0  0
   -0.9055   -0.9447   -1.3837 N   0  0  0  0  0  0  0  0  0  0  0  0
   -1.3690   -2.2865   -1.6544 C   0  0  2  0  0  0  0  0  0  0  0  0
   -0.3193   -2.9829   -2.5104 C   0  0  0  0  0  0  0  0  0  0  0  0
    0.4966   -2.3737   -3.1990 O   0  0  0  0  0  0  0  0  0  0  0  0
   -2.7197   -2.2750   -2.3531 C   0  0  0  0  0  0  0  0  0  0  0  0
   -1.5409   -0.1710   -1.5556 H   0  0  0  0  0  0  0  0  0  0  0  0
   -1.4483   -2.7949   -0.6873 H   0  0  0  0  0  0  0  0  0  0  0  0
   -2.6600   -1.7697   -3.3240 H   0  0  0  0  0  0  0  0  0  0  0  0
   -3.0827   -3.2925   -2.5319 H   0  0  0  0  0  0  0  0  0  0  0  0
   -3.4663   -1.7477   -1.7494 H   0  0  0  0  0  0  0  0  0  0  0  0
   -0.4287   -4.3651   -2.4486 N   0  0  0  0  0  0  0  0  0  0  0  0
    0.4454   -5.2499   -3.1828 C   0  0  0  0  0  0  0  0  0  0  0  0
   -1.1226   -4.7846   -1.8368 H   0  0  0  0  0  0  0  0  0  0  0  0
   -0.0111   -5.4952   -4.1531 H   0  0  0  0  0  0  0  0  0  0  0  0
    1.4137   -4.7547   -3.3479 H   0  0  0  0  0  0  0  0  0  0  0  0
    0.5998   -6.1740   -2.6063 H   0  0  0  0  0  0  0  0  0  0  0  0
 22 24  2  0  0  0  0
 24 26  1  0  0  0  0
 25 26  2  0  0  0  0
 23 25  1  0  0  0  0
 21 22  1  0  0  0  0
 22 23  1  0  0  0  0
  1  3  1  0  0  0  0
  1  7  1  0  0  0  0
  1  2  2  0  0  0  0
 35 36  1  0  0  0  0
 36 44  1  0  0  0  0
 36 37  2  0  0  0  0
  8  9  1  0  0  0  0
  9 17  1  0  0  0  0
  9 10  2  0  0  0  0
 18 19  1  0  0  0  0
 19 34  1  0  0  0  0
 19 20  2  0  0  0  0
 35 38  1  0  0  0  0
  8 11  1  0  0  0  0
 44 45  1  0  0  0  0
 18 21  1  0  0  0  0
 34 35  1  0  0  0  0
  7  8  1  0  0  0  0
 17 18  1  0  0  0  0
 24 32  1  0  0  0  0
 25 33  1  0  0  0  0
  3  4  1  0  0  0  0
  3  5  1  0  0  0  0
  3  6  1  0  0  0  0
 38 41  1  0  0  0  0
 38 42  1  0  0  0  0
 38 43  1  0  0  0  0
 11 14  1  0  0  0  0
 11 15  1  0  0  0  0
 11 16  1  0  0  0  0
 45 47  1  0  0  0  0
 45 48  1  0  0  0  0
 45 49  1  0  0  0  0
 21 29  1  0  0  0  0
 21 30  1  0  0  0  0
 35 40  1  0  0  0  0
  8 13  1  0  0  0  0
 18 28  1  0  0  0  0
 23 31  1  0  0  0  0
 44 46  1  0  0  0  0
  7 12  1  0  0  0  0
 34 39  1  0  0  0  0
 17 27  1  0  0  0  0
M  END
$$$$

  -OEChem-05262214473D

 49 49  0     1  0  0  0  0  0999 V2000
   -1.5619    0.5658    3.7981 C   0  0  0  0  0  0  0  0  0  0  0  0
   -0.6145   -0.0489    3.3224 O   0  0  0  0  0  0  0  0  0  0  0  0
   -1.9938    0.2834    5.1988 C   0  0  0  0  0  0  0  0  0  0  0  0
   -2.7535   -0.5129    5.2522 H   0  0  0  0  0  0  0  0  0  0  0  0
   -1.1626   -0.0642    5.8331 H   0  0  0  0  0  0  0  0  0  0  0  0
   -2.4318    1.1383    5.7384 H   0  0  0  0  0  0  0  0  0  0  0  0
   -2.3116    1.5383    3.1570 N   0  0  0  0  0  0  0  0  0  0  0  0
   -2.0648    1.9643    1.8046 C   0  0  2  0  0  0  0  0  0  0  0  0
   -0.7298    1.3789    1.3634 C   0  0  0  0  0  0  0  0  0  0  0  0
    0.1423    1.0262    2.1547 O   0  0  0  0  0  0  0  0  0  0  0  0
   -2.0560    3.4811    1.6952 C   0  0  0  0  0  0  0  0  0  0  0  0
   -3.0767    1.9741    3.6688 H   0  0  0  0  0  0  0  0  0  0  0  0
   -2.8689    1.5458    1.1895 H   0  0  0  0  0  0  0  0  0  0  0  0
   -1.2569    3.9183    2.3049 H   0  0  0  0  0  0  0  0  0  0  0  0
   -1.8965    3.8033    0.6609 H   0  0  0  0  0  0  0  0  0  0  0  0
   -3.0062    3.9023    2.0409 H   0  0  0  0  0  0  0  0  0  0  0  0
   -0.6071    1.3358   -0.0200 N   0  0  0  0  0  0  0  0  0  0  0  0
    0.5702    0.8350   -0.6836 C   0  0  2  0  0  0  0  0  0  0  0  0
    0.3641   -0.6599   -0.9005 C   0  0  0  0  0  0  0  0  0  0  0  0
    1.0885   -1.5153   -0.3961 O   0  0  0  0  0  0  0  0  0  0  0  0
    1.8445    1.0846    0.1312 C   0  0  0  0  0  0  0  0  0  0  0  0
    2.1465    2.5528    0.3072 C   0  0  0  0  0  0  0  0  0  0  0  0
    2.6508    3.3293   -0.6978 N   0  0  0  0  0  0  0  0  0  0  0  0
    2.0173    3.4043    1.3790 C   0  0  0  0  0  0  0  0  0  0  0  0
    2.8034    4.5940   -0.2012 C   0  0  0  0  0  0  0  0  0  0  0  0
    2.4277    4.6735    1.0559 N   0  0  0  0  0  0  0  0  0  0  0  0
   -1.3903    1.6325   -0.5973 H   0  0  0  0  0  0  0  0  0  0  0  0
    0.6166    1.3359   -1.6578 H   0  0  0  0  0  0  0  0  0  0  0  0
    2.7016    0.5852   -0.3406 H   0  0  0  0  0  0  0  0  0  0  0  0
    1.7584    0.6296    1.1268 H   0  0  0  0  0  0  0  0  0  0  0  0
    2.8728    3.0268   -1.6372 H   0  0  0  0  0  0  0  0  0  0  0  0
    1.6498    3.1704    2.3680 H   0  0  0  0  0  0  0  0  0  0  0  0
    3.1903    5.4042   -0.8028 H   0  0  0  0  0  0  0  0  0  0  0  0
   -0.7525   -0.9225   -1.6820 N   0  0  0  0  0  0  0  0  0  0  0  0
   -1.1874   -2.2584   -2.0211 C   0  0  2  0  0  0  0  0  0  0  0  0
    0.0150   -3.0218   -2.5604 C   0  0  0  0  0  0  0  0  0  0  0  0
    1.0032   -2.4670   -3.0367 O   0  0  0  0  0  0  0  0  0  0  0  0
   -2.3156   -2.2309   -3.0404 C   0  0  0  0  0  0  0  0  0  0  0  0
   -1.2911   -0.1362   -2.0333 H   0  0  0  0  0  0  0  0  0  0  0  0
   -1.5299   -2.7251   -1.0911 H   0  0  0  0  0  0  0  0  0  0  0  0
   -1.9913   -1.7668   -3.9790 H   0  0  0  0  0  0  0  0  0  0  0  0
   -2.6633   -3.2425   -3.2748 H   0  0  0  0  0  0  0  0  0  0  0  0
   -3.1682   -1.6563   -2.6628 H   0  0  0  0  0  0  0  0  0  0  0  0
   -0.1635   -4.3961   -2.4867 N   0  0  0  0  0  0  0  0  0  0  0  0
    0.8307   -5.3372   -2.9471 C   0  0  0  0  0  0  0  0  0  0  0  0
   -1.0063   -4.7683   -2.0591 H   0  0  0  0  0  0  0  0  0  0  0  0
    0.6249   -5.6059   -3.9938 H   0  0  0  0  0  0  0  0  0  0  0  0
    1.8288   -4.8805   -2.8754 H   0  0  0  0  0  0  0  0  0  0  0  0
    0.7958   -6.2421   -2.3227 H   0  0  0  0  0  0  0  0  0  0  0  0
 22 24  2  0  0  0  0
 24 26  1  0  0  0  0
 25 26  2  0  0  0  0
 23 25  1  0  0  0  0
 21 22  1  0  0  0  0
 22 23  1  0  0  0  0
  1  3  1  0  0  0  0
  1  7  1  0  0  0  0
  1  2  2  0  0  0  0
 35 36  1  0  0  0  0
 36 44  1  0  0  0  0
 36 37  2  0  0  0  0
  8  9  1  0  0  0  0
  9 17  1  0  0  0  0
  9 10  2  0  0  0  0
 18 19  1  0  0  0  0
 19 34  1  0  0  0  0
 19 20  2  0  0  0  0
 35 38  1  0  0  0  0
  8 11  1  0  0  0  0
 44 45  1  0  0  0  0
 18 21  1  0  0  0  0
 34 35  1  0  0  0  0
  7  8  1  0  0  0  0
 17 18  1  0  0  0  0
 24 32  1  0  0  0  0
 25 33  1  0  0  0  0
  3  4  1  0  0  0  0
  3  5  1  0  0  0  0
  3  6  1  0  0  0  0
 38 41  1  0  0  0  0
 38 42  1  0  0  0  0
 38 43  1  0  0  0  0
 11 14  1  0  0  0  0
 11 15  1  0  0  0  0
 11 16  1  0  0  0  0
 45 47  1  0  0  0  0
 45 48  1  0  0  0  0
 45 49  1  0  0  0  0
 21 29  1  0  0  0  0
 21 30  1  0  0  0  0
 35 40  1  0  0  0  0
  8 13  1  0  0  0  0
 18 28  1  0  0  0  0
 23 31  1  0  0  0  0
 44 46  1  0  0  0  0
  7 12  1  0  0  0  0
 34 39  1  0  0  0  0
 17 27  1  0  0  0  0
M  END
$$$$

  -OEChem-05262214473D

 49 49  0     1  0  0  0  0  0999 V2000
   -1.5619    0.5658    3.7981 C   0  0  0  0  0  0  0  0  0  0  0  0
   -0.6145   -0.0489    3.3224 O   0  0  0  0  0  0  0  0  0  0  0  0
   -1.9938    0.2834    5.1988 C   0  0  0  0  0  0  0  0  0  0  0  0
   -2.7535   -0.5129    5.2522 H   0  0  0  0  0  0  0  0  0  0  0  0
   -1.1626   -0.0642    5.8331 H   0  0  0  0  0  0  0  0  0  0  0  0
   -2.4318    1.1383    5.7384 H   0  0  0  0  0  0  0  0  0  0  0  0
   -2.3116    1.5383    3.1570 N   0  0  0  0  0  0  0  0  0  0  0  0
   -2.0648    1.9643    1.8046 C   0  0  2  0  0  0  0  0  0  0  0  0
   -0.7298    1.3789    1.3634 C   0  0  0  0  0  0  0  0  0  0  0  0
    0.1423    1.0262    2.1547 O   0  0  0  0  0  0  0  0  0  0  0  0
   -2.0560    3.4811    1.6952 C   0  0  0  0  0  0  0  0  0  0  0  0
   -3.0767    1.9741    3.6688 H   0  0  0  0  0  0  0  0  0  0  0  0
   -2.8689    1.5458    1.1895 H   0  0  0  0  0  0  0  0  0  0  0  0
   -1.2569    3.9183    2.3049 H   0  0  0  0  0  0  0  0  0  0  0  0
   -1.8965    3.8033    0.6609 H   0  0  0  0  0  0  0  0  0  0  0  0
   -3.0062    3.9023    2.0409 H   0  0  0  0  0  0  0  0  0  0  0  0
   -0.6071    1.3358   -0.0200 N   0  0  0  0  0  0  0  0  0  0  0  0
    0.5702    0.8350   -0.6836 C   0  0  2  0  0  0  0  0  0  0  0  0
    0.3641   -0.6599   -0.9005 C   0  0  0  0  0  0  0  0  0  0  0  0
    0.9012   -1.5175   -0.2028 O   0  0  0  0  0  0  0  0  0  0  0  0
    1.8445    1.0846    0.1312 C   0  0  0  0  0  0  0  0  0  0  0  0
    2.1465    2.5528    0.3072 C   0  0  0  0  0  0  0  0  0  0  0  0
    2.6508    3.3293   -0.6978 N   0  0  0  0  0  0  0  0  0  0  0  0
    2.0173    3.4043    1.3790 C   0  0  0  0  0  0  0  0  0  0  0  0
    2.8034    4.5940   -0.2012 C   0  0  0  0  0  0  0  0  0  0  0  0
    2.4277    4.6735    1.0559 N   0  0  0  0  0  0  0  0  0  0  0  0
   -1.3903    1.6325   -0.5973 H   0  0  0  0  0  0  0  0  0  0  0  0
    0.6166    1.3359   -1.6578 H   0  0  0  0  0  0  0  0  0  0  0  0
    2.7016    0.5852   -0.3406 H   0  0  0  0  0  0  0  0  0  0  0  0
    1.7584    0.6296    1.1268 H   0  0  0  0  0  0  0  0  0  0  0  0
    2.8728    3.0268   -1.6372 H   0  0  0  0  0  0  0  0  0  0  0  0
    1.6498    3.1704    2.3680 H   0  0  0  0  0  0  0  0  0  0  0  0
    3.1903    5.4042   -0.8028 H   0  0  0  0  0  0  0  0  0  0  0  0
   -0.5282   -0.9171   -1.9321 N   0  0  0  0  0  0  0  0  0  0  0  0
   -0.9180   -2.2507   -2.3301 C   0  0  2  0  0  0  0  0  0  0  0  0
    0.3492   -3.0733   -2.5224 C   0  0  0  0  0  0  0  0  0  0  0  0
    1.4478   -2.5702   -2.7482 O   0  0  0  0  0  0  0  0  0  0  0  0
   -1.7493   -2.2273   -3.6034 C   0  0  0  0  0  0  0  0  0  0  0  0
   -0.9274   -0.1284   -2.4324 H   0  0  0  0  0  0  0  0  0  0  0  0
   -1.5037   -2.6687   -1.5042 H   0  0  0  0  0  0  0  0  0  0  0  0
   -1.1790   -1.8116   -4.4421 H   0  0  0  0  0  0  0  0  0  0  0  0
   -2.0678   -3.2356   -3.8878 H   0  0  0  0  0  0  0  0  0  0  0  0
   -2.6452   -1.6109   -3.4726 H   0  0  0  0  0  0  0  0  0  0  0  0
    0.1012   -4.4372   -2.4550 N   0  0  0  0  0  0  0  0  0  0  0  0
    1.1398   -5.4275   -2.6187 C   0  0  0  0  0  0  0  0  0  0  0  0
   -0.8370   -4.7647   -2.2450 H   0  0  0  0  0  0  0  0  0  0  0  0
    1.1948   -5.7308   -3.6747 H   0  0  0  0  0  0  0  0  0  0  0  0
    2.1052   -5.0007   -2.3092 H   0  0  0  0  0  0  0  0  0  0  0  0
    0.9106   -6.3053   -1.9967 H   0  0  0  0  0  0  0  0  0  0  0  0
 22 24  2  0  0  0  0
 24 26  1  0  0  0  0
 25 26  2  0  0  0  0
 23 25  1  0  0  0  0
 21 22  1  0  0  0  0
 22 23  1  0  0  0  0
  1  3  1  0  0  0  0
  1  7  1  0  0  0  0
  1  2  2  0  0  0  0
 35 36  1  0  0  0  0
 36 44  1  0  0  0  0
 36 37  2  0  0  0  0
  8  9  1  0  0  0  0
  9 17  1  0  0  0  0
  9 10  2  0  0  0  0
 18 19  1  0  0  0  0
 19 34  1  0  0  0  0
 19 20  2  0  0  0  0
 35 38  1  0  0  0  0
  8 11  1  0  0  0  0
 44 45  1  0  0  0  0
 18 21  1  0  0  0  0
 34 35  1  0  0  0  0
  7  8  1  0  0  0  0
 17 18  1  0  0  0  0
 24 32  1  0  0  0  0
 25 33  1  0  0  0  0
  3  4  1  0  0  0  0
  3  5  1  0  0  0  0
  3  6  1  0  0  0  0
 38 41  1  0  0  0  0
 38 42  1  0  0  0  0
 38 43  1  0  0  0  0
 11 14  1  0  0  0  0
 11 15  1  0  0  0  0
 11 16  1  0  0  0  0
 45 47  1  0  0  0  0
 45 48  1  0  0  0  0
 45 49  1  0  0  0  0
 21 29  1  0  0  0  0
 21 30  1  0  0  0  0
 35 40  1  0  0  0  0
  8 13  1  0  0  0  0
 18 28  1  0  0  0  0
 23 31  1  0  0  0  0
 44 46  1  0  0  0  0
  7 12  1  0  0  0  0
 34 39  1  0  0  0  0
 17 27  1  0  0  0  0
M  END
$$$$

  -OEChem-05262214473D

 49 49  0     1  0  0  0  0  0999 V2000
   -1.5619    0.5658    3.7981 C   0  0  0  0  0  0  0  0  0  0  0  0
   -0.6145   -0.0489    3.3224 O   0  0  0  0  0  0  0  0  0  0  0  0
   -1.9938    0.2834    5.1988 C   0  0  0  0  0  0  0  0  0  0  0  0
   -2.7535   -0.5129    5.2522 H   0  0  0  0  0  0  0  0  0  0  0  0
   -1.1626   -0.0642    5.8331 H   0  0  0  0  0  0  0  0  0  0  0  0
   -2.4318    1.1383    5.7384 H   0  0  0  0  0  0  0  0  0  0  0  0
   -2.3116    1.5383    3.1570 N   0  0  0  0  0  0  0  0  0  0  0  0
   -2.0648    1.9643    1.8046 C   0  0  2  0  0  0  0  0  0  0  0  0
   -0.7298    1.3789    1.3634 C   0  0  0  0  0  0  0  0  0  0  0  0
    0.1423    1.0262    2.1547 O   0  0  0  0  0  0  0  0  0  0  0  0
   -2.0560    3.4811    1.6952 C   0  0  0  0  0  0  0  0  0  0  0  0
   -3.0767    1.9741    3.6688 H   0  0  0  0  0  0  0  0  0  0  0  0
   -2.8689    1.5458    1.1895 H   0  0  0  0  0  0  0  0  0  0  0  0
   -1.2569    3.9183    2.3049 H   0  0  0  0  0  0  0  0  0  0  0  0
   -1.8965    3.8033    0.6609 H   0  0  0  0  0  0  0  0  0  0  0  0
   -3.0062    3.9023    2.0409 H   0  0  0  0  0  0  0  0  0  0  0  0
   -0.6071    1.3358   -0.0200 N   0  0  0  0  0  0  0  0  0  0  0  0
    0.5702    0.8350   -0.6836 C   0  0  2  0  0  0  0  0  0  0  0  0
    0.3641   -0.6599   -0.9005 C   0  0  0  0  0  0  0  0  0  0  0  0
    0.6711   -1.5060   -0.0635 O   0  0  0  0  0  0  0  0  0  0  0  0
    1.8445    1.0846    0.1312 C   0  0  0  0  0  0  0  0  0  0  0  0
    2.1465    2.5528    0.3072 C   0  0  0  0  0  0  0  0  0  0  0  0
    2.6508    3.3293   -0.6978 N   0  0  0  0  0  0  0  0  0  0  0  0
    2.0173    3.4043    1.3790 C   0  0  0  0  0  0  0  0  0  0  0  0
    2.8034    4.5940   -0.2012 C   0  0  0  0  0  0  0  0  0  0  0  0
    2.4277    4.6735    1.0559 N   0  0  0  0  0  0  0  0  0  0  0  0
   -1.3903    1.6325   -0.5973 H   0  0  0  0  0  0  0  0  0  0  0  0
    0.6166    1.3359   -1.6578 H   0  0  0  0  0  0  0  0  0  0  0  0
    2.7016    0.5852   -0.3406 H   0  0  0  0  0  0  0  0  0  0  0  0
    1.7584    0.6296    1.1268 H   0  0  0  0  0  0  0  0  0  0  0  0
    2.8728    3.0268   -1.6372 H   0  0  0  0  0  0  0  0  0  0  0  0
    1.6498    3.1704    2.3680 H   0  0  0  0  0  0  0  0  0  0  0  0
    3.1903    5.4042   -0.8028 H   0  0  0  0  0  0  0  0  0  0  0  0
   -0.2478   -0.9289   -2.1169 N   0  0  0  0  0  0  0  0  0  0  0  0
   -0.5790   -2.2640   -2.5605 C   0  0  2  0  0  0  0  0  0  0  0  0
    0.6605   -3.1341   -2.3991 C   0  0  0  0  0  0  0  0  0  0  0  0
    1.8003   -2.6761   -2.3530 O   0  0  0  0  0  0  0  0  0  0  0  0
   -1.0592   -2.2644   -4.0035 C   0  0  0  0  0  0  0  0  0  0  0  0
   -0.4744   -0.1482   -2.7260 H   0  0  0  0  0  0  0  0  0  0  0  0
   -1.3715   -2.6298   -1.8986 H   0  0  0  0  0  0  0  0  0  0  0  0
   -0.2785   -1.9009   -4.6817 H   0  0  0  0  0  0  0  0  0  0  0  0
   -1.3367   -3.2724   -4.3290 H   0  0  0  0  0  0  0  0  0  0  0  0
   -1.9328   -1.6146   -4.1237 H   0  0  0  0  0  0  0  0  0  0  0  0
    0.3474   -4.4855   -2.3558 N   0  0  0  0  0  0  0  0  0  0  0  0
    1.3517   -5.5145   -2.2199 C   0  0  0  0  0  0  0  0  0  0  0  0
   -0.6262   -4.7739   -2.3817 H   0  0  0  0  0  0  0  0  0  0  0  0
    1.6596   -5.8612   -3.2174 H   0  0  0  0  0  0  0  0  0  0  0  0
    2.2241   -5.1072   -1.6880 H   0  0  0  0  0  0  0  0  0  0  0  0
    0.9364   -6.3591   -1.6504 H   0  0  0  0  0  0  0  0  0  0  0  0
 22 24  2  0  0  0  0
 24 26  1  0  0  0  0
 25 26  2  0  0  0  0
 23 25  1  0  0  0  0
 21 22  1  0  0  0  0
 22 23  1  0  0  0  0
  1  3  1  0  0  0  0
  1  7  1  0  0  0  0
  1  2  2  0  0  0  0
 35 36  1  0  0  0  0
 36 44  1  0  0  0  0
 36 37  2  0  0  0  0
  8  9  1  0  0  0  0
  9 17  1  0  0  0  0
  9 10  2  0  0  0  0
 18 19  1  0  0  0  0
 19 34  1  0  0  0  0
 19 20  2  0  0  0  0
 35 38  1  0  0  0  0
  8 11  1  0  0  0  0
 44 45  1  0  0  0  0
 18 21  1  0  0  0  0
 34 35  1  0  0  0  0
  7  8  1  0  0  0  0
 17 18  1  0  0  0  0
 24 32  1  0  0  0  0
 25 33  1  0  0  0  0
  3  4  1  0  0  0  0
  3  5  1  0  0  0  0
  3  6  1  0  0  0  0
 38 41  1  0  0  0  0
 38 42  1  0  0  0  0
 38 43  1  0  0  0  0
 11 14  1  0  0  0  0
 11 15  1  0  0  0  0
 11 16  1  0  0  0  0
 45 47  1  0  0  0  0
 45 48  1  0  0  0  0
 45 49  1  0  0  0  0
 21 29  1  0  0  0  0
 21 30  1  0  0  0  0
 35 40  1  0  0  0  0
  8 13  1  0  0  0  0
 18 28  1  0  0  0  0
 23 31  1  0  0  0  0
 44 46  1  0  0  0  0
  7 12  1  0  0  0  0
 34 39  1  0  0  0  0
 17 27  1  0  0  0  0
M  END
$$$$

  -OEChem-05262214473D

 49 49  0     1  0  0  0  0  0999 V2000
   -1.5619    0.5658    3.7981 C   0  0  0  0  0  0  0  0  0  0  0  0
   -0.6145   -0.0489    3.3224 O   0  0  0  0  0  0  0  0  0  0  0  0
   -1.9938    0.2834    5.1988 C   0  0  0  0  0  0  0  0  0  0  0  0
   -2.7535   -0.5129    5.2522 H   0  0  0  0  0  0  0  0  0  0  0  0
   -1.1626   -0.0642    5.8331 H   0  0  0  0  0  0  0  0  0  0  0  0
   -2.4318    1.1383    5.7384 H   0  0  0  0  0  0  0  0  0  0  0  0
   -2.3116    1.5383    3.1570 N   0  0  0  0  0  0  0  0  0  0  0  0
   -2.0648    1.9643    1.8046 C   0  0  2  0  0  0  0  0  0  0  0  0
   -0.7298    1.3789    1.3634 C   0  0  0  0  0  0  0  0  0  0  0  0
    0.1423    1.0262    2.1547 O   0  0  0  0  0  0  0  0  0  0  0  0
   -2.0560    3.4811    1.6952 C   0  0  0  0  0  0  0  0  0  0  0  0
   -3.0767    1.9741    3.6688 H   0  0  0  0  0  0  0  0  0  0  0  0
   -2.8689    1.5458    1.1895 H   0  0  0  0  0  0  0  0  0  0  0  0
   -1.2569    3.9183    2.3049 H   0  0  0  0  0  0  0  0  0  0  0  0
   -1.8965    3.8033    0.6609 H   0  0  0  0  0  0  0  0  0  0  0  0
   -3.0062    3.9023    2.0409 H   0  0  0  0  0  0  0  0  0  0  0  0
   -0.6071    1.3358   -0.0200 N   0  0  0  0  0  0  0  0  0  0  0  0
    0.5702    0.8350   -0.6836 C   0  0  2  0  0  0  0  0  0  0  0  0
    0.3641   -0.6599   -0.9005 C   0  0  0  0  0  0  0  0  0  0  0  0
    0.4140   -1.4816    0.0123 O   0  0  0  0  0  0  0  0  0  0  0  0
    1.8445    1.0846    0.1312 C   0  0  0  0  0  0  0  0  0  0  0  0
    2.1465    2.5528    0.3072 C   0  0  0  0  0  0  0  0  0  0  0  0
    2.6508    3.3293   -0.6978 N   0  0  0  0  0  0  0  0  0  0  0  0
    2.0173    3.4043    1.3790 C   0  0  0  0  0  0  0  0  0  0  0  0
    2.8034    4.5940   -0.2012 C   0  0  0  0  0  0  0  0  0  0  0  0
    2.4277    4.6735    1.0559 N   0  0  0  0  0  0  0  0  0  0  0  0
   -1.3903    1.6325   -0.5973 H   0  0  0  0  0  0  0  0  0  0  0  0
    0.6166    1.3359   -1.6578 H   0  0  0  0  0  0  0  0  0  0  0  0
    2.7016    0.5852   -0.3406 H   0  0  0  0  0  0  0  0  0  0  0  0
    1.7584    0.6296    1.1268 H   0  0  0  0  0  0  0  0  0  0  0  0
    2.8728    3.0268   -1.6372 H   0  0  0  0  0  0  0  0  0  0  0  0
    1.6498    3.1704    2.3680 H   0  0  0  0  0  0  0  0  0  0  0  0
    3.1903    5.4042   -0.8028 H   0  0  0  0  0  0  0  0  0  0  0  0
    0.0694   -0.9571   -2.2239 N   0  0  0  0  0  0  0  0  0  0  0  0
   -0.1935   -2.2974   -2.6966 C   0  0  2  0  0  0  0  0  0  0  0  0
    0.9276   -3.2000   -2.1989 C   0  0  0  0  0  0  0  0  0  0  0  0
    2.0366   -2.7776   -1.8782 O   0  0  0  0  0  0  0  0  0  0  0  0
   -0.2924   -2.3396   -4.2135 C   0  0  0  0  0  0  0  0  0  0  0  0
    0.0369   -0.1943   -2.8938 H   0  0  0  0  0  0  0  0  0  0  0  0
   -1.1422   -2.6108   -2.2473 H   0  0  0  0  0  0  0  0  0  0  0  0
    0.6488   -2.0288   -4.6814 H   0  0  0  0  0  0  0  0  0  0  0  0
   -0.5199   -3.3502   -4.5683 H   0  0  0  0  0  0  0  0  0  0  0  0
   -1.0795   -1.6672   -4.5717 H   0  0  0  0  0  0  0  0  0  0  0  0
    0.5582   -4.5378   -2.1959 N   0  0  0  0  0  0  0  0  0  0  0  0
    1.4519   -5.5925   -1.7778 C   0  0  0  0  0  0  0  0  0  0  0  0
   -0.3882   -4.7954   -2.4598 H   0  0  0  0  0  0  0  0  0  0  0  0
    1.9877   -5.9883   -2.6532 H   0  0  0  0  0  0  0  0  0  0  0  0
    2.1774   -5.1928   -1.0540 H   0  0  0  0  0  0  0  0  0  0  0  0
    0.8715   -6.3999   -1.3075 H   0  0  0  0  0  0  0  0  0  0  0  0
 22 24  2  0  0  0  0
 24 26  1  0  0  0  0
 25 26  2  0  0  0  0
 23 25  1  0  0  0  0
 21 22  1  0  0  0  0
 22 23  1  0  0  0  0
  1  3  1  0  0  0  0
  1  7  1  0  0  0  0
  1  2  2  0  0  0  0
 35 36  1  0  0  0  0
 36 44  1  0  0  0  0
 36 37  2  0  0  0  0
  8  9  1  0  0  0  0
  9 17  1  0  0  0  0
  9 10  2  0  0  0  0
 18 19  1  0  0  0  0
 19 34  1  0  0  0  0
 19 20  2  0  0  0  0
 35 38  1  0  0  0  0
  8 11  1  0  0  0  0
 44 45  1  0  0  0  0
 18 21  1  0  0  0  0
 34 35  1  0  0  0  0
  7  8  1  0  0  0  0
 17 18  1  0  0  0  0
 24 32  1  0  0  0  0
 25 33  1  0  0  0  0
  3  4  1  0  0  0  0
  3  5  1  0  0  0  0
  3  6  1  0  0  0  0
 38 41  1  0  0  0  0
 38 42  1  0  0  0  0
 38 43  1  0  0  0  0
 11 14  1  0  0  0  0
 11 15  1  0  0  0  0
 11 16  1  0  0  0  0
 45 47  1  0  0  0  0
 45 48  1  0  0  0  0
 45 49  1  0  0  0  0
 21 29  1  0  0  0  0
 21 30  1  0  0  0  0
 35 40  1  0  0  0  0
  8 13  1  0  0  0  0
 18 28  1  0  0  0  0
 23 31  1  0  0  0  0
 44 46  1  0  0  0  0
  7 12  1  0  0  0  0
 34 39  1  0  0  0  0
 17 27  1  0  0  0  0
M  END
$$$$

  -OEChem-05262214473D

 49 49  0     1  0  0  0  0  0999 V2000
   -1.5619    0.5658    3.7981 C   0  0  0  0  0  0  0  0  0  0  0  0
   -0.6145   -0.0489    3.3224 O   0  0  0  0  0  0  0  0  0  0  0  0
   -1.9938    0.2834    5.1988 C   0  0  0  0  0  0  0  0  0  0  0  0
   -2.7535   -0.5129    5.2522 H   0  0  0  0  0  0  0  0  0  0  0  0
   -1.1626   -0.0642    5.8331 H   0  0  0  0  0  0  0  0  0  0  0  0
   -2.4318    1.1383    5.7384 H   0  0  0  0  0  0  0  0  0  0  0  0
   -2.3116    1.5383    3.1570 N   0  0  0  0  0  0  0  0  0  0  0  0
   -2.0648    1.9643    1.8046 C   0  0  2  0  0  0  0  0  0  0  0  0
   -0.7298    1.3789    1.3634 C   0  0  0  0  0  0  0  0  0  0  0  0
    0.1423    1.0262    2.1547 O   0  0  0  0  0  0  0  0  0  0  0  0
   -2.0560    3.4811    1.6952 C   0  0  0  0  0  0  0  0  0  0  0  0
   -3.0767    1.9741    3.6688 H   0  0  0  0  0  0  0  0  0  0  0  0
   -2.8689    1.5458    1.1895 H   0  0  0  0  0  0  0  0  0  0  0  0
   -1.2569    3.9183    2.3049 H   0  0  0  0  0  0  0  0  0  0  0  0
   -1.8965    3.8033    0.6609 H   0  0  0  0  0  0  0  0  0  0  0  0
   -3.0062    3.9023    2.0409 H   0  0  0  0  0  0  0  0  0  0  0  0
   -0.6071    1.3358   -0.0200 N   0  0  0  0  0  0  0  0  0  0  0  0
    0.5702    0.8350   -0.6836 C   0  0  2  0  0  0  0  0  0  0  0  0
    0.3641   -0.6599   -0.9005 C   0  0  0  0  0  0  0  0  0  0  0  0
    0.1473   -1.4458    0.0193 O   0  0  0  0  0  0  0  0  0  0  0  0
    1.8445    1.0846    0.1312 C   0  0  0  0  0  0  0  0  0  0  0  0
    2.1465    2.5528    0.3072 C   0  0  0  0  0  0  0  0  0  0  0  0
    2.6508    3.3293   -0.6978 N   0  0  0  0  0  0  0  0  0  0  0  0
    2.0173    3.4043    1.3790 C   0  0  0  0  0  0  0  0  0  0  0  0
    2.8034    4.5940   -0.2012 C   0  0  0  0  0  0  0  0  0  0  0  0
    2.4277    4.6735    1.0559 N   0  0  0  0  0  0  0  0  0  0  0  0
   -1.3903    1.6325   -0.5973 H   0  0  0  0  0  0  0  0  0  0  0  0
    0.6166    1.3359   -1.6578 H   0  0  0  0  0  0  0  0  0  0  0  0
    2.7016    0.5852   -0.3406 H   0  0  0  0  0  0  0  0  0  0  0  0
    1.7584    0.6296    1.1268 H   0  0  0  0  0  0  0  0  0  0  0  0
    2.8728    3.0268   -1.6372 H   0  0  0  0  0  0  0  0  0  0  0  0
    1.6498    3.1704    2.3680 H   0  0  0  0  0  0  0  0  0  0  0  0
    3.1903    5.4042   -0.8028 H   0  0  0  0  0  0  0  0  0  0  0  0
    0.4020   -0.9998   -2.2457 N   0  0  0  0  0  0  0  0  0  0  0  0
    0.2121   -2.3486   -2.7290 C   0  0  2  0  0  0  0  0  0  0  0  0
    1.1324   -3.2665   -1.9354 C   0  0  0  0  0  0  0  0  0  0  0  0
    2.1406   -2.8677   -1.3560 O   0  0  0  0  0  0  0  0  0  0  0  0
    0.4987   -2.4478   -4.2192 C   0  0  0  0  0  0  0  0  0  0  0  0
    0.5716   -0.2636   -2.9246 H   0  0  0  0  0  0  0  0  0  0  0  0
   -0.8315   -2.6130   -2.5267 H   0  0  0  0  0  0  0  0  0  0  0  0
    1.5398   -2.1864   -4.4414 H   0  0  0  0  0  0  0  0  0  0  0  0
    0.3268   -3.4639   -4.5895 H   0  0  0  0  0  0  0  0  0  0  0  0
   -0.1436   -1.7651   -4.7860 H   0  0  0  0  0  0  0  0  0  0  0  0
    0.7193   -4.5904   -1.9860 N   0  0  0  0  0  0  0  0  0  0  0  0
    1.4337   -5.6560   -1.3227 C   0  0  0  0  0  0  0  0  0  0  0  0
   -0.1393   -4.8276   -2.4742 H   0  0  0  0  0  0  0  0  0  0  0  0
    2.1568   -6.1034   -2.0206 H   0  0  0  0  0  0  0  0  0  0  0  0
    1.9682   -5.2515   -0.4505 H   0  0  0  0  0  0  0  0  0  0  0  0
    0.7203   -6.4249   -0.9913 H   0  0  0  0  0  0  0  0  0  0  0  0
 22 24  2  0  0  0  0
 24 26  1  0  0  0  0
 25 26  2  0  0  0  0
 23 25  1  0  0  0  0
 21 22  1  0  0  0  0
 22 23  1  0  0  0  0
  1  3  1  0  0  0  0
  1  7  1  0  0  0  0
  1  2  2  0  0  0  0
 35 36  1  0  0  0  0
 36 44  1  0  0  0  0
 36 37  2  0  0  0  0
  8  9  1  0  0  0  0
  9 17  1  0  0  0  0
  9 10  2  0  0  0  0
 18 19  1  0  0  0  0
 19 34  1  0  0  0  0
 19 20  2  0  0  0  0
 35 38  1  0  0  0  0
  8 11  1  0  0  0  0
 44 45  1  0  0  0  0
 18 21  1  0  0  0  0
 34 35  1  0  0  0  0
  7  8  1  0  0  0  0
 17 18  1  0  0  0  0
 24 32  1  0  0  0  0
 25 33  1  0  0  0  0
  3  4  1  0  0  0  0
  3  5  1  0  0  0  0
  3  6  1  0  0  0  0
 38 41  1  0  0  0  0
 38 42  1  0  0  0  0
 38 43  1  0  0  0  0
 11 14  1  0  0  0  0
 11 15  1  0  0  0  0
 11 16  1  0  0  0  0
 45 47  1  0  0  0  0
 45 48  1  0  0  0  0
 45 49  1  0  0  0  0
 21 29  1  0  0  0  0
 21 30  1  0  0  0  0
 35 40  1  0  0  0  0
  8 13  1  0  0  0  0
 18 28  1  0  0  0  0
 23 31  1  0  0  0  0
 44 46  1  0  0  0  0
  7 12  1  0  0  0  0
 34 39  1  0  0  0  0
 17 27  1  0  0  0  0
M  END
$$$$

  -OEChem-05262214473D

 49 49  0     1  0  0  0  0  0999 V2000
   -1.5619    0.5658    3.7981 C   0  0  0  0  0  0  0  0  0  0  0  0
   -0.6145   -0.0489    3.3224 O   0  0  0  0  0  0  0  0  0  0  0  0
   -1.9938    0.2834    5.1988 C   0  0  0  0  0  0  0  0  0  0  0  0
   -2.7535   -0.5129    5.2522 H   0  0  0  0  0  0  0  0  0  0  0  0
   -1.1626   -0.0642    5.8331 H   0  0  0  0  0  0  0  0  0  0  0  0
   -2.4318    1.1383    5.7384 H   0  0  0  0  0  0  0  0  0  0  0  0
   -2.3116    1.5383    3.1570 N   0  0  0  0  0  0  0  0  0  0  0  0
   -2.0648    1.9643    1.8046 C   0  0  2  0  0  0  0  0  0  0  0  0
   -0.7298    1.3789    1.3634 C   0  0  0  0  0  0  0  0  0  0  0  0
    0.1423    1.0262    2.1547 O   0  0  0  0  0  0  0  0  0  0  0  0
   -2.0560    3.4811    1.6952 C   0  0  0  0  0  0  0  0  0  0  0  0
   -3.0767    1.9741    3.6688 H   0  0  0  0  0  0  0  0  0  0  0  0
   -2.8689    1.5458    1.1895 H   0  0  0  0  0  0  0  0  0  0  0  0
   -1.2569    3.9183    2.3049 H   0  0  0  0  0  0  0  0  0  0  0  0
   -1.8965    3.8033    0.6609 H   0  0  0  0  0  0  0  0  0  0  0  0
   -3.0062    3.9023    2.0409 H   0  0  0  0  0  0  0  0  0  0  0  0
   -0.6071    1.3358   -0.0200 N   0  0  0  0  0  0  0  0  0  0  0  0
    0.5702    0.8350   -0.6836 C   0  0  2  0  0  0  0  0  0  0  0  0
    0.3641   -0.6599   -0.9005 C   0  0  0  0  0  0  0  0  0  0  0  0
   -0.1108   -1.4012   -0.0428 O   0  0  0  0  0  0  0  0  0  0  0  0
    1.8445    1.0846    0.1312 C   0  0  0  0  0  0  0  0  0  0  0  0
    2.1465    2.5528    0.3072 C   0  0  0  0  0  0  0  0  0  0  0  0
    2.6508    3.3293   -0.6978 N   0  0  0  0  0  0  0  0  0  0  0  0
    2.0173    3.4043    1.3790 C   0  0  0  0  0  0  0  0  0  0  0  0
    2.8034    4.5940   -0.2012 C   0  0  0  0  0  0  0  0  0  0  0  0
    2.4277    4.6735    1.0559 N   0  0  0  0  0  0  0  0  0  0  0  0
   -1.3903    1.6325   -0.5973 H   0  0  0  0  0  0  0  0  0  0  0  0
    0.6166    1.3359   -1.6578 H   0  0  0  0  0  0  0  0  0  0  0  0
    2.7016    0.5852   -0.3406 H   0  0  0  0  0  0  0  0  0  0  0  0
    1.7584    0.6296    1.1268 H   0  0  0  0  0  0  0  0  0  0  0  0
    2.8728    3.0268   -1.6372 H   0  0  0  0  0  0  0  0  0  0  0  0
    1.6498    3.1704    2.3680 H   0  0  0  0  0  0  0  0  0  0  0  0
    3.1903    5.4042   -0.8028 H   0  0  0  0  0  0  0  0  0  0  0  0
    0.7271   -1.0540   -2.1809 N   0  0  0  0  0  0  0  0  0  0  0  0
    0.6102   -2.4141   -2.6556 C   0  0  2  0  0  0  0  0  0  0  0  0
    1.2609   -3.3290   -1.6265 C   0  0  0  0  0  0  0  0  0  0  0  0
    2.1052   -2.9402   -0.8221 O   0  0  0  0  0  0  0  0  0  0  0  0
    1.2604   -2.5817   -4.0202 C   0  0  0  0  0  0  0  0  0  0  0  0
    1.0934   -0.3512   -2.8162 H   0  0  0  0  0  0  0  0  0  0  0  0
   -0.4606   -2.6365   -2.7176 H   0  0  0  0  0  0  0  0  0  0  0  0
    2.3336   -2.3631   -3.9779 H   0  0  0  0  0  0  0  0  0  0  0  0
    1.1460   -3.6056   -4.3911 H   0  0  0  0  0  0  0  0  0  0  0  0
    0.8112   -1.9016   -4.7520 H   0  0  0  0  0  0  0  0  0  0  0  0
    0.8197   -4.6399   -1.7406 N   0  0  0  0  0  0  0  0  0  0  0  0
    1.2983   -5.7008   -0.8854 C   0  0  0  0  0  0  0  0  0  0  0  0
    0.1036   -4.8684   -2.4238 H   0  0  0  0  0  0  0  0  0  0  0  0
    2.1553   -6.1987   -1.3625 H   0  0  0  0  0  0  0  0  0  0  0  0
    1.6108   -5.2794    0.0814 H   0  0  0  0  0  0  0  0  0  0  0  0
    0.4930   -6.4324   -0.7234 H   0  0  0  0  0  0  0  0  0  0  0  0
 22 24  2  0  0  0  0
 24 26  1  0  0  0  0
 25 26  2  0  0  0  0
 23 25  1  0  0  0  0
 21 22  1  0  0  0  0
 22 23  1  0  0  0  0
  1  3  1  0  0  0  0
  1  7  1  0  0  0  0
  1  2  2  0  0  0  0
 35 36  1  0  0  0  0
 36 44  1  0  0  0  0
 36 37  2  0  0  0  0
  8  9  1  0  0  0  0
  9 17  1  0  0  0  0
  9 10  2  0  0  0  0
 18 19  1  0  0  0  0
 19 34  1  0  0  0  0
 19 20  2  0  0  0  0
 35 38  1  0  0  0  0
  8 11  1  0  0  0  0
 44 45  1  0  0  0  0
 18 21  1  0  0  0  0
 34 35  1  0  0  0  0
  7  8  1  0  0  0  0
 17 18  1  0  0  0  0
 24 32  1  0  0  0  0
 25 33  1  0  0  0  0
  3  4  1  0  0  0  0
  3  5  1  0  0  0  0
  3  6  1  0  0  0  0
 38 41  1  0  0  0  0
 38 42  1  0  0  0  0
 38 43  1  0  0  0  0
 11 14  1  0  0  0  0
 11 15  1  0  0  0  0
 11 16  1  0  0  0  0
 45 47  1  0  0  0  0
 45 48  1  0  0  0  0
 45 49  1  0  0  0  0
 21 29  1  0  0  0  0
 21 30  1  0  0  0  0
 35 40  1  0  0  0  0
  8 13  1  0  0  0  0
 18 28  1  0  0  0  0
 23 31  1  0  0  0  0
 44 46  1  0  0  0  0
  7 12  1  0  0  0  0
 34 39  1  0  0  0  0
 17 27  1  0  0  0  0
M  END
$$$$

  -OEChem-05262214473D

 49 49  0     1  0  0  0  0  0999 V2000
   -1.5619    0.5658    3.7981 C   0  0  0  0  0  0  0  0  0  0  0  0
   -0.6145   -0.0489    3.3224 O   0  0  0  0  0  0  0  0  0  0  0  0
   -1.9938    0.2834    5.1988 C   0  0  0  0  0  0  0  0  0  0  0  0
   -2.7535   -0.5129    5.2522 H   0  0  0  0  0  0  0  0  0  0  0  0
   -1.1626   -0.0642    5.8331 H   0  0  0  0  0  0  0  0  0  0  0  0
   -2.4318    1.1383    5.7384 H   0  0  0  0  0  0  0  0  0  0  0  0
   -2.3116    1.5383    3.1570 N   0  0  0  0  0  0  0  0  0  0  0  0
   -2.0648    1.9643    1.8046 C   0  0  2  0  0  0  0  0  0  0  0  0
   -0.7298    1.3789    1.3634 C   0  0  0  0  0  0  0  0  0  0  0  0
    0.1423    1.0262    2.1547 O   0  0  0  0  0  0  0  0  0  0  0  0
   -2.0560    3.4811    1.6952 C   0  0  0  0  0  0  0  0  0  0  0  0
   -3.0767    1.9741    3.6688 H   0  0  0  0  0  0  0  0  0  0  0  0
   -2.8689    1.5458    1.1895 H   0  0  0  0  0  0  0  0  0  0  0  0
   -1.2569    3.9183    2.3049 H   0  0  0  0  0  0  0  0  0  0  0  0
   -1.8965    3.8033    0.6609 H   0  0  0  0  0  0  0  0  0  0  0  0
   -3.0062    3.9023    2.0409 H   0  0  0  0  0  0  0  0  0  0  0  0
   -0.6071    1.3358   -0.0200 N   0  0  0  0  0  0  0  0  0  0  0  0
    0.5702    0.8350   -0.6836 C   0  0  2  0  0  0  0  0  0  0  0  0
    0.3641   -0.6599   -0.9005 C   0  0  0  0  0  0  0  0  0  0  0  0
   -0.3427   -1.3508   -0.1699 O   0  0  0  0  0  0  0  0  0  0  0  0
    1.8445    1.0846    0.1312 C   0  0  0  0  0  0  0  0  0  0  0  0
    2.1465    2.5528    0.3072 C   0  0  0  0  0  0  0  0  0  0  0  0
    2.6508    3.3293   -0.6978 N   0  0  0  0  0  0  0  0  0  0  0  0
    2.0173    3.4043    1.3790 C   0  0  0  0  0  0  0  0  0  0  0  0
    2.8034    4.5940   -0.2012 C   0  0  0  0  0  0  0  0  0  0  0  0
    2.4277    4.6735    1.0559 N   0  0  0  0  0  0  0  0  0  0  0  0
   -1.3903    1.6325   -0.5973 H   0  0  0  0  0  0  0  0  0  0  0  0
    0.6166    1.3359   -1.6578 H   0  0  0  0  0  0  0  0  0  0  0  0
    2.7016    0.5852   -0.3406 H   0  0  0  0  0  0  0  0  0  0  0  0
    1.7584    0.6296    1.1268 H   0  0  0  0  0  0  0  0  0  0  0  0
    2.8728    3.0268   -1.6372 H   0  0  0  0  0  0  0  0  0  0  0  0
    1.6498    3.1704    2.3680 H   0  0  0  0  0  0  0  0  0  0  0  0
    3.1903    5.4042   -0.8028 H   0  0  0  0  0  0  0  0  0  0  0  0
    1.0228   -1.1161   -2.0339 N   0  0  0  0  0  0  0  0  0  0  0  0
    0.9737   -2.4895   -2.4814 C   0  0  2  0  0  0  0  0  0  0  0  0
    1.3044   -3.3833   -1.2934 C   0  0  0  0  0  0  0  0  0  0  0  0
    1.9328   -2.9904   -0.3128 O   0  0  0  0  0  0  0  0  0  0  0  0
    1.9406   -2.7321   -3.6299 C   0  0  0  0  0  0  0  0  0  0  0  0
    1.5667   -0.4513   -2.5761 H   0  0  0  0  0  0  0  0  0  0  0  0
   -0.0548   -2.6794   -2.8070 H   0  0  0  0  0  0  0  0  0  0  0  0
    2.9763   -2.5467   -3.3226 H   0  0  0  0  0  0  0  0  0  0  0  0
    1.8816   -3.7656   -3.9866 H   0  0  0  0  0  0  0  0  0  0  0  0
    1.7199   -2.0675   -4.4722 H   0  0  0  0  0  0  0  0  0  0  0  0
    0.8526   -4.6828   -1.4764 N   0  0  0  0  0  0  0  0  0  0  0  0
    1.0548   -5.7238   -0.4959 C   0  0  0  0  0  0  0  0  0  0  0  0
    0.3239   -4.9150   -2.3120 H   0  0  0  0  0  0  0  0  0  0  0  0
    1.9834   -6.2676   -0.7239 H   0  0  0  0  0  0  0  0  0  0  0  0
    1.1296   -5.2746    0.5055 H   0  0  0  0  0  0  0  0  0  0  0  0
    0.2052   -6.4220   -0.5220 H   0  0  0  0  0  0  0  0  0  0  0  0
 22 24  2  0  0  0  0
 24 26  1  0  0  0  0
 25 26  2  0  0  0  0
 23 25  1  0  0  0  0
 21 22  1  0  0  0  0
 22 23  1  0  0  0  0
  1  3  1  0  0  0  0
  1  7  1  0  0  0  0
  1  2  2  0  0  0  0
 35 36  1  0  0  0  0
 36 44  1  0  0  0  0
 36 37  2  0  0  0  0
  8  9  1  0  0  0  0
  9 17  1  0  0  0  0
  9 10  2  0  0  0  0
 18 19  1  0  0  0  0
 19 34  1  0  0  0  0
 19 20  2  0  0  0  0
 35 38  1  0  0  0  0
  8 11  1  0  0  0  0
 44 45  1  0  0  0  0
 18 21  1  0  0  0  0
 34 35  1  0  0  0  0
  7  8  1  0  0  0  0
 17 18  1  0  0  0  0
 24 32  1  0  0  0  0
 25 33  1  0  0  0  0
  3  4  1  0  0  0  0
  3  5  1  0  0  0  0
  3  6  1  0  0  0  0
 38 41  1  0  0  0  0
 38 42  1  0  0  0  0
 38 43  1  0  0  0  0
 11 14  1  0  0  0  0
 11 15  1  0  0  0  0
 11 16  1  0  0  0  0
 45 47  1  0  0  0  0
 45 48  1  0  0  0  0
 45 49  1  0  0  0  0
 21 29  1  0  0  0  0
 21 30  1  0  0  0  0
 35 40  1  0  0  0  0
  8 13  1  0  0  0  0
 18 28  1  0  0  0  0
 23 31  1  0  0  0  0
 44 46  1  0  0  0  0
  7 12  1  0  0  0  0
 34 39  1  0  0  0  0
 17 27  1  0  0  0  0
M  END
$$$$

  -OEChem-05262214473D

 49 49  0     1  0  0  0  0  0999 V2000
   -1.5619    0.5658    3.7981 C   0  0  0  0  0  0  0  0  0  0  0  0
   -0.6145   -0.0489    3.3224 O   0  0  0  0  0  0  0  0  0  0  0  0
   -1.9938    0.2834    5.1988 C   0  0  0  0  0  0  0  0  0  0  0  0
   -2.7535   -0.5129    5.2522 H   0  0  0  0  0  0  0  0  0  0  0  0
   -1.1626   -0.0642    5.8331 H   0  0  0  0  0  0  0  0  0  0  0  0
   -2.4318    1.1383    5.7384 H   0  0  0  0  0  0  0  0  0  0  0  0
   -2.3116    1.5383    3.1570 N   0  0  0  0  0  0  0  0  0  0  0  0
   -2.0648    1.9643    1.8046 C   0  0  2  0  0  0  0  0  0  0  0  0
   -0.7298    1.3789    1.3634 C   0  0  0  0  0  0  0  0  0  0  0  0
    0.1423    1.0262    2.1547 O   0  0  0  0  0  0  0  0  0  0  0  0
   -2.0560    3.4811    1.6952 C   0  0  0  0  0  0  0  0  0  0  0  0
   -3.0767    1.9741    3.6688 H   0  0  0  0  0  0  0  0  0  0  0  0
   -2.8689    1.5458    1.1895 H   0  0  0  0  0  0  0  0  0  0  0  0
   -1.2569    3.9183    2.3049 H   0  0  0  0  0  0  0  0  0  0  0  0
   -1.8965    3.8033    0.6609 H   0  0  0  0  0  0  0  0  0  0  0  0
   -3.0062    3.9023    2.0409 H   0  0  0  0  0  0  0  0  0  0  0  0
   -0.6071    1.3358   -0.0200 N   0  0  0  0  0  0  0  0  0  0  0  0
    0.5702    0.8350   -0.6836 C   0  0  2  0  0  0  0  0  0  0  0  0
    0.3641   -0.6599   -0.9005 C   0  0  0  0  0  0  0  0  0  0  0  0
   -0.5325   -1.2981   -0.3532 O   0  0  0  0  0  0  0  0  0  0  0  0
    1.8445    1.0846    0.1312 C   0  0  0  0  0  0  0  0  0  0  0  0
    2.1465    2.5528    0.3072 C   0  0  0  0  0  0  0  0  0  0  0  0
    2.6508    3.3293   -0.6978 N   0  0  0  0  0  0  0  0  0  0  0  0
    2.0173    3.4043    1.3790 C   0  0  0  0  0  0  0  0  0  0  0  0
    2.8034    4.5940   -0.2012 C   0  0  0  0  0  0  0  0  0  0  0  0
    2.4277    4.6735    1.0559 N   0  0  0  0  0  0  0  0  0  0  0  0
   -1.3903    1.6325   -0.5973 H   0  0  0  0  0  0  0  0  0  0  0  0
    0.6166    1.3359   -1.6578 H   0  0  0  0  0  0  0  0  0  0  0  0
    2.7016    0.5852   -0.3406 H   0  0  0  0  0  0  0  0  0  0  0  0
    1.7584    0.6296    1.1268 H   0  0  0  0  0  0  0  0  0  0  0  0
    2.8728    3.0268   -1.6372 H   0  0  0  0  0  0  0  0  0  0  0  0
    1.6498    3.1704    2.3680 H   0  0  0  0  0  0  0  0  0  0  0  0
    3.1903    5.4042   -0.8028 H   0  0  0  0  0  0  0  0  0  0  0  0
    1.2688   -1.1818   -1.8147 N   0  0  0  0  0  0  0  0  0  0  0  0
    1.2779   -2.5696   -2.2182 C   0  0  2  0  0  0  0  0  0  0  0  0
    1.2598   -3.4257   -0.9588 C   0  0  0  0  0  0  0  0  0  0  0  0
    1.6352   -3.0146    0.1372 O   0  0  0  0  0  0  0  0  0  0  0  0
    2.4931   -2.8887   -3.0750 C   0  0  0  0  0  0  0  0  0  0  0  0
    1.9592   -0.5570   -2.2204 H   0  0  0  0  0  0  0  0  0  0  0  0
    0.3583   -2.7390   -2.7889 H   0  0  0  0  0  0  0  0  0  0  0  0
    3.4240   -2.7249   -2.5200 H   0  0  0  0  0  0  0  0  0  0  0  0
    2.4837   -3.9332   -3.4036 H   0  0  0  0  0  0  0  0  0  0  0  0
    2.5204   -2.2514   -3.9654 H   0  0  0  0  0  0  0  0  0  0  0  0
    0.8157   -4.7161   -1.2113 N   0  0  0  0  0  0  0  0  0  0  0  0
    0.7199   -5.7233   -0.1806 C   0  0  0  0  0  0  0  0  0  0  0  0
    0.5067   -4.9642   -2.1465 H   0  0  0  0  0  0  0  0  0  0  0  0
    1.6527   -6.3055   -0.1483 H   0  0  0  0  0  0  0  0  0  0  0  0
    0.5573   -5.2374    0.7928 H   0  0  0  0  0  0  0  0  0  0  0  0
   -0.1235   -6.3943   -0.4009 H   0  0  0  0  0  0  0  0  0  0  0  0
 22 24  2  0  0  0  0
 24 26  1  0  0  0  0
 25 26  2  0  0  0  0
 23 25  1  0  0  0  0
 21 22  1  0  0  0  0
 22 23  1  0  0  0  0
  1  3  1  0  0  0  0
  1  7  1  0  0  0  0
  1  2  2  0  0  0  0
 35 36  1  0  0  0  0
 36 44  1  0  0  0  0
 36 37  2  0  0  0  0
  8  9  1  0  0  0  0
  9 17  1  0  0  0  0
  9 10  2  0  0  0  0
 18 19  1  0  0  0  0
 19 34  1  0  0  0  0
 19 20  2  0  0  0  0
 35 38  1  0  0  0  0
  8 11  1  0  0  0  0
 44 45  1  0  0  0  0
 18 21  1  0  0  0  0
 34 35  1  0  0  0  0
  7  8  1  0  0  0  0
 17 18  1  0  0  0  0
 24 32  1  0  0  0  0
 25 33  1  0  0  0  0
  3  4  1  0  0  0  0
  3  5  1  0  0  0  0
  3  6  1  0  0  0  0
 38 41  1  0  0  0  0
 38 42  1  0  0  0  0
 38 43  1  0  0  0  0
 11 14  1  0  0  0  0
 11 15  1  0  0  0  0
 11 16  1  0  0  0  0
 45 47  1  0  0  0  0
 45 48  1  0  0  0  0
 45 49  1  0  0  0  0
 21 29  1  0  0  0  0
 21 30  1  0  0  0  0
 35 40  1  0  0  0  0
  8 13  1  0  0  0  0
 18 28  1  0  0  0  0
 23 31  1  0  0  0  0
 44 46  1  0  0  0  0
  7 12  1  0  0  0  0
 34 39  1  0  0  0  0
 17 27  1  0  0  0  0
M  END
$$$$

  -OEChem-05262214473D

 49 49  0     1  0  0  0  0  0999 V2000
   -1.5619    0.5658    3.7981 C   0  0  0  0  0  0  0  0  0  0  0  0
   -0.6145   -0.0489    3.3224 O   0  0  0  0  0  0  0  0  0  0  0  0
   -1.9938    0.2834    5.1988 C   0  0  0  0  0  0  0  0  0  0  0  0
   -2.7535   -0.5129    5.2522 H   0  0  0  0  0  0  0  0  0  0  0  0
   -1.1626   -0.0642    5.8331 H   0  0  0  0  0  0  0  0  0  0  0  0
   -2.4318    1.1383    5.7384 H   0  0  0  0  0  0  0  0  0  0  0  0
   -2.3116    1.5383    3.1570 N   0  0  0  0  0  0  0  0  0  0  0  0
   -2.0648    1.9643    1.8046 C   0  0  2  0  0  0  0  0  0  0  0  0
   -0.7298    1.3789    1.3634 C   0  0  0  0  0  0  0  0  0  0  0  0
    0.1423    1.0262    2.1547 O   0  0  0  0  0  0  0  0  0  0  0  0
   -2.0560    3.4811    1.6952 C   0  0  0  0  0  0  0  0  0  0  0  0
   -3.0767    1.9741    3.6688 H   0  0  0  0  0  0  0  0  0  0  0  0
   -2.8689    1.5458    1.1895 H   0  0  0  0  0  0  0  0  0  0  0  0
   -1.2569    3.9183    2.3049 H   0  0  0  0  0  0  0  0  0  0  0  0
   -1.8965    3.8033    0.6609 H   0  0  0  0  0  0  0  0  0  0  0  0
   -3.0062    3.9023    2.0409 H   0  0  0  0  0  0  0  0  0  0  0  0
   -0.6071    1.3358   -0.0200 N   0  0  0  0  0  0  0  0  0  0  0  0
    0.5702    0.8350   -0.6836 C   0  0  2  0  0  0  0  0  0  0  0  0
    0.2250   -0.5439   -1.2348 C   0  0  0  0  0  0  0  0  0  0  0  0
   -0.8920   -1.0460   -1.1300 O   0  0  0  0  0  0  0  0  0  0  0  0
    1.7737    0.7451    0.2617 C   0  0  0  0  0  0  0  0  0  0  0  0
    2.2149    2.0942    0.7746 C   0  0  0  0  0  0  0  0  0  0  0  0
    2.9018    2.9894    0.0040 N   0  0  0  0  0  0  0  0  0  0  0  0
    2.0703    2.7160    1.9924 C   0  0  0  0  0  0  0  0  0  0  0  0
    3.1402    4.0943    0.7732 C   0  0  0  0  0  0  0  0  0  0  0  0
    2.6482    3.9609    1.9849 N   0  0  0  0  0  0  0  0  0  0  0  0
   -1.3903    1.6325   -0.5973 H   0  0  0  0  0  0  0  0  0  0  0  0
    0.7710    1.5156   -1.5194 H   0  0  0  0  0  0  0  0  0  0  0  0
    2.6148    0.2474   -0.2396 H   0  0  0  0  0  0  0  0  0  0  0  0
    1.5364    0.1098    1.1253 H   0  0  0  0  0  0  0  0  0  0  0  0
    3.1846    2.8608   -0.9587 H   0  0  0  0  0  0  0  0  0  0  0  0
    1.5798    2.3328    2.8758 H   0  0  0  0  0  0  0  0  0  0  0  0
    3.6732    4.9543    0.3933 H   0  0  0  0  0  0  0  0  0  0  0  0
    1.2982   -1.1215   -1.8990 N   0  0  0  0  0  0  0  0  0  0  0  0
    1.2332   -2.4174   -2.5355 C   0  0  2  0  0  0  0  0  0  0  0  0
    0.6503   -3.4049   -1.5332 C   0  0  0  0  0  0  0  0  0  0  0  0
    0.6826   -3.2247   -0.3176 O   0  0  0  0  0  0  0  0  0  0  0  0
    2.6052   -2.8704   -3.0099 C   0  0  0  0  0  0  0  0  0  0  0  0
    2.1734   -0.6075   -1.9397 H   0  0  0  0  0  0  0  0  0  0  0  0
    0.5528   -2.3171   -3.3881 H   0  0  0  0  0  0  0  0  0  0  0  0
    3.3007   -2.9764   -2.1693 H   0  0  0  0  0  0  0  0  0  0  0  0
    2.5497   -3.8392   -3.5172 H   0  0  0  0  0  0  0  0  0  0  0  0
    3.0356   -2.1441   -3.7078 H   0  0  0  0  0  0  0  0  0  0  0  0
    0.1285   -4.5314   -2.1535 N   0  0  0  0  0  0  0  0  0  0  0  0
   -0.4705   -5.6200   -1.4171 C   0  0  0  0  0  0  0  0  0  0  0  0
    0.1272   -4.5879   -3.1677 H   0  0  0  0  0  0  0  0  0  0  0  0
    0.2927   -6.3829   -1.2040 H   0  0  0  0  0  0  0  0  0  0  0  0
   -0.8826   -5.2394   -0.4709 H   0  0  0  0  0  0  0  0  0  0  0  0
   -1.2782   -6.0667   -2.0155 H   0  0  0  0  0  0  0  0  0  0  0  0
 22 24  2  0  0  0  0
 24 26  1  0  0  0  0
 25 26  2  0  0  0  0
 23 25  1  0  0  0  0
 21 22  1  0  0  0  0
 22 23  1  0  0  0  0
  1  3  1  0  0  0  0
  1  7  1  0  0  0  0
  1  2  2  0  0  0  0
 35 36  1  0  0  0  0
 36 44  1  0  0  0  0
 36 37  2  0  0  0  0
  8  9  1  0  0  0  0
  9 17  1  0  0  0  0
  9 10  2  0  0  0  0
 18 19  1  0  0  0  0
 19 34  1  0  0  0  0
 19 20  2  0  0  0  0
 35 38  1  0  0  0  0
  8 11  1  0  0  0  0
 44 45  1  0  0  0  0
 18 21  1  0  0  0  0
 34 35  1  0  0  0  0
  7  8  1  0  0  0  0
 17 18  1  0  0  0  0
 24 32  1  0  0  0  0
 25 33  1  0  0  0  0
  3  4  1  0  0  0  0
  3  5  1  0  0  0  0
  3  6  1  0  0  0  0
 38 41  1  0  0  0  0
 38 42  1  0  0  0  0
 38 43  1  0  0  0  0
 11 14  1  0  0  0  0
 11 15  1  0  0  0  0
 11 16  1  0  0  0  0
 45 47  1  0  0  0  0
 45 48  1  0  0  0  0
 45 49  1  0  0  0  0
 21 29  1  0  0  0  0
 21 30  1  0  0  0  0
 35 40  1  0  0  0  0
  8 13  1  0  0  0  0
 18 28  1  0  0  0  0
 23 31  1  0  0  0  0
 44 46  1  0  0  0  0
  7 12  1  0  0  0  0
 34 39  1  0  0  0  0
 17 27  1  0  0  0  0
M  END
$$$$

  -OEChem-05262214473D

 49 49  0     1  0  0  0  0  0999 V2000
   -1.5619    0.5658    3.7981 C   0  0  0  0  0  0  0  0  0  0  0  0
   -0.6145   -0.0489    3.3224 O   0  0  0  0  0  0  0  0  0  0  0  0
   -1.9938    0.2834    5.1988 C   0  0  0  0  0  0  0  0  0  0  0  0
   -2.7535   -0.5129    5.2522 H   0  0  0  0  0  0  0  0  0  0  0  0
   -1.1626   -0.0642    5.8331 H   0  0  0  0  0  0  0  0  0  0  0  0
   -2.4318    1.1383    5.7384 H   0  0  0  0  0  0  0  0  0  0  0  0
   -2.3116    1.5383    3.1570 N   0  0  0  0  0  0  0  0  0  0  0  0
   -2.0648    1.9643    1.8046 C   0  0  2  0  0  0  0  0  0  0  0  0
   -0.7298    1.3789    1.3634 C   0  0  0  0  0  0  0  0  0  0  0  0
    0.1423    1.0262    2.1547 O   0  0  0  0  0  0  0  0  0  0  0  0
   -2.0560    3.4811    1.6952 C   0  0  0  0  0  0  0  0  0  0  0  0
   -3.0767    1.9741    3.6688 H   0  0  0  0  0  0  0  0  0  0  0  0
   -2.8689    1.5458    1.1895 H   0  0  0  0  0  0  0  0  0  0  0  0
   -1.2569    3.9183    2.3049 H   0  0  0  0  0  0  0  0  0  0  0  0
   -1.8965    3.8033    0.6609 H   0  0  0  0  0  0  0  0  0  0  0  0
   -3.0062    3.9023    2.0409 H   0  0  0  0  0  0  0  0  0  0  0  0
   -0.6071    1.3358   -0.0200 N   0  0  0  0  0  0  0  0  0  0  0  0
    0.5702    0.8350   -0.6836 C   0  0  2  0  0  0  0  0  0  0  0  0
    0.2250   -0.5439   -1.2348 C   0  0  0  0  0  0  0  0  0  0  0  0
   -0.9306   -0.9388   -1.3739 O   0  0  0  0  0  0  0  0  0  0  0  0
    1.7737    0.7451    0.2617 C   0  0  0  0  0  0  0  0  0  0  0  0
    2.2149    2.0942    0.7746 C   0  0  0  0  0  0  0  0  0  0  0  0
    2.9018    2.9894    0.0040 N   0  0  0  0  0  0  0  0  0  0  0  0
    2.0703    2.7160    1.9924 C   0  0  0  0  0  0  0  0  0  0  0  0
    3.1402    4.0943    0.7732 C   0  0  0  0  0  0  0  0  0  0  0  0
    2.6482    3.9609    1.9849 N   0  0  0  0  0  0  0  0  0  0  0  0
   -1.3903    1.6325   -0.5973 H   0  0  0  0  0  0  0  0  0  0  0  0
    0.7710    1.5156   -1.5194 H   0  0  0  0  0  0  0  0  0  0  0  0
    2.6148    0.2474   -0.2396 H   0  0  0  0  0  0  0  0  0  0  0  0
    1.5364    0.1098    1.1253 H   0  0  0  0  0  0  0  0  0  0  0  0
    3.1846    2.8608   -0.9587 H   0  0  0  0  0  0  0  0  0  0  0  0
    1.5798    2.3328    2.8758 H   0  0  0  0  0  0  0  0  0  0  0  0
    3.6732    4.9543    0.3933 H   0  0  0  0  0  0  0  0  0  0  0  0
    1.3591   -1.2571   -1.5977 N   0  0  0  0  0  0  0  0  0  0  0  0
    1.3130   -2.5838   -2.1692 C   0  0  2  0  0  0  0  0  0  0  0  0
    0.4179   -3.4448   -1.2878 C   0  0  0  0  0  0  0  0  0  0  0  0
    0.1861   -3.1838   -0.1092 O   0  0  0  0  0  0  0  0  0  0  0  0
    2.7049   -3.1858   -2.2831 C   0  0  0  0  0  0  0  0  0  0  0  0
    2.2671   -0.8250   -1.4543 H   0  0  0  0  0  0  0  0  0  0  0  0
    0.8620   -2.4847   -3.1626 H   0  0  0  0  0  0  0  0  0  0  0  0
    3.1728   -3.2928   -1.2977 H   0  0  0  0  0  0  0  0  0  0  0  0
    2.6712   -4.1792   -2.7425 H   0  0  0  0  0  0  0  0  0  0  0  0
    3.3559   -2.5500   -2.8928 H   0  0  0  0  0  0  0  0  0  0  0  0
   -0.0568   -4.5624   -1.9600 N   0  0  0  0  0  0  0  0  0  0  0  0
   -0.9162   -5.5410   -1.3356 C   0  0  0  0  0  0  0  0  0  0  0  0
    0.1708   -4.6891   -2.9417 H   0  0  0  0  0  0  0  0  0  0  0  0
   -0.3037   -6.3504   -0.9118 H   0  0  0  0  0  0  0  0  0  0  0  0
   -1.4956   -5.0611   -0.5331 H   0  0  0  0  0  0  0  0  0  0  0  0
   -1.6043   -5.9567   -2.0864 H   0  0  0  0  0  0  0  0  0  0  0  0
 22 24  2  0  0  0  0
 24 26  1  0  0  0  0
 25 26  2  0  0  0  0
 23 25  1  0  0  0  0
 21 22  1  0  0  0  0
 22 23  1  0  0  0  0
  1  3  1  0  0  0  0
  1  7  1  0  0  0  0
  1  2  2  0  0  0  0
 35 36  1  0  0  0  0
 36 44  1  0  0  0  0
 36 37  2  0  0  0  0
  8  9  1  0  0  0  0
  9 17  1  0  0  0  0
  9 10  2  0  0  0  0
 18 19  1  0  0  0  0
 19 34  1  0  0  0  0
 19 20  2  0  0  0  0
 35 38  1  0  0  0  0
  8 11  1  0  0  0  0
 44 45  1  0  0  0  0
 18 21  1  0  0  0  0
 34 35  1  0  0  0  0
  7  8  1  0  0  0  0
 17 18  1  0  0  0  0
 24 32  1  0  0  0  0
 25 33  1  0  0  0  0
  3  4  1  0  0  0  0
  3  5  1  0  0  0  0
  3  6  1  0  0  0  0
 38 41  1  0  0  0  0
 38 42  1  0  0  0  0
 38 43  1  0  0  0  0
 11 14  1  0  0  0  0
 11 15  1  0  0  0  0
 11 16  1  0  0  0  0
 45 47  1  0  0  0  0
 45 48  1  0  0  0  0
 45 49  1  0  0  0  0
 21 29  1  0  0  0  0
 21 30  1  0  0  0  0
 35 40  1  0  0  0  0
  8 13  1  0  0  0  0
 18 28  1  0  0  0  0
 23 31  1  0  0  0  0
 44 46  1  0  0  0  0
  7 12  1  0  0  0  0
 34 39  1  0  0  0  0
 17 27  1  0  0  0  0
M  END
$$$$

  -OEChem-05262214473D

 49 49  0     1  0  0  0  0  0999 V2000
   -1.5619    0.5658    3.7981 C   0  0  0  0  0  0  0  0  0  0  0  0
   -0.6145   -0.0489    3.3224 O   0  0  0  0  0  0  0  0  0  0  0  0
   -1.9938    0.2834    5.1988 C   0  0  0  0  0  0  0  0  0  0  0  0
   -2.7535   -0.5129    5.2522 H   0  0  0  0  0  0  0  0  0  0  0  0
   -1.1626   -0.0642    5.8331 H   0  0  0  0  0  0  0  0  0  0  0  0
   -2.4318    1.1383    5.7384 H   0  0  0  0  0  0  0  0  0  0  0  0
   -2.3116    1.5383    3.1570 N   0  0  0  0  0  0  0  0  0  0  0  0
   -2.0648    1.9643    1.8046 C   0  0  2  0  0  0  0  0  0  0  0  0
   -0.7298    1.3789    1.3634 C   0  0  0  0  0  0  0  0  0  0  0  0
    0.1423    1.0262    2.1547 O   0  0  0  0  0  0  0  0  0  0  0  0
   -2.0560    3.4811    1.6952 C   0  0  0  0  0  0  0  0  0  0  0  0
   -3.0767    1.9741    3.6688 H   0  0  0  0  0  0  0  0  0  0  0  0
   -2.8689    1.5458    1.1895 H   0  0  0  0  0  0  0  0  0  0  0  0
   -1.2569    3.9183    2.3049 H   0  0  0  0  0  0  0  0  0  0  0  0
   -1.8965    3.8033    0.6609 H   0  0  0  0  0  0  0  0  0  0  0  0
   -3.0062    3.9023    2.0409 H   0  0  0  0  0  0  0  0  0  0  0  0
   -0.6071    1.3358   -0.0200 N   0  0  0  0  0  0  0  0  0  0  0  0
    0.5702    0.8350   -0.6836 C   0  0  2  0  0  0  0  0  0  0  0  0
    0.2250   -0.5439   -1.2348 C   0  0  0  0  0  0  0  0  0  0  0  0
   -0.9008   -0.8460   -1.6248 O   0  0  0  0  0  0  0  0  0  0  0  0
    1.7737    0.7451    0.2617 C   0  0  0  0  0  0  0  0  0  0  0  0
    2.2149    2.0942    0.7746 C   0  0  0  0  0  0  0  0  0  0  0  0
    2.9018    2.9894    0.0040 N   0  0  0  0  0  0  0  0  0  0  0  0
    2.0703    2.7160    1.9924 C   0  0  0  0  0  0  0  0  0  0  0  0
    3.1402    4.0943    0.7732 C   0  0  0  0  0  0  0  0  0  0  0  0
    2.6482    3.9609    1.9849 N   0  0  0  0  0  0  0  0  0  0  0  0
   -1.3903    1.6325   -0.5973 H   0  0  0  0  0  0  0  0  0  0  0  0
    0.7710    1.5156   -1.5194 H   0  0  0  0  0  0  0  0  0  0  0  0
    2.6148    0.2474   -0.2396 H   0  0  0  0  0  0  0  0  0  0  0  0
    1.5364    0.1098    1.1253 H   0  0  0  0  0  0  0  0  0  0  0  0
    3.1846    2.8608   -0.9587 H   0  0  0  0  0  0  0  0  0  0  0  0
    1.5798    2.3328    2.8758 H   0  0  0  0  0  0  0  0  0  0  0  0
    3.6732    4.9543    0.3933 H   0  0  0  0  0  0  0  0  0  0  0  0
    1.3346   -1.3762   -1.2844 N   0  0  0  0  0  0  0  0  0  0  0  0
    1.2889   -2.7305   -1.7870 C   0  0  2  0  0  0  0  0  0  0  0  0
    0.1323   -3.4472   -1.1029 C   0  0  0  0  0  0  0  0  0  0  0  0
   -0.3384   -3.0855   -0.0265 O   0  0  0  0  0  0  0  0  0  0  0  0
    2.6016   -3.4573   -1.5392 C   0  0  0  0  0  0  0  0  0  0  0  0
    2.2236   -1.0154   -0.9507 H   0  0  0  0  0  0  0  0  0  0  0  0
    1.0921   -2.6622   -2.8625 H   0  0  0  0  0  0  0  0  0  0  0  0
    2.8157   -3.5354   -0.4671 H   0  0  0  0  0  0  0  0  0  0  0  0
    2.5753   -4.4736   -1.9459 H   0  0  0  0  0  0  0  0  0  0  0  0
    3.4365   -2.9243   -2.0069 H   0  0  0  0  0  0  0  0  0  0  0  0
   -0.2840   -4.5636   -1.8146 N   0  0  0  0  0  0  0  0  0  0  0  0
   -1.3584   -5.4182   -1.3659 C   0  0  0  0  0  0  0  0  0  0  0  0
    0.1506   -4.7778   -2.7073 H   0  0  0  0  0  0  0  0  0  0  0  0
   -0.9451   -6.2461   -0.7711 H   0  0  0  0  0  0  0  0  0  0  0  0
   -2.0565   -4.8352   -0.7471 H   0  0  0  0  0  0  0  0  0  0  0  0
   -1.8924   -5.8241   -2.2377 H   0  0  0  0  0  0  0  0  0  0  0  0
 22 24  2  0  0  0  0
 24 26  1  0  0  0  0
 25 26  2  0  0  0  0
 23 25  1  0  0  0  0
 21 22  1  0  0  0  0
 22 23  1  0  0  0  0
  1  3  1  0  0  0  0
  1  7  1  0  0  0  0
  1  2  2  0  0  0  0
 35 36  1  0  0  0  0
 36 44  1  0  0  0  0
 36 37  2  0  0  0  0
  8  9  1  0  0  0  0
  9 17  1  0  0  0  0
  9 10  2  0  0  0  0
 18 19  1  0  0  0  0
 19 34  1  0  0  0  0
 19 20  2  0  0  0  0
 35 38  1  0  0  0  0
  8 11  1  0  0  0  0
 44 45  1  0  0  0  0
 18 21  1  0  0  0  0
 34 35  1  0  0  0  0
  7  8  1  0  0  0  0
 17 18  1  0  0  0  0
 24 32  1  0  0  0  0
 25 33  1  0  0  0  0
  3  4  1  0  0  0  0
  3  5  1  0  0  0  0
  3  6  1  0  0  0  0
 38 41  1  0  0  0  0
 38 42  1  0  0  0  0
 38 43  1  0  0  0  0
 11 14  1  0  0  0  0
 11 15  1  0  0  0  0
 11 16  1  0  0  0  0
 45 47  1  0  0  0  0
 45 48  1  0  0  0  0
 45 49  1  0  0  0  0
 21 29  1  0  0  0  0
 21 30  1  0  0  0  0
 35 40  1  0  0  0  0
  8 13  1  0  0  0  0
 18 28  1  0  0  0  0
 23 31  1  0  0  0  0
 44 46  1  0  0  0  0
  7 12  1  0  0  0  0
 34 39  1  0  0  0  0
 17 27  1  0  0  0  0
M  END
$$$$

  -OEChem-05262214473D

 49 49  0     1  0  0  0  0  0999 V2000
   -1.5619    0.5658    3.7981 C   0  0  0  0  0  0  0  0  0  0  0  0
   -0.6145   -0.0489    3.3224 O   0  0  0  0  0  0  0  0  0  0  0  0
   -1.9938    0.2834    5.1988 C   0  0  0  0  0  0  0  0  0  0  0  0
   -2.7535   -0.5129    5.2522 H   0  0  0  0  0  0  0  0  0  0  0  0
   -1.1626   -0.0642    5.8331 H   0  0  0  0  0  0  0  0  0  0  0  0
   -2.4318    1.1383    5.7384 H   0  0  0  0  0  0  0  0  0  0  0  0
   -2.3116    1.5383    3.1570 N   0  0  0  0  0  0  0  0  0  0  0  0
   -2.0648    1.9643    1.8046 C   0  0  2  0  0  0  0  0  0  0  0  0
   -0.7298    1.3789    1.3634 C   0  0  0  0  0  0  0  0  0  0  0  0
    0.1423    1.0262    2.1547 O   0  0  0  0  0  0  0  0  0  0  0  0
   -2.0560    3.4811    1.6952 C   0  0  0  0  0  0  0  0  0  0  0  0
   -3.0767    1.9741    3.6688 H   0  0  0  0  0  0  0  0  0  0  0  0
   -2.8689    1.5458    1.1895 H   0  0  0  0  0  0  0  0  0  0  0  0
   -1.2569    3.9183    2.3049 H   0  0  0  0  0  0  0  0  0  0  0  0
   -1.8965    3.8033    0.6609 H   0  0  0  0  0  0  0  0  0  0  0  0
   -3.0062    3.9023    2.0409 H   0  0  0  0  0  0  0  0  0  0  0  0
   -0.6071    1.3358   -0.0200 N   0  0  0  0  0  0  0  0  0  0  0  0
    0.5702    0.8350   -0.6836 C   0  0  2  0  0  0  0  0  0  0  0  0
    0.2250   -0.5439   -1.2348 C   0  0  0  0  0  0  0  0  0  0  0  0
   -0.8046   -0.7738   -1.8656 O   0  0  0  0  0  0  0  0  0  0  0  0
    1.7737    0.7451    0.2617 C   0  0  0  0  0  0  0  0  0  0  0  0
    2.2149    2.0942    0.7746 C   0  0  0  0  0  0  0  0  0  0  0  0
    2.9018    2.9894    0.0040 N   0  0  0  0  0  0  0  0  0  0  0  0
    2.0703    2.7160    1.9924 C   0  0  0  0  0  0  0  0  0  0  0  0
    3.1402    4.0943    0.7732 C   0  0  0  0  0  0  0  0  0  0  0  0
    2.6482    3.9609    1.9849 N   0  0  0  0  0  0  0  0  0  0  0  0
   -1.3903    1.6325   -0.5973 H   0  0  0  0  0  0  0  0  0  0  0  0
    0.7710    1.5156   -1.5194 H   0  0  0  0  0  0  0  0  0  0  0  0
    2.6148    0.2474   -0.2396 H   0  0  0  0  0  0  0  0  0  0  0  0
    1.5364    0.1098    1.1253 H   0  0  0  0  0  0  0  0  0  0  0  0
    3.1846    2.8608   -0.9587 H   0  0  0  0  0  0  0  0  0  0  0  0
    1.5798    2.3328    2.8758 H   0  0  0  0  0  0  0  0  0  0  0  0
    3.6732    4.9543    0.3933 H   0  0  0  0  0  0  0  0  0  0  0  0
    1.2266   -1.4706   -0.9806 N   0  0  0  0  0  0  0  0  0  0  0  0
    1.1624   -2.8476   -1.4149 C   0  0  2  0  0  0  0  0  0  0  0  0
   -0.1871   -3.4120   -0.9910 C   0  0  0  0  0  0  0  0  0  0  0  0
   -0.8552   -2.9367   -0.0752 O   0  0  0  0  0  0  0  0  0  0  0  0
    2.3022   -3.6662   -0.8290 C   0  0  0  0  0  0  0  0  0  0  0  0
    2.0458   -1.1657   -0.4634 H   0  0  0  0  0  0  0  0  0  0  0  0
    1.2276   -2.8377   -2.5084 H   0  0  0  0  0  0  0  0  0  0  0  0
    2.2536   -3.6876    0.2658 H   0  0  0  0  0  0  0  0  0  0  0  0
    2.2687   -4.7023   -1.1817 H   0  0  0  0  0  0  0  0  0  0  0  0
    3.2719   -3.2415   -1.1104 H   0  0  0  0  0  0  0  0  0  0  0  0
   -0.5376   -4.5350   -1.7273 N   0  0  0  0  0  0  0  0  0  0  0  0
   -1.7670   -5.2600   -1.5058 C   0  0  0  0  0  0  0  0  0  0  0  0
    0.0679   -4.8478   -2.4805 H   0  0  0  0  0  0  0  0  0  0  0  0
   -1.5879   -6.0771   -0.7915 H   0  0  0  0  0  0  0  0  0  0  0  0
   -2.5270   -4.5770   -1.0984 H   0  0  0  0  0  0  0  0  0  0  0  0
   -2.1229   -5.6780   -2.4590 H   0  0  0  0  0  0  0  0  0  0  0  0
 22 24  2  0  0  0  0
 24 26  1  0  0  0  0
 25 26  2  0  0  0  0
 23 25  1  0  0  0  0
 21 22  1  0  0  0  0
 22 23  1  0  0  0  0
  1  3  1  0  0  0  0
  1  7  1  0  0  0  0
  1  2  2  0  0  0  0
 35 36  1  0  0  0  0
 36 44  1  0  0  0  0
 36 37  2  0  0  0  0
  8  9  1  0  0  0  0
  9 17  1  0  0  0  0
  9 10  2  0  0  0  0
 18 19  1  0  0  0  0
 19 34  1  0  0  0  0
 19 20  2  0  0  0  0
 35 38  1  0  0  0  0
  8 11  1  0  0  0  0
 44 45  1  0  0  0  0
 18 21  1  0  0  0  0
 34 35  1  0  0  0  0
  7  8  1  0  0  0  0
 17 18  1  0  0  0  0
 24 32  1  0  0  0  0
 25 33  1  0  0  0  0
  3  4  1  0  0  0  0
  3  5  1  0  0  0  0
  3  6  1  0  0  0  0
 38 41  1  0  0  0  0
 38 42  1  0  0  0  0
 38 43  1  0  0  0  0
 11 14  1  0  0  0  0
 11 15  1  0  0  0  0
 11 16  1  0  0  0  0
 45 47  1  0  0  0  0
 45 48  1  0  0  0  0
 45 49  1  0  0  0  0
 21 29  1  0  0  0  0
 21 30  1  0  0  0  0
 35 40  1  0  0  0  0
  8 13  1  0  0  0  0
 18 28  1  0  0  0  0
 23 31  1  0  0  0  0
 44 46  1  0  0  0  0
  7 12  1  0  0  0  0
 34 39  1  0  0  0  0
 17 27  1  0  0  0  0
M  END
$$$$

  -OEChem-05262214473D

 49 49  0     1  0  0  0  0  0999 V2000
   -1.5619    0.5658    3.7981 C   0  0  0  0  0  0  0  0  0  0  0  0
   -0.6145   -0.0489    3.3224 O   0  0  0  0  0  0  0  0  0  0  0  0
   -1.9938    0.2834    5.1988 C   0  0  0  0  0  0  0  0  0  0  0  0
   -2.7535   -0.5129    5.2522 H   0  0  0  0  0  0  0  0  0  0  0  0
   -1.1626   -0.0642    5.8331 H   0  0  0  0  0  0  0  0  0  0  0  0
   -2.4318    1.1383    5.7384 H   0  0  0  0  0  0  0  0  0  0  0  0
   -2.3116    1.5383    3.1570 N   0  0  0  0  0  0  0  0  0  0  0  0
   -2.0648    1.9643    1.8046 C   0  0  2  0  0  0  0  0  0  0  0  0
   -0.7298    1.3789    1.3634 C   0  0  0  0  0  0  0  0  0  0  0  0
    0.1423    1.0262    2.1547 O   0  0  0  0  0  0  0  0  0  0  0  0
   -2.0560    3.4811    1.6952 C   0  0  0  0  0  0  0  0  0  0  0  0
   -3.0767    1.9741    3.6688 H   0  0  0  0  0  0  0  0  0  0  0  0
   -2.8689    1.5458    1.1895 H   0  0  0  0  0  0  0  0  0  0  0  0
   -1.2569    3.9183    2.3049 H   0  0  0  0  0  0  0  0  0  0  0  0
   -1.8965    3.8033    0.6609 H   0  0  0  0  0  0  0  0  0  0  0  0
   -3.0062    3.9023    2.0409 H   0  0  0  0  0  0  0  0  0  0  0  0
   -0.6071    1.3358   -0.0200 N   0  0  0  0  0  0  0  0  0  0  0  0
    0.5702    0.8350   -0.6836 C   0  0  2  0  0  0  0  0  0  0  0  0
    0.2250   -0.5439   -1.2348 C   0  0  0  0  0  0  0  0  0  0  0  0
   -0.6485   -0.7272   -2.0799 O   0  0  0  0  0  0  0  0  0  0  0  0
    1.7737    0.7451    0.2617 C   0  0  0  0  0  0  0  0  0  0  0  0
    2.2149    2.0942    0.7746 C   0  0  0  0  0  0  0  0  0  0  0  0
    2.9018    2.9894    0.0040 N   0  0  0  0  0  0  0  0  0  0  0  0
    2.0703    2.7160    1.9924 C   0  0  0  0  0  0  0  0  0  0  0  0
    3.1402    4.0943    0.7732 C   0  0  0  0  0  0  0  0  0  0  0  0
    2.6482    3.9609    1.9849 N   0  0  0  0  0  0  0  0  0  0  0  0
   -1.3903    1.6325   -0.5973 H   0  0  0  0  0  0  0  0  0  0  0  0
    0.7710    1.5156   -1.5194 H   0  0  0  0  0  0  0  0  0  0  0  0
    2.6148    0.2474   -0.2396 H   0  0  0  0  0  0  0  0  0  0  0  0
    1.5364    0.1098    1.1253 H   0  0  0  0  0  0  0  0  0  0  0  0
    3.1846    2.8608   -0.9587 H   0  0  0  0  0  0  0  0  0  0  0  0
    1.5798    2.3328    2.8758 H   0  0  0  0  0  0  0  0  0  0  0  0
    3.6732    4.9543    0.3933 H   0  0  0  0  0  0  0  0  0  0  0  0
    1.0422   -1.5338   -0.7069 N   0  0  0  0  0  0  0  0  0  0  0  0
    0.9421   -2.9270   -1.0782 C   0  0  2  0  0  0  0  0  0  0  0  0
   -0.5186   -3.3415   -0.9598 C   0  0  0  0  0  0  0  0  0  0  0  0
   -1.3291   -2.7475   -0.2519 O   0  0  0  0  0  0  0  0  0  0  0  0
    1.8273   -3.7984   -0.2008 C   0  0  0  0  0  0  0  0  0  0  0  0
    1.7460   -1.2657   -0.0254 H   0  0  0  0  0  0  0  0  0  0  0  0
    1.2592   -2.9991   -2.1243 H   0  0  0  0  0  0  0  0  0  0  0  0
    1.5248   -3.7392    0.8510 H   0  0  0  0  0  0  0  0  0  0  0  0
    1.7722   -4.8498   -0.5018 H   0  0  0  0  0  0  0  0  0  0  0  0
    2.8734   -3.4799   -0.2643 H   0  0  0  0  0  0  0  0  0  0  0  0
   -0.8004   -4.4786   -1.7040 N   0  0  0  0  0  0  0  0  0  0  0  0
   -2.1141   -5.0772   -1.7459 C   0  0  0  0  0  0  0  0  0  0  0  0
   -0.0716   -4.8943   -2.2766 H   0  0  0  0  0  0  0  0  0  0  0  0
   -2.1881   -5.8549   -0.9715 H   0  0  0  0  0  0  0  0  0  0  0  0
   -2.8751   -4.3042   -1.5630 H   0  0  0  0  0  0  0  0  0  0  0  0
   -2.2800   -5.5282   -2.7353 H   0  0  0  0  0  0  0  0  0  0  0  0
 22 24  2  0  0  0  0
 24 26  1  0  0  0  0
 25 26  2  0  0  0  0
 23 25  1  0  0  0  0
 21 22  1  0  0  0  0
 22 23  1  0  0  0  0
  1  3  1  0  0  0  0
  1  7  1  0  0  0  0
  1  2  2  0  0  0  0
 35 36  1  0  0  0  0
 36 44  1  0  0  0  0
 36 37  2  0  0  0  0
  8  9  1  0  0  0  0
  9 17  1  0  0  0  0
  9 10  2  0  0  0  0
 18 19  1  0  0  0  0
 19 34  1  0  0  0  0
 19 20  2  0  0  0  0
 35 38  1  0  0  0  0
  8 11  1  0  0  0  0
 44 45  1  0  0  0  0
 18 21  1  0  0  0  0
 34 35  1  0  0  0  0
  7  8  1  0  0  0  0
 17 18  1  0  0  0  0
 24 32  1  0  0  0  0
 25 33  1  0  0  0  0
  3  4  1  0  0  0  0
  3  5  1  0  0  0  0
  3  6  1  0  0  0  0
 38 41  1  0  0  0  0
 38 42  1  0  0  0  0
 38 43  1  0  0  0  0
 11 14  1  0  0  0  0
 11 15  1  0  0  0  0
 11 16  1  0  0  0  0
 45 47  1  0  0  0  0
 45 48  1  0  0  0  0
 45 49  1  0  0  0  0
 21 29  1  0  0  0  0
 21 30  1  0  0  0  0
 35 40  1  0  0  0  0
  8 13  1  0  0  0  0
 18 28  1  0  0  0  0
 23 31  1  0  0  0  0
 44 46  1  0  0  0  0
  7 12  1  0  0  0  0
 34 39  1  0  0  0  0
 17 27  1  0  0  0  0
M  END
$$$$

  -OEChem-05262214473D

 49 49  0     1  0  0  0  0  0999 V2000
   -1.5619    0.5658    3.7981 C   0  0  0  0  0  0  0  0  0  0  0  0
   -0.6145   -0.0489    3.3224 O   0  0  0  0  0  0  0  0  0  0  0  0
   -1.9938    0.2834    5.1988 C   0  0  0  0  0  0  0  0  0  0  0  0
   -2.7535   -0.5129    5.2522 H   0  0  0  0  0  0  0  0  0  0  0  0
   -1.1626   -0.0642    5.8331 H   0  0  0  0  0  0  0  0  0  0  0  0
   -2.4318    1.1383    5.7384 H   0  0  0  0  0  0  0  0  0  0  0  0
   -2.3116    1.5383    3.1570 N   0  0  0  0  0  0  0  0  0  0  0  0
   -2.0648    1.9643    1.8046 C   0  0  2  0  0  0  0  0  0  0  0  0
   -0.7298    1.3789    1.3634 C   0  0  0  0  0  0  0  0  0  0  0  0
    0.1423    1.0262    2.1547 O   0  0  0  0  0  0  0  0  0  0  0  0
   -2.0560    3.4811    1.6952 C   0  0  0  0  0  0  0  0  0  0  0  0
   -3.0767    1.9741    3.6688 H   0  0  0  0  0  0  0  0  0  0  0  0
   -2.8689    1.5458    1.1895 H   0  0  0  0  0  0  0  0  0  0  0  0
   -1.2569    3.9183    2.3049 H   0  0  0  0  0  0  0  0  0  0  0  0
   -1.8965    3.8033    0.6609 H   0  0  0  0  0  0  0  0  0  0  0  0
   -3.0062    3.9023    2.0409 H   0  0  0  0  0  0  0  0  0  0  0  0
   -0.6071    1.3358   -0.0200 N   0  0  0  0  0  0  0  0  0  0  0  0
    0.5702    0.8350   -0.6836 C   0  0  2  0  0  0  0  0  0  0  0  0
    0.2250   -0.5439   -1.2348 C   0  0  0  0  0  0  0  0  0  0  0  0
   -0.4433   -0.7094   -2.2531 O   0  0  0  0  0  0  0  0  0  0  0  0
    1.7737    0.7451    0.2617 C   0  0  0  0  0  0  0  0  0  0  0  0
    2.2149    2.0942    0.7746 C   0  0  0  0  0  0  0  0  0  0  0  0
    2.9018    2.9894    0.0040 N   0  0  0  0  0  0  0  0  0  0  0  0
    2.0703    2.7160    1.9924 C   0  0  0  0  0  0  0  0  0  0  0  0
    3.1402    4.0943    0.7732 C   0  0  0  0  0  0  0  0  0  0  0  0
    2.6482    3.9609    1.9849 N   0  0  0  0  0  0  0  0  0  0  0  0
   -1.3903    1.6325   -0.5973 H   0  0  0  0  0  0  0  0  0  0  0  0
    0.7710    1.5156   -1.5194 H   0  0  0  0  0  0  0  0  0  0  0  0
    2.6148    0.2474   -0.2396 H   0  0  0  0  0  0  0  0  0  0  0  0
    1.5364    0.1098    1.1253 H   0  0  0  0  0  0  0  0  0  0  0  0
    3.1846    2.8608   -0.9587 H   0  0  0  0  0  0  0  0  0  0  0  0
    1.5798    2.3328    2.8758 H   0  0  0  0  0  0  0  0  0  0  0  0
    3.6732    4.9543    0.3933 H   0  0  0  0  0  0  0  0  0  0  0  0
    0.7942   -1.5617   -0.4820 N   0  0  0  0  0  0  0  0  0  0  0  0
    0.6431   -2.9634   -0.7999 C   0  0  2  0  0  0  0  0  0  0  0  0
   -0.8394   -3.2406   -1.0113 C   0  0  0  0  0  0  0  0  0  0  0  0
   -1.7278   -2.5307   -0.5446 O   0  0  0  0  0  0  0  0  0  0  0  0
    1.2091   -3.8449    0.3025 C   0  0  0  0  0  0  0  0  0  0  0  0
    1.3445   -1.3086    0.3333 H   0  0  0  0  0  0  0  0  0  0  0  0
    1.1846   -3.1354   -1.7365 H   0  0  0  0  0  0  0  0  0  0  0  0
    0.6791   -3.6864    1.2488 H   0  0  0  0  0  0  0  0  0  0  0  0
    1.1197   -4.9060    0.0473 H   0  0  0  0  0  0  0  0  0  0  0  0
    2.2681   -3.6233    0.4736 H   0  0  0  0  0  0  0  0  0  0  0  0
   -1.0543   -4.3981   -1.7463 N   0  0  0  0  0  0  0  0  0  0  0  0
   -2.3761   -4.8822   -2.0697 C   0  0  0  0  0  0  0  0  0  0  0  0
   -0.2585   -4.9143   -2.1096 H   0  0  0  0  0  0  0  0  0  0  0  0
   -2.7050   -5.5946   -1.2989 H   0  0  0  0  0  0  0  0  0  0  0  0
   -3.0770   -4.0353   -2.1092 H   0  0  0  0  0  0  0  0  0  0  0  0
   -2.3531   -5.3850   -3.0478 H   0  0  0  0  0  0  0  0  0  0  0  0
 22 24  2  0  0  0  0
 24 26  1  0  0  0  0
 25 26  2  0  0  0  0
 23 25  1  0  0  0  0
 21 22  1  0  0  0  0
 22 23  1  0  0  0  0
  1  3  1  0  0  0  0
  1  7  1  0  0  0  0
  1  2  2  0  0  0  0
 35 36  1  0  0  0  0
 36 44  1  0  0  0  0
 36 37  2  0  0  0  0
  8  9  1  0  0  0  0
  9 17  1  0  0  0  0
  9 10  2  0  0  0  0
 18 19  1  0  0  0  0
 19 34  1  0  0  0  0
 19 20  2  0  0  0  0
 35 38  1  0  0  0  0
  8 11  1  0  0  0  0
 44 45  1  0  0  0  0
 18 21  1  0  0  0  0
 34 35  1  0  0  0  0
  7  8  1  0  0  0  0
 17 18  1  0  0  0  0
 24 32  1  0  0  0  0
 25 33  1  0  0  0  0
  3  4  1  0  0  0  0
  3  5  1  0  0  0  0
  3  6  1  0  0  0  0
 38 41  1  0  0  0  0
 38 42  1  0  0  0  0
 38 43  1  0  0  0  0
 11 14  1  0  0  0  0
 11 15  1  0  0  0  0
 11 16  1  0  0  0  0
 45 47  1  0  0  0  0
 45 48  1  0  0  0  0
 45 49  1  0  0  0  0
 21 29  1  0  0  0  0
 21 30  1  0  0  0  0
 35 40  1  0  0  0  0
  8 13  1  0  0  0  0
 18 28  1  0  0  0  0
 23 31  1  0  0  0  0
 44 46  1  0  0  0  0
  7 12  1  0  0  0  0
 34 39  1  0  0  0  0
 17 27  1  0  0  0  0
M  END
$$$$

  -OEChem-05262214473D

 49 49  0     1  0  0  0  0  0999 V2000
   -1.5619    0.5658    3.7981 C   0  0  0  0  0  0  0  0  0  0  0  0
   -0.6145   -0.0489    3.3224 O   0  0  0  0  0  0  0  0  0  0  0  0
   -1.9938    0.2834    5.1988 C   0  0  0  0  0  0  0  0  0  0  0  0
   -2.7535   -0.5129    5.2522 H   0  0  0  0  0  0  0  0  0  0  0  0
   -1.1626   -0.0642    5.8331 H   0  0  0  0  0  0  0  0  0  0  0  0
   -2.4318    1.1383    5.7384 H   0  0  0  0  0  0  0  0  0  0  0  0
   -2.3116    1.5383    3.1570 N   0  0  0  0  0  0  0  0  0  0  0  0
   -2.0648    1.9643    1.8046 C   0  0  2  0  0  0  0  0  0  0  0  0
   -0.7298    1.3789    1.3634 C   0  0  0  0  0  0  0  0  0  0  0  0
    0.1423    1.0262    2.1547 O   0  0  0  0  0  0  0  0  0  0  0  0
   -2.0560    3.4811    1.6952 C   0  0  0  0  0  0  0  0  0  0  0  0
   -3.0767    1.9741    3.6688 H   0  0  0  0  0  0  0  0  0  0  0  0
   -2.8689    1.5458    1.1895 H   0  0  0  0  0  0  0  0  0  0  0  0
   -1.2569    3.9183    2.3049 H   0  0  0  0  0  0  0  0  0  0  0  0
   -1.8965    3.8033    0.6609 H   0  0  0  0  0  0  0  0  0  0  0  0
   -3.0062    3.9023    2.0409 H   0  0  0  0  0  0  0  0  0  0  0  0
   -0.6071    1.3358   -0.0200 N   0  0  0  0  0  0  0  0  0  0  0  0
    0.5702    0.8350   -0.6836 C   0  0  2  0  0  0  0  0  0  0  0  0
    0.2250   -0.5439   -1.2348 C   0  0  0  0  0  0  0  0  0  0  0  0
   -0.2028   -0.7215   -2.3734 O   0  0  0  0  0  0  0  0  0  0  0  0
    1.7737    0.7451    0.2617 C   0  0  0  0  0  0  0  0  0  0  0  0
    2.2149    2.0942    0.7746 C   0  0  0  0  0  0  0  0  0  0  0  0
    2.9018    2.9894    0.0040 N   0  0  0  0  0  0  0  0  0  0  0  0
    2.0703    2.7160    1.9924 C   0  0  0  0  0  0  0  0  0  0  0  0
    3.1402    4.0943    0.7732 C   0  0  0  0  0  0  0  0  0  0  0  0
    2.6482    3.9609    1.9849 N   0  0  0  0  0  0  0  0  0  0  0  0
   -1.3903    1.6325   -0.5973 H   0  0  0  0  0  0  0  0  0  0  0  0
    0.7710    1.5156   -1.5194 H   0  0  0  0  0  0  0  0  0  0  0  0
    2.6148    0.2474   -0.2396 H   0  0  0  0  0  0  0  0  0  0  0  0
    1.5364    0.1098    1.1253 H   0  0  0  0  0  0  0  0  0  0  0  0
    3.1846    2.8608   -0.9587 H   0  0  0  0  0  0  0  0  0  0  0  0
    1.5798    2.3328    2.8758 H   0  0  0  0  0  0  0  0  0  0  0  0
    3.6732    4.9543    0.3933 H   0  0  0  0  0  0  0  0  0  0  0  0
    0.4993   -1.5521   -0.3212 N   0  0  0  0  0  0  0  0  0  0  0  0
    0.2857   -2.9543   -0.5990 C   0  0  2  0  0  0  0  0  0  0  0  0
   -1.1278   -3.1161   -1.1421 C   0  0  0  0  0  0  0  0  0  0  0  0
   -2.0241   -2.3011   -0.9333 O   0  0  0  0  0  0  0  0  0  0  0  0
    0.4898   -3.8024    0.6467 C   0  0  0  0  0  0  0  0  0  0  0  0
    0.8687   -1.2914    0.5883 H   0  0  0  0  0  0  0  0  0  0  0  0
    1.0091   -3.2374   -1.3714 H   0  0  0  0  0  0  0  0  0  0  0  0
   -0.2260   -3.5331    1.4319 H   0  0  0  0  0  0  0  0  0  0  0  0
    0.3557   -4.8670    0.4282 H   0  0  0  0  0  0  0  0  0  0  0  0
    1.4972   -3.6620    1.0531 H   0  0  0  0  0  0  0  0  0  0  0  0
   -1.2822   -4.2991   -1.8513 N   0  0  0  0  0  0  0  0  0  0  0  0
   -2.5351   -4.6882   -2.4553 C   0  0  0  0  0  0  0  0  0  0  0  0
   -0.4800   -4.9064   -1.9908 H   0  0  0  0  0  0  0  0  0  0  0  0
   -3.1033   -5.3141   -1.7514 H   0  0  0  0  0  0  0  0  0  0  0  0
   -3.1191   -3.7887   -2.6998 H   0  0  0  0  0  0  0  0  0  0  0  0
   -2.3372   -5.2582   -3.3751 H   0  0  0  0  0  0  0  0  0  0  0  0
 22 24  2  0  0  0  0
 24 26  1  0  0  0  0
 25 26  2  0  0  0  0
 23 25  1  0  0  0  0
 21 22  1  0  0  0  0
 22 23  1  0  0  0  0
  1  3  1  0  0  0  0
  1  7  1  0  0  0  0
  1  2  2  0  0  0  0
 35 36  1  0  0  0  0
 36 44  1  0  0  0  0
 36 37  2  0  0  0  0
  8  9  1  0  0  0  0
  9 17  1  0  0  0  0
  9 10  2  0  0  0  0
 18 19  1  0  0  0  0
 19 34  1  0  0  0  0
 19 20  2  0  0  0  0
 35 38  1  0  0  0  0
  8 11  1  0  0  0  0
 44 45  1  0  0  0  0
 18 21  1  0  0  0  0
 34 35  1  0  0  0  0
  7  8  1  0  0  0  0
 17 18  1  0  0  0  0
 24 32  1  0  0  0  0
 25 33  1  0  0  0  0
  3  4  1  0  0  0  0
  3  5  1  0  0  0  0
  3  6  1  0  0  0  0
 38 41  1  0  0  0  0
 38 42  1  0  0  0  0
 38 43  1  0  0  0  0
 11 14  1  0  0  0  0
 11 15  1  0  0  0  0
 11 16  1  0  0  0  0
 45 47  1  0  0  0  0
 45 48  1  0  0  0  0
 45 49  1  0  0  0  0
 21 29  1  0  0  0  0
 21 30  1  0  0  0  0
 35 40  1  0  0  0  0
  8 13  1  0  0  0  0
 18 28  1  0  0  0  0
 23 31  1  0  0  0  0
 44 46  1  0  0  0  0
  7 12  1  0  0  0  0
 34 39  1  0  0  0  0
 17 27  1  0  0  0  0
M  END
$$$$

  -OEChem-05262214473D

 49 49  0     1  0  0  0  0  0999 V2000
   -1.5619    0.5658    3.7981 C   0  0  0  0  0  0  0  0  0  0  0  0
   -0.6145   -0.0489    3.3224 O   0  0  0  0  0  0  0  0  0  0  0  0
   -1.9938    0.2834    5.1988 C   0  0  0  0  0  0  0  0  0  0  0  0
   -2.7535   -0.5129    5.2522 H   0  0  0  0  0  0  0  0  0  0  0  0
   -1.1626   -0.0642    5.8331 H   0  0  0  0  0  0  0  0  0  0  0  0
   -2.4318    1.1383    5.7384 H   0  0  0  0  0  0  0  0  0  0  0  0
   -2.3116    1.5383    3.1570 N   0  0  0  0  0  0  0  0  0  0  0  0
   -2.0648    1.9643    1.8046 C   0  0  2  0  0  0  0  0  0  0  0  0
   -0.7298    1.3789    1.3634 C   0  0  0  0  0  0  0  0  0  0  0  0
    0.1423    1.0262    2.1547 O   0  0  0  0  0  0  0  0  0  0  0  0
   -2.0560    3.4811    1.6952 C   0  0  0  0  0  0  0  0  0  0  0  0
   -3.0767    1.9741    3.6688 H   0  0  0  0  0  0  0  0  0  0  0  0
   -2.8689    1.5458    1.1895 H   0  0  0  0  0  0  0  0  0  0  0  0
   -1.2569    3.9183    2.3049 H   0  0  0  0  0  0  0  0  0  0  0  0
   -1.8965    3.8033    0.6609 H   0  0  0  0  0  0  0  0  0  0  0  0
   -3.0062    3.9023    2.0409 H   0  0  0  0  0  0  0  0  0  0  0  0
   -0.6071    1.3358   -0.0200 N   0  0  0  0  0  0  0  0  0  0  0  0
    0.5702    0.8350   -0.6836 C   0  0  2  0  0  0  0  0  0  0  0  0
    0.2250   -0.5439   -1.2348 C   0  0  0  0  0  0  0  0  0  0  0  0
    0.0566   -0.7627   -2.4325 O   0  0  0  0  0  0  0  0  0  0  0  0
    1.7737    0.7451    0.2617 C   0  0  0  0  0  0  0  0  0  0  0  0
    2.2149    2.0942    0.7746 C   0  0  0  0  0  0  0  0  0  0  0  0
    2.9018    2.9894    0.0040 N   0  0  0  0  0  0  0  0  0  0  0  0
    2.0703    2.7160    1.9924 C   0  0  0  0  0  0  0  0  0  0  0  0
    3.1402    4.0943    0.7732 C   0  0  0  0  0  0  0  0  0  0  0  0
    2.6482    3.9609    1.9849 N   0  0  0  0  0  0  0  0  0  0  0  0
   -1.3903    1.6325   -0.5973 H   0  0  0  0  0  0  0  0  0  0  0  0
    0.7710    1.5156   -1.5194 H   0  0  0  0  0  0  0  0  0  0  0  0
    2.6148    0.2474   -0.2396 H   0  0  0  0  0  0  0  0  0  0  0  0
    1.5364    0.1098    1.1253 H   0  0  0  0  0  0  0  0  0  0  0  0
    3.1846    2.8608   -0.9587 H   0  0  0  0  0  0  0  0  0  0  0  0
    1.5798    2.3328    2.8758 H   0  0  0  0  0  0  0  0  0  0  0  0
    3.6732    4.9543    0.3933 H   0  0  0  0  0  0  0  0  0  0  0  0
    0.1778   -1.5059   -0.2355 N   0  0  0  0  0  0  0  0  0  0  0  0
   -0.1056   -2.9003   -0.4890 C   0  0  2  0  0  0  0  0  0  0  0  0
   -1.3642   -2.9766   -1.3433 C   0  0  0  0  0  0  0  0  0  0  0  0
   -2.1978   -2.0745   -1.3917 O   0  0  0  0  0  0  0  0  0  0  0  0
   -0.2816   -3.6740    0.8083 C   0  0  0  0  0  0  0  0  0  0  0  0
    0.3511   -1.2154    0.7223 H   0  0  0  0  0  0  0  0  0  0  0  0
    0.7445   -3.2982   -1.0538 H   0  0  0  0  0  0  0  0  0  0  0  0
   -1.1288   -3.2895    1.3879 H   0  0  0  0  0  0  0  0  0  0  0  0
   -0.4679   -4.7355    0.6150 H   0  0  0  0  0  0  0  0  0  0  0  0
    0.6134   -3.5933    1.4346 H   0  0  0  0  0  0  0  0  0  0  0  0
   -1.4684   -4.1883   -2.0119 N   0  0  0  0  0  0  0  0  0  0  0  0
   -2.5802   -4.5087   -2.8763 C   0  0  0  0  0  0  0  0  0  0  0  0
   -0.7209   -4.8710   -1.9284 H   0  0  0  0  0  0  0  0  0  0  0  0
   -3.3558   -5.0323   -2.2982 H   0  0  0  0  0  0  0  0  0  0  0  0
   -2.9984   -3.5812   -3.2946 H   0  0  0  0  0  0  0  0  0  0  0  0
   -2.2333   -5.1563   -3.6949 H   0  0  0  0  0  0  0  0  0  0  0  0
 22 24  2  0  0  0  0
 24 26  1  0  0  0  0
 25 26  2  0  0  0  0
 23 25  1  0  0  0  0
 21 22  1  0  0  0  0
 22 23  1  0  0  0  0
  1  3  1  0  0  0  0
  1  7  1  0  0  0  0
  1  2  2  0  0  0  0
 35 36  1  0  0  0  0
 36 44  1  0  0  0  0
 36 37  2  0  0  0  0
  8  9  1  0  0  0  0
  9 17  1  0  0  0  0
  9 10  2  0  0  0  0
 18 19  1  0  0  0  0
 19 34  1  0  0  0  0
 19 20  2  0  0  0  0
 35 38  1  0  0  0  0
  8 11  1  0  0  0  0
 44 45  1  0  0  0  0
 18 21  1  0  0  0  0
 34 35  1  0  0  0  0
  7  8  1  0  0  0  0
 17 18  1  0  0  0  0
 24 32  1  0  0  0  0
 25 33  1  0  0  0  0
  3  4  1  0  0  0  0
  3  5  1  0  0  0  0
  3  6  1  0  0  0  0
 38 41  1  0  0  0  0
 38 42  1  0  0  0  0
 38 43  1  0  0  0  0
 11 14  1  0  0  0  0
 11 15  1  0  0  0  0
 11 16  1  0  0  0  0
 45 47  1  0  0  0  0
 45 48  1  0  0  0  0
 45 49  1  0  0  0  0
 21 29  1  0  0  0  0
 21 30  1  0  0  0  0
 35 40  1  0  0  0  0
  8 13  1  0  0  0  0
 18 28  1  0  0  0  0
 23 31  1  0  0  0  0
 44 46  1  0  0  0  0
  7 12  1  0  0  0  0
 34 39  1  0  0  0  0
 17 27  1  0  0  0  0
M  END
$$$$

  -OEChem-05262214473D

 49 49  0     1  0  0  0  0  0999 V2000
   -1.5619    0.5658    3.7981 C   0  0  0  0  0  0  0  0  0  0  0  0
   -0.6145   -0.0489    3.3224 O   0  0  0  0  0  0  0  0  0  0  0  0
   -1.9938    0.2834    5.1988 C   0  0  0  0  0  0  0  0  0  0  0  0
   -2.7535   -0.5129    5.2522 H   0  0  0  0  0  0  0  0  0  0  0  0
   -1.1626   -0.0642    5.8331 H   0  0  0  0  0  0  0  0  0  0  0  0
   -2.4318    1.1383    5.7384 H   0  0  0  0  0  0  0  0  0  0  0  0
   -2.3116    1.5383    3.1570 N   0  0  0  0  0  0  0  0  0  0  0  0
   -2.0648    1.9643    1.8046 C   0  0  2  0  0  0  0  0  0  0  0  0
   -0.7298    1.3789    1.3634 C   0  0  0  0  0  0  0  0  0  0  0  0
    0.1423    1.0262    2.1547 O   0  0  0  0  0  0  0  0  0  0  0  0
   -2.0560    3.4811    1.6952 C   0  0  0  0  0  0  0  0  0  0  0  0
   -3.0767    1.9741    3.6688 H   0  0  0  0  0  0  0  0  0  0  0  0
   -2.8689    1.5458    1.1895 H   0  0  0  0  0  0  0  0  0  0  0  0
   -1.2569    3.9183    2.3049 H   0  0  0  0  0  0  0  0  0  0  0  0
   -1.8965    3.8033    0.6609 H   0  0  0  0  0  0  0  0  0  0  0  0
   -3.0062    3.9023    2.0409 H   0  0  0  0  0  0  0  0  0  0  0  0
   -0.6071    1.3358   -0.0200 N   0  0  0  0  0  0  0  0  0  0  0  0
    0.5702    0.8350   -0.6836 C   0  0  2  0  0  0  0  0  0  0  0  0
    0.2250   -0.5439   -1.2348 C   0  0  0  0  0  0  0  0  0  0  0  0
    0.3170   -0.8303   -2.4266 O   0  0  0  0  0  0  0  0  0  0  0  0
    1.7737    0.7451    0.2617 C   0  0  0  0  0  0  0  0  0  0  0  0
    2.2149    2.0942    0.7746 C   0  0  0  0  0  0  0  0  0  0  0  0
    2.9018    2.9894    0.0040 N   0  0  0  0  0  0  0  0  0  0  0  0
    2.0703    2.7160    1.9924 C   0  0  0  0  0  0  0  0  0  0  0  0
    3.1402    4.0943    0.7732 C   0  0  0  0  0  0  0  0  0  0  0  0
    2.6482    3.9609    1.9849 N   0  0  0  0  0  0  0  0  0  0  0  0
   -1.3903    1.6325   -0.5973 H   0  0  0  0  0  0  0  0  0  0  0  0
    0.7710    1.5156   -1.5194 H   0  0  0  0  0  0  0  0  0  0  0  0
    2.6148    0.2474   -0.2396 H   0  0  0  0  0  0  0  0  0  0  0  0
    1.5364    0.1098    1.1253 H   0  0  0  0  0  0  0  0  0  0  0  0
    3.1846    2.8608   -0.9587 H   0  0  0  0  0  0  0  0  0  0  0  0
    1.5798    2.3328    2.8758 H   0  0  0  0  0  0  0  0  0  0  0  0
    3.6732    4.9543    0.3933 H   0  0  0  0  0  0  0  0  0  0  0  0
   -0.1486   -1.4262   -0.2306 N   0  0  0  0  0  0  0  0  0  0  0  0
   -0.5044   -2.8050   -0.4777 C   0  0  2  0  0  0  0  0  0  0  0  0
   -1.5323   -2.8314   -1.6011 C   0  0  0  0  0  0  0  0  0  0  0  0
   -2.2371   -1.8661   -1.8883 O   0  0  0  0  0  0  0  0  0  0  0  0
   -1.0525   -3.4682    0.7763 C   0  0  0  0  0  0  0  0  0  0  0  0
   -0.1732   -1.0857    0.7260 H   0  0  0  0  0  0  0  0  0  0  0  0
    0.4089   -3.3134   -0.8054 H   0  0  0  0  0  0  0  0  0  0  0  0
   -1.9678   -2.9724    1.1198 H   0  0  0  0  0  0  0  0  0  0  0  0
   -1.2948   -4.5206    0.5950 H   0  0  0  0  0  0  0  0  0  0  0  0
   -0.3232   -3.4219    1.5923 H   0  0  0  0  0  0  0  0  0  0  0  0
   -1.6004   -4.0733   -2.2171 N   0  0  0  0  0  0  0  0  0  0  0  0
   -2.5085   -4.3556   -3.3041 C   0  0  0  0  0  0  0  0  0  0  0  0
   -0.9650   -4.8106   -1.9266 H   0  0  0  0  0  0  0  0  0  0  0  0
   -3.4454   -4.7686   -2.9020 H   0  0  0  0  0  0  0  0  0  0  0  0
   -2.7231   -3.4269   -3.8530 H   0  0  0  0  0  0  0  0  0  0  0  0
   -2.0485   -5.0864   -3.9855 H   0  0  0  0  0  0  0  0  0  0  0  0
 22 24  2  0  0  0  0
 24 26  1  0  0  0  0
 25 26  2  0  0  0  0
 23 25  1  0  0  0  0
 21 22  1  0  0  0  0
 22 23  1  0  0  0  0
  1  3  1  0  0  0  0
  1  7  1  0  0  0  0
  1  2  2  0  0  0  0
 35 36  1  0  0  0  0
 36 44  1  0  0  0  0
 36 37  2  0  0  0  0
  8  9  1  0  0  0  0
  9 17  1  0  0  0  0
  9 10  2  0  0  0  0
 18 19  1  0  0  0  0
 19 34  1  0  0  0  0
 19 20  2  0  0  0  0
 35 38  1  0  0  0  0
  8 11  1  0  0  0  0
 44 45  1  0  0  0  0
 18 21  1  0  0  0  0
 34 35  1  0  0  0  0
  7  8  1  0  0  0  0
 17 18  1  0  0  0  0
 24 32  1  0  0  0  0
 25 33  1  0  0  0  0
  3  4  1  0  0  0  0
  3  5  1  0  0  0  0
  3  6  1  0  0  0  0
 38 41  1  0  0  0  0
 38 42  1  0  0  0  0
 38 43  1  0  0  0  0
 11 14  1  0  0  0  0
 11 15  1  0  0  0  0
 11 16  1  0  0  0  0
 45 47  1  0  0  0  0
 45 48  1  0  0  0  0
 45 49  1  0  0  0  0
 21 29  1  0  0  0  0
 21 30  1  0  0  0  0
 35 40  1  0  0  0  0
  8 13  1  0  0  0  0
 18 28  1  0  0  0  0
 23 31  1  0  0  0  0
 44 46  1  0  0  0  0
  7 12  1  0  0  0  0
 34 39  1  0  0  0  0
 17 27  1  0  0  0  0
M  END
$$$$

  -OEChem-05262214473D

 49 49  0     1  0  0  0  0  0999 V2000
   -1.5619    0.5658    3.7981 C   0  0  0  0  0  0  0  0  0  0  0  0
   -0.6145   -0.0489    3.3224 O   0  0  0  0  0  0  0  0  0  0  0  0
   -1.9938    0.2834    5.1988 C   0  0  0  0  0  0  0  0  0  0  0  0
   -2.7535   -0.5129    5.2522 H   0  0  0  0  0  0  0  0  0  0  0  0
   -1.1626   -0.0642    5.8331 H   0  0  0  0  0  0  0  0  0  0  0  0
   -2.4318    1.1383    5.7384 H   0  0  0  0  0  0  0  0  0  0  0  0
   -2.3116    1.5383    3.1570 N   0  0  0  0  0  0  0  0  0  0  0  0
   -2.0648    1.9643    1.8046 C   0  0  2  0  0  0  0  0  0  0  0  0
   -0.7298    1.3789    1.3634 C   0  0  0  0  0  0  0  0  0  0  0  0
    0.1423    1.0262    2.1547 O   0  0  0  0  0  0  0  0  0  0  0  0
   -2.0560    3.4811    1.6952 C   0  0  0  0  0  0  0  0  0  0  0  0
   -3.0767    1.9741    3.6688 H   0  0  0  0  0  0  0  0  0  0  0  0
   -2.8689    1.5458    1.1895 H   0  0  0  0  0  0  0  0  0  0  0  0
   -1.2569    3.9183    2.3049 H   0  0  0  0  0  0  0  0  0  0  0  0
   -1.8965    3.8033    0.6609 H   0  0  0  0  0  0  0  0  0  0  0  0
   -3.0062    3.9023    2.0409 H   0  0  0  0  0  0  0  0  0  0  0  0
   -0.6071    1.3358   -0.0200 N   0  0  0  0  0  0  0  0  0  0  0  0
    0.5702    0.8350   -0.6836 C   0  0  2  0  0  0  0  0  0  0  0  0
    0.2250   -0.5439   -1.2348 C   0  0  0  0  0  0  0  0  0  0  0  0
    0.5609   -0.9196   -2.3559 O   0  0  0  0  0  0  0  0  0  0  0  0
    1.7737    0.7451    0.2617 C   0  0  0  0  0  0  0  0  0  0  0  0
    2.2149    2.0942    0.7746 C   0  0  0  0  0  0  0  0  0  0  0  0
    2.9018    2.9894    0.0040 N   0  0  0  0  0  0  0  0  0  0  0  0
    2.0703    2.7160    1.9924 C   0  0  0  0  0  0  0  0  0  0  0  0
    3.1402    4.0943    0.7732 C   0  0  0  0  0  0  0  0  0  0  0  0
    2.6482    3.9609    1.9849 N   0  0  0  0  0  0  0  0  0  0  0  0
   -1.3903    1.6325   -0.5973 H   0  0  0  0  0  0  0  0  0  0  0  0
    0.7710    1.5156   -1.5194 H   0  0  0  0  0  0  0  0  0  0  0  0
    2.6148    0.2474   -0.2396 H   0  0  0  0  0  0  0  0  0  0  0  0
    1.5364    0.1098    1.1253 H   0  0  0  0  0  0  0  0  0  0  0  0
    3.1846    2.8608   -0.9587 H   0  0  0  0  0  0  0  0  0  0  0  0
    1.5798    2.3328    2.8758 H   0  0  0  0  0  0  0  0  0  0  0  0
    3.6732    4.9543    0.3933 H   0  0  0  0  0  0  0  0  0  0  0  0
   -0.4575   -1.3183   -0.3070 N   0  0  0  0  0  0  0  0  0  0  0  0
   -0.8833   -2.6750   -0.5656 C   0  0  2  0  0  0  0  0  0  0  0  0
   -1.6208   -2.6906   -1.8980 C   0  0  0  0  0  0  0  0  0  0  0  0
   -2.1393   -1.6903   -2.3894 O   0  0  0  0  0  0  0  0  0  0  0  0
   -1.7704   -3.1992    0.5529 C   0  0  0  0  0  0  0  0  0  0  0  0
   -0.6684   -0.9111    0.5993 H   0  0  0  0  0  0  0  0  0  0  0  0
    0.0252   -3.2823   -0.6432 H   0  0  0  0  0  0  0  0  0  0  0  0
   -2.6857   -2.6033    0.6458 H   0  0  0  0  0  0  0  0  0  0  0  0
   -2.0688   -4.2367    0.3695 H   0  0  0  0  0  0  0  0  0  0  0  0
   -1.2488   -3.1594    1.5152 H   0  0  0  0  0  0  0  0  0  0  0  0
   -1.6690   -3.9618   -2.4529 N   0  0  0  0  0  0  0  0  0  0  0  0
   -2.3248   -4.2396   -3.7094 C   0  0  0  0  0  0  0  0  0  0  0  0
   -1.1955   -4.7294   -1.9856 H   0  0  0  0  0  0  0  0  0  0  0  0
   -3.3659   -4.5408   -3.5216 H   0  0  0  0  0  0  0  0  0  0  0  0
   -2.3121   -3.3363   -4.3371 H   0  0  0  0  0  0  0  0  0  0  0  0
   -1.7955   -5.0532   -4.2271 H   0  0  0  0  0  0  0  0  0  0  0  0
 22 24  2  0  0  0  0
 24 26  1  0  0  0  0
 25 26  2  0  0  0  0
 23 25  1  0  0  0  0
 21 22  1  0  0  0  0
 22 23  1  0  0  0  0
  1  3  1  0  0  0  0
  1  7  1  0  0  0  0
  1  2  2  0  0  0  0
 35 36  1  0  0  0  0
 36 44  1  0  0  0  0
 36 37  2  0  0  0  0
  8  9  1  0  0  0  0
  9 17  1  0  0  0  0
  9 10  2  0  0  0  0
 18 19  1  0  0  0  0
 19 34  1  0  0  0  0
 19 20  2  0  0  0  0
 35 38  1  0  0  0  0
  8 11  1  0  0  0  0
 44 45  1  0  0  0  0
 18 21  1  0  0  0  0
 34 35  1  0  0  0  0
  7  8  1  0  0  0  0
 17 18  1  0  0  0  0
 24 32  1  0  0  0  0
 25 33  1  0  0  0  0
  3  4  1  0  0  0  0
  3  5  1  0  0  0  0
  3  6  1  0  0  0  0
 38 41  1  0  0  0  0
 38 42  1  0  0  0  0
 38 43  1  0  0  0  0
 11 14  1  0  0  0  0
 11 15  1  0  0  0  0
 11 16  1  0  0  0  0
 45 47  1  0  0  0  0
 45 48  1  0  0  0  0
 45 49  1  0  0  0  0
 21 29  1  0  0  0  0
 21 30  1  0  0  0  0
 35 40  1  0  0  0  0
  8 13  1  0  0  0  0
 18 28  1  0  0  0  0
 23 31  1  0  0  0  0
 44 46  1  0  0  0  0
  7 12  1  0  0  0  0
 34 39  1  0  0  0  0
 17 27  1  0  0  0  0
M  END
$$$$

  -OEChem-05262214473D

 49 49  0     1  0  0  0  0  0999 V2000
   -1.5619    0.5658    3.7981 C   0  0  0  0  0  0  0  0  0  0  0  0
   -0.6145   -0.0489    3.3224 O   0  0  0  0  0  0  0  0  0  0  0  0
   -1.9938    0.2834    5.1988 C   0  0  0  0  0  0  0  0  0  0  0  0
   -2.7535   -0.5129    5.2522 H   0  0  0  0  0  0  0  0  0  0  0  0
   -1.1626   -0.0642    5.8331 H   0  0  0  0  0  0  0  0  0  0  0  0
   -2.4318    1.1383    5.7384 H   0  0  0  0  0  0  0  0  0  0  0  0
   -2.3116    1.5383    3.1570 N   0  0  0  0  0  0  0  0  0  0  0  0
   -2.0648    1.9643    1.8046 C   0  0  2  0  0  0  0  0  0  0  0  0
   -0.7298    1.3789    1.3634 C   0  0  0  0  0  0  0  0  0  0  0  0
    0.1423    1.0262    2.1547 O   0  0  0  0  0  0  0  0  0  0  0  0
   -2.0560    3.4811    1.6952 C   0  0  0  0  0  0  0  0  0  0  0  0
   -3.0767    1.9741    3.6688 H   0  0  0  0  0  0  0  0  0  0  0  0
   -2.8689    1.5458    1.1895 H   0  0  0  0  0  0  0  0  0  0  0  0
   -1.2569    3.9183    2.3049 H   0  0  0  0  0  0  0  0  0  0  0  0
   -1.8965    3.8033    0.6609 H   0  0  0  0  0  0  0  0  0  0  0  0
   -3.0062    3.9023    2.0409 H   0  0  0  0  0  0  0  0  0  0  0  0
   -0.6071    1.3358   -0.0200 N   0  0  0  0  0  0  0  0  0  0  0  0
    0.5702    0.8350   -0.6836 C   0  0  2  0  0  0  0  0  0  0  0  0
    0.2250   -0.5439   -1.2348 C   0  0  0  0  0  0  0  0  0  0  0  0
    0.7716   -1.0245   -2.2253 O   0  0  0  0  0  0  0  0  0  0  0  0
    1.7737    0.7451    0.2617 C   0  0  0  0  0  0  0  0  0  0  0  0
    2.2149    2.0942    0.7746 C   0  0  0  0  0  0  0  0  0  0  0  0
    2.9018    2.9894    0.0040 N   0  0  0  0  0  0  0  0  0  0  0  0
    2.0703    2.7160    1.9924 C   0  0  0  0  0  0  0  0  0  0  0  0
    3.1402    4.0943    0.7732 C   0  0  0  0  0  0  0  0  0  0  0  0
    2.6482    3.9609    1.9849 N   0  0  0  0  0  0  0  0  0  0  0  0
   -1.3903    1.6325   -0.5973 H   0  0  0  0  0  0  0  0  0  0  0  0
    0.7710    1.5156   -1.5194 H   0  0  0  0  0  0  0  0  0  0  0  0
    2.6148    0.2474   -0.2396 H   0  0  0  0  0  0  0  0  0  0  0  0
    1.5364    0.1098    1.1253 H   0  0  0  0  0  0  0  0  0  0  0  0
    3.1846    2.8608   -0.9587 H   0  0  0  0  0  0  0  0  0  0  0  0
    1.5798    2.3328    2.8758 H   0  0  0  0  0  0  0  0  0  0  0  0
    3.6732    4.9543    0.3933 H   0  0  0  0  0  0  0  0  0  0  0  0
   -0.7279   -1.1897   -0.4594 N   0  0  0  0  0  0  0  0  0  0  0  0
   -1.2165   -2.5192   -0.7468 C   0  0  2  0  0  0  0  0  0  0  0  0
   -1.6235   -2.5637   -2.2137 C   0  0  0  0  0  0  0  0  0  0  0  0
   -1.9110   -1.5590   -2.8609 O   0  0  0  0  0  0  0  0  0  0  0  0
   -2.3864   -2.8853    0.1532 C   0  0  0  0  0  0  0  0  0  0  0  0
   -1.1006   -0.7036    0.3508 H   0  0  0  0  0  0  0  0  0  0  0  0
   -0.3805   -3.2067   -0.5781 H   0  0  0  0  0  0  0  0  0  0  0  0
   -3.2336   -2.2073   -0.0017 H   0  0  0  0  0  0  0  0  0  0  0  0
   -2.7370   -3.9033   -0.0462 H   0  0  0  0  0  0  0  0  0  0  0  0
   -2.1002   -2.8238    1.2087 H   0  0  0  0  0  0  0  0  0  0  0  0
   -1.6697   -3.8616   -2.7033 N   0  0  0  0  0  0  0  0  0  0  0  0
   -2.0415   -4.1685   -4.0648 C   0  0  0  0  0  0  0  0  0  0  0  0
   -1.3967   -4.6328   -2.1012 H   0  0  0  0  0  0  0  0  0  0  0  0
   -3.1227   -4.3646   -4.1148 H   0  0  0  0  0  0  0  0  0  0  0  0
   -1.7933   -3.3156   -4.7137 H   0  0  0  0  0  0  0  0  0  0  0  0
   -1.4915   -5.0589   -4.4031 H   0  0  0  0  0  0  0  0  0  0  0  0
 22 24  2  0  0  0  0
 24 26  1  0  0  0  0
 25 26  2  0  0  0  0
 23 25  1  0  0  0  0
 21 22  1  0  0  0  0
 22 23  1  0  0  0  0
  1  3  1  0  0  0  0
  1  7  1  0  0  0  0
  1  2  2  0  0  0  0
 35 36  1  0  0  0  0
 36 44  1  0  0  0  0
 36 37  2  0  0  0  0
  8  9  1  0  0  0  0
  9 17  1  0  0  0  0
  9 10  2  0  0  0  0
 18 19  1  0  0  0  0
 19 34  1  0  0  0  0
 19 20  2  0  0  0  0
 35 38  1  0  0  0  0
  8 11  1  0  0  0  0
 44 45  1  0  0  0  0
 18 21  1  0  0  0  0
 34 35  1  0  0  0  0
  7  8  1  0  0  0  0
 17 18  1  0  0  0  0
 24 32  1  0  0  0  0
 25 33  1  0  0  0  0
  3  4  1  0  0  0  0
  3  5  1  0  0  0  0
  3  6  1  0  0  0  0
 38 41  1  0  0  0  0
 38 42  1  0  0  0  0
 38 43  1  0  0  0  0
 11 14  1  0  0  0  0
 11 15  1  0  0  0  0
 11 16  1  0  0  0  0
 45 47  1  0  0  0  0
 45 48  1  0  0  0  0
 45 49  1  0  0  0  0
 21 29  1  0  0  0  0
 21 30  1  0  0  0  0
 35 40  1  0  0  0  0
  8 13  1  0  0  0  0
 18 28  1  0  0  0  0
 23 31  1  0  0  0  0
 44 46  1  0  0  0  0
  7 12  1  0  0  0  0
 34 39  1  0  0  0  0
 17 27  1  0  0  0  0
M  END
$$$$

  -OEChem-05262214473D

 49 49  0     1  0  0  0  0  0999 V2000
   -1.5619    0.5658    3.7981 C   0  0  0  0  0  0  0  0  0  0  0  0
   -0.6145   -0.0489    3.3224 O   0  0  0  0  0  0  0  0  0  0  0  0
   -1.9938    0.2834    5.1988 C   0  0  0  0  0  0  0  0  0  0  0  0
   -2.7535   -0.5129    5.2522 H   0  0  0  0  0  0  0  0  0  0  0  0
   -1.1626   -0.0642    5.8331 H   0  0  0  0  0  0  0  0  0  0  0  0
   -2.4318    1.1383    5.7384 H   0  0  0  0  0  0  0  0  0  0  0  0
   -2.3116    1.5383    3.1570 N   0  0  0  0  0  0  0  0  0  0  0  0
   -2.0648    1.9643    1.8046 C   0  0  2  0  0  0  0  0  0  0  0  0
   -0.7298    1.3789    1.3634 C   0  0  0  0  0  0  0  0  0  0  0  0
    0.1423    1.0262    2.1547 O   0  0  0  0  0  0  0  0  0  0  0  0
   -2.0560    3.4811    1.6952 C   0  0  0  0  0  0  0  0  0  0  0  0
   -3.0767    1.9741    3.6688 H   0  0  0  0  0  0  0  0  0  0  0  0
   -2.8689    1.5458    1.1895 H   0  0  0  0  0  0  0  0  0  0  0  0
   -1.2569    3.9183    2.3049 H   0  0  0  0  0  0  0  0  0  0  0  0
   -1.8965    3.8033    0.6609 H   0  0  0  0  0  0  0  0  0  0  0  0
   -3.0062    3.9023    2.0409 H   0  0  0  0  0  0  0  0  0  0  0  0
   -0.6071    1.3358   -0.0200 N   0  0  0  0  0  0  0  0  0  0  0  0
    0.5702    0.8350   -0.6836 C   0  0  2  0  0  0  0  0  0  0  0  0
    0.2250   -0.5439   -1.2348 C   0  0  0  0  0  0  0  0  0  0  0  0
    0.9347   -1.1380   -2.0437 O   0  0  0  0  0  0  0  0  0  0  0  0
    1.7737    0.7451    0.2617 C   0  0  0  0  0  0  0  0  0  0  0  0
    2.2149    2.0942    0.7746 C   0  0  0  0  0  0  0  0  0  0  0  0
    2.9018    2.9894    0.0040 N   0  0  0  0  0  0  0  0  0  0  0  0
    2.0703    2.7160    1.9924 C   0  0  0  0  0  0  0  0  0  0  0  0
    3.1402    4.0943    0.7732 C   0  0  0  0  0  0  0  0  0  0  0  0
    2.6482    3.9609    1.9849 N   0  0  0  0  0  0  0  0  0  0  0  0
   -1.3903    1.6325   -0.5973 H   0  0  0  0  0  0  0  0  0  0  0  0
    0.7710    1.5156   -1.5194 H   0  0  0  0  0  0  0  0  0  0  0  0
    2.6148    0.2474   -0.2396 H   0  0  0  0  0  0  0  0  0  0  0  0
    1.5364    0.1098    1.1253 H   0  0  0  0  0  0  0  0  0  0  0  0
    3.1846    2.8608   -0.9587 H   0  0  0  0  0  0  0  0  0  0  0  0
    1.5798    2.3328    2.8758 H   0  0  0  0  0  0  0  0  0  0  0  0
    3.6732    4.9543    0.3933 H   0  0  0  0  0  0  0  0  0  0  0  0
   -0.9414   -1.0491   -0.6775 N   0  0  0  0  0  0  0  0  0  0  0  0
   -1.4814   -2.3481   -1.0090 C   0  0  2  0  0  0  0  0  0  0  0  0
   -1.5404   -2.4594   -2.5268 C   0  0  0  0  0  0  0  0  0  0  0  0
   -1.5679   -1.4811   -3.2706 O   0  0  0  0  0  0  0  0  0  0  0  0
   -2.8584   -2.5479   -0.3954 C   0  0  0  0  0  0  0  0  0  0  0  0
   -1.4406   -0.4772   -0.0026 H   0  0  0  0  0  0  0  0  0  0  0  0
   -0.7806   -3.0920   -0.6147 H   0  0  0  0  0  0  0  0  0  0  0  0
   -3.5743   -1.8115   -0.7785 H   0  0  0  0  0  0  0  0  0  0  0  0
   -3.2539   -3.5431   -0.6236 H   0  0  0  0  0  0  0  0  0  0  0  0
   -2.8195   -2.4380    0.6937 H   0  0  0  0  0  0  0  0  0  0  0  0
   -1.6024   -3.7793   -2.9512 N   0  0  0  0  0  0  0  0  0  0  0  0
   -1.6781   -4.1471   -4.3459 C   0  0  0  0  0  0  0  0  0  0  0  0
   -1.5550   -4.5274   -2.2657 H   0  0  0  0  0  0  0  0  0  0  0  0
   -2.7325   -4.2518   -4.6412 H   0  0  0  0  0  0  0  0  0  0  0  0
   -1.2020   -3.3663   -4.9572 H   0  0  0  0  0  0  0  0  0  0  0  0
   -1.1571   -5.1033   -4.5016 H   0  0  0  0  0  0  0  0  0  0  0  0
 22 24  2  0  0  0  0
 24 26  1  0  0  0  0
 25 26  2  0  0  0  0
 23 25  1  0  0  0  0
 21 22  1  0  0  0  0
 22 23  1  0  0  0  0
  1  3  1  0  0  0  0
  1  7  1  0  0  0  0
  1  2  2  0  0  0  0
 35 36  1  0  0  0  0
 36 44  1  0  0  0  0
 36 37  2  0  0  0  0
  8  9  1  0  0  0  0
  9 17  1  0  0  0  0
  9 10  2  0  0  0  0
 18 19  1  0  0  0  0
 19 34  1  0  0  0  0
 19 20  2  0  0  0  0
 35 38  1  0  0  0  0
  8 11  1  0  0  0  0
 44 45  1  0  0  0  0
 18 21  1  0  0  0  0
 34 35  1  0  0  0  0
  7  8  1  0  0  0  0
 17 18  1  0  0  0  0
 24 32  1  0  0  0  0
 25 33  1  0  0  0  0
  3  4  1  0  0  0  0
  3  5  1  0  0  0  0
  3  6  1  0  0  0  0
 38 41  1  0  0  0  0
 38 42  1  0  0  0  0
 38 43  1  0  0  0  0
 11 14  1  0  0  0  0
 11 15  1  0  0  0  0
 11 16  1  0  0  0  0
 45 47  1  0  0  0  0
 45 48  1  0  0  0  0
 45 49  1  0  0  0  0
 21 29  1  0  0  0  0
 21 30  1  0  0  0  0
 35 40  1  0  0  0  0
  8 13  1  0  0  0  0
 18 28  1  0  0  0  0
 23 31  1  0  0  0  0
 44 46  1  0  0  0  0
  7 12  1  0  0  0  0
 34 39  1  0  0  0  0
 17 27  1  0  0  0  0
M  END
$$$$

  -OEChem-05262214473D

 49 49  0     1  0  0  0  0  0999 V2000
   -1.5619    0.5658    3.7981 C   0  0  0  0  0  0  0  0  0  0  0  0
   -0.6145   -0.0489    3.3224 O   0  0  0  0  0  0  0  0  0  0  0  0
   -1.9938    0.2834    5.1988 C   0  0  0  0  0  0  0  0  0  0  0  0
   -2.7535   -0.5129    5.2522 H   0  0  0  0  0  0  0  0  0  0  0  0
   -1.1626   -0.0642    5.8331 H   0  0  0  0  0  0  0  0  0  0  0  0
   -2.4318    1.1383    5.7384 H   0  0  0  0  0  0  0  0  0  0  0  0
   -2.3116    1.5383    3.1570 N   0  0  0  0  0  0  0  0  0  0  0  0
   -2.0648    1.9643    1.8046 C   0  0  2  0  0  0  0  0  0  0  0  0
   -0.7298    1.3789    1.3634 C   0  0  0  0  0  0  0  0  0  0  0  0
    0.1423    1.0262    2.1547 O   0  0  0  0  0  0  0  0  0  0  0  0
   -2.0560    3.4811    1.6952 C   0  0  0  0  0  0  0  0  0  0  0  0
   -3.0767    1.9741    3.6688 H   0  0  0  0  0  0  0  0  0  0  0  0
   -2.8689    1.5458    1.1895 H   0  0  0  0  0  0  0  0  0  0  0  0
   -1.2569    3.9183    2.3049 H   0  0  0  0  0  0  0  0  0  0  0  0
   -1.8965    3.8033    0.6609 H   0  0  0  0  0  0  0  0  0  0  0  0
   -3.0062    3.9023    2.0409 H   0  0  0  0  0  0  0  0  0  0  0  0
   -0.6071    1.3358   -0.0200 N   0  0  0  0  0  0  0  0  0  0  0  0
    0.5702    0.8350   -0.6836 C   0  0  2  0  0  0  0  0  0  0  0  0
    0.2250   -0.5439   -1.2348 C   0  0  0  0  0  0  0  0  0  0  0  0
    1.0391   -1.2521   -1.8234 O   0  0  0  0  0  0  0  0  0  0  0  0
    1.7737    0.7451    0.2617 C   0  0  0  0  0  0  0  0  0  0  0  0
    2.2149    2.0942    0.7746 C   0  0  0  0  0  0  0  0  0  0  0  0
    2.9018    2.9894    0.0040 N   0  0  0  0  0  0  0  0  0  0  0  0
    2.0703    2.7160    1.9924 C   0  0  0  0  0  0  0  0  0  0  0  0
    3.1402    4.0943    0.7732 C   0  0  0  0  0  0  0  0  0  0  0  0
    2.6482    3.9609    1.9849 N   0  0  0  0  0  0  0  0  0  0  0  0
   -1.3903    1.6325   -0.5973 H   0  0  0  0  0  0  0  0  0  0  0  0
    0.7710    1.5156   -1.5194 H   0  0  0  0  0  0  0  0  0  0  0  0
    2.6148    0.2474   -0.2396 H   0  0  0  0  0  0  0  0  0  0  0  0
    1.5364    0.1098    1.1253 H   0  0  0  0  0  0  0  0  0  0  0  0
    3.1846    2.8608   -0.9587 H   0  0  0  0  0  0  0  0  0  0  0  0
    1.5798    2.3328    2.8758 H   0  0  0  0  0  0  0  0  0  0  0  0
    3.6732    4.9543    0.3933 H   0  0  0  0  0  0  0  0  0  0  0  0
   -1.0834   -0.9061   -0.9463 N   0  0  0  0  0  0  0  0  0  0  0  0
   -1.6599   -2.1734   -1.3343 C   0  0  2  0  0  0  0  0  0  0  0  0
   -1.3771   -2.3848   -2.8158 C   0  0  0  0  0  0  0  0  0  0  0  0
   -1.1333   -1.4620   -3.5905 O   0  0  0  0  0  0  0  0  0  0  0  0
   -3.1544   -2.2099   -1.0556 C   0  0  0  0  0  0  0  0  0  0  0  0
   -1.6651   -0.2475   -0.4368 H   0  0  0  0  0  0  0  0  0  0  0  0
   -1.1477   -2.9459   -0.7503 H   0  0  0  0  0  0  0  0  0  0  0  0
   -3.6845   -1.4429   -1.6319 H   0  0  0  0  0  0  0  0  0  0  0  0
   -3.5844   -3.1807   -1.3235 H   0  0  0  0  0  0  0  0  0  0  0  0
   -3.3576   -2.0281    0.0053 H   0  0  0  0  0  0  0  0  0  0  0  0
   -1.4716   -3.7207   -3.1797 N   0  0  0  0  0  0  0  0  0  0  0  0
   -1.2593   -4.1769   -4.5336 C   0  0  0  0  0  0  0  0  0  0  0  0
   -1.6595   -4.4204   -2.4678 H   0  0  0  0  0  0  0  0  0  0  0  0
   -2.2218   -4.2103   -5.0650 H   0  0  0  0  0  0  0  0  0  0  0  0
   -0.5787   -3.4848   -5.0511 H   0  0  0  0  0  0  0  0  0  0  0  0
   -0.8152   -5.1831   -4.5159 H   0  0  0  0  0  0  0  0  0  0  0  0
 22 24  2  0  0  0  0
 24 26  1  0  0  0  0
 25 26  2  0  0  0  0
 23 25  1  0  0  0  0
 21 22  1  0  0  0  0
 22 23  1  0  0  0  0
  1  3  1  0  0  0  0
  1  7  1  0  0  0  0
  1  2  2  0  0  0  0
 35 36  1  0  0  0  0
 36 44  1  0  0  0  0
 36 37  2  0  0  0  0
  8  9  1  0  0  0  0
  9 17  1  0  0  0  0
  9 10  2  0  0  0  0
 18 19  1  0  0  0  0
 19 34  1  0  0  0  0
 19 20  2  0  0  0  0
 35 38  1  0  0  0  0
  8 11  1  0  0  0  0
 44 45  1  0  0  0  0
 18 21  1  0  0  0  0
 34 35  1  0  0  0  0
  7  8  1  0  0  0  0
 17 18  1  0  0  0  0
 24 32  1  0  0  0  0
 25 33  1  0  0  0  0
  3  4  1  0  0  0  0
  3  5  1  0  0  0  0
  3  6  1  0  0  0  0
 38 41  1  0  0  0  0
 38 42  1  0  0  0  0
 38 43  1  0  0  0  0
 11 14  1  0  0  0  0
 11 15  1  0  0  0  0
 11 16  1  0  0  0  0
 45 47  1  0  0  0  0
 45 48  1  0  0  0  0
 45 49  1  0  0  0  0
 21 29  1  0  0  0  0
 21 30  1  0  0  0  0
 35 40  1  0  0  0  0
  8 13  1  0  0  0  0
 18 28  1  0  0  0  0
 23 31  1  0  0  0  0
 44 46  1  0  0  0  0
  7 12  1  0  0  0  0
 34 39  1  0  0  0  0
 17 27  1  0  0  0  0
M  END
$$$$

  -OEChem-05262214473D

 49 49  0     1  0  0  0  0  0999 V2000
   -1.5619    0.5658    3.7981 C   0  0  0  0  0  0  0  0  0  0  0  0
   -0.6145   -0.0489    3.3224 O   0  0  0  0  0  0  0  0  0  0  0  0
   -1.9938    0.2834    5.1988 C   0  0  0  0  0  0  0  0  0  0  0  0
   -2.7535   -0.5129    5.2522 H   0  0  0  0  0  0  0  0  0  0  0  0
   -1.1626   -0.0642    5.8331 H   0  0  0  0  0  0  0  0  0  0  0  0
   -2.4318    1.1383    5.7384 H   0  0  0  0  0  0  0  0  0  0  0  0
   -2.3116    1.5383    3.1570 N   0  0  0  0  0  0  0  0  0  0  0  0
   -2.0648    1.9643    1.8046 C   0  0  2  0  0  0  0  0  0  0  0  0
   -0.7298    1.3789    1.3634 C   0  0  0  0  0  0  0  0  0  0  0  0
    0.1423    1.0262    2.1547 O   0  0  0  0  0  0  0  0  0  0  0  0
   -2.0560    3.4811    1.6952 C   0  0  0  0  0  0  0  0  0  0  0  0
   -3.0767    1.9741    3.6688 H   0  0  0  0  0  0  0  0  0  0  0  0
   -2.8689    1.5458    1.1895 H   0  0  0  0  0  0  0  0  0  0  0  0
   -1.2569    3.9183    2.3049 H   0  0  0  0  0  0  0  0  0  0  0  0
   -1.8965    3.8033    0.6609 H   0  0  0  0  0  0  0  0  0  0  0  0
   -3.0062    3.9023    2.0409 H   0  0  0  0  0  0  0  0  0  0  0  0
   -0.6071    1.3358   -0.0200 N   0  0  0  0  0  0  0  0  0  0  0  0
    0.5702    0.8350   -0.6836 C   0  0  2  0  0  0  0  0  0  0  0  0
    0.2250   -0.5439   -1.2348 C   0  0  0  0  0  0  0  0  0  0  0  0
    1.0778   -1.3593   -1.5795 O   0  0  0  0  0  0  0  0  0  0  0  0
    1.7737    0.7451    0.2617 C   0  0  0  0  0  0  0  0  0  0  0  0
    2.2149    2.0942    0.7746 C   0  0  0  0  0  0  0  0  0  0  0  0
    2.9018    2.9894    0.0040 N   0  0  0  0  0  0  0  0  0  0  0  0
    2.0703    2.7160    1.9924 C   0  0  0  0  0  0  0  0  0  0  0  0
    3.1402    4.0943    0.7732 C   0  0  0  0  0  0  0  0  0  0  0  0
    2.6482    3.9609    1.9849 N   0  0  0  0  0  0  0  0  0  0  0  0
   -1.3903    1.6325   -0.5973 H   0  0  0  0  0  0  0  0  0  0  0  0
    0.7710    1.5156   -1.5194 H   0  0  0  0  0  0  0  0  0  0  0  0
    2.6148    0.2474   -0.2396 H   0  0  0  0  0  0  0  0  0  0  0  0
    1.5364    0.1098    1.1253 H   0  0  0  0  0  0  0  0  0  0  0  0
    3.1846    2.8608   -0.9587 H   0  0  0  0  0  0  0  0  0  0  0  0
    1.5798    2.3328    2.8758 H   0  0  0  0  0  0  0  0  0  0  0  0
    3.6732    4.9543    0.3933 H   0  0  0  0  0  0  0  0  0  0  0  0
   -1.1442   -0.7705   -1.2476 N   0  0  0  0  0  0  0  0  0  0  0  0
   -1.7397   -2.0070   -1.7005 C   0  0  2  0  0  0  0  0  0  0  0  0
   -1.1447   -2.3449   -3.0612 C   0  0  0  0  0  0  0  0  0  0  0  0
   -0.6368   -1.5030   -3.7989 O   0  0  0  0  0  0  0  0  0  0  0  0
   -3.2541   -1.8945   -1.7824 C   0  0  0  0  0  0  0  0  0  0  0  0
   -1.7587   -0.0300   -0.9223 H   0  0  0  0  0  0  0  0  0  0  0  0
   -1.4569   -2.7783   -0.9759 H   0  0  0  0  0  0  0  0  0  0  0  0
   -3.5566   -1.1264   -2.5036 H   0  0  0  0  0  0  0  0  0  0  0  0
   -3.7058   -2.8406   -2.0982 H   0  0  0  0  0  0  0  0  0  0  0  0
   -3.6778   -1.6222   -0.8096 H   0  0  0  0  0  0  0  0  0  0  0  0
   -1.2863   -3.6897   -3.3733 N   0  0  0  0  0  0  0  0  0  0  0  0
   -0.8135   -4.2559   -4.6151 C   0  0  0  0  0  0  0  0  0  0  0  0
   -1.7032   -4.3192   -2.6938 H   0  0  0  0  0  0  0  0  0  0  0  0
   -1.6254   -4.2428   -5.3572 H   0  0  0  0  0  0  0  0  0  0  0  0
    0.0343   -3.6631   -4.9889 H   0  0  0  0  0  0  0  0  0  0  0  0
   -0.4891   -5.2931   -4.4450 H   0  0  0  0  0  0  0  0  0  0  0  0
 22 24  2  0  0  0  0
 24 26  1  0  0  0  0
 25 26  2  0  0  0  0
 23 25  1  0  0  0  0
 21 22  1  0  0  0  0
 22 23  1  0  0  0  0
  1  3  1  0  0  0  0
  1  7  1  0  0  0  0
  1  2  2  0  0  0  0
 35 36  1  0  0  0  0
 36 44  1  0  0  0  0
 36 37  2  0  0  0  0
  8  9  1  0  0  0  0
  9 17  1  0  0  0  0
  9 10  2  0  0  0  0
 18 19  1  0  0  0  0
 19 34  1  0  0  0  0
 19 20  2  0  0  0  0
 35 38  1  0  0  0  0
  8 11  1  0  0  0  0
 44 45  1  0  0  0  0
 18 21  1  0  0  0  0
 34 35  1  0  0  0  0
  7  8  1  0  0  0  0
 17 18  1  0  0  0  0
 24 32  1  0  0  0  0
 25 33  1  0  0  0  0
  3  4  1  0  0  0  0
  3  5  1  0  0  0  0
  3  6  1  0  0  0  0
 38 41  1  0  0  0  0
 38 42  1  0  0  0  0
 38 43  1  0  0  0  0
 11 14  1  0  0  0  0
 11 15  1  0  0  0  0
 11 16  1  0  0  0  0
 45 47  1  0  0  0  0
 45 48  1  0  0  0  0
 45 49  1  0  0  0  0
 21 29  1  0  0  0  0
 21 30  1  0  0  0  0
 35 40  1  0  0  0  0
  8 13  1  0  0  0  0
 18 28  1  0  0  0  0
 23 31  1  0  0  0  0
 44 46  1  0  0  0  0
  7 12  1  0  0  0  0
 34 39  1  0  0  0  0
 17 27  1  0  0  0  0
M  END
$$$$

  -OEChem-05262214473D

 49 49  0     1  0  0  0  0  0999 V2000
   -1.5619    0.5658    3.7981 C   0  0  0  0  0  0  0  0  0  0  0  0
   -0.6145   -0.0489    3.3224 O   0  0  0  0  0  0  0  0  0  0  0  0
   -1.9938    0.2834    5.1988 C   0  0  0  0  0  0  0  0  0  0  0  0
   -2.7535   -0.5129    5.2522 H   0  0  0  0  0  0  0  0  0  0  0  0
   -1.1626   -0.0642    5.8331 H   0  0  0  0  0  0  0  0  0  0  0  0
   -2.4318    1.1383    5.7384 H   0  0  0  0  0  0  0  0  0  0  0  0
   -2.3116    1.5383    3.1570 N   0  0  0  0  0  0  0  0  0  0  0  0
   -2.0648    1.9643    1.8046 C   0  0  2  0  0  0  0  0  0  0  0  0
   -0.7298    1.3789    1.3634 C   0  0  0  0  0  0  0  0  0  0  0  0
    0.1423    1.0262    2.1547 O   0  0  0  0  0  0  0  0  0  0  0  0
   -2.0560    3.4811    1.6952 C   0  0  0  0  0  0  0  0  0  0  0  0
   -3.0767    1.9741    3.6688 H   0  0  0  0  0  0  0  0  0  0  0  0
   -2.8689    1.5458    1.1895 H   0  0  0  0  0  0  0  0  0  0  0  0
   -1.2569    3.9183    2.3049 H   0  0  0  0  0  0  0  0  0  0  0  0
   -1.8965    3.8033    0.6609 H   0  0  0  0  0  0  0  0  0  0  0  0
   -3.0062    3.9023    2.0409 H   0  0  0  0  0  0  0  0  0  0  0  0
   -0.6071    1.3358   -0.0200 N   0  0  0  0  0  0  0  0  0  0  0  0
    0.5702    0.8350   -0.6836 C   0  0  2  0  0  0  0  0  0  0  0  0
    0.2250   -0.5439   -1.2348 C   0  0  0  0  0  0  0  0  0  0  0  0
    1.0479   -1.4521   -1.3286 O   0  0  0  0  0  0  0  0  0  0  0  0
    1.7737    0.7451    0.2617 C   0  0  0  0  0  0  0  0  0  0  0  0
    2.2149    2.0942    0.7746 C   0  0  0  0  0  0  0  0  0  0  0  0
    2.9018    2.9894    0.0040 N   0  0  0  0  0  0  0  0  0  0  0  0
    2.0703    2.7160    1.9924 C   0  0  0  0  0  0  0  0  0  0  0  0
    3.1402    4.0943    0.7732 C   0  0  0  0  0  0  0  0  0  0  0  0
    2.6482    3.9609    1.9849 N   0  0  0  0  0  0  0  0  0  0  0  0
   -1.3903    1.6325   -0.5973 H   0  0  0  0  0  0  0  0  0  0  0  0
    0.7710    1.5156   -1.5194 H   0  0  0  0  0  0  0  0  0  0  0  0
    2.6148    0.2474   -0.2396 H   0  0  0  0  0  0  0  0  0  0  0  0
    1.5364    0.1098    1.1253 H   0  0  0  0  0  0  0  0  0  0  0  0
    3.1846    2.8608   -0.9587 H   0  0  0  0  0  0  0  0  0  0  0  0
    1.5798    2.3328    2.8758 H   0  0  0  0  0  0  0  0  0  0  0  0
    3.6732    4.9543    0.3933 H   0  0  0  0  0  0  0  0  0  0  0  0
   -1.1198   -0.6514   -1.5608 N   0  0  0  0  0  0  0  0  0  0  0  0
   -1.7156   -1.8603   -2.0827 C   0  0  2  0  0  0  0  0  0  0  0  0
   -0.8591   -2.3424   -3.2461 C   0  0  0  0  0  0  0  0  0  0  0  0
   -0.1123   -1.6012   -3.8816 O   0  0  0  0  0  0  0  0  0  0  0  0
   -3.1508   -1.6230   -2.5262 C   0  0  0  0  0  0  0  0  0  0  0  0
   -1.7152    0.1604   -1.4258 H   0  0  0  0  0  0  0  0  0  0  0  0
   -1.6871   -2.6008   -1.2760 H   0  0  0  0  0  0  0  0  0  0  0  0
   -3.1995   -0.8839   -3.3341 H   0  0  0  0  0  0  0  0  0  0  0  0
   -3.6100   -2.5462   -2.8948 H   0  0  0  0  0  0  0  0  0  0  0  0
   -3.7584   -1.2479   -1.6956 H   0  0  0  0  0  0  0  0  0  0  0  0
   -1.0591   -3.6885   -3.5187 N   0  0  0  0  0  0  0  0  0  0  0  0
   -0.3713   -4.3786   -4.5848 C   0  0  0  0  0  0  0  0  0  0  0  0
   -1.6830   -4.2306   -2.9282 H   0  0  0  0  0  0  0  0  0  0  0  0
   -0.9840   -4.3471   -5.4979 H   0  0  0  0  0  0  0  0  0  0  0  0
    0.5952   -3.8890   -4.7748 H   0  0  0  0  0  0  0  0  0  0  0  0
   -0.2010   -5.4257   -4.2938 H   0  0  0  0  0  0  0  0  0  0  0  0
 22 24  2  0  0  0  0
 24 26  1  0  0  0  0
 25 26  2  0  0  0  0
 23 25  1  0  0  0  0
 21 22  1  0  0  0  0
 22 23  1  0  0  0  0
  1  3  1  0  0  0  0
  1  7  1  0  0  0  0
  1  2  2  0  0  0  0
 35 36  1  0  0  0  0
 36 44  1  0  0  0  0
 36 37  2  0  0  0  0
  8  9  1  0  0  0  0
  9 17  1  0  0  0  0
  9 10  2  0  0  0  0
 18 19  1  0  0  0  0
 19 34  1  0  0  0  0
 19 20  2  0  0  0  0
 35 38  1  0  0  0  0
  8 11  1  0  0  0  0
 44 45  1  0  0  0  0
 18 21  1  0  0  0  0
 34 35  1  0  0  0  0
  7  8  1  0  0  0  0
 17 18  1  0  0  0  0
 24 32  1  0  0  0  0
 25 33  1  0  0  0  0
  3  4  1  0  0  0  0
  3  5  1  0  0  0  0
  3  6  1  0  0  0  0
 38 41  1  0  0  0  0
 38 42  1  0  0  0  0
 38 43  1  0  0  0  0
 11 14  1  0  0  0  0
 11 15  1  0  0  0  0
 11 16  1  0  0  0  0
 45 47  1  0  0  0  0
 45 48  1  0  0  0  0
 45 49  1  0  0  0  0
 21 29  1  0  0  0  0
 21 30  1  0  0  0  0
 35 40  1  0  0  0  0
  8 13  1  0  0  0  0
 18 28  1  0  0  0  0
 23 31  1  0  0  0  0
 44 46  1  0  0  0  0
  7 12  1  0  0  0  0
 34 39  1  0  0  0  0
 17 27  1  0  0  0  0
M  END
$$$$

  -OEChem-05262214473D

 49 49  0     1  0  0  0  0  0999 V2000
   -1.5619    0.5658    3.7981 C   0  0  0  0  0  0  0  0  0  0  0  0
   -0.6145   -0.0489    3.3224 O   0  0  0  0  0  0  0  0  0  0  0  0
   -1.9938    0.2834    5.1988 C   0  0  0  0  0  0  0  0  0  0  0  0
   -2.7535   -0.5129    5.2522 H   0  0  0  0  0  0  0  0  0  0  0  0
   -1.1626   -0.0642    5.8331 H   0  0  0  0  0  0  0  0  0  0  0  0
   -2.4318    1.1383    5.7384 H   0  0  0  0  0  0  0  0  0  0  0  0
   -2.3116    1.5383    3.1570 N   0  0  0  0  0  0  0  0  0  0  0  0
   -2.0648    1.9643    1.8046 C   0  0  2  0  0  0  0  0  0  0  0  0
   -0.7298    1.3789    1.3634 C   0  0  0  0  0  0  0  0  0  0  0  0
    0.1423    1.0262    2.1547 O   0  0  0  0  0  0  0  0  0  0  0  0
   -2.0560    3.4811    1.6952 C   0  0  0  0  0  0  0  0  0  0  0  0
   -3.0767    1.9741    3.6688 H   0  0  0  0  0  0  0  0  0  0  0  0
   -2.8689    1.5458    1.1895 H   0  0  0  0  0  0  0  0  0  0  0  0
   -1.2569    3.9183    2.3049 H   0  0  0  0  0  0  0  0  0  0  0  0
   -1.8965    3.8033    0.6609 H   0  0  0  0  0  0  0  0  0  0  0  0
   -3.0062    3.9023    2.0409 H   0  0  0  0  0  0  0  0  0  0  0  0
   -0.6071    1.3358   -0.0200 N   0  0  0  0  0  0  0  0  0  0  0  0
    0.5702    0.8350   -0.6836 C   0  0  2  0  0  0  0  0  0  0  0  0
    0.2250   -0.5439   -1.2348 C   0  0  0  0  0  0  0  0  0  0  0  0
    0.9517   -1.5243   -1.0878 O   0  0  0  0  0  0  0  0  0  0  0  0
    1.7737    0.7451    0.2617 C   0  0  0  0  0  0  0  0  0  0  0  0
    2.2149    2.0942    0.7746 C   0  0  0  0  0  0  0  0  0  0  0  0
    2.9018    2.9894    0.0040 N   0  0  0  0  0  0  0  0  0  0  0  0
    2.0703    2.7160    1.9924 C   0  0  0  0  0  0  0  0  0  0  0  0
    3.1402    4.0943    0.7732 C   0  0  0  0  0  0  0  0  0  0  0  0
    2.6482    3.9609    1.9849 N   0  0  0  0  0  0  0  0  0  0  0  0
   -1.3903    1.6325   -0.5973 H   0  0  0  0  0  0  0  0  0  0  0  0
    0.7710    1.5156   -1.5194 H   0  0  0  0  0  0  0  0  0  0  0  0
    2.6148    0.2474   -0.2396 H   0  0  0  0  0  0  0  0  0  0  0  0
    1.5364    0.1098    1.1253 H   0  0  0  0  0  0  0  0  0  0  0  0
    3.1846    2.8608   -0.9587 H   0  0  0  0  0  0  0  0  0  0  0  0
    1.5798    2.3328    2.8758 H   0  0  0  0  0  0  0  0  0  0  0  0
    3.6732    4.9543    0.3933 H   0  0  0  0  0  0  0  0  0  0  0  0
   -1.0117   -0.5570   -1.8646 N   0  0  0  0  0  0  0  0  0  0  0  0
   -1.5891   -1.7432   -2.4549 C   0  0  2  0  0  0  0  0  0  0  0  0
   -0.5396   -2.3777   -3.3580 C   0  0  0  0  0  0  0  0  0  0  0  0
    0.4045   -1.7500   -3.8330 O   0  0  0  0  0  0  0  0  0  0  0  0
   -2.8515   -1.4140   -3.2364 C   0  0  0  0  0  0  0  0  0  0  0  0
   -1.5375    0.3107   -1.9132 H   0  0  0  0  0  0  0  0  0  0  0  0
   -1.8226   -2.4253   -1.6301 H   0  0  0  0  0  0  0  0  0  0  0  0
   -2.6373   -0.7316   -4.0670 H   0  0  0  0  0  0  0  0  0  0  0  0
   -3.3034   -2.3175   -3.6590 H   0  0  0  0  0  0  0  0  0  0  0  0
   -3.5938   -0.9307   -2.5921 H   0  0  0  0  0  0  0  0  0  0  0  0
   -0.8055   -3.7171   -3.6060 N   0  0  0  0  0  0  0  0  0  0  0  0
    0.0373   -4.5368   -4.4449 C   0  0  0  0  0  0  0  0  0  0  0  0
   -1.6003   -4.1606   -3.1551 H   0  0  0  0  0  0  0  0  0  0  0  0
   -0.3412   -4.5161   -5.4775 H   0  0  0  0  0  0  0  0  0  0  0  0
    1.0657   -4.1472   -4.4236 H   0  0  0  0  0  0  0  0  0  0  0  0
    0.0295   -5.5718   -4.0724 H   0  0  0  0  0  0  0  0  0  0  0  0
 22 24  2  0  0  0  0
 24 26  1  0  0  0  0
 25 26  2  0  0  0  0
 23 25  1  0  0  0  0
 21 22  1  0  0  0  0
 22 23  1  0  0  0  0
  1  3  1  0  0  0  0
  1  7  1  0  0  0  0
  1  2  2  0  0  0  0
 35 36  1  0  0  0  0
 36 44  1  0  0  0  0
 36 37  2  0  0  0  0
  8  9  1  0  0  0  0
  9 17  1  0  0  0  0
  9 10  2  0  0  0  0
 18 19  1  0  0  0  0
 19 34  1  0  0  0  0
 19 20  2  0  0  0  0
 35 38  1  0  0  0  0
  8 11  1  0  0  0  0
 44 45  1  0  0  0  0
 18 21  1  0  0  0  0
 34 35  1  0  0  0  0
  7  8  1  0  0  0  0
 17 18  1  0  0  0  0
 24 32  1  0  0  0  0
 25 33  1  0  0  0  0
  3  4  1  0  0  0  0
  3  5  1  0  0  0  0
  3  6  1  0  0  0  0
 38 41  1  0  0  0  0
 38 42  1  0  0  0  0
 38 43  1  0  0  0  0
 11 14  1  0  0  0  0
 11 15  1  0  0  0  0
 11 16  1  0  0  0  0
 45 47  1  0  0  0  0
 45 48  1  0  0  0  0
 45 49  1  0  0  0  0
 21 29  1  0  0  0  0
 21 30  1  0  0  0  0
 35 40  1  0  0  0  0
  8 13  1  0  0  0  0
 18 28  1  0  0  0  0
 23 31  1  0  0  0  0
 44 46  1  0  0  0  0
  7 12  1  0  0  0  0
 34 39  1  0  0  0  0
 17 27  1  0  0  0  0
M  END
$$$$

  -OEChem-05262214473D

 49 49  0     1  0  0  0  0  0999 V2000
   -1.5619    0.5658    3.7981 C   0  0  0  0  0  0  0  0  0  0  0  0
   -0.6145   -0.0489    3.3224 O   0  0  0  0  0  0  0  0  0  0  0  0
   -1.9938    0.2834    5.1988 C   0  0  0  0  0  0  0  0  0  0  0  0
   -2.7535   -0.5129    5.2522 H   0  0  0  0  0  0  0  0  0  0  0  0
   -1.1626   -0.0642    5.8331 H   0  0  0  0  0  0  0  0  0  0  0  0
   -2.4318    1.1383    5.7384 H   0  0  0  0  0  0  0  0  0  0  0  0
   -2.3116    1.5383    3.1570 N   0  0  0  0  0  0  0  0  0  0  0  0
   -2.0648    1.9643    1.8046 C   0  0  2  0  0  0  0  0  0  0  0  0
   -0.7298    1.3789    1.3634 C   0  0  0  0  0  0  0  0  0  0  0  0
    0.1423    1.0262    2.1547 O   0  0  0  0  0  0  0  0  0  0  0  0
   -2.0560    3.4811    1.6952 C   0  0  0  0  0  0  0  0  0  0  0  0
   -3.0767    1.9741    3.6688 H   0  0  0  0  0  0  0  0  0  0  0  0
   -2.8689    1.5458    1.1895 H   0  0  0  0  0  0  0  0  0  0  0  0
   -1.2569    3.9183    2.3049 H   0  0  0  0  0  0  0  0  0  0  0  0
   -1.8965    3.8033    0.6609 H   0  0  0  0  0  0  0  0  0  0  0  0
   -3.0062    3.9023    2.0409 H   0  0  0  0  0  0  0  0  0  0  0  0
   -0.6071    1.3358   -0.0200 N   0  0  0  0  0  0  0  0  0  0  0  0
    0.5702    0.8350   -0.6836 C   0  0  2  0  0  0  0  0  0  0  0  0
    0.2250   -0.5439   -1.2348 C   0  0  0  0  0  0  0  0  0  0  0  0
    0.7957   -1.5709   -0.8735 O   0  0  0  0  0  0  0  0  0  0  0  0
    1.7737    0.7451    0.2617 C   0  0  0  0  0  0  0  0  0  0  0  0
    2.2149    2.0942    0.7746 C   0  0  0  0  0  0  0  0  0  0  0  0
    2.9018    2.9894    0.0040 N   0  0  0  0  0  0  0  0  0  0  0  0
    2.0703    2.7160    1.9924 C   0  0  0  0  0  0  0  0  0  0  0  0
    3.1402    4.0943    0.7732 C   0  0  0  0  0  0  0  0  0  0  0  0
    2.6482    3.9609    1.9849 N   0  0  0  0  0  0  0  0  0  0  0  0
   -1.3903    1.6325   -0.5973 H   0  0  0  0  0  0  0  0  0  0  0  0
    0.7710    1.5156   -1.5194 H   0  0  0  0  0  0  0  0  0  0  0  0
    2.6148    0.2474   -0.2396 H   0  0  0  0  0  0  0  0  0  0  0  0
    1.5364    0.1098    1.1253 H   0  0  0  0  0  0  0  0  0  0  0  0
    3.1846    2.8608   -0.9587 H   0  0  0  0  0  0  0  0  0  0  0  0
    1.5798    2.3328    2.8758 H   0  0  0  0  0  0  0  0  0  0  0  0
    3.6732    4.9543    0.3933 H   0  0  0  0  0  0  0  0  0  0  0  0
   -0.8274   -0.4938   -2.1383 N   0  0  0  0  0  0  0  0  0  0  0  0
   -1.3688   -1.6638   -2.7916 C   0  0  2  0  0  0  0  0  0  0  0  0
   -0.2082   -2.4481   -3.3892 C   0  0  0  0  0  0  0  0  0  0  0  0
    0.8784   -1.9392   -3.6563 O   0  0  0  0  0  0  0  0  0  0  0  0
   -2.3765   -1.2818   -3.8646 C   0  0  0  0  0  0  0  0  0  0  0  0
   -1.2377    0.4107   -2.3512 H   0  0  0  0  0  0  0  0  0  0  0  0
   -1.8541   -2.2639   -2.0141 H   0  0  0  0  0  0  0  0  0  0  0  0
   -1.9086   -0.6801   -4.6523 H   0  0  0  0  0  0  0  0  0  0  0  0
   -2.8069   -2.1700   -4.3389 H   0  0  0  0  0  0  0  0  0  0  0  0
   -3.1953   -0.6923   -3.4382 H   0  0  0  0  0  0  0  0  0  0  0  0
   -0.5427   -3.7735   -3.6293 N   0  0  0  0  0  0  0  0  0  0  0  0
    0.3844   -4.7197   -4.2048 C   0  0  0  0  0  0  0  0  0  0  0  0
   -1.4607   -4.1140   -3.3590 H   0  0  0  0  0  0  0  0  0  0  0  0
    0.2591   -4.7383   -5.2975 H   0  0  0  0  0  0  0  0  0  0  0  0
    1.4138   -4.4200   -3.9590 H   0  0  0  0  0  0  0  0  0  0  0  0
    0.1866   -5.7216   -3.7961 H   0  0  0  0  0  0  0  0  0  0  0  0
 22 24  2  0  0  0  0
 24 26  1  0  0  0  0
 25 26  2  0  0  0  0
 23 25  1  0  0  0  0
 21 22  1  0  0  0  0
 22 23  1  0  0  0  0
  1  3  1  0  0  0  0
  1  7  1  0  0  0  0
  1  2  2  0  0  0  0
 35 36  1  0  0  0  0
 36 44  1  0  0  0  0
 36 37  2  0  0  0  0
  8  9  1  0  0  0  0
  9 17  1  0  0  0  0
  9 10  2  0  0  0  0
 18 19  1  0  0  0  0
 19 34  1  0  0  0  0
 19 20  2  0  0  0  0
 35 38  1  0  0  0  0
  8 11  1  0  0  0  0
 44 45  1  0  0  0  0
 18 21  1  0  0  0  0
 34 35  1  0  0  0  0
  7  8  1  0  0  0  0
 17 18  1  0  0  0  0
 24 32  1  0  0  0  0
 25 33  1  0  0  0  0
  3  4  1  0  0  0  0
  3  5  1  0  0  0  0
  3  6  1  0  0  0  0
 38 41  1  0  0  0  0
 38 42  1  0  0  0  0
 38 43  1  0  0  0  0
 11 14  1  0  0  0  0
 11 15  1  0  0  0  0
 11 16  1  0  0  0  0
 45 47  1  0  0  0  0
 45 48  1  0  0  0  0
 45 49  1  0  0  0  0
 21 29  1  0  0  0  0
 21 30  1  0  0  0  0
 35 40  1  0  0  0  0
  8 13  1  0  0  0  0
 18 28  1  0  0  0  0
 23 31  1  0  0  0  0
 44 46  1  0  0  0  0
  7 12  1  0  0  0  0
 34 39  1  0  0  0  0
 17 27  1  0  0  0  0
M  END
$$$$

  -OEChem-05262214473D

 49 49  0     1  0  0  0  0  0999 V2000
   -1.5619    0.5658    3.7981 C   0  0  0  0  0  0  0  0  0  0  0  0
   -0.6145   -0.0489    3.3224 O   0  0  0  0  0  0  0  0  0  0  0  0
   -1.9938    0.2834    5.1988 C   0  0  0  0  0  0  0  0  0  0  0  0
   -2.7535   -0.5129    5.2522 H   0  0  0  0  0  0  0  0  0  0  0  0
   -1.1626   -0.0642    5.8331 H   0  0  0  0  0  0  0  0  0  0  0  0
   -2.4318    1.1383    5.7384 H   0  0  0  0  0  0  0  0  0  0  0  0
   -2.3116    1.5383    3.1570 N   0  0  0  0  0  0  0  0  0  0  0  0
   -2.0648    1.9643    1.8046 C   0  0  2  0  0  0  0  0  0  0  0  0
   -0.7298    1.3789    1.3634 C   0  0  0  0  0  0  0  0  0  0  0  0
    0.1423    1.0262    2.1547 O   0  0  0  0  0  0  0  0  0  0  0  0
   -2.0560    3.4811    1.6952 C   0  0  0  0  0  0  0  0  0  0  0  0
   -3.0767    1.9741    3.6688 H   0  0  0  0  0  0  0  0  0  0  0  0
   -2.8689    1.5458    1.1895 H   0  0  0  0  0  0  0  0  0  0  0  0
   -1.2569    3.9183    2.3049 H   0  0  0  0  0  0  0  0  0  0  0  0
   -1.8965    3.8033    0.6609 H   0  0  0  0  0  0  0  0  0  0  0  0
   -3.0062    3.9023    2.0409 H   0  0  0  0  0  0  0  0  0  0  0  0
   -0.6071    1.3358   -0.0200 N   0  0  0  0  0  0  0  0  0  0  0  0
    0.5702    0.8350   -0.6836 C   0  0  2  0  0  0  0  0  0  0  0  0
    0.2250   -0.5439   -1.2348 C   0  0  0  0  0  0  0  0  0  0  0  0
    0.5904   -1.5887   -0.7003 O   0  0  0  0  0  0  0  0  0  0  0  0
    1.7737    0.7451    0.2617 C   0  0  0  0  0  0  0  0  0  0  0  0
    2.2149    2.0942    0.7746 C   0  0  0  0  0  0  0  0  0  0  0  0
    2.9018    2.9894    0.0040 N   0  0  0  0  0  0  0  0  0  0  0  0
    2.0703    2.7160    1.9924 C   0  0  0  0  0  0  0  0  0  0  0  0
    3.1402    4.0943    0.7732 C   0  0  0  0  0  0  0  0  0  0  0  0
    2.6482    3.9609    1.9849 N   0  0  0  0  0  0  0  0  0  0  0  0
   -1.3903    1.6325   -0.5973 H   0  0  0  0  0  0  0  0  0  0  0  0
    0.7710    1.5156   -1.5194 H   0  0  0  0  0  0  0  0  0  0  0  0
    2.6148    0.2474   -0.2396 H   0  0  0  0  0  0  0  0  0  0  0  0
    1.5364    0.1098    1.1253 H   0  0  0  0  0  0  0  0  0  0  0  0
    3.1846    2.8608   -0.9587 H   0  0  0  0  0  0  0  0  0  0  0  0
    1.5798    2.3328    2.8758 H   0  0  0  0  0  0  0  0  0  0  0  0
    3.6732    4.9543    0.3933 H   0  0  0  0  0  0  0  0  0  0  0  0
   -0.5793   -0.4660   -2.3632 N   0  0  0  0  0  0  0  0  0  0  0  0
   -1.0698   -1.6274   -3.0699 C   0  0  2  0  0  0  0  0  0  0  0  0
    0.1127   -2.5491   -3.3377 C   0  0  0  0  0  0  0  0  0  0  0  0
    1.2771   -2.1560   -3.3636 O   0  0  0  0  0  0  0  0  0  0  0  0
   -1.7583   -1.2354   -4.3679 C   0  0  0  0  0  0  0  0  0  0  0  0
   -0.8362    0.4536   -2.7099 H   0  0  0  0  0  0  0  0  0  0  0  0
   -1.7796   -2.1275   -2.4020 H   0  0  0  0  0  0  0  0  0  0  0  0
   -1.0628   -0.7328   -5.0500 H   0  0  0  0  0  0  0  0  0  0  0  0
   -2.1544   -2.1138   -4.8880 H   0  0  0  0  0  0  0  0  0  0  0  0
   -2.5900   -0.5489   -4.1761 H   0  0  0  0  0  0  0  0  0  0  0  0
   -0.2888   -3.8540   -3.5870 N   0  0  0  0  0  0  0  0  0  0  0  0
    0.6464   -4.9147   -3.8810 C   0  0  0  0  0  0  0  0  0  0  0  0
   -1.2739   -4.0940   -3.5260 H   0  0  0  0  0  0  0  0  0  0  0  0
    0.7760   -4.9985   -4.9701 H   0  0  0  0  0  0  0  0  0  0  0  0
    1.6158   -4.6889   -3.4128 H   0  0  0  0  0  0  0  0  0  0  0  0
    0.2597   -5.8648   -3.4837 H   0  0  0  0  0  0  0  0  0  0  0  0
 22 24  2  0  0  0  0
 24 26  1  0  0  0  0
 25 26  2  0  0  0  0
 23 25  1  0  0  0  0
 21 22  1  0  0  0  0
 22 23  1  0  0  0  0
  1  3  1  0  0  0  0
  1  7  1  0  0  0  0
  1  2  2  0  0  0  0
 35 36  1  0  0  0  0
 36 44  1  0  0  0  0
 36 37  2  0  0  0  0
  8  9  1  0  0  0  0
  9 17  1  0  0  0  0
  9 10  2  0  0  0  0
 18 19  1  0  0  0  0
 19 34  1  0  0  0  0
 19 20  2  0  0  0  0
 35 38  1  0  0  0  0
  8 11  1  0  0  0  0
 44 45  1  0  0  0  0
 18 21  1  0  0  0  0
 34 35  1  0  0  0  0
  7  8  1  0  0  0  0
 17 18  1  0  0  0  0
 24 32  1  0  0  0  0
 25 33  1  0  0  0  0
  3  4  1  0  0  0  0
  3  5  1  0  0  0  0
  3  6  1  0  0  0  0
 38 41  1  0  0  0  0
 38 42  1  0  0  0  0
 38 43  1  0  0  0  0
 11 14  1  0  0  0  0
 11 15  1  0  0  0  0
 11 16  1  0  0  0  0
 45 47  1  0  0  0  0
 45 48  1  0  0  0  0
 45 49  1  0  0  0  0
 21 29  1  0  0  0  0
 21 30  1  0  0  0  0
 35 40  1  0  0  0  0
  8 13  1  0  0  0  0
 18 28  1  0  0  0  0
 23 31  1  0  0  0  0
 44 46  1  0  0  0  0
  7 12  1  0  0  0  0
 34 39  1  0  0  0  0
 17 27  1  0  0  0  0
M  END
$$$$

  -OEChem-05262214473D

 49 49  0     1  0  0  0  0  0999 V2000
   -1.5619    0.5658    3.7981 C   0  0  0  0  0  0  0  0  0  0  0  0
   -0.6145   -0.0489    3.3224 O   0  0  0  0  0  0  0  0  0  0  0  0
   -1.9938    0.2834    5.1988 C   0  0  0  0  0  0  0  0  0  0  0  0
   -2.7535   -0.5129    5.2522 H   0  0  0  0  0  0  0  0  0  0  0  0
   -1.1626   -0.0642    5.8331 H   0  0  0  0  0  0  0  0  0  0  0  0
   -2.4318    1.1383    5.7384 H   0  0  0  0  0  0  0  0  0  0  0  0
   -2.3116    1.5383    3.1570 N   0  0  0  0  0  0  0  0  0  0  0  0
   -2.0648    1.9643    1.8046 C   0  0  2  0  0  0  0  0  0  0  0  0
   -0.7298    1.3789    1.3634 C   0  0  0  0  0  0  0  0  0  0  0  0
    0.1423    1.0262    2.1547 O   0  0  0  0  0  0  0  0  0  0  0  0
   -2.0560    3.4811    1.6952 C   0  0  0  0  0  0  0  0  0  0  0  0
   -3.0767    1.9741    3.6688 H   0  0  0  0  0  0  0  0  0  0  0  0
   -2.8689    1.5458    1.1895 H   0  0  0  0  0  0  0  0  0  0  0  0
   -1.2569    3.9183    2.3049 H   0  0  0  0  0  0  0  0  0  0  0  0
   -1.8965    3.8033    0.6609 H   0  0  0  0  0  0  0  0  0  0  0  0
   -3.0062    3.9023    2.0409 H   0  0  0  0  0  0  0  0  0  0  0  0
   -0.6071    1.3358   -0.0200 N   0  0  0  0  0  0  0  0  0  0  0  0
    0.5702    0.8350   -0.6836 C   0  0  2  0  0  0  0  0  0  0  0  0
    0.2250   -0.5439   -1.2348 C   0  0  0  0  0  0  0  0  0  0  0  0
    0.3499   -1.5766   -0.5800 O   0  0  0  0  0  0  0  0  0  0  0  0
    1.7737    0.7451    0.2617 C   0  0  0  0  0  0  0  0  0  0  0  0
    2.2149    2.0942    0.7746 C   0  0  0  0  0  0  0  0  0  0  0  0
    2.9018    2.9894    0.0040 N   0  0  0  0  0  0  0  0  0  0  0  0
    2.0703    2.7160    1.9924 C   0  0  0  0  0  0  0  0  0  0  0  0
    3.1402    4.0943    0.7732 C   0  0  0  0  0  0  0  0  0  0  0  0
    2.6482    3.9609    1.9849 N   0  0  0  0  0  0  0  0  0  0  0  0
   -1.3903    1.6325   -0.5973 H   0  0  0  0  0  0  0  0  0  0  0  0
    0.7710    1.5156   -1.5194 H   0  0  0  0  0  0  0  0  0  0  0  0
    2.6148    0.2474   -0.2396 H   0  0  0  0  0  0  0  0  0  0  0  0
    1.5364    0.1098    1.1253 H   0  0  0  0  0  0  0  0  0  0  0  0
    3.1846    2.8608   -0.9587 H   0  0  0  0  0  0  0  0  0  0  0  0
    1.5798    2.3328    2.8758 H   0  0  0  0  0  0  0  0  0  0  0  0
    3.6732    4.9543    0.3933 H   0  0  0  0  0  0  0  0  0  0  0  0
   -0.2845   -0.4755   -2.5241 N   0  0  0  0  0  0  0  0  0  0  0  0
   -0.7124   -1.6365   -3.2708 C   0  0  2  0  0  0  0  0  0  0  0  0
    0.4011   -2.6735   -3.2068 C   0  0  0  0  0  0  0  0  0  0  0  0
    1.5734   -2.3856   -2.9748 O   0  0  0  0  0  0  0  0  0  0  0  0
   -1.0390   -1.2778   -4.7122 C   0  0  0  0  0  0  0  0  0  0  0  0
   -0.3604    0.4365   -2.9649 H   0  0  0  0  0  0  0  0  0  0  0  0
   -1.6040   -2.0255   -2.7671 H   0  0  0  0  0  0  0  0  0  0  0  0
   -0.1577   -0.8862   -5.2331 H   0  0  0  0  0  0  0  0  0  0  0  0
   -1.3903   -2.1528   -5.2689 H   0  0  0  0  0  0  0  0  0  0  0  0
   -1.8192   -0.5102   -4.7556 H   0  0  0  0  0  0  0  0  0  0  0  0
   -0.0609   -3.9530   -3.4820 N   0  0  0  0  0  0  0  0  0  0  0  0
    0.8053   -5.1086   -3.4954 C   0  0  0  0  0  0  0  0  0  0  0  0
   -1.0524   -4.1020   -3.6447 H   0  0  0  0  0  0  0  0  0  0  0  0
    1.1743   -5.2791   -4.5176 H   0  0  0  0  0  0  0  0  0  0  0  0
    1.6578   -4.9355   -2.8221 H   0  0  0  0  0  0  0  0  0  0  0  0
    0.2438   -5.9916   -3.1564 H   0  0  0  0  0  0  0  0  0  0  0  0
 22 24  2  0  0  0  0
 24 26  1  0  0  0  0
 25 26  2  0  0  0  0
 23 25  1  0  0  0  0
 21 22  1  0  0  0  0
 22 23  1  0  0  0  0
  1  3  1  0  0  0  0
  1  7  1  0  0  0  0
  1  2  2  0  0  0  0
 35 36  1  0  0  0  0
 36 44  1  0  0  0  0
 36 37  2  0  0  0  0
  8  9  1  0  0  0  0
  9 17  1  0  0  0  0
  9 10  2  0  0  0  0
 18 19  1  0  0  0  0
 19 34  1  0  0  0  0
 19 20  2  0  0  0  0
 35 38  1  0  0  0  0
  8 11  1  0  0  0  0
 44 45  1  0  0  0  0
 18 21  1  0  0  0  0
 34 35  1  0  0  0  0
  7  8  1  0  0  0  0
 17 18  1  0  0  0  0
 24 32  1  0  0  0  0
 25 33  1  0  0  0  0
  3  4  1  0  0  0  0
  3  5  1  0  0  0  0
  3  6  1  0  0  0  0
 38 41  1  0  0  0  0
 38 42  1  0  0  0  0
 38 43  1  0  0  0  0
 11 14  1  0  0  0  0
 11 15  1  0  0  0  0
 11 16  1  0  0  0  0
 45 47  1  0  0  0  0
 45 48  1  0  0  0  0
 45 49  1  0  0  0  0
 21 29  1  0  0  0  0
 21 30  1  0  0  0  0
 35 40  1  0  0  0  0
  8 13  1  0  0  0  0
 18 28  1  0  0  0  0
 23 31  1  0  0  0  0
 44 46  1  0  0  0  0
  7 12  1  0  0  0  0
 34 39  1  0  0  0  0
 17 27  1  0  0  0  0
M  END
$$$$

  -OEChem-05262214473D

 49 49  0     1  0  0  0  0  0999 V2000
   -1.5619    0.5658    3.7981 C   0  0  0  0  0  0  0  0  0  0  0  0
   -0.6145   -0.0489    3.3224 O   0  0  0  0  0  0  0  0  0  0  0  0
   -1.9938    0.2834    5.1988 C   0  0  0  0  0  0  0  0  0  0  0  0
   -2.7535   -0.5129    5.2522 H   0  0  0  0  0  0  0  0  0  0  0  0
   -1.1626   -0.0642    5.8331 H   0  0  0  0  0  0  0  0  0  0  0  0
   -2.4318    1.1383    5.7384 H   0  0  0  0  0  0  0  0  0  0  0  0
   -2.3116    1.5383    3.1570 N   0  0  0  0  0  0  0  0  0  0  0  0
   -2.0648    1.9643    1.8046 C   0  0  2  0  0  0  0  0  0  0  0  0
   -0.7298    1.3789    1.3634 C   0  0  0  0  0  0  0  0  0  0  0  0
    0.1423    1.0262    2.1547 O   0  0  0  0  0  0  0  0  0  0  0  0
   -2.0560    3.4811    1.6952 C   0  0  0  0  0  0  0  0  0  0  0  0
   -3.0767    1.9741    3.6688 H   0  0  0  0  0  0  0  0  0  0  0  0
   -2.8689    1.5458    1.1895 H   0  0  0  0  0  0  0  0  0  0  0  0
   -1.2569    3.9183    2.3049 H   0  0  0  0  0  0  0  0  0  0  0  0
   -1.8965    3.8033    0.6609 H   0  0  0  0  0  0  0  0  0  0  0  0
   -3.0062    3.9023    2.0409 H   0  0  0  0  0  0  0  0  0  0  0  0
   -0.6071    1.3358   -0.0200 N   0  0  0  0  0  0  0  0  0  0  0  0
    0.5702    0.8350   -0.6836 C   0  0  2  0  0  0  0  0  0  0  0  0
    0.2250   -0.5439   -1.2348 C   0  0  0  0  0  0  0  0  0  0  0  0
    0.0906   -1.5354   -0.5208 O   0  0  0  0  0  0  0  0  0  0  0  0
    1.7737    0.7451    0.2617 C   0  0  0  0  0  0  0  0  0  0  0  0
    2.2149    2.0942    0.7746 C   0  0  0  0  0  0  0  0  0  0  0  0
    2.9018    2.9894    0.0040 N   0  0  0  0  0  0  0  0  0  0  0  0
    2.0703    2.7160    1.9924 C   0  0  0  0  0  0  0  0  0  0  0  0
    3.1402    4.0943    0.7732 C   0  0  0  0  0  0  0  0  0  0  0  0
    2.6482    3.9609    1.9849 N   0  0  0  0  0  0  0  0  0  0  0  0
   -1.3903    1.6325   -0.5973 H   0  0  0  0  0  0  0  0  0  0  0  0
    0.7710    1.5156   -1.5194 H   0  0  0  0  0  0  0  0  0  0  0  0
    2.6148    0.2474   -0.2396 H   0  0  0  0  0  0  0  0  0  0  0  0
    1.5364    0.1098    1.1253 H   0  0  0  0  0  0  0  0  0  0  0  0
    3.1846    2.8608   -0.9587 H   0  0  0  0  0  0  0  0  0  0  0  0
    1.5798    2.3328    2.8758 H   0  0  0  0  0  0  0  0  0  0  0  0
    3.6732    4.9543    0.3933 H   0  0  0  0  0  0  0  0  0  0  0  0
    0.0371   -0.5217   -2.6098 N   0  0  0  0  0  0  0  0  0  0  0  0
   -0.3211   -1.6905   -3.3807 C   0  0  2  0  0  0  0  0  0  0  0  0
    0.6374   -2.8131   -3.0057 C   0  0  0  0  0  0  0  0  0  0  0  0
    1.7471   -2.6122   -2.5165 O   0  0  0  0  0  0  0  0  0  0  0  0
   -0.2676   -1.4063   -4.8738 C   0  0  0  0  0  0  0  0  0  0  0  0
    0.1573    0.3604   -3.0989 H   0  0  0  0  0  0  0  0  0  0  0  0
   -1.3394   -1.9648   -3.0847 H   0  0  0  0  0  0  0  0  0  0  0  0
    0.7451   -1.1297   -5.1891 H   0  0  0  0  0  0  0  0  0  0  0  0
   -0.5668   -2.2843   -5.4557 H   0  0  0  0  0  0  0  0  0  0  0  0
   -0.9353   -0.5789   -5.1371 H   0  0  0  0  0  0  0  0  0  0  0  0
    0.1253   -4.0638   -3.3214 N   0  0  0  0  0  0  0  0  0  0  0  0
    0.8505   -5.2882   -3.0744 C   0  0  0  0  0  0  0  0  0  0  0  0
   -0.8115   -4.1374   -3.7071 H   0  0  0  0  0  0  0  0  0  0  0  0
    1.4268   -5.5608   -3.9708 H   0  0  0  0  0  0  0  0  0  0  0  0
    1.5371   -5.1430   -2.2273 H   0  0  0  0  0  0  0  0  0  0  0  0
    0.1399   -6.0934   -2.8365 H   0  0  0  0  0  0  0  0  0  0  0  0
 22 24  2  0  0  0  0
 24 26  1  0  0  0  0
 25 26  2  0  0  0  0
 23 25  1  0  0  0  0
 21 22  1  0  0  0  0
 22 23  1  0  0  0  0
  1  3  1  0  0  0  0
  1  7  1  0  0  0  0
  1  2  2  0  0  0  0
 35 36  1  0  0  0  0
 36 44  1  0  0  0  0
 36 37  2  0  0  0  0
  8  9  1  0  0  0  0
  9 17  1  0  0  0  0
  9 10  2  0  0  0  0
 18 19  1  0  0  0  0
 19 34  1  0  0  0  0
 19 20  2  0  0  0  0
 35 38  1  0  0  0  0
  8 11  1  0  0  0  0
 44 45  1  0  0  0  0
 18 21  1  0  0  0  0
 34 35  1  0  0  0  0
  7  8  1  0  0  0  0
 17 18  1  0  0  0  0
 24 32  1  0  0  0  0
 25 33  1  0  0  0  0
  3  4  1  0  0  0  0
  3  5  1  0  0  0  0
  3  6  1  0  0  0  0
 38 41  1  0  0  0  0
 38 42  1  0  0  0  0
 38 43  1  0  0  0  0
 11 14  1  0  0  0  0
 11 15  1  0  0  0  0
 11 16  1  0  0  0  0
 45 47  1  0  0  0  0
 45 48  1  0  0  0  0
 45 49  1  0  0  0  0
 21 29  1  0  0  0  0
 21 30  1  0  0  0  0
 35 40  1  0  0  0  0
  8 13  1  0  0  0  0
 18 28  1  0  0  0  0
 23 31  1  0  0  0  0
 44 46  1  0  0  0  0
  7 12  1  0  0  0  0
 34 39  1  0  0  0  0
 17 27  1  0  0  0  0
M  END
$$$$

  -OEChem-05262214473D

 49 49  0     1  0  0  0  0  0999 V2000
   -1.5619    0.5658    3.7981 C   0  0  0  0  0  0  0  0  0  0  0  0
   -0.6145   -0.0489    3.3224 O   0  0  0  0  0  0  0  0  0  0  0  0
   -1.9938    0.2834    5.1988 C   0  0  0  0  0  0  0  0  0  0  0  0
   -2.7535   -0.5129    5.2522 H   0  0  0  0  0  0  0  0  0  0  0  0
   -1.1626   -0.0642    5.8331 H   0  0  0  0  0  0  0  0  0  0  0  0
   -2.4318    1.1383    5.7384 H   0  0  0  0  0  0  0  0  0  0  0  0
   -2.3116    1.5383    3.1570 N   0  0  0  0  0  0  0  0  0  0  0  0
   -2.0648    1.9643    1.8046 C   0  0  2  0  0  0  0  0  0  0  0  0
   -0.7298    1.3789    1.3634 C   0  0  0  0  0  0  0  0  0  0  0  0
    0.1423    1.0262    2.1547 O   0  0  0  0  0  0  0  0  0  0  0  0
   -2.0560    3.4811    1.6952 C   0  0  0  0  0  0  0  0  0  0  0  0
   -3.0767    1.9741    3.6688 H   0  0  0  0  0  0  0  0  0  0  0  0
   -2.8689    1.5458    1.1895 H   0  0  0  0  0  0  0  0  0  0  0  0
   -1.2569    3.9183    2.3049 H   0  0  0  0  0  0  0  0  0  0  0  0
   -1.8965    3.8033    0.6609 H   0  0  0  0  0  0  0  0  0  0  0  0
   -3.0062    3.9023    2.0409 H   0  0  0  0  0  0  0  0  0  0  0  0
   -0.6071    1.3358   -0.0200 N   0  0  0  0  0  0  0  0  0  0  0  0
    0.5702    0.8350   -0.6836 C   0  0  2  0  0  0  0  0  0  0  0  0
    0.2250   -0.5439   -1.2348 C   0  0  0  0  0  0  0  0  0  0  0  0
   -0.1699   -1.4678   -0.5268 O   0  0  0  0  0  0  0  0  0  0  0  0
    1.7737    0.7451    0.2617 C   0  0  0  0  0  0  0  0  0  0  0  0
    2.2149    2.0942    0.7746 C   0  0  0  0  0  0  0  0  0  0  0  0
    2.9018    2.9894    0.0040 N   0  0  0  0  0  0  0  0  0  0  0  0
    2.0703    2.7160    1.9924 C   0  0  0  0  0  0  0  0  0  0  0  0
    3.1402    4.0943    0.7732 C   0  0  0  0  0  0  0  0  0  0  0  0
    2.6482    3.9609    1.9849 N   0  0  0  0  0  0  0  0  0  0  0  0
   -1.3903    1.6325   -0.5973 H   0  0  0  0  0  0  0  0  0  0  0  0
    0.7710    1.5156   -1.5194 H   0  0  0  0  0  0  0  0  0  0  0  0
    2.6148    0.2474   -0.2396 H   0  0  0  0  0  0  0  0  0  0  0  0
    1.5364    0.1098    1.1253 H   0  0  0  0  0  0  0  0  0  0  0  0
    3.1846    2.8608   -0.9587 H   0  0  0  0  0  0  0  0  0  0  0  0
    1.5798    2.3328    2.8758 H   0  0  0  0  0  0  0  0  0  0  0  0
    3.6732    4.9543    0.3933 H   0  0  0  0  0  0  0  0  0  0  0  0
    0.3634   -0.6014   -2.6147 N   0  0  0  0  0  0  0  0  0  0  0  0
    0.0777   -1.7858   -3.3921 C   0  0  2  0  0  0  0  0  0  0  0  0
    0.8055   -2.9582   -2.7479 C   0  0  0  0  0  0  0  0  0  0  0  0
    1.7864   -2.8206   -2.0198 O   0  0  0  0  0  0  0  0  0  0  0  0
    0.5033   -1.6120   -4.8417 C   0  0  0  0  0  0  0  0  0  0  0  0
    0.6816    0.2307   -3.1026 H   0  0  0  0  0  0  0  0  0  0  0  0
   -1.0039   -1.9495   -3.3331 H   0  0  0  0  0  0  0  0  0  0  0  0
    1.5840   -1.4468   -4.9210 H   0  0  0  0  0  0  0  0  0  0  0  0
    0.2602   -2.4993   -5.4357 H   0  0  0  0  0  0  0  0  0  0  0  0
    0.0013   -0.7503   -5.2947 H   0  0  0  0  0  0  0  0  0  0  0  0
    0.2573   -4.1789   -3.1162 N   0  0  0  0  0  0  0  0  0  0  0  0
    0.7788   -5.4412   -2.6466 C   0  0  0  0  0  0  0  0  0  0  0  0
   -0.5674   -4.1977   -3.7089 H   0  0  0  0  0  0  0  0  0  0  0  0
    1.5163   -5.8246   -3.3670 H   0  0  0  0  0  0  0  0  0  0  0  0
    1.2619   -5.2973   -1.6689 H   0  0  0  0  0  0  0  0  0  0  0  0
   -0.0449   -6.1634   -2.5459 H   0  0  0  0  0  0  0  0  0  0  0  0
 22 24  2  0  0  0  0
 24 26  1  0  0  0  0
 25 26  2  0  0  0  0
 23 25  1  0  0  0  0
 21 22  1  0  0  0  0
 22 23  1  0  0  0  0
  1  3  1  0  0  0  0
  1  7  1  0  0  0  0
  1  2  2  0  0  0  0
 35 36  1  0  0  0  0
 36 44  1  0  0  0  0
 36 37  2  0  0  0  0
  8  9  1  0  0  0  0
  9 17  1  0  0  0  0
  9 10  2  0  0  0  0
 18 19  1  0  0  0  0
 19 34  1  0  0  0  0
 19 20  2  0  0  0  0
 35 38  1  0  0  0  0
  8 11  1  0  0  0  0
 44 45  1  0  0  0  0
 18 21  1  0  0  0  0
 34 35  1  0  0  0  0
  7  8  1  0  0  0  0
 17 18  1  0  0  0  0
 24 32  1  0  0  0  0
 25 33  1  0  0  0  0
  3  4  1  0  0  0  0
  3  5  1  0  0  0  0
  3  6  1  0  0  0  0
 38 41  1  0  0  0  0
 38 42  1  0  0  0  0
 38 43  1  0  0  0  0
 11 14  1  0  0  0  0
 11 15  1  0  0  0  0
 11 16  1  0  0  0  0
 45 47  1  0  0  0  0
 45 48  1  0  0  0  0
 45 49  1  0  0  0  0
 21 29  1  0  0  0  0
 21 30  1  0  0  0  0
 35 40  1  0  0  0  0
  8 13  1  0  0  0  0
 18 28  1  0  0  0  0
 23 31  1  0  0  0  0
 44 46  1  0  0  0  0
  7 12  1  0  0  0  0
 34 39  1  0  0  0  0
 17 27  1  0  0  0  0
M  END
$$$$

  -OEChem-05262214473D

 49 49  0     1  0  0  0  0  0999 V2000
   -1.5619    0.5658    3.7981 C   0  0  0  0  0  0  0  0  0  0  0  0
   -0.6145   -0.0489    3.3224 O   0  0  0  0  0  0  0  0  0  0  0  0
   -1.9938    0.2834    5.1988 C   0  0  0  0  0  0  0  0  0  0  0  0
   -2.7535   -0.5129    5.2522 H   0  0  0  0  0  0  0  0  0  0  0  0
   -1.1626   -0.0642    5.8331 H   0  0  0  0  0  0  0  0  0  0  0  0
   -2.4318    1.1383    5.7384 H   0  0  0  0  0  0  0  0  0  0  0  0
   -2.3116    1.5383    3.1570 N   0  0  0  0  0  0  0  0  0  0  0  0
   -2.0648    1.9643    1.8046 C   0  0  2  0  0  0  0  0  0  0  0  0
   -0.7298    1.3789    1.3634 C   0  0  0  0  0  0  0  0  0  0  0  0
    0.1423    1.0262    2.1547 O   0  0  0  0  0  0  0  0  0  0  0  0
   -2.0560    3.4811    1.6952 C   0  0  0  0  0  0  0  0  0  0  0  0
   -3.0767    1.9741    3.6688 H   0  0  0  0  0  0  0  0  0  0  0  0
   -2.8689    1.5458    1.1895 H   0  0  0  0  0  0  0  0  0  0  0  0
   -1.2569    3.9183    2.3049 H   0  0  0  0  0  0  0  0  0  0  0  0
   -1.8965    3.8033    0.6609 H   0  0  0  0  0  0  0  0  0  0  0  0
   -3.0062    3.9023    2.0409 H   0  0  0  0  0  0  0  0  0  0  0  0
   -0.6071    1.3358   -0.0200 N   0  0  0  0  0  0  0  0  0  0  0  0
    0.5702    0.8350   -0.6836 C   0  0  2  0  0  0  0  0  0  0  0  0
    0.2250   -0.5439   -1.2348 C   0  0  0  0  0  0  0  0  0  0  0  0
   -0.4138   -1.3785   -0.5975 O   0  0  0  0  0  0  0  0  0  0  0  0
    1.7737    0.7451    0.2617 C   0  0  0  0  0  0  0  0  0  0  0  0
    2.2149    2.0942    0.7746 C   0  0  0  0  0  0  0  0  0  0  0  0
    2.9018    2.9894    0.0040 N   0  0  0  0  0  0  0  0  0  0  0  0
    2.0703    2.7160    1.9924 C   0  0  0  0  0  0  0  0  0  0  0  0
    3.1402    4.0943    0.7732 C   0  0  0  0  0  0  0  0  0  0  0  0
    2.6482    3.9609    1.9849 N   0  0  0  0  0  0  0  0  0  0  0  0
   -1.3903    1.6325   -0.5973 H   0  0  0  0  0  0  0  0  0  0  0  0
    0.7710    1.5156   -1.5194 H   0  0  0  0  0  0  0  0  0  0  0  0
    2.6148    0.2474   -0.2396 H   0  0  0  0  0  0  0  0  0  0  0  0
    1.5364    0.1098    1.1253 H   0  0  0  0  0  0  0  0  0  0  0  0
    3.1846    2.8608   -0.9587 H   0  0  0  0  0  0  0  0  0  0  0  0
    1.5798    2.3328    2.8758 H   0  0  0  0  0  0  0  0  0  0  0  0
    3.6732    4.9543    0.3933 H   0  0  0  0  0  0  0  0  0  0  0  0
    0.6723   -0.7093   -2.5383 N   0  0  0  0  0  0  0  0  0  0  0  0
    0.4566   -1.9157   -3.3042 C   0  0  2  0  0  0  0  0  0  0  0  0
    0.8940   -3.0990   -2.4510 C   0  0  0  0  0  0  0  0  0  0  0  0
    1.6886   -2.9964   -1.5187 O   0  0  0  0  0  0  0  0  0  0  0  0
    1.2212   -1.8810   -4.6183 C   0  0  0  0  0  0  0  0  0  0  0  0
    1.1767    0.0561   -2.9759 H   0  0  0  0  0  0  0  0  0  0  0  0
   -0.6201   -1.9807   -3.4953 H   0  0  0  0  0  0  0  0  0  0  0  0
    2.3019   -1.8160   -4.4470 H   0  0  0  0  0  0  0  0  0  0  0  0
    1.0341   -2.7831   -5.2102 H   0  0  0  0  0  0  0  0  0  0  0  0
    0.9268   -1.0128   -5.2177 H   0  0  0  0  0  0  0  0  0  0  0  0
    0.3259   -4.2903   -2.8803 N   0  0  0  0  0  0  0  0  0  0  0  0
    0.5950   -5.5572   -2.2412 C   0  0  0  0  0  0  0  0  0  0  0  0
   -0.3369   -4.2790   -3.6499 H   0  0  0  0  0  0  0  0  0  0  0  0
    1.4368   -6.0523   -2.7474 H   0  0  0  0  0  0  0  0  0  0  0  0
    0.8508   -5.3879   -1.1849 H   0  0  0  0  0  0  0  0  0  0  0  0
   -0.2979   -6.1966   -2.3044 H   0  0  0  0  0  0  0  0  0  0  0  0
 22 24  2  0  0  0  0
 24 26  1  0  0  0  0
 25 26  2  0  0  0  0
 23 25  1  0  0  0  0
 21 22  1  0  0  0  0
 22 23  1  0  0  0  0
  1  3  1  0  0  0  0
  1  7  1  0  0  0  0
  1  2  2  0  0  0  0
 35 36  1  0  0  0  0
 36 44  1  0  0  0  0
 36 37  2  0  0  0  0
  8  9  1  0  0  0  0
  9 17  1  0  0  0  0
  9 10  2  0  0  0  0
 18 19  1  0  0  0  0
 19 34  1  0  0  0  0
 19 20  2  0  0  0  0
 35 38  1  0  0  0  0
  8 11  1  0  0  0  0
 44 45  1  0  0  0  0
 18 21  1  0  0  0  0
 34 35  1  0  0  0  0
  7  8  1  0  0  0  0
 17 18  1  0  0  0  0
 24 32  1  0  0  0  0
 25 33  1  0  0  0  0
  3  4  1  0  0  0  0
  3  5  1  0  0  0  0
  3  6  1  0  0  0  0
 38 41  1  0  0  0  0
 38 42  1  0  0  0  0
 38 43  1  0  0  0  0
 11 14  1  0  0  0  0
 11 15  1  0  0  0  0
 11 16  1  0  0  0  0
 45 47  1  0  0  0  0
 45 48  1  0  0  0  0
 45 49  1  0  0  0  0
 21 29  1  0  0  0  0
 21 30  1  0  0  0  0
 35 40  1  0  0  0  0
  8 13  1  0  0  0  0
 18 28  1  0  0  0  0
 23 31  1  0  0  0  0
 44 46  1  0  0  0  0
  7 12  1  0  0  0  0
 34 39  1  0  0  0  0
 17 27  1  0  0  0  0
M  END
$$$$

  -OEChem-05262214473D

 49 49  0     1  0  0  0  0  0999 V2000
   -1.5619    0.5658    3.7981 C   0  0  0  0  0  0  0  0  0  0  0  0
   -0.6145   -0.0489    3.3224 O   0  0  0  0  0  0  0  0  0  0  0  0
   -1.9938    0.2834    5.1988 C   0  0  0  0  0  0  0  0  0  0  0  0
   -2.7535   -0.5129    5.2522 H   0  0  0  0  0  0  0  0  0  0  0  0
   -1.1626   -0.0642    5.8331 H   0  0  0  0  0  0  0  0  0  0  0  0
   -2.4318    1.1383    5.7384 H   0  0  0  0  0  0  0  0  0  0  0  0
   -2.3116    1.5383    3.1570 N   0  0  0  0  0  0  0  0  0  0  0  0
   -2.0648    1.9643    1.8046 C   0  0  2  0  0  0  0  0  0  0  0  0
   -0.7298    1.3789    1.3634 C   0  0  0  0  0  0  0  0  0  0  0  0
    0.1423    1.0262    2.1547 O   0  0  0  0  0  0  0  0  0  0  0  0
   -2.0560    3.4811    1.6952 C   0  0  0  0  0  0  0  0  0  0  0  0
   -3.0767    1.9741    3.6688 H   0  0  0  0  0  0  0  0  0  0  0  0
   -2.8689    1.5458    1.1895 H   0  0  0  0  0  0  0  0  0  0  0  0
   -1.2569    3.9183    2.3049 H   0  0  0  0  0  0  0  0  0  0  0  0
   -1.8965    3.8033    0.6609 H   0  0  0  0  0  0  0  0  0  0  0  0
   -3.0062    3.9023    2.0409 H   0  0  0  0  0  0  0  0  0  0  0  0
   -0.6071    1.3358   -0.0200 N   0  0  0  0  0  0  0  0  0  0  0  0
    0.5702    0.8350   -0.6836 C   0  0  2  0  0  0  0  0  0  0  0  0
    0.2250   -0.5439   -1.2348 C   0  0  0  0  0  0  0  0  0  0  0  0
   -0.6245   -1.2736   -0.7281 O   0  0  0  0  0  0  0  0  0  0  0  0
    1.7737    0.7451    0.2617 C   0  0  0  0  0  0  0  0  0  0  0  0
    2.2149    2.0942    0.7746 C   0  0  0  0  0  0  0  0  0  0  0  0
    2.9018    2.9894    0.0040 N   0  0  0  0  0  0  0  0  0  0  0  0
    2.0703    2.7160    1.9924 C   0  0  0  0  0  0  0  0  0  0  0  0
    3.1402    4.0943    0.7732 C   0  0  0  0  0  0  0  0  0  0  0  0
    2.6482    3.9609    1.9849 N   0  0  0  0  0  0  0  0  0  0  0  0
   -1.3903    1.6325   -0.5973 H   0  0  0  0  0  0  0  0  0  0  0  0
    0.7710    1.5156   -1.5194 H   0  0  0  0  0  0  0  0  0  0  0  0
    2.6148    0.2474   -0.2396 H   0  0  0  0  0  0  0  0  0  0  0  0
    1.5364    0.1098    1.1253 H   0  0  0  0  0  0  0  0  0  0  0  0
    3.1846    2.8608   -0.9587 H   0  0  0  0  0  0  0  0  0  0  0  0
    1.5798    2.3328    2.8758 H   0  0  0  0  0  0  0  0  0  0  0  0
    3.6732    4.9543    0.3933 H   0  0  0  0  0  0  0  0  0  0  0  0
    0.9427   -0.8379   -2.3859 N   0  0  0  0  0  0  0  0  0  0  0  0
    0.7898   -2.0716   -3.1230 C   0  0  2  0  0  0  0  0  0  0  0  0
    0.8968   -3.2259   -2.1353 C   0  0  0  0  0  0  0  0  0  0  0  0
    1.4603   -3.1277   -1.0472 O   0  0  0  0  0  0  0  0  0  0  0  0
    1.8372   -2.1950   -4.2187 C   0  0  0  0  0  0  0  0  0  0  0  0
    1.6090   -0.1514   -2.7274 H   0  0  0  0  0  0  0  0  0  0  0  0
   -0.2144   -2.0563   -3.5604 H   0  0  0  0  0  0  0  0  0  0  0  0
    2.8499   -2.2119   -3.7996 H   0  0  0  0  0  0  0  0  0  0  0  0
    1.7023   -3.1165   -4.7945 H   0  0  0  0  0  0  0  0  0  0  0  0
    1.7782   -1.3484   -4.9112 H   0  0  0  0  0  0  0  0  0  0  0  0
    0.3266   -4.3906   -2.6299 N   0  0  0  0  0  0  0  0  0  0  0  0
    0.3118   -5.6284   -1.8859 C   0  0  0  0  0  0  0  0  0  0  0  0
   -0.1356   -4.3756   -3.5343 H   0  0  0  0  0  0  0  0  0  0  0  0
    1.1937   -6.2286   -2.1542 H   0  0  0  0  0  0  0  0  0  0  0  0
    0.3320   -5.4086   -0.8083 H   0  0  0  0  0  0  0  0  0  0  0  0
   -0.6019   -6.1908   -2.1283 H   0  0  0  0  0  0  0  0  0  0  0  0
 22 24  2  0  0  0  0
 24 26  1  0  0  0  0
 25 26  2  0  0  0  0
 23 25  1  0  0  0  0
 21 22  1  0  0  0  0
 22 23  1  0  0  0  0
  1  3  1  0  0  0  0
  1  7  1  0  0  0  0
  1  2  2  0  0  0  0
 35 36  1  0  0  0  0
 36 44  1  0  0  0  0
 36 37  2  0  0  0  0
  8  9  1  0  0  0  0
  9 17  1  0  0  0  0
  9 10  2  0  0  0  0
 18 19  1  0  0  0  0
 19 34  1  0  0  0  0
 19 20  2  0  0  0  0
 35 38  1  0  0  0  0
  8 11  1  0  0  0  0
 44 45  1  0  0  0  0
 18 21  1  0  0  0  0
 34 35  1  0  0  0  0
  7  8  1  0  0  0  0
 17 18  1  0  0  0  0
 24 32  1  0  0  0  0
 25 33  1  0  0  0  0
  3  4  1  0  0  0  0
  3  5  1  0  0  0  0
  3  6  1  0  0  0  0
 38 41  1  0  0  0  0
 38 42  1  0  0  0  0
 38 43  1  0  0  0  0
 11 14  1  0  0  0  0
 11 15  1  0  0  0  0
 11 16  1  0  0  0  0
 45 47  1  0  0  0  0
 45 48  1  0  0  0  0
 45 49  1  0  0  0  0
 21 29  1  0  0  0  0
 21 30  1  0  0  0  0
 35 40  1  0  0  0  0
  8 13  1  0  0  0  0
 18 28  1  0  0  0  0
 23 31  1  0  0  0  0
 44 46  1  0  0  0  0
  7 12  1  0  0  0  0
 34 39  1  0  0  0  0
 17 27  1  0  0  0  0
M  END
$$$$

  -OEChem-05262214473D

 49 49  0     1  0  0  0  0  0999 V2000
   -1.5619    0.5658    3.7981 C   0  0  0  0  0  0  0  0  0  0  0  0
   -0.6145   -0.0489    3.3224 O   0  0  0  0  0  0  0  0  0  0  0  0
   -1.9938    0.2834    5.1988 C   0  0  0  0  0  0  0  0  0  0  0  0
   -2.7535   -0.5129    5.2522 H   0  0  0  0  0  0  0  0  0  0  0  0
   -1.1626   -0.0642    5.8331 H   0  0  0  0  0  0  0  0  0  0  0  0
   -2.4318    1.1383    5.7384 H   0  0  0  0  0  0  0  0  0  0  0  0
   -2.3116    1.5383    3.1570 N   0  0  0  0  0  0  0  0  0  0  0  0
   -2.0648    1.9643    1.8046 C   0  0  2  0  0  0  0  0  0  0  0  0
   -0.7298    1.3789    1.3634 C   0  0  0  0  0  0  0  0  0  0  0  0
    0.1423    1.0262    2.1547 O   0  0  0  0  0  0  0  0  0  0  0  0
   -2.0560    3.4811    1.6952 C   0  0  0  0  0  0  0  0  0  0  0  0
   -3.0767    1.9741    3.6688 H   0  0  0  0  0  0  0  0  0  0  0  0
   -2.8689    1.5458    1.1895 H   0  0  0  0  0  0  0  0  0  0  0  0
   -1.2569    3.9183    2.3049 H   0  0  0  0  0  0  0  0  0  0  0  0
   -1.8965    3.8033    0.6609 H   0  0  0  0  0  0  0  0  0  0  0  0
   -3.0062    3.9023    2.0409 H   0  0  0  0  0  0  0  0  0  0  0  0
   -0.6071    1.3358   -0.0200 N   0  0  0  0  0  0  0  0  0  0  0  0
    0.5702    0.8350   -0.6836 C   0  0  2  0  0  0  0  0  0  0  0  0
    0.2250   -0.5439   -1.2348 C   0  0  0  0  0  0  0  0  0  0  0  0
   -0.7876   -1.1601   -0.9097 O   0  0  0  0  0  0  0  0  0  0  0  0
    1.7737    0.7451    0.2617 C   0  0  0  0  0  0  0  0  0  0  0  0
    2.2149    2.0942    0.7746 C   0  0  0  0  0  0  0  0  0  0  0  0
    2.9018    2.9894    0.0040 N   0  0  0  0  0  0  0  0  0  0  0  0
    2.0703    2.7160    1.9924 C   0  0  0  0  0  0  0  0  0  0  0  0
    3.1402    4.0943    0.7732 C   0  0  0  0  0  0  0  0  0  0  0  0
    2.6482    3.9609    1.9849 N   0  0  0  0  0  0  0  0  0  0  0  0
   -1.3903    1.6325   -0.5973 H   0  0  0  0  0  0  0  0  0  0  0  0
    0.7710    1.5156   -1.5194 H   0  0  0  0  0  0  0  0  0  0  0  0
    2.6148    0.2474   -0.2396 H   0  0  0  0  0  0  0  0  0  0  0  0
    1.5364    0.1098    1.1253 H   0  0  0  0  0  0  0  0  0  0  0  0
    3.1846    2.8608   -0.9587 H   0  0  0  0  0  0  0  0  0  0  0  0
    1.5798    2.3328    2.8758 H   0  0  0  0  0  0  0  0  0  0  0  0
    3.6732    4.9543    0.3933 H   0  0  0  0  0  0  0  0  0  0  0  0
    1.1562   -0.9785   -2.1678 N   0  0  0  0  0  0  0  0  0  0  0  0
    1.0547   -2.2427   -2.8608 C   0  0  2  0  0  0  0  0  0  0  0  0
    0.8137   -3.3302   -1.8222 C   0  0  0  0  0  0  0  0  0  0  0  0
    1.1172   -3.2056   -0.6376 O   0  0  0  0  0  0  0  0  0  0  0  0
    2.3092   -2.5324   -3.6701 C   0  0  0  0  0  0  0  0  0  0  0  0
    1.9489   -0.3778   -2.3739 H   0  0  0  0  0  0  0  0  0  0  0  0
    0.1856   -2.1710   -3.5238 H   0  0  0  0  0  0  0  0  0  0  0  0
    3.1905   -2.6077   -3.0227 H   0  0  0  0  0  0  0  0  0  0  0  0
    2.2193   -3.4767   -4.2171 H   0  0  0  0  0  0  0  0  0  0  0  0
    2.4975   -1.7343   -4.3962 H   0  0  0  0  0  0  0  0  0  0  0  0
    0.2592   -4.4728   -2.3820 N   0  0  0  0  0  0  0  0  0  0  0  0
   -0.0516   -5.6498   -1.6048 C   0  0  0  0  0  0  0  0  0  0  0  0
    0.0226   -4.4810   -3.3698 H   0  0  0  0  0  0  0  0  0  0  0  0
    0.8035   -6.3414   -1.6277 H   0  0  0  0  0  0  0  0  0  0  0  0
   -0.2592   -5.3579   -0.5648 H   0  0  0  0  0  0  0  0  0  0  0  0
   -0.9363   -6.1465   -2.0298 H   0  0  0  0  0  0  0  0  0  0  0  0
 22 24  2  0  0  0  0
 24 26  1  0  0  0  0
 25 26  2  0  0  0  0
 23 25  1  0  0  0  0
 21 22  1  0  0  0  0
 22 23  1  0  0  0  0
  1  3  1  0  0  0  0
  1  7  1  0  0  0  0
  1  2  2  0  0  0  0
 35 36  1  0  0  0  0
 36 44  1  0  0  0  0
 36 37  2  0  0  0  0
  8  9  1  0  0  0  0
  9 17  1  0  0  0  0
  9 10  2  0  0  0  0
 18 19  1  0  0  0  0
 19 34  1  0  0  0  0
 19 20  2  0  0  0  0
 35 38  1  0  0  0  0
  8 11  1  0  0  0  0
 44 45  1  0  0  0  0
 18 21  1  0  0  0  0
 34 35  1  0  0  0  0
  7  8  1  0  0  0  0
 17 18  1  0  0  0  0
 24 32  1  0  0  0  0
 25 33  1  0  0  0  0
  3  4  1  0  0  0  0
  3  5  1  0  0  0  0
  3  6  1  0  0  0  0
 38 41  1  0  0  0  0
 38 42  1  0  0  0  0
 38 43  1  0  0  0  0
 11 14  1  0  0  0  0
 11 15  1  0  0  0  0
 11 16  1  0  0  0  0
 45 47  1  0  0  0  0
 45 48  1  0  0  0  0
 45 49  1  0  0  0  0
 21 29  1  0  0  0  0
 21 30  1  0  0  0  0
 35 40  1  0  0  0  0
  8 13  1  0  0  0  0
 18 28  1  0  0  0  0
 23 31  1  0  0  0  0
 44 46  1  0  0  0  0
  7 12  1  0  0  0  0
 34 39  1  0  0  0  0
 17 27  1  0  0  0  0
M  END
$$$$

  -OEChem-05262214473D

 49 49  0     1  0  0  0  0  0999 V2000
   -1.5619    0.5658    3.7981 C   0  0  0  0  0  0  0  0  0  0  0  0
   -0.6145   -0.0489    3.3224 O   0  0  0  0  0  0  0  0  0  0  0  0
   -1.9938    0.2834    5.1988 C   0  0  0  0  0  0  0  0  0  0  0  0
   -2.7535   -0.5129    5.2522 H   0  0  0  0  0  0  0  0  0  0  0  0
   -1.1626   -0.0642    5.8331 H   0  0  0  0  0  0  0  0  0  0  0  0
   -2.4318    1.1383    5.7384 H   0  0  0  0  0  0  0  0  0  0  0  0
   -2.3116    1.5383    3.1570 N   0  0  0  0  0  0  0  0  0  0  0  0
   -2.0648    1.9643    1.8046 C   0  0  2  0  0  0  0  0  0  0  0  0
   -0.7298    1.3789    1.3634 C   0  0  0  0  0  0  0  0  0  0  0  0
    0.1423    1.0262    2.1547 O   0  0  0  0  0  0  0  0  0  0  0  0
   -2.0560    3.4811    1.6952 C   0  0  0  0  0  0  0  0  0  0  0  0
   -3.0767    1.9741    3.6688 H   0  0  0  0  0  0  0  0  0  0  0  0
   -2.8689    1.5458    1.1895 H   0  0  0  0  0  0  0  0  0  0  0  0
   -1.2569    3.9183    2.3049 H   0  0  0  0  0  0  0  0  0  0  0  0
   -1.8965    3.8033    0.6609 H   0  0  0  0  0  0  0  0  0  0  0  0
   -3.0062    3.9023    2.0409 H   0  0  0  0  0  0  0  0  0  0  0  0
   -0.6071    1.3358   -0.0200 N   0  0  0  0  0  0  0  0  0  0  0  0
    0.5702    0.8350   -0.6836 C   0  0  2  0  0  0  0  0  0  0  0  0
    0.1346   -0.3446   -1.5456 C   0  0  0  0  0  0  0  0  0  0  0  0
   -1.0356   -0.7093   -1.6387 O   0  0  0  0  0  0  0  0  0  0  0  0
    1.6530    0.3980    0.3096 C   0  0  0  0  0  0  0  0  0  0  0  0
    2.1843    1.5442    1.1354 C   0  0  0  0  0  0  0  0  0  0  0  0
    3.0406    2.4828    0.6325 N   0  0  0  0  0  0  0  0  0  0  0  0
    1.9844    1.9152    2.4442 C   0  0  0  0  0  0  0  0  0  0  0  0
    3.3183    3.3654    1.6391 C   0  0  0  0  0  0  0  0  0  0  0  0
    2.6928    3.0498    2.7514 N   0  0  0  0  0  0  0  0  0  0  0  0
   -1.3903    1.6325   -0.5973 H   0  0  0  0  0  0  0  0  0  0  0  0
    0.9291    1.6415   -1.3339 H   0  0  0  0  0  0  0  0  0  0  0  0
    2.4816   -0.0900   -0.2213 H   0  0  0  0  0  0  0  0  0  0  0  0
    1.2602   -0.3656    0.9939 H   0  0  0  0  0  0  0  0  0  0  0  0
    3.4051    2.5199   -0.3104 H   0  0  0  0  0  0  0  0  0  0  0  0
    1.3666    1.4247    3.1829 H   0  0  0  0  0  0  0  0  0  0  0  0
    3.9784    4.2092    1.4970 H   0  0  0  0  0  0  0  0  0  0  0  0
    1.2006   -0.9063   -2.2345 N   0  0  0  0  0  0  0  0  0  0  0  0
    1.0597   -2.0240   -3.1400 C   0  0  2  0  0  0  0  0  0  0  0  0
    0.2724   -3.1132   -2.4237 C   0  0  0  0  0  0  0  0  0  0  0  0
    0.1992   -3.1930   -1.1992 O   0  0  0  0  0  0  0  0  0  0  0  0
    2.4154   -2.5424   -3.5941 C   0  0  0  0  0  0  0  0  0  0  0  0
    2.1263   -0.5122   -2.0952 H   0  0  0  0  0  0  0  0  0  0  0  0
    0.4857   -1.6634   -4.0005 H   0  0  0  0  0  0  0  0  0  0  0  0
    3.0050   -2.9080   -2.7454 H   0  0  0  0  0  0  0  0  0  0  0  0
    2.3065   -3.3706   -4.3021 H   0  0  0  0  0  0  0  0  0  0  0  0
    2.9921   -1.7497   -4.0826 H   0  0  0  0  0  0  0  0  0  0  0  0
   -0.3032   -4.0110   -3.3119 N   0  0  0  0  0  0  0  0  0  0  0  0
   -1.0902   -5.1414   -2.8775 C   0  0  0  0  0  0  0  0  0  0  0  0
   -0.2065   -3.8567   -4.3112 H   0  0  0  0  0  0  0  0  0  0  0  0
   -0.4411   -6.0237   -2.7768 H   0  0  0  0  0  0  0  0  0  0  0  0
   -1.5532   -4.9141   -1.9060 H   0  0  0  0  0  0  0  0  0  0  0  0
   -1.8762   -5.3474   -3.6190 H   0  0  0  0  0  0  0  0  0  0  0  0
 22 24  2  0  0  0  0
 24 26  1  0  0  0  0
 25 26  2  0  0  0  0
 23 25  1  0  0  0  0
 21 22  1  0  0  0  0
 22 23  1  0  0  0  0
  1  3  1  0  0  0  0
  1  7  1  0  0  0  0
  1  2  2  0  0  0  0
 35 36  1  0  0  0  0
 36 44  1  0  0  0  0
 36 37  2  0  0  0  0
  8  9  1  0  0  0  0
  9 17  1  0  0  0  0
  9 10  2  0  0  0  0
 18 19  1  0  0  0  0
 19 34  1  0  0  0  0
 19 20  2  0  0  0  0
 35 38  1  0  0  0  0
  8 11  1  0  0  0  0
 44 45  1  0  0  0  0
 18 21  1  0  0  0  0
 34 35  1  0  0  0  0
  7  8  1  0  0  0  0
 17 18  1  0  0  0  0
 24 32  1  0  0  0  0
 25 33  1  0  0  0  0
  3  4  1  0  0  0  0
  3  5  1  0  0  0  0
  3  6  1  0  0  0  0
 38 41  1  0  0  0  0
 38 42  1  0  0  0  0
 38 43  1  0  0  0  0
 11 14  1  0  0  0  0
 11 15  1  0  0  0  0
 11 16  1  0  0  0  0
 45 47  1  0  0  0  0
 45 48  1  0  0  0  0
 45 49  1  0  0  0  0
 21 29  1  0  0  0  0
 21 30  1  0  0  0  0
 35 40  1  0  0  0  0
  8 13  1  0  0  0  0
 18 28  1  0  0  0  0
 23 31  1  0  0  0  0
 44 46  1  0  0  0  0
  7 12  1  0  0  0  0
 34 39  1  0  0  0  0
 17 27  1  0  0  0  0
M  END
$$$$

  -OEChem-05262214473D

 49 49  0     1  0  0  0  0  0999 V2000
   -1.5619    0.5658    3.7981 C   0  0  0  0  0  0  0  0  0  0  0  0
   -0.6145   -0.0489    3.3224 O   0  0  0  0  0  0  0  0  0  0  0  0
   -1.9938    0.2834    5.1988 C   0  0  0  0  0  0  0  0  0  0  0  0
   -2.7535   -0.5129    5.2522 H   0  0  0  0  0  0  0  0  0  0  0  0
   -1.1626   -0.0642    5.8331 H   0  0  0  0  0  0  0  0  0  0  0  0
   -2.4318    1.1383    5.7384 H   0  0  0  0  0  0  0  0  0  0  0  0
   -2.3116    1.5383    3.1570 N   0  0  0  0  0  0  0  0  0  0  0  0
   -2.0648    1.9643    1.8046 C   0  0  2  0  0  0  0  0  0  0  0  0
   -0.7298    1.3789    1.3634 C   0  0  0  0  0  0  0  0  0  0  0  0
    0.1423    1.0262    2.1547 O   0  0  0  0  0  0  0  0  0  0  0  0
   -2.0560    3.4811    1.6952 C   0  0  0  0  0  0  0  0  0  0  0  0
   -3.0767    1.9741    3.6688 H   0  0  0  0  0  0  0  0  0  0  0  0
   -2.8689    1.5458    1.1895 H   0  0  0  0  0  0  0  0  0  0  0  0
   -1.2569    3.9183    2.3049 H   0  0  0  0  0  0  0  0  0  0  0  0
   -1.8965    3.8033    0.6609 H   0  0  0  0  0  0  0  0  0  0  0  0
   -3.0062    3.9023    2.0409 H   0  0  0  0  0  0  0  0  0  0  0  0
   -0.6071    1.3358   -0.0200 N   0  0  0  0  0  0  0  0  0  0  0  0
    0.5702    0.8350   -0.6836 C   0  0  2  0  0  0  0  0  0  0  0  0
    0.1346   -0.3446   -1.5456 C   0  0  0  0  0  0  0  0  0  0  0  0
   -1.0369   -0.5501   -1.8558 O   0  0  0  0  0  0  0  0  0  0  0  0
    1.6530    0.3980    0.3096 C   0  0  0  0  0  0  0  0  0  0  0  0
    2.1843    1.5442    1.1354 C   0  0  0  0  0  0  0  0  0  0  0  0
    3.0406    2.4828    0.6325 N   0  0  0  0  0  0  0  0  0  0  0  0
    1.9844    1.9152    2.4442 C   0  0  0  0  0  0  0  0  0  0  0  0
    3.3183    3.3654    1.6391 C   0  0  0  0  0  0  0  0  0  0  0  0
    2.6928    3.0498    2.7514 N   0  0  0  0  0  0  0  0  0  0  0  0
   -1.3903    1.6325   -0.5973 H   0  0  0  0  0  0  0  0  0  0  0  0
    0.9291    1.6415   -1.3339 H   0  0  0  0  0  0  0  0  0  0  0  0
    2.4816   -0.0900   -0.2213 H   0  0  0  0  0  0  0  0  0  0  0  0
    1.2602   -0.3656    0.9939 H   0  0  0  0  0  0  0  0  0  0  0  0
    3.4051    2.5199   -0.3104 H   0  0  0  0  0  0  0  0  0  0  0  0
    1.3666    1.4247    3.1829 H   0  0  0  0  0  0  0  0  0  0  0  0
    3.9784    4.2092    1.4970 H   0  0  0  0  0  0  0  0  0  0  0  0
    1.2149   -1.1078   -1.9660 N   0  0  0  0  0  0  0  0  0  0  0  0
    1.0829   -2.2711   -2.8135 C   0  0  2  0  0  0  0  0  0  0  0  0
    0.0131   -3.1725   -2.2115 C   0  0  0  0  0  0  0  0  0  0  0  0
   -0.3086   -3.1322   -1.0258 O   0  0  0  0  0  0  0  0  0  0  0  0
    2.4047   -3.0110   -2.9475 C   0  0  0  0  0  0  0  0  0  0  0  0
    2.1452   -0.8352   -1.6627 H   0  0  0  0  0  0  0  0  0  0  0  0
    0.7498   -1.9122   -3.7935 H   0  0  0  0  0  0  0  0  0  0  0  0
    2.7544   -3.3780   -1.9757 H   0  0  0  0  0  0  0  0  0  0  0  0
    2.3098   -3.8756   -3.6126 H   0  0  0  0  0  0  0  0  0  0  0  0
    3.1806   -2.3525   -3.3528 H   0  0  0  0  0  0  0  0  0  0  0  0
   -0.5097   -4.0570   -3.1446 N   0  0  0  0  0  0  0  0  0  0  0  0
   -1.5306   -5.0242   -2.8155 C   0  0  0  0  0  0  0  0  0  0  0  0
   -0.1976   -4.0071   -4.1099 H   0  0  0  0  0  0  0  0  0  0  0  0
   -1.0572   -5.9755   -2.5314 H   0  0  0  0  0  0  0  0  0  0  0  0
   -2.1333   -4.6493   -1.9751 H   0  0  0  0  0  0  0  0  0  0  0  0
   -2.1793   -5.1841   -3.6893 H   0  0  0  0  0  0  0  0  0  0  0  0
 22 24  2  0  0  0  0
 24 26  1  0  0  0  0
 25 26  2  0  0  0  0
 23 25  1  0  0  0  0
 21 22  1  0  0  0  0
 22 23  1  0  0  0  0
  1  3  1  0  0  0  0
  1  7  1  0  0  0  0
  1  2  2  0  0  0  0
 35 36  1  0  0  0  0
 36 44  1  0  0  0  0
 36 37  2  0  0  0  0
  8  9  1  0  0  0  0
  9 17  1  0  0  0  0
  9 10  2  0  0  0  0
 18 19  1  0  0  0  0
 19 34  1  0  0  0  0
 19 20  2  0  0  0  0
 35 38  1  0  0  0  0
  8 11  1  0  0  0  0
 44 45  1  0  0  0  0
 18 21  1  0  0  0  0
 34 35  1  0  0  0  0
  7  8  1  0  0  0  0
 17 18  1  0  0  0  0
 24 32  1  0  0  0  0
 25 33  1  0  0  0  0
  3  4  1  0  0  0  0
  3  5  1  0  0  0  0
  3  6  1  0  0  0  0
 38 41  1  0  0  0  0
 38 42  1  0  0  0  0
 38 43  1  0  0  0  0
 11 14  1  0  0  0  0
 11 15  1  0  0  0  0
 11 16  1  0  0  0  0
 45 47  1  0  0  0  0
 45 48  1  0  0  0  0
 45 49  1  0  0  0  0
 21 29  1  0  0  0  0
 21 30  1  0  0  0  0
 35 40  1  0  0  0  0
  8 13  1  0  0  0  0
 18 28  1  0  0  0  0
 23 31  1  0  0  0  0
 44 46  1  0  0  0  0
  7 12  1  0  0  0  0
 34 39  1  0  0  0  0
 17 27  1  0  0  0  0
M  END
$$$$

  -OEChem-05262214473D

 49 49  0     1  0  0  0  0  0999 V2000
   -1.5619    0.5658    3.7981 C   0  0  0  0  0  0  0  0  0  0  0  0
   -0.6145   -0.0489    3.3224 O   0  0  0  0  0  0  0  0  0  0  0  0
   -1.9938    0.2834    5.1988 C   0  0  0  0  0  0  0  0  0  0  0  0
   -2.7535   -0.5129    5.2522 H   0  0  0  0  0  0  0  0  0  0  0  0
   -1.1626   -0.0642    5.8331 H   0  0  0  0  0  0  0  0  0  0  0  0
   -2.4318    1.1383    5.7384 H   0  0  0  0  0  0  0  0  0  0  0  0
   -2.3116    1.5383    3.1570 N   0  0  0  0  0  0  0  0  0  0  0  0
   -2.0648    1.9643    1.8046 C   0  0  2  0  0  0  0  0  0  0  0  0
   -0.7298    1.3789    1.3634 C   0  0  0  0  0  0  0  0  0  0  0  0
    0.1423    1.0262    2.1547 O   0  0  0  0  0  0  0  0  0  0  0  0
   -2.0560    3.4811    1.6952 C   0  0  0  0  0  0  0  0  0  0  0  0
   -3.0767    1.9741    3.6688 H   0  0  0  0  0  0  0  0  0  0  0  0
   -2.8689    1.5458    1.1895 H   0  0  0  0  0  0  0  0  0  0  0  0
   -1.2569    3.9183    2.3049 H   0  0  0  0  0  0  0  0  0  0  0  0
   -1.8965    3.8033    0.6609 H   0  0  0  0  0  0  0  0  0  0  0  0
   -3.0062    3.9023    2.0409 H   0  0  0  0  0  0  0  0  0  0  0  0
   -0.6071    1.3358   -0.0200 N   0  0  0  0  0  0  0  0  0  0  0  0
    0.5702    0.8350   -0.6836 C   0  0  2  0  0  0  0  0  0  0  0  0
    0.1346   -0.3446   -1.5456 C   0  0  0  0  0  0  0  0  0  0  0  0
   -0.9715   -0.4123   -2.0775 O   0  0  0  0  0  0  0  0  0  0  0  0
    1.6530    0.3980    0.3096 C   0  0  0  0  0  0  0  0  0  0  0  0
    2.1843    1.5442    1.1354 C   0  0  0  0  0  0  0  0  0  0  0  0
    3.0406    2.4828    0.6325 N   0  0  0  0  0  0  0  0  0  0  0  0
    1.9844    1.9152    2.4442 C   0  0  0  0  0  0  0  0  0  0  0  0
    3.3183    3.3654    1.6391 C   0  0  0  0  0  0  0  0  0  0  0  0
    2.6928    3.0498    2.7514 N   0  0  0  0  0  0  0  0  0  0  0  0
   -1.3903    1.6325   -0.5973 H   0  0  0  0  0  0  0  0  0  0  0  0
    0.9291    1.6415   -1.3339 H   0  0  0  0  0  0  0  0  0  0  0  0
    2.4816   -0.0900   -0.2213 H   0  0  0  0  0  0  0  0  0  0  0  0
    1.2602   -0.3656    0.9939 H   0  0  0  0  0  0  0  0  0  0  0  0
    3.4051    2.5199   -0.3104 H   0  0  0  0  0  0  0  0  0  0  0  0
    1.3666    1.4247    3.1829 H   0  0  0  0  0  0  0  0  0  0  0  0
    3.9784    4.2092    1.4970 H   0  0  0  0  0  0  0  0  0  0  0  0
    1.1456   -1.2847   -1.6889 N   0  0  0  0  0  0  0  0  0  0  0  0
    1.0037   -2.4890   -2.4752 C   0  0  2  0  0  0  0  0  0  0  0  0
   -0.2886   -3.1761   -2.0541 C   0  0  0  0  0  0  0  0  0  0  0  0
   -0.8250   -2.9863   -0.9644 O   0  0  0  0  0  0  0  0  0  0  0  0
    2.1964   -3.4142   -2.2905 C   0  0  0  0  0  0  0  0  0  0  0  0
    2.0296   -1.1179   -1.2173 H   0  0  0  0  0  0  0  0  0  0  0  0
    0.9271   -2.1759   -3.5222 H   0  0  0  0  0  0  0  0  0  0  0  0
    2.2894   -3.7384   -1.2475 H   0  0  0  0  0  0  0  0  0  0  0  0
    2.1009   -4.3129   -2.9087 H   0  0  0  0  0  0  0  0  0  0  0  0
    3.1283   -2.9085   -2.5656 H   0  0  0  0  0  0  0  0  0  0  0  0
   -0.7493   -4.0589   -3.0209 N   0  0  0  0  0  0  0  0  0  0  0  0
   -1.9512   -4.8418   -2.8524 C   0  0  0  0  0  0  0  0  0  0  0  0
   -0.2514   -4.1387   -3.9026 H   0  0  0  0  0  0  0  0  0  0  0  0
   -1.6944   -5.8207   -2.4213 H   0  0  0  0  0  0  0  0  0  0  0  0
   -2.6411   -4.3138   -2.1776 H   0  0  0  0  0  0  0  0  0  0  0  0
   -2.4340   -4.9872   -3.8300 H   0  0  0  0  0  0  0  0  0  0  0  0
 22 24  2  0  0  0  0
 24 26  1  0  0  0  0
 25 26  2  0  0  0  0
 23 25  1  0  0  0  0
 21 22  1  0  0  0  0
 22 23  1  0  0  0  0
  1  3  1  0  0  0  0
  1  7  1  0  0  0  0
  1  2  2  0  0  0  0
 35 36  1  0  0  0  0
 36 44  1  0  0  0  0
 36 37  2  0  0  0  0
  8  9  1  0  0  0  0
  9 17  1  0  0  0  0
  9 10  2  0  0  0  0
 18 19  1  0  0  0  0
 19 34  1  0  0  0  0
 19 20  2  0  0  0  0
 35 38  1  0  0  0  0
  8 11  1  0  0  0  0
 44 45  1  0  0  0  0
 18 21  1  0  0  0  0
 34 35  1  0  0  0  0
  7  8  1  0  0  0  0
 17 18  1  0  0  0  0
 24 32  1  0  0  0  0
 25 33  1  0  0  0  0
  3  4  1  0  0  0  0
  3  5  1  0  0  0  0
  3  6  1  0  0  0  0
 38 41  1  0  0  0  0
 38 42  1  0  0  0  0
 38 43  1  0  0  0  0
 11 14  1  0  0  0  0
 11 15  1  0  0  0  0
 11 16  1  0  0  0  0
 45 47  1  0  0  0  0
 45 48  1  0  0  0  0
 45 49  1  0  0  0  0
 21 29  1  0  0  0  0
 21 30  1  0  0  0  0
 35 40  1  0  0  0  0
  8 13  1  0  0  0  0
 18 28  1  0  0  0  0
 23 31  1  0  0  0  0
 44 46  1  0  0  0  0
  7 12  1  0  0  0  0
 34 39  1  0  0  0  0
 17 27  1  0  0  0  0
M  END
$$$$

  -OEChem-05262214473D

 49 49  0     1  0  0  0  0  0999 V2000
   -1.5619    0.5658    3.7981 C   0  0  0  0  0  0  0  0  0  0  0  0
   -0.6145   -0.0489    3.3224 O   0  0  0  0  0  0  0  0  0  0  0  0
   -1.9938    0.2834    5.1988 C   0  0  0  0  0  0  0  0  0  0  0  0
   -2.7535   -0.5129    5.2522 H   0  0  0  0  0  0  0  0  0  0  0  0
   -1.1626   -0.0642    5.8331 H   0  0  0  0  0  0  0  0  0  0  0  0
   -2.4318    1.1383    5.7384 H   0  0  0  0  0  0  0  0  0  0  0  0
   -2.3116    1.5383    3.1570 N   0  0  0  0  0  0  0  0  0  0  0  0
   -2.0648    1.9643    1.8046 C   0  0  2  0  0  0  0  0  0  0  0  0
   -0.7298    1.3789    1.3634 C   0  0  0  0  0  0  0  0  0  0  0  0
    0.1423    1.0262    2.1547 O   0  0  0  0  0  0  0  0  0  0  0  0
   -2.0560    3.4811    1.6952 C   0  0  0  0  0  0  0  0  0  0  0  0
   -3.0767    1.9741    3.6688 H   0  0  0  0  0  0  0  0  0  0  0  0
   -2.8689    1.5458    1.1895 H   0  0  0  0  0  0  0  0  0  0  0  0
   -1.2569    3.9183    2.3049 H   0  0  0  0  0  0  0  0  0  0  0  0
   -1.8965    3.8033    0.6609 H   0  0  0  0  0  0  0  0  0  0  0  0
   -3.0062    3.9023    2.0409 H   0  0  0  0  0  0  0  0  0  0  0  0
   -0.6071    1.3358   -0.0200 N   0  0  0  0  0  0  0  0  0  0  0  0
    0.5702    0.8350   -0.6836 C   0  0  2  0  0  0  0  0  0  0  0  0
    0.1346   -0.3446   -1.5456 C   0  0  0  0  0  0  0  0  0  0  0  0
   -0.8437   -0.3051   -2.2888 O   0  0  0  0  0  0  0  0  0  0  0  0
    1.6530    0.3980    0.3096 C   0  0  0  0  0  0  0  0  0  0  0  0
    2.1843    1.5442    1.1354 C   0  0  0  0  0  0  0  0  0  0  0  0
    3.0406    2.4828    0.6325 N   0  0  0  0  0  0  0  0  0  0  0  0
    1.9844    1.9152    2.4442 C   0  0  0  0  0  0  0  0  0  0  0  0
    3.3183    3.3654    1.6391 C   0  0  0  0  0  0  0  0  0  0  0  0
    2.6928    3.0498    2.7514 N   0  0  0  0  0  0  0  0  0  0  0  0
   -1.3903    1.6325   -0.5973 H   0  0  0  0  0  0  0  0  0  0  0  0
    0.9291    1.6415   -1.3339 H   0  0  0  0  0  0  0  0  0  0  0  0
    2.4816   -0.0900   -0.2213 H   0  0  0  0  0  0  0  0  0  0  0  0
    1.2602   -0.3656    0.9939 H   0  0  0  0  0  0  0  0  0  0  0  0
    3.4051    2.5199   -0.3104 H   0  0  0  0  0  0  0  0  0  0  0  0
    1.3666    1.4247    3.1829 H   0  0  0  0  0  0  0  0  0  0  0  0
    3.9784    4.2092    1.4970 H   0  0  0  0  0  0  0  0  0  0  0  0
    0.9971   -1.4249   -1.4221 N   0  0  0  0  0  0  0  0  0  0  0  0
    0.8275   -2.6629   -2.1482 C   0  0  2  0  0  0  0  0  0  0  0  0
   -0.6120   -3.1239   -1.9622 C   0  0  0  0  0  0  0  0  0  0  0  0
   -1.3146   -2.7654   -1.0194 O   0  0  0  0  0  0  0  0  0  0  0  0
    1.8046   -3.7246   -1.6677 C   0  0  0  0  0  0  0  0  0  0  0  0
    1.7874   -1.3412   -0.7894 H   0  0  0  0  0  0  0  0  0  0  0  0
    1.0055   -2.4365   -3.2052 H   0  0  0  0  0  0  0  0  0  0  0  0
    1.6417   -3.9646   -0.6107 H   0  0  0  0  0  0  0  0  0  0  0  0
    1.6942   -4.6527   -2.2382 H   0  0  0  0  0  0  0  0  0  0  0  0
    2.8387   -3.3796   -1.7746 H   0  0  0  0  0  0  0  0  0  0  0  0
   -1.0059   -4.0165   -2.9493 N   0  0  0  0  0  0  0  0  0  0  0  0
   -2.3235   -4.6069   -2.9857 C   0  0  0  0  0  0  0  0  0  0  0  0
   -0.3641   -4.2427   -3.7034 H   0  0  0  0  0  0  0  0  0  0  0  0
   -2.3092   -5.5697   -2.4540 H   0  0  0  0  0  0  0  0  0  0  0  0
   -3.0419   -3.9304   -2.4998 H   0  0  0  0  0  0  0  0  0  0  0  0
   -2.6232   -4.7702   -4.0315 H   0  0  0  0  0  0  0  0  0  0  0  0
 22 24  2  0  0  0  0
 24 26  1  0  0  0  0
 25 26  2  0  0  0  0
 23 25  1  0  0  0  0
 21 22  1  0  0  0  0
 22 23  1  0  0  0  0
  1  3  1  0  0  0  0
  1  7  1  0  0  0  0
  1  2  2  0  0  0  0
 35 36  1  0  0  0  0
 36 44  1  0  0  0  0
 36 37  2  0  0  0  0
  8  9  1  0  0  0  0
  9 17  1  0  0  0  0
  9 10  2  0  0  0  0
 18 19  1  0  0  0  0
 19 34  1  0  0  0  0
 19 20  2  0  0  0  0
 35 38  1  0  0  0  0
  8 11  1  0  0  0  0
 44 45  1  0  0  0  0
 18 21  1  0  0  0  0
 34 35  1  0  0  0  0
  7  8  1  0  0  0  0
 17 18  1  0  0  0  0
 24 32  1  0  0  0  0
 25 33  1  0  0  0  0
  3  4  1  0  0  0  0
  3  5  1  0  0  0  0
  3  6  1  0  0  0  0
 38 41  1  0  0  0  0
 38 42  1  0  0  0  0
 38 43  1  0  0  0  0
 11 14  1  0  0  0  0
 11 15  1  0  0  0  0
 11 16  1  0  0  0  0
 45 47  1  0  0  0  0
 45 48  1  0  0  0  0
 45 49  1  0  0  0  0
 21 29  1  0  0  0  0
 21 30  1  0  0  0  0
 35 40  1  0  0  0  0
  8 13  1  0  0  0  0
 18 28  1  0  0  0  0
 23 31  1  0  0  0  0
 44 46  1  0  0  0  0
  7 12  1  0  0  0  0
 34 39  1  0  0  0  0
 17 27  1  0  0  0  0
M  END
$$$$

  -OEChem-05262214473D

 49 49  0     1  0  0  0  0  0999 V2000
   -1.5619    0.5658    3.7981 C   0  0  0  0  0  0  0  0  0  0  0  0
   -0.6145   -0.0489    3.3224 O   0  0  0  0  0  0  0  0  0  0  0  0
   -1.9938    0.2834    5.1988 C   0  0  0  0  0  0  0  0  0  0  0  0
   -2.7535   -0.5129    5.2522 H   0  0  0  0  0  0  0  0  0  0  0  0
   -1.1626   -0.0642    5.8331 H   0  0  0  0  0  0  0  0  0  0  0  0
   -2.4318    1.1383    5.7384 H   0  0  0  0  0  0  0  0  0  0  0  0
   -2.3116    1.5383    3.1570 N   0  0  0  0  0  0  0  0  0  0  0  0
   -2.0648    1.9643    1.8046 C   0  0  2  0  0  0  0  0  0  0  0  0
   -0.7298    1.3789    1.3634 C   0  0  0  0  0  0  0  0  0  0  0  0
    0.1423    1.0262    2.1547 O   0  0  0  0  0  0  0  0  0  0  0  0
   -2.0560    3.4811    1.6952 C   0  0  0  0  0  0  0  0  0  0  0  0
   -3.0767    1.9741    3.6688 H   0  0  0  0  0  0  0  0  0  0  0  0
   -2.8689    1.5458    1.1895 H   0  0  0  0  0  0  0  0  0  0  0  0
   -1.2569    3.9183    2.3049 H   0  0  0  0  0  0  0  0  0  0  0  0
   -1.8965    3.8033    0.6609 H   0  0  0  0  0  0  0  0  0  0  0  0
   -3.0062    3.9023    2.0409 H   0  0  0  0  0  0  0  0  0  0  0  0
   -0.6071    1.3358   -0.0200 N   0  0  0  0  0  0  0  0  0  0  0  0
    0.5702    0.8350   -0.6836 C   0  0  2  0  0  0  0  0  0  0  0  0
    0.1346   -0.3446   -1.5456 C   0  0  0  0  0  0  0  0  0  0  0  0
   -0.6623   -0.2358   -2.4752 O   0  0  0  0  0  0  0  0  0  0  0  0
    1.6530    0.3980    0.3096 C   0  0  0  0  0  0  0  0  0  0  0  0
    2.1843    1.5442    1.1354 C   0  0  0  0  0  0  0  0  0  0  0  0
    3.0406    2.4828    0.6325 N   0  0  0  0  0  0  0  0  0  0  0  0
    1.9844    1.9152    2.4442 C   0  0  0  0  0  0  0  0  0  0  0  0
    3.3183    3.3654    1.6391 C   0  0  0  0  0  0  0  0  0  0  0  0
    2.6928    3.0498    2.7514 N   0  0  0  0  0  0  0  0  0  0  0  0
   -1.3903    1.6325   -0.5973 H   0  0  0  0  0  0  0  0  0  0  0  0
    0.9291    1.6415   -1.3339 H   0  0  0  0  0  0  0  0  0  0  0  0
    2.4816   -0.0900   -0.2213 H   0  0  0  0  0  0  0  0  0  0  0  0
    1.2602   -0.3656    0.9939 H   0  0  0  0  0  0  0  0  0  0  0  0
    3.4051    2.5199   -0.3104 H   0  0  0  0  0  0  0  0  0  0  0  0
    1.3666    1.4247    3.1829 H   0  0  0  0  0  0  0  0  0  0  0  0
    3.9784    4.2092    1.4970 H   0  0  0  0  0  0  0  0  0  0  0  0
    0.7798   -1.5189   -1.1836 N   0  0  0  0  0  0  0  0  0  0  0  0
    0.5665   -2.7810   -1.8548 C   0  0  2  0  0  0  0  0  0  0  0  0
   -0.9352   -3.0192   -1.9421 C   0  0  0  0  0  0  0  0  0  0  0  0
   -1.7443   -2.4843   -1.1868 O   0  0  0  0  0  0  0  0  0  0  0  0
    1.2560   -3.9210   -1.1217 C   0  0  0  0  0  0  0  0  0  0  0  0
    1.4350   -1.4898   -0.4080 H   0  0  0  0  0  0  0  0  0  0  0  0
    0.9795   -2.6763   -2.8640 H   0  0  0  0  0  0  0  0  0  0  0  0
    0.8554   -4.0412   -0.1085 H   0  0  0  0  0  0  0  0  0  0  0  0
    1.1174   -4.8718   -1.6469 H   0  0  0  0  0  0  0  0  0  0  0  0
    2.3317   -3.7338   -1.0337 H   0  0  0  0  0  0  0  0  0  0  0  0
   -1.2619   -3.9327   -2.9346 N   0  0  0  0  0  0  0  0  0  0  0  0
   -2.6220   -4.3354   -3.2065 C   0  0  0  0  0  0  0  0  0  0  0  0
   -0.5281   -4.3119   -3.5258 H   0  0  0  0  0  0  0  0  0  0  0  0
   -2.8599   -5.2398   -2.6273 H   0  0  0  0  0  0  0  0  0  0  0  0
   -3.3085   -3.5252   -2.9196 H   0  0  0  0  0  0  0  0  0  0  0  0
   -2.7337   -4.5477   -4.2800 H   0  0  0  0  0  0  0  0  0  0  0  0
 22 24  2  0  0  0  0
 24 26  1  0  0  0  0
 25 26  2  0  0  0  0
 23 25  1  0  0  0  0
 21 22  1  0  0  0  0
 22 23  1  0  0  0  0
  1  3  1  0  0  0  0
  1  7  1  0  0  0  0
  1  2  2  0  0  0  0
 35 36  1  0  0  0  0
 36 44  1  0  0  0  0
 36 37  2  0  0  0  0
  8  9  1  0  0  0  0
  9 17  1  0  0  0  0
  9 10  2  0  0  0  0
 18 19  1  0  0  0  0
 19 34  1  0  0  0  0
 19 20  2  0  0  0  0
 35 38  1  0  0  0  0
  8 11  1  0  0  0  0
 44 45  1  0  0  0  0
 18 21  1  0  0  0  0
 34 35  1  0  0  0  0
  7  8  1  0  0  0  0
 17 18  1  0  0  0  0
 24 32  1  0  0  0  0
 25 33  1  0  0  0  0
  3  4  1  0  0  0  0
  3  5  1  0  0  0  0
  3  6  1  0  0  0  0
 38 41  1  0  0  0  0
 38 42  1  0  0  0  0
 38 43  1  0  0  0  0
 11 14  1  0  0  0  0
 11 15  1  0  0  0  0
 11 16  1  0  0  0  0
 45 47  1  0  0  0  0
 45 48  1  0  0  0  0
 45 49  1  0  0  0  0
 21 29  1  0  0  0  0
 21 30  1  0  0  0  0
 35 40  1  0  0  0  0
  8 13  1  0  0  0  0
 18 28  1  0  0  0  0
 23 31  1  0  0  0  0
 44 46  1  0  0  0  0
  7 12  1  0  0  0  0
 34 39  1  0  0  0  0
 17 27  1  0  0  0  0
M  END
$$$$

  -OEChem-05262214473D

 49 49  0     1  0  0  0  0  0999 V2000
   -1.5619    0.5658    3.7981 C   0  0  0  0  0  0  0  0  0  0  0  0
   -0.6145   -0.0489    3.3224 O   0  0  0  0  0  0  0  0  0  0  0  0
   -1.9938    0.2834    5.1988 C   0  0  0  0  0  0  0  0  0  0  0  0
   -2.7535   -0.5129    5.2522 H   0  0  0  0  0  0  0  0  0  0  0  0
   -1.1626   -0.0642    5.8331 H   0  0  0  0  0  0  0  0  0  0  0  0
   -2.4318    1.1383    5.7384 H   0  0  0  0  0  0  0  0  0  0  0  0
   -2.3116    1.5383    3.1570 N   0  0  0  0  0  0  0  0  0  0  0  0
   -2.0648    1.9643    1.8046 C   0  0  2  0  0  0  0  0  0  0  0  0
   -0.7298    1.3789    1.3634 C   0  0  0  0  0  0  0  0  0  0  0  0
    0.1423    1.0262    2.1547 O   0  0  0  0  0  0  0  0  0  0  0  0
   -2.0560    3.4811    1.6952 C   0  0  0  0  0  0  0  0  0  0  0  0
   -3.0767    1.9741    3.6688 H   0  0  0  0  0  0  0  0  0  0  0  0
   -2.8689    1.5458    1.1895 H   0  0  0  0  0  0  0  0  0  0  0  0
   -1.2569    3.9183    2.3049 H   0  0  0  0  0  0  0  0  0  0  0  0
   -1.8965    3.8033    0.6609 H   0  0  0  0  0  0  0  0  0  0  0  0
   -3.0062    3.9023    2.0409 H   0  0  0  0  0  0  0  0  0  0  0  0
   -0.6071    1.3358   -0.0200 N   0  0  0  0  0  0  0  0  0  0  0  0
    0.5702    0.8350   -0.6836 C   0  0  2  0  0  0  0  0  0  0  0  0
    0.1346   -0.3446   -1.5456 C   0  0  0  0  0  0  0  0  0  0  0  0
   -0.4396   -0.2093   -2.6240 O   0  0  0  0  0  0  0  0  0  0  0  0
    1.6530    0.3980    0.3096 C   0  0  0  0  0  0  0  0  0  0  0  0
    2.1843    1.5442    1.1354 C   0  0  0  0  0  0  0  0  0  0  0  0
    3.0406    2.4828    0.6325 N   0  0  0  0  0  0  0  0  0  0  0  0
    1.9844    1.9152    2.4442 C   0  0  0  0  0  0  0  0  0  0  0  0
    3.3183    3.3654    1.6391 C   0  0  0  0  0  0  0  0  0  0  0  0
    2.6928    3.0498    2.7514 N   0  0  0  0  0  0  0  0  0  0  0  0
   -1.3903    1.6325   -0.5973 H   0  0  0  0  0  0  0  0  0  0  0  0
    0.9291    1.6415   -1.3339 H   0  0  0  0  0  0  0  0  0  0  0  0
    2.4816   -0.0900   -0.2213 H   0  0  0  0  0  0  0  0  0  0  0  0
    1.2602   -0.3656    0.9939 H   0  0  0  0  0  0  0  0  0  0  0  0
    3.4051    2.5199   -0.3104 H   0  0  0  0  0  0  0  0  0  0  0  0
    1.3666    1.4247    3.1829 H   0  0  0  0  0  0  0  0  0  0  0  0
    3.9784    4.2092    1.4970 H   0  0  0  0  0  0  0  0  0  0  0  0
    0.5085   -1.5602   -0.9899 N   0  0  0  0  0  0  0  0  0  0  0  0
    0.2383   -2.8351   -1.6149 C   0  0  2  0  0  0  0  0  0  0  0  0
   -1.2361   -2.8694   -1.9951 C   0  0  0  0  0  0  0  0  0  0  0  0
   -2.0846   -2.1624   -1.4554 O   0  0  0  0  0  0  0  0  0  0  0  0
    0.5880   -3.9901   -0.6896 C   0  0  0  0  0  0  0  0  0  0  0  0
    0.9965   -1.5536   -0.0991 H   0  0  0  0  0  0  0  0  0  0  0  0
    0.8510   -2.8788   -2.5219 H   0  0  0  0  0  0  0  0  0  0  0  0
   -0.0159   -3.9630    0.2247 H   0  0  0  0  0  0  0  0  0  0  0  0
    0.4097   -4.9553   -1.1750 H   0  0  0  0  0  0  0  0  0  0  0  0
    1.6417   -3.9469   -0.3934 H   0  0  0  0  0  0  0  0  0  0  0  0
   -1.4998   -3.8132   -2.9779 N   0  0  0  0  0  0  0  0  0  0  0  0
   -2.8263   -4.0458   -3.4996 C   0  0  0  0  0  0  0  0  0  0  0  0
   -0.7322   -4.3416   -3.3820 H   0  0  0  0  0  0  0  0  0  0  0  0
   -3.3088   -4.8533   -2.9293 H   0  0  0  0  0  0  0  0  0  0  0  0
   -3.4226   -3.1259   -3.4084 H   0  0  0  0  0  0  0  0  0  0  0  0
   -2.7582   -4.3351   -4.5586 H   0  0  0  0  0  0  0  0  0  0  0  0
 22 24  2  0  0  0  0
 24 26  1  0  0  0  0
 25 26  2  0  0  0  0
 23 25  1  0  0  0  0
 21 22  1  0  0  0  0
 22 23  1  0  0  0  0
  1  3  1  0  0  0  0
  1  7  1  0  0  0  0
  1  2  2  0  0  0  0
 35 36  1  0  0  0  0
 36 44  1  0  0  0  0
 36 37  2  0  0  0  0
  8  9  1  0  0  0  0
  9 17  1  0  0  0  0
  9 10  2  0  0  0  0
 18 19  1  0  0  0  0
 19 34  1  0  0  0  0
 19 20  2  0  0  0  0
 35 38  1  0  0  0  0
  8 11  1  0  0  0  0
 44 45  1  0  0  0  0
 18 21  1  0  0  0  0
 34 35  1  0  0  0  0
  7  8  1  0  0  0  0
 17 18  1  0  0  0  0
 24 32  1  0  0  0  0
 25 33  1  0  0  0  0
  3  4  1  0  0  0  0
  3  5  1  0  0  0  0
  3  6  1  0  0  0  0
 38 41  1  0  0  0  0
 38 42  1  0  0  0  0
 38 43  1  0  0  0  0
 11 14  1  0  0  0  0
 11 15  1  0  0  0  0
 11 16  1  0  0  0  0
 45 47  1  0  0  0  0
 45 48  1  0  0  0  0
 45 49  1  0  0  0  0
 21 29  1  0  0  0  0
 21 30  1  0  0  0  0
 35 40  1  0  0  0  0
  8 13  1  0  0  0  0
 18 28  1  0  0  0  0
 23 31  1  0  0  0  0
 44 46  1  0  0  0  0
  7 12  1  0  0  0  0
 34 39  1  0  0  0  0
 17 27  1  0  0  0  0
M  END
$$$$

  -OEChem-05262214473D

 49 49  0     1  0  0  0  0  0999 V2000
   -1.5619    0.5658    3.7981 C   0  0  0  0  0  0  0  0  0  0  0  0
   -0.6145   -0.0489    3.3224 O   0  0  0  0  0  0  0  0  0  0  0  0
   -1.9938    0.2834    5.1988 C   0  0  0  0  0  0  0  0  0  0  0  0
   -2.7535   -0.5129    5.2522 H   0  0  0  0  0  0  0  0  0  0  0  0
   -1.1626   -0.0642    5.8331 H   0  0  0  0  0  0  0  0  0  0  0  0
   -2.4318    1.1383    5.7384 H   0  0  0  0  0  0  0  0  0  0  0  0
   -2.3116    1.5383    3.1570 N   0  0  0  0  0  0  0  0  0  0  0  0
   -2.0648    1.9643    1.8046 C   0  0  2  0  0  0  0  0  0  0  0  0
   -0.7298    1.3789    1.3634 C   0  0  0  0  0  0  0  0  0  0  0  0
    0.1423    1.0262    2.1547 O   0  0  0  0  0  0  0  0  0  0  0  0
   -2.0560    3.4811    1.6952 C   0  0  0  0  0  0  0  0  0  0  0  0
   -3.0767    1.9741    3.6688 H   0  0  0  0  0  0  0  0  0  0  0  0
   -2.8689    1.5458    1.1895 H   0  0  0  0  0  0  0  0  0  0  0  0
   -1.2569    3.9183    2.3049 H   0  0  0  0  0  0  0  0  0  0  0  0
   -1.8965    3.8033    0.6609 H   0  0  0  0  0  0  0  0  0  0  0  0
   -3.0062    3.9023    2.0409 H   0  0  0  0  0  0  0  0  0  0  0  0
   -0.6071    1.3358   -0.0200 N   0  0  0  0  0  0  0  0  0  0  0  0
    0.5702    0.8350   -0.6836 C   0  0  2  0  0  0  0  0  0  0  0  0
    0.1346   -0.3446   -1.5456 C   0  0  0  0  0  0  0  0  0  0  0  0
   -0.1908   -0.2272   -2.7252 O   0  0  0  0  0  0  0  0  0  0  0  0
    1.6530    0.3980    0.3096 C   0  0  0  0  0  0  0  0  0  0  0  0
    2.1843    1.5442    1.1354 C   0  0  0  0  0  0  0  0  0  0  0  0
    3.0406    2.4828    0.6325 N   0  0  0  0  0  0  0  0  0  0  0  0
    1.9844    1.9152    2.4442 C   0  0  0  0  0  0  0  0  0  0  0  0
    3.3183    3.3654    1.6391 C   0  0  0  0  0  0  0  0  0  0  0  0
    2.6928    3.0498    2.7514 N   0  0  0  0  0  0  0  0  0  0  0  0
   -1.3903    1.6325   -0.5973 H   0  0  0  0  0  0  0  0  0  0  0  0
    0.9291    1.6415   -1.3339 H   0  0  0  0  0  0  0  0  0  0  0  0
    2.4816   -0.0900   -0.2213 H   0  0  0  0  0  0  0  0  0  0  0  0
    1.2602   -0.3656    0.9939 H   0  0  0  0  0  0  0  0  0  0  0  0
    3.4051    2.5199   -0.3104 H   0  0  0  0  0  0  0  0  0  0  0  0
    1.3666    1.4247    3.1829 H   0  0  0  0  0  0  0  0  0  0  0  0
    3.9784    4.2092    1.4970 H   0  0  0  0  0  0  0  0  0  0  0  0
    0.2015   -1.5461   -0.8541 N   0  0  0  0  0  0  0  0  0  0  0  0
   -0.1347   -2.8216   -1.4449 C   0  0  2  0  0  0  0  0  0  0  0  0
   -1.4942   -2.6845   -2.1177 C   0  0  0  0  0  0  0  0  0  0  0  0
   -2.3125   -1.8215   -1.8068 O   0  0  0  0  0  0  0  0  0  0  0  0
   -0.1538   -3.9272   -0.4009 C   0  0  0  0  0  0  0  0  0  0  0  0
    0.5018   -1.5282    0.1161 H   0  0  0  0  0  0  0  0  0  0  0  0
    0.6288   -3.0303   -2.2023 H   0  0  0  0  0  0  0  0  0  0  0  0
   -0.9127   -3.7353    0.3664 H   0  0  0  0  0  0  0  0  0  0  0  0
   -0.3806   -4.8975   -0.8547 H   0  0  0  0  0  0  0  0  0  0  0  0
    0.8158   -4.0045    0.1027 H   0  0  0  0  0  0  0  0  0  0  0  0
   -1.7034   -3.6661   -3.0762 N   0  0  0  0  0  0  0  0  0  0  0  0
   -2.9227   -3.7578   -3.8450 C   0  0  0  0  0  0  0  0  0  0  0  0
   -0.9625   -4.3298   -3.2818 H   0  0  0  0  0  0  0  0  0  0  0  0
   -3.6253   -4.4366   -3.3396 H   0  0  0  0  0  0  0  0  0  0  0  0
   -3.3765   -2.7596   -3.9329 H   0  0  0  0  0  0  0  0  0  0  0  0
   -2.6949   -4.1467   -4.8484 H   0  0  0  0  0  0  0  0  0  0  0  0
 22 24  2  0  0  0  0
 24 26  1  0  0  0  0
 25 26  2  0  0  0  0
 23 25  1  0  0  0  0
 21 22  1  0  0  0  0
 22 23  1  0  0  0  0
  1  3  1  0  0  0  0
  1  7  1  0  0  0  0
  1  2  2  0  0  0  0
 35 36  1  0  0  0  0
 36 44  1  0  0  0  0
 36 37  2  0  0  0  0
  8  9  1  0  0  0  0
  9 17  1  0  0  0  0
  9 10  2  0  0  0  0
 18 19  1  0  0  0  0
 19 34  1  0  0  0  0
 19 20  2  0  0  0  0
 35 38  1  0  0  0  0
  8 11  1  0  0  0  0
 44 45  1  0  0  0  0
 18 21  1  0  0  0  0
 34 35  1  0  0  0  0
  7  8  1  0  0  0  0
 17 18  1  0  0  0  0
 24 32  1  0  0  0  0
 25 33  1  0  0  0  0
  3  4  1  0  0  0  0
  3  5  1  0  0  0  0
  3  6  1  0  0  0  0
 38 41  1  0  0  0  0
 38 42  1  0  0  0  0
 38 43  1  0  0  0  0
 11 14  1  0  0  0  0
 11 15  1  0  0  0  0
 11 16  1  0  0  0  0
 45 47  1  0  0  0  0
 45 48  1  0  0  0  0
 45 49  1  0  0  0  0
 21 29  1  0  0  0  0
 21 30  1  0  0  0  0
 35 40  1  0  0  0  0
  8 13  1  0  0  0  0
 18 28  1  0  0  0  0
 23 31  1  0  0  0  0
 44 46  1  0  0  0  0
  7 12  1  0  0  0  0
 34 39  1  0  0  0  0
 17 27  1  0  0  0  0
M  END
$$$$

  -OEChem-05262214473D

 49 49  0     1  0  0  0  0  0999 V2000
   -1.5619    0.5658    3.7981 C   0  0  0  0  0  0  0  0  0  0  0  0
   -0.6145   -0.0489    3.3224 O   0  0  0  0  0  0  0  0  0  0  0  0
   -1.9938    0.2834    5.1988 C   0  0  0  0  0  0  0  0  0  0  0  0
   -2.7535   -0.5129    5.2522 H   0  0  0  0  0  0  0  0  0  0  0  0
   -1.1626   -0.0642    5.8331 H   0  0  0  0  0  0  0  0  0  0  0  0
   -2.4318    1.1383    5.7384 H   0  0  0  0  0  0  0  0  0  0  0  0
   -2.3116    1.5383    3.1570 N   0  0  0  0  0  0  0  0  0  0  0  0
   -2.0648    1.9643    1.8046 C   0  0  2  0  0  0  0  0  0  0  0  0
   -0.7298    1.3789    1.3634 C   0  0  0  0  0  0  0  0  0  0  0  0
    0.1423    1.0262    2.1547 O   0  0  0  0  0  0  0  0  0  0  0  0
   -2.0560    3.4811    1.6952 C   0  0  0  0  0  0  0  0  0  0  0  0
   -3.0767    1.9741    3.6688 H   0  0  0  0  0  0  0  0  0  0  0  0
   -2.8689    1.5458    1.1895 H   0  0  0  0  0  0  0  0  0  0  0  0
   -1.2569    3.9183    2.3049 H   0  0  0  0  0  0  0  0  0  0  0  0
   -1.8965    3.8033    0.6609 H   0  0  0  0  0  0  0  0  0  0  0  0
   -3.0062    3.9023    2.0409 H   0  0  0  0  0  0  0  0  0  0  0  0
   -0.6071    1.3358   -0.0200 N   0  0  0  0  0  0  0  0  0  0  0  0
    0.5702    0.8350   -0.6836 C   0  0  2  0  0  0  0  0  0  0  0  0
    0.1346   -0.3446   -1.5456 C   0  0  0  0  0  0  0  0  0  0  0  0
    0.0671   -0.2885   -2.7717 O   0  0  0  0  0  0  0  0  0  0  0  0
    1.6530    0.3980    0.3096 C   0  0  0  0  0  0  0  0  0  0  0  0
    2.1843    1.5442    1.1354 C   0  0  0  0  0  0  0  0  0  0  0  0
    3.0406    2.4828    0.6325 N   0  0  0  0  0  0  0  0  0  0  0  0
    1.9844    1.9152    2.4442 C   0  0  0  0  0  0  0  0  0  0  0  0
    3.3183    3.3654    1.6391 C   0  0  0  0  0  0  0  0  0  0  0  0
    2.6928    3.0498    2.7514 N   0  0  0  0  0  0  0  0  0  0  0  0
   -1.3903    1.6325   -0.5973 H   0  0  0  0  0  0  0  0  0  0  0  0
    0.9291    1.6415   -1.3339 H   0  0  0  0  0  0  0  0  0  0  0  0
    2.4816   -0.0900   -0.2213 H   0  0  0  0  0  0  0  0  0  0  0  0
    1.2602   -0.3656    0.9939 H   0  0  0  0  0  0  0  0  0  0  0  0
    3.4051    2.5199   -0.3104 H   0  0  0  0  0  0  0  0  0  0  0  0
    1.3666    1.4247    3.1829 H   0  0  0  0  0  0  0  0  0  0  0  0
    3.9784    4.2092    1.4970 H   0  0  0  0  0  0  0  0  0  0  0  0
   -0.1202   -1.4775   -0.7854 N   0  0  0  0  0  0  0  0  0  0  0  0
   -0.5270   -2.7414   -1.3564 C   0  0  2  0  0  0  0  0  0  0  0  0
   -1.6919   -2.4773   -2.3014 C   0  0  0  0  0  0  0  0  0  0  0  0
   -2.4123   -1.4848   -2.2171 O   0  0  0  0  0  0  0  0  0  0  0  0
   -0.9190   -3.7364   -0.2753 C   0  0  0  0  0  0  0  0  0  0  0  0
   -0.0154   -1.4153    0.2230 H   0  0  0  0  0  0  0  0  0  0  0  0
    0.3279   -3.1206   -1.9268 H   0  0  0  0  0  0  0  0  0  0  0  0
   -1.7741   -3.3737    0.3068 H   0  0  0  0  0  0  0  0  0  0  0  0
   -1.1996   -4.7024   -0.7080 H   0  0  0  0  0  0  0  0  0  0  0  0
   -0.0897   -3.9025    0.4207 H   0  0  0  0  0  0  0  0  0  0  0  0
   -1.8590   -3.5016   -3.2228 N   0  0  0  0  0  0  0  0  0  0  0  0
   -2.9044   -3.4910   -4.2192 C   0  0  0  0  0  0  0  0  0  0  0  0
   -1.2033   -4.2773   -3.2320 H   0  0  0  0  0  0  0  0  0  0  0  0
   -3.7880   -4.0181   -3.8300 H   0  0  0  0  0  0  0  0  0  0  0  0
   -3.1733   -2.4513   -4.4574 H   0  0  0  0  0  0  0  0  0  0  0  0
   -2.5482   -3.9954   -5.1296 H   0  0  0  0  0  0  0  0  0  0  0  0
 22 24  2  0  0  0  0
 24 26  1  0  0  0  0
 25 26  2  0  0  0  0
 23 25  1  0  0  0  0
 21 22  1  0  0  0  0
 22 23  1  0  0  0  0
  1  3  1  0  0  0  0
  1  7  1  0  0  0  0
  1  2  2  0  0  0  0
 35 36  1  0  0  0  0
 36 44  1  0  0  0  0
 36 37  2  0  0  0  0
  8  9  1  0  0  0  0
  9 17  1  0  0  0  0
  9 10  2  0  0  0  0
 18 19  1  0  0  0  0
 19 34  1  0  0  0  0
 19 20  2  0  0  0  0
 35 38  1  0  0  0  0
  8 11  1  0  0  0  0
 44 45  1  0  0  0  0
 18 21  1  0  0  0  0
 34 35  1  0  0  0  0
  7  8  1  0  0  0  0
 17 18  1  0  0  0  0
 24 32  1  0  0  0  0
 25 33  1  0  0  0  0
  3  4  1  0  0  0  0
  3  5  1  0  0  0  0
  3  6  1  0  0  0  0
 38 41  1  0  0  0  0
 38 42  1  0  0  0  0
 38 43  1  0  0  0  0
 11 14  1  0  0  0  0
 11 15  1  0  0  0  0
 11 16  1  0  0  0  0
 45 47  1  0  0  0  0
 45 48  1  0  0  0  0
 45 49  1  0  0  0  0
 21 29  1  0  0  0  0
 21 30  1  0  0  0  0
 35 40  1  0  0  0  0
  8 13  1  0  0  0  0
 18 28  1  0  0  0  0
 23 31  1  0  0  0  0
 44 46  1  0  0  0  0
  7 12  1  0  0  0  0
 34 39  1  0  0  0  0
 17 27  1  0  0  0  0
M  END
$$$$

  -OEChem-05262214473D

 49 49  0     1  0  0  0  0  0999 V2000
   -1.5619    0.5658    3.7981 C   0  0  0  0  0  0  0  0  0  0  0  0
   -0.6145   -0.0489    3.3224 O   0  0  0  0  0  0  0  0  0  0  0  0
   -1.9938    0.2834    5.1988 C   0  0  0  0  0  0  0  0  0  0  0  0
   -2.7535   -0.5129    5.2522 H   0  0  0  0  0  0  0  0  0  0  0  0
   -1.1626   -0.0642    5.8331 H   0  0  0  0  0  0  0  0  0  0  0  0
   -2.4318    1.1383    5.7384 H   0  0  0  0  0  0  0  0  0  0  0  0
   -2.3116    1.5383    3.1570 N   0  0  0  0  0  0  0  0  0  0  0  0
   -2.0648    1.9643    1.8046 C   0  0  2  0  0  0  0  0  0  0  0  0
   -0.7298    1.3789    1.3634 C   0  0  0  0  0  0  0  0  0  0  0  0
    0.1423    1.0262    2.1547 O   0  0  0  0  0  0  0  0  0  0  0  0
   -2.0560    3.4811    1.6952 C   0  0  0  0  0  0  0  0  0  0  0  0
   -3.0767    1.9741    3.6688 H   0  0  0  0  0  0  0  0  0  0  0  0
   -2.8689    1.5458    1.1895 H   0  0  0  0  0  0  0  0  0  0  0  0
   -1.2569    3.9183    2.3049 H   0  0  0  0  0  0  0  0  0  0  0  0
   -1.8965    3.8033    0.6609 H   0  0  0  0  0  0  0  0  0  0  0  0
   -3.0062    3.9023    2.0409 H   0  0  0  0  0  0  0  0  0  0  0  0
   -0.6071    1.3358   -0.0200 N   0  0  0  0  0  0  0  0  0  0  0  0
    0.5702    0.8350   -0.6836 C   0  0  2  0  0  0  0  0  0  0  0  0
    0.1346   -0.3446   -1.5456 C   0  0  0  0  0  0  0  0  0  0  0  0
    0.3166   -0.3888   -2.7605 O   0  0  0  0  0  0  0  0  0  0  0  0
    1.6530    0.3980    0.3096 C   0  0  0  0  0  0  0  0  0  0  0  0
    2.1843    1.5442    1.1354 C   0  0  0  0  0  0  0  0  0  0  0  0
    3.0406    2.4828    0.6325 N   0  0  0  0  0  0  0  0  0  0  0  0
    1.9844    1.9152    2.4442 C   0  0  0  0  0  0  0  0  0  0  0  0
    3.3183    3.3654    1.6391 C   0  0  0  0  0  0  0  0  0  0  0  0
    2.6928    3.0498    2.7514 N   0  0  0  0  0  0  0  0  0  0  0  0
   -1.3903    1.6325   -0.5973 H   0  0  0  0  0  0  0  0  0  0  0  0
    0.9291    1.6415   -1.3339 H   0  0  0  0  0  0  0  0  0  0  0  0
    2.4816   -0.0900   -0.2213 H   0  0  0  0  0  0  0  0  0  0  0  0
    1.2602   -0.3656    0.9939 H   0  0  0  0  0  0  0  0  0  0  0  0
    3.4051    2.5199   -0.3104 H   0  0  0  0  0  0  0  0  0  0  0  0
    1.3666    1.4247    3.1829 H   0  0  0  0  0  0  0  0  0  0  0  0
    3.9784    4.2092    1.4970 H   0  0  0  0  0  0  0  0  0  0  0  0
   -0.4346   -1.3591   -0.7886 N   0  0  0  0  0  0  0  0  0  0  0  0
   -0.9120   -2.5999   -1.3554 C   0  0  2  0  0  0  0  0  0  0  0  0
   -1.8157   -2.2617   -2.5338 C   0  0  0  0  0  0  0  0  0  0  0  0
   -2.3773   -1.1754   -2.6582 O   0  0  0  0  0  0  0  0  0  0  0  0
   -1.6554   -3.4309   -0.3213 C   0  0  0  0  0  0  0  0  0  0  0  0
   -0.5200   -1.2227    0.2143 H   0  0  0  0  0  0  0  0  0  0  0  0
   -0.0310   -3.1433   -1.7143 H   0  0  0  0  0  0  0  0  0  0  0  0
   -2.5412   -2.9027    0.0499 H   0  0  0  0  0  0  0  0  0  0  0  0
   -1.9915   -4.3832   -0.7446 H   0  0  0  0  0  0  0  0  0  0  0  0
   -1.0131   -3.6480    0.5391 H   0  0  0  0  0  0  0  0  0  0  0  0
   -1.9557   -3.3307   -3.4077 N   0  0  0  0  0  0  0  0  0  0  0  0
   -2.7728   -3.2637   -4.5968 C   0  0  0  0  0  0  0  0  0  0  0  0
   -1.4381   -4.1876   -3.2360 H   0  0  0  0  0  0  0  0  0  0  0  0
   -3.7856   -3.6264   -4.3673 H   0  0  0  0  0  0  0  0  0  0  0  0
   -2.8269   -2.2221   -4.9462 H   0  0  0  0  0  0  0  0  0  0  0  0
   -2.3280   -3.8915   -5.3830 H   0  0  0  0  0  0  0  0  0  0  0  0
 22 24  2  0  0  0  0
 24 26  1  0  0  0  0
 25 26  2  0  0  0  0
 23 25  1  0  0  0  0
 21 22  1  0  0  0  0
 22 23  1  0  0  0  0
  1  3  1  0  0  0  0
  1  7  1  0  0  0  0
  1  2  2  0  0  0  0
 35 36  1  0  0  0  0
 36 44  1  0  0  0  0
 36 37  2  0  0  0  0
  8  9  1  0  0  0  0
  9 17  1  0  0  0  0
  9 10  2  0  0  0  0
 18 19  1  0  0  0  0
 19 34  1  0  0  0  0
 19 20  2  0  0  0  0
 35 38  1  0  0  0  0
  8 11  1  0  0  0  0
 44 45  1  0  0  0  0
 18 21  1  0  0  0  0
 34 35  1  0  0  0  0
  7  8  1  0  0  0  0
 17 18  1  0  0  0  0
 24 32  1  0  0  0  0
 25 33  1  0  0  0  0
  3  4  1  0  0  0  0
  3  5  1  0  0  0  0
  3  6  1  0  0  0  0
 38 41  1  0  0  0  0
 38 42  1  0  0  0  0
 38 43  1  0  0  0  0
 11 14  1  0  0  0  0
 11 15  1  0  0  0  0
 11 16  1  0  0  0  0
 45 47  1  0  0  0  0
 45 48  1  0  0  0  0
 45 49  1  0  0  0  0
 21 29  1  0  0  0  0
 21 30  1  0  0  0  0
 35 40  1  0  0  0  0
  8 13  1  0  0  0  0
 18 28  1  0  0  0  0
 23 31  1  0  0  0  0
 44 46  1  0  0  0  0
  7 12  1  0  0  0  0
 34 39  1  0  0  0  0
 17 27  1  0  0  0  0
M  END
$$$$

  -OEChem-05262214473D

 49 49  0     1  0  0  0  0  0999 V2000
   -1.5619    0.5658    3.7981 C   0  0  0  0  0  0  0  0  0  0  0  0
   -0.6145   -0.0489    3.3224 O   0  0  0  0  0  0  0  0  0  0  0  0
   -1.9938    0.2834    5.1988 C   0  0  0  0  0  0  0  0  0  0  0  0
   -2.7535   -0.5129    5.2522 H   0  0  0  0  0  0  0  0  0  0  0  0
   -1.1626   -0.0642    5.8331 H   0  0  0  0  0  0  0  0  0  0  0  0
   -2.4318    1.1383    5.7384 H   0  0  0  0  0  0  0  0  0  0  0  0
   -2.3116    1.5383    3.1570 N   0  0  0  0  0  0  0  0  0  0  0  0
   -2.0648    1.9643    1.8046 C   0  0  2  0  0  0  0  0  0  0  0  0
   -0.7298    1.3789    1.3634 C   0  0  0  0  0  0  0  0  0  0  0  0
    0.1423    1.0262    2.1547 O   0  0  0  0  0  0  0  0  0  0  0  0
   -2.0560    3.4811    1.6952 C   0  0  0  0  0  0  0  0  0  0  0  0
   -3.0767    1.9741    3.6688 H   0  0  0  0  0  0  0  0  0  0  0  0
   -2.8689    1.5458    1.1895 H   0  0  0  0  0  0  0  0  0  0  0  0
   -1.2569    3.9183    2.3049 H   0  0  0  0  0  0  0  0  0  0  0  0
   -1.8965    3.8033    0.6609 H   0  0  0  0  0  0  0  0  0  0  0  0
   -3.0062    3.9023    2.0409 H   0  0  0  0  0  0  0  0  0  0  0  0
   -0.6071    1.3358   -0.0200 N   0  0  0  0  0  0  0  0  0  0  0  0
    0.5702    0.8350   -0.6836 C   0  0  2  0  0  0  0  0  0  0  0  0
    0.1346   -0.3446   -1.5456 C   0  0  0  0  0  0  0  0  0  0  0  0
    0.5407   -0.5214   -2.6922 O   0  0  0  0  0  0  0  0  0  0  0  0
    1.6530    0.3980    0.3096 C   0  0  0  0  0  0  0  0  0  0  0  0
    2.1843    1.5442    1.1354 C   0  0  0  0  0  0  0  0  0  0  0  0
    3.0406    2.4828    0.6325 N   0  0  0  0  0  0  0  0  0  0  0  0
    1.9844    1.9152    2.4442 C   0  0  0  0  0  0  0  0  0  0  0  0
    3.3183    3.3654    1.6391 C   0  0  0  0  0  0  0  0  0  0  0  0
    2.6928    3.0498    2.7514 N   0  0  0  0  0  0  0  0  0  0  0  0
   -1.3903    1.6325   -0.5973 H   0  0  0  0  0  0  0  0  0  0  0  0
    0.9291    1.6415   -1.3339 H   0  0  0  0  0  0  0  0  0  0  0  0
    2.4816   -0.0900   -0.2213 H   0  0  0  0  0  0  0  0  0  0  0  0
    1.2602   -0.3656    0.9939 H   0  0  0  0  0  0  0  0  0  0  0  0
    3.4051    2.5199   -0.3104 H   0  0  0  0  0  0  0  0  0  0  0  0
    1.3666    1.4247    3.1829 H   0  0  0  0  0  0  0  0  0  0  0  0
    3.9784    4.2092    1.4970 H   0  0  0  0  0  0  0  0  0  0  0  0
   -0.7203   -1.1990   -0.8634 N   0  0  0  0  0  0  0  0  0  0  0  0
   -1.2633   -2.4069   -1.4420 C   0  0  2  0  0  0  0  0  0  0  0  0
   -1.8572   -2.0526   -2.7989 C   0  0  0  0  0  0  0  0  0  0  0  0
   -2.2098   -0.9142   -3.1002 O   0  0  0  0  0  0  0  0  0  0  0  0
   -2.3127   -3.0314   -0.5357 C   0  0  0  0  0  0  0  0  0  0  0  0
   -0.9774   -0.9634    0.0907 H   0  0  0  0  0  0  0  0  0  0  0  0
   -0.4237   -3.0970   -1.5792 H   0  0  0  0  0  0  0  0  0  0  0  0
   -3.1619   -2.3546   -0.3866 H   0  0  0  0  0  0  0  0  0  0  0  0
   -2.7025   -3.9616   -0.9622 H   0  0  0  0  0  0  0  0  0  0  0  0
   -1.8915   -3.2583    0.4496 H   0  0  0  0  0  0  0  0  0  0  0  0
   -1.9872   -3.1652   -3.6184 N   0  0  0  0  0  0  0  0  0  0  0  0
   -2.5368   -3.0913   -4.9520 C   0  0  0  0  0  0  0  0  0  0  0  0
   -1.6510   -4.0670   -3.2935 H   0  0  0  0  0  0  0  0  0  0  0  0
   -3.6184   -3.2881   -4.9147 H   0  0  0  0  0  0  0  0  0  0  0  0
   -2.3608   -2.0875   -5.3658 H   0  0  0  0  0  0  0  0  0  0  0  0
   -2.0494   -3.8421   -5.5913 H   0  0  0  0  0  0  0  0  0  0  0  0
 22 24  2  0  0  0  0
 24 26  1  0  0  0  0
 25 26  2  0  0  0  0
 23 25  1  0  0  0  0
 21 22  1  0  0  0  0
 22 23  1  0  0  0  0
  1  3  1  0  0  0  0
  1  7  1  0  0  0  0
  1  2  2  0  0  0  0
 35 36  1  0  0  0  0
 36 44  1  0  0  0  0
 36 37  2  0  0  0  0
  8  9  1  0  0  0  0
  9 17  1  0  0  0  0
  9 10  2  0  0  0  0
 18 19  1  0  0  0  0
 19 34  1  0  0  0  0
 19 20  2  0  0  0  0
 35 38  1  0  0  0  0
  8 11  1  0  0  0  0
 44 45  1  0  0  0  0
 18 21  1  0  0  0  0
 34 35  1  0  0  0  0
  7  8  1  0  0  0  0
 17 18  1  0  0  0  0
 24 32  1  0  0  0  0
 25 33  1  0  0  0  0
  3  4  1  0  0  0  0
  3  5  1  0  0  0  0
  3  6  1  0  0  0  0
 38 41  1  0  0  0  0
 38 42  1  0  0  0  0
 38 43  1  0  0  0  0
 11 14  1  0  0  0  0
 11 15  1  0  0  0  0
 11 16  1  0  0  0  0
 45 47  1  0  0  0  0
 45 48  1  0  0  0  0
 45 49  1  0  0  0  0
 21 29  1  0  0  0  0
 21 30  1  0  0  0  0
 35 40  1  0  0  0  0
  8 13  1  0  0  0  0
 18 28  1  0  0  0  0
 23 31  1  0  0  0  0
 44 46  1  0  0  0  0
  7 12  1  0  0  0  0
 34 39  1  0  0  0  0
 17 27  1  0  0  0  0
M  END
$$$$

  -OEChem-05262214473D

 49 49  0     1  0  0  0  0  0999 V2000
   -1.5619    0.5658    3.7981 C   0  0  0  0  0  0  0  0  0  0  0  0
   -0.6145   -0.0489    3.3224 O   0  0  0  0  0  0  0  0  0  0  0  0
   -1.9938    0.2834    5.1988 C   0  0  0  0  0  0  0  0  0  0  0  0
   -2.7535   -0.5129    5.2522 H   0  0  0  0  0  0  0  0  0  0  0  0
   -1.1626   -0.0642    5.8331 H   0  0  0  0  0  0  0  0  0  0  0  0
   -2.4318    1.1383    5.7384 H   0  0  0  0  0  0  0  0  0  0  0  0
   -2.3116    1.5383    3.1570 N   0  0  0  0  0  0  0  0  0  0  0  0
   -2.0648    1.9643    1.8046 C   0  0  2  0  0  0  0  0  0  0  0  0
   -0.7298    1.3789    1.3634 C   0  0  0  0  0  0  0  0  0  0  0  0
    0.1423    1.0262    2.1547 O   0  0  0  0  0  0  0  0  0  0  0  0
   -2.0560    3.4811    1.6952 C   0  0  0  0  0  0  0  0  0  0  0  0
   -3.0767    1.9741    3.6688 H   0  0  0  0  0  0  0  0  0  0  0  0
   -2.8689    1.5458    1.1895 H   0  0  0  0  0  0  0  0  0  0  0  0
   -1.2569    3.9183    2.3049 H   0  0  0  0  0  0  0  0  0  0  0  0
   -1.8965    3.8033    0.6609 H   0  0  0  0  0  0  0  0  0  0  0  0
   -3.0062    3.9023    2.0409 H   0  0  0  0  0  0  0  0  0  0  0  0
   -0.6071    1.3358   -0.0200 N   0  0  0  0  0  0  0  0  0  0  0  0
    0.5702    0.8350   -0.6836 C   0  0  2  0  0  0  0  0  0  0  0  0
    0.1346   -0.3446   -1.5456 C   0  0  0  0  0  0  0  0  0  0  0  0
    0.7241   -0.6773   -2.5717 O   0  0  0  0  0  0  0  0  0  0  0  0
    1.6530    0.3980    0.3096 C   0  0  0  0  0  0  0  0  0  0  0  0
    2.1843    1.5442    1.1354 C   0  0  0  0  0  0  0  0  0  0  0  0
    3.0406    2.4828    0.6325 N   0  0  0  0  0  0  0  0  0  0  0  0
    1.9844    1.9152    2.4442 C   0  0  0  0  0  0  0  0  0  0  0  0
    3.3183    3.3654    1.6391 C   0  0  0  0  0  0  0  0  0  0  0  0
    2.6928    3.0498    2.7514 N   0  0  0  0  0  0  0  0  0  0  0  0
   -1.3903    1.6325   -0.5973 H   0  0  0  0  0  0  0  0  0  0  0  0
    0.9291    1.6415   -1.3339 H   0  0  0  0  0  0  0  0  0  0  0  0
    2.4816   -0.0900   -0.2213 H   0  0  0  0  0  0  0  0  0  0  0  0
    1.2602   -0.3656    0.9939 H   0  0  0  0  0  0  0  0  0  0  0  0
    3.4051    2.5199   -0.3104 H   0  0  0  0  0  0  0  0  0  0  0  0
    1.3666    1.4247    3.1829 H   0  0  0  0  0  0  0  0  0  0  0  0
    3.9784    4.2092    1.4970 H   0  0  0  0  0  0  0  0  0  0  0  0
   -0.9579   -1.0080   -1.0046 N   0  0  0  0  0  0  0  0  0  0  0  0
   -1.5571   -2.1755   -1.6103 C   0  0  2  0  0  0  0  0  0  0  0  0
   -1.8136   -1.8641   -3.0789 C   0  0  0  0  0  0  0  0  0  0  0  0
   -1.9214   -0.7191   -3.5130 O   0  0  0  0  0  0  0  0  0  0  0  0
   -2.8462   -2.5653   -0.9041 C   0  0  0  0  0  0  0  0  0  0  0  0
   -1.3565   -0.6552   -0.1395 H   0  0  0  0  0  0  0  0  0  0  0  0
   -0.8232   -2.9849   -1.5308 H   0  0  0  0  0  0  0  0  0  0  0  0
   -3.5937   -1.7665   -0.9731 H   0  0  0  0  0  0  0  0  0  0  0  0
   -3.2839   -3.4665   -1.3459 H   0  0  0  0  0  0  0  0  0  0  0  0
   -2.6650   -2.7599    0.1585 H   0  0  0  0  0  0  0  0  0  0  0  0
   -1.9511   -3.0163   -3.8404 N   0  0  0  0  0  0  0  0  0  0  0  0
   -2.2124   -2.9856   -5.2605 C   0  0  0  0  0  0  0  0  0  0  0  0
   -1.8276   -3.9235   -3.4006 H   0  0  0  0  0  0  0  0  0  0  0  0
   -3.2977   -3.0262   -5.4351 H   0  0  0  0  0  0  0  0  0  0  0  0
   -1.8069   -2.0567   -5.6878 H   0  0  0  0  0  0  0  0  0  0  0  0
   -1.7314   -3.8506   -5.7404 H   0  0  0  0  0  0  0  0  0  0  0  0
 22 24  2  0  0  0  0
 24 26  1  0  0  0  0
 25 26  2  0  0  0  0
 23 25  1  0  0  0  0
 21 22  1  0  0  0  0
 22 23  1  0  0  0  0
  1  3  1  0  0  0  0
  1  7  1  0  0  0  0
  1  2  2  0  0  0  0
 35 36  1  0  0  0  0
 36 44  1  0  0  0  0
 36 37  2  0  0  0  0
  8  9  1  0  0  0  0
  9 17  1  0  0  0  0
  9 10  2  0  0  0  0
 18 19  1  0  0  0  0
 19 34  1  0  0  0  0
 19 20  2  0  0  0  0
 35 38  1  0  0  0  0
  8 11  1  0  0  0  0
 44 45  1  0  0  0  0
 18 21  1  0  0  0  0
 34 35  1  0  0  0  0
  7  8  1  0  0  0  0
 17 18  1  0  0  0  0
 24 32  1  0  0  0  0
 25 33  1  0  0  0  0
  3  4  1  0  0  0  0
  3  5  1  0  0  0  0
  3  6  1  0  0  0  0
 38 41  1  0  0  0  0
 38 42  1  0  0  0  0
 38 43  1  0  0  0  0
 11 14  1  0  0  0  0
 11 15  1  0  0  0  0
 11 16  1  0  0  0  0
 45 47  1  0  0  0  0
 45 48  1  0  0  0  0
 45 49  1  0  0  0  0
 21 29  1  0  0  0  0
 21 30  1  0  0  0  0
 35 40  1  0  0  0  0
  8 13  1  0  0  0  0
 18 28  1  0  0  0  0
 23 31  1  0  0  0  0
 44 46  1  0  0  0  0
  7 12  1  0  0  0  0
 34 39  1  0  0  0  0
 17 27  1  0  0  0  0
M  END
$$$$

  -OEChem-05262214473D

 49 49  0     1  0  0  0  0  0999 V2000
   -1.5619    0.5658    3.7981 C   0  0  0  0  0  0  0  0  0  0  0  0
   -0.6145   -0.0489    3.3224 O   0  0  0  0  0  0  0  0  0  0  0  0
   -1.9938    0.2834    5.1988 C   0  0  0  0  0  0  0  0  0  0  0  0
   -2.7535   -0.5129    5.2522 H   0  0  0  0  0  0  0  0  0  0  0  0
   -1.1626   -0.0642    5.8331 H   0  0  0  0  0  0  0  0  0  0  0  0
   -2.4318    1.1383    5.7384 H   0  0  0  0  0  0  0  0  0  0  0  0
   -2.3116    1.5383    3.1570 N   0  0  0  0  0  0  0  0  0  0  0  0
   -2.0648    1.9643    1.8046 C   0  0  2  0  0  0  0  0  0  0  0  0
   -0.7298    1.3789    1.3634 C   0  0  0  0  0  0  0  0  0  0  0  0
    0.1423    1.0262    2.1547 O   0  0  0  0  0  0  0  0  0  0  0  0
   -2.0560    3.4811    1.6952 C   0  0  0  0  0  0  0  0  0  0  0  0
   -3.0767    1.9741    3.6688 H   0  0  0  0  0  0  0  0  0  0  0  0
   -2.8689    1.5458    1.1895 H   0  0  0  0  0  0  0  0  0  0  0  0
   -1.2569    3.9183    2.3049 H   0  0  0  0  0  0  0  0  0  0  0  0
   -1.8965    3.8033    0.6609 H   0  0  0  0  0  0  0  0  0  0  0  0
   -3.0062    3.9023    2.0409 H   0  0  0  0  0  0  0  0  0  0  0  0
   -0.6071    1.3358   -0.0200 N   0  0  0  0  0  0  0  0  0  0  0  0
    0.5702    0.8350   -0.6836 C   0  0  2  0  0  0  0  0  0  0  0  0
    0.1346   -0.3446   -1.5456 C   0  0  0  0  0  0  0  0  0  0  0  0
    0.8543   -0.8457   -2.4069 O   0  0  0  0  0  0  0  0  0  0  0  0
    1.6530    0.3980    0.3096 C   0  0  0  0  0  0  0  0  0  0  0  0
    2.1843    1.5442    1.1354 C   0  0  0  0  0  0  0  0  0  0  0  0
    3.0406    2.4828    0.6325 N   0  0  0  0  0  0  0  0  0  0  0  0
    1.9844    1.9152    2.4442 C   0  0  0  0  0  0  0  0  0  0  0  0
    3.3183    3.3654    1.6391 C   0  0  0  0  0  0  0  0  0  0  0  0
    2.6928    3.0498    2.7514 N   0  0  0  0  0  0  0  0  0  0  0  0
   -1.3903    1.6325   -0.5973 H   0  0  0  0  0  0  0  0  0  0  0  0
    0.9291    1.6415   -1.3339 H   0  0  0  0  0  0  0  0  0  0  0  0
    2.4816   -0.0900   -0.2213 H   0  0  0  0  0  0  0  0  0  0  0  0
    1.2602   -0.3656    0.9939 H   0  0  0  0  0  0  0  0  0  0  0  0
    3.4051    2.5199   -0.3104 H   0  0  0  0  0  0  0  0  0  0  0  0
    1.3666    1.4247    3.1829 H   0  0  0  0  0  0  0  0  0  0  0  0
    3.9784    4.2092    1.4970 H   0  0  0  0  0  0  0  0  0  0  0  0
   -1.1312   -0.7992   -1.2028 N   0  0  0  0  0  0  0  0  0  0  0  0
   -1.7733   -1.9214   -1.8488 C   0  0  2  0  0  0  0  0  0  0  0  0
   -1.6879   -1.7091   -3.3545 C   0  0  0  0  0  0  0  0  0  0  0  0
   -1.5315   -0.6034   -3.8683 O   0  0  0  0  0  0  0  0  0  0  0  0
   -3.2196   -2.0641   -1.4012 C   0  0  0  0  0  0  0  0  0  0  0  0
   -1.6315   -0.3191   -0.4605 H   0  0  0  0  0  0  0  0  0  0  0  0
   -1.2024   -2.8145   -1.5723 H   0  0  0  0  0  0  0  0  0  0  0  0
   -3.8074   -1.1787   -1.6695 H   0  0  0  0  0  0  0  0  0  0  0  0
   -3.6962   -2.9316   -1.8696 H   0  0  0  0  0  0  0  0  0  0  0  0
   -3.2810   -2.1868   -0.3144 H   0  0  0  0  0  0  0  0  0  0  0  0
   -1.8500   -2.8941   -4.0586 N   0  0  0  0  0  0  0  0  0  0  0  0
   -1.8219   -2.9538   -5.5014 C   0  0  0  0  0  0  0  0  0  0  0  0
   -1.9556   -3.7671   -3.5501 H   0  0  0  0  0  0  0  0  0  0  0  0
   -2.8455   -2.8587   -5.8928 H   0  0  0  0  0  0  0  0  0  0  0  0
   -1.2029   -2.1319   -5.8902 H   0  0  0  0  0  0  0  0  0  0  0  0
   -1.3955   -3.9164   -5.8201 H   0  0  0  0  0  0  0  0  0  0  0  0
 22 24  2  0  0  0  0
 24 26  1  0  0  0  0
 25 26  2  0  0  0  0
 23 25  1  0  0  0  0
 21 22  1  0  0  0  0
 22 23  1  0  0  0  0
  1  3  1  0  0  0  0
  1  7  1  0  0  0  0
  1  2  2  0  0  0  0
 35 36  1  0  0  0  0
 36 44  1  0  0  0  0
 36 37  2  0  0  0  0
  8  9  1  0  0  0  0
  9 17  1  0  0  0  0
  9 10  2  0  0  0  0
 18 19  1  0  0  0  0
 19 34  1  0  0  0  0
 19 20  2  0  0  0  0
 35 38  1  0  0  0  0
  8 11  1  0  0  0  0
 44 45  1  0  0  0  0
 18 21  1  0  0  0  0
 34 35  1  0  0  0  0
  7  8  1  0  0  0  0
 17 18  1  0  0  0  0
 24 32  1  0  0  0  0
 25 33  1  0  0  0  0
  3  4  1  0  0  0  0
  3  5  1  0  0  0  0
  3  6  1  0  0  0  0
 38 41  1  0  0  0  0
 38 42  1  0  0  0  0
 38 43  1  0  0  0  0
 11 14  1  0  0  0  0
 11 15  1  0  0  0  0
 11 16  1  0  0  0  0
 45 47  1  0  0  0  0
 45 48  1  0  0  0  0
 45 49  1  0  0  0  0
 21 29  1  0  0  0  0
 21 30  1  0  0  0  0
 35 40  1  0  0  0  0
  8 13  1  0  0  0  0
 18 28  1  0  0  0  0
 23 31  1  0  0  0  0
 44 46  1  0  0  0  0
  7 12  1  0  0  0  0
 34 39  1  0  0  0  0
 17 27  1  0  0  0  0
M  END
$$$$

  -OEChem-05262214473D

 49 49  0     1  0  0  0  0  0999 V2000
   -1.5619    0.5658    3.7981 C   0  0  0  0  0  0  0  0  0  0  0  0
   -0.6145   -0.0489    3.3224 O   0  0  0  0  0  0  0  0  0  0  0  0
   -1.9938    0.2834    5.1988 C   0  0  0  0  0  0  0  0  0  0  0  0
   -2.7535   -0.5129    5.2522 H   0  0  0  0  0  0  0  0  0  0  0  0
   -1.1626   -0.0642    5.8331 H   0  0  0  0  0  0  0  0  0  0  0  0
   -2.4318    1.1383    5.7384 H   0  0  0  0  0  0  0  0  0  0  0  0
   -2.3116    1.5383    3.1570 N   0  0  0  0  0  0  0  0  0  0  0  0
   -2.0648    1.9643    1.8046 C   0  0  2  0  0  0  0  0  0  0  0  0
   -0.7298    1.3789    1.3634 C   0  0  0  0  0  0  0  0  0  0  0  0
    0.1423    1.0262    2.1547 O   0  0  0  0  0  0  0  0  0  0  0  0
   -2.0560    3.4811    1.6952 C   0  0  0  0  0  0  0  0  0  0  0  0
   -3.0767    1.9741    3.6688 H   0  0  0  0  0  0  0  0  0  0  0  0
   -2.8689    1.5458    1.1895 H   0  0  0  0  0  0  0  0  0  0  0  0
   -1.2569    3.9183    2.3049 H   0  0  0  0  0  0  0  0  0  0  0  0
   -1.8965    3.8033    0.6609 H   0  0  0  0  0  0  0  0  0  0  0  0
   -3.0062    3.9023    2.0409 H   0  0  0  0  0  0  0  0  0  0  0  0
   -0.6071    1.3358   -0.0200 N   0  0  0  0  0  0  0  0  0  0  0  0
    0.5702    0.8350   -0.6836 C   0  0  2  0  0  0  0  0  0  0  0  0
    0.1346   -0.3446   -1.5456 C   0  0  0  0  0  0  0  0  0  0  0  0
    0.9224   -1.0153   -2.2093 O   0  0  0  0  0  0  0  0  0  0  0  0
    1.6530    0.3980    0.3096 C   0  0  0  0  0  0  0  0  0  0  0  0
    2.1843    1.5442    1.1354 C   0  0  0  0  0  0  0  0  0  0  0  0
    3.0406    2.4828    0.6325 N   0  0  0  0  0  0  0  0  0  0  0  0
    1.9844    1.9152    2.4442 C   0  0  0  0  0  0  0  0  0  0  0  0
    3.3183    3.3654    1.6391 C   0  0  0  0  0  0  0  0  0  0  0  0
    2.6928    3.0498    2.7514 N   0  0  0  0  0  0  0  0  0  0  0  0
   -1.3903    1.6325   -0.5973 H   0  0  0  0  0  0  0  0  0  0  0  0
    0.9291    1.6415   -1.3339 H   0  0  0  0  0  0  0  0  0  0  0  0
    2.4816   -0.0900   -0.2213 H   0  0  0  0  0  0  0  0  0  0  0  0
    1.2602   -0.3656    0.9939 H   0  0  0  0  0  0  0  0  0  0  0  0
    3.4051    2.5199   -0.3104 H   0  0  0  0  0  0  0  0  0  0  0  0
    1.3666    1.4247    3.1829 H   0  0  0  0  0  0  0  0  0  0  0  0
    3.9784    4.2092    1.4970 H   0  0  0  0  0  0  0  0  0  0  0  0
   -1.2283   -0.5868   -1.4444 N   0  0  0  0  0  0  0  0  0  0  0  0
   -1.8972   -1.6619   -2.1412 C   0  0  2  0  0  0  0  0  0  0  0  0
   -1.4886   -1.5982   -3.6070 C   0  0  0  0  0  0  0  0  0  0  0  0
   -1.0669   -0.5750   -4.1420 O   0  0  0  0  0  0  0  0  0  0  0  0
   -3.4074   -1.5622   -1.9932 C   0  0  0  0  0  0  0  0  0  0  0  0
   -1.7836    0.0221   -0.8506 H   0  0  0  0  0  0  0  0  0  0  0  0
   -1.5354   -2.5975   -1.7010 H   0  0  0  0  0  0  0  0  0  0  0  0
   -3.7882   -0.6311   -2.4285 H   0  0  0  0  0  0  0  0  0  0  0  0
   -3.9113   -2.3932   -2.4976 H   0  0  0  0  0  0  0  0  0  0  0  0
   -3.6973   -1.5781   -0.9370 H   0  0  0  0  0  0  0  0  0  0  0  0
   -1.6908   -2.8070   -4.2582 N   0  0  0  0  0  0  0  0  0  0  0  0
   -1.3918   -2.9981   -5.6582 C   0  0  0  0  0  0  0  0  0  0  0  0
   -2.0265   -3.6082   -3.7316 H   0  0  0  0  0  0  0  0  0  0  0  0
   -2.2925   -2.7970   -6.2568 H   0  0  0  0  0  0  0  0  0  0  0  0
   -0.5900   -2.3078   -5.9592 H   0  0  0  0  0  0  0  0  0  0  0  0
   -1.0648   -4.0350   -5.8250 H   0  0  0  0  0  0  0  0  0  0  0  0
 22 24  2  0  0  0  0
 24 26  1  0  0  0  0
 25 26  2  0  0  0  0
 23 25  1  0  0  0  0
 21 22  1  0  0  0  0
 22 23  1  0  0  0  0
  1  3  1  0  0  0  0
  1  7  1  0  0  0  0
  1  2  2  0  0  0  0
 35 36  1  0  0  0  0
 36 44  1  0  0  0  0
 36 37  2  0  0  0  0
  8  9  1  0  0  0  0
  9 17  1  0  0  0  0
  9 10  2  0  0  0  0
 18 19  1  0  0  0  0
 19 34  1  0  0  0  0
 19 20  2  0  0  0  0
 35 38  1  0  0  0  0
  8 11  1  0  0  0  0
 44 45  1  0  0  0  0
 18 21  1  0  0  0  0
 34 35  1  0  0  0  0
  7  8  1  0  0  0  0
 17 18  1  0  0  0  0
 24 32  1  0  0  0  0
 25 33  1  0  0  0  0
  3  4  1  0  0  0  0
  3  5  1  0  0  0  0
  3  6  1  0  0  0  0
 38 41  1  0  0  0  0
 38 42  1  0  0  0  0
 38 43  1  0  0  0  0
 11 14  1  0  0  0  0
 11 15  1  0  0  0  0
 11 16  1  0  0  0  0
 45 47  1  0  0  0  0
 45 48  1  0  0  0  0
 45 49  1  0  0  0  0
 21 29  1  0  0  0  0
 21 30  1  0  0  0  0
 35 40  1  0  0  0  0
  8 13  1  0  0  0  0
 18 28  1  0  0  0  0
 23 31  1  0  0  0  0
 44 46  1  0  0  0  0
  7 12  1  0  0  0  0
 34 39  1  0  0  0  0
 17 27  1  0  0  0  0
M  END
$$$$

  -OEChem-05262214473D

 49 49  0     1  0  0  0  0  0999 V2000
   -1.5619    0.5658    3.7981 C   0  0  0  0  0  0  0  0  0  0  0  0
   -0.6145   -0.0489    3.3224 O   0  0  0  0  0  0  0  0  0  0  0  0
   -1.9938    0.2834    5.1988 C   0  0  0  0  0  0  0  0  0  0  0  0
   -2.7535   -0.5129    5.2522 H   0  0  0  0  0  0  0  0  0  0  0  0
   -1.1626   -0.0642    5.8331 H   0  0  0  0  0  0  0  0  0  0  0  0
   -2.4318    1.1383    5.7384 H   0  0  0  0  0  0  0  0  0  0  0  0
   -2.3116    1.5383    3.1570 N   0  0  0  0  0  0  0  0  0  0  0  0
   -2.0648    1.9643    1.8046 C   0  0  2  0  0  0  0  0  0  0  0  0
   -0.7298    1.3789    1.3634 C   0  0  0  0  0  0  0  0  0  0  0  0
    0.1423    1.0262    2.1547 O   0  0  0  0  0  0  0  0  0  0  0  0
   -2.0560    3.4811    1.6952 C   0  0  0  0  0  0  0  0  0  0  0  0
   -3.0767    1.9741    3.6688 H   0  0  0  0  0  0  0  0  0  0  0  0
   -2.8689    1.5458    1.1895 H   0  0  0  0  0  0  0  0  0  0  0  0
   -1.2569    3.9183    2.3049 H   0  0  0  0  0  0  0  0  0  0  0  0
   -1.8965    3.8033    0.6609 H   0  0  0  0  0  0  0  0  0  0  0  0
   -3.0062    3.9023    2.0409 H   0  0  0  0  0  0  0  0  0  0  0  0
   -0.6071    1.3358   -0.0200 N   0  0  0  0  0  0  0  0  0  0  0  0
    0.5702    0.8350   -0.6836 C   0  0  2  0  0  0  0  0  0  0  0  0
    0.1346   -0.3446   -1.5456 C   0  0  0  0  0  0  0  0  0  0  0  0
    0.9238   -1.1744   -1.9922 O   0  0  0  0  0  0  0  0  0  0  0  0
    1.6530    0.3980    0.3096 C   0  0  0  0  0  0  0  0  0  0  0  0
    2.1843    1.5442    1.1354 C   0  0  0  0  0  0  0  0  0  0  0  0
    3.0406    2.4828    0.6325 N   0  0  0  0  0  0  0  0  0  0  0  0
    1.9844    1.9152    2.4442 C   0  0  0  0  0  0  0  0  0  0  0  0
    3.3183    3.3654    1.6391 C   0  0  0  0  0  0  0  0  0  0  0  0
    2.6928    3.0498    2.7514 N   0  0  0  0  0  0  0  0  0  0  0  0
   -1.3903    1.6325   -0.5973 H   0  0  0  0  0  0  0  0  0  0  0  0
    0.9291    1.6415   -1.3339 H   0  0  0  0  0  0  0  0  0  0  0  0
    2.4816   -0.0900   -0.2213 H   0  0  0  0  0  0  0  0  0  0  0  0
    1.2602   -0.3656    0.9939 H   0  0  0  0  0  0  0  0  0  0  0  0
    3.4051    2.5199   -0.3104 H   0  0  0  0  0  0  0  0  0  0  0  0
    1.3666    1.4247    3.1829 H   0  0  0  0  0  0  0  0  0  0  0  0
    3.9784    4.2092    1.4970 H   0  0  0  0  0  0  0  0  0  0  0  0
   -1.2427   -0.3853   -1.7129 N   0  0  0  0  0  0  0  0  0  0  0  0
   -1.9203   -1.4148   -2.4677 C   0  0  2  0  0  0  0  0  0  0  0  0
   -1.2292   -1.5389   -3.8192 C   0  0  0  0  0  0  0  0  0  0  0  0
   -0.5591   -0.6357   -4.3154 O   0  0  0  0  0  0  0  0  0  0  0  0
   -3.3968   -1.0936   -2.6397 C   0  0  0  0  0  0  0  0  0  0  0  0
   -1.8025    0.3451   -1.2830 H   0  0  0  0  0  0  0  0  0  0  0  0
   -1.7996   -2.3487   -1.9080 H   0  0  0  0  0  0  0  0  0  0  0  0
   -3.5376   -0.1611   -3.1983 H   0  0  0  0  0  0  0  0  0  0  0  0
   -3.9145   -1.8882   -3.1871 H   0  0  0  0  0  0  0  0  0  0  0  0
   -3.8858   -0.9753   -1.6667 H   0  0  0  0  0  0  0  0  0  0  0  0
   -1.4844   -2.7610   -4.4255 N   0  0  0  0  0  0  0  0  0  0  0  0
   -0.9514   -3.1153   -5.7203 C   0  0  0  0  0  0  0  0  0  0  0  0
   -2.0353   -3.4578   -3.9329 H   0  0  0  0  0  0  0  0  0  0  0  0
   -1.6764   -2.8451   -6.5022 H   0  0  0  0  0  0  0  0  0  0  0  0
   -0.0098   -2.5725   -5.8901 H   0  0  0  0  0  0  0  0  0  0  0  0
   -0.7617   -4.1983   -5.7547 H   0  0  0  0  0  0  0  0  0  0  0  0
 22 24  2  0  0  0  0
 24 26  1  0  0  0  0
 25 26  2  0  0  0  0
 23 25  1  0  0  0  0
 21 22  1  0  0  0  0
 22 23  1  0  0  0  0
  1  3  1  0  0  0  0
  1  7  1  0  0  0  0
  1  2  2  0  0  0  0
 35 36  1  0  0  0  0
 36 44  1  0  0  0  0
 36 37  2  0  0  0  0
  8  9  1  0  0  0  0
  9 17  1  0  0  0  0
  9 10  2  0  0  0  0
 18 19  1  0  0  0  0
 19 34  1  0  0  0  0
 19 20  2  0  0  0  0
 35 38  1  0  0  0  0
  8 11  1  0  0  0  0
 44 45  1  0  0  0  0
 18 21  1  0  0  0  0
 34 35  1  0  0  0  0
  7  8  1  0  0  0  0
 17 18  1  0  0  0  0
 24 32  1  0  0  0  0
 25 33  1  0  0  0  0
  3  4  1  0  0  0  0
  3  5  1  0  0  0  0
  3  6  1  0  0  0  0
 38 41  1  0  0  0  0
 38 42  1  0  0  0  0
 38 43  1  0  0  0  0
 11 14  1  0  0  0  0
 11 15  1  0  0  0  0
 11 16  1  0  0  0  0
 45 47  1  0  0  0  0
 45 48  1  0  0  0  0
 45 49  1  0  0  0  0
 21 29  1  0  0  0  0
 21 30  1  0  0  0  0
 35 40  1  0  0  0  0
  8 13  1  0  0  0  0
 18 28  1  0  0  0  0
 23 31  1  0  0  0  0
 44 46  1  0  0  0  0
  7 12  1  0  0  0  0
 34 39  1  0  0  0  0
 17 27  1  0  0  0  0
M  END
$$$$

  -OEChem-05262214473D

 49 49  0     1  0  0  0  0  0999 V2000
   -1.5619    0.5658    3.7981 C   0  0  0  0  0  0  0  0  0  0  0  0
   -0.6145   -0.0489    3.3224 O   0  0  0  0  0  0  0  0  0  0  0  0
   -1.9938    0.2834    5.1988 C   0  0  0  0  0  0  0  0  0  0  0  0
   -2.7535   -0.5129    5.2522 H   0  0  0  0  0  0  0  0  0  0  0  0
   -1.1626   -0.0642    5.8331 H   0  0  0  0  0  0  0  0  0  0  0  0
   -2.4318    1.1383    5.7384 H   0  0  0  0  0  0  0  0  0  0  0  0
   -2.3116    1.5383    3.1570 N   0  0  0  0  0  0  0  0  0  0  0  0
   -2.0648    1.9643    1.8046 C   0  0  2  0  0  0  0  0  0  0  0  0
   -0.7298    1.3789    1.3634 C   0  0  0  0  0  0  0  0  0  0  0  0
    0.1423    1.0262    2.1547 O   0  0  0  0  0  0  0  0  0  0  0  0
   -2.0560    3.4811    1.6952 C   0  0  0  0  0  0  0  0  0  0  0  0
   -3.0767    1.9741    3.6688 H   0  0  0  0  0  0  0  0  0  0  0  0
   -2.8689    1.5458    1.1895 H   0  0  0  0  0  0  0  0  0  0  0  0
   -1.2569    3.9183    2.3049 H   0  0  0  0  0  0  0  0  0  0  0  0
   -1.8965    3.8033    0.6609 H   0  0  0  0  0  0  0  0  0  0  0  0
   -3.0062    3.9023    2.0409 H   0  0  0  0  0  0  0  0  0  0  0  0
   -0.6071    1.3358   -0.0200 N   0  0  0  0  0  0  0  0  0  0  0  0
    0.5702    0.8350   -0.6836 C   0  0  2  0  0  0  0  0  0  0  0  0
    0.1346   -0.3446   -1.5456 C   0  0  0  0  0  0  0  0  0  0  0  0
    0.8583   -1.3123   -1.7705 O   0  0  0  0  0  0  0  0  0  0  0  0
    1.6530    0.3980    0.3096 C   0  0  0  0  0  0  0  0  0  0  0  0
    2.1843    1.5442    1.1354 C   0  0  0  0  0  0  0  0  0  0  0  0
    3.0406    2.4828    0.6325 N   0  0  0  0  0  0  0  0  0  0  0  0
    1.9844    1.9152    2.4442 C   0  0  0  0  0  0  0  0  0  0  0  0
    3.3183    3.3654    1.6391 C   0  0  0  0  0  0  0  0  0  0  0  0
    2.6928    3.0498    2.7514 N   0  0  0  0  0  0  0  0  0  0  0  0
   -1.3903    1.6325   -0.5973 H   0  0  0  0  0  0  0  0  0  0  0  0
    0.9291    1.6415   -1.3339 H   0  0  0  0  0  0  0  0  0  0  0  0
    2.4816   -0.0900   -0.2213 H   0  0  0  0  0  0  0  0  0  0  0  0
    1.2602   -0.3656    0.9939 H   0  0  0  0  0  0  0  0  0  0  0  0
    3.4051    2.5199   -0.3104 H   0  0  0  0  0  0  0  0  0  0  0  0
    1.3666    1.4247    3.1829 H   0  0  0  0  0  0  0  0  0  0  0  0
    3.9784    4.2092    1.4970 H   0  0  0  0  0  0  0  0  0  0  0  0
   -1.1733   -0.2084   -1.9900 N   0  0  0  0  0  0  0  0  0  0  0  0
   -1.8411   -1.1968   -2.8060 C   0  0  2  0  0  0  0  0  0  0  0  0
   -0.9275   -1.5353   -3.9766 C   0  0  0  0  0  0  0  0  0  0  0  0
   -0.0428   -0.7816   -4.3767 O   0  0  0  0  0  0  0  0  0  0  0  0
   -3.1885   -0.6904   -3.2967 C   0  0  0  0  0  0  0  0  0  0  0  0
   -1.6869    0.6279   -1.7284 H   0  0  0  0  0  0  0  0  0  0  0  0
   -1.9769   -2.0850   -2.1792 H   0  0  0  0  0  0  0  0  0  0  0  0
   -3.0726    0.1993   -3.9264 H   0  0  0  0  0  0  0  0  0  0  0  0
   -3.7057   -1.4509   -3.8910 H   0  0  0  0  0  0  0  0  0  0  0  0
   -3.8335   -0.4194   -2.4539 H   0  0  0  0  0  0  0  0  0  0  0  0
   -1.2447   -2.7591   -4.5492 N   0  0  0  0  0  0  0  0  0  0  0  0
   -0.5307   -3.2976   -5.6834 C   0  0  0  0  0  0  0  0  0  0  0  0
   -1.9815   -3.3262   -4.1402 H   0  0  0  0  0  0  0  0  0  0  0  0
   -1.0392   -3.0000   -6.6123 H   0  0  0  0  0  0  0  0  0  0  0  0
    0.4980   -2.9080   -5.6875 H   0  0  0  0  0  0  0  0  0  0  0  0
   -0.5069   -4.3952   -5.6140 H   0  0  0  0  0  0  0  0  0  0  0  0
 22 24  2  0  0  0  0
 24 26  1  0  0  0  0
 25 26  2  0  0  0  0
 23 25  1  0  0  0  0
 21 22  1  0  0  0  0
 22 23  1  0  0  0  0
  1  3  1  0  0  0  0
  1  7  1  0  0  0  0
  1  2  2  0  0  0  0
 35 36  1  0  0  0  0
 36 44  1  0  0  0  0
 36 37  2  0  0  0  0
  8  9  1  0  0  0  0
  9 17  1  0  0  0  0
  9 10  2  0  0  0  0
 18 19  1  0  0  0  0
 19 34  1  0  0  0  0
 19 20  2  0  0  0  0
 35 38  1  0  0  0  0
  8 11  1  0  0  0  0
 44 45  1  0  0  0  0
 18 21  1  0  0  0  0
 34 35  1  0  0  0  0
  7  8  1  0  0  0  0
 17 18  1  0  0  0  0
 24 32  1  0  0  0  0
 25 33  1  0  0  0  0
  3  4  1  0  0  0  0
  3  5  1  0  0  0  0
  3  6  1  0  0  0  0
 38 41  1  0  0  0  0
 38 42  1  0  0  0  0
 38 43  1  0  0  0  0
 11 14  1  0  0  0  0
 11 15  1  0  0  0  0
 11 16  1  0  0  0  0
 45 47  1  0  0  0  0
 45 48  1  0  0  0  0
 45 49  1  0  0  0  0
 21 29  1  0  0  0  0
 21 30  1  0  0  0  0
 35 40  1  0  0  0  0
  8 13  1  0  0  0  0
 18 28  1  0  0  0  0
 23 31  1  0  0  0  0
 44 46  1  0  0  0  0
  7 12  1  0  0  0  0
 34 39  1  0  0  0  0
 17 27  1  0  0  0  0
M  END
$$$$

  -OEChem-05262214473D

 49 49  0     1  0  0  0  0  0999 V2000
   -1.5619    0.5658    3.7981 C   0  0  0  0  0  0  0  0  0  0  0  0
   -0.6145   -0.0489    3.3224 O   0  0  0  0  0  0  0  0  0  0  0  0
   -1.9938    0.2834    5.1988 C   0  0  0  0  0  0  0  0  0  0  0  0
   -2.7535   -0.5129    5.2522 H   0  0  0  0  0  0  0  0  0  0  0  0
   -1.1626   -0.0642    5.8331 H   0  0  0  0  0  0  0  0  0  0  0  0
   -2.4318    1.1383    5.7384 H   0  0  0  0  0  0  0  0  0  0  0  0
   -2.3116    1.5383    3.1570 N   0  0  0  0  0  0  0  0  0  0  0  0
   -2.0648    1.9643    1.8046 C   0  0  2  0  0  0  0  0  0  0  0  0
   -0.7298    1.3789    1.3634 C   0  0  0  0  0  0  0  0  0  0  0  0
    0.1423    1.0262    2.1547 O   0  0  0  0  0  0  0  0  0  0  0  0
   -2.0560    3.4811    1.6952 C   0  0  0  0  0  0  0  0  0  0  0  0
   -3.0767    1.9741    3.6688 H   0  0  0  0  0  0  0  0  0  0  0  0
   -2.8689    1.5458    1.1895 H   0  0  0  0  0  0  0  0  0  0  0  0
   -1.2569    3.9183    2.3049 H   0  0  0  0  0  0  0  0  0  0  0  0
   -1.8965    3.8033    0.6609 H   0  0  0  0  0  0  0  0  0  0  0  0
   -3.0062    3.9023    2.0409 H   0  0  0  0  0  0  0  0  0  0  0  0
   -0.6071    1.3358   -0.0200 N   0  0  0  0  0  0  0  0  0  0  0  0
    0.5702    0.8350   -0.6836 C   0  0  2  0  0  0  0  0  0  0  0  0
    0.1346   -0.3446   -1.5456 C   0  0  0  0  0  0  0  0  0  0  0  0
    0.7306   -1.4195   -1.5592 O   0  0  0  0  0  0  0  0  0  0  0  0
    1.6530    0.3980    0.3096 C   0  0  0  0  0  0  0  0  0  0  0  0
    2.1843    1.5442    1.1354 C   0  0  0  0  0  0  0  0  0  0  0  0
    3.0406    2.4828    0.6325 N   0  0  0  0  0  0  0  0  0  0  0  0
    1.9844    1.9152    2.4442 C   0  0  0  0  0  0  0  0  0  0  0  0
    3.3183    3.3654    1.6391 C   0  0  0  0  0  0  0  0  0  0  0  0
    2.6928    3.0498    2.7514 N   0  0  0  0  0  0  0  0  0  0  0  0
   -1.3903    1.6325   -0.5973 H   0  0  0  0  0  0  0  0  0  0  0  0
    0.9291    1.6415   -1.3339 H   0  0  0  0  0  0  0  0  0  0  0  0
    2.4816   -0.0900   -0.2213 H   0  0  0  0  0  0  0  0  0  0  0  0
    1.2602   -0.3656    0.9939 H   0  0  0  0  0  0  0  0  0  0  0  0
    3.4051    2.5199   -0.3104 H   0  0  0  0  0  0  0  0  0  0  0  0
    1.3666    1.4247    3.1829 H   0  0  0  0  0  0  0  0  0  0  0  0
    3.9784    4.2092    1.4970 H   0  0  0  0  0  0  0  0  0  0  0  0
   -1.0249   -0.0682   -2.2568 N   0  0  0  0  0  0  0  0  0  0  0  0
   -1.6650   -1.0229   -3.1330 C   0  0  2  0  0  0  0  0  0  0  0  0
   -0.6041   -1.5876   -4.0685 C   0  0  0  0  0  0  0  0  0  0  0  0
    0.4469   -1.0025   -4.3218 O   0  0  0  0  0  0  0  0  0  0  0  0
   -2.7967   -0.3800   -3.9195 C   0  0  0  0  0  0  0  0  0  0  0  0
   -1.4447    0.8512   -2.1564 H   0  0  0  0  0  0  0  0  0  0  0  0
   -2.0552   -1.8244   -2.4963 H   0  0  0  0  0  0  0  0  0  0  0  0
   -2.4249    0.4255   -4.5633 H   0  0  0  0  0  0  0  0  0  0  0  0
   -3.2990   -1.1111   -4.5615 H   0  0  0  0  0  0  0  0  0  0  0  0
   -3.5439    0.0518   -3.2449 H   0  0  0  0  0  0  0  0  0  0  0  0
   -0.9881   -2.8015   -4.6208 N   0  0  0  0  0  0  0  0  0  0  0  0
   -0.1585   -3.5325   -5.5500 C   0  0  0  0  0  0  0  0  0  0  0  0
   -1.8688   -3.2222   -4.3395 H   0  0  0  0  0  0  0  0  0  0  0  0
   -0.4243   -3.2509   -6.5796 H   0  0  0  0  0  0  0  0  0  0  0  0
    0.8988   -3.2915   -5.3654 H   0  0  0  0  0  0  0  0  0  0  0  0
   -0.3178   -4.6122   -5.4126 H   0  0  0  0  0  0  0  0  0  0  0  0
 22 24  2  0  0  0  0
 24 26  1  0  0  0  0
 25 26  2  0  0  0  0
 23 25  1  0  0  0  0
 21 22  1  0  0  0  0
 22 23  1  0  0  0  0
  1  3  1  0  0  0  0
  1  7  1  0  0  0  0
  1  2  2  0  0  0  0
 35 36  1  0  0  0  0
 36 44  1  0  0  0  0
 36 37  2  0  0  0  0
  8  9  1  0  0  0  0
  9 17  1  0  0  0  0
  9 10  2  0  0  0  0
 18 19  1  0  0  0  0
 19 34  1  0  0  0  0
 19 20  2  0  0  0  0
 35 38  1  0  0  0  0
  8 11  1  0  0  0  0
 44 45  1  0  0  0  0
 18 21  1  0  0  0  0
 34 35  1  0  0  0  0
  7  8  1  0  0  0  0
 17 18  1  0  0  0  0
 24 32  1  0  0  0  0
 25 33  1  0  0  0  0
  3  4  1  0  0  0  0
  3  5  1  0  0  0  0
  3  6  1  0  0  0  0
 38 41  1  0  0  0  0
 38 42  1  0  0  0  0
 38 43  1  0  0  0  0
 11 14  1  0  0  0  0
 11 15  1  0  0  0  0
 11 16  1  0  0  0  0
 45 47  1  0  0  0  0
 45 48  1  0  0  0  0
 45 49  1  0  0  0  0
 21 29  1  0  0  0  0
 21 30  1  0  0  0  0
 35 40  1  0  0  0  0
  8 13  1  0  0  0  0
 18 28  1  0  0  0  0
 23 31  1  0  0  0  0
 44 46  1  0  0  0  0
  7 12  1  0  0  0  0
 34 39  1  0  0  0  0
 17 27  1  0  0  0  0
M  END
$$$$

  -OEChem-05262214473D

 49 49  0     1  0  0  0  0  0999 V2000
   -1.5619    0.5658    3.7981 C   0  0  0  0  0  0  0  0  0  0  0  0
   -0.6145   -0.0489    3.3224 O   0  0  0  0  0  0  0  0  0  0  0  0
   -1.9938    0.2834    5.1988 C   0  0  0  0  0  0  0  0  0  0  0  0
   -2.7535   -0.5129    5.2522 H   0  0  0  0  0  0  0  0  0  0  0  0
   -1.1626   -0.0642    5.8331 H   0  0  0  0  0  0  0  0  0  0  0  0
   -2.4318    1.1383    5.7384 H   0  0  0  0  0  0  0  0  0  0  0  0
   -2.3116    1.5383    3.1570 N   0  0  0  0  0  0  0  0  0  0  0  0
   -2.0648    1.9643    1.8046 C   0  0  2  0  0  0  0  0  0  0  0  0
   -0.7298    1.3789    1.3634 C   0  0  0  0  0  0  0  0  0  0  0  0
    0.1423    1.0262    2.1547 O   0  0  0  0  0  0  0  0  0  0  0  0
   -2.0560    3.4811    1.6952 C   0  0  0  0  0  0  0  0  0  0  0  0
   -3.0767    1.9741    3.6688 H   0  0  0  0  0  0  0  0  0  0  0  0
   -2.8689    1.5458    1.1895 H   0  0  0  0  0  0  0  0  0  0  0  0
   -1.2569    3.9183    2.3049 H   0  0  0  0  0  0  0  0  0  0  0  0
   -1.8965    3.8033    0.6609 H   0  0  0  0  0  0  0  0  0  0  0  0
   -3.0062    3.9023    2.0409 H   0  0  0  0  0  0  0  0  0  0  0  0
   -0.6071    1.3358   -0.0200 N   0  0  0  0  0  0  0  0  0  0  0  0
    0.5702    0.8350   -0.6836 C   0  0  2  0  0  0  0  0  0  0  0  0
    0.1346   -0.3446   -1.5456 C   0  0  0  0  0  0  0  0  0  0  0  0
    0.5491   -1.4887   -1.3728 O   0  0  0  0  0  0  0  0  0  0  0  0
    1.6530    0.3980    0.3096 C   0  0  0  0  0  0  0  0  0  0  0  0
    2.1843    1.5442    1.1354 C   0  0  0  0  0  0  0  0  0  0  0  0
    3.0406    2.4828    0.6325 N   0  0  0  0  0  0  0  0  0  0  0  0
    1.9844    1.9152    2.4442 C   0  0  0  0  0  0  0  0  0  0  0  0
    3.3183    3.3654    1.6391 C   0  0  0  0  0  0  0  0  0  0  0  0
    2.6928    3.0498    2.7514 N   0  0  0  0  0  0  0  0  0  0  0  0
   -1.3903    1.6325   -0.5973 H   0  0  0  0  0  0  0  0  0  0  0  0
    0.9291    1.6415   -1.3339 H   0  0  0  0  0  0  0  0  0  0  0  0
    2.4816   -0.0900   -0.2213 H   0  0  0  0  0  0  0  0  0  0  0  0
    1.2602   -0.3656    0.9939 H   0  0  0  0  0  0  0  0  0  0  0  0
    3.4051    2.5199   -0.3104 H   0  0  0  0  0  0  0  0  0  0  0  0
    1.3666    1.4247    3.1829 H   0  0  0  0  0  0  0  0  0  0  0  0
    3.9784    4.2092    1.4970 H   0  0  0  0  0  0  0  0  0  0  0  0
   -0.8076    0.0257   -2.4952 N   0  0  0  0  0  0  0  0  0  0  0  0
   -1.4039   -0.9049   -3.4264 C   0  0  2  0  0  0  0  0  0  0  0  0
   -0.2809   -1.6922   -4.0886 C   0  0  0  0  0  0  0  0  0  0  0  0
    0.8765   -1.2836   -4.1543 O   0  0  0  0  0  0  0  0  0  0  0  0
   -2.2481   -0.1836   -4.4655 C   0  0  0  0  0  0  0  0  0  0  0  0
   -1.0923    0.9998   -2.5378 H   0  0  0  0  0  0  0  0  0  0  0  0
   -2.0293   -1.5847   -2.8374 H   0  0  0  0  0  0  0  0  0  0  0  0
   -1.6386    0.5021   -5.0654 H   0  0  0  0  0  0  0  0  0  0  0  0
   -2.7221   -0.8920   -5.1529 H   0  0  0  0  0  0  0  0  0  0  0  0
   -3.0369    0.4060   -3.9858 H   0  0  0  0  0  0  0  0  0  0  0  0
   -0.7321   -2.8853   -4.6355 N   0  0  0  0  0  0  0  0  0  0  0  0
    0.1400   -3.8041   -5.3292 C   0  0  0  0  0  0  0  0  0  0  0  0
   -1.7048   -3.1530   -4.5170 H   0  0  0  0  0  0  0  0  0  0  0  0
    0.1264   -3.5809   -6.4063 H   0  0  0  0  0  0  0  0  0  0  0  0
    1.1653   -3.6966   -4.9456 H   0  0  0  0  0  0  0  0  0  0  0  0
   -0.2072   -4.8347   -5.1640 H   0  0  0  0  0  0  0  0  0  0  0  0
 22 24  2  0  0  0  0
 24 26  1  0  0  0  0
 25 26  2  0  0  0  0
 23 25  1  0  0  0  0
 21 22  1  0  0  0  0
 22 23  1  0  0  0  0
  1  3  1  0  0  0  0
  1  7  1  0  0  0  0
  1  2  2  0  0  0  0
 35 36  1  0  0  0  0
 36 44  1  0  0  0  0
 36 37  2  0  0  0  0
  8  9  1  0  0  0  0
  9 17  1  0  0  0  0
  9 10  2  0  0  0  0
 18 19  1  0  0  0  0
 19 34  1  0  0  0  0
 19 20  2  0  0  0  0
 35 38  1  0  0  0  0
  8 11  1  0  0  0  0
 44 45  1  0  0  0  0
 18 21  1  0  0  0  0
 34 35  1  0  0  0  0
  7  8  1  0  0  0  0
 17 18  1  0  0  0  0
 24 32  1  0  0  0  0
 25 33  1  0  0  0  0
  3  4  1  0  0  0  0
  3  5  1  0  0  0  0
  3  6  1  0  0  0  0
 38 41  1  0  0  0  0
 38 42  1  0  0  0  0
 38 43  1  0  0  0  0
 11 14  1  0  0  0  0
 11 15  1  0  0  0  0
 11 16  1  0  0  0  0
 45 47  1  0  0  0  0
 45 48  1  0  0  0  0
 45 49  1  0  0  0  0
 21 29  1  0  0  0  0
 21 30  1  0  0  0  0
 35 40  1  0  0  0  0
  8 13  1  0  0  0  0
 18 28  1  0  0  0  0
 23 31  1  0  0  0  0
 44 46  1  0  0  0  0
  7 12  1  0  0  0  0
 34 39  1  0  0  0  0
 17 27  1  0  0  0  0
M  END
$$$$

  -OEChem-05262214473D

 49 49  0     1  0  0  0  0  0999 V2000
   -1.5619    0.5658    3.7981 C   0  0  0  0  0  0  0  0  0  0  0  0
   -0.6145   -0.0489    3.3224 O   0  0  0  0  0  0  0  0  0  0  0  0
   -1.9938    0.2834    5.1988 C   0  0  0  0  0  0  0  0  0  0  0  0
   -2.7535   -0.5129    5.2522 H   0  0  0  0  0  0  0  0  0  0  0  0
   -1.1626   -0.0642    5.8331 H   0  0  0  0  0  0  0  0  0  0  0  0
   -2.4318    1.1383    5.7384 H   0  0  0  0  0  0  0  0  0  0  0  0
   -2.3116    1.5383    3.1570 N   0  0  0  0  0  0  0  0  0  0  0  0
   -2.0648    1.9643    1.8046 C   0  0  2  0  0  0  0  0  0  0  0  0
   -0.7298    1.3789    1.3634 C   0  0  0  0  0  0  0  0  0  0  0  0
    0.1423    1.0262    2.1547 O   0  0  0  0  0  0  0  0  0  0  0  0
   -2.0560    3.4811    1.6952 C   0  0  0  0  0  0  0  0  0  0  0  0
   -3.0767    1.9741    3.6688 H   0  0  0  0  0  0  0  0  0  0  0  0
   -2.8689    1.5458    1.1895 H   0  0  0  0  0  0  0  0  0  0  0  0
   -1.2569    3.9183    2.3049 H   0  0  0  0  0  0  0  0  0  0  0  0
   -1.8965    3.8033    0.6609 H   0  0  0  0  0  0  0  0  0  0  0  0
   -3.0062    3.9023    2.0409 H   0  0  0  0  0  0  0  0  0  0  0  0
   -0.6071    1.3358   -0.0200 N   0  0  0  0  0  0  0  0  0  0  0  0
    0.5702    0.8350   -0.6836 C   0  0  2  0  0  0  0  0  0  0  0  0
    0.1346   -0.3446   -1.5456 C   0  0  0  0  0  0  0  0  0  0  0  0
    0.3265   -1.5153   -1.2239 O   0  0  0  0  0  0  0  0  0  0  0  0
    1.6530    0.3980    0.3096 C   0  0  0  0  0  0  0  0  0  0  0  0
    2.1843    1.5442    1.1354 C   0  0  0  0  0  0  0  0  0  0  0  0
    3.0406    2.4828    0.6325 N   0  0  0  0  0  0  0  0  0  0  0  0
    1.9844    1.9152    2.4442 C   0  0  0  0  0  0  0  0  0  0  0  0
    3.3183    3.3654    1.6391 C   0  0  0  0  0  0  0  0  0  0  0  0
    2.6928    3.0498    2.7514 N   0  0  0  0  0  0  0  0  0  0  0  0
   -1.3903    1.6325   -0.5973 H   0  0  0  0  0  0  0  0  0  0  0  0
    0.9291    1.6415   -1.3339 H   0  0  0  0  0  0  0  0  0  0  0  0
    2.4816   -0.0900   -0.2213 H   0  0  0  0  0  0  0  0  0  0  0  0
    1.2602   -0.3656    0.9939 H   0  0  0  0  0  0  0  0  0  0  0  0
    3.4051    2.5199   -0.3104 H   0  0  0  0  0  0  0  0  0  0  0  0
    1.3666    1.4247    3.1829 H   0  0  0  0  0  0  0  0  0  0  0  0
    3.9784    4.2092    1.4970 H   0  0  0  0  0  0  0  0  0  0  0  0
   -0.5362    0.0671   -2.6889 N   0  0  0  0  0  0  0  0  0  0  0  0
   -1.0757   -0.8508   -3.6663 C   0  0  2  0  0  0  0  0  0  0  0  0
    0.0199   -1.8421   -4.0356 C   0  0  0  0  0  0  0  0  0  0  0  0
    1.2169   -1.6055   -3.8858 O   0  0  0  0  0  0  0  0  0  0  0  0
   -1.5801   -0.1145   -4.8976 C   0  0  0  0  0  0  0  0  0  0  0  0
   -0.6538    1.0636   -2.8466 H   0  0  0  0  0  0  0  0  0  0  0  0
   -1.9008   -1.3821   -3.1795 H   0  0  0  0  0  0  0  0  0  0  0  0
   -0.7674    0.4239   -5.3987 H   0  0  0  0  0  0  0  0  0  0  0  0
   -2.0144   -0.8085   -5.6247 H   0  0  0  0  0  0  0  0  0  0  0  0
   -2.3469    0.6191   -4.6261 H   0  0  0  0  0  0  0  0  0  0  0  0
   -0.4942   -3.0048   -4.5922 N   0  0  0  0  0  0  0  0  0  0  0  0
    0.3444   -4.0937   -5.0362 C   0  0  0  0  0  0  0  0  0  0  0  0
   -1.5007   -3.1233   -4.6608 H   0  0  0  0  0  0  0  0  0  0  0  0
    0.5752   -3.9674   -6.1042 H   0  0  0  0  0  0  0  0  0  0  0  0
    1.2794   -4.0960   -4.4568 H   0  0  0  0  0  0  0  0  0  0  0  0
   -0.1827   -5.0473   -4.8854 H   0  0  0  0  0  0  0  0  0  0  0  0
 22 24  2  0  0  0  0
 24 26  1  0  0  0  0
 25 26  2  0  0  0  0
 23 25  1  0  0  0  0
 21 22  1  0  0  0  0
 22 23  1  0  0  0  0
  1  3  1  0  0  0  0
  1  7  1  0  0  0  0
  1  2  2  0  0  0  0
 35 36  1  0  0  0  0
 36 44  1  0  0  0  0
 36 37  2  0  0  0  0
  8  9  1  0  0  0  0
  9 17  1  0  0  0  0
  9 10  2  0  0  0  0
 18 19  1  0  0  0  0
 19 34  1  0  0  0  0
 19 20  2  0  0  0  0
 35 38  1  0  0  0  0
  8 11  1  0  0  0  0
 44 45  1  0  0  0  0
 18 21  1  0  0  0  0
 34 35  1  0  0  0  0
  7  8  1  0  0  0  0
 17 18  1  0  0  0  0
 24 32  1  0  0  0  0
 25 33  1  0  0  0  0
  3  4  1  0  0  0  0
  3  5  1  0  0  0  0
  3  6  1  0  0  0  0
 38 41  1  0  0  0  0
 38 42  1  0  0  0  0
 38 43  1  0  0  0  0
 11 14  1  0  0  0  0
 11 15  1  0  0  0  0
 11 16  1  0  0  0  0
 45 47  1  0  0  0  0
 45 48  1  0  0  0  0
 45 49  1  0  0  0  0
 21 29  1  0  0  0  0
 21 30  1  0  0  0  0
 35 40  1  0  0  0  0
  8 13  1  0  0  0  0
 18 28  1  0  0  0  0
 23 31  1  0  0  0  0
 44 46  1  0  0  0  0
  7 12  1  0  0  0  0
 34 39  1  0  0  0  0
 17 27  1  0  0  0  0
M  END
$$$$

  -OEChem-05262214473D

 49 49  0     1  0  0  0  0  0999 V2000
   -1.5619    0.5658    3.7981 C   0  0  0  0  0  0  0  0  0  0  0  0
   -0.6145   -0.0489    3.3224 O   0  0  0  0  0  0  0  0  0  0  0  0
   -1.9938    0.2834    5.1988 C   0  0  0  0  0  0  0  0  0  0  0  0
   -2.7535   -0.5129    5.2522 H   0  0  0  0  0  0  0  0  0  0  0  0
   -1.1626   -0.0642    5.8331 H   0  0  0  0  0  0  0  0  0  0  0  0
   -2.4318    1.1383    5.7384 H   0  0  0  0  0  0  0  0  0  0  0  0
   -2.3116    1.5383    3.1570 N   0  0  0  0  0  0  0  0  0  0  0  0
   -2.0648    1.9643    1.8046 C   0  0  2  0  0  0  0  0  0  0  0  0
   -0.7298    1.3789    1.3634 C   0  0  0  0  0  0  0  0  0  0  0  0
    0.1423    1.0262    2.1547 O   0  0  0  0  0  0  0  0  0  0  0  0
   -2.0560    3.4811    1.6952 C   0  0  0  0  0  0  0  0  0  0  0  0
   -3.0767    1.9741    3.6688 H   0  0  0  0  0  0  0  0  0  0  0  0
   -2.8689    1.5458    1.1895 H   0  0  0  0  0  0  0  0  0  0  0  0
   -1.2569    3.9183    2.3049 H   0  0  0  0  0  0  0  0  0  0  0  0
   -1.8965    3.8033    0.6609 H   0  0  0  0  0  0  0  0  0  0  0  0
   -3.0062    3.9023    2.0409 H   0  0  0  0  0  0  0  0  0  0  0  0
   -0.6071    1.3358   -0.0200 N   0  0  0  0  0  0  0  0  0  0  0  0
    0.5702    0.8350   -0.6836 C   0  0  2  0  0  0  0  0  0  0  0  0
    0.1346   -0.3446   -1.5456 C   0  0  0  0  0  0  0  0  0  0  0  0
    0.0777   -1.4973   -1.1228 O   0  0  0  0  0  0  0  0  0  0  0  0
    1.6530    0.3980    0.3096 C   0  0  0  0  0  0  0  0  0  0  0  0
    2.1843    1.5442    1.1354 C   0  0  0  0  0  0  0  0  0  0  0  0
    3.0406    2.4828    0.6325 N   0  0  0  0  0  0  0  0  0  0  0  0
    1.9844    1.9152    2.4442 C   0  0  0  0  0  0  0  0  0  0  0  0
    3.3183    3.3654    1.6391 C   0  0  0  0  0  0  0  0  0  0  0  0
    2.6928    3.0498    2.7514 N   0  0  0  0  0  0  0  0  0  0  0  0
   -1.3903    1.6325   -0.5973 H   0  0  0  0  0  0  0  0  0  0  0  0
    0.9291    1.6415   -1.3339 H   0  0  0  0  0  0  0  0  0  0  0  0
    2.4816   -0.0900   -0.2213 H   0  0  0  0  0  0  0  0  0  0  0  0
    1.2602   -0.3656    0.9939 H   0  0  0  0  0  0  0  0  0  0  0  0
    3.4051    2.5199   -0.3104 H   0  0  0  0  0  0  0  0  0  0  0  0
    1.3666    1.4247    3.1829 H   0  0  0  0  0  0  0  0  0  0  0  0
    3.9784    4.2092    1.4970 H   0  0  0  0  0  0  0  0  0  0  0  0
   -0.2292    0.0530   -2.8247 N   0  0  0  0  0  0  0  0  0  0  0  0
   -0.7027   -0.8643   -3.8363 C   0  0  2  0  0  0  0  0  0  0  0  0
    0.2780   -2.0269   -3.9130 C   0  0  0  0  0  0  0  0  0  0  0  0
    1.4447   -1.9464   -3.5344 O   0  0  0  0  0  0  0  0  0  0  0  0
   -0.8382   -0.1774   -5.1863 C   0  0  0  0  0  0  0  0  0  0  0  0
   -0.1591    1.0382   -3.0619 H   0  0  0  0  0  0  0  0  0  0  0  0
   -1.6786   -1.2306   -3.4992 H   0  0  0  0  0  0  0  0  0  0  0  0
    0.1295    0.1962   -5.5403 H   0  0  0  0  0  0  0  0  0  0  0  0
   -1.2242   -0.8663   -5.9450 H   0  0  0  0  0  0  0  0  0  0  0  0
   -1.5210    0.6767   -5.1222 H   0  0  0  0  0  0  0  0  0  0  0  0
   -0.2906   -3.1519   -4.4939 N   0  0  0  0  0  0  0  0  0  0  0  0
    0.4407   -4.3817   -4.6907 C   0  0  0  0  0  0  0  0  0  0  0  0
   -1.2704   -3.1351   -4.7610 H   0  0  0  0  0  0  0  0  0  0  0  0
    0.8918   -4.3841   -5.6940 H   0  0  0  0  0  0  0  0  0  0  0  0
    1.2333   -4.4623   -3.9323 H   0  0  0  0  0  0  0  0  0  0  0  0
   -0.2460   -5.2357   -4.5956 H   0  0  0  0  0  0  0  0  0  0  0  0
 22 24  2  0  0  0  0
 24 26  1  0  0  0  0
 25 26  2  0  0  0  0
 23 25  1  0  0  0  0
 21 22  1  0  0  0  0
 22 23  1  0  0  0  0
  1  3  1  0  0  0  0
  1  7  1  0  0  0  0
  1  2  2  0  0  0  0
 35 36  1  0  0  0  0
 36 44  1  0  0  0  0
 36 37  2  0  0  0  0
  8  9  1  0  0  0  0
  9 17  1  0  0  0  0
  9 10  2  0  0  0  0
 18 19  1  0  0  0  0
 19 34  1  0  0  0  0
 19 20  2  0  0  0  0
 35 38  1  0  0  0  0
  8 11  1  0  0  0  0
 44 45  1  0  0  0  0
 18 21  1  0  0  0  0
 34 35  1  0  0  0  0
  7  8  1  0  0  0  0
 17 18  1  0  0  0  0
 24 32  1  0  0  0  0
 25 33  1  0  0  0  0
  3  4  1  0  0  0  0
  3  5  1  0  0  0  0
  3  6  1  0  0  0  0
 38 41  1  0  0  0  0
 38 42  1  0  0  0  0
 38 43  1  0  0  0  0
 11 14  1  0  0  0  0
 11 15  1  0  0  0  0
 11 16  1  0  0  0  0
 45 47  1  0  0  0  0
 45 48  1  0  0  0  0
 45 49  1  0  0  0  0
 21 29  1  0  0  0  0
 21 30  1  0  0  0  0
 35 40  1  0  0  0  0
  8 13  1  0  0  0  0
 18 28  1  0  0  0  0
 23 31  1  0  0  0  0
 44 46  1  0  0  0  0
  7 12  1  0  0  0  0
 34 39  1  0  0  0  0
 17 27  1  0  0  0  0
M  END
$$$$

  -OEChem-05262214473D

 49 49  0     1  0  0  0  0  0999 V2000
   -1.5619    0.5658    3.7981 C   0  0  0  0  0  0  0  0  0  0  0  0
   -0.6145   -0.0489    3.3224 O   0  0  0  0  0  0  0  0  0  0  0  0
   -1.9938    0.2834    5.1988 C   0  0  0  0  0  0  0  0  0  0  0  0
   -2.7535   -0.5129    5.2522 H   0  0  0  0  0  0  0  0  0  0  0  0
   -1.1626   -0.0642    5.8331 H   0  0  0  0  0  0  0  0  0  0  0  0
   -2.4318    1.1383    5.7384 H   0  0  0  0  0  0  0  0  0  0  0  0
   -2.3116    1.5383    3.1570 N   0  0  0  0  0  0  0  0  0  0  0  0
   -2.0648    1.9643    1.8046 C   0  0  2  0  0  0  0  0  0  0  0  0
   -0.7298    1.3789    1.3634 C   0  0  0  0  0  0  0  0  0  0  0  0
    0.1423    1.0262    2.1547 O   0  0  0  0  0  0  0  0  0  0  0  0
   -2.0560    3.4811    1.6952 C   0  0  0  0  0  0  0  0  0  0  0  0
   -3.0767    1.9741    3.6688 H   0  0  0  0  0  0  0  0  0  0  0  0
   -2.8689    1.5458    1.1895 H   0  0  0  0  0  0  0  0  0  0  0  0
   -1.2569    3.9183    2.3049 H   0  0  0  0  0  0  0  0  0  0  0  0
   -1.8965    3.8033    0.6609 H   0  0  0  0  0  0  0  0  0  0  0  0
   -3.0062    3.9023    2.0409 H   0  0  0  0  0  0  0  0  0  0  0  0
   -0.6071    1.3358   -0.0200 N   0  0  0  0  0  0  0  0  0  0  0  0
    0.5702    0.8350   -0.6836 C   0  0  2  0  0  0  0  0  0  0  0  0
    0.1346   -0.3446   -1.5456 C   0  0  0  0  0  0  0  0  0  0  0  0
   -0.1803   -1.4361   -1.0763 O   0  0  0  0  0  0  0  0  0  0  0  0
    1.6530    0.3980    0.3096 C   0  0  0  0  0  0  0  0  0  0  0  0
    2.1843    1.5442    1.1354 C   0  0  0  0  0  0  0  0  0  0  0  0
    3.0406    2.4828    0.6325 N   0  0  0  0  0  0  0  0  0  0  0  0
    1.9844    1.9152    2.4442 C   0  0  0  0  0  0  0  0  0  0  0  0
    3.3183    3.3654    1.6391 C   0  0  0  0  0  0  0  0  0  0  0  0
    2.6928    3.0498    2.7514 N   0  0  0  0  0  0  0  0  0  0  0  0
   -1.3903    1.6325   -0.5973 H   0  0  0  0  0  0  0  0  0  0  0  0
    0.9291    1.6415   -1.3339 H   0  0  0  0  0  0  0  0  0  0  0  0
    2.4816   -0.0900   -0.2213 H   0  0  0  0  0  0  0  0  0  0  0  0
    1.2602   -0.3656    0.9939 H   0  0  0  0  0  0  0  0  0  0  0  0
    3.4051    2.5199   -0.3104 H   0  0  0  0  0  0  0  0  0  0  0  0
    1.3666    1.4247    3.1829 H   0  0  0  0  0  0  0  0  0  0  0  0
    3.9784    4.2092    1.4970 H   0  0  0  0  0  0  0  0  0  0  0  0
    0.0925   -0.0156   -2.8934 N   0  0  0  0  0  0  0  0  0  0  0  0
   -0.3104   -0.9445   -3.9248 C   0  0  2  0  0  0  0  0  0  0  0  0
    0.4757   -2.2342   -3.7293 C   0  0  0  0  0  0  0  0  0  0  0  0
    1.5446   -2.2831   -3.1241 O   0  0  0  0  0  0  0  0  0  0  0  0
   -0.0730   -0.3682   -5.3119 C   0  0  0  0  0  0  0  0  0  0  0  0
    0.3581    0.9253   -3.1688 H   0  0  0  0  0  0  0  0  0  0  0  0
   -1.3777   -1.1404   -3.7747 H   0  0  0  0  0  0  0  0  0  0  0  0
    0.9908   -0.1654   -5.4807 H   0  0  0  0  0  0  0  0  0  0  0  0
   -0.4051   -1.0614   -6.0918 H   0  0  0  0  0  0  0  0  0  0  0  0
   -0.6155    0.5747   -5.4403 H   0  0  0  0  0  0  0  0  0  0  0  0
   -0.1351   -3.3164   -4.3473 N   0  0  0  0  0  0  0  0  0  0  0  0
    0.4224   -4.6484   -4.3165 C   0  0  0  0  0  0  0  0  0  0  0  0
   -1.0297   -3.1877   -4.8108 H   0  0  0  0  0  0  0  0  0  0  0  0
    1.0544   -4.8026   -5.2035 H   0  0  0  0  0  0  0  0  0  0  0  0
    1.0301   -4.7705   -3.4078 H   0  0  0  0  0  0  0  0  0  0  0  0
   -0.3927   -5.3870   -4.3144 H   0  0  0  0  0  0  0  0  0  0  0  0
 22 24  2  0  0  0  0
 24 26  1  0  0  0  0
 25 26  2  0  0  0  0
 23 25  1  0  0  0  0
 21 22  1  0  0  0  0
 22 23  1  0  0  0  0
  1  3  1  0  0  0  0
  1  7  1  0  0  0  0
  1  2  2  0  0  0  0
 35 36  1  0  0  0  0
 36 44  1  0  0  0  0
 36 37  2  0  0  0  0
  8  9  1  0  0  0  0
  9 17  1  0  0  0  0
  9 10  2  0  0  0  0
 18 19  1  0  0  0  0
 19 34  1  0  0  0  0
 19 20  2  0  0  0  0
 35 38  1  0  0  0  0
  8 11  1  0  0  0  0
 44 45  1  0  0  0  0
 18 21  1  0  0  0  0
 34 35  1  0  0  0  0
  7  8  1  0  0  0  0
 17 18  1  0  0  0  0
 24 32  1  0  0  0  0
 25 33  1  0  0  0  0
  3  4  1  0  0  0  0
  3  5  1  0  0  0  0
  3  6  1  0  0  0  0
 38 41  1  0  0  0  0
 38 42  1  0  0  0  0
 38 43  1  0  0  0  0
 11 14  1  0  0  0  0
 11 15  1  0  0  0  0
 11 16  1  0  0  0  0
 45 47  1  0  0  0  0
 45 48  1  0  0  0  0
 45 49  1  0  0  0  0
 21 29  1  0  0  0  0
 21 30  1  0  0  0  0
 35 40  1  0  0  0  0
  8 13  1  0  0  0  0
 18 28  1  0  0  0  0
 23 31  1  0  0  0  0
 44 46  1  0  0  0  0
  7 12  1  0  0  0  0
 34 39  1  0  0  0  0
 17 27  1  0  0  0  0
M  END
$$$$

  -OEChem-05262214473D

 49 49  0     1  0  0  0  0  0999 V2000
   -1.5619    0.5658    3.7981 C   0  0  0  0  0  0  0  0  0  0  0  0
   -0.6145   -0.0489    3.3224 O   0  0  0  0  0  0  0  0  0  0  0  0
   -1.9938    0.2834    5.1988 C   0  0  0  0  0  0  0  0  0  0  0  0
   -2.7535   -0.5129    5.2522 H   0  0  0  0  0  0  0  0  0  0  0  0
   -1.1626   -0.0642    5.8331 H   0  0  0  0  0  0  0  0  0  0  0  0
   -2.4318    1.1383    5.7384 H   0  0  0  0  0  0  0  0  0  0  0  0
   -2.3116    1.5383    3.1570 N   0  0  0  0  0  0  0  0  0  0  0  0
   -2.0648    1.9643    1.8046 C   0  0  2  0  0  0  0  0  0  0  0  0
   -0.7298    1.3789    1.3634 C   0  0  0  0  0  0  0  0  0  0  0  0
    0.1423    1.0262    2.1547 O   0  0  0  0  0  0  0  0  0  0  0  0
   -2.0560    3.4811    1.6952 C   0  0  0  0  0  0  0  0  0  0  0  0
   -3.0767    1.9741    3.6688 H   0  0  0  0  0  0  0  0  0  0  0  0
   -2.8689    1.5458    1.1895 H   0  0  0  0  0  0  0  0  0  0  0  0
   -1.2569    3.9183    2.3049 H   0  0  0  0  0  0  0  0  0  0  0  0
   -1.8965    3.8033    0.6609 H   0  0  0  0  0  0  0  0  0  0  0  0
   -3.0062    3.9023    2.0409 H   0  0  0  0  0  0  0  0  0  0  0  0
   -0.6071    1.3358   -0.0200 N   0  0  0  0  0  0  0  0  0  0  0  0
    0.5702    0.8350   -0.6836 C   0  0  2  0  0  0  0  0  0  0  0  0
    0.1346   -0.3446   -1.5456 C   0  0  0  0  0  0  0  0  0  0  0  0
   -0.4298   -1.3357   -1.0875 O   0  0  0  0  0  0  0  0  0  0  0  0
    1.6530    0.3980    0.3096 C   0  0  0  0  0  0  0  0  0  0  0  0
    2.1843    1.5442    1.1354 C   0  0  0  0  0  0  0  0  0  0  0  0
    3.0406    2.4828    0.6325 N   0  0  0  0  0  0  0  0  0  0  0  0
    1.9844    1.9152    2.4442 C   0  0  0  0  0  0  0  0  0  0  0  0
    3.3183    3.3654    1.6391 C   0  0  0  0  0  0  0  0  0  0  0  0
    2.6928    3.0498    2.7514 N   0  0  0  0  0  0  0  0  0  0  0  0
   -1.3903    1.6325   -0.5973 H   0  0  0  0  0  0  0  0  0  0  0  0
    0.9291    1.6415   -1.3339 H   0  0  0  0  0  0  0  0  0  0  0  0
    2.4816   -0.0900   -0.2213 H   0  0  0  0  0  0  0  0  0  0  0  0
    1.2602   -0.3656    0.9939 H   0  0  0  0  0  0  0  0  0  0  0  0
    3.4051    2.5199   -0.3104 H   0  0  0  0  0  0  0  0  0  0  0  0
    1.3666    1.4247    3.1829 H   0  0  0  0  0  0  0  0  0  0  0  0
    3.9784    4.2092    1.4970 H   0  0  0  0  0  0  0  0  0  0  0  0
    0.4069   -0.1340   -2.8903 N   0  0  0  0  0  0  0  0  0  0  0  0
    0.0746   -1.0859   -3.9258 C   0  0  2  0  0  0  0  0  0  0  0  0
    0.5996   -2.4497   -3.4969 C   0  0  0  0  0  0  0  0  0  0  0  0
    1.5096   -2.5926   -2.6829 O   0  0  0  0  0  0  0  0  0  0  0  0
    0.6633   -0.6737   -5.2660 C   0  0  0  0  0  0  0  0  0  0  0  0
    0.8627    0.7327   -3.1601 H   0  0  0  0  0  0  0  0  0  0  0  0
   -1.0187   -1.1176   -3.9872 H   0  0  0  0  0  0  0  0  0  0  0  0
    1.7580   -0.6364   -5.2239 H   0  0  0  0  0  0  0  0  0  0  0  0
    0.3868   -1.3807   -6.0551 H   0  0  0  0  0  0  0  0  0  0  0  0
    0.3079    0.3202   -5.5586 H   0  0  0  0  0  0  0  0  0  0  0  0
   -0.0383   -3.4873   -4.1623 N   0  0  0  0  0  0  0  0  0  0  0  0
    0.2908   -4.8757   -3.9389 C   0  0  0  0  0  0  0  0  0  0  0  0
   -0.7948   -3.2773   -4.8068 H   0  0  0  0  0  0  0  0  0  0  0  0
    1.0521   -5.1943   -4.6663 H   0  0  0  0  0  0  0  0  0  0  0  0
    0.6837   -4.9998   -2.9190 H   0  0  0  0  0  0  0  0  0  0  0  0
   -0.6129   -5.4909   -4.0610 H   0  0  0  0  0  0  0  0  0  0  0  0
 22 24  2  0  0  0  0
 24 26  1  0  0  0  0
 25 26  2  0  0  0  0
 23 25  1  0  0  0  0
 21 22  1  0  0  0  0
 22 23  1  0  0  0  0
  1  3  1  0  0  0  0
  1  7  1  0  0  0  0
  1  2  2  0  0  0  0
 35 36  1  0  0  0  0
 36 44  1  0  0  0  0
 36 37  2  0  0  0  0
  8  9  1  0  0  0  0
  9 17  1  0  0  0  0
  9 10  2  0  0  0  0
 18 19  1  0  0  0  0
 19 34  1  0  0  0  0
 19 20  2  0  0  0  0
 35 38  1  0  0  0  0
  8 11  1  0  0  0  0
 44 45  1  0  0  0  0
 18 21  1  0  0  0  0
 34 35  1  0  0  0  0
  7  8  1  0  0  0  0
 17 18  1  0  0  0  0
 24 32  1  0  0  0  0
 25 33  1  0  0  0  0
  3  4  1  0  0  0  0
  3  5  1  0  0  0  0
  3  6  1  0  0  0  0
 38 41  1  0  0  0  0
 38 42  1  0  0  0  0
 38 43  1  0  0  0  0
 11 14  1  0  0  0  0
 11 15  1  0  0  0  0
 11 16  1  0  0  0  0
 45 47  1  0  0  0  0
 45 48  1  0  0  0  0
 45 49  1  0  0  0  0
 21 29  1  0  0  0  0
 21 30  1  0  0  0  0
 35 40  1  0  0  0  0
  8 13  1  0  0  0  0
 18 28  1  0  0  0  0
 23 31  1  0  0  0  0
 44 46  1  0  0  0  0
  7 12  1  0  0  0  0
 34 39  1  0  0  0  0
 17 27  1  0  0  0  0
M  END
$$$$

  -OEChem-05262214473D

 49 49  0     1  0  0  0  0  0999 V2000
   -1.5619    0.5658    3.7981 C   0  0  0  0  0  0  0  0  0  0  0  0
   -0.6145   -0.0489    3.3224 O   0  0  0  0  0  0  0  0  0  0  0  0
   -1.9938    0.2834    5.1988 C   0  0  0  0  0  0  0  0  0  0  0  0
   -2.7535   -0.5129    5.2522 H   0  0  0  0  0  0  0  0  0  0  0  0
   -1.1626   -0.0642    5.8331 H   0  0  0  0  0  0  0  0  0  0  0  0
   -2.4318    1.1383    5.7384 H   0  0  0  0  0  0  0  0  0  0  0  0
   -2.3116    1.5383    3.1570 N   0  0  0  0  0  0  0  0  0  0  0  0
   -2.0648    1.9643    1.8046 C   0  0  2  0  0  0  0  0  0  0  0  0
   -0.7298    1.3789    1.3634 C   0  0  0  0  0  0  0  0  0  0  0  0
    0.1423    1.0262    2.1547 O   0  0  0  0  0  0  0  0  0  0  0  0
   -2.0560    3.4811    1.6952 C   0  0  0  0  0  0  0  0  0  0  0  0
   -3.0767    1.9741    3.6688 H   0  0  0  0  0  0  0  0  0  0  0  0
   -2.8689    1.5458    1.1895 H   0  0  0  0  0  0  0  0  0  0  0  0
   -1.2569    3.9183    2.3049 H   0  0  0  0  0  0  0  0  0  0  0  0
   -1.8965    3.8033    0.6609 H   0  0  0  0  0  0  0  0  0  0  0  0
   -3.0062    3.9023    2.0409 H   0  0  0  0  0  0  0  0  0  0  0  0
   -0.6071    1.3358   -0.0200 N   0  0  0  0  0  0  0  0  0  0  0  0
    0.5702    0.8350   -0.6836 C   0  0  2  0  0  0  0  0  0  0  0  0
    0.1346   -0.3446   -1.5456 C   0  0  0  0  0  0  0  0  0  0  0  0
   -0.6539   -1.2031   -1.1557 O   0  0  0  0  0  0  0  0  0  0  0  0
    1.6530    0.3980    0.3096 C   0  0  0  0  0  0  0  0  0  0  0  0
    2.1843    1.5442    1.1354 C   0  0  0  0  0  0  0  0  0  0  0  0
    3.0406    2.4828    0.6325 N   0  0  0  0  0  0  0  0  0  0  0  0
    1.9844    1.9152    2.4442 C   0  0  0  0  0  0  0  0  0  0  0  0
    3.3183    3.3654    1.6391 C   0  0  0  0  0  0  0  0  0  0  0  0
    2.6928    3.0498    2.7514 N   0  0  0  0  0  0  0  0  0  0  0  0
   -1.3903    1.6325   -0.5973 H   0  0  0  0  0  0  0  0  0  0  0  0
    0.9291    1.6415   -1.3339 H   0  0  0  0  0  0  0  0  0  0  0  0
    2.4816   -0.0900   -0.2213 H   0  0  0  0  0  0  0  0  0  0  0  0
    1.2602   -0.3656    0.9939 H   0  0  0  0  0  0  0  0  0  0  0  0
    3.4051    2.5199   -0.3104 H   0  0  0  0  0  0  0  0  0  0  0  0
    1.3666    1.4247    3.1829 H   0  0  0  0  0  0  0  0  0  0  0  0
    3.9784    4.2092    1.4970 H   0  0  0  0  0  0  0  0  0  0  0  0
    0.6926   -0.2942   -2.8155 N   0  0  0  0  0  0  0  0  0  0  0  0
    0.4259   -1.2789   -3.8392 C   0  0  2  0  0  0  0  0  0  0  0  0
    0.6411   -2.6589   -3.2317 C   0  0  0  0  0  0  0  0  0  0  0  0
    1.3421   -2.8537   -2.2409 O   0  0  0  0  0  0  0  0  0  0  0  0
    1.3207   -1.0732   -5.0515 C   0  0  0  0  0  0  0  0  0  0  0  0
    1.3201    0.4734   -3.0365 H   0  0  0  0  0  0  0  0  0  0  0  0
   -0.6261   -1.1639   -4.1222 H   0  0  0  0  0  0  0  0  0  0  0  0
    2.3786   -1.1846   -4.7874 H   0  0  0  0  0  0  0  0  0  0  0  0
    1.0977   -1.8022   -5.8375 H   0  0  0  0  0  0  0  0  0  0  0  0
    1.1863   -0.0695   -5.4692 H   0  0  0  0  0  0  0  0  0  0  0  0
   -0.0069   -3.6528   -3.9517 N   0  0  0  0  0  0  0  0  0  0  0  0
    0.0548   -5.0481   -3.5838 C   0  0  0  0  0  0  0  0  0  0  0  0
   -0.5819   -3.3980   -4.7493 H   0  0  0  0  0  0  0  0  0  0  0  0
    0.8848   -5.5326   -4.1188 H   0  0  0  0  0  0  0  0  0  0  0  0
    0.2177   -5.1344   -2.4993 H   0  0  0  0  0  0  0  0  0  0  0  0
   -0.8915   -5.5403   -3.8527 H   0  0  0  0  0  0  0  0  0  0  0  0
 22 24  2  0  0  0  0
 24 26  1  0  0  0  0
 25 26  2  0  0  0  0
 23 25  1  0  0  0  0
 21 22  1  0  0  0  0
 22 23  1  0  0  0  0
  1  3  1  0  0  0  0
  1  7  1  0  0  0  0
  1  2  2  0  0  0  0
 35 36  1  0  0  0  0
 36 44  1  0  0  0  0
 36 37  2  0  0  0  0
  8  9  1  0  0  0  0
  9 17  1  0  0  0  0
  9 10  2  0  0  0  0
 18 19  1  0  0  0  0
 19 34  1  0  0  0  0
 19 20  2  0  0  0  0
 35 38  1  0  0  0  0
  8 11  1  0  0  0  0
 44 45  1  0  0  0  0
 18 21  1  0  0  0  0
 34 35  1  0  0  0  0
  7  8  1  0  0  0  0
 17 18  1  0  0  0  0
 24 32  1  0  0  0  0
 25 33  1  0  0  0  0
  3  4  1  0  0  0  0
  3  5  1  0  0  0  0
  3  6  1  0  0  0  0
 38 41  1  0  0  0  0
 38 42  1  0  0  0  0
 38 43  1  0  0  0  0
 11 14  1  0  0  0  0
 11 15  1  0  0  0  0
 11 16  1  0  0  0  0
 45 47  1  0  0  0  0
 45 48  1  0  0  0  0
 45 49  1  0  0  0  0
 21 29  1  0  0  0  0
 21 30  1  0  0  0  0
 35 40  1  0  0  0  0
  8 13  1  0  0  0  0
 18 28  1  0  0  0  0
 23 31  1  0  0  0  0
 44 46  1  0  0  0  0
  7 12  1  0  0  0  0
 34 39  1  0  0  0  0
 17 27  1  0  0  0  0
M  END
$$$$

  -OEChem-05262214473D

 49 49  0     1  0  0  0  0  0999 V2000
   -1.5619    0.5658    3.7981 C   0  0  0  0  0  0  0  0  0  0  0  0
   -0.6145   -0.0489    3.3224 O   0  0  0  0  0  0  0  0  0  0  0  0
   -1.9938    0.2834    5.1988 C   0  0  0  0  0  0  0  0  0  0  0  0
   -2.7535   -0.5129    5.2522 H   0  0  0  0  0  0  0  0  0  0  0  0
   -1.1626   -0.0642    5.8331 H   0  0  0  0  0  0  0  0  0  0  0  0
   -2.4318    1.1383    5.7384 H   0  0  0  0  0  0  0  0  0  0  0  0
   -2.3116    1.5383    3.1570 N   0  0  0  0  0  0  0  0  0  0  0  0
   -2.0648    1.9643    1.8046 C   0  0  2  0  0  0  0  0  0  0  0  0
   -0.7298    1.3789    1.3634 C   0  0  0  0  0  0  0  0  0  0  0  0
    0.1423    1.0262    2.1547 O   0  0  0  0  0  0  0  0  0  0  0  0
   -2.0560    3.4811    1.6952 C   0  0  0  0  0  0  0  0  0  0  0  0
   -3.0767    1.9741    3.6688 H   0  0  0  0  0  0  0  0  0  0  0  0
   -2.8689    1.5458    1.1895 H   0  0  0  0  0  0  0  0  0  0  0  0
   -1.2569    3.9183    2.3049 H   0  0  0  0  0  0  0  0  0  0  0  0
   -1.8965    3.8033    0.6609 H   0  0  0  0  0  0  0  0  0  0  0  0
   -3.0062    3.9023    2.0409 H   0  0  0  0  0  0  0  0  0  0  0  0
   -0.6071    1.3358   -0.0200 N   0  0  0  0  0  0  0  0  0  0  0  0
    0.5702    0.8350   -0.6836 C   0  0  2  0  0  0  0  0  0  0  0  0
    0.1346   -0.3446   -1.5456 C   0  0  0  0  0  0  0  0  0  0  0  0
   -0.8373   -1.0473   -1.2763 O   0  0  0  0  0  0  0  0  0  0  0  0
    1.6530    0.3980    0.3096 C   0  0  0  0  0  0  0  0  0  0  0  0
    2.1843    1.5442    1.1354 C   0  0  0  0  0  0  0  0  0  0  0  0
    3.0406    2.4828    0.6325 N   0  0  0  0  0  0  0  0  0  0  0  0
    1.9844    1.9152    2.4442 C   0  0  0  0  0  0  0  0  0  0  0  0
    3.3183    3.3654    1.6391 C   0  0  0  0  0  0  0  0  0  0  0  0
    2.6928    3.0498    2.7514 N   0  0  0  0  0  0  0  0  0  0  0  0
   -1.3903    1.6325   -0.5973 H   0  0  0  0  0  0  0  0  0  0  0  0
    0.9291    1.6415   -1.3339 H   0  0  0  0  0  0  0  0  0  0  0  0
    2.4816   -0.0900   -0.2213 H   0  0  0  0  0  0  0  0  0  0  0  0
    1.2602   -0.3656    0.9939 H   0  0  0  0  0  0  0  0  0  0  0  0
    3.4051    2.5199   -0.3104 H   0  0  0  0  0  0  0  0  0  0  0  0
    1.3666    1.4247    3.1829 H   0  0  0  0  0  0  0  0  0  0  0  0
    3.9784    4.2092    1.4970 H   0  0  0  0  0  0  0  0  0  0  0  0
    0.9302   -0.4852   -2.6742 N   0  0  0  0  0  0  0  0  0  0  0  0
    0.7197   -1.5104   -3.6709 C   0  0  2  0  0  0  0  0  0  0  0  0
    0.5975   -2.8474   -2.9518 C   0  0  0  0  0  0  0  0  0  0  0  0
    1.0536   -3.0488   -1.8282 O   0  0  0  0  0  0  0  0  0  0  0  0
    1.8542   -1.5393   -4.6832 C   0  0  0  0  0  0  0  0  0  0  0  0
    1.6992    0.1652   -2.8063 H   0  0  0  0  0  0  0  0  0  0  0  0
   -0.2266   -1.2761   -4.1707 H   0  0  0  0  0  0  0  0  0  0  0  0
    2.8105   -1.7726   -4.2009 H   0  0  0  0  0  0  0  0  0  0  0  0
    1.6791   -2.2973   -5.4538 H   0  0  0  0  0  0  0  0  0  0  0  0
    1.9598   -0.5679   -5.1781 H   0  0  0  0  0  0  0  0  0  0  0  0
   -0.0429   -3.8018   -3.7297 N   0  0  0  0  0  0  0  0  0  0  0  0
   -0.2695   -5.1538   -3.2753 C   0  0  0  0  0  0  0  0  0  0  0  0
   -0.4054   -3.5414   -4.6422 H   0  0  0  0  0  0  0  0  0  0  0  0
    0.5642   -5.7944   -3.5985 H   0  0  0  0  0  0  0  0  0  0  0  0
   -0.3362   -5.1651   -2.1773 H   0  0  0  0  0  0  0  0  0  0  0  0
   -1.2096   -5.5318   -3.7036 H   0  0  0  0  0  0  0  0  0  0  0  0
 22 24  2  0  0  0  0
 24 26  1  0  0  0  0
 25 26  2  0  0  0  0
 23 25  1  0  0  0  0
 21 22  1  0  0  0  0
 22 23  1  0  0  0  0
  1  3  1  0  0  0  0
  1  7  1  0  0  0  0
  1  2  2  0  0  0  0
 35 36  1  0  0  0  0
 36 44  1  0  0  0  0
 36 37  2  0  0  0  0
  8  9  1  0  0  0  0
  9 17  1  0  0  0  0
  9 10  2  0  0  0  0
 18 19  1  0  0  0  0
 19 34  1  0  0  0  0
 19 20  2  0  0  0  0
 35 38  1  0  0  0  0
  8 11  1  0  0  0  0
 44 45  1  0  0  0  0
 18 21  1  0  0  0  0
 34 35  1  0  0  0  0
  7  8  1  0  0  0  0
 17 18  1  0  0  0  0
 24 32  1  0  0  0  0
 25 33  1  0  0  0  0
  3  4  1  0  0  0  0
  3  5  1  0  0  0  0
  3  6  1  0  0  0  0
 38 41  1  0  0  0  0
 38 42  1  0  0  0  0
 38 43  1  0  0  0  0
 11 14  1  0  0  0  0
 11 15  1  0  0  0  0
 11 16  1  0  0  0  0
 45 47  1  0  0  0  0
 45 48  1  0  0  0  0
 45 49  1  0  0  0  0
 21 29  1  0  0  0  0
 21 30  1  0  0  0  0
 35 40  1  0  0  0  0
  8 13  1  0  0  0  0
 18 28  1  0  0  0  0
 23 31  1  0  0  0  0
 44 46  1  0  0  0  0
  7 12  1  0  0  0  0
 34 39  1  0  0  0  0
 17 27  1  0  0  0  0
M  END
$$$$

  -OEChem-05262214473D

 49 49  0     1  0  0  0  0  0999 V2000
   -1.5619    0.5658    3.7981 C   0  0  0  0  0  0  0  0  0  0  0  0
   -0.6145   -0.0489    3.3224 O   0  0  0  0  0  0  0  0  0  0  0  0
   -1.9938    0.2834    5.1988 C   0  0  0  0  0  0  0  0  0  0  0  0
   -2.7535   -0.5129    5.2522 H   0  0  0  0  0  0  0  0  0  0  0  0
   -1.1626   -0.0642    5.8331 H   0  0  0  0  0  0  0  0  0  0  0  0
   -2.4318    1.1383    5.7384 H   0  0  0  0  0  0  0  0  0  0  0  0
   -2.3116    1.5383    3.1570 N   0  0  0  0  0  0  0  0  0  0  0  0
   -2.0648    1.9643    1.8046 C   0  0  2  0  0  0  0  0  0  0  0  0
   -0.7298    1.3789    1.3634 C   0  0  0  0  0  0  0  0  0  0  0  0
    0.1423    1.0262    2.1547 O   0  0  0  0  0  0  0  0  0  0  0  0
   -2.0560    3.4811    1.6952 C   0  0  0  0  0  0  0  0  0  0  0  0
   -3.0767    1.9741    3.6688 H   0  0  0  0  0  0  0  0  0  0  0  0
   -2.8689    1.5458    1.1895 H   0  0  0  0  0  0  0  0  0  0  0  0
   -1.2569    3.9183    2.3049 H   0  0  0  0  0  0  0  0  0  0  0  0
   -1.8965    3.8033    0.6609 H   0  0  0  0  0  0  0  0  0  0  0  0
   -3.0062    3.9023    2.0409 H   0  0  0  0  0  0  0  0  0  0  0  0
   -0.6071    1.3358   -0.0200 N   0  0  0  0  0  0  0  0  0  0  0  0
    0.5702    0.8350   -0.6836 C   0  0  2  0  0  0  0  0  0  0  0  0
    0.1346   -0.3446   -1.5456 C   0  0  0  0  0  0  0  0  0  0  0  0
   -0.9674   -0.8789   -1.4410 O   0  0  0  0  0  0  0  0  0  0  0  0
    1.6530    0.3980    0.3096 C   0  0  0  0  0  0  0  0  0  0  0  0
    2.1843    1.5442    1.1354 C   0  0  0  0  0  0  0  0  0  0  0  0
    3.0406    2.4828    0.6325 N   0  0  0  0  0  0  0  0  0  0  0  0
    1.9844    1.9152    2.4442 C   0  0  0  0  0  0  0  0  0  0  0  0
    3.3183    3.3654    1.6391 C   0  0  0  0  0  0  0  0  0  0  0  0
    2.6928    3.0498    2.7514 N   0  0  0  0  0  0  0  0  0  0  0  0
   -1.3903    1.6325   -0.5973 H   0  0  0  0  0  0  0  0  0  0  0  0
    0.9291    1.6415   -1.3339 H   0  0  0  0  0  0  0  0  0  0  0  0
    2.4816   -0.0900   -0.2213 H   0  0  0  0  0  0  0  0  0  0  0  0
    1.2602   -0.3656    0.9939 H   0  0  0  0  0  0  0  0  0  0  0  0
    3.4051    2.5199   -0.3104 H   0  0  0  0  0  0  0  0  0  0  0  0
    1.3666    1.4247    3.1829 H   0  0  0  0  0  0  0  0  0  0  0  0
    3.9784    4.2092    1.4970 H   0  0  0  0  0  0  0  0  0  0  0  0
    1.1035   -0.6940   -2.4760 N   0  0  0  0  0  0  0  0  0  0  0  0
    0.9359   -1.7645   -3.4324 C   0  0  2  0  0  0  0  0  0  0  0  0
    0.4717   -3.0023   -2.6762 C   0  0  0  0  0  0  0  0  0  0  0  0
    0.6638   -3.1645   -1.4729 O   0  0  0  0  0  0  0  0  0  0  0  0
    2.2276   -2.0405   -4.1861 C   0  0  0  0  0  0  0  0  0  0  0  0
    1.9742   -0.1709   -2.4852 H   0  0  0  0  0  0  0  0  0  0  0  0
    0.1526   -1.4464   -4.1291 H   0  0  0  0  0  0  0  0  0  0  0  0
    3.0241   -2.3604   -3.5044 H   0  0  0  0  0  0  0  0  0  0  0  0
    2.0914   -2.8323   -4.9301 H   0  0  0  0  0  0  0  0  0  0  0  0
    2.5758   -1.1410   -4.7051 H   0  0  0  0  0  0  0  0  0  0  0  0
   -0.1440   -3.9239   -3.5115 N   0  0  0  0  0  0  0  0  0  0  0  0
   -0.6601   -5.1856   -3.0344 C   0  0  0  0  0  0  0  0  0  0  0  0
   -0.2773   -3.6979   -4.4928 H   0  0  0  0  0  0  0  0  0  0  0  0
    0.1119   -5.9620   -3.1407 H   0  0  0  0  0  0  0  0  0  0  0  0
   -0.9402   -5.0900   -1.9750 H   0  0  0  0  0  0  0  0  0  0  0  0
   -1.5454   -5.4660   -3.6239 H   0  0  0  0  0  0  0  0  0  0  0  0
 22 24  2  0  0  0  0
 24 26  1  0  0  0  0
 25 26  2  0  0  0  0
 23 25  1  0  0  0  0
 21 22  1  0  0  0  0
 22 23  1  0  0  0  0
  1  3  1  0  0  0  0
  1  7  1  0  0  0  0
  1  2  2  0  0  0  0
 35 36  1  0  0  0  0
 36 44  1  0  0  0  0
 36 37  2  0  0  0  0
  8  9  1  0  0  0  0
  9 17  1  0  0  0  0
  9 10  2  0  0  0  0
 18 19  1  0  0  0  0
 19 34  1  0  0  0  0
 19 20  2  0  0  0  0
 35 38  1  0  0  0  0
  8 11  1  0  0  0  0
 44 45  1  0  0  0  0
 18 21  1  0  0  0  0
 34 35  1  0  0  0  0
  7  8  1  0  0  0  0
 17 18  1  0  0  0  0
 24 32  1  0  0  0  0
 25 33  1  0  0  0  0
  3  4  1  0  0  0  0
  3  5  1  0  0  0  0
  3  6  1  0  0  0  0
 38 41  1  0  0  0  0
 38 42  1  0  0  0  0
 38 43  1  0  0  0  0
 11 14  1  0  0  0  0
 11 15  1  0  0  0  0
 11 16  1  0  0  0  0
 45 47  1  0  0  0  0
 45 48  1  0  0  0  0
 45 49  1  0  0  0  0
 21 29  1  0  0  0  0
 21 30  1  0  0  0  0
 35 40  1  0  0  0  0
  8 13  1  0  0  0  0
 18 28  1  0  0  0  0
 23 31  1  0  0  0  0
 44 46  1  0  0  0  0
  7 12  1  0  0  0  0
 34 39  1  0  0  0  0
 17 27  1  0  0  0  0
M  END
$$$$

  -OEChem-05262214473D

 49 49  0     1  0  0  0  0  0999 V2000
   -1.5619    0.5658    3.7981 C   0  0  0  0  0  0  0  0  0  0  0  0
   -0.6145   -0.0489    3.3224 O   0  0  0  0  0  0  0  0  0  0  0  0
   -1.9938    0.2834    5.1988 C   0  0  0  0  0  0  0  0  0  0  0  0
   -2.7535   -0.5129    5.2522 H   0  0  0  0  0  0  0  0  0  0  0  0
   -1.1626   -0.0642    5.8331 H   0  0  0  0  0  0  0  0  0  0  0  0
   -2.4318    1.1383    5.7384 H   0  0  0  0  0  0  0  0  0  0  0  0
   -2.3116    1.5383    3.1570 N   0  0  0  0  0  0  0  0  0  0  0  0
   -2.0648    1.9643    1.8046 C   0  0  2  0  0  0  0  0  0  0  0  0
   -0.7298    1.3789    1.3634 C   0  0  0  0  0  0  0  0  0  0  0  0
    0.1423    1.0262    2.1547 O   0  0  0  0  0  0  0  0  0  0  0  0
   -2.0560    3.4811    1.6952 C   0  0  0  0  0  0  0  0  0  0  0  0
   -3.0767    1.9741    3.6688 H   0  0  0  0  0  0  0  0  0  0  0  0
   -2.8689    1.5458    1.1895 H   0  0  0  0  0  0  0  0  0  0  0  0
   -1.2569    3.9183    2.3049 H   0  0  0  0  0  0  0  0  0  0  0  0
   -1.8965    3.8033    0.6609 H   0  0  0  0  0  0  0  0  0  0  0  0
   -3.0062    3.9023    2.0409 H   0  0  0  0  0  0  0  0  0  0  0  0
   -0.6071    1.3358   -0.0200 N   0  0  0  0  0  0  0  0  0  0  0  0
    0.5702    0.8350   -0.6836 C   0  0  2  0  0  0  0  0  0  0  0  0
    0.0989   -0.0756   -1.8119 C   0  0  0  0  0  0  0  0  0  0  0  0
   -1.0883   -0.2594   -2.0718 O   0  0  0  0  0  0  0  0  0  0  0  0
    1.4909    0.0670    0.2717 C   0  0  0  0  0  0  0  0  0  0  0  0
    2.0568    0.9403    1.3648 C   0  0  0  0  0  0  0  0  0  0  0  0
    3.0578    1.8441    1.1450 N   0  0  0  0  0  0  0  0  0  0  0  0
    1.7652    1.0564    2.7035 C   0  0  0  0  0  0  0  0  0  0  0  0
    3.3255    2.4571    2.3374 C   0  0  0  0  0  0  0  0  0  0  0  0
    2.5583    2.0025    3.3032 N   0  0  0  0  0  0  0  0  0  0  0  0
   -1.3903    1.6325   -0.5973 H   0  0  0  0  0  0  0  0  0  0  0  0
    1.0802    1.7050   -1.1139 H   0  0  0  0  0  0  0  0  0  0  0  0
    2.3112   -0.4038   -0.2869 H   0  0  0  0  0  0  0  0  0  0  0  0
    0.9485   -0.7640    0.7417 H   0  0  0  0  0  0  0  0  0  0  0  0
    3.5191    2.0273    0.2636 H   0  0  0  0  0  0  0  0  0  0  0  0
    1.0249    0.5080    3.2684 H   0  0  0  0  0  0  0  0  0  0  0  0
    4.0852    3.2198    2.4330 H   0  0  0  0  0  0  0  0  0  0  0  0
    1.1621   -0.6160   -2.5219 N   0  0  0  0  0  0  0  0  0  0  0  0
    0.9935   -1.4955   -3.6563 C   0  0  2  0  0  0  0  0  0  0  0  0
    0.0222   -2.5982   -3.2562 C   0  0  0  0  0  0  0  0  0  0  0  0
   -0.1848   -2.9183   -2.0875 O   0  0  0  0  0  0  0  0  0  0  0  0
    2.3236   -2.0796   -4.1061 C   0  0  0  0  0  0  0  0  0  0  0  0
    2.1062   -0.3816   -2.2295 H   0  0  0  0  0  0  0  0  0  0  0  0
    0.5538   -0.8945   -4.4598 H   0  0  0  0  0  0  0  0  0  0  0  0
    2.7793   -2.6850   -3.3141 H   0  0  0  0  0  0  0  0  0  0  0  0
    2.1981   -2.7231   -4.9831 H   0  0  0  0  0  0  0  0  0  0  0  0
    3.0309   -1.2842   -4.3651 H   0  0  0  0  0  0  0  0  0  0  0  0
   -0.5539   -3.2119   -4.3596 N   0  0  0  0  0  0  0  0  0  0  0  0
   -1.5004   -4.2966   -4.2428 C   0  0  0  0  0  0  0  0  0  0  0  0
   -0.3387   -2.8690   -5.2912 H   0  0  0  0  0  0  0  0  0  0  0  0
   -0.9656   -5.2568   -4.2860 H   0  0  0  0  0  0  0  0  0  0  0  0
   -2.0331   -4.2165   -3.2837 H   0  0  0  0  0  0  0  0  0  0  0  0
   -2.2239   -4.2424   -5.0696 H   0  0  0  0  0  0  0  0  0  0  0  0
 22 24  2  0  0  0  0
 24 26  1  0  0  0  0
 25 26  2  0  0  0  0
 23 25  1  0  0  0  0
 21 22  1  0  0  0  0
 22 23  1  0  0  0  0
  1  3  1  0  0  0  0
  1  7  1  0  0  0  0
  1  2  2  0  0  0  0
 35 36  1  0  0  0  0
 36 44  1  0  0  0  0
 36 37  2  0  0  0  0
  8  9  1  0  0  0  0
  9 17  1  0  0  0  0
  9 10  2  0  0  0  0
 18 19  1  0  0  0  0
 19 34  1  0  0  0  0
 19 20  2  0  0  0  0
 35 38  1  0  0  0  0
  8 11  1  0  0  0  0
 44 45  1  0  0  0  0
 18 21  1  0  0  0  0
 34 35  1  0  0  0  0
  7  8  1  0  0  0  0
 17 18  1  0  0  0  0
 24 32  1  0  0  0  0
 25 33  1  0  0  0  0
  3  4  1  0  0  0  0
  3  5  1  0  0  0  0
  3  6  1  0  0  0  0
 38 41  1  0  0  0  0
 38 42  1  0  0  0  0
 38 43  1  0  0  0  0
 11 14  1  0  0  0  0
 11 15  1  0  0  0  0
 11 16  1  0  0  0  0
 45 47  1  0  0  0  0
 45 48  1  0  0  0  0
 45 49  1  0  0  0  0
 21 29  1  0  0  0  0
 21 30  1  0  0  0  0
 35 40  1  0  0  0  0
  8 13  1  0  0  0  0
 18 28  1  0  0  0  0
 23 31  1  0  0  0  0
 44 46  1  0  0  0  0
  7 12  1  0  0  0  0
 34 39  1  0  0  0  0
 17 27  1  0  0  0  0
M  END
$$$$

  -OEChem-05262214473D

 49 49  0     1  0  0  0  0  0999 V2000
   -1.5619    0.5658    3.7981 C   0  0  0  0  0  0  0  0  0  0  0  0
   -0.6145   -0.0489    3.3224 O   0  0  0  0  0  0  0  0  0  0  0  0
   -1.9938    0.2834    5.1988 C   0  0  0  0  0  0  0  0  0  0  0  0
   -2.7535   -0.5129    5.2522 H   0  0  0  0  0  0  0  0  0  0  0  0
   -1.1626   -0.0642    5.8331 H   0  0  0  0  0  0  0  0  0  0  0  0
   -2.4318    1.1383    5.7384 H   0  0  0  0  0  0  0  0  0  0  0  0
   -2.3116    1.5383    3.1570 N   0  0  0  0  0  0  0  0  0  0  0  0
   -2.0648    1.9643    1.8046 C   0  0  2  0  0  0  0  0  0  0  0  0
   -0.7298    1.3789    1.3634 C   0  0  0  0  0  0  0  0  0  0  0  0
    0.1423    1.0262    2.1547 O   0  0  0  0  0  0  0  0  0  0  0  0
   -2.0560    3.4811    1.6952 C   0  0  0  0  0  0  0  0  0  0  0  0
   -3.0767    1.9741    3.6688 H   0  0  0  0  0  0  0  0  0  0  0  0
   -2.8689    1.5458    1.1895 H   0  0  0  0  0  0  0  0  0  0  0  0
   -1.2569    3.9183    2.3049 H   0  0  0  0  0  0  0  0  0  0  0  0
   -1.8965    3.8033    0.6609 H   0  0  0  0  0  0  0  0  0  0  0  0
   -3.0062    3.9023    2.0409 H   0  0  0  0  0  0  0  0  0  0  0  0
   -0.6071    1.3358   -0.0200 N   0  0  0  0  0  0  0  0  0  0  0  0
    0.5702    0.8350   -0.6836 C   0  0  2  0  0  0  0  0  0  0  0  0
    0.0989   -0.0756   -1.8119 C   0  0  0  0  0  0  0  0  0  0  0  0
   -1.0500   -0.0601   -2.2486 O   0  0  0  0  0  0  0  0  0  0  0  0
    1.4909    0.0670    0.2717 C   0  0  0  0  0  0  0  0  0  0  0  0
    2.0568    0.9403    1.3648 C   0  0  0  0  0  0  0  0  0  0  0  0
    3.0578    1.8441    1.1450 N   0  0  0  0  0  0  0  0  0  0  0  0
    1.7652    1.0564    2.7035 C   0  0  0  0  0  0  0  0  0  0  0  0
    3.3255    2.4571    2.3374 C   0  0  0  0  0  0  0  0  0  0  0  0
    2.5583    2.0025    3.3032 N   0  0  0  0  0  0  0  0  0  0  0  0
   -1.3903    1.6325   -0.5973 H   0  0  0  0  0  0  0  0  0  0  0  0
    1.0802    1.7050   -1.1139 H   0  0  0  0  0  0  0  0  0  0  0  0
    2.3112   -0.4038   -0.2869 H   0  0  0  0  0  0  0  0  0  0  0  0
    0.9485   -0.7640    0.7417 H   0  0  0  0  0  0  0  0  0  0  0  0
    3.5191    2.0273    0.2636 H   0  0  0  0  0  0  0  0  0  0  0  0
    1.0249    0.5080    3.2684 H   0  0  0  0  0  0  0  0  0  0  0  0
    4.0852    3.2198    2.4330 H   0  0  0  0  0  0  0  0  0  0  0  0
    1.1266   -0.8686   -2.3032 N   0  0  0  0  0  0  0  0  0  0  0  0
    0.9558   -1.8054   -3.3904 C   0  0  2  0  0  0  0  0  0  0  0  0
   -0.2625   -2.6660   -3.0825 C   0  0  0  0  0  0  0  0  0  0  0  0
   -0.6980   -2.8296   -1.9447 O   0  0  0  0  0  0  0  0  0  0  0  0
    2.1954   -2.6659   -3.5793 C   0  0  0  0  0  0  0  0  0  0  0  0
    2.0451   -0.7864   -1.8772 H   0  0  0  0  0  0  0  0  0  0  0  0
    0.7665   -1.2126   -4.2919 H   0  0  0  0  0  0  0  0  0  0  0  0
    2.4010   -3.2671   -2.6862 H   0  0  0  0  0  0  0  0  0  0  0  0
    2.0751   -3.3554   -4.4214 H   0  0  0  0  0  0  0  0  0  0  0  0
    3.0762   -2.0436   -3.7711 H   0  0  0  0  0  0  0  0  0  0  0  0
   -0.7803   -3.2644   -4.2227 N   0  0  0  0  0  0  0  0  0  0  0  0
   -1.9294   -4.1389   -4.1909 C   0  0  0  0  0  0  0  0  0  0  0  0
   -0.3671   -3.0574   -5.1272 H   0  0  0  0  0  0  0  0  0  0  0  0
   -1.5947   -5.1813   -4.0842 H   0  0  0  0  0  0  0  0  0  0  0  0
   -2.5705   -3.8707   -3.3383 H   0  0  0  0  0  0  0  0  0  0  0  0
   -2.4984   -4.0305   -5.1260 H   0  0  0  0  0  0  0  0  0  0  0  0
 22 24  2  0  0  0  0
 24 26  1  0  0  0  0
 25 26  2  0  0  0  0
 23 25  1  0  0  0  0
 21 22  1  0  0  0  0
 22 23  1  0  0  0  0
  1  3  1  0  0  0  0
  1  7  1  0  0  0  0
  1  2  2  0  0  0  0
 35 36  1  0  0  0  0
 36 44  1  0  0  0  0
 36 37  2  0  0  0  0
  8  9  1  0  0  0  0
  9 17  1  0  0  0  0
  9 10  2  0  0  0  0
 18 19  1  0  0  0  0
 19 34  1  0  0  0  0
 19 20  2  0  0  0  0
 35 38  1  0  0  0  0
  8 11  1  0  0  0  0
 44 45  1  0  0  0  0
 18 21  1  0  0  0  0
 34 35  1  0  0  0  0
  7  8  1  0  0  0  0
 17 18  1  0  0  0  0
 24 32  1  0  0  0  0
 25 33  1  0  0  0  0
  3  4  1  0  0  0  0
  3  5  1  0  0  0  0
  3  6  1  0  0  0  0
 38 41  1  0  0  0  0
 38 42  1  0  0  0  0
 38 43  1  0  0  0  0
 11 14  1  0  0  0  0
 11 15  1  0  0  0  0
 11 16  1  0  0  0  0
 45 47  1  0  0  0  0
 45 48  1  0  0  0  0
 45 49  1  0  0  0  0
 21 29  1  0  0  0  0
 21 30  1  0  0  0  0
 35 40  1  0  0  0  0
  8 13  1  0  0  0  0
 18 28  1  0  0  0  0
 23 31  1  0  0  0  0
 44 46  1  0  0  0  0
  7 12  1  0  0  0  0
 34 39  1  0  0  0  0
 17 27  1  0  0  0  0
M  END
$$$$

  -OEChem-05262214473D

 49 49  0     1  0  0  0  0  0999 V2000
   -1.5619    0.5658    3.7981 C   0  0  0  0  0  0  0  0  0  0  0  0
   -0.6145   -0.0489    3.3224 O   0  0  0  0  0  0  0  0  0  0  0  0
   -1.9938    0.2834    5.1988 C   0  0  0  0  0  0  0  0  0  0  0  0
   -2.7535   -0.5129    5.2522 H   0  0  0  0  0  0  0  0  0  0  0  0
   -1.1626   -0.0642    5.8331 H   0  0  0  0  0  0  0  0  0  0  0  0
   -2.4318    1.1383    5.7384 H   0  0  0  0  0  0  0  0  0  0  0  0
   -2.3116    1.5383    3.1570 N   0  0  0  0  0  0  0  0  0  0  0  0
   -2.0648    1.9643    1.8046 C   0  0  2  0  0  0  0  0  0  0  0  0
   -0.7298    1.3789    1.3634 C   0  0  0  0  0  0  0  0  0  0  0  0
    0.1423    1.0262    2.1547 O   0  0  0  0  0  0  0  0  0  0  0  0
   -2.0560    3.4811    1.6952 C   0  0  0  0  0  0  0  0  0  0  0  0
   -3.0767    1.9741    3.6688 H   0  0  0  0  0  0  0  0  0  0  0  0
   -2.8689    1.5458    1.1895 H   0  0  0  0  0  0  0  0  0  0  0  0
   -1.2569    3.9183    2.3049 H   0  0  0  0  0  0  0  0  0  0  0  0
   -1.8965    3.8033    0.6609 H   0  0  0  0  0  0  0  0  0  0  0  0
   -3.0062    3.9023    2.0409 H   0  0  0  0  0  0  0  0  0  0  0  0
   -0.6071    1.3358   -0.0200 N   0  0  0  0  0  0  0  0  0  0  0  0
    0.5702    0.8350   -0.6836 C   0  0  2  0  0  0  0  0  0  0  0  0
    0.0989   -0.0756   -1.8119 C   0  0  0  0  0  0  0  0  0  0  0  0
   -0.9474    0.1108   -2.4294 O   0  0  0  0  0  0  0  0  0  0  0  0
    1.4909    0.0670    0.2717 C   0  0  0  0  0  0  0  0  0  0  0  0
    2.0568    0.9403    1.3648 C   0  0  0  0  0  0  0  0  0  0  0  0
    3.0578    1.8441    1.1450 N   0  0  0  0  0  0  0  0  0  0  0  0
    1.7652    1.0564    2.7035 C   0  0  0  0  0  0  0  0  0  0  0  0
    3.3255    2.4571    2.3374 C   0  0  0  0  0  0  0  0  0  0  0  0
    2.5583    2.0025    3.3032 N   0  0  0  0  0  0  0  0  0  0  0  0
   -1.3903    1.6325   -0.5973 H   0  0  0  0  0  0  0  0  0  0  0  0
    1.0802    1.7050   -1.1139 H   0  0  0  0  0  0  0  0  0  0  0  0
    2.3112   -0.4038   -0.2869 H   0  0  0  0  0  0  0  0  0  0  0  0
    0.9485   -0.7640    0.7417 H   0  0  0  0  0  0  0  0  0  0  0  0
    3.5191    2.0273    0.2636 H   0  0  0  0  0  0  0  0  0  0  0  0
    1.0249    0.5080    3.2684 H   0  0  0  0  0  0  0  0  0  0  0  0
    4.0852    3.2198    2.4330 H   0  0  0  0  0  0  0  0  0  0  0  0
    1.0102   -1.0883   -2.0772 N   0  0  0  0  0  0  0  0  0  0  0  0
    0.8188   -2.0763   -3.1146 C   0  0  2  0  0  0  0  0  0  0  0  0
   -0.5773   -2.6631   -2.9534 C   0  0  0  0  0  0  0  0  0  0  0  0
   -1.1988   -2.6343   -1.8932 O   0  0  0  0  0  0  0  0  0  0  0  0
    1.8777   -3.1655   -3.0434 C   0  0  0  0  0  0  0  0  0  0  0  0
    1.8540   -1.1376   -1.5140 H   0  0  0  0  0  0  0  0  0  0  0  0
    0.8850   -1.5471   -4.0714 H   0  0  0  0  0  0  0  0  0  0  0  0
    1.8270   -3.7067   -2.0916 H   0  0  0  0  0  0  0  0  0  0  0  0
    1.7484   -3.8977   -3.8473 H   0  0  0  0  0  0  0  0  0  0  0  0
    2.8827   -2.7383   -3.1297 H   0  0  0  0  0  0  0  0  0  0  0  0
   -1.0302   -3.2609   -4.1212 N   0  0  0  0  0  0  0  0  0  0  0  0
   -2.3215   -3.9002   -4.2197 C   0  0  0  0  0  0  0  0  0  0  0  0
   -0.4560   -3.2209   -4.9582 H   0  0  0  0  0  0  0  0  0  0  0  0
   -2.2190   -4.9716   -3.9926 H   0  0  0  0  0  0  0  0  0  0  0  0
   -3.0150   -3.4381   -3.5018 H   0  0  0  0  0  0  0  0  0  0  0  0
   -2.7143   -3.7777   -5.2399 H   0  0  0  0  0  0  0  0  0  0  0  0
 22 24  2  0  0  0  0
 24 26  1  0  0  0  0
 25 26  2  0  0  0  0
 23 25  1  0  0  0  0
 21 22  1  0  0  0  0
 22 23  1  0  0  0  0
  1  3  1  0  0  0  0
  1  7  1  0  0  0  0
  1  2  2  0  0  0  0
 35 36  1  0  0  0  0
 36 44  1  0  0  0  0
 36 37  2  0  0  0  0
  8  9  1  0  0  0  0
  9 17  1  0  0  0  0
  9 10  2  0  0  0  0
 18 19  1  0  0  0  0
 19 34  1  0  0  0  0
 19 20  2  0  0  0  0
 35 38  1  0  0  0  0
  8 11  1  0  0  0  0
 44 45  1  0  0  0  0
 18 21  1  0  0  0  0
 34 35  1  0  0  0  0
  7  8  1  0  0  0  0
 17 18  1  0  0  0  0
 24 32  1  0  0  0  0
 25 33  1  0  0  0  0
  3  4  1  0  0  0  0
  3  5  1  0  0  0  0
  3  6  1  0  0  0  0
 38 41  1  0  0  0  0
 38 42  1  0  0  0  0
 38 43  1  0  0  0  0
 11 14  1  0  0  0  0
 11 15  1  0  0  0  0
 11 16  1  0  0  0  0
 45 47  1  0  0  0  0
 45 48  1  0  0  0  0
 45 49  1  0  0  0  0
 21 29  1  0  0  0  0
 21 30  1  0  0  0  0
 35 40  1  0  0  0  0
  8 13  1  0  0  0  0
 18 28  1  0  0  0  0
 23 31  1  0  0  0  0
 44 46  1  0  0  0  0
  7 12  1  0  0  0  0
 34 39  1  0  0  0  0
 17 27  1  0  0  0  0
M  END
$$$$

  -OEChem-05262214473D

 49 49  0     1  0  0  0  0  0999 V2000
   -1.5619    0.5658    3.7981 C   0  0  0  0  0  0  0  0  0  0  0  0
   -0.6145   -0.0489    3.3224 O   0  0  0  0  0  0  0  0  0  0  0  0
   -1.9938    0.2834    5.1988 C   0  0  0  0  0  0  0  0  0  0  0  0
   -2.7535   -0.5129    5.2522 H   0  0  0  0  0  0  0  0  0  0  0  0
   -1.1626   -0.0642    5.8331 H   0  0  0  0  0  0  0  0  0  0  0  0
   -2.4318    1.1383    5.7384 H   0  0  0  0  0  0  0  0  0  0  0  0
   -2.3116    1.5383    3.1570 N   0  0  0  0  0  0  0  0  0  0  0  0
   -2.0648    1.9643    1.8046 C   0  0  2  0  0  0  0  0  0  0  0  0
   -0.7298    1.3789    1.3634 C   0  0  0  0  0  0  0  0  0  0  0  0
    0.1423    1.0262    2.1547 O   0  0  0  0  0  0  0  0  0  0  0  0
   -2.0560    3.4811    1.6952 C   0  0  0  0  0  0  0  0  0  0  0  0
   -3.0767    1.9741    3.6688 H   0  0  0  0  0  0  0  0  0  0  0  0
   -2.8689    1.5458    1.1895 H   0  0  0  0  0  0  0  0  0  0  0  0
   -1.2569    3.9183    2.3049 H   0  0  0  0  0  0  0  0  0  0  0  0
   -1.8965    3.8033    0.6609 H   0  0  0  0  0  0  0  0  0  0  0  0
   -3.0062    3.9023    2.0409 H   0  0  0  0  0  0  0  0  0  0  0  0
   -0.6071    1.3358   -0.0200 N   0  0  0  0  0  0  0  0  0  0  0  0
    0.5702    0.8350   -0.6836 C   0  0  2  0  0  0  0  0  0  0  0  0
    0.0989   -0.0756   -1.8119 C   0  0  0  0  0  0  0  0  0  0  0  0
   -0.7876    0.2419   -2.6019 O   0  0  0  0  0  0  0  0  0  0  0  0
    1.4909    0.0670    0.2717 C   0  0  0  0  0  0  0  0  0  0  0  0
    2.0568    0.9403    1.3648 C   0  0  0  0  0  0  0  0  0  0  0  0
    3.0578    1.8441    1.1450 N   0  0  0  0  0  0  0  0  0  0  0  0
    1.7652    1.0564    2.7035 C   0  0  0  0  0  0  0  0  0  0  0  0
    3.3255    2.4571    2.3374 C   0  0  0  0  0  0  0  0  0  0  0  0
    2.5583    2.0025    3.3032 N   0  0  0  0  0  0  0  0  0  0  0  0
   -1.3903    1.6325   -0.5973 H   0  0  0  0  0  0  0  0  0  0  0  0
    1.0802    1.7050   -1.1139 H   0  0  0  0  0  0  0  0  0  0  0  0
    2.3112   -0.4038   -0.2869 H   0  0  0  0  0  0  0  0  0  0  0  0
    0.9485   -0.7640    0.7417 H   0  0  0  0  0  0  0  0  0  0  0  0
    3.5191    2.0273    0.2636 H   0  0  0  0  0  0  0  0  0  0  0  0
    1.0249    0.5080    3.2684 H   0  0  0  0  0  0  0  0  0  0  0  0
    4.0852    3.2198    2.4330 H   0  0  0  0  0  0  0  0  0  0  0  0
    0.8207   -1.2601   -1.8594 N   0  0  0  0  0  0  0  0  0  0  0  0
    0.5921   -2.2896   -2.8477 C   0  0  2  0  0  0  0  0  0  0  0  0
   -0.9008   -2.5896   -2.8776 C   0  0  0  0  0  0  0  0  0  0  0  0
   -1.6530   -2.3455   -1.9365 O   0  0  0  0  0  0  0  0  0  0  0  0
    1.3924   -3.5444   -2.5349 C   0  0  0  0  0  0  0  0  0  0  0  0
    1.5461   -1.4111   -1.1646 H   0  0  0  0  0  0  0  0  0  0  0  0
    0.9013   -1.8753   -3.8134 H   0  0  0  0  0  0  0  0  0  0  0  0
    1.0964   -3.9739   -1.5709 H   0  0  0  0  0  0  0  0  0  0  0  0
    1.2402   -4.3130   -3.2999 H   0  0  0  0  0  0  0  0  0  0  0  0
    2.4635   -3.3209   -2.4844 H   0  0  0  0  0  0  0  0  0  0  0  0
   -1.2865   -3.2014   -4.0621 N   0  0  0  0  0  0  0  0  0  0  0  0
   -2.6501   -3.5969   -4.3273 C   0  0  0  0  0  0  0  0  0  0  0  0
   -0.5993   -3.3483   -4.7955 H   0  0  0  0  0  0  0  0  0  0  0  0
   -2.7961   -4.6422   -4.0175 H   0  0  0  0  0  0  0  0  0  0  0  0
   -3.3362   -2.9481   -3.7630 H   0  0  0  0  0  0  0  0  0  0  0  0
   -2.8568   -3.5012   -5.4034 H   0  0  0  0  0  0  0  0  0  0  0  0
 22 24  2  0  0  0  0
 24 26  1  0  0  0  0
 25 26  2  0  0  0  0
 23 25  1  0  0  0  0
 21 22  1  0  0  0  0
 22 23  1  0  0  0  0
  1  3  1  0  0  0  0
  1  7  1  0  0  0  0
  1  2  2  0  0  0  0
 35 36  1  0  0  0  0
 36 44  1  0  0  0  0
 36 37  2  0  0  0  0
  8  9  1  0  0  0  0
  9 17  1  0  0  0  0
  9 10  2  0  0  0  0
 18 19  1  0  0  0  0
 19 34  1  0  0  0  0
 19 20  2  0  0  0  0
 35 38  1  0  0  0  0
  8 11  1  0  0  0  0
 44 45  1  0  0  0  0
 18 21  1  0  0  0  0
 34 35  1  0  0  0  0
  7  8  1  0  0  0  0
 17 18  1  0  0  0  0
 24 32  1  0  0  0  0
 25 33  1  0  0  0  0
  3  4  1  0  0  0  0
  3  5  1  0  0  0  0
  3  6  1  0  0  0  0
 38 41  1  0  0  0  0
 38 42  1  0  0  0  0
 38 43  1  0  0  0  0
 11 14  1  0  0  0  0
 11 15  1  0  0  0  0
 11 16  1  0  0  0  0
 45 47  1  0  0  0  0
 45 48  1  0  0  0  0
 45 49  1  0  0  0  0
 21 29  1  0  0  0  0
 21 30  1  0  0  0  0
 35 40  1  0  0  0  0
  8 13  1  0  0  0  0
 18 28  1  0  0  0  0
 23 31  1  0  0  0  0
 44 46  1  0  0  0  0
  7 12  1  0  0  0  0
 34 39  1  0  0  0  0
 17 27  1  0  0  0  0
M  END
$$$$

  -OEChem-05262214473D

 49 49  0     1  0  0  0  0  0999 V2000
   -1.5619    0.5658    3.7981 C   0  0  0  0  0  0  0  0  0  0  0  0
   -0.6145   -0.0489    3.3224 O   0  0  0  0  0  0  0  0  0  0  0  0
   -1.9938    0.2834    5.1988 C   0  0  0  0  0  0  0  0  0  0  0  0
   -2.7535   -0.5129    5.2522 H   0  0  0  0  0  0  0  0  0  0  0  0
   -1.1626   -0.0642    5.8331 H   0  0  0  0  0  0  0  0  0  0  0  0
   -2.4318    1.1383    5.7384 H   0  0  0  0  0  0  0  0  0  0  0  0
   -2.3116    1.5383    3.1570 N   0  0  0  0  0  0  0  0  0  0  0  0
   -2.0648    1.9643    1.8046 C   0  0  2  0  0  0  0  0  0  0  0  0
   -0.7298    1.3789    1.3634 C   0  0  0  0  0  0  0  0  0  0  0  0
    0.1423    1.0262    2.1547 O   0  0  0  0  0  0  0  0  0  0  0  0
   -2.0560    3.4811    1.6952 C   0  0  0  0  0  0  0  0  0  0  0  0
   -3.0767    1.9741    3.6688 H   0  0  0  0  0  0  0  0  0  0  0  0
   -2.8689    1.5458    1.1895 H   0  0  0  0  0  0  0  0  0  0  0  0
   -1.2569    3.9183    2.3049 H   0  0  0  0  0  0  0  0  0  0  0  0
   -1.8965    3.8033    0.6609 H   0  0  0  0  0  0  0  0  0  0  0  0
   -3.0062    3.9023    2.0409 H   0  0  0  0  0  0  0  0  0  0  0  0
   -0.6071    1.3358   -0.0200 N   0  0  0  0  0  0  0  0  0  0  0  0
    0.5702    0.8350   -0.6836 C   0  0  2  0  0  0  0  0  0  0  0  0
    0.0989   -0.0756   -1.8119 C   0  0  0  0  0  0  0  0  0  0  0  0
   -0.5815    0.3241   -2.7543 O   0  0  0  0  0  0  0  0  0  0  0  0
    1.4909    0.0670    0.2717 C   0  0  0  0  0  0  0  0  0  0  0  0
    2.0568    0.9403    1.3648 C   0  0  0  0  0  0  0  0  0  0  0  0
    3.0578    1.8441    1.1450 N   0  0  0  0  0  0  0  0  0  0  0  0
    1.7652    1.0564    2.7035 C   0  0  0  0  0  0  0  0  0  0  0  0
    3.3255    2.4571    2.3374 C   0  0  0  0  0  0  0  0  0  0  0  0
    2.5583    2.0025    3.3032 N   0  0  0  0  0  0  0  0  0  0  0  0
   -1.3903    1.6325   -0.5973 H   0  0  0  0  0  0  0  0  0  0  0  0
    1.0802    1.7050   -1.1139 H   0  0  0  0  0  0  0  0  0  0  0  0
    2.3112   -0.4038   -0.2869 H   0  0  0  0  0  0  0  0  0  0  0  0
    0.9485   -0.7640    0.7417 H   0  0  0  0  0  0  0  0  0  0  0  0
    3.5191    2.0273    0.2636 H   0  0  0  0  0  0  0  0  0  0  0  0
    1.0249    0.5080    3.2684 H   0  0  0  0  0  0  0  0  0  0  0  0
    4.0852    3.2198    2.4330 H   0  0  0  0  0  0  0  0  0  0  0  0
    0.5711   -1.3724   -1.6645 N   0  0  0  0  0  0  0  0  0  0  0  0
    0.2909   -2.4309   -2.6078 C   0  0  2  0  0  0  0  0  0  0  0  0
   -1.2109   -2.4506   -2.8602 C   0  0  0  0  0  0  0  0  0  0  0  0
   -2.0298   -1.9830   -2.0717 O   0  0  0  0  0  0  0  0  0  0  0  0
    0.7724   -3.7767   -2.0885 C   0  0  0  0  0  0  0  0  0  0  0  0
    1.1423   -1.5884   -0.8529 H   0  0  0  0  0  0  0  0  0  0  0  0
    0.8144   -2.1747   -3.5354 H   0  0  0  0  0  0  0  0  0  0  0  0
    0.2591   -4.0503   -1.1595 H   0  0  0  0  0  0  0  0  0  0  0  0
    0.5852   -4.5730   -2.8164 H   0  0  0  0  0  0  0  0  0  0  0  0
    1.8473   -3.7517   -1.8793 H   0  0  0  0  0  0  0  0  0  0  0  0
   -1.5319   -3.0902   -4.0494 N   0  0  0  0  0  0  0  0  0  0  0  0
   -2.8928   -3.2496   -4.5062 C   0  0  0  0  0  0  0  0  0  0  0  0
   -0.7873   -3.4308   -4.6504 H   0  0  0  0  0  0  0  0  0  0  0  0
   -3.2865   -4.2155   -4.1570 H   0  0  0  0  0  0  0  0  0  0  0  0
   -3.5122   -2.4343   -4.1042 H   0  0  0  0  0  0  0  0  0  0  0  0
   -2.9162   -3.2200   -5.6056 H   0  0  0  0  0  0  0  0  0  0  0  0
 22 24  2  0  0  0  0
 24 26  1  0  0  0  0
 25 26  2  0  0  0  0
 23 25  1  0  0  0  0
 21 22  1  0  0  0  0
 22 23  1  0  0  0  0
  1  3  1  0  0  0  0
  1  7  1  0  0  0  0
  1  2  2  0  0  0  0
 35 36  1  0  0  0  0
 36 44  1  0  0  0  0
 36 37  2  0  0  0  0
  8  9  1  0  0  0  0
  9 17  1  0  0  0  0
  9 10  2  0  0  0  0
 18 19  1  0  0  0  0
 19 34  1  0  0  0  0
 19 20  2  0  0  0  0
 35 38  1  0  0  0  0
  8 11  1  0  0  0  0
 44 45  1  0  0  0  0
 18 21  1  0  0  0  0
 34 35  1  0  0  0  0
  7  8  1  0  0  0  0
 17 18  1  0  0  0  0
 24 32  1  0  0  0  0
 25 33  1  0  0  0  0
  3  4  1  0  0  0  0
  3  5  1  0  0  0  0
  3  6  1  0  0  0  0
 38 41  1  0  0  0  0
 38 42  1  0  0  0  0
 38 43  1  0  0  0  0
 11 14  1  0  0  0  0
 11 15  1  0  0  0  0
 11 16  1  0  0  0  0
 45 47  1  0  0  0  0
 45 48  1  0  0  0  0
 45 49  1  0  0  0  0
 21 29  1  0  0  0  0
 21 30  1  0  0  0  0
 35 40  1  0  0  0  0
  8 13  1  0  0  0  0
 18 28  1  0  0  0  0
 23 31  1  0  0  0  0
 44 46  1  0  0  0  0
  7 12  1  0  0  0  0
 34 39  1  0  0  0  0
 17 27  1  0  0  0  0
M  END
$$$$

  -OEChem-05262214473D

 49 49  0     1  0  0  0  0  0999 V2000
   -1.5619    0.5658    3.7981 C   0  0  0  0  0  0  0  0  0  0  0  0
   -0.6145   -0.0489    3.3224 O   0  0  0  0  0  0  0  0  0  0  0  0
   -1.9938    0.2834    5.1988 C   0  0  0  0  0  0  0  0  0  0  0  0
   -2.7535   -0.5129    5.2522 H   0  0  0  0  0  0  0  0  0  0  0  0
   -1.1626   -0.0642    5.8331 H   0  0  0  0  0  0  0  0  0  0  0  0
   -2.4318    1.1383    5.7384 H   0  0  0  0  0  0  0  0  0  0  0  0
   -2.3116    1.5383    3.1570 N   0  0  0  0  0  0  0  0  0  0  0  0
   -2.0648    1.9643    1.8046 C   0  0  2  0  0  0  0  0  0  0  0  0
   -0.7298    1.3789    1.3634 C   0  0  0  0  0  0  0  0  0  0  0  0
    0.1423    1.0262    2.1547 O   0  0  0  0  0  0  0  0  0  0  0  0
   -2.0560    3.4811    1.6952 C   0  0  0  0  0  0  0  0  0  0  0  0
   -3.0767    1.9741    3.6688 H   0  0  0  0  0  0  0  0  0  0  0  0
   -2.8689    1.5458    1.1895 H   0  0  0  0  0  0  0  0  0  0  0  0
   -1.2569    3.9183    2.3049 H   0  0  0  0  0  0  0  0  0  0  0  0
   -1.8965    3.8033    0.6609 H   0  0  0  0  0  0  0  0  0  0  0  0
   -3.0062    3.9023    2.0409 H   0  0  0  0  0  0  0  0  0  0  0  0
   -0.6071    1.3358   -0.0200 N   0  0  0  0  0  0  0  0  0  0  0  0
    0.5702    0.8350   -0.6836 C   0  0  2  0  0  0  0  0  0  0  0  0
    0.0989   -0.0756   -1.8119 C   0  0  0  0  0  0  0  0  0  0  0  0
   -0.3432    0.3518   -2.8763 O   0  0  0  0  0  0  0  0  0  0  0  0
    1.4909    0.0670    0.2717 C   0  0  0  0  0  0  0  0  0  0  0  0
    2.0568    0.9403    1.3648 C   0  0  0  0  0  0  0  0  0  0  0  0
    3.0578    1.8441    1.1450 N   0  0  0  0  0  0  0  0  0  0  0  0
    1.7652    1.0564    2.7035 C   0  0  0  0  0  0  0  0  0  0  0  0
    3.3255    2.4571    2.3374 C   0  0  0  0  0  0  0  0  0  0  0  0
    2.5583    2.0025    3.3032 N   0  0  0  0  0  0  0  0  0  0  0  0
   -1.3903    1.6325   -0.5973 H   0  0  0  0  0  0  0  0  0  0  0  0
    1.0802    1.7050   -1.1139 H   0  0  0  0  0  0  0  0  0  0  0  0
    2.3112   -0.4038   -0.2869 H   0  0  0  0  0  0  0  0  0  0  0  0
    0.9485   -0.7640    0.7417 H   0  0  0  0  0  0  0  0  0  0  0  0
    3.5191    2.0273    0.2636 H   0  0  0  0  0  0  0  0  0  0  0  0
    1.0249    0.5080    3.2684 H   0  0  0  0  0  0  0  0  0  0  0  0
    4.0852    3.2198    2.4330 H   0  0  0  0  0  0  0  0  0  0  0  0
    0.2783   -1.4174   -1.5059 N   0  0  0  0  0  0  0  0  0  0  0  0
   -0.0642   -2.4905   -2.4114 C   0  0  2  0  0  0  0  0  0  0  0  0
   -1.4865   -2.2555   -2.9025 C   0  0  0  0  0  0  0  0  0  0  0  0
   -2.3035   -1.5716   -2.2895 O   0  0  0  0  0  0  0  0  0  0  0  0
    0.0601   -3.8466   -1.7345 C   0  0  0  0  0  0  0  0  0  0  0  0
    0.6701   -1.6574   -0.6000 H   0  0  0  0  0  0  0  0  0  0  0  0
    0.6300   -2.4251   -3.2563 H   0  0  0  0  0  0  0  0  0  0  0  0
   -0.6280   -3.9308   -0.8854 H   0  0  0  0  0  0  0  0  0  0  0  0
   -0.1721   -4.6600   -2.4299 H   0  0  0  0  0  0  0  0  0  0  0  0
    1.0761   -4.0015   -1.3556 H   0  0  0  0  0  0  0  0  0  0  0  0
   -1.7496   -2.9347   -4.0840 N   0  0  0  0  0  0  0  0  0  0  0  0
   -3.0330   -2.8819   -4.7444 C   0  0  0  0  0  0  0  0  0  0  0  0
   -1.0071   -3.4629   -4.5326 H   0  0  0  0  0  0  0  0  0  0  0  0
   -3.6570   -3.7205   -4.4018 H   0  0  0  0  0  0  0  0  0  0  0  0
   -3.5311   -1.9315   -4.5021 H   0  0  0  0  0  0  0  0  0  0  0  0
   -2.8885   -2.9532   -5.8325 H   0  0  0  0  0  0  0  0  0  0  0  0
 22 24  2  0  0  0  0
 24 26  1  0  0  0  0
 25 26  2  0  0  0  0
 23 25  1  0  0  0  0
 21 22  1  0  0  0  0
 22 23  1  0  0  0  0
  1  3  1  0  0  0  0
  1  7  1  0  0  0  0
  1  2  2  0  0  0  0
 35 36  1  0  0  0  0
 36 44  1  0  0  0  0
 36 37  2  0  0  0  0
  8  9  1  0  0  0  0
  9 17  1  0  0  0  0
  9 10  2  0  0  0  0
 18 19  1  0  0  0  0
 19 34  1  0  0  0  0
 19 20  2  0  0  0  0
 35 38  1  0  0  0  0
  8 11  1  0  0  0  0
 44 45  1  0  0  0  0
 18 21  1  0  0  0  0
 34 35  1  0  0  0  0
  7  8  1  0  0  0  0
 17 18  1  0  0  0  0
 24 32  1  0  0  0  0
 25 33  1  0  0  0  0
  3  4  1  0  0  0  0
  3  5  1  0  0  0  0
  3  6  1  0  0  0  0
 38 41  1  0  0  0  0
 38 42  1  0  0  0  0
 38 43  1  0  0  0  0
 11 14  1  0  0  0  0
 11 15  1  0  0  0  0
 11 16  1  0  0  0  0
 45 47  1  0  0  0  0
 45 48  1  0  0  0  0
 45 49  1  0  0  0  0
 21 29  1  0  0  0  0
 21 30  1  0  0  0  0
 35 40  1  0  0  0  0
  8 13  1  0  0  0  0
 18 28  1  0  0  0  0
 23 31  1  0  0  0  0
 44 46  1  0  0  0  0
  7 12  1  0  0  0  0
 34 39  1  0  0  0  0
 17 27  1  0  0  0  0
M  END
$$$$

  -OEChem-05262214473D

 49 49  0     1  0  0  0  0  0999 V2000
   -1.5619    0.5658    3.7981 C   0  0  0  0  0  0  0  0  0  0  0  0
   -0.6145   -0.0489    3.3224 O   0  0  0  0  0  0  0  0  0  0  0  0
   -1.9938    0.2834    5.1988 C   0  0  0  0  0  0  0  0  0  0  0  0
   -2.7535   -0.5129    5.2522 H   0  0  0  0  0  0  0  0  0  0  0  0
   -1.1626   -0.0642    5.8331 H   0  0  0  0  0  0  0  0  0  0  0  0
   -2.4318    1.1383    5.7384 H   0  0  0  0  0  0  0  0  0  0  0  0
   -2.3116    1.5383    3.1570 N   0  0  0  0  0  0  0  0  0  0  0  0
   -2.0648    1.9643    1.8046 C   0  0  2  0  0  0  0  0  0  0  0  0
   -0.7298    1.3789    1.3634 C   0  0  0  0  0  0  0  0  0  0  0  0
    0.1423    1.0262    2.1547 O   0  0  0  0  0  0  0  0  0  0  0  0
   -2.0560    3.4811    1.6952 C   0  0  0  0  0  0  0  0  0  0  0  0
   -3.0767    1.9741    3.6688 H   0  0  0  0  0  0  0  0  0  0  0  0
   -2.8689    1.5458    1.1895 H   0  0  0  0  0  0  0  0  0  0  0  0
   -1.2569    3.9183    2.3049 H   0  0  0  0  0  0  0  0  0  0  0  0
   -1.8965    3.8033    0.6609 H   0  0  0  0  0  0  0  0  0  0  0  0
   -3.0062    3.9023    2.0409 H   0  0  0  0  0  0  0  0  0  0  0  0
   -0.6071    1.3358   -0.0200 N   0  0  0  0  0  0  0  0  0  0  0  0
    0.5702    0.8350   -0.6836 C   0  0  2  0  0  0  0  0  0  0  0  0
    0.0989   -0.0756   -1.8119 C   0  0  0  0  0  0  0  0  0  0  0  0
   -0.0888    0.3231   -2.9594 O   0  0  0  0  0  0  0  0  0  0  0  0
    1.4909    0.0670    0.2717 C   0  0  0  0  0  0  0  0  0  0  0  0
    2.0568    0.9403    1.3648 C   0  0  0  0  0  0  0  0  0  0  0  0
    3.0578    1.8441    1.1450 N   0  0  0  0  0  0  0  0  0  0  0  0
    1.7652    1.0564    2.7035 C   0  0  0  0  0  0  0  0  0  0  0  0
    3.3255    2.4571    2.3374 C   0  0  0  0  0  0  0  0  0  0  0  0
    2.5583    2.0025    3.3032 N   0  0  0  0  0  0  0  0  0  0  0  0
   -1.3903    1.6325   -0.5973 H   0  0  0  0  0  0  0  0  0  0  0  0
    1.0802    1.7050   -1.1139 H   0  0  0  0  0  0  0  0  0  0  0  0
    2.3112   -0.4038   -0.2869 H   0  0  0  0  0  0  0  0  0  0  0  0
    0.9485   -0.7640    0.7417 H   0  0  0  0  0  0  0  0  0  0  0  0
    3.5191    2.0273    0.2636 H   0  0  0  0  0  0  0  0  0  0  0  0
    1.0249    0.5080    3.2684 H   0  0  0  0  0  0  0  0  0  0  0  0
    4.0852    3.2198    2.4330 H   0  0  0  0  0  0  0  0  0  0  0  0
   -0.0376   -1.3922   -1.3944 N   0  0  0  0  0  0  0  0  0  0  0  0
   -0.4489   -2.4644   -2.2718 C   0  0  2  0  0  0  0  0  0  0  0  0
   -1.7088   -2.0177   -3.0016 C   0  0  0  0  0  0  0  0  0  0  0  0
   -2.4553   -1.1391   -2.5750 O   0  0  0  0  0  0  0  0  0  0  0  0
   -0.6961   -3.7494   -1.4971 C   0  0  0  0  0  0  0  0  0  0  0  0
    0.1616   -1.6133   -0.4232 H   0  0  0  0  0  0  0  0  0  0  0  0
    0.3609   -2.6093   -2.9952 H   0  0  0  0  0  0  0  0  0  0  0  0
   -1.5043   -3.6236   -0.7673 H   0  0  0  0  0  0  0  0  0  0  0  0
   -0.9800   -4.5680   -2.1667 H   0  0  0  0  0  0  0  0  0  0  0  0
    0.2023   -4.0531   -0.9490 H   0  0  0  0  0  0  0  0  0  0  0  0
   -1.9248   -2.7455   -4.1634 N   0  0  0  0  0  0  0  0  0  0  0  0
   -3.0612   -2.5190   -5.0255 C   0  0  0  0  0  0  0  0  0  0  0  0
   -1.2437   -3.4425   -4.4503 H   0  0  0  0  0  0  0  0  0  0  0  0
   -3.8822   -3.1911   -4.7350 H   0  0  0  0  0  0  0  0  0  0  0  0
   -3.3915   -1.4741   -4.9296 H   0  0  0  0  0  0  0  0  0  0  0  0
   -2.7755   -2.7189   -6.0688 H   0  0  0  0  0  0  0  0  0  0  0  0
 22 24  2  0  0  0  0
 24 26  1  0  0  0  0
 25 26  2  0  0  0  0
 23 25  1  0  0  0  0
 21 22  1  0  0  0  0
 22 23  1  0  0  0  0
  1  3  1  0  0  0  0
  1  7  1  0  0  0  0
  1  2  2  0  0  0  0
 35 36  1  0  0  0  0
 36 44  1  0  0  0  0
 36 37  2  0  0  0  0
  8  9  1  0  0  0  0
  9 17  1  0  0  0  0
  9 10  2  0  0  0  0
 18 19  1  0  0  0  0
 19 34  1  0  0  0  0
 19 20  2  0  0  0  0
 35 38  1  0  0  0  0
  8 11  1  0  0  0  0
 44 45  1  0  0  0  0
 18 21  1  0  0  0  0
 34 35  1  0  0  0  0
  7  8  1  0  0  0  0
 17 18  1  0  0  0  0
 24 32  1  0  0  0  0
 25 33  1  0  0  0  0
  3  4  1  0  0  0  0
  3  5  1  0  0  0  0
  3  6  1  0  0  0  0
 38 41  1  0  0  0  0
 38 42  1  0  0  0  0
 38 43  1  0  0  0  0
 11 14  1  0  0  0  0
 11 15  1  0  0  0  0
 11 16  1  0  0  0  0
 45 47  1  0  0  0  0
 45 48  1  0  0  0  0
 45 49  1  0  0  0  0
 21 29  1  0  0  0  0
 21 30  1  0  0  0  0
 35 40  1  0  0  0  0
  8 13  1  0  0  0  0
 18 28  1  0  0  0  0
 23 31  1  0  0  0  0
 44 46  1  0  0  0  0
  7 12  1  0  0  0  0
 34 39  1  0  0  0  0
 17 27  1  0  0  0  0
M  END
$$$$

  -OEChem-05262214473D

 49 49  0     1  0  0  0  0  0999 V2000
   -1.5619    0.5658    3.7981 C   0  0  0  0  0  0  0  0  0  0  0  0
   -0.6145   -0.0489    3.3224 O   0  0  0  0  0  0  0  0  0  0  0  0
   -1.9938    0.2834    5.1988 C   0  0  0  0  0  0  0  0  0  0  0  0
   -2.7535   -0.5129    5.2522 H   0  0  0  0  0  0  0  0  0  0  0  0
   -1.1626   -0.0642    5.8331 H   0  0  0  0  0  0  0  0  0  0  0  0
   -2.4318    1.1383    5.7384 H   0  0  0  0  0  0  0  0  0  0  0  0
   -2.3116    1.5383    3.1570 N   0  0  0  0  0  0  0  0  0  0  0  0
   -2.0648    1.9643    1.8046 C   0  0  2  0  0  0  0  0  0  0  0  0
   -0.7298    1.3789    1.3634 C   0  0  0  0  0  0  0  0  0  0  0  0
    0.1423    1.0262    2.1547 O   0  0  0  0  0  0  0  0  0  0  0  0
   -2.0560    3.4811    1.6952 C   0  0  0  0  0  0  0  0  0  0  0  0
   -3.0767    1.9741    3.6688 H   0  0  0  0  0  0  0  0  0  0  0  0
   -2.8689    1.5458    1.1895 H   0  0  0  0  0  0  0  0  0  0  0  0
   -1.2569    3.9183    2.3049 H   0  0  0  0  0  0  0  0  0  0  0  0
   -1.8965    3.8033    0.6609 H   0  0  0  0  0  0  0  0  0  0  0  0
   -3.0062    3.9023    2.0409 H   0  0  0  0  0  0  0  0  0  0  0  0
   -0.6071    1.3358   -0.0200 N   0  0  0  0  0  0  0  0  0  0  0  0
    0.5702    0.8350   -0.6836 C   0  0  2  0  0  0  0  0  0  0  0  0
    0.0989   -0.0756   -1.8119 C   0  0  0  0  0  0  0  0  0  0  0  0
    0.1643    0.2401   -2.9981 O   0  0  0  0  0  0  0  0  0  0  0  0
    1.4909    0.0670    0.2717 C   0  0  0  0  0  0  0  0  0  0  0  0
    2.0568    0.9403    1.3648 C   0  0  0  0  0  0  0  0  0  0  0  0
    3.0578    1.8441    1.1450 N   0  0  0  0  0  0  0  0  0  0  0  0
    1.7652    1.0564    2.7035 C   0  0  0  0  0  0  0  0  0  0  0  0
    3.3255    2.4571    2.3374 C   0  0  0  0  0  0  0  0  0  0  0  0
    2.5583    2.0025    3.3032 N   0  0  0  0  0  0  0  0  0  0  0  0
   -1.3903    1.6325   -0.5973 H   0  0  0  0  0  0  0  0  0  0  0  0
    1.0802    1.7050   -1.1139 H   0  0  0  0  0  0  0  0  0  0  0  0
    2.3112   -0.4038   -0.2869 H   0  0  0  0  0  0  0  0  0  0  0  0
    0.9485   -0.7640    0.7417 H   0  0  0  0  0  0  0  0  0  0  0  0
    3.5191    2.0273    0.2636 H   0  0  0  0  0  0  0  0  0  0  0  0
    1.0249    0.5080    3.2684 H   0  0  0  0  0  0  0  0  0  0  0  0
    4.0852    3.2198    2.4330 H   0  0  0  0  0  0  0  0  0  0  0  0
   -0.3551   -1.2983   -1.3375 N   0  0  0  0  0  0  0  0  0  0  0  0
   -0.8371   -2.3543   -2.1986 C   0  0  2  0  0  0  0  0  0  0  0  0
   -1.8627   -1.7534   -3.1507 C   0  0  0  0  0  0  0  0  0  0  0  0
   -2.4750   -0.7152   -2.9090 O   0  0  0  0  0  0  0  0  0  0  0  0
   -1.4447   -3.4917   -1.3925 C   0  0  0  0  0  0  0  0  0  0  0  0
   -0.3484   -1.4592   -0.3345 H   0  0  0  0  0  0  0  0  0  0  0  0
    0.0252   -2.7148   -2.7699 H   0  0  0  0  0  0  0  0  0  0  0  0
   -2.3101   -3.1495   -0.8133 H   0  0  0  0  0  0  0  0  0  0  0  0
   -1.7834   -4.3034   -2.0446 H   0  0  0  0  0  0  0  0  0  0  0  0
   -0.7145   -3.9030   -0.6872 H   0  0  0  0  0  0  0  0  0  0  0  0
   -2.0454   -2.5357   -4.2824 N   0  0  0  0  0  0  0  0  0  0  0  0
   -2.9755   -2.1855   -5.3304 C   0  0  0  0  0  0  0  0  0  0  0  0
   -1.4811   -3.3708   -4.4090 H   0  0  0  0  0  0  0  0  0  0  0  0
   -3.9467   -2.6632   -5.1341 H   0  0  0  0  0  0  0  0  0  0  0  0
   -3.1030   -1.0933   -5.3575 H   0  0  0  0  0  0  0  0  0  0  0  0
   -2.5850   -2.5332   -6.2982 H   0  0  0  0  0  0  0  0  0  0  0  0
 22 24  2  0  0  0  0
 24 26  1  0  0  0  0
 25 26  2  0  0  0  0
 23 25  1  0  0  0  0
 21 22  1  0  0  0  0
 22 23  1  0  0  0  0
  1  3  1  0  0  0  0
  1  7  1  0  0  0  0
  1  2  2  0  0  0  0
 35 36  1  0  0  0  0
 36 44  1  0  0  0  0
 36 37  2  0  0  0  0
  8  9  1  0  0  0  0
  9 17  1  0  0  0  0
  9 10  2  0  0  0  0
 18 19  1  0  0  0  0
 19 34  1  0  0  0  0
 19 20  2  0  0  0  0
 35 38  1  0  0  0  0
  8 11  1  0  0  0  0
 44 45  1  0  0  0  0
 18 21  1  0  0  0  0
 34 35  1  0  0  0  0
  7  8  1  0  0  0  0
 17 18  1  0  0  0  0
 24 32  1  0  0  0  0
 25 33  1  0  0  0  0
  3  4  1  0  0  0  0
  3  5  1  0  0  0  0
  3  6  1  0  0  0  0
 38 41  1  0  0  0  0
 38 42  1  0  0  0  0
 38 43  1  0  0  0  0
 11 14  1  0  0  0  0
 11 15  1  0  0  0  0
 11 16  1  0  0  0  0
 45 47  1  0  0  0  0
 45 48  1  0  0  0  0
 45 49  1  0  0  0  0
 21 29  1  0  0  0  0
 21 30  1  0  0  0  0
 35 40  1  0  0  0  0
  8 13  1  0  0  0  0
 18 28  1  0  0  0  0
 23 31  1  0  0  0  0
 44 46  1  0  0  0  0
  7 12  1  0  0  0  0
 34 39  1  0  0  0  0
 17 27  1  0  0  0  0
M  END
$$$$

  -OEChem-05262214473D

 49 49  0     1  0  0  0  0  0999 V2000
   -1.5619    0.5658    3.7981 C   0  0  0  0  0  0  0  0  0  0  0  0
   -0.6145   -0.0489    3.3224 O   0  0  0  0  0  0  0  0  0  0  0  0
   -1.9938    0.2834    5.1988 C   0  0  0  0  0  0  0  0  0  0  0  0
   -2.7535   -0.5129    5.2522 H   0  0  0  0  0  0  0  0  0  0  0  0
   -1.1626   -0.0642    5.8331 H   0  0  0  0  0  0  0  0  0  0  0  0
   -2.4318    1.1383    5.7384 H   0  0  0  0  0  0  0  0  0  0  0  0
   -2.3116    1.5383    3.1570 N   0  0  0  0  0  0  0  0  0  0  0  0
   -2.0648    1.9643    1.8046 C   0  0  2  0  0  0  0  0  0  0  0  0
   -0.7298    1.3789    1.3634 C   0  0  0  0  0  0  0  0  0  0  0  0
    0.1423    1.0262    2.1547 O   0  0  0  0  0  0  0  0  0  0  0  0
   -2.0560    3.4811    1.6952 C   0  0  0  0  0  0  0  0  0  0  0  0
   -3.0767    1.9741    3.6688 H   0  0  0  0  0  0  0  0  0  0  0  0
   -2.8689    1.5458    1.1895 H   0  0  0  0  0  0  0  0  0  0  0  0
   -1.2569    3.9183    2.3049 H   0  0  0  0  0  0  0  0  0  0  0  0
   -1.8965    3.8033    0.6609 H   0  0  0  0  0  0  0  0  0  0  0  0
   -3.0062    3.9023    2.0409 H   0  0  0  0  0  0  0  0  0  0  0  0
   -0.6071    1.3358   -0.0200 N   0  0  0  0  0  0  0  0  0  0  0  0
    0.5702    0.8350   -0.6836 C   0  0  2  0  0  0  0  0  0  0  0  0
    0.0989   -0.0756   -1.8119 C   0  0  0  0  0  0  0  0  0  0  0  0
    0.3989    0.1083   -2.9897 O   0  0  0  0  0  0  0  0  0  0  0  0
    1.4909    0.0670    0.2717 C   0  0  0  0  0  0  0  0  0  0  0  0
    2.0568    0.9403    1.3648 C   0  0  0  0  0  0  0  0  0  0  0  0
    3.0578    1.8441    1.1450 N   0  0  0  0  0  0  0  0  0  0  0  0
    1.7652    1.0564    2.7035 C   0  0  0  0  0  0  0  0  0  0  0  0
    3.3255    2.4571    2.3374 C   0  0  0  0  0  0  0  0  0  0  0  0
    2.5583    2.0025    3.3032 N   0  0  0  0  0  0  0  0  0  0  0  0
   -1.3903    1.6325   -0.5973 H   0  0  0  0  0  0  0  0  0  0  0  0
    1.0802    1.7050   -1.1139 H   0  0  0  0  0  0  0  0  0  0  0  0
    2.3112   -0.4038   -0.2869 H   0  0  0  0  0  0  0  0  0  0  0  0
    0.9485   -0.7640    0.7417 H   0  0  0  0  0  0  0  0  0  0  0  0
    3.5191    2.0273    0.2636 H   0  0  0  0  0  0  0  0  0  0  0  0
    1.0249    0.5080    3.2684 H   0  0  0  0  0  0  0  0  0  0  0  0
    4.0852    3.2198    2.4330 H   0  0  0  0  0  0  0  0  0  0  0  0
   -0.6527   -1.1423   -1.3391 N   0  0  0  0  0  0  0  0  0  0  0  0
   -1.2023   -2.1677   -2.1966 C   0  0  2  0  0  0  0  0  0  0  0  0
   -1.9377   -1.4805   -3.3396 C   0  0  0  0  0  0  0  0  0  0  0  0
   -2.3611   -0.3287   -3.2685 O   0  0  0  0  0  0  0  0  0  0  0  0
   -2.1345   -3.0910   -1.4277 C   0  0  0  0  0  0  0  0  0  0  0  0
   -0.8252   -1.2055   -0.3401 H   0  0  0  0  0  0  0  0  0  0  0  0
   -0.3540   -2.7344   -2.5957 H   0  0  0  0  0  0  0  0  0  0  0  0
   -2.9906   -2.5410   -1.0203 H   0  0  0  0  0  0  0  0  0  0  0  0
   -2.5277   -3.8842   -2.0722 H   0  0  0  0  0  0  0  0  0  0  0  0
   -1.6117   -3.5615   -0.5881 H   0  0  0  0  0  0  0  0  0  0  0  0
   -2.1034   -2.3194   -4.4328 N   0  0  0  0  0  0  0  0  0  0  0  0
   -2.7817   -1.9042   -5.6384 C   0  0  0  0  0  0  0  0  0  0  0  0
   -1.7031   -3.2527   -4.4116 H   0  0  0  0  0  0  0  0  0  0  0  0
   -3.8463   -2.1728   -5.5718 H   0  0  0  0  0  0  0  0  0  0  0  0
   -2.6852   -0.8149   -5.7567 H   0  0  0  0  0  0  0  0  0  0  0  0
   -2.3299   -2.4086   -6.5053 H   0  0  0  0  0  0  0  0  0  0  0  0
 22 24  2  0  0  0  0
 24 26  1  0  0  0  0
 25 26  2  0  0  0  0
 23 25  1  0  0  0  0
 21 22  1  0  0  0  0
 22 23  1  0  0  0  0
  1  3  1  0  0  0  0
  1  7  1  0  0  0  0
  1  2  2  0  0  0  0
 35 36  1  0  0  0  0
 36 44  1  0  0  0  0
 36 37  2  0  0  0  0
  8  9  1  0  0  0  0
  9 17  1  0  0  0  0
  9 10  2  0  0  0  0
 18 19  1  0  0  0  0
 19 34  1  0  0  0  0
 19 20  2  0  0  0  0
 35 38  1  0  0  0  0
  8 11  1  0  0  0  0
 44 45  1  0  0  0  0
 18 21  1  0  0  0  0
 34 35  1  0  0  0  0
  7  8  1  0  0  0  0
 17 18  1  0  0  0  0
 24 32  1  0  0  0  0
 25 33  1  0  0  0  0
  3  4  1  0  0  0  0
  3  5  1  0  0  0  0
  3  6  1  0  0  0  0
 38 41  1  0  0  0  0
 38 42  1  0  0  0  0
 38 43  1  0  0  0  0
 11 14  1  0  0  0  0
 11 15  1  0  0  0  0
 11 16  1  0  0  0  0
 45 47  1  0  0  0  0
 45 48  1  0  0  0  0
 45 49  1  0  0  0  0
 21 29  1  0  0  0  0
 21 30  1  0  0  0  0
 35 40  1  0  0  0  0
  8 13  1  0  0  0  0
 18 28  1  0  0  0  0
 23 31  1  0  0  0  0
 44 46  1  0  0  0  0
  7 12  1  0  0  0  0
 34 39  1  0  0  0  0
 17 27  1  0  0  0  0
M  END
$$$$

  -OEChem-05262214473D

 49 49  0     1  0  0  0  0  0999 V2000
   -1.5619    0.5658    3.7981 C   0  0  0  0  0  0  0  0  0  0  0  0
   -0.6145   -0.0489    3.3224 O   0  0  0  0  0  0  0  0  0  0  0  0
   -1.9938    0.2834    5.1988 C   0  0  0  0  0  0  0  0  0  0  0  0
   -2.7535   -0.5129    5.2522 H   0  0  0  0  0  0  0  0  0  0  0  0
   -1.1626   -0.0642    5.8331 H   0  0  0  0  0  0  0  0  0  0  0  0
   -2.4318    1.1383    5.7384 H   0  0  0  0  0  0  0  0  0  0  0  0
   -2.3116    1.5383    3.1570 N   0  0  0  0  0  0  0  0  0  0  0  0
   -2.0648    1.9643    1.8046 C   0  0  2  0  0  0  0  0  0  0  0  0
   -0.7298    1.3789    1.3634 C   0  0  0  0  0  0  0  0  0  0  0  0
    0.1423    1.0262    2.1547 O   0  0  0  0  0  0  0  0  0  0  0  0
   -2.0560    3.4811    1.6952 C   0  0  0  0  0  0  0  0  0  0  0  0
   -3.0767    1.9741    3.6688 H   0  0  0  0  0  0  0  0  0  0  0  0
   -2.8689    1.5458    1.1895 H   0  0  0  0  0  0  0  0  0  0  0  0
   -1.2569    3.9183    2.3049 H   0  0  0  0  0  0  0  0  0  0  0  0
   -1.8965    3.8033    0.6609 H   0  0  0  0  0  0  0  0  0  0  0  0
   -3.0062    3.9023    2.0409 H   0  0  0  0  0  0  0  0  0  0  0  0
   -0.6071    1.3358   -0.0200 N   0  0  0  0  0  0  0  0  0  0  0  0
    0.5702    0.8350   -0.6836 C   0  0  2  0  0  0  0  0  0  0  0  0
    0.0989   -0.0756   -1.8119 C   0  0  0  0  0  0  0  0  0  0  0  0
    0.5989   -0.0633   -2.9348 O   0  0  0  0  0  0  0  0  0  0  0  0
    1.4909    0.0670    0.2717 C   0  0  0  0  0  0  0  0  0  0  0  0
    2.0568    0.9403    1.3648 C   0  0  0  0  0  0  0  0  0  0  0  0
    3.0578    1.8441    1.1450 N   0  0  0  0  0  0  0  0  0  0  0  0
    1.7652    1.0564    2.7035 C   0  0  0  0  0  0  0  0  0  0  0  0
    3.3255    2.4571    2.3374 C   0  0  0  0  0  0  0  0  0  0  0  0
    2.5583    2.0025    3.3032 N   0  0  0  0  0  0  0  0  0  0  0  0
   -1.3903    1.6325   -0.5973 H   0  0  0  0  0  0  0  0  0  0  0  0
    1.0802    1.7050   -1.1139 H   0  0  0  0  0  0  0  0  0  0  0  0
    2.3112   -0.4038   -0.2869 H   0  0  0  0  0  0  0  0  0  0  0  0
    0.9485   -0.7640    0.7417 H   0  0  0  0  0  0  0  0  0  0  0  0
    3.5191    2.0273    0.2636 H   0  0  0  0  0  0  0  0  0  0  0  0
    1.0249    0.5080    3.2684 H   0  0  0  0  0  0  0  0  0  0  0  0
    4.0852    3.2198    2.4330 H   0  0  0  0  0  0  0  0  0  0  0  0
   -0.9100   -0.9347   -1.3992 N   0  0  0  0  0  0  0  0  0  0  0  0
   -1.5196   -1.9173   -2.2661 C   0  0  2  0  0  0  0  0  0  0  0  0
   -1.9286   -1.2176   -3.5556 C   0  0  0  0  0  0  0  0  0  0  0  0
   -2.1216   -0.0059   -3.6291 O   0  0  0  0  0  0  0  0  0  0  0  0
   -2.7186   -2.5746   -1.6005 C   0  0  0  0  0  0  0  0  0  0  0  0
   -1.2363   -0.8697   -0.4395 H   0  0  0  0  0  0  0  0  0  0  0  0
   -0.7510   -2.6667   -2.4845 H   0  0  0  0  0  0  0  0  0  0  0  0
   -3.4993   -1.8393   -1.3741 H   0  0  0  0  0  0  0  0  0  0  0  0
   -3.1620   -3.3389   -2.2473 H   0  0  0  0  0  0  0  0  0  0  0  0
   -2.4283   -3.0519   -0.6583 H   0  0  0  0  0  0  0  0  0  0  0  0
   -2.0947   -2.1114   -4.6043 N   0  0  0  0  0  0  0  0  0  0  0  0
   -2.4929   -1.6943   -5.9284 C   0  0  0  0  0  0  0  0  0  0  0  0
   -1.8945   -3.0964   -4.4578 H   0  0  0  0  0  0  0  0  0  0  0  0
   -3.5877   -1.7534   -6.0183 H   0  0  0  0  0  0  0  0  0  0  0  0
   -2.1665   -0.6579   -6.0999 H   0  0  0  0  0  0  0  0  0  0  0  0
   -2.0277   -2.3537   -6.6759 H   0  0  0  0  0  0  0  0  0  0  0  0
 22 24  2  0  0  0  0
 24 26  1  0  0  0  0
 25 26  2  0  0  0  0
 23 25  1  0  0  0  0
 21 22  1  0  0  0  0
 22 23  1  0  0  0  0
  1  3  1  0  0  0  0
  1  7  1  0  0  0  0
  1  2  2  0  0  0  0
 35 36  1  0  0  0  0
 36 44  1  0  0  0  0
 36 37  2  0  0  0  0
  8  9  1  0  0  0  0
  9 17  1  0  0  0  0
  9 10  2  0  0  0  0
 18 19  1  0  0  0  0
 19 34  1  0  0  0  0
 19 20  2  0  0  0  0
 35 38  1  0  0  0  0
  8 11  1  0  0  0  0
 44 45  1  0  0  0  0
 18 21  1  0  0  0  0
 34 35  1  0  0  0  0
  7  8  1  0  0  0  0
 17 18  1  0  0  0  0
 24 32  1  0  0  0  0
 25 33  1  0  0  0  0
  3  4  1  0  0  0  0
  3  5  1  0  0  0  0
  3  6  1  0  0  0  0
 38 41  1  0  0  0  0
 38 42  1  0  0  0  0
 38 43  1  0  0  0  0
 11 14  1  0  0  0  0
 11 15  1  0  0  0  0
 11 16  1  0  0  0  0
 45 47  1  0  0  0  0
 45 48  1  0  0  0  0
 45 49  1  0  0  0  0
 21 29  1  0  0  0  0
 21 30  1  0  0  0  0
 35 40  1  0  0  0  0
  8 13  1  0  0  0  0
 18 28  1  0  0  0  0
 23 31  1  0  0  0  0
 44 46  1  0  0  0  0
  7 12  1  0  0  0  0
 34 39  1  0  0  0  0
 17 27  1  0  0  0  0
M  END
$$$$

  -OEChem-05262214473D

 49 49  0     1  0  0  0  0  0999 V2000
   -1.5619    0.5658    3.7981 C   0  0  0  0  0  0  0  0  0  0  0  0
   -0.6145   -0.0489    3.3224 O   0  0  0  0  0  0  0  0  0  0  0  0
   -1.9938    0.2834    5.1988 C   0  0  0  0  0  0  0  0  0  0  0  0
   -2.7535   -0.5129    5.2522 H   0  0  0  0  0  0  0  0  0  0  0  0
   -1.1626   -0.0642    5.8331 H   0  0  0  0  0  0  0  0  0  0  0  0
   -2.4318    1.1383    5.7384 H   0  0  0  0  0  0  0  0  0  0  0  0
   -2.3116    1.5383    3.1570 N   0  0  0  0  0  0  0  0  0  0  0  0
   -2.0648    1.9643    1.8046 C   0  0  2  0  0  0  0  0  0  0  0  0
   -0.7298    1.3789    1.3634 C   0  0  0  0  0  0  0  0  0  0  0  0
    0.1423    1.0262    2.1547 O   0  0  0  0  0  0  0  0  0  0  0  0
   -2.0560    3.4811    1.6952 C   0  0  0  0  0  0  0  0  0  0  0  0
   -3.0767    1.9741    3.6688 H   0  0  0  0  0  0  0  0  0  0  0  0
   -2.8689    1.5458    1.1895 H   0  0  0  0  0  0  0  0  0  0  0  0
   -1.2569    3.9183    2.3049 H   0  0  0  0  0  0  0  0  0  0  0  0
   -1.8965    3.8033    0.6609 H   0  0  0  0  0  0  0  0  0  0  0  0
   -3.0062    3.9023    2.0409 H   0  0  0  0  0  0  0  0  0  0  0  0
   -0.6071    1.3358   -0.0200 N   0  0  0  0  0  0  0  0  0  0  0  0
    0.5702    0.8350   -0.6836 C   0  0  2  0  0  0  0  0  0  0  0  0
    0.0989   -0.0756   -1.8119 C   0  0  0  0  0  0  0  0  0  0  0  0
    0.7507   -0.2629   -2.8371 O   0  0  0  0  0  0  0  0  0  0  0  0
    1.4909    0.0670    0.2717 C   0  0  0  0  0  0  0  0  0  0  0  0
    2.0568    0.9403    1.3648 C   0  0  0  0  0  0  0  0  0  0  0  0
    3.0578    1.8441    1.1450 N   0  0  0  0  0  0  0  0  0  0  0  0
    1.7652    1.0564    2.7035 C   0  0  0  0  0  0  0  0  0  0  0  0
    3.3255    2.4571    2.3374 C   0  0  0  0  0  0  0  0  0  0  0  0
    2.5583    2.0025    3.3032 N   0  0  0  0  0  0  0  0  0  0  0  0
   -1.3903    1.6325   -0.5973 H   0  0  0  0  0  0  0  0  0  0  0  0
    1.0802    1.7050   -1.1139 H   0  0  0  0  0  0  0  0  0  0  0  0
    2.3112   -0.4038   -0.2869 H   0  0  0  0  0  0  0  0  0  0  0  0
    0.9485   -0.7640    0.7417 H   0  0  0  0  0  0  0  0  0  0  0  0
    3.5191    2.0273    0.2636 H   0  0  0  0  0  0  0  0  0  0  0  0
    1.0249    0.5080    3.2684 H   0  0  0  0  0  0  0  0  0  0  0  0
    4.0852    3.2198    2.4330 H   0  0  0  0  0  0  0  0  0  0  0  0
   -1.1095   -0.6898   -1.5136 N   0  0  0  0  0  0  0  0  0  0  0  0
   -1.7674   -1.6203   -2.4023 C   0  0  2  0  0  0  0  0  0  0  0  0
   -1.8361   -0.9828   -3.7838 C   0  0  0  0  0  0  0  0  0  0  0  0
   -1.7726    0.2312   -3.9662 O   0  0  0  0  0  0  0  0  0  0  0  0
   -3.1572   -1.9778   -1.8990 C   0  0  0  0  0  0  0  0  0  0  0  0
   -1.5537   -0.4744   -0.6259 H   0  0  0  0  0  0  0  0  0  0  0  0
   -1.1387   -2.5164   -2.4439 H   0  0  0  0  0  0  0  0  0  0  0  0
   -3.8017   -1.0924   -1.8506 H   0  0  0  0  0  0  0  0  0  0  0  0
   -3.6432   -2.7046   -2.5582 H   0  0  0  0  0  0  0  0  0  0  0  0
   -3.1085   -2.4088   -0.8932 H   0  0  0  0  0  0  0  0  0  0  0  0
   -2.0199   -1.9258   -4.7852 N   0  0  0  0  0  0  0  0  0  0  0  0
   -2.1290   -1.5700   -6.1808 C   0  0  0  0  0  0  0  0  0  0  0  0
   -2.0423   -2.9124   -4.5446 H   0  0  0  0  0  0  0  0  0  0  0  0
   -3.1885   -1.4336   -6.4432 H   0  0  0  0  0  0  0  0  0  0  0  0
   -1.5825   -0.6331   -6.3639 H   0  0  0  0  0  0  0  0  0  0  0  0
   -1.6988   -2.3722   -6.7983 H   0  0  0  0  0  0  0  0  0  0  0  0
 22 24  2  0  0  0  0
 24 26  1  0  0  0  0
 25 26  2  0  0  0  0
 23 25  1  0  0  0  0
 21 22  1  0  0  0  0
 22 23  1  0  0  0  0
  1  3  1  0  0  0  0
  1  7  1  0  0  0  0
  1  2  2  0  0  0  0
 35 36  1  0  0  0  0
 36 44  1  0  0  0  0
 36 37  2  0  0  0  0
  8  9  1  0  0  0  0
  9 17  1  0  0  0  0
  9 10  2  0  0  0  0
 18 19  1  0  0  0  0
 19 34  1  0  0  0  0
 19 20  2  0  0  0  0
 35 38  1  0  0  0  0
  8 11  1  0  0  0  0
 44 45  1  0  0  0  0
 18 21  1  0  0  0  0
 34 35  1  0  0  0  0
  7  8  1  0  0  0  0
 17 18  1  0  0  0  0
 24 32  1  0  0  0  0
 25 33  1  0  0  0  0
  3  4  1  0  0  0  0
  3  5  1  0  0  0  0
  3  6  1  0  0  0  0
 38 41  1  0  0  0  0
 38 42  1  0  0  0  0
 38 43  1  0  0  0  0
 11 14  1  0  0  0  0
 11 15  1  0  0  0  0
 11 16  1  0  0  0  0
 45 47  1  0  0  0  0
 45 48  1  0  0  0  0
 45 49  1  0  0  0  0
 21 29  1  0  0  0  0
 21 30  1  0  0  0  0
 35 40  1  0  0  0  0
  8 13  1  0  0  0  0
 18 28  1  0  0  0  0
 23 31  1  0  0  0  0
 44 46  1  0  0  0  0
  7 12  1  0  0  0  0
 34 39  1  0  0  0  0
 17 27  1  0  0  0  0
M  END
$$$$

  -OEChem-05262214473D

 49 49  0     1  0  0  0  0  0999 V2000
   -1.5619    0.5658    3.7981 C   0  0  0  0  0  0  0  0  0  0  0  0
   -0.6145   -0.0489    3.3224 O   0  0  0  0  0  0  0  0  0  0  0  0
   -1.9938    0.2834    5.1988 C   0  0  0  0  0  0  0  0  0  0  0  0
   -2.7535   -0.5129    5.2522 H   0  0  0  0  0  0  0  0  0  0  0  0
   -1.1626   -0.0642    5.8331 H   0  0  0  0  0  0  0  0  0  0  0  0
   -2.4318    1.1383    5.7384 H   0  0  0  0  0  0  0  0  0  0  0  0
   -2.3116    1.5383    3.1570 N   0  0  0  0  0  0  0  0  0  0  0  0
   -2.0648    1.9643    1.8046 C   0  0  2  0  0  0  0  0  0  0  0  0
   -0.7298    1.3789    1.3634 C   0  0  0  0  0  0  0  0  0  0  0  0
    0.1423    1.0262    2.1547 O   0  0  0  0  0  0  0  0  0  0  0  0
   -2.0560    3.4811    1.6952 C   0  0  0  0  0  0  0  0  0  0  0  0
   -3.0767    1.9741    3.6688 H   0  0  0  0  0  0  0  0  0  0  0  0
   -2.8689    1.5458    1.1895 H   0  0  0  0  0  0  0  0  0  0  0  0
   -1.2569    3.9183    2.3049 H   0  0  0  0  0  0  0  0  0  0  0  0
   -1.8965    3.8033    0.6609 H   0  0  0  0  0  0  0  0  0  0  0  0
   -3.0062    3.9023    2.0409 H   0  0  0  0  0  0  0  0  0  0  0  0
   -0.6071    1.3358   -0.0200 N   0  0  0  0  0  0  0  0  0  0  0  0
    0.5702    0.8350   -0.6836 C   0  0  2  0  0  0  0  0  0  0  0  0
    0.0989   -0.0756   -1.8119 C   0  0  0  0  0  0  0  0  0  0  0  0
    0.8441   -0.4770   -2.7032 O   0  0  0  0  0  0  0  0  0  0  0  0
    1.4909    0.0670    0.2717 C   0  0  0  0  0  0  0  0  0  0  0  0
    2.0568    0.9403    1.3648 C   0  0  0  0  0  0  0  0  0  0  0  0
    3.0578    1.8441    1.1450 N   0  0  0  0  0  0  0  0  0  0  0  0
    1.7652    1.0564    2.7035 C   0  0  0  0  0  0  0  0  0  0  0  0
    3.3255    2.4571    2.3374 C   0  0  0  0  0  0  0  0  0  0  0  0
    2.5583    2.0025    3.3032 N   0  0  0  0  0  0  0  0  0  0  0  0
   -1.3903    1.6325   -0.5973 H   0  0  0  0  0  0  0  0  0  0  0  0
    1.0802    1.7050   -1.1139 H   0  0  0  0  0  0  0  0  0  0  0  0
    2.3112   -0.4038   -0.2869 H   0  0  0  0  0  0  0  0  0  0  0  0
    0.9485   -0.7640    0.7417 H   0  0  0  0  0  0  0  0  0  0  0  0
    3.5191    2.0273    0.2636 H   0  0  0  0  0  0  0  0  0  0  0  0
    1.0249    0.5080    3.2684 H   0  0  0  0  0  0  0  0  0  0  0  0
    4.0852    3.2198    2.4330 H   0  0  0  0  0  0  0  0  0  0  0  0
   -1.2375   -0.4241   -1.6745 N   0  0  0  0  0  0  0  0  0  0  0  0
   -1.9288   -1.2968   -2.5960 C   0  0  2  0  0  0  0  0  0  0  0  0
   -1.6665   -0.7919   -4.0087 C   0  0  0  0  0  0  0  0  0  0  0  0
   -1.3380    0.3664   -4.2568 O   0  0  0  0  0  0  0  0  0  0  0  0
   -3.4204   -1.3412   -2.3029 C   0  0  0  0  0  0  0  0  0  0  0  0
   -1.7558   -0.0468   -0.8866 H   0  0  0  0  0  0  0  0  0  0  0  0
   -1.4906   -2.2937   -2.4766 H   0  0  0  0  0  0  0  0  0  0  0  0
   -3.8769   -0.3512   -2.4173 H   0  0  0  0  0  0  0  0  0  0  0  0
   -3.9384   -2.0247   -2.9836 H   0  0  0  0  0  0  0  0  0  0  0  0
   -3.6062   -1.6761   -1.2767 H   0  0  0  0  0  0  0  0  0  0  0  0
   -1.8842   -1.7754   -4.9633 N   0  0  0  0  0  0  0  0  0  0  0  0
   -1.7147   -1.5398   -6.3781 C   0  0  0  0  0  0  0  0  0  0  0  0
   -2.1364   -2.7134   -4.6659 H   0  0  0  0  0  0  0  0  0  0  0  0
   -2.6760   -1.2351   -6.8174 H   0  0  0  0  0  0  0  0  0  0  0  0
   -0.9728   -0.7421   -6.5306 H   0  0  0  0  0  0  0  0  0  0  0  0
   -1.3658   -2.4629   -6.8642 H   0  0  0  0  0  0  0  0  0  0  0  0
 22 24  2  0  0  0  0
 24 26  1  0  0  0  0
 25 26  2  0  0  0  0
 23 25  1  0  0  0  0
 21 22  1  0  0  0  0
 22 23  1  0  0  0  0
  1  3  1  0  0  0  0
  1  7  1  0  0  0  0
  1  2  2  0  0  0  0
 35 36  1  0  0  0  0
 36 44  1  0  0  0  0
 36 37  2  0  0  0  0
  8  9  1  0  0  0  0
  9 17  1  0  0  0  0
  9 10  2  0  0  0  0
 18 19  1  0  0  0  0
 19 34  1  0  0  0  0
 19 20  2  0  0  0  0
 35 38  1  0  0  0  0
  8 11  1  0  0  0  0
 44 45  1  0  0  0  0
 18 21  1  0  0  0  0
 34 35  1  0  0  0  0
  7  8  1  0  0  0  0
 17 18  1  0  0  0  0
 24 32  1  0  0  0  0
 25 33  1  0  0  0  0
  3  4  1  0  0  0  0
  3  5  1  0  0  0  0
  3  6  1  0  0  0  0
 38 41  1  0  0  0  0
 38 42  1  0  0  0  0
 38 43  1  0  0  0  0
 11 14  1  0  0  0  0
 11 15  1  0  0  0  0
 11 16  1  0  0  0  0
 45 47  1  0  0  0  0
 45 48  1  0  0  0  0
 45 49  1  0  0  0  0
 21 29  1  0  0  0  0
 21 30  1  0  0  0  0
 35 40  1  0  0  0  0
  8 13  1  0  0  0  0
 18 28  1  0  0  0  0
 23 31  1  0  0  0  0
 44 46  1  0  0  0  0
  7 12  1  0  0  0  0
 34 39  1  0  0  0  0
 17 27  1  0  0  0  0
M  END
$$$$

  -OEChem-05262214473D

 49 49  0     1  0  0  0  0  0999 V2000
   -1.5619    0.5658    3.7981 C   0  0  0  0  0  0  0  0  0  0  0  0
   -0.6145   -0.0489    3.3224 O   0  0  0  0  0  0  0  0  0  0  0  0
   -1.9938    0.2834    5.1988 C   0  0  0  0  0  0  0  0  0  0  0  0
   -2.7535   -0.5129    5.2522 H   0  0  0  0  0  0  0  0  0  0  0  0
   -1.1626   -0.0642    5.8331 H   0  0  0  0  0  0  0  0  0  0  0  0
   -2.4318    1.1383    5.7384 H   0  0  0  0  0  0  0  0  0  0  0  0
   -2.3116    1.5383    3.1570 N   0  0  0  0  0  0  0  0  0  0  0  0
   -2.0648    1.9643    1.8046 C   0  0  2  0  0  0  0  0  0  0  0  0
   -0.7298    1.3789    1.3634 C   0  0  0  0  0  0  0  0  0  0  0  0
    0.1423    1.0262    2.1547 O   0  0  0  0  0  0  0  0  0  0  0  0
   -2.0560    3.4811    1.6952 C   0  0  0  0  0  0  0  0  0  0  0  0
   -3.0767    1.9741    3.6688 H   0  0  0  0  0  0  0  0  0  0  0  0
   -2.8689    1.5458    1.1895 H   0  0  0  0  0  0  0  0  0  0  0  0
   -1.2569    3.9183    2.3049 H   0  0  0  0  0  0  0  0  0  0  0  0
   -1.8965    3.8033    0.6609 H   0  0  0  0  0  0  0  0  0  0  0  0
   -3.0062    3.9023    2.0409 H   0  0  0  0  0  0  0  0  0  0  0  0
   -0.6071    1.3358   -0.0200 N   0  0  0  0  0  0  0  0  0  0  0  0
    0.5702    0.8350   -0.6836 C   0  0  2  0  0  0  0  0  0  0  0  0
    0.0989   -0.0756   -1.8119 C   0  0  0  0  0  0  0  0  0  0  0  0
    0.8725   -0.6910   -2.5424 O   0  0  0  0  0  0  0  0  0  0  0  0
    1.4909    0.0670    0.2717 C   0  0  0  0  0  0  0  0  0  0  0  0
    2.0568    0.9403    1.3648 C   0  0  0  0  0  0  0  0  0  0  0  0
    3.0578    1.8441    1.1450 N   0  0  0  0  0  0  0  0  0  0  0  0
    1.7652    1.0564    2.7035 C   0  0  0  0  0  0  0  0  0  0  0  0
    3.3255    2.4571    2.3374 C   0  0  0  0  0  0  0  0  0  0  0  0
    2.5583    2.0025    3.3032 N   0  0  0  0  0  0  0  0  0  0  0  0
   -1.3903    1.6325   -0.5973 H   0  0  0  0  0  0  0  0  0  0  0  0
    1.0802    1.7050   -1.1139 H   0  0  0  0  0  0  0  0  0  0  0  0
    2.3112   -0.4038   -0.2869 H   0  0  0  0  0  0  0  0  0  0  0  0
    0.9485   -0.7640    0.7417 H   0  0  0  0  0  0  0  0  0  0  0  0
    3.5191    2.0273    0.2636 H   0  0  0  0  0  0  0  0  0  0  0  0
    1.0249    0.5080    3.2684 H   0  0  0  0  0  0  0  0  0  0  0  0
    4.0852    3.2198    2.4330 H   0  0  0  0  0  0  0  0  0  0  0  0
   -1.2855   -0.1558   -1.8710 N   0  0  0  0  0  0  0  0  0  0  0  0
   -1.9929   -0.9690   -2.8339 C   0  0  2  0  0  0  0  0  0  0  0  0
   -1.4313   -0.6580   -4.2150 C   0  0  0  0  0  0  0  0  0  0  0  0
   -0.8474    0.3905   -4.4811 O   0  0  0  0  0  0  0  0  0  0  0  0
   -3.4903   -0.7081   -2.7846 C   0  0  0  0  0  0  0  0  0  0  0  0
   -1.8288    0.3842   -1.2039 H   0  0  0  0  0  0  0  0  0  0  0  0
   -1.7829   -2.0138   -2.5804 H   0  0  0  0  0  0  0  0  0  0  0  0
   -3.7201    0.3338   -3.0357 H   0  0  0  0  0  0  0  0  0  0  0  0
   -4.0276   -1.3455   -3.4946 H   0  0  0  0  0  0  0  0  0  0  0  0
   -3.8872   -0.9038   -1.7826 H   0  0  0  0  0  0  0  0  0  0  0  0
   -1.6968   -1.6704   -5.1264 N   0  0  0  0  0  0  0  0  0  0  0  0
   -1.2782   -1.6058   -6.5072 C   0  0  0  0  0  0  0  0  0  0  0  0
   -2.1704   -2.5128   -4.8136 H   0  0  0  0  0  0  0  0  0  0  0  0
   -2.0851   -1.1714   -7.1156 H   0  0  0  0  0  0  0  0  0  0  0  0
   -0.3789   -0.9776   -6.5886 H   0  0  0  0  0  0  0  0  0  0  0  0
   -1.0513   -2.6195   -6.8692 H   0  0  0  0  0  0  0  0  0  0  0  0
 22 24  2  0  0  0  0
 24 26  1  0  0  0  0
 25 26  2  0  0  0  0
 23 25  1  0  0  0  0
 21 22  1  0  0  0  0
 22 23  1  0  0  0  0
  1  3  1  0  0  0  0
  1  7  1  0  0  0  0
  1  2  2  0  0  0  0
 35 36  1  0  0  0  0
 36 44  1  0  0  0  0
 36 37  2  0  0  0  0
  8  9  1  0  0  0  0
  9 17  1  0  0  0  0
  9 10  2  0  0  0  0
 18 19  1  0  0  0  0
 19 34  1  0  0  0  0
 19 20  2  0  0  0  0
 35 38  1  0  0  0  0
  8 11  1  0  0  0  0
 44 45  1  0  0  0  0
 18 21  1  0  0  0  0
 34 35  1  0  0  0  0
  7  8  1  0  0  0  0
 17 18  1  0  0  0  0
 24 32  1  0  0  0  0
 25 33  1  0  0  0  0
  3  4  1  0  0  0  0
  3  5  1  0  0  0  0
  3  6  1  0  0  0  0
 38 41  1  0  0  0  0
 38 42  1  0  0  0  0
 38 43  1  0  0  0  0
 11 14  1  0  0  0  0
 11 15  1  0  0  0  0
 11 16  1  0  0  0  0
 45 47  1  0  0  0  0
 45 48  1  0  0  0  0
 45 49  1  0  0  0  0
 21 29  1  0  0  0  0
 21 30  1  0  0  0  0
 35 40  1  0  0  0  0
  8 13  1  0  0  0  0
 18 28  1  0  0  0  0
 23 31  1  0  0  0  0
 44 46  1  0  0  0  0
  7 12  1  0  0  0  0
 34 39  1  0  0  0  0
 17 27  1  0  0  0  0
M  END
$$$$

  -OEChem-05262214473D

 49 49  0     1  0  0  0  0  0999 V2000
   -1.5619    0.5658    3.7981 C   0  0  0  0  0  0  0  0  0  0  0  0
   -0.6145   -0.0489    3.3224 O   0  0  0  0  0  0  0  0  0  0  0  0
   -1.9938    0.2834    5.1988 C   0  0  0  0  0  0  0  0  0  0  0  0
   -2.7535   -0.5129    5.2522 H   0  0  0  0  0  0  0  0  0  0  0  0
   -1.1626   -0.0642    5.8331 H   0  0  0  0  0  0  0  0  0  0  0  0
   -2.4318    1.1383    5.7384 H   0  0  0  0  0  0  0  0  0  0  0  0
   -2.3116    1.5383    3.1570 N   0  0  0  0  0  0  0  0  0  0  0  0
   -2.0648    1.9643    1.8046 C   0  0  2  0  0  0  0  0  0  0  0  0
   -0.7298    1.3789    1.3634 C   0  0  0  0  0  0  0  0  0  0  0  0
    0.1423    1.0262    2.1547 O   0  0  0  0  0  0  0  0  0  0  0  0
   -2.0560    3.4811    1.6952 C   0  0  0  0  0  0  0  0  0  0  0  0
   -3.0767    1.9741    3.6688 H   0  0  0  0  0  0  0  0  0  0  0  0
   -2.8689    1.5458    1.1895 H   0  0  0  0  0  0  0  0  0  0  0  0
   -1.2569    3.9183    2.3049 H   0  0  0  0  0  0  0  0  0  0  0  0
   -1.8965    3.8033    0.6609 H   0  0  0  0  0  0  0  0  0  0  0  0
   -3.0062    3.9023    2.0409 H   0  0  0  0  0  0  0  0  0  0  0  0
   -0.6071    1.3358   -0.0200 N   0  0  0  0  0  0  0  0  0  0  0  0
    0.5702    0.8350   -0.6836 C   0  0  2  0  0  0  0  0  0  0  0  0
    0.0989   -0.0756   -1.8119 C   0  0  0  0  0  0  0  0  0  0  0  0
    0.8341   -0.8903   -2.3656 O   0  0  0  0  0  0  0  0  0  0  0  0
    1.4909    0.0670    0.2717 C   0  0  0  0  0  0  0  0  0  0  0  0
    2.0568    0.9403    1.3648 C   0  0  0  0  0  0  0  0  0  0  0  0
    3.0578    1.8441    1.1450 N   0  0  0  0  0  0  0  0  0  0  0  0
    1.7652    1.0564    2.7035 C   0  0  0  0  0  0  0  0  0  0  0  0
    3.3255    2.4571    2.3374 C   0  0  0  0  0  0  0  0  0  0  0  0
    2.5583    2.0025    3.3032 N   0  0  0  0  0  0  0  0  0  0  0  0
   -1.3903    1.6325   -0.5973 H   0  0  0  0  0  0  0  0  0  0  0  0
    1.0802    1.7050   -1.1139 H   0  0  0  0  0  0  0  0  0  0  0  0
    2.3112   -0.4038   -0.2869 H   0  0  0  0  0  0  0  0  0  0  0  0
    0.9485   -0.7640    0.7417 H   0  0  0  0  0  0  0  0  0  0  0  0
    3.5191    2.0273    0.2636 H   0  0  0  0  0  0  0  0  0  0  0  0
    1.0249    0.5080    3.2684 H   0  0  0  0  0  0  0  0  0  0  0  0
    4.0852    3.2198    2.4330 H   0  0  0  0  0  0  0  0  0  0  0  0
   -1.2500    0.0968   -2.0897 N   0  0  0  0  0  0  0  0  0  0  0  0
   -1.9551   -0.6590   -3.0998 C   0  0  2  0  0  0  0  0  0  0  0  0
   -1.1466   -0.5902   -4.3886 C   0  0  0  0  0  0  0  0  0  0  0  0
   -0.3342    0.3018   -4.6239 O   0  0  0  0  0  0  0  0  0  0  0  0
   -3.3620   -0.1218   -3.3113 C   0  0  0  0  0  0  0  0  0  0  0  0
   -1.7677    0.7890   -1.5562 H   0  0  0  0  0  0  0  0  0  0  0  0
   -1.9956   -1.6958   -2.7483 H   0  0  0  0  0  0  0  0  0  0  0  0
   -3.3418    0.9159   -3.6636 H   0  0  0  0  0  0  0  0  0  0  0  0
   -3.9047   -0.7131   -4.0563 H   0  0  0  0  0  0  0  0  0  0  0  0
   -3.9325   -0.1444   -2.3765 H   0  0  0  0  0  0  0  0  0  0  0  0
   -1.4704   -1.6179   -5.2633 N   0  0  0  0  0  0  0  0  0  0  0  0
   -0.8492   -1.7635   -6.5591 C   0  0  0  0  0  0  0  0  0  0  0  0
   -2.1420   -2.3243   -4.9776 H   0  0  0  0  0  0  0  0  0  0  0  0
   -1.4561   -1.2470   -7.3173 H   0  0  0  0  0  0  0  0  0  0  0  0
    0.1585   -1.3234   -6.5340 H   0  0  0  0  0  0  0  0  0  0  0  0
   -0.7767   -2.8314   -6.8128 H   0  0  0  0  0  0  0  0  0  0  0  0
 22 24  2  0  0  0  0
 24 26  1  0  0  0  0
 25 26  2  0  0  0  0
 23 25  1  0  0  0  0
 21 22  1  0  0  0  0
 22 23  1  0  0  0  0
  1  3  1  0  0  0  0
  1  7  1  0  0  0  0
  1  2  2  0  0  0  0
 35 36  1  0  0  0  0
 36 44  1  0  0  0  0
 36 37  2  0  0  0  0
  8  9  1  0  0  0  0
  9 17  1  0  0  0  0
  9 10  2  0  0  0  0
 18 19  1  0  0  0  0
 19 34  1  0  0  0  0
 19 20  2  0  0  0  0
 35 38  1  0  0  0  0
  8 11  1  0  0  0  0
 44 45  1  0  0  0  0
 18 21  1  0  0  0  0
 34 35  1  0  0  0  0
  7  8  1  0  0  0  0
 17 18  1  0  0  0  0
 24 32  1  0  0  0  0
 25 33  1  0  0  0  0
  3  4  1  0  0  0  0
  3  5  1  0  0  0  0
  3  6  1  0  0  0  0
 38 41  1  0  0  0  0
 38 42  1  0  0  0  0
 38 43  1  0  0  0  0
 11 14  1  0  0  0  0
 11 15  1  0  0  0  0
 11 16  1  0  0  0  0
 45 47  1  0  0  0  0
 45 48  1  0  0  0  0
 45 49  1  0  0  0  0
 21 29  1  0  0  0  0
 21 30  1  0  0  0  0
 35 40  1  0  0  0  0
  8 13  1  0  0  0  0
 18 28  1  0  0  0  0
 23 31  1  0  0  0  0
 44 46  1  0  0  0  0
  7 12  1  0  0  0  0
 34 39  1  0  0  0  0
 17 27  1  0  0  0  0
M  END
$$$$

  -OEChem-05262214473D

 49 49  0     1  0  0  0  0  0999 V2000
   -1.5619    0.5658    3.7981 C   0  0  0  0  0  0  0  0  0  0  0  0
   -0.6145   -0.0489    3.3224 O   0  0  0  0  0  0  0  0  0  0  0  0
   -1.9938    0.2834    5.1988 C   0  0  0  0  0  0  0  0  0  0  0  0
   -2.7535   -0.5129    5.2522 H   0  0  0  0  0  0  0  0  0  0  0  0
   -1.1626   -0.0642    5.8331 H   0  0  0  0  0  0  0  0  0  0  0  0
   -2.4318    1.1383    5.7384 H   0  0  0  0  0  0  0  0  0  0  0  0
   -2.3116    1.5383    3.1570 N   0  0  0  0  0  0  0  0  0  0  0  0
   -2.0648    1.9643    1.8046 C   0  0  2  0  0  0  0  0  0  0  0  0
   -0.7298    1.3789    1.3634 C   0  0  0  0  0  0  0  0  0  0  0  0
    0.1423    1.0262    2.1547 O   0  0  0  0  0  0  0  0  0  0  0  0
   -2.0560    3.4811    1.6952 C   0  0  0  0  0  0  0  0  0  0  0  0
   -3.0767    1.9741    3.6688 H   0  0  0  0  0  0  0  0  0  0  0  0
   -2.8689    1.5458    1.1895 H   0  0  0  0  0  0  0  0  0  0  0  0
   -1.2569    3.9183    2.3049 H   0  0  0  0  0  0  0  0  0  0  0  0
   -1.8965    3.8033    0.6609 H   0  0  0  0  0  0  0  0  0  0  0  0
   -3.0062    3.9023    2.0409 H   0  0  0  0  0  0  0  0  0  0  0  0
   -0.6071    1.3358   -0.0200 N   0  0  0  0  0  0  0  0  0  0  0  0
    0.5702    0.8350   -0.6836 C   0  0  2  0  0  0  0  0  0  0  0  0
    0.0989   -0.0756   -1.8119 C   0  0  0  0  0  0  0  0  0  0  0  0
    0.7316   -1.0613   -2.1848 O   0  0  0  0  0  0  0  0  0  0  0  0
    1.4909    0.0670    0.2717 C   0  0  0  0  0  0  0  0  0  0  0  0
    2.0568    0.9403    1.3648 C   0  0  0  0  0  0  0  0  0  0  0  0
    3.0578    1.8441    1.1450 N   0  0  0  0  0  0  0  0  0  0  0  0
    1.7652    1.0564    2.7035 C   0  0  0  0  0  0  0  0  0  0  0  0
    3.3255    2.4571    2.3374 C   0  0  0  0  0  0  0  0  0  0  0  0
    2.5583    2.0025    3.3032 N   0  0  0  0  0  0  0  0  0  0  0  0
   -1.3903    1.6325   -0.5973 H   0  0  0  0  0  0  0  0  0  0  0  0
    1.0802    1.7050   -1.1139 H   0  0  0  0  0  0  0  0  0  0  0  0
    2.3112   -0.4038   -0.2869 H   0  0  0  0  0  0  0  0  0  0  0  0
    0.9485   -0.7640    0.7417 H   0  0  0  0  0  0  0  0  0  0  0  0
    3.5191    2.0273    0.2636 H   0  0  0  0  0  0  0  0  0  0  0  0
    1.0249    0.5080    3.2684 H   0  0  0  0  0  0  0  0  0  0  0  0
    4.0852    3.2198    2.4330 H   0  0  0  0  0  0  0  0  0  0  0  0
   -1.1336    0.3165   -2.3156 N   0  0  0  0  0  0  0  0  0  0  0  0
   -1.8182   -0.3882   -3.3756 C   0  0  2  0  0  0  0  0  0  0  0  0
   -0.8318   -0.5931   -4.5177 C   0  0  0  0  0  0  0  0  0  0  0  0
    0.1666    0.1065   -4.6754 O   0  0  0  0  0  0  0  0  0  0  0  0
   -3.0444    0.3778   -3.8472 C   0  0  0  0  0  0  0  0  0  0  0  0
   -1.5767    1.1402   -1.9194 H   0  0  0  0  0  0  0  0  0  0  0  0
   -2.1141   -1.3613   -2.9687 H   0  0  0  0  0  0  0  0  0  0  0  0
   -2.7677    1.3556   -4.2582 H   0  0  0  0  0  0  0  0  0  0  0  0
   -3.5780   -0.1709   -4.6304 H   0  0  0  0  0  0  0  0  0  0  0  0
   -3.7390    0.5502   -3.0180 H   0  0  0  0  0  0  0  0  0  0  0  0
   -1.2205   -1.6214   -5.3648 N   0  0  0  0  0  0  0  0  0  0  0  0
   -0.4571   -2.0022   -6.5302 C   0  0  0  0  0  0  0  0  0  0  0  0
   -2.0531   -2.1608   -5.1466 H   0  0  0  0  0  0  0  0  0  0  0  0
   -0.8317   -1.4566   -7.4089 H   0  0  0  0  0  0  0  0  0  0  0  0
    0.6030   -1.7560   -6.3705 H   0  0  0  0  0  0  0  0  0  0  0  0
   -0.5609   -3.0842   -6.6990 H   0  0  0  0  0  0  0  0  0  0  0  0
 22 24  2  0  0  0  0
 24 26  1  0  0  0  0
 25 26  2  0  0  0  0
 23 25  1  0  0  0  0
 21 22  1  0  0  0  0
 22 23  1  0  0  0  0
  1  3  1  0  0  0  0
  1  7  1  0  0  0  0
  1  2  2  0  0  0  0
 35 36  1  0  0  0  0
 36 44  1  0  0  0  0
 36 37  2  0  0  0  0
  8  9  1  0  0  0  0
  9 17  1  0  0  0  0
  9 10  2  0  0  0  0
 18 19  1  0  0  0  0
 19 34  1  0  0  0  0
 19 20  2  0  0  0  0
 35 38  1  0  0  0  0
  8 11  1  0  0  0  0
 44 45  1  0  0  0  0
 18 21  1  0  0  0  0
 34 35  1  0  0  0  0
  7  8  1  0  0  0  0
 17 18  1  0  0  0  0
 24 32  1  0  0  0  0
 25 33  1  0  0  0  0
  3  4  1  0  0  0  0
  3  5  1  0  0  0  0
  3  6  1  0  0  0  0
 38 41  1  0  0  0  0
 38 42  1  0  0  0  0
 38 43  1  0  0  0  0
 11 14  1  0  0  0  0
 11 15  1  0  0  0  0
 11 16  1  0  0  0  0
 45 47  1  0  0  0  0
 45 48  1  0  0  0  0
 45 49  1  0  0  0  0
 21 29  1  0  0  0  0
 21 30  1  0  0  0  0
 35 40  1  0  0  0  0
  8 13  1  0  0  0  0
 18 28  1  0  0  0  0
 23 31  1  0  0  0  0
 44 46  1  0  0  0  0
  7 12  1  0  0  0  0
 34 39  1  0  0  0  0
 17 27  1  0  0  0  0
M  END
$$$$

  -OEChem-05262214473D

 49 49  0     1  0  0  0  0  0999 V2000
   -1.5619    0.5658    3.7981 C   0  0  0  0  0  0  0  0  0  0  0  0
   -0.6145   -0.0489    3.3224 O   0  0  0  0  0  0  0  0  0  0  0  0
   -1.9938    0.2834    5.1988 C   0  0  0  0  0  0  0  0  0  0  0  0
   -2.7535   -0.5129    5.2522 H   0  0  0  0  0  0  0  0  0  0  0  0
   -1.1626   -0.0642    5.8331 H   0  0  0  0  0  0  0  0  0  0  0  0
   -2.4318    1.1383    5.7384 H   0  0  0  0  0  0  0  0  0  0  0  0
   -2.3116    1.5383    3.1570 N   0  0  0  0  0  0  0  0  0  0  0  0
   -2.0648    1.9643    1.8046 C   0  0  2  0  0  0  0  0  0  0  0  0
   -0.7298    1.3789    1.3634 C   0  0  0  0  0  0  0  0  0  0  0  0
    0.1423    1.0262    2.1547 O   0  0  0  0  0  0  0  0  0  0  0  0
   -2.0560    3.4811    1.6952 C   0  0  0  0  0  0  0  0  0  0  0  0
   -3.0767    1.9741    3.6688 H   0  0  0  0  0  0  0  0  0  0  0  0
   -2.8689    1.5458    1.1895 H   0  0  0  0  0  0  0  0  0  0  0  0
   -1.2569    3.9183    2.3049 H   0  0  0  0  0  0  0  0  0  0  0  0
   -1.8965    3.8033    0.6609 H   0  0  0  0  0  0  0  0  0  0  0  0
   -3.0062    3.9023    2.0409 H   0  0  0  0  0  0  0  0  0  0  0  0
   -0.6071    1.3358   -0.0200 N   0  0  0  0  0  0  0  0  0  0  0  0
    0.5702    0.8350   -0.6836 C   0  0  2  0  0  0  0  0  0  0  0  0
    0.0989   -0.0756   -1.8119 C   0  0  0  0  0  0  0  0  0  0  0  0
    0.5718   -1.1923   -2.0123 O   0  0  0  0  0  0  0  0  0  0  0  0
    1.4909    0.0670    0.2717 C   0  0  0  0  0  0  0  0  0  0  0  0
    2.0568    0.9403    1.3648 C   0  0  0  0  0  0  0  0  0  0  0  0
    3.0578    1.8441    1.1450 N   0  0  0  0  0  0  0  0  0  0  0  0
    1.7652    1.0564    2.7035 C   0  0  0  0  0  0  0  0  0  0  0  0
    3.3255    2.4571    2.3374 C   0  0  0  0  0  0  0  0  0  0  0  0
    2.5583    2.0025    3.3032 N   0  0  0  0  0  0  0  0  0  0  0  0
   -1.3903    1.6325   -0.5973 H   0  0  0  0  0  0  0  0  0  0  0  0
    1.0802    1.7050   -1.1139 H   0  0  0  0  0  0  0  0  0  0  0  0
    2.3112   -0.4038   -0.2869 H   0  0  0  0  0  0  0  0  0  0  0  0
    0.9485   -0.7640    0.7417 H   0  0  0  0  0  0  0  0  0  0  0  0
    3.5191    2.0273    0.2636 H   0  0  0  0  0  0  0  0  0  0  0  0
    1.0249    0.5080    3.2684 H   0  0  0  0  0  0  0  0  0  0  0  0
    4.0852    3.2198    2.4330 H   0  0  0  0  0  0  0  0  0  0  0  0
   -0.9441    0.4883   -2.5335 N   0  0  0  0  0  0  0  0  0  0  0  0
   -1.5914   -0.1748   -3.6425 C   0  0  2  0  0  0  0  0  0  0  0  0
   -0.5083   -0.6666   -4.5935 C   0  0  0  0  0  0  0  0  0  0  0  0
    0.6209   -0.1823   -4.6321 O   0  0  0  0  0  0  0  0  0  0  0  0
   -2.5591    0.7567   -4.3557 C   0  0  0  0  0  0  0  0  0  0  0  0
   -1.2687    1.4137   -2.2687 H   0  0  0  0  0  0  0  0  0  0  0  0
   -2.1304   -1.0331   -3.2268 H   0  0  0  0  0  0  0  0  0  0  0  0
   -2.0372    1.6227   -4.7789 H   0  0  0  0  0  0  0  0  0  0  0  0
   -3.0698    0.2444   -5.1778 H   0  0  0  0  0  0  0  0  0  0  0  0
   -3.3199    1.1329   -3.6633 H   0  0  0  0  0  0  0  0  0  0  0  0
   -0.9641   -1.6809   -5.4239 N   0  0  0  0  0  0  0  0  0  0  0  0
   -0.1285   -2.3055   -6.4227 C   0  0  0  0  0  0  0  0  0  0  0  0
   -1.9098   -2.0335   -5.3093 H   0  0  0  0  0  0  0  0  0  0  0  0
   -0.2547   -1.7861   -7.3841 H   0  0  0  0  0  0  0  0  0  0  0  0
    0.9242   -2.2459   -6.1093 H   0  0  0  0  0  0  0  0  0  0  0  0
   -0.4184   -3.3606   -6.5354 H   0  0  0  0  0  0  0  0  0  0  0  0
 22 24  2  0  0  0  0
 24 26  1  0  0  0  0
 25 26  2  0  0  0  0
 23 25  1  0  0  0  0
 21 22  1  0  0  0  0
 22 23  1  0  0  0  0
  1  3  1  0  0  0  0
  1  7  1  0  0  0  0
  1  2  2  0  0  0  0
 35 36  1  0  0  0  0
 36 44  1  0  0  0  0
 36 37  2  0  0  0  0
  8  9  1  0  0  0  0
  9 17  1  0  0  0  0
  9 10  2  0  0  0  0
 18 19  1  0  0  0  0
 19 34  1  0  0  0  0
 19 20  2  0  0  0  0
 35 38  1  0  0  0  0
  8 11  1  0  0  0  0
 44 45  1  0  0  0  0
 18 21  1  0  0  0  0
 34 35  1  0  0  0  0
  7  8  1  0  0  0  0
 17 18  1  0  0  0  0
 24 32  1  0  0  0  0
 25 33  1  0  0  0  0
  3  4  1  0  0  0  0
  3  5  1  0  0  0  0
  3  6  1  0  0  0  0
 38 41  1  0  0  0  0
 38 42  1  0  0  0  0
 38 43  1  0  0  0  0
 11 14  1  0  0  0  0
 11 15  1  0  0  0  0
 11 16  1  0  0  0  0
 45 47  1  0  0  0  0
 45 48  1  0  0  0  0
 45 49  1  0  0  0  0
 21 29  1  0  0  0  0
 21 30  1  0  0  0  0
 35 40  1  0  0  0  0
  8 13  1  0  0  0  0
 18 28  1  0  0  0  0
 23 31  1  0  0  0  0
 44 46  1  0  0  0  0
  7 12  1  0  0  0  0
 34 39  1  0  0  0  0
 17 27  1  0  0  0  0
M  END
$$$$

  -OEChem-05262214473D

 49 49  0     1  0  0  0  0  0999 V2000
   -1.5619    0.5658    3.7981 C   0  0  0  0  0  0  0  0  0  0  0  0
   -0.6145   -0.0489    3.3224 O   0  0  0  0  0  0  0  0  0  0  0  0
   -1.9938    0.2834    5.1988 C   0  0  0  0  0  0  0  0  0  0  0  0
   -2.7535   -0.5129    5.2522 H   0  0  0  0  0  0  0  0  0  0  0  0
   -1.1626   -0.0642    5.8331 H   0  0  0  0  0  0  0  0  0  0  0  0
   -2.4318    1.1383    5.7384 H   0  0  0  0  0  0  0  0  0  0  0  0
   -2.3116    1.5383    3.1570 N   0  0  0  0  0  0  0  0  0  0  0  0
   -2.0648    1.9643    1.8046 C   0  0  2  0  0  0  0  0  0  0  0  0
   -0.7298    1.3789    1.3634 C   0  0  0  0  0  0  0  0  0  0  0  0
    0.1423    1.0262    2.1547 O   0  0  0  0  0  0  0  0  0  0  0  0
   -2.0560    3.4811    1.6952 C   0  0  0  0  0  0  0  0  0  0  0  0
   -3.0767    1.9741    3.6688 H   0  0  0  0  0  0  0  0  0  0  0  0
   -2.8689    1.5458    1.1895 H   0  0  0  0  0  0  0  0  0  0  0  0
   -1.2569    3.9183    2.3049 H   0  0  0  0  0  0  0  0  0  0  0  0
   -1.8965    3.8033    0.6609 H   0  0  0  0  0  0  0  0  0  0  0  0
   -3.0062    3.9023    2.0409 H   0  0  0  0  0  0  0  0  0  0  0  0
   -0.6071    1.3358   -0.0200 N   0  0  0  0  0  0  0  0  0  0  0  0
    0.5702    0.8350   -0.6836 C   0  0  2  0  0  0  0  0  0  0  0  0
    0.0989   -0.0756   -1.8119 C   0  0  0  0  0  0  0  0  0  0  0  0
    0.3657   -1.2745   -1.8599 O   0  0  0  0  0  0  0  0  0  0  0  0
    1.4909    0.0670    0.2717 C   0  0  0  0  0  0  0  0  0  0  0  0
    2.0568    0.9403    1.3648 C   0  0  0  0  0  0  0  0  0  0  0  0
    3.0578    1.8441    1.1450 N   0  0  0  0  0  0  0  0  0  0  0  0
    1.7652    1.0564    2.7035 C   0  0  0  0  0  0  0  0  0  0  0  0
    3.3255    2.4571    2.3374 C   0  0  0  0  0  0  0  0  0  0  0  0
    2.5583    2.0025    3.3032 N   0  0  0  0  0  0  0  0  0  0  0  0
   -1.3903    1.6325   -0.5973 H   0  0  0  0  0  0  0  0  0  0  0  0
    1.0802    1.7050   -1.1139 H   0  0  0  0  0  0  0  0  0  0  0  0
    2.3112   -0.4038   -0.2869 H   0  0  0  0  0  0  0  0  0  0  0  0
    0.9485   -0.7640    0.7417 H   0  0  0  0  0  0  0  0  0  0  0  0
    3.5191    2.0273    0.2636 H   0  0  0  0  0  0  0  0  0  0  0  0
    1.0249    0.5080    3.2684 H   0  0  0  0  0  0  0  0  0  0  0  0
    4.0852    3.2198    2.4330 H   0  0  0  0  0  0  0  0  0  0  0  0
   -0.6944    0.6006   -2.7283 N   0  0  0  0  0  0  0  0  0  0  0  0
   -1.2902   -0.0335   -3.8823 C   0  0  2  0  0  0  0  0  0  0  0  0
   -0.1982   -0.8056   -4.6109 C   0  0  0  0  0  0  0  0  0  0  0  0
    0.9977   -0.5447   -4.4970 O   0  0  0  0  0  0  0  0  0  0  0  0
   -1.9391    0.9890   -4.8022 C   0  0  0  0  0  0  0  0  0  0  0  0
   -0.8649    1.5910   -2.5805 H   0  0  0  0  0  0  0  0  0  0  0  0
   -2.0435   -0.7336   -3.5048 H   0  0  0  0  0  0  0  0  0  0  0  0
   -1.1998    1.6992   -5.1903 H   0  0  0  0  0  0  0  0  0  0  0  0
   -2.4147    0.5045   -5.6613 H   0  0  0  0  0  0  0  0  0  0  0  0
   -2.7037    1.5637   -4.2684 H   0  0  0  0  0  0  0  0  0  0  0  0
   -0.7187   -1.7922   -5.4366 N   0  0  0  0  0  0  0  0  0  0  0  0
    0.1142   -2.6528   -6.2438 C   0  0  0  0  0  0  0  0  0  0  0  0
   -1.7219   -1.9509   -5.4544 H   0  0  0  0  0  0  0  0  0  0  0  0
    0.2358   -2.2128   -7.2445 H   0  0  0  0  0  0  0  0  0  0  0  0
    1.1002   -2.7597   -5.7681 H   0  0  0  0  0  0  0  0  0  0  0  0
   -0.3589   -3.6418   -6.3332 H   0  0  0  0  0  0  0  0  0  0  0  0
 22 24  2  0  0  0  0
 24 26  1  0  0  0  0
 25 26  2  0  0  0  0
 23 25  1  0  0  0  0
 21 22  1  0  0  0  0
 22 23  1  0  0  0  0
  1  3  1  0  0  0  0
  1  7  1  0  0  0  0
  1  2  2  0  0  0  0
 35 36  1  0  0  0  0
 36 44  1  0  0  0  0
 36 37  2  0  0  0  0
  8  9  1  0  0  0  0
  9 17  1  0  0  0  0
  9 10  2  0  0  0  0
 18 19  1  0  0  0  0
 19 34  1  0  0  0  0
 19 20  2  0  0  0  0
 35 38  1  0  0  0  0
  8 11  1  0  0  0  0
 44 45  1  0  0  0  0
 18 21  1  0  0  0  0
 34 35  1  0  0  0  0
  7  8  1  0  0  0  0
 17 18  1  0  0  0  0
 24 32  1  0  0  0  0
 25 33  1  0  0  0  0
  3  4  1  0  0  0  0
  3  5  1  0  0  0  0
  3  6  1  0  0  0  0
 38 41  1  0  0  0  0
 38 42  1  0  0  0  0
 38 43  1  0  0  0  0
 11 14  1  0  0  0  0
 11 15  1  0  0  0  0
 11 16  1  0  0  0  0
 45 47  1  0  0  0  0
 45 48  1  0  0  0  0
 45 49  1  0  0  0  0
 21 29  1  0  0  0  0
 21 30  1  0  0  0  0
 35 40  1  0  0  0  0
  8 13  1  0  0  0  0
 18 28  1  0  0  0  0
 23 31  1  0  0  0  0
 44 46  1  0  0  0  0
  7 12  1  0  0  0  0
 34 39  1  0  0  0  0
 17 27  1  0  0  0  0
M  END
$$$$

  -OEChem-05262214473D

 49 49  0     1  0  0  0  0  0999 V2000
   -1.5619    0.5658    3.7981 C   0  0  0  0  0  0  0  0  0  0  0  0
   -0.6145   -0.0489    3.3224 O   0  0  0  0  0  0  0  0  0  0  0  0
   -1.9938    0.2834    5.1988 C   0  0  0  0  0  0  0  0  0  0  0  0
   -2.7535   -0.5129    5.2522 H   0  0  0  0  0  0  0  0  0  0  0  0
   -1.1626   -0.0642    5.8331 H   0  0  0  0  0  0  0  0  0  0  0  0
   -2.4318    1.1383    5.7384 H   0  0  0  0  0  0  0  0  0  0  0  0
   -2.3116    1.5383    3.1570 N   0  0  0  0  0  0  0  0  0  0  0  0
   -2.0648    1.9643    1.8046 C   0  0  2  0  0  0  0  0  0  0  0  0
   -0.7298    1.3789    1.3634 C   0  0  0  0  0  0  0  0  0  0  0  0
    0.1423    1.0262    2.1547 O   0  0  0  0  0  0  0  0  0  0  0  0
   -2.0560    3.4811    1.6952 C   0  0  0  0  0  0  0  0  0  0  0  0
   -3.0767    1.9741    3.6688 H   0  0  0  0  0  0  0  0  0  0  0  0
   -2.8689    1.5458    1.1895 H   0  0  0  0  0  0  0  0  0  0  0  0
   -1.2569    3.9183    2.3049 H   0  0  0  0  0  0  0  0  0  0  0  0
   -1.8965    3.8033    0.6609 H   0  0  0  0  0  0  0  0  0  0  0  0
   -3.0062    3.9023    2.0409 H   0  0  0  0  0  0  0  0  0  0  0  0
   -0.6071    1.3358   -0.0200 N   0  0  0  0  0  0  0  0  0  0  0  0
    0.5702    0.8350   -0.6836 C   0  0  2  0  0  0  0  0  0  0  0  0
    0.0989   -0.0756   -1.8119 C   0  0  0  0  0  0  0  0  0  0  0  0
    0.1274   -1.3022   -1.7379 O   0  0  0  0  0  0  0  0  0  0  0  0
    1.4909    0.0670    0.2717 C   0  0  0  0  0  0  0  0  0  0  0  0
    2.0568    0.9403    1.3648 C   0  0  0  0  0  0  0  0  0  0  0  0
    3.0578    1.8441    1.1450 N   0  0  0  0  0  0  0  0  0  0  0  0
    1.7652    1.0564    2.7035 C   0  0  0  0  0  0  0  0  0  0  0  0
    3.3255    2.4571    2.3374 C   0  0  0  0  0  0  0  0  0  0  0  0
    2.5583    2.0025    3.3032 N   0  0  0  0  0  0  0  0  0  0  0  0
   -1.3903    1.6325   -0.5973 H   0  0  0  0  0  0  0  0  0  0  0  0
    1.0802    1.7050   -1.1139 H   0  0  0  0  0  0  0  0  0  0  0  0
    2.3112   -0.4038   -0.2869 H   0  0  0  0  0  0  0  0  0  0  0  0
    0.9485   -0.7640    0.7417 H   0  0  0  0  0  0  0  0  0  0  0  0
    3.5191    2.0273    0.2636 H   0  0  0  0  0  0  0  0  0  0  0  0
    1.0249    0.5080    3.2684 H   0  0  0  0  0  0  0  0  0  0  0  0
    4.0852    3.2198    2.4330 H   0  0  0  0  0  0  0  0  0  0  0  0
   -0.4017    0.6456   -2.8869 N   0  0  0  0  0  0  0  0  0  0  0  0
   -0.9352    0.0261   -4.0787 C   0  0  2  0  0  0  0  0  0  0  0  0
    0.0774   -1.0006   -4.5686 C   0  0  0  0  0  0  0  0  0  0  0  0
    1.2713   -0.9562   -4.2792 O   0  0  0  0  0  0  0  0  0  0  0  0
   -1.2267    1.0589   -5.1562 C   0  0  0  0  0  0  0  0  0  0  0  0
   -0.3927    1.6599   -2.8334 H   0  0  0  0  0  0  0  0  0  0  0  0
   -1.8591   -0.4833   -3.7839 H   0  0  0  0  0  0  0  0  0  0  0  0
   -0.3128    1.5797   -5.4644 H   0  0  0  0  0  0  0  0  0  0  0  0
   -1.6574    0.5915   -6.0478 H   0  0  0  0  0  0  0  0  0  0  0  0
   -1.9324    1.8134   -4.7921 H   0  0  0  0  0  0  0  0  0  0  0  0
   -0.5011   -1.9476   -5.4020 N   0  0  0  0  0  0  0  0  0  0  0  0
    0.2544   -3.0205   -6.0056 C   0  0  0  0  0  0  0  0  0  0  0  0
   -1.5021   -1.9188   -5.5722 H   0  0  0  0  0  0  0  0  0  0  0  0
    0.6062   -2.7077   -6.9998 H   0  0  0  0  0  0  0  0  0  0  0  0
    1.1191   -3.2625   -5.3702 H   0  0  0  0  0  0  0  0  0  0  0  0
   -0.3867   -3.9087   -6.1063 H   0  0  0  0  0  0  0  0  0  0  0  0
 22 24  2  0  0  0  0
 24 26  1  0  0  0  0
 25 26  2  0  0  0  0
 23 25  1  0  0  0  0
 21 22  1  0  0  0  0
 22 23  1  0  0  0  0
  1  3  1  0  0  0  0
  1  7  1  0  0  0  0
  1  2  2  0  0  0  0
 35 36  1  0  0  0  0
 36 44  1  0  0  0  0
 36 37  2  0  0  0  0
  8  9  1  0  0  0  0
  9 17  1  0  0  0  0
  9 10  2  0  0  0  0
 18 19  1  0  0  0  0
 19 34  1  0  0  0  0
 19 20  2  0  0  0  0
 35 38  1  0  0  0  0
  8 11  1  0  0  0  0
 44 45  1  0  0  0  0
 18 21  1  0  0  0  0
 34 35  1  0  0  0  0
  7  8  1  0  0  0  0
 17 18  1  0  0  0  0
 24 32  1  0  0  0  0
 25 33  1  0  0  0  0
  3  4  1  0  0  0  0
  3  5  1  0  0  0  0
  3  6  1  0  0  0  0
 38 41  1  0  0  0  0
 38 42  1  0  0  0  0
 38 43  1  0  0  0  0
 11 14  1  0  0  0  0
 11 15  1  0  0  0  0
 11 16  1  0  0  0  0
 45 47  1  0  0  0  0
 45 48  1  0  0  0  0
 45 49  1  0  0  0  0
 21 29  1  0  0  0  0
 21 30  1  0  0  0  0
 35 40  1  0  0  0  0
  8 13  1  0  0  0  0
 18 28  1  0  0  0  0
 23 31  1  0  0  0  0
 44 46  1  0  0  0  0
  7 12  1  0  0  0  0
 34 39  1  0  0  0  0
 17 27  1  0  0  0  0
M  END
$$$$

  -OEChem-05262214473D

 49 49  0     1  0  0  0  0  0999 V2000
   -1.5619    0.5658    3.7981 C   0  0  0  0  0  0  0  0  0  0  0  0
   -0.6145   -0.0489    3.3224 O   0  0  0  0  0  0  0  0  0  0  0  0
   -1.9938    0.2834    5.1988 C   0  0  0  0  0  0  0  0  0  0  0  0
   -2.7535   -0.5129    5.2522 H   0  0  0  0  0  0  0  0  0  0  0  0
   -1.1626   -0.0642    5.8331 H   0  0  0  0  0  0  0  0  0  0  0  0
   -2.4318    1.1383    5.7384 H   0  0  0  0  0  0  0  0  0  0  0  0
   -2.3116    1.5383    3.1570 N   0  0  0  0  0  0  0  0  0  0  0  0
   -2.0648    1.9643    1.8046 C   0  0  2  0  0  0  0  0  0  0  0  0
   -0.7298    1.3789    1.3634 C   0  0  0  0  0  0  0  0  0  0  0  0
    0.1423    1.0262    2.1547 O   0  0  0  0  0  0  0  0  0  0  0  0
   -2.0560    3.4811    1.6952 C   0  0  0  0  0  0  0  0  0  0  0  0
   -3.0767    1.9741    3.6688 H   0  0  0  0  0  0  0  0  0  0  0  0
   -2.8689    1.5458    1.1895 H   0  0  0  0  0  0  0  0  0  0  0  0
   -1.2569    3.9183    2.3049 H   0  0  0  0  0  0  0  0  0  0  0  0
   -1.8965    3.8033    0.6609 H   0  0  0  0  0  0  0  0  0  0  0  0
   -3.0062    3.9023    2.0409 H   0  0  0  0  0  0  0  0  0  0  0  0
   -0.6071    1.3358   -0.0200 N   0  0  0  0  0  0  0  0  0  0  0  0
    0.5702    0.8350   -0.6836 C   0  0  2  0  0  0  0  0  0  0  0  0
    0.0989   -0.0756   -1.8119 C   0  0  0  0  0  0  0  0  0  0  0  0
   -0.1271   -1.2735   -1.6548 O   0  0  0  0  0  0  0  0  0  0  0  0
    1.4909    0.0670    0.2717 C   0  0  0  0  0  0  0  0  0  0  0  0
    2.0568    0.9403    1.3648 C   0  0  0  0  0  0  0  0  0  0  0  0
    3.0578    1.8441    1.1450 N   0  0  0  0  0  0  0  0  0  0  0  0
    1.7652    1.0564    2.7035 C   0  0  0  0  0  0  0  0  0  0  0  0
    3.3255    2.4571    2.3374 C   0  0  0  0  0  0  0  0  0  0  0  0
    2.5583    2.0025    3.3032 N   0  0  0  0  0  0  0  0  0  0  0  0
   -1.3903    1.6325   -0.5973 H   0  0  0  0  0  0  0  0  0  0  0  0
    1.0802    1.7050   -1.1139 H   0  0  0  0  0  0  0  0  0  0  0  0
    2.3112   -0.4038   -0.2869 H   0  0  0  0  0  0  0  0  0  0  0  0
    0.9485   -0.7640    0.7417 H   0  0  0  0  0  0  0  0  0  0  0  0
    3.5191    2.0273    0.2636 H   0  0  0  0  0  0  0  0  0  0  0  0
    1.0249    0.5080    3.2684 H   0  0  0  0  0  0  0  0  0  0  0  0
    4.0852    3.2198    2.4330 H   0  0  0  0  0  0  0  0  0  0  0  0
   -0.0858    0.6204   -2.9985 N   0  0  0  0  0  0  0  0  0  0  0  0
   -0.5505   -0.0001   -4.2183 C   0  0  2  0  0  0  0  0  0  0  0  0
    0.2997   -1.2384   -4.4695 C   0  0  0  0  0  0  0  0  0  0  0  0
    1.4231   -1.3887   -3.9936 O   0  0  0  0  0  0  0  0  0  0  0  0
   -0.4705    0.9617   -5.3936 C   0  0  0  0  0  0  0  0  0  0  0  0
    0.1158    1.6159   -3.0102 H   0  0  0  0  0  0  0  0  0  0  0  0
   -1.5900   -0.2990   -4.0449 H   0  0  0  0  0  0  0  0  0  0  0  0
    0.5635    1.2724   -5.5825 H   0  0  0  0  0  0  0  0  0  0  0  0
   -0.8495    0.4995   -6.3110 H   0  0  0  0  0  0  0  0  0  0  0  0
   -1.0586    1.8650   -5.1987 H   0  0  0  0  0  0  0  0  0  0  0  0
   -0.3259   -2.1368   -5.3226 N   0  0  0  0  0  0  0  0  0  0  0  0
    0.2826   -3.3834   -5.7245 C   0  0  0  0  0  0  0  0  0  0  0  0
   -1.2654   -1.9392   -5.6545 H   0  0  0  0  0  0  0  0  0  0  0  0
    0.8314   -3.2372   -6.6665 H   0  0  0  0  0  0  0  0  0  0  0  0
    0.9795   -3.7199   -4.9427 H   0  0  0  0  0  0  0  0  0  0  0  0
   -0.4996   -4.1430   -5.8701 H   0  0  0  0  0  0  0  0  0  0  0  0
 22 24  2  0  0  0  0
 24 26  1  0  0  0  0
 25 26  2  0  0  0  0
 23 25  1  0  0  0  0
 21 22  1  0  0  0  0
 22 23  1  0  0  0  0
  1  3  1  0  0  0  0
  1  7  1  0  0  0  0
  1  2  2  0  0  0  0
 35 36  1  0  0  0  0
 36 44  1  0  0  0  0
 36 37  2  0  0  0  0
  8  9  1  0  0  0  0
  9 17  1  0  0  0  0
  9 10  2  0  0  0  0
 18 19  1  0  0  0  0
 19 34  1  0  0  0  0
 19 20  2  0  0  0  0
 35 38  1  0  0  0  0
  8 11  1  0  0  0  0
 44 45  1  0  0  0  0
 18 21  1  0  0  0  0
 34 35  1  0  0  0  0
  7  8  1  0  0  0  0
 17 18  1  0  0  0  0
 24 32  1  0  0  0  0
 25 33  1  0  0  0  0
  3  4  1  0  0  0  0
  3  5  1  0  0  0  0
  3  6  1  0  0  0  0
 38 41  1  0  0  0  0
 38 42  1  0  0  0  0
 38 43  1  0  0  0  0
 11 14  1  0  0  0  0
 11 15  1  0  0  0  0
 11 16  1  0  0  0  0
 45 47  1  0  0  0  0
 45 48  1  0  0  0  0
 45 49  1  0  0  0  0
 21 29  1  0  0  0  0
 21 30  1  0  0  0  0
 35 40  1  0  0  0  0
  8 13  1  0  0  0  0
 18 28  1  0  0  0  0
 23 31  1  0  0  0  0
 44 46  1  0  0  0  0
  7 12  1  0  0  0  0
 34 39  1  0  0  0  0
 17 27  1  0  0  0  0
M  END
$$$$

  -OEChem-05262214473D

 49 49  0     1  0  0  0  0  0999 V2000
   -1.5619    0.5658    3.7981 C   0  0  0  0  0  0  0  0  0  0  0  0
   -0.6145   -0.0489    3.3224 O   0  0  0  0  0  0  0  0  0  0  0  0
   -1.9938    0.2834    5.1988 C   0  0  0  0  0  0  0  0  0  0  0  0
   -2.7535   -0.5129    5.2522 H   0  0  0  0  0  0  0  0  0  0  0  0
   -1.1626   -0.0642    5.8331 H   0  0  0  0  0  0  0  0  0  0  0  0
   -2.4318    1.1383    5.7384 H   0  0  0  0  0  0  0  0  0  0  0  0
   -2.3116    1.5383    3.1570 N   0  0  0  0  0  0  0  0  0  0  0  0
   -2.0648    1.9643    1.8046 C   0  0  2  0  0  0  0  0  0  0  0  0
   -0.7298    1.3789    1.3634 C   0  0  0  0  0  0  0  0  0  0  0  0
    0.1423    1.0262    2.1547 O   0  0  0  0  0  0  0  0  0  0  0  0
   -2.0560    3.4811    1.6952 C   0  0  0  0  0  0  0  0  0  0  0  0
   -3.0767    1.9741    3.6688 H   0  0  0  0  0  0  0  0  0  0  0  0
   -2.8689    1.5458    1.1895 H   0  0  0  0  0  0  0  0  0  0  0  0
   -1.2569    3.9183    2.3049 H   0  0  0  0  0  0  0  0  0  0  0  0
   -1.8965    3.8033    0.6609 H   0  0  0  0  0  0  0  0  0  0  0  0
   -3.0062    3.9023    2.0409 H   0  0  0  0  0  0  0  0  0  0  0  0
   -0.6071    1.3358   -0.0200 N   0  0  0  0  0  0  0  0  0  0  0  0
    0.5702    0.8350   -0.6836 C   0  0  2  0  0  0  0  0  0  0  0  0
    0.0989   -0.0756   -1.8119 C   0  0  0  0  0  0  0  0  0  0  0  0
   -0.3802   -1.1905   -1.6161 O   0  0  0  0  0  0  0  0  0  0  0  0
    1.4909    0.0670    0.2717 C   0  0  0  0  0  0  0  0  0  0  0  0
    2.0568    0.9403    1.3648 C   0  0  0  0  0  0  0  0  0  0  0  0
    3.0578    1.8441    1.1450 N   0  0  0  0  0  0  0  0  0  0  0  0
    1.7652    1.0564    2.7035 C   0  0  0  0  0  0  0  0  0  0  0  0
    3.3255    2.4571    2.3374 C   0  0  0  0  0  0  0  0  0  0  0  0
    2.5583    2.0025    3.3032 N   0  0  0  0  0  0  0  0  0  0  0  0
   -1.3903    1.6325   -0.5973 H   0  0  0  0  0  0  0  0  0  0  0  0
    1.0802    1.7050   -1.1139 H   0  0  0  0  0  0  0  0  0  0  0  0
    2.3112   -0.4038   -0.2869 H   0  0  0  0  0  0  0  0  0  0  0  0
    0.9485   -0.7640    0.7417 H   0  0  0  0  0  0  0  0  0  0  0  0
    3.5191    2.0273    0.2636 H   0  0  0  0  0  0  0  0  0  0  0  0
    1.0249    0.5080    3.2684 H   0  0  0  0  0  0  0  0  0  0  0  0
    4.0852    3.2198    2.4330 H   0  0  0  0  0  0  0  0  0  0  0  0
    0.2318    0.5265   -3.0554 N   0  0  0  0  0  0  0  0  0  0  0  0
   -0.1623   -0.1102   -4.2916 C   0  0  2  0  0  0  0  0  0  0  0  0
    0.4536   -1.5028   -4.3204 C   0  0  0  0  0  0  0  0  0  0  0  0
    1.4428   -1.8126   -3.6597 O   0  0  0  0  0  0  0  0  0  0  0  0
    0.2780    0.7040   -5.4982 C   0  0  0  0  0  0  0  0  0  0  0  0
    0.6258    1.4618   -3.0988 H   0  0  0  0  0  0  0  0  0  0  0  0
   -1.2543   -0.1936   -4.2703 H   0  0  0  0  0  0  0  0  0  0  0  0
    1.3694    0.7984   -5.5364 H   0  0  0  0  0  0  0  0  0  0  0  0
   -0.0461    0.2349   -6.4330 H   0  0  0  0  0  0  0  0  0  0  0  0
   -0.1419    1.7150   -5.4605 H   0  0  0  0  0  0  0  0  0  0  0  0
   -0.2053   -2.3466   -5.2036 N   0  0  0  0  0  0  0  0  0  0  0  0
    0.1969   -3.7169   -5.4195 C   0  0  0  0  0  0  0  0  0  0  0  0
   -1.0280   -2.0110   -5.6958 H   0  0  0  0  0  0  0  0  0  0  0  0
    0.8960   -3.7651   -6.2674 H   0  0  0  0  0  0  0  0  0  0  0  0
    0.6910   -4.1008   -4.5148 H   0  0  0  0  0  0  0  0  0  0  0  0
   -0.6901   -4.3287   -5.6406 H   0  0  0  0  0  0  0  0  0  0  0  0
 22 24  2  0  0  0  0
 24 26  1  0  0  0  0
 25 26  2  0  0  0  0
 23 25  1  0  0  0  0
 21 22  1  0  0  0  0
 22 23  1  0  0  0  0
  1  3  1  0  0  0  0
  1  7  1  0  0  0  0
  1  2  2  0  0  0  0
 35 36  1  0  0  0  0
 36 44  1  0  0  0  0
 36 37  2  0  0  0  0
  8  9  1  0  0  0  0
  9 17  1  0  0  0  0
  9 10  2  0  0  0  0
 18 19  1  0  0  0  0
 19 34  1  0  0  0  0
 19 20  2  0  0  0  0
 35 38  1  0  0  0  0
  8 11  1  0  0  0  0
 44 45  1  0  0  0  0
 18 21  1  0  0  0  0
 34 35  1  0  0  0  0
  7  8  1  0  0  0  0
 17 18  1  0  0  0  0
 24 32  1  0  0  0  0
 25 33  1  0  0  0  0
  3  4  1  0  0  0  0
  3  5  1  0  0  0  0
  3  6  1  0  0  0  0
 38 41  1  0  0  0  0
 38 42  1  0  0  0  0
 38 43  1  0  0  0  0
 11 14  1  0  0  0  0
 11 15  1  0  0  0  0
 11 16  1  0  0  0  0
 45 47  1  0  0  0  0
 45 48  1  0  0  0  0
 45 49  1  0  0  0  0
 21 29  1  0  0  0  0
 21 30  1  0  0  0  0
 35 40  1  0  0  0  0
  8 13  1  0  0  0  0
 18 28  1  0  0  0  0
 23 31  1  0  0  0  0
 44 46  1  0  0  0  0
  7 12  1  0  0  0  0
 34 39  1  0  0  0  0
 17 27  1  0  0  0  0
M  END
$$$$

  -OEChem-05262214473D

 49 49  0     1  0  0  0  0  0999 V2000
   -1.5619    0.5658    3.7981 C   0  0  0  0  0  0  0  0  0  0  0  0
   -0.6145   -0.0489    3.3224 O   0  0  0  0  0  0  0  0  0  0  0  0
   -1.9938    0.2834    5.1988 C   0  0  0  0  0  0  0  0  0  0  0  0
   -2.7535   -0.5129    5.2522 H   0  0  0  0  0  0  0  0  0  0  0  0
   -1.1626   -0.0642    5.8331 H   0  0  0  0  0  0  0  0  0  0  0  0
   -2.4318    1.1383    5.7384 H   0  0  0  0  0  0  0  0  0  0  0  0
   -2.3116    1.5383    3.1570 N   0  0  0  0  0  0  0  0  0  0  0  0
   -2.0648    1.9643    1.8046 C   0  0  2  0  0  0  0  0  0  0  0  0
   -0.7298    1.3789    1.3634 C   0  0  0  0  0  0  0  0  0  0  0  0
    0.1423    1.0262    2.1547 O   0  0  0  0  0  0  0  0  0  0  0  0
   -2.0560    3.4811    1.6952 C   0  0  0  0  0  0  0  0  0  0  0  0
   -3.0767    1.9741    3.6688 H   0  0  0  0  0  0  0  0  0  0  0  0
   -2.8689    1.5458    1.1895 H   0  0  0  0  0  0  0  0  0  0  0  0
   -1.2569    3.9183    2.3049 H   0  0  0  0  0  0  0  0  0  0  0  0
   -1.8965    3.8033    0.6609 H   0  0  0  0  0  0  0  0  0  0  0  0
   -3.0062    3.9023    2.0409 H   0  0  0  0  0  0  0  0  0  0  0  0
   -0.6071    1.3358   -0.0200 N   0  0  0  0  0  0  0  0  0  0  0  0
    0.5702    0.8350   -0.6836 C   0  0  2  0  0  0  0  0  0  0  0  0
    0.0989   -0.0756   -1.8119 C   0  0  0  0  0  0  0  0  0  0  0  0
   -0.6147   -1.0587   -1.6245 O   0  0  0  0  0  0  0  0  0  0  0  0
    1.4909    0.0670    0.2717 C   0  0  0  0  0  0  0  0  0  0  0  0
    2.0568    0.9403    1.3648 C   0  0  0  0  0  0  0  0  0  0  0  0
    3.0578    1.8441    1.1450 N   0  0  0  0  0  0  0  0  0  0  0  0
    1.7652    1.0564    2.7035 C   0  0  0  0  0  0  0  0  0  0  0  0
    3.3255    2.4571    2.3374 C   0  0  0  0  0  0  0  0  0  0  0  0
    2.5583    2.0025    3.3032 N   0  0  0  0  0  0  0  0  0  0  0  0
   -1.3903    1.6325   -0.5973 H   0  0  0  0  0  0  0  0  0  0  0  0
    1.0802    1.7050   -1.1139 H   0  0  0  0  0  0  0  0  0  0  0  0
    2.3112   -0.4038   -0.2869 H   0  0  0  0  0  0  0  0  0  0  0  0
    0.9485   -0.7640    0.7417 H   0  0  0  0  0  0  0  0  0  0  0  0
    3.5191    2.0273    0.2636 H   0  0  0  0  0  0  0  0  0  0  0  0
    1.0249    0.5080    3.2684 H   0  0  0  0  0  0  0  0  0  0  0  0
    4.0852    3.2198    2.4330 H   0  0  0  0  0  0  0  0  0  0  0  0
    0.5293    0.3705   -3.0538 N   0  0  0  0  0  0  0  0  0  0  0  0
    0.2029   -0.2968   -4.2935 C   0  0  2  0  0  0  0  0  0  0  0  0
    0.5286   -1.7757   -4.1315 C   0  0  0  0  0  0  0  0  0  0  0  0
    1.3290   -2.1991   -3.3002 O   0  0  0  0  0  0  0  0  0  0  0  0
    0.9679    0.3033   -5.4629 C   0  0  0  0  0  0  0  0  0  0  0  0
    1.1026    1.2081   -3.0933 H   0  0  0  0  0  0  0  0  0  0  0  0
   -0.8751   -0.1740   -4.4445 H   0  0  0  0  0  0  0  0  0  0  0  0
    2.0499    0.1898   -5.3295 H   0  0  0  0  0  0  0  0  0  0  0  0
    0.6981   -0.1843   -6.4055 H   0  0  0  0  0  0  0  0  0  0  0  0
    0.7554    1.3735   -5.5596 H   0  0  0  0  0  0  0  0  0  0  0  0
   -0.1473   -2.5629   -5.0532 N   0  0  0  0  0  0  0  0  0  0  0  0
    0.0031   -3.9982   -5.1115 C   0  0  0  0  0  0  0  0  0  0  0  0
   -0.8060   -2.1290   -5.6932 H   0  0  0  0  0  0  0  0  0  0  0  0
    0.7955   -4.2555   -5.8297 H   0  0  0  0  0  0  0  0  0  0  0  0
    0.2731   -4.3792   -4.1156 H   0  0  0  0  0  0  0  0  0  0  0  0
   -0.9452   -4.4533   -5.4335 H   0  0  0  0  0  0  0  0  0  0  0  0
 22 24  2  0  0  0  0
 24 26  1  0  0  0  0
 25 26  2  0  0  0  0
 23 25  1  0  0  0  0
 21 22  1  0  0  0  0
 22 23  1  0  0  0  0
  1  3  1  0  0  0  0
  1  7  1  0  0  0  0
  1  2  2  0  0  0  0
 35 36  1  0  0  0  0
 36 44  1  0  0  0  0
 36 37  2  0  0  0  0
  8  9  1  0  0  0  0
  9 17  1  0  0  0  0
  9 10  2  0  0  0  0
 18 19  1  0  0  0  0
 19 34  1  0  0  0  0
 19 20  2  0  0  0  0
 35 38  1  0  0  0  0
  8 11  1  0  0  0  0
 44 45  1  0  0  0  0
 18 21  1  0  0  0  0
 34 35  1  0  0  0  0
  7  8  1  0  0  0  0
 17 18  1  0  0  0  0
 24 32  1  0  0  0  0
 25 33  1  0  0  0  0
  3  4  1  0  0  0  0
  3  5  1  0  0  0  0
  3  6  1  0  0  0  0
 38 41  1  0  0  0  0
 38 42  1  0  0  0  0
 38 43  1  0  0  0  0
 11 14  1  0  0  0  0
 11 15  1  0  0  0  0
 11 16  1  0  0  0  0
 45 47  1  0  0  0  0
 45 48  1  0  0  0  0
 45 49  1  0  0  0  0
 21 29  1  0  0  0  0
 21 30  1  0  0  0  0
 35 40  1  0  0  0  0
  8 13  1  0  0  0  0
 18 28  1  0  0  0  0
 23 31  1  0  0  0  0
 44 46  1  0  0  0  0
  7 12  1  0  0  0  0
 34 39  1  0  0  0  0
 17 27  1  0  0  0  0
M  END
$$$$

  -OEChem-05262214473D

 49 49  0     1  0  0  0  0  0999 V2000
   -1.5619    0.5658    3.7981 C   0  0  0  0  0  0  0  0  0  0  0  0
   -0.6145   -0.0489    3.3224 O   0  0  0  0  0  0  0  0  0  0  0  0
   -1.9938    0.2834    5.1988 C   0  0  0  0  0  0  0  0  0  0  0  0
   -2.7535   -0.5129    5.2522 H   0  0  0  0  0  0  0  0  0  0  0  0
   -1.1626   -0.0642    5.8331 H   0  0  0  0  0  0  0  0  0  0  0  0
   -2.4318    1.1383    5.7384 H   0  0  0  0  0  0  0  0  0  0  0  0
   -2.3116    1.5383    3.1570 N   0  0  0  0  0  0  0  0  0  0  0  0
   -2.0648    1.9643    1.8046 C   0  0  2  0  0  0  0  0  0  0  0  0
   -0.7298    1.3789    1.3634 C   0  0  0  0  0  0  0  0  0  0  0  0
    0.1423    1.0262    2.1547 O   0  0  0  0  0  0  0  0  0  0  0  0
   -2.0560    3.4811    1.6952 C   0  0  0  0  0  0  0  0  0  0  0  0
   -3.0767    1.9741    3.6688 H   0  0  0  0  0  0  0  0  0  0  0  0
   -2.8689    1.5458    1.1895 H   0  0  0  0  0  0  0  0  0  0  0  0
   -1.2569    3.9183    2.3049 H   0  0  0  0  0  0  0  0  0  0  0  0
   -1.8965    3.8033    0.6609 H   0  0  0  0  0  0  0  0  0  0  0  0
   -3.0062    3.9023    2.0409 H   0  0  0  0  0  0  0  0  0  0  0  0
   -0.6071    1.3358   -0.0200 N   0  0  0  0  0  0  0  0  0  0  0  0
    0.5702    0.8350   -0.6836 C   0  0  2  0  0  0  0  0  0  0  0  0
    0.0989   -0.0756   -1.8119 C   0  0  0  0  0  0  0  0  0  0  0  0
   -0.8147   -0.8871   -1.6794 O   0  0  0  0  0  0  0  0  0  0  0  0
    1.4909    0.0670    0.2717 C   0  0  0  0  0  0  0  0  0  0  0  0
    2.0568    0.9403    1.3648 C   0  0  0  0  0  0  0  0  0  0  0  0
    3.0578    1.8441    1.1450 N   0  0  0  0  0  0  0  0  0  0  0  0
    1.7652    1.0564    2.7035 C   0  0  0  0  0  0  0  0  0  0  0  0
    3.3255    2.4571    2.3374 C   0  0  0  0  0  0  0  0  0  0  0  0
    2.5583    2.0025    3.3032 N   0  0  0  0  0  0  0  0  0  0  0  0
   -1.3903    1.6325   -0.5973 H   0  0  0  0  0  0  0  0  0  0  0  0
    1.0802    1.7050   -1.1139 H   0  0  0  0  0  0  0  0  0  0  0  0
    2.3112   -0.4038   -0.2869 H   0  0  0  0  0  0  0  0  0  0  0  0
    0.9485   -0.7640    0.7417 H   0  0  0  0  0  0  0  0  0  0  0  0
    3.5191    2.0273    0.2636 H   0  0  0  0  0  0  0  0  0  0  0  0
    1.0249    0.5080    3.2684 H   0  0  0  0  0  0  0  0  0  0  0  0
    4.0852    3.2198    2.4330 H   0  0  0  0  0  0  0  0  0  0  0  0
    0.7866    0.1629   -2.9937 N   0  0  0  0  0  0  0  0  0  0  0  0
    0.5202   -0.5471   -4.2240 C   0  0  2  0  0  0  0  0  0  0  0  0
    0.5195   -2.0385   -3.9156 C   0  0  0  0  0  0  0  0  0  0  0  0
    1.0894   -2.5219   -2.9396 O   0  0  0  0  0  0  0  0  0  0  0  0
    1.5520   -0.2131   -5.2902 C   0  0  0  0  0  0  0  0  0  0  0  0
    1.5137    0.8722   -2.9939 H   0  0  0  0  0  0  0  0  0  0  0  0
   -0.4781   -0.2417   -4.5557 H   0  0  0  0  0  0  0  0  0  0  0  0
    2.5586   -0.5119   -4.9757 H   0  0  0  0  0  0  0  0  0  0  0  0
    1.3325   -0.7297   -6.2304 H   0  0  0  0  0  0  0  0  0  0  0  0
    1.5719    0.8638   -5.4894 H   0  0  0  0  0  0  0  0  0  0  0  0
   -0.1560   -2.7709   -4.8817 N   0  0  0  0  0  0  0  0  0  0  0  0
   -0.2857   -4.2081   -4.8215 C   0  0  0  0  0  0  0  0  0  0  0  0
   -0.6146   -2.2853   -5.6470 H   0  0  0  0  0  0  0  0  0  0  0  0
    0.5369   -4.6749   -5.3832 H   0  0  0  0  0  0  0  0  0  0  0  0
   -0.2455   -4.5361   -3.7723 H   0  0  0  0  0  0  0  0  0  0  0  0
   -1.2475   -4.5082   -5.2629 H   0  0  0  0  0  0  0  0  0  0  0  0
 22 24  2  0  0  0  0
 24 26  1  0  0  0  0
 25 26  2  0  0  0  0
 23 25  1  0  0  0  0
 21 22  1  0  0  0  0
 22 23  1  0  0  0  0
  1  3  1  0  0  0  0
  1  7  1  0  0  0  0
  1  2  2  0  0  0  0
 35 36  1  0  0  0  0
 36 44  1  0  0  0  0
 36 37  2  0  0  0  0
  8  9  1  0  0  0  0
  9 17  1  0  0  0  0
  9 10  2  0  0  0  0
 18 19  1  0  0  0  0
 19 34  1  0  0  0  0
 19 20  2  0  0  0  0
 35 38  1  0  0  0  0
  8 11  1  0  0  0  0
 44 45  1  0  0  0  0
 18 21  1  0  0  0  0
 34 35  1  0  0  0  0
  7  8  1  0  0  0  0
 17 18  1  0  0  0  0
 24 32  1  0  0  0  0
 25 33  1  0  0  0  0
  3  4  1  0  0  0  0
  3  5  1  0  0  0  0
  3  6  1  0  0  0  0
 38 41  1  0  0  0  0
 38 42  1  0  0  0  0
 38 43  1  0  0  0  0
 11 14  1  0  0  0  0
 11 15  1  0  0  0  0
 11 16  1  0  0  0  0
 45 47  1  0  0  0  0
 45 48  1  0  0  0  0
 45 49  1  0  0  0  0
 21 29  1  0  0  0  0
 21 30  1  0  0  0  0
 35 40  1  0  0  0  0
  8 13  1  0  0  0  0
 18 28  1  0  0  0  0
 23 31  1  0  0  0  0
 44 46  1  0  0  0  0
  7 12  1  0  0  0  0
 34 39  1  0  0  0  0
 17 27  1  0  0  0  0
M  END
$$$$

  -OEChem-05262214473D

 49 49  0     1  0  0  0  0  0999 V2000
   -1.5619    0.5658    3.7981 C   0  0  0  0  0  0  0  0  0  0  0  0
   -0.6145   -0.0489    3.3224 O   0  0  0  0  0  0  0  0  0  0  0  0
   -1.9938    0.2834    5.1988 C   0  0  0  0  0  0  0  0  0  0  0  0
   -2.7535   -0.5129    5.2522 H   0  0  0  0  0  0  0  0  0  0  0  0
   -1.1626   -0.0642    5.8331 H   0  0  0  0  0  0  0  0  0  0  0  0
   -2.4318    1.1383    5.7384 H   0  0  0  0  0  0  0  0  0  0  0  0
   -2.3116    1.5383    3.1570 N   0  0  0  0  0  0  0  0  0  0  0  0
   -2.0648    1.9643    1.8046 C   0  0  2  0  0  0  0  0  0  0  0  0
   -0.7298    1.3789    1.3634 C   0  0  0  0  0  0  0  0  0  0  0  0
    0.1423    1.0262    2.1547 O   0  0  0  0  0  0  0  0  0  0  0  0
   -2.0560    3.4811    1.6952 C   0  0  0  0  0  0  0  0  0  0  0  0
   -3.0767    1.9741    3.6688 H   0  0  0  0  0  0  0  0  0  0  0  0
   -2.8689    1.5458    1.1895 H   0  0  0  0  0  0  0  0  0  0  0  0
   -1.2569    3.9183    2.3049 H   0  0  0  0  0  0  0  0  0  0  0  0
   -1.8965    3.8033    0.6609 H   0  0  0  0  0  0  0  0  0  0  0  0
   -3.0062    3.9023    2.0409 H   0  0  0  0  0  0  0  0  0  0  0  0
   -0.6071    1.3358   -0.0200 N   0  0  0  0  0  0  0  0  0  0  0  0
    0.5702    0.8350   -0.6836 C   0  0  2  0  0  0  0  0  0  0  0  0
    0.0989   -0.0756   -1.8119 C   0  0  0  0  0  0  0  0  0  0  0  0
   -0.9666   -0.6875   -1.7771 O   0  0  0  0  0  0  0  0  0  0  0  0
    1.4909    0.0670    0.2717 C   0  0  0  0  0  0  0  0  0  0  0  0
    2.0568    0.9403    1.3648 C   0  0  0  0  0  0  0  0  0  0  0  0
    3.0578    1.8441    1.1450 N   0  0  0  0  0  0  0  0  0  0  0  0
    1.7652    1.0564    2.7035 C   0  0  0  0  0  0  0  0  0  0  0  0
    3.3255    2.4571    2.3374 C   0  0  0  0  0  0  0  0  0  0  0  0
    2.5583    2.0025    3.3032 N   0  0  0  0  0  0  0  0  0  0  0  0
   -1.3903    1.6325   -0.5973 H   0  0  0  0  0  0  0  0  0  0  0  0
    1.0802    1.7050   -1.1139 H   0  0  0  0  0  0  0  0  0  0  0  0
    2.3112   -0.4038   -0.2869 H   0  0  0  0  0  0  0  0  0  0  0  0
    0.9485   -0.7640    0.7417 H   0  0  0  0  0  0  0  0  0  0  0  0
    3.5191    2.0273    0.2636 H   0  0  0  0  0  0  0  0  0  0  0  0
    1.0249    0.5080    3.2684 H   0  0  0  0  0  0  0  0  0  0  0  0
    4.0852    3.2198    2.4330 H   0  0  0  0  0  0  0  0  0  0  0  0
    0.9861   -0.0820   -2.8793 N   0  0  0  0  0  0  0  0  0  0  0  0
    0.7681   -0.8441   -4.0878 C   0  0  2  0  0  0  0  0  0  0  0  0
    0.4270   -2.2734   -3.6874 C   0  0  0  0  0  0  0  0  0  0  0  0
    0.7404   -2.7590   -2.6025 O   0  0  0  0  0  0  0  0  0  0  0  0
    1.9906   -0.8099   -4.9917 C   0  0  0  0  0  0  0  0  0  0  0  0
    1.8311    0.4770   -2.8075 H   0  0  0  0  0  0  0  0  0  0  0  0
   -0.0904   -0.3919   -4.5963 H   0  0  0  0  0  0  0  0  0  0  0  0
    2.8609   -1.2587   -4.4992 H   0  0  0  0  0  0  0  0  0  0  0  0
    1.8137   -1.3639   -5.9195 H   0  0  0  0  0  0  0  0  0  0  0  0
    2.2522    0.2208   -5.2545 H   0  0  0  0  0  0  0  0  0  0  0  0
   -0.2307   -2.9565   -4.7008 N   0  0  0  0  0  0  0  0  0  0  0  0
   -0.6496   -4.3324   -4.5692 C   0  0  0  0  0  0  0  0  0  0  0  0
   -0.4668   -2.4693   -5.5602 H   0  0  0  0  0  0  0  0  0  0  0  0
    0.1378   -4.9947   -4.9584 H   0  0  0  0  0  0  0  0  0  0  0  0
   -0.8295   -4.5610   -3.5084 H   0  0  0  0  0  0  0  0  0  0  0  0
   -1.5763   -4.4897   -5.1405 H   0  0  0  0  0  0  0  0  0  0  0  0
 22 24  2  0  0  0  0
 24 26  1  0  0  0  0
 25 26  2  0  0  0  0
 23 25  1  0  0  0  0
 21 22  1  0  0  0  0
 22 23  1  0  0  0  0
  1  3  1  0  0  0  0
  1  7  1  0  0  0  0
  1  2  2  0  0  0  0
 35 36  1  0  0  0  0
 36 44  1  0  0  0  0
 36 37  2  0  0  0  0
  8  9  1  0  0  0  0
  9 17  1  0  0  0  0
  9 10  2  0  0  0  0
 18 19  1  0  0  0  0
 19 34  1  0  0  0  0
 19 20  2  0  0  0  0
 35 38  1  0  0  0  0
  8 11  1  0  0  0  0
 44 45  1  0  0  0  0
 18 21  1  0  0  0  0
 34 35  1  0  0  0  0
  7  8  1  0  0  0  0
 17 18  1  0  0  0  0
 24 32  1  0  0  0  0
 25 33  1  0  0  0  0
  3  4  1  0  0  0  0
  3  5  1  0  0  0  0
  3  6  1  0  0  0  0
 38 41  1  0  0  0  0
 38 42  1  0  0  0  0
 38 43  1  0  0  0  0
 11 14  1  0  0  0  0
 11 15  1  0  0  0  0
 11 16  1  0  0  0  0
 45 47  1  0  0  0  0
 45 48  1  0  0  0  0
 45 49  1  0  0  0  0
 21 29  1  0  0  0  0
 21 30  1  0  0  0  0
 35 40  1  0  0  0  0
  8 13  1  0  0  0  0
 18 28  1  0  0  0  0
 23 31  1  0  0  0  0
 44 46  1  0  0  0  0
  7 12  1  0  0  0  0
 34 39  1  0  0  0  0
 17 27  1  0  0  0  0
M  END
$$$$

  -OEChem-05262214473D

 49 49  0     1  0  0  0  0  0999 V2000
   -1.5619    0.5658    3.7981 C   0  0  0  0  0  0  0  0  0  0  0  0
   -0.6145   -0.0489    3.3224 O   0  0  0  0  0  0  0  0  0  0  0  0
   -1.9938    0.2834    5.1988 C   0  0  0  0  0  0  0  0  0  0  0  0
   -2.7535   -0.5129    5.2522 H   0  0  0  0  0  0  0  0  0  0  0  0
   -1.1626   -0.0642    5.8331 H   0  0  0  0  0  0  0  0  0  0  0  0
   -2.4318    1.1383    5.7384 H   0  0  0  0  0  0  0  0  0  0  0  0
   -2.3116    1.5383    3.1570 N   0  0  0  0  0  0  0  0  0  0  0  0
   -2.0648    1.9643    1.8046 C   0  0  2  0  0  0  0  0  0  0  0  0
   -0.7298    1.3789    1.3634 C   0  0  0  0  0  0  0  0  0  0  0  0
    0.1423    1.0262    2.1547 O   0  0  0  0  0  0  0  0  0  0  0  0
   -2.0560    3.4811    1.6952 C   0  0  0  0  0  0  0  0  0  0  0  0
   -3.0767    1.9741    3.6688 H   0  0  0  0  0  0  0  0  0  0  0  0
   -2.8689    1.5458    1.1895 H   0  0  0  0  0  0  0  0  0  0  0  0
   -1.2569    3.9183    2.3049 H   0  0  0  0  0  0  0  0  0  0  0  0
   -1.8965    3.8033    0.6609 H   0  0  0  0  0  0  0  0  0  0  0  0
   -3.0062    3.9023    2.0409 H   0  0  0  0  0  0  0  0  0  0  0  0
   -0.6071    1.3358   -0.0200 N   0  0  0  0  0  0  0  0  0  0  0  0
    0.5702    0.8350   -0.6836 C   0  0  2  0  0  0  0  0  0  0  0  0
    0.0989   -0.0756   -1.8119 C   0  0  0  0  0  0  0  0  0  0  0  0
   -1.0599   -0.4734   -1.9110 O   0  0  0  0  0  0  0  0  0  0  0  0
    1.4909    0.0670    0.2717 C   0  0  0  0  0  0  0  0  0  0  0  0
    2.0568    0.9403    1.3648 C   0  0  0  0  0  0  0  0  0  0  0  0
    3.0578    1.8441    1.1450 N   0  0  0  0  0  0  0  0  0  0  0  0
    1.7652    1.0564    2.7035 C   0  0  0  0  0  0  0  0  0  0  0  0
    3.3255    2.4571    2.3374 C   0  0  0  0  0  0  0  0  0  0  0  0
    2.5583    2.0025    3.3032 N   0  0  0  0  0  0  0  0  0  0  0  0
   -1.3903    1.6325   -0.5973 H   0  0  0  0  0  0  0  0  0  0  0  0
    1.0802    1.7050   -1.1139 H   0  0  0  0  0  0  0  0  0  0  0  0
    2.3112   -0.4038   -0.2869 H   0  0  0  0  0  0  0  0  0  0  0  0
    0.9485   -0.7640    0.7417 H   0  0  0  0  0  0  0  0  0  0  0  0
    3.5191    2.0273    0.2636 H   0  0  0  0  0  0  0  0  0  0  0  0
    1.0249    0.5080    3.2684 H   0  0  0  0  0  0  0  0  0  0  0  0
    4.0852    3.2198    2.4330 H   0  0  0  0  0  0  0  0  0  0  0  0
    1.1142   -0.3477   -2.7184 N   0  0  0  0  0  0  0  0  0  0  0  0
    0.9295   -1.1676   -3.8942 C   0  0  2  0  0  0  0  0  0  0  0  0
    0.2574   -2.4643   -3.4625 C   0  0  0  0  0  0  0  0  0  0  0  0
    0.3058   -2.8942   -2.3119 O   0  0  0  0  0  0  0  0  0  0  0  0
    2.2538   -1.4465   -4.5878 C   0  0  0  0  0  0  0  0  0  0  0  0
    2.0332    0.0494   -2.5468 H   0  0  0  0  0  0  0  0  0  0  0  0
    0.2615   -0.6146   -4.5636 H   0  0  0  0  0  0  0  0  0  0  0  0
    2.9362   -1.9999   -3.9324 H   0  0  0  0  0  0  0  0  0  0  0  0
    2.1089   -2.0438   -5.4941 H   0  0  0  0  0  0  0  0  0  0  0  0
    2.7498   -0.5119   -4.8710 H   0  0  0  0  0  0  0  0  0  0  0  0
   -0.3665   -3.1069   -4.5227 N   0  0  0  0  0  0  0  0  0  0  0  0
   -1.0639   -4.3626   -4.3718 C   0  0  0  0  0  0  0  0  0  0  0  0
   -0.3727   -2.6684   -5.4389 H   0  0  0  0  0  0  0  0  0  0  0  0
   -0.3747   -5.1932   -4.5841 H   0  0  0  0  0  0  0  0  0  0  0  0
   -1.4393   -4.4519   -3.3417 H   0  0  0  0  0  0  0  0  0  0  0  0
   -1.9094   -4.3990   -5.0746 H   0  0  0  0  0  0  0  0  0  0  0  0
 22 24  2  0  0  0  0
 24 26  1  0  0  0  0
 25 26  2  0  0  0  0
 23 25  1  0  0  0  0
 21 22  1  0  0  0  0
 22 23  1  0  0  0  0
  1  3  1  0  0  0  0
  1  7  1  0  0  0  0
  1  2  2  0  0  0  0
 35 36  1  0  0  0  0
 36 44  1  0  0  0  0
 36 37  2  0  0  0  0
  8  9  1  0  0  0  0
  9 17  1  0  0  0  0
  9 10  2  0  0  0  0
 18 19  1  0  0  0  0
 19 34  1  0  0  0  0
 19 20  2  0  0  0  0
 35 38  1  0  0  0  0
  8 11  1  0  0  0  0
 44 45  1  0  0  0  0
 18 21  1  0  0  0  0
 34 35  1  0  0  0  0
  7  8  1  0  0  0  0
 17 18  1  0  0  0  0
 24 32  1  0  0  0  0
 25 33  1  0  0  0  0
  3  4  1  0  0  0  0
  3  5  1  0  0  0  0
  3  6  1  0  0  0  0
 38 41  1  0  0  0  0
 38 42  1  0  0  0  0
 38 43  1  0  0  0  0
 11 14  1  0  0  0  0
 11 15  1  0  0  0  0
 11 16  1  0  0  0  0
 45 47  1  0  0  0  0
 45 48  1  0  0  0  0
 45 49  1  0  0  0  0
 21 29  1  0  0  0  0
 21 30  1  0  0  0  0
 35 40  1  0  0  0  0
  8 13  1  0  0  0  0
 18 28  1  0  0  0  0
 23 31  1  0  0  0  0
 44 46  1  0  0  0  0
  7 12  1  0  0  0  0
 34 39  1  0  0  0  0
 17 27  1  0  0  0  0
M  END
$$$$

  -OEChem-05262214473D

 49 49  0     1  0  0  0  0  0999 V2000
   -1.5619    0.5658    3.7981 C   0  0  0  0  0  0  0  0  0  0  0  0
   -0.6145   -0.0489    3.3224 O   0  0  0  0  0  0  0  0  0  0  0  0
   -1.9938    0.2834    5.1988 C   0  0  0  0  0  0  0  0  0  0  0  0
   -2.7535   -0.5129    5.2522 H   0  0  0  0  0  0  0  0  0  0  0  0
   -1.1626   -0.0642    5.8331 H   0  0  0  0  0  0  0  0  0  0  0  0
   -2.4318    1.1383    5.7384 H   0  0  0  0  0  0  0  0  0  0  0  0
   -2.3116    1.5383    3.1570 N   0  0  0  0  0  0  0  0  0  0  0  0
   -2.0648    1.9643    1.8046 C   0  0  2  0  0  0  0  0  0  0  0  0
   -0.7298    1.3789    1.3634 C   0  0  0  0  0  0  0  0  0  0  0  0
    0.1423    1.0262    2.1547 O   0  0  0  0  0  0  0  0  0  0  0  0
   -2.0560    3.4811    1.6952 C   0  0  0  0  0  0  0  0  0  0  0  0
   -3.0767    1.9741    3.6688 H   0  0  0  0  0  0  0  0  0  0  0  0
   -2.8689    1.5458    1.1895 H   0  0  0  0  0  0  0  0  0  0  0  0
   -1.2569    3.9183    2.3049 H   0  0  0  0  0  0  0  0  0  0  0  0
   -1.8965    3.8033    0.6609 H   0  0  0  0  0  0  0  0  0  0  0  0
   -3.0062    3.9023    2.0409 H   0  0  0  0  0  0  0  0  0  0  0  0
   -0.6071    1.3358   -0.0200 N   0  0  0  0  0  0  0  0  0  0  0  0
    0.5702    0.8350   -0.6836 C   0  0  2  0  0  0  0  0  0  0  0  0
    0.1205    0.2448   -2.0154 C   0  0  0  0  0  0  0  0  0  0  0  0
   -1.0468    0.2730   -2.3997 O   0  0  0  0  0  0  0  0  0  0  0  0
    1.2982   -0.2254    0.1505 C   0  0  0  0  0  0  0  0  0  0  0  0
    1.8410    0.3237    1.4473 C   0  0  0  0  0  0  0  0  0  0  0  0
    2.9522    1.1166    1.5066 N   0  0  0  0  0  0  0  0  0  0  0  0
    1.4279    0.1982    2.7527 C   0  0  0  0  0  0  0  0  0  0  0  0
    3.1615    1.4313    2.8206 C   0  0  0  0  0  0  0  0  0  0  0  0
    2.2540    0.8902    3.6026 N   0  0  0  0  0  0  0  0  0  0  0  0
   -1.3903    1.6325   -0.5973 H   0  0  0  0  0  0  0  0  0  0  0  0
    1.2138    1.7018   -0.8743 H   0  0  0  0  0  0  0  0  0  0  0  0
    2.1150   -0.6727   -0.4320 H   0  0  0  0  0  0  0  0  0  0  0  0
    0.6227   -1.0585    0.3858 H   0  0  0  0  0  0  0  0  0  0  0  0
    3.5189    1.4165    0.7241 H   0  0  0  0  0  0  0  0  0  0  0  0
    0.5779   -0.3548    3.1264 H   0  0  0  0  0  0  0  0  0  0  0  0
    3.9863    2.0536    3.1376 H   0  0  0  0  0  0  0  0  0  0  0  0
    1.1854   -0.2702   -2.7416 N   0  0  0  0  0  0  0  0  0  0  0  0
    1.0389   -0.8679   -4.0492 C   0  0  2  0  0  0  0  0  0  0  0  0
   -0.0832   -1.8949   -3.9739 C   0  0  0  0  0  0  0  0  0  0  0  0
   -0.4430   -2.4194   -2.9220 O   0  0  0  0  0  0  0  0  0  0  0  0
    2.3362   -1.5133   -4.5111 C   0  0  0  0  0  0  0  0  0  0  0  0
    2.1144   -0.2247   -2.3333 H   0  0  0  0  0  0  0  0  0  0  0  0
    0.7526   -0.0629   -4.7347 H   0  0  0  0  0  0  0  0  0  0  0  0
    2.6391   -2.3224   -3.8364 H   0  0  0  0  0  0  0  0  0  0  0  0
    2.2318   -1.9407   -5.5138 H   0  0  0  0  0  0  0  0  0  0  0  0
    3.1491   -0.7796   -4.5361 H   0  0  0  0  0  0  0  0  0  0  0  0
   -0.6066   -2.1887   -5.2252 N   0  0  0  0  0  0  0  0  0  0  0  0
   -1.6732   -3.1430   -5.4197 C   0  0  0  0  0  0  0  0  0  0  0  0
   -0.2606   -1.6919   -6.0408 H   0  0  0  0  0  0  0  0  0  0  0  0
   -1.2452   -4.1345   -5.6288 H   0  0  0  0  0  0  0  0  0  0  0  0
   -2.2896   -3.1942   -4.5101 H   0  0  0  0  0  0  0  0  0  0  0  0
   -2.2976   -2.8269   -6.2684 H   0  0  0  0  0  0  0  0  0  0  0  0
 22 24  2  0  0  0  0
 24 26  1  0  0  0  0
 25 26  2  0  0  0  0
 23 25  1  0  0  0  0
 21 22  1  0  0  0  0
 22 23  1  0  0  0  0
  1  3  1  0  0  0  0
  1  7  1  0  0  0  0
  1  2  2  0  0  0  0
 35 36  1  0  0  0  0
 36 44  1  0  0  0  0
 36 37  2  0  0  0  0
  8  9  1  0  0  0  0
  9 17  1  0  0  0  0
  9 10  2  0  0  0  0
 18 19  1  0  0  0  0
 19 34  1  0  0  0  0
 19 20  2  0  0  0  0
 35 38  1  0  0  0  0
  8 11  1  0  0  0  0
 44 45  1  0  0  0  0
 18 21  1  0  0  0  0
 34 35  1  0  0  0  0
  7  8  1  0  0  0  0
 17 18  1  0  0  0  0
 24 32  1  0  0  0  0
 25 33  1  0  0  0  0
  3  4  1  0  0  0  0
  3  5  1  0  0  0  0
  3  6  1  0  0  0  0
 38 41  1  0  0  0  0
 38 42  1  0  0  0  0
 38 43  1  0  0  0  0
 11 14  1  0  0  0  0
 11 15  1  0  0  0  0
 11 16  1  0  0  0  0
 45 47  1  0  0  0  0
 45 48  1  0  0  0  0
 45 49  1  0  0  0  0
 21 29  1  0  0  0  0
 21 30  1  0  0  0  0
 35 40  1  0  0  0  0
  8 13  1  0  0  0  0
 18 28  1  0  0  0  0
 23 31  1  0  0  0  0
 44 46  1  0  0  0  0
  7 12  1  0  0  0  0
 34 39  1  0  0  0  0
 17 27  1  0  0  0  0
M  END
$$$$

  -OEChem-05262214473D

 49 49  0     1  0  0  0  0  0999 V2000
   -1.5619    0.5658    3.7981 C   0  0  0  0  0  0  0  0  0  0  0  0
   -0.6145   -0.0489    3.3224 O   0  0  0  0  0  0  0  0  0  0  0  0
   -1.9938    0.2834    5.1988 C   0  0  0  0  0  0  0  0  0  0  0  0
   -2.7535   -0.5129    5.2522 H   0  0  0  0  0  0  0  0  0  0  0  0
   -1.1626   -0.0642    5.8331 H   0  0  0  0  0  0  0  0  0  0  0  0
   -2.4318    1.1383    5.7384 H   0  0  0  0  0  0  0  0  0  0  0  0
   -2.3116    1.5383    3.1570 N   0  0  0  0  0  0  0  0  0  0  0  0
   -2.0648    1.9643    1.8046 C   0  0  2  0  0  0  0  0  0  0  0  0
   -0.7298    1.3789    1.3634 C   0  0  0  0  0  0  0  0  0  0  0  0
    0.1423    1.0262    2.1547 O   0  0  0  0  0  0  0  0  0  0  0  0
   -2.0560    3.4811    1.6952 C   0  0  0  0  0  0  0  0  0  0  0  0
   -3.0767    1.9741    3.6688 H   0  0  0  0  0  0  0  0  0  0  0  0
   -2.8689    1.5458    1.1895 H   0  0  0  0  0  0  0  0  0  0  0  0
   -1.2569    3.9183    2.3049 H   0  0  0  0  0  0  0  0  0  0  0  0
   -1.8965    3.8033    0.6609 H   0  0  0  0  0  0  0  0  0  0  0  0
   -3.0062    3.9023    2.0409 H   0  0  0  0  0  0  0  0  0  0  0  0
   -0.6071    1.3358   -0.0200 N   0  0  0  0  0  0  0  0  0  0  0  0
    0.5702    0.8350   -0.6836 C   0  0  2  0  0  0  0  0  0  0  0  0
    0.1205    0.2448   -2.0154 C   0  0  0  0  0  0  0  0  0  0  0  0
   -0.9688    0.4977   -2.5257 O   0  0  0  0  0  0  0  0  0  0  0  0
    1.2982   -0.2254    0.1505 C   0  0  0  0  0  0  0  0  0  0  0  0
    1.8410    0.3237    1.4473 C   0  0  0  0  0  0  0  0  0  0  0  0
    2.9522    1.1166    1.5066 N   0  0  0  0  0  0  0  0  0  0  0  0
    1.4279    0.1982    2.7527 C   0  0  0  0  0  0  0  0  0  0  0  0
    3.1615    1.4313    2.8206 C   0  0  0  0  0  0  0  0  0  0  0  0
    2.2540    0.8902    3.6026 N   0  0  0  0  0  0  0  0  0  0  0  0
   -1.3903    1.6325   -0.5973 H   0  0  0  0  0  0  0  0  0  0  0  0
    1.2138    1.7018   -0.8743 H   0  0  0  0  0  0  0  0  0  0  0  0
    2.1150   -0.6727   -0.4320 H   0  0  0  0  0  0  0  0  0  0  0  0
    0.6227   -1.0585    0.3858 H   0  0  0  0  0  0  0  0  0  0  0  0
    3.5189    1.4165    0.7241 H   0  0  0  0  0  0  0  0  0  0  0  0
    0.5779   -0.3548    3.1264 H   0  0  0  0  0  0  0  0  0  0  0  0
    3.9863    2.0536    3.1376 H   0  0  0  0  0  0  0  0  0  0  0  0
    1.1002   -0.5557   -2.5863 N   0  0  0  0  0  0  0  0  0  0  0  0
    0.9403   -1.2185   -3.8606 C   0  0  2  0  0  0  0  0  0  0  0  0
   -0.3900   -1.9597   -3.8416 C   0  0  0  0  0  0  0  0  0  0  0  0
   -0.9553   -2.2967   -2.8034 O   0  0  0  0  0  0  0  0  0  0  0  0
    2.0911   -2.1740   -4.1355 C   0  0  0  0  0  0  0  0  0  0  0  0
    1.9734   -0.6820   -2.0831 H   0  0  0  0  0  0  0  0  0  0  0  0
    0.9107   -0.4334   -4.6239 H   0  0  0  0  0  0  0  0  0  0  0  0
    2.1368   -2.9677   -3.3809 H   0  0  0  0  0  0  0  0  0  0  0  0
    1.9832   -2.6539   -5.1138 H   0  0  0  0  0  0  0  0  0  0  0  0
    3.0498   -1.6444   -4.1193 H   0  0  0  0  0  0  0  0  0  0  0  0
   -0.8503   -2.2387   -5.1208 N   0  0  0  0  0  0  0  0  0  0  0  0
   -2.0853   -2.9454   -5.3681 C   0  0  0  0  0  0  0  0  0  0  0  0
   -0.3262   -1.9048   -5.9243 H   0  0  0  0  0  0  0  0  0  0  0  0
   -1.8796   -4.0217   -5.4646 H   0  0  0  0  0  0  0  0  0  0  0  0
   -2.7775   -2.7782   -4.5297 H   0  0  0  0  0  0  0  0  0  0  0  0
   -2.5400   -2.5743   -6.2985 H   0  0  0  0  0  0  0  0  0  0  0  0
 22 24  2  0  0  0  0
 24 26  1  0  0  0  0
 25 26  2  0  0  0  0
 23 25  1  0  0  0  0
 21 22  1  0  0  0  0
 22 23  1  0  0  0  0
  1  3  1  0  0  0  0
  1  7  1  0  0  0  0
  1  2  2  0  0  0  0
 35 36  1  0  0  0  0
 36 44  1  0  0  0  0
 36 37  2  0  0  0  0
  8  9  1  0  0  0  0
  9 17  1  0  0  0  0
  9 10  2  0  0  0  0
 18 19  1  0  0  0  0
 19 34  1  0  0  0  0
 19 20  2  0  0  0  0
 35 38  1  0  0  0  0
  8 11  1  0  0  0  0
 44 45  1  0  0  0  0
 18 21  1  0  0  0  0
 34 35  1  0  0  0  0
  7  8  1  0  0  0  0
 17 18  1  0  0  0  0
 24 32  1  0  0  0  0
 25 33  1  0  0  0  0
  3  4  1  0  0  0  0
  3  5  1  0  0  0  0
  3  6  1  0  0  0  0
 38 41  1  0  0  0  0
 38 42  1  0  0  0  0
 38 43  1  0  0  0  0
 11 14  1  0  0  0  0
 11 15  1  0  0  0  0
 11 16  1  0  0  0  0
 45 47  1  0  0  0  0
 45 48  1  0  0  0  0
 45 49  1  0  0  0  0
 21 29  1  0  0  0  0
 21 30  1  0  0  0  0
 35 40  1  0  0  0  0
  8 13  1  0  0  0  0
 18 28  1  0  0  0  0
 23 31  1  0  0  0  0
 44 46  1  0  0  0  0
  7 12  1  0  0  0  0
 34 39  1  0  0  0  0
 17 27  1  0  0  0  0
M  END
$$$$

  -OEChem-05262214473D

 49 49  0     1  0  0  0  0  0999 V2000
   -1.5619    0.5658    3.7981 C   0  0  0  0  0  0  0  0  0  0  0  0
   -0.6145   -0.0489    3.3224 O   0  0  0  0  0  0  0  0  0  0  0  0
   -1.9938    0.2834    5.1988 C   0  0  0  0  0  0  0  0  0  0  0  0
   -2.7535   -0.5129    5.2522 H   0  0  0  0  0  0  0  0  0  0  0  0
   -1.1626   -0.0642    5.8331 H   0  0  0  0  0  0  0  0  0  0  0  0
   -2.4318    1.1383    5.7384 H   0  0  0  0  0  0  0  0  0  0  0  0
   -2.3116    1.5383    3.1570 N   0  0  0  0  0  0  0  0  0  0  0  0
   -2.0648    1.9643    1.8046 C   0  0  2  0  0  0  0  0  0  0  0  0
   -0.7298    1.3789    1.3634 C   0  0  0  0  0  0  0  0  0  0  0  0
    0.1423    1.0262    2.1547 O   0  0  0  0  0  0  0  0  0  0  0  0
   -2.0560    3.4811    1.6952 C   0  0  0  0  0  0  0  0  0  0  0  0
   -3.0767    1.9741    3.6688 H   0  0  0  0  0  0  0  0  0  0  0  0
   -2.8689    1.5458    1.1895 H   0  0  0  0  0  0  0  0  0  0  0  0
   -1.2569    3.9183    2.3049 H   0  0  0  0  0  0  0  0  0  0  0  0
   -1.8965    3.8033    0.6609 H   0  0  0  0  0  0  0  0  0  0  0  0
   -3.0062    3.9023    2.0409 H   0  0  0  0  0  0  0  0  0  0  0  0
   -0.6071    1.3358   -0.0200 N   0  0  0  0  0  0  0  0  0  0  0  0
    0.5702    0.8350   -0.6836 C   0  0  2  0  0  0  0  0  0  0  0  0
    0.1205    0.2448   -2.0154 C   0  0  0  0  0  0  0  0  0  0  0  0
   -0.8301    0.6876   -2.6566 O   0  0  0  0  0  0  0  0  0  0  0  0
    1.2982   -0.2254    0.1505 C   0  0  0  0  0  0  0  0  0  0  0  0
    1.8410    0.3237    1.4473 C   0  0  0  0  0  0  0  0  0  0  0  0
    2.9522    1.1166    1.5066 N   0  0  0  0  0  0  0  0  0  0  0  0
    1.4279    0.1982    2.7527 C   0  0  0  0  0  0  0  0  0  0  0  0
    3.1615    1.4313    2.8206 C   0  0  0  0  0  0  0  0  0  0  0  0
    2.2540    0.8902    3.6026 N   0  0  0  0  0  0  0  0  0  0  0  0
   -1.3903    1.6325   -0.5973 H   0  0  0  0  0  0  0  0  0  0  0  0
    1.2138    1.7018   -0.8743 H   0  0  0  0  0  0  0  0  0  0  0  0
    2.1150   -0.6727   -0.4320 H   0  0  0  0  0  0  0  0  0  0  0  0
    0.6227   -1.0585    0.3858 H   0  0  0  0  0  0  0  0  0  0  0  0
    3.5189    1.4165    0.7241 H   0  0  0  0  0  0  0  0  0  0  0  0
    0.5779   -0.3548    3.1264 H   0  0  0  0  0  0  0  0  0  0  0  0
    3.9863    2.0536    3.1376 H   0  0  0  0  0  0  0  0  0  0  0  0
    0.9378   -0.8003   -2.4230 N   0  0  0  0  0  0  0  0  0  0  0  0
    0.7470   -1.5204   -3.6615 C   0  0  2  0  0  0  0  0  0  0  0  0
   -0.7142   -1.9429   -3.7396 C   0  0  0  0  0  0  0  0  0  0  0  0
   -1.4343   -2.0533   -2.7495 O   0  0  0  0  0  0  0  0  0  0  0  0
    1.6673   -2.7281   -3.7468 C   0  0  0  0  0  0  0  0  0  0  0  0
    1.7088   -1.0729   -1.8205 H   0  0  0  0  0  0  0  0  0  0  0  0
    0.9687   -0.8185   -4.4728 H   0  0  0  0  0  0  0  0  0  0  0  0
    1.4601   -3.4426   -2.9419 H   0  0  0  0  0  0  0  0  0  0  0  0
    1.5419   -3.2561   -4.6979 H   0  0  0  0  0  0  0  0  0  0  0  0
    2.7165   -2.4254   -3.6606 H   0  0  0  0  0  0  0  0  0  0  0  0
   -1.1074   -2.2239   -5.0406 N   0  0  0  0  0  0  0  0  0  0  0  0
   -2.4439   -2.6575   -5.3747 C   0  0  0  0  0  0  0  0  0  0  0  0
   -0.4493   -2.0868   -5.8021 H   0  0  0  0  0  0  0  0  0  0  0  0
   -2.4833   -3.7567   -5.3782 H   0  0  0  0  0  0  0  0  0  0  0  0
   -3.1527   -2.2677   -4.6293 H   0  0  0  0  0  0  0  0  0  0  0  0
   -2.7140   -2.2779   -6.3711 H   0  0  0  0  0  0  0  0  0  0  0  0
 22 24  2  0  0  0  0
 24 26  1  0  0  0  0
 25 26  2  0  0  0  0
 23 25  1  0  0  0  0
 21 22  1  0  0  0  0
 22 23  1  0  0  0  0
  1  3  1  0  0  0  0
  1  7  1  0  0  0  0
  1  2  2  0  0  0  0
 35 36  1  0  0  0  0
 36 44  1  0  0  0  0
 36 37  2  0  0  0  0
  8  9  1  0  0  0  0
  9 17  1  0  0  0  0
  9 10  2  0  0  0  0
 18 19  1  0  0  0  0
 19 34  1  0  0  0  0
 19 20  2  0  0  0  0
 35 38  1  0  0  0  0
  8 11  1  0  0  0  0
 44 45  1  0  0  0  0
 18 21  1  0  0  0  0
 34 35  1  0  0  0  0
  7  8  1  0  0  0  0
 17 18  1  0  0  0  0
 24 32  1  0  0  0  0
 25 33  1  0  0  0  0
  3  4  1  0  0  0  0
  3  5  1  0  0  0  0
  3  6  1  0  0  0  0
 38 41  1  0  0  0  0
 38 42  1  0  0  0  0
 38 43  1  0  0  0  0
 11 14  1  0  0  0  0
 11 15  1  0  0  0  0
 11 16  1  0  0  0  0
 45 47  1  0  0  0  0
 45 48  1  0  0  0  0
 45 49  1  0  0  0  0
 21 29  1  0  0  0  0
 21 30  1  0  0  0  0
 35 40  1  0  0  0  0
  8 13  1  0  0  0  0
 18 28  1  0  0  0  0
 23 31  1  0  0  0  0
 44 46  1  0  0  0  0
  7 12  1  0  0  0  0
 34 39  1  0  0  0  0
 17 27  1  0  0  0  0
M  END
$$$$

  -OEChem-05262214473D

 49 49  0     1  0  0  0  0  0999 V2000
   -1.5619    0.5658    3.7981 C   0  0  0  0  0  0  0  0  0  0  0  0
   -0.6145   -0.0489    3.3224 O   0  0  0  0  0  0  0  0  0  0  0  0
   -1.9938    0.2834    5.1988 C   0  0  0  0  0  0  0  0  0  0  0  0
   -2.7535   -0.5129    5.2522 H   0  0  0  0  0  0  0  0  0  0  0  0
   -1.1626   -0.0642    5.8331 H   0  0  0  0  0  0  0  0  0  0  0  0
   -2.4318    1.1383    5.7384 H   0  0  0  0  0  0  0  0  0  0  0  0
   -2.3116    1.5383    3.1570 N   0  0  0  0  0  0  0  0  0  0  0  0
   -2.0648    1.9643    1.8046 C   0  0  2  0  0  0  0  0  0  0  0  0
   -0.7298    1.3789    1.3634 C   0  0  0  0  0  0  0  0  0  0  0  0
    0.1423    1.0262    2.1547 O   0  0  0  0  0  0  0  0  0  0  0  0
   -2.0560    3.4811    1.6952 C   0  0  0  0  0  0  0  0  0  0  0  0
   -3.0767    1.9741    3.6688 H   0  0  0  0  0  0  0  0  0  0  0  0
   -2.8689    1.5458    1.1895 H   0  0  0  0  0  0  0  0  0  0  0  0
   -1.2569    3.9183    2.3049 H   0  0  0  0  0  0  0  0  0  0  0  0
   -1.8965    3.8033    0.6609 H   0  0  0  0  0  0  0  0  0  0  0  0
   -3.0062    3.9023    2.0409 H   0  0  0  0  0  0  0  0  0  0  0  0
   -0.6071    1.3358   -0.0200 N   0  0  0  0  0  0  0  0  0  0  0  0
    0.5702    0.8350   -0.6836 C   0  0  2  0  0  0  0  0  0  0  0  0
    0.1205    0.2448   -2.0154 C   0  0  0  0  0  0  0  0  0  0  0  0
   -0.6401    0.8297   -2.7838 O   0  0  0  0  0  0  0  0  0  0  0  0
    1.2982   -0.2254    0.1505 C   0  0  0  0  0  0  0  0  0  0  0  0
    1.8410    0.3237    1.4473 C   0  0  0  0  0  0  0  0  0  0  0  0
    2.9522    1.1166    1.5066 N   0  0  0  0  0  0  0  0  0  0  0  0
    1.4279    0.1982    2.7527 C   0  0  0  0  0  0  0  0  0  0  0  0
    3.1615    1.4313    2.8206 C   0  0  0  0  0  0  0  0  0  0  0  0
    2.2540    0.8902    3.6026 N   0  0  0  0  0  0  0  0  0  0  0  0
   -1.3903    1.6325   -0.5973 H   0  0  0  0  0  0  0  0  0  0  0  0
    1.2138    1.7018   -0.8743 H   0  0  0  0  0  0  0  0  0  0  0  0
    2.1150   -0.6727   -0.4320 H   0  0  0  0  0  0  0  0  0  0  0  0
    0.6227   -1.0585    0.3858 H   0  0  0  0  0  0  0  0  0  0  0  0
    3.5189    1.4165    0.7241 H   0  0  0  0  0  0  0  0  0  0  0  0
    0.5779   -0.3548    3.1264 H   0  0  0  0  0  0  0  0  0  0  0  0
    3.9863    2.0536    3.1376 H   0  0  0  0  0  0  0  0  0  0  0  0
    0.7092   -0.9875   -2.2629 N   0  0  0  0  0  0  0  0  0  0  0  0
    0.4720   -1.7531   -3.4655 C   0  0  2  0  0  0  0  0  0  0  0  0
   -1.0337   -1.8456   -3.6748 C   0  0  0  0  0  0  0  0  0  0  0  0
   -1.8474   -1.7057   -2.7641 O   0  0  0  0  0  0  0  0  0  0  0  0
    1.0937   -3.1378   -3.3716 C   0  0  0  0  0  0  0  0  0  0  0  0
    1.3385   -1.3705   -1.5636 H   0  0  0  0  0  0  0  0  0  0  0  0
    0.9224   -1.1921   -4.2916 H   0  0  0  0  0  0  0  0  0  0  0  0
    0.6550   -3.7149   -2.5494 H   0  0  0  0  0  0  0  0  0  0  0  0
    0.9377   -3.7062   -4.2944 H   0  0  0  0  0  0  0  0  0  0  0  0
    2.1720   -3.0695   -3.1913 H   0  0  0  0  0  0  0  0  0  0  0  0
   -1.3604   -2.1454   -4.9899 N   0  0  0  0  0  0  0  0  0  0  0  0
   -2.7245   -2.2987   -5.4389 C   0  0  0  0  0  0  0  0  0  0  0  0
   -0.6217   -2.2253   -5.6825 H   0  0  0  0  0  0  0  0  0  0  0  0
   -3.0152   -3.3577   -5.3754 H   0  0  0  0  0  0  0  0  0  0  0  0
   -3.3898   -1.6972   -4.8020 H   0  0  0  0  0  0  0  0  0  0  0  0
   -2.8079   -1.9577   -6.4814 H   0  0  0  0  0  0  0  0  0  0  0  0
 22 24  2  0  0  0  0
 24 26  1  0  0  0  0
 25 26  2  0  0  0  0
 23 25  1  0  0  0  0
 21 22  1  0  0  0  0
 22 23  1  0  0  0  0
  1  3  1  0  0  0  0
  1  7  1  0  0  0  0
  1  2  2  0  0  0  0
 35 36  1  0  0  0  0
 36 44  1  0  0  0  0
 36 37  2  0  0  0  0
  8  9  1  0  0  0  0
  9 17  1  0  0  0  0
  9 10  2  0  0  0  0
 18 19  1  0  0  0  0
 19 34  1  0  0  0  0
 19 20  2  0  0  0  0
 35 38  1  0  0  0  0
  8 11  1  0  0  0  0
 44 45  1  0  0  0  0
 18 21  1  0  0  0  0
 34 35  1  0  0  0  0
  7  8  1  0  0  0  0
 17 18  1  0  0  0  0
 24 32  1  0  0  0  0
 25 33  1  0  0  0  0
  3  4  1  0  0  0  0
  3  5  1  0  0  0  0
  3  6  1  0  0  0  0
 38 41  1  0  0  0  0
 38 42  1  0  0  0  0
 38 43  1  0  0  0  0
 11 14  1  0  0  0  0
 11 15  1  0  0  0  0
 11 16  1  0  0  0  0
 45 47  1  0  0  0  0
 45 48  1  0  0  0  0
 45 49  1  0  0  0  0
 21 29  1  0  0  0  0
 21 30  1  0  0  0  0
 35 40  1  0  0  0  0
  8 13  1  0  0  0  0
 18 28  1  0  0  0  0
 23 31  1  0  0  0  0
 44 46  1  0  0  0  0
  7 12  1  0  0  0  0
 34 39  1  0  0  0  0
 17 27  1  0  0  0  0
M  END
$$$$

  -OEChem-05262214473D

 49 49  0     1  0  0  0  0  0999 V2000
   -1.5619    0.5658    3.7981 C   0  0  0  0  0  0  0  0  0  0  0  0
   -0.6145   -0.0489    3.3224 O   0  0  0  0  0  0  0  0  0  0  0  0
   -1.9938    0.2834    5.1988 C   0  0  0  0  0  0  0  0  0  0  0  0
   -2.7535   -0.5129    5.2522 H   0  0  0  0  0  0  0  0  0  0  0  0
   -1.1626   -0.0642    5.8331 H   0  0  0  0  0  0  0  0  0  0  0  0
   -2.4318    1.1383    5.7384 H   0  0  0  0  0  0  0  0  0  0  0  0
   -2.3116    1.5383    3.1570 N   0  0  0  0  0  0  0  0  0  0  0  0
   -2.0648    1.9643    1.8046 C   0  0  2  0  0  0  0  0  0  0  0  0
   -0.7298    1.3789    1.3634 C   0  0  0  0  0  0  0  0  0  0  0  0
    0.1423    1.0262    2.1547 O   0  0  0  0  0  0  0  0  0  0  0  0
   -2.0560    3.4811    1.6952 C   0  0  0  0  0  0  0  0  0  0  0  0
   -3.0767    1.9741    3.6688 H   0  0  0  0  0  0  0  0  0  0  0  0
   -2.8689    1.5458    1.1895 H   0  0  0  0  0  0  0  0  0  0  0  0
   -1.2569    3.9183    2.3049 H   0  0  0  0  0  0  0  0  0  0  0  0
   -1.8965    3.8033    0.6609 H   0  0  0  0  0  0  0  0  0  0  0  0
   -3.0062    3.9023    2.0409 H   0  0  0  0  0  0  0  0  0  0  0  0
   -0.6071    1.3358   -0.0200 N   0  0  0  0  0  0  0  0  0  0  0  0
    0.5702    0.8350   -0.6836 C   0  0  2  0  0  0  0  0  0  0  0  0
    0.1205    0.2448   -2.0154 C   0  0  0  0  0  0  0  0  0  0  0  0
   -0.4117    0.9142   -2.8984 O   0  0  0  0  0  0  0  0  0  0  0  0
    1.2982   -0.2254    0.1505 C   0  0  0  0  0  0  0  0  0  0  0  0
    1.8410    0.3237    1.4473 C   0  0  0  0  0  0  0  0  0  0  0  0
    2.9522    1.1166    1.5066 N   0  0  0  0  0  0  0  0  0  0  0  0
    1.4279    0.1982    2.7527 C   0  0  0  0  0  0  0  0  0  0  0  0
    3.1615    1.4313    2.8206 C   0  0  0  0  0  0  0  0  0  0  0  0
    2.2540    0.8902    3.6026 N   0  0  0  0  0  0  0  0  0  0  0  0
   -1.3903    1.6325   -0.5973 H   0  0  0  0  0  0  0  0  0  0  0  0
    1.2138    1.7018   -0.8743 H   0  0  0  0  0  0  0  0  0  0  0  0
    2.1150   -0.6727   -0.4320 H   0  0  0  0  0  0  0  0  0  0  0  0
    0.6227   -1.0585    0.3858 H   0  0  0  0  0  0  0  0  0  0  0  0
    3.5189    1.4165    0.7241 H   0  0  0  0  0  0  0  0  0  0  0  0
    0.5779   -0.3548    3.1264 H   0  0  0  0  0  0  0  0  0  0  0  0
    3.9863    2.0536    3.1376 H   0  0  0  0  0  0  0  0  0  0  0  0
    0.4301   -1.1044   -2.1169 N   0  0  0  0  0  0  0  0  0  0  0  0
    0.1341   -1.9008   -3.2860 C   0  0  2  0  0  0  0  0  0  0  0  0
   -1.3269   -1.6744   -3.6517 C   0  0  0  0  0  0  0  0  0  0  0  0
   -2.1663   -1.2777   -2.8460 O   0  0  0  0  0  0  0  0  0  0  0  0
    0.4095   -3.3752   -3.0353 C   0  0  0  0  0  0  0  0  0  0  0  0
    0.8878   -1.5547   -1.3298 H   0  0  0  0  0  0  0  0  0  0  0  0
    0.7750   -1.5287   -4.0927 H   0  0  0  0  0  0  0  0  0  0  0  0
   -0.2235   -3.7659   -2.2301 H   0  0  0  0  0  0  0  0  0  0  0  0
    0.2119   -3.9736   -3.9308 H   0  0  0  0  0  0  0  0  0  0  0  0
    1.4534   -3.5326   -2.7434 H   0  0  0  0  0  0  0  0  0  0  0  0
   -1.5921   -2.0085   -4.9724 N   0  0  0  0  0  0  0  0  0  0  0  0
   -2.9080   -1.8937   -5.5564 C   0  0  0  0  0  0  0  0  0  0  0  0
   -0.8314   -2.3111   -5.5737 H   0  0  0  0  0  0  0  0  0  0  0  0
   -3.4390   -2.8519   -5.4564 H   0  0  0  0  0  0  0  0  0  0  0  0
   -3.4725   -1.1058   -5.0362 H   0  0  0  0  0  0  0  0  0  0  0  0
   -2.8150   -1.6356   -6.6217 H   0  0  0  0  0  0  0  0  0  0  0  0
 22 24  2  0  0  0  0
 24 26  1  0  0  0  0
 25 26  2  0  0  0  0
 23 25  1  0  0  0  0
 21 22  1  0  0  0  0
 22 23  1  0  0  0  0
  1  3  1  0  0  0  0
  1  7  1  0  0  0  0
  1  2  2  0  0  0  0
 35 36  1  0  0  0  0
 36 44  1  0  0  0  0
 36 37  2  0  0  0  0
  8  9  1  0  0  0  0
  9 17  1  0  0  0  0
  9 10  2  0  0  0  0
 18 19  1  0  0  0  0
 19 34  1  0  0  0  0
 19 20  2  0  0  0  0
 35 38  1  0  0  0  0
  8 11  1  0  0  0  0
 44 45  1  0  0  0  0
 18 21  1  0  0  0  0
 34 35  1  0  0  0  0
  7  8  1  0  0  0  0
 17 18  1  0  0  0  0
 24 32  1  0  0  0  0
 25 33  1  0  0  0  0
  3  4  1  0  0  0  0
  3  5  1  0  0  0  0
  3  6  1  0  0  0  0
 38 41  1  0  0  0  0
 38 42  1  0  0  0  0
 38 43  1  0  0  0  0
 11 14  1  0  0  0  0
 11 15  1  0  0  0  0
 11 16  1  0  0  0  0
 45 47  1  0  0  0  0
 45 48  1  0  0  0  0
 45 49  1  0  0  0  0
 21 29  1  0  0  0  0
 21 30  1  0  0  0  0
 35 40  1  0  0  0  0
  8 13  1  0  0  0  0
 18 28  1  0  0  0  0
 23 31  1  0  0  0  0
 44 46  1  0  0  0  0
  7 12  1  0  0  0  0
 34 39  1  0  0  0  0
 17 27  1  0  0  0  0
M  END
$$$$

  -OEChem-05262214473D

 49 49  0     1  0  0  0  0  0999 V2000
   -1.5619    0.5658    3.7981 C   0  0  0  0  0  0  0  0  0  0  0  0
   -0.6145   -0.0489    3.3224 O   0  0  0  0  0  0  0  0  0  0  0  0
   -1.9938    0.2834    5.1988 C   0  0  0  0  0  0  0  0  0  0  0  0
   -2.7535   -0.5129    5.2522 H   0  0  0  0  0  0  0  0  0  0  0  0
   -1.1626   -0.0642    5.8331 H   0  0  0  0  0  0  0  0  0  0  0  0
   -2.4318    1.1383    5.7384 H   0  0  0  0  0  0  0  0  0  0  0  0
   -2.3116    1.5383    3.1570 N   0  0  0  0  0  0  0  0  0  0  0  0
   -2.0648    1.9643    1.8046 C   0  0  2  0  0  0  0  0  0  0  0  0
   -0.7298    1.3789    1.3634 C   0  0  0  0  0  0  0  0  0  0  0  0
    0.1423    1.0262    2.1547 O   0  0  0  0  0  0  0  0  0  0  0  0
   -2.0560    3.4811    1.6952 C   0  0  0  0  0  0  0  0  0  0  0  0
   -3.0767    1.9741    3.6688 H   0  0  0  0  0  0  0  0  0  0  0  0
   -2.8689    1.5458    1.1895 H   0  0  0  0  0  0  0  0  0  0  0  0
   -1.2569    3.9183    2.3049 H   0  0  0  0  0  0  0  0  0  0  0  0
   -1.8965    3.8033    0.6609 H   0  0  0  0  0  0  0  0  0  0  0  0
   -3.0062    3.9023    2.0409 H   0  0  0  0  0  0  0  0  0  0  0  0
   -0.6071    1.3358   -0.0200 N   0  0  0  0  0  0  0  0  0  0  0  0
    0.5702    0.8350   -0.6836 C   0  0  2  0  0  0  0  0  0  0  0  0
    0.1205    0.2448   -2.0154 C   0  0  0  0  0  0  0  0  0  0  0  0
   -0.1605    0.9355   -2.9926 O   0  0  0  0  0  0  0  0  0  0  0  0
    1.2982   -0.2254    0.1505 C   0  0  0  0  0  0  0  0  0  0  0  0
    1.8410    0.3237    1.4473 C   0  0  0  0  0  0  0  0  0  0  0  0
    2.9522    1.1166    1.5066 N   0  0  0  0  0  0  0  0  0  0  0  0
    1.4279    0.1982    2.7527 C   0  0  0  0  0  0  0  0  0  0  0  0
    3.1615    1.4313    2.8206 C   0  0  0  0  0  0  0  0  0  0  0  0
    2.2540    0.8902    3.6026 N   0  0  0  0  0  0  0  0  0  0  0  0
   -1.3903    1.6325   -0.5973 H   0  0  0  0  0  0  0  0  0  0  0  0
    1.2138    1.7018   -0.8743 H   0  0  0  0  0  0  0  0  0  0  0  0
    2.1150   -0.6727   -0.4320 H   0  0  0  0  0  0  0  0  0  0  0  0
    0.6227   -1.0585    0.3858 H   0  0  0  0  0  0  0  0  0  0  0  0
    3.5189    1.4165    0.7241 H   0  0  0  0  0  0  0  0  0  0  0  0
    0.5779   -0.3548    3.1264 H   0  0  0  0  0  0  0  0  0  0  0  0
    3.9863    2.0536    3.1376 H   0  0  0  0  0  0  0  0  0  0  0  0
    0.1195   -1.1430   -1.9948 N   0  0  0  0  0  0  0  0  0  0  0  0
   -0.2436   -1.9533   -3.1352 C   0  0  2  0  0  0  0  0  0  0  0  0
   -1.5737   -1.4409   -3.6718 C   0  0  0  0  0  0  0  0  0  0  0  0
   -2.3694   -0.7985   -2.9898 O   0  0  0  0  0  0  0  0  0  0  0  0
   -0.3389   -3.4242   -2.7609 C   0  0  0  0  0  0  0  0  0  0  0  0
    0.3874   -1.6128   -1.1350 H   0  0  0  0  0  0  0  0  0  0  0  0
    0.5367   -1.8053   -3.8896 H   0  0  0  0  0  0  0  0  0  0  0  0
   -1.1156   -3.5921   -2.0059 H   0  0  0  0  0  0  0  0  0  0  0  0
   -0.5860   -4.0400   -3.6319 H   0  0  0  0  0  0  0  0  0  0  0  0
    0.6097   -3.7834   -2.3474 H   0  0  0  0  0  0  0  0  0  0  0  0
   -1.7867   -1.8225   -4.9891 N   0  0  0  0  0  0  0  0  0  0  0  0
   -2.9820   -1.4699   -5.7193 C   0  0  0  0  0  0  0  0  0  0  0  0
   -1.0644   -2.3382   -5.4830 H   0  0  0  0  0  0  0  0  0  0  0  0
   -3.7259   -2.2736   -5.6158 H   0  0  0  0  0  0  0  0  0  0  0  0
   -3.3952   -0.5338   -5.3158 H   0  0  0  0  0  0  0  0  0  0  0  0
   -2.7351   -1.3336   -6.7825 H   0  0  0  0  0  0  0  0  0  0  0  0
 22 24  2  0  0  0  0
 24 26  1  0  0  0  0
 25 26  2  0  0  0  0
 23 25  1  0  0  0  0
 21 22  1  0  0  0  0
 22 23  1  0  0  0  0
  1  3  1  0  0  0  0
  1  7  1  0  0  0  0
  1  2  2  0  0  0  0
 35 36  1  0  0  0  0
 36 44  1  0  0  0  0
 36 37  2  0  0  0  0
  8  9  1  0  0  0  0
  9 17  1  0  0  0  0
  9 10  2  0  0  0  0
 18 19  1  0  0  0  0
 19 34  1  0  0  0  0
 19 20  2  0  0  0  0
 35 38  1  0  0  0  0
  8 11  1  0  0  0  0
 44 45  1  0  0  0  0
 18 21  1  0  0  0  0
 34 35  1  0  0  0  0
  7  8  1  0  0  0  0
 17 18  1  0  0  0  0
 24 32  1  0  0  0  0
 25 33  1  0  0  0  0
  3  4  1  0  0  0  0
  3  5  1  0  0  0  0
  3  6  1  0  0  0  0
 38 41  1  0  0  0  0
 38 42  1  0  0  0  0
 38 43  1  0  0  0  0
 11 14  1  0  0  0  0
 11 15  1  0  0  0  0
 11 16  1  0  0  0  0
 45 47  1  0  0  0  0
 45 48  1  0  0  0  0
 45 49  1  0  0  0  0
 21 29  1  0  0  0  0
 21 30  1  0  0  0  0
 35 40  1  0  0  0  0
  8 13  1  0  0  0  0
 18 28  1  0  0  0  0
 23 31  1  0  0  0  0
 44 46  1  0  0  0  0
  7 12  1  0  0  0  0
 34 39  1  0  0  0  0
 17 27  1  0  0  0  0
M  END
$$$$

  -OEChem-05262214473D

 49 49  0     1  0  0  0  0  0999 V2000
   -1.5619    0.5658    3.7981 C   0  0  0  0  0  0  0  0  0  0  0  0
   -0.6145   -0.0489    3.3224 O   0  0  0  0  0  0  0  0  0  0  0  0
   -1.9938    0.2834    5.1988 C   0  0  0  0  0  0  0  0  0  0  0  0
   -2.7535   -0.5129    5.2522 H   0  0  0  0  0  0  0  0  0  0  0  0
   -1.1626   -0.0642    5.8331 H   0  0  0  0  0  0  0  0  0  0  0  0
   -2.4318    1.1383    5.7384 H   0  0  0  0  0  0  0  0  0  0  0  0
   -2.3116    1.5383    3.1570 N   0  0  0  0  0  0  0  0  0  0  0  0
   -2.0648    1.9643    1.8046 C   0  0  2  0  0  0  0  0  0  0  0  0
   -0.7298    1.3789    1.3634 C   0  0  0  0  0  0  0  0  0  0  0  0
    0.1423    1.0262    2.1547 O   0  0  0  0  0  0  0  0  0  0  0  0
   -2.0560    3.4811    1.6952 C   0  0  0  0  0  0  0  0  0  0  0  0
   -3.0767    1.9741    3.6688 H   0  0  0  0  0  0  0  0  0  0  0  0
   -2.8689    1.5458    1.1895 H   0  0  0  0  0  0  0  0  0  0  0  0
   -1.2569    3.9183    2.3049 H   0  0  0  0  0  0  0  0  0  0  0  0
   -1.8965    3.8033    0.6609 H   0  0  0  0  0  0  0  0  0  0  0  0
   -3.0062    3.9023    2.0409 H   0  0  0  0  0  0  0  0  0  0  0  0
   -0.6071    1.3358   -0.0200 N   0  0  0  0  0  0  0  0  0  0  0  0
    0.5702    0.8350   -0.6836 C   0  0  2  0  0  0  0  0  0  0  0  0
    0.1205    0.2448   -2.0154 C   0  0  0  0  0  0  0  0  0  0  0  0
    0.0965    0.8921   -3.0601 O   0  0  0  0  0  0  0  0  0  0  0  0
    1.2982   -0.2254    0.1505 C   0  0  0  0  0  0  0  0  0  0  0  0
    1.8410    0.3237    1.4473 C   0  0  0  0  0  0  0  0  0  0  0  0
    2.9522    1.1166    1.5066 N   0  0  0  0  0  0  0  0  0  0  0  0
    1.4279    0.1982    2.7527 C   0  0  0  0  0  0  0  0  0  0  0  0
    3.1615    1.4313    2.8206 C   0  0  0  0  0  0  0  0  0  0  0  0
    2.2540    0.8902    3.6026 N   0  0  0  0  0  0  0  0  0  0  0  0
   -1.3903    1.6325   -0.5973 H   0  0  0  0  0  0  0  0  0  0  0  0
    1.2138    1.7018   -0.8743 H   0  0  0  0  0  0  0  0  0  0  0  0
    2.1150   -0.6727   -0.4320 H   0  0  0  0  0  0  0  0  0  0  0  0
    0.6227   -1.0585    0.3858 H   0  0  0  0  0  0  0  0  0  0  0  0
    3.5189    1.4165    0.7241 H   0  0  0  0  0  0  0  0  0  0  0  0
    0.5779   -0.3548    3.1264 H   0  0  0  0  0  0  0  0  0  0  0  0
    3.9863    2.0536    3.1376 H   0  0  0  0  0  0  0  0  0  0  0  0
   -0.2016   -1.1008   -1.9051 N   0  0  0  0  0  0  0  0  0  0  0  0
   -0.6355   -1.9071   -3.0233 C   0  0  2  0  0  0  0  0  0  0  0  0
   -1.7572   -1.1612   -3.7338 C   0  0  0  0  0  0  0  0  0  0  0  0
   -2.4428   -0.3006   -3.1857 O   0  0  0  0  0  0  0  0  0  0  0  0
   -1.1002   -3.2814   -2.5671 C   0  0  0  0  0  0  0  0  0  0  0  0
   -0.1286   -1.5409   -0.9926 H   0  0  0  0  0  0  0  0  0  0  0  0
    0.2236   -2.0030   -3.6963 H   0  0  0  0  0  0  0  0  0  0  0  0
   -1.9604   -3.2055   -1.8920 H   0  0  0  0  0  0  0  0  0  0  0  0
   -1.4017   -3.9010   -3.4181 H   0  0  0  0  0  0  0  0  0  0  0  0
   -0.3016   -3.8046   -2.0303 H   0  0  0  0  0  0  0  0  0  0  0  0
   -1.9310   -1.6001   -5.0389 N   0  0  0  0  0  0  0  0  0  0  0  0
   -2.9412   -1.0563   -5.9163 C   0  0  0  0  0  0  0  0  0  0  0  0
   -1.3046   -2.3048   -5.4167 H   0  0  0  0  0  0  0  0  0  0  0  0
   -3.8563   -1.6623   -5.8427 H   0  0  0  0  0  0  0  0  0  0  0  0
   -3.1632   -0.0200   -5.6218 H   0  0  0  0  0  0  0  0  0  0  0  0
   -2.5735   -1.0722   -6.9529 H   0  0  0  0  0  0  0  0  0  0  0  0
 22 24  2  0  0  0  0
 24 26  1  0  0  0  0
 25 26  2  0  0  0  0
 23 25  1  0  0  0  0
 21 22  1  0  0  0  0
 22 23  1  0  0  0  0
  1  3  1  0  0  0  0
  1  7  1  0  0  0  0
  1  2  2  0  0  0  0
 35 36  1  0  0  0  0
 36 44  1  0  0  0  0
 36 37  2  0  0  0  0
  8  9  1  0  0  0  0
  9 17  1  0  0  0  0
  9 10  2  0  0  0  0
 18 19  1  0  0  0  0
 19 34  1  0  0  0  0
 19 20  2  0  0  0  0
 35 38  1  0  0  0  0
  8 11  1  0  0  0  0
 44 45  1  0  0  0  0
 18 21  1  0  0  0  0
 34 35  1  0  0  0  0
  7  8  1  0  0  0  0
 17 18  1  0  0  0  0
 24 32  1  0  0  0  0
 25 33  1  0  0  0  0
  3  4  1  0  0  0  0
  3  5  1  0  0  0  0
  3  6  1  0  0  0  0
 38 41  1  0  0  0  0
 38 42  1  0  0  0  0
 38 43  1  0  0  0  0
 11 14  1  0  0  0  0
 11 15  1  0  0  0  0
 11 16  1  0  0  0  0
 45 47  1  0  0  0  0
 45 48  1  0  0  0  0
 45 49  1  0  0  0  0
 21 29  1  0  0  0  0
 21 30  1  0  0  0  0
 35 40  1  0  0  0  0
  8 13  1  0  0  0  0
 18 28  1  0  0  0  0
 23 31  1  0  0  0  0
 44 46  1  0  0  0  0
  7 12  1  0  0  0  0
 34 39  1  0  0  0  0
 17 27  1  0  0  0  0
M  END
$$$$

  -OEChem-05262214473D

 49 49  0     1  0  0  0  0  0999 V2000
   -1.5619    0.5658    3.7981 C   0  0  0  0  0  0  0  0  0  0  0  0
   -0.6145   -0.0489    3.3224 O   0  0  0  0  0  0  0  0  0  0  0  0
   -1.9938    0.2834    5.1988 C   0  0  0  0  0  0  0  0  0  0  0  0
   -2.7535   -0.5129    5.2522 H   0  0  0  0  0  0  0  0  0  0  0  0
   -1.1626   -0.0642    5.8331 H   0  0  0  0  0  0  0  0  0  0  0  0
   -2.4318    1.1383    5.7384 H   0  0  0  0  0  0  0  0  0  0  0  0
   -2.3116    1.5383    3.1570 N   0  0  0  0  0  0  0  0  0  0  0  0
   -2.0648    1.9643    1.8046 C   0  0  2  0  0  0  0  0  0  0  0  0
   -0.7298    1.3789    1.3634 C   0  0  0  0  0  0  0  0  0  0  0  0
    0.1423    1.0262    2.1547 O   0  0  0  0  0  0  0  0  0  0  0  0
   -2.0560    3.4811    1.6952 C   0  0  0  0  0  0  0  0  0  0  0  0
   -3.0767    1.9741    3.6688 H   0  0  0  0  0  0  0  0  0  0  0  0
   -2.8689    1.5458    1.1895 H   0  0  0  0  0  0  0  0  0  0  0  0
   -1.2569    3.9183    2.3049 H   0  0  0  0  0  0  0  0  0  0  0  0
   -1.8965    3.8033    0.6609 H   0  0  0  0  0  0  0  0  0  0  0  0
   -3.0062    3.9023    2.0409 H   0  0  0  0  0  0  0  0  0  0  0  0
   -0.6071    1.3358   -0.0200 N   0  0  0  0  0  0  0  0  0  0  0  0
    0.5702    0.8350   -0.6836 C   0  0  2  0  0  0  0  0  0  0  0  0
    0.1205    0.2448   -2.0154 C   0  0  0  0  0  0  0  0  0  0  0  0
    0.3416    0.7869   -3.0963 O   0  0  0  0  0  0  0  0  0  0  0  0
    1.2982   -0.2254    0.1505 C   0  0  0  0  0  0  0  0  0  0  0  0
    1.8410    0.3237    1.4473 C   0  0  0  0  0  0  0  0  0  0  0  0
    2.9522    1.1166    1.5066 N   0  0  0  0  0  0  0  0  0  0  0  0
    1.4279    0.1982    2.7527 C   0  0  0  0  0  0  0  0  0  0  0  0
    3.1615    1.4313    2.8206 C   0  0  0  0  0  0  0  0  0  0  0  0
    2.2540    0.8902    3.6026 N   0  0  0  0  0  0  0  0  0  0  0  0
   -1.3903    1.6325   -0.5973 H   0  0  0  0  0  0  0  0  0  0  0  0
    1.2138    1.7018   -0.8743 H   0  0  0  0  0  0  0  0  0  0  0  0
    2.1150   -0.6727   -0.4320 H   0  0  0  0  0  0  0  0  0  0  0  0
    0.6227   -1.0585    0.3858 H   0  0  0  0  0  0  0  0  0  0  0  0
    3.5189    1.4165    0.7241 H   0  0  0  0  0  0  0  0  0  0  0  0
    0.5779   -0.3548    3.1264 H   0  0  0  0  0  0  0  0  0  0  0  0
    3.9863    2.0536    3.1376 H   0  0  0  0  0  0  0  0  0  0  0  0
   -0.5111   -0.9805   -1.8539 N   0  0  0  0  0  0  0  0  0  0  0  0
   -1.0147   -1.7654   -2.9581 C   0  0  2  0  0  0  0  0  0  0  0  0
   -1.8651   -0.8542   -3.8334 C   0  0  0  0  0  0  0  0  0  0  0  0
   -2.3815    0.1819   -3.4202 O   0  0  0  0  0  0  0  0  0  0  0  0
   -1.8228   -2.9565   -2.4671 C   0  0  0  0  0  0  0  0  0  0  0  0
   -0.6251   -1.3440   -0.9123 H   0  0  0  0  0  0  0  0  0  0  0  0
   -0.1430   -2.1085   -3.5258 H   0  0  0  0  0  0  0  0  0  0  0  0
   -2.7005   -2.6323   -1.8961 H   0  0  0  0  0  0  0  0  0  0  0  0
   -2.1796   -3.5659   -3.3040 H   0  0  0  0  0  0  0  0  0  0  0  0
   -1.2184   -3.5948   -1.8137 H   0  0  0  0  0  0  0  0  0  0  0  0
   -2.0151   -1.3565   -5.1185 N   0  0  0  0  0  0  0  0  0  0  0  0
   -2.7886   -0.6811   -6.1341 C   0  0  0  0  0  0  0  0  0  0  0  0
   -1.5357   -2.2131   -5.3793 H   0  0  0  0  0  0  0  0  0  0  0  0
   -3.8213   -1.0597   -6.1216 H   0  0  0  0  0  0  0  0  0  0  0  0
   -2.7923    0.4004   -5.9334 H   0  0  0  0  0  0  0  0  0  0  0  0
   -2.3412   -0.8693   -7.1213 H   0  0  0  0  0  0  0  0  0  0  0  0
 22 24  2  0  0  0  0
 24 26  1  0  0  0  0
 25 26  2  0  0  0  0
 23 25  1  0  0  0  0
 21 22  1  0  0  0  0
 22 23  1  0  0  0  0
  1  3  1  0  0  0  0
  1  7  1  0  0  0  0
  1  2  2  0  0  0  0
 35 36  1  0  0  0  0
 36 44  1  0  0  0  0
 36 37  2  0  0  0  0
  8  9  1  0  0  0  0
  9 17  1  0  0  0  0
  9 10  2  0  0  0  0
 18 19  1  0  0  0  0
 19 34  1  0  0  0  0
 19 20  2  0  0  0  0
 35 38  1  0  0  0  0
  8 11  1  0  0  0  0
 44 45  1  0  0  0  0
 18 21  1  0  0  0  0
 34 35  1  0  0  0  0
  7  8  1  0  0  0  0
 17 18  1  0  0  0  0
 24 32  1  0  0  0  0
 25 33  1  0  0  0  0
  3  4  1  0  0  0  0
  3  5  1  0  0  0  0
  3  6  1  0  0  0  0
 38 41  1  0  0  0  0
 38 42  1  0  0  0  0
 38 43  1  0  0  0  0
 11 14  1  0  0  0  0
 11 15  1  0  0  0  0
 11 16  1  0  0  0  0
 45 47  1  0  0  0  0
 45 48  1  0  0  0  0
 45 49  1  0  0  0  0
 21 29  1  0  0  0  0
 21 30  1  0  0  0  0
 35 40  1  0  0  0  0
  8 13  1  0  0  0  0
 18 28  1  0  0  0  0
 23 31  1  0  0  0  0
 44 46  1  0  0  0  0
  7 12  1  0  0  0  0
 34 39  1  0  0  0  0
 17 27  1  0  0  0  0
M  END
$$$$

  -OEChem-05262214473D

 49 49  0     1  0  0  0  0  0999 V2000
   -1.5619    0.5658    3.7981 C   0  0  0  0  0  0  0  0  0  0  0  0
   -0.6145   -0.0489    3.3224 O   0  0  0  0  0  0  0  0  0  0  0  0
   -1.9938    0.2834    5.1988 C   0  0  0  0  0  0  0  0  0  0  0  0
   -2.7535   -0.5129    5.2522 H   0  0  0  0  0  0  0  0  0  0  0  0
   -1.1626   -0.0642    5.8331 H   0  0  0  0  0  0  0  0  0  0  0  0
   -2.4318    1.1383    5.7384 H   0  0  0  0  0  0  0  0  0  0  0  0
   -2.3116    1.5383    3.1570 N   0  0  0  0  0  0  0  0  0  0  0  0
   -2.0648    1.9643    1.8046 C   0  0  2  0  0  0  0  0  0  0  0  0
   -0.7298    1.3789    1.3634 C   0  0  0  0  0  0  0  0  0  0  0  0
    0.1423    1.0262    2.1547 O   0  0  0  0  0  0  0  0  0  0  0  0
   -2.0560    3.4811    1.6952 C   0  0  0  0  0  0  0  0  0  0  0  0
   -3.0767    1.9741    3.6688 H   0  0  0  0  0  0  0  0  0  0  0  0
   -2.8689    1.5458    1.1895 H   0  0  0  0  0  0  0  0  0  0  0  0
   -1.2569    3.9183    2.3049 H   0  0  0  0  0  0  0  0  0  0  0  0
   -1.8965    3.8033    0.6609 H   0  0  0  0  0  0  0  0  0  0  0  0
   -3.0062    3.9023    2.0409 H   0  0  0  0  0  0  0  0  0  0  0  0
   -0.6071    1.3358   -0.0200 N   0  0  0  0  0  0  0  0  0  0  0  0
    0.5702    0.8350   -0.6836 C   0  0  2  0  0  0  0  0  0  0  0  0
    0.1205    0.2448   -2.0154 C   0  0  0  0  0  0  0  0  0  0  0  0
    0.5582    0.6271   -3.0986 O   0  0  0  0  0  0  0  0  0  0  0  0
    1.2982   -0.2254    0.1505 C   0  0  0  0  0  0  0  0  0  0  0  0
    1.8410    0.3237    1.4473 C   0  0  0  0  0  0  0  0  0  0  0  0
    2.9522    1.1166    1.5066 N   0  0  0  0  0  0  0  0  0  0  0  0
    1.4279    0.1982    2.7527 C   0  0  0  0  0  0  0  0  0  0  0  0
    3.1615    1.4313    2.8206 C   0  0  0  0  0  0  0  0  0  0  0  0
    2.2540    0.8902    3.6026 N   0  0  0  0  0  0  0  0  0  0  0  0
   -1.3903    1.6325   -0.5973 H   0  0  0  0  0  0  0  0  0  0  0  0
    1.2138    1.7018   -0.8743 H   0  0  0  0  0  0  0  0  0  0  0  0
    2.1150   -0.6727   -0.4320 H   0  0  0  0  0  0  0  0  0  0  0  0
    0.6227   -1.0585    0.3858 H   0  0  0  0  0  0  0  0  0  0  0  0
    3.5189    1.4165    0.7241 H   0  0  0  0  0  0  0  0  0  0  0  0
    0.5779   -0.3548    3.1264 H   0  0  0  0  0  0  0  0  0  0  0  0
    3.9863    2.0536    3.1376 H   0  0  0  0  0  0  0  0  0  0  0  0
   -0.7880   -0.7905   -1.8446 N   0  0  0  0  0  0  0  0  0  0  0  0
   -1.3556   -1.5377   -2.9439 C   0  0  2  0  0  0  0  0  0  0  0  0
   -1.8899   -0.5409   -3.9639 C   0  0  0  0  0  0  0  0  0  0  0  0
   -2.1897    0.6163   -3.6775 O   0  0  0  0  0  0  0  0  0  0  0  0
   -2.4573   -2.4716   -2.4677 C   0  0  0  0  0  0  0  0  0  0  0  0
   -1.0681   -1.0354   -0.8994 H   0  0  0  0  0  0  0  0  0  0  0  0
   -0.5379   -2.1145   -3.3897 H   0  0  0  0  0  0  0  0  0  0  0  0
   -3.2854   -1.9117   -2.0180 H   0  0  0  0  0  0  0  0  0  0  0  0
   -2.8667   -3.0577   -3.2972 H   0  0  0  0  0  0  0  0  0  0  0  0
   -2.0782   -3.1684   -1.7123 H   0  0  0  0  0  0  0  0  0  0  0  0
   -2.0333   -1.1082   -5.2224 N   0  0  0  0  0  0  0  0  0  0  0  0
   -2.5345   -0.3698   -6.3579 C   0  0  0  0  0  0  0  0  0  0  0  0
   -1.7419   -2.0695   -5.3733 H   0  0  0  0  0  0  0  0  0  0  0  0
   -3.6233   -0.5068   -6.4334 H   0  0  0  0  0  0  0  0  0  0  0  0
   -2.3077    0.6989   -6.2293 H   0  0  0  0  0  0  0  0  0  0  0  0
   -2.0541   -0.7387   -7.2761 H   0  0  0  0  0  0  0  0  0  0  0  0
 22 24  2  0  0  0  0
 24 26  1  0  0  0  0
 25 26  2  0  0  0  0
 23 25  1  0  0  0  0
 21 22  1  0  0  0  0
 22 23  1  0  0  0  0
  1  3  1  0  0  0  0
  1  7  1  0  0  0  0
  1  2  2  0  0  0  0
 35 36  1  0  0  0  0
 36 44  1  0  0  0  0
 36 37  2  0  0  0  0
  8  9  1  0  0  0  0
  9 17  1  0  0  0  0
  9 10  2  0  0  0  0
 18 19  1  0  0  0  0
 19 34  1  0  0  0  0
 19 20  2  0  0  0  0
 35 38  1  0  0  0  0
  8 11  1  0  0  0  0
 44 45  1  0  0  0  0
 18 21  1  0  0  0  0
 34 35  1  0  0  0  0
  7  8  1  0  0  0  0
 17 18  1  0  0  0  0
 24 32  1  0  0  0  0
 25 33  1  0  0  0  0
  3  4  1  0  0  0  0
  3  5  1  0  0  0  0
  3  6  1  0  0  0  0
 38 41  1  0  0  0  0
 38 42  1  0  0  0  0
 38 43  1  0  0  0  0
 11 14  1  0  0  0  0
 11 15  1  0  0  0  0
 11 16  1  0  0  0  0
 45 47  1  0  0  0  0
 45 48  1  0  0  0  0
 45 49  1  0  0  0  0
 21 29  1  0  0  0  0
 21 30  1  0  0  0  0
 35 40  1  0  0  0  0
  8 13  1  0  0  0  0
 18 28  1  0  0  0  0
 23 31  1  0  0  0  0
 44 46  1  0  0  0  0
  7 12  1  0  0  0  0
 34 39  1  0  0  0  0
 17 27  1  0  0  0  0
M  END
$$$$

  -OEChem-05262214473D

 49 49  0     1  0  0  0  0  0999 V2000
   -1.5619    0.5658    3.7981 C   0  0  0  0  0  0  0  0  0  0  0  0
   -0.6145   -0.0489    3.3224 O   0  0  0  0  0  0  0  0  0  0  0  0
   -1.9938    0.2834    5.1988 C   0  0  0  0  0  0  0  0  0  0  0  0
   -2.7535   -0.5129    5.2522 H   0  0  0  0  0  0  0  0  0  0  0  0
   -1.1626   -0.0642    5.8331 H   0  0  0  0  0  0  0  0  0  0  0  0
   -2.4318    1.1383    5.7384 H   0  0  0  0  0  0  0  0  0  0  0  0
   -2.3116    1.5383    3.1570 N   0  0  0  0  0  0  0  0  0  0  0  0
   -2.0648    1.9643    1.8046 C   0  0  2  0  0  0  0  0  0  0  0  0
   -0.7298    1.3789    1.3634 C   0  0  0  0  0  0  0  0  0  0  0  0
    0.1423    1.0262    2.1547 O   0  0  0  0  0  0  0  0  0  0  0  0
   -2.0560    3.4811    1.6952 C   0  0  0  0  0  0  0  0  0  0  0  0
   -3.0767    1.9741    3.6688 H   0  0  0  0  0  0  0  0  0  0  0  0
   -2.8689    1.5458    1.1895 H   0  0  0  0  0  0  0  0  0  0  0  0
   -1.2569    3.9183    2.3049 H   0  0  0  0  0  0  0  0  0  0  0  0
   -1.8965    3.8033    0.6609 H   0  0  0  0  0  0  0  0  0  0  0  0
   -3.0062    3.9023    2.0409 H   0  0  0  0  0  0  0  0  0  0  0  0
   -0.6071    1.3358   -0.0200 N   0  0  0  0  0  0  0  0  0  0  0  0
    0.5702    0.8350   -0.6836 C   0  0  2  0  0  0  0  0  0  0  0  0
    0.1205    0.2448   -2.0154 C   0  0  0  0  0  0  0  0  0  0  0  0
    0.7315    0.4236   -3.0669 O   0  0  0  0  0  0  0  0  0  0  0  0
    1.2982   -0.2254    0.1505 C   0  0  0  0  0  0  0  0  0  0  0  0
    1.8410    0.3237    1.4473 C   0  0  0  0  0  0  0  0  0  0  0  0
    2.9522    1.1166    1.5066 N   0  0  0  0  0  0  0  0  0  0  0  0
    1.4279    0.1982    2.7527 C   0  0  0  0  0  0  0  0  0  0  0  0
    3.1615    1.4313    2.8206 C   0  0  0  0  0  0  0  0  0  0  0  0
    2.2540    0.8902    3.6026 N   0  0  0  0  0  0  0  0  0  0  0  0
   -1.3903    1.6325   -0.5973 H   0  0  0  0  0  0  0  0  0  0  0  0
    1.2138    1.7018   -0.8743 H   0  0  0  0  0  0  0  0  0  0  0  0
    2.1150   -0.6727   -0.4320 H   0  0  0  0  0  0  0  0  0  0  0  0
    0.6227   -1.0585    0.3858 H   0  0  0  0  0  0  0  0  0  0  0  0
    3.5189    1.4165    0.7241 H   0  0  0  0  0  0  0  0  0  0  0  0
    0.5779   -0.3548    3.1264 H   0  0  0  0  0  0  0  0  0  0  0  0
    3.9863    2.0536    3.1376 H   0  0  0  0  0  0  0  0  0  0  0  0
   -1.0135   -0.5436   -1.8779 N   0  0  0  0  0  0  0  0  0  0  0  0
   -1.6347   -1.2397   -2.9817 C   0  0  2  0  0  0  0  0  0  0  0  0
   -1.8300   -0.2427   -4.1163 C   0  0  0  0  0  0  0  0  0  0  0  0
   -1.8805    0.9728   -3.9399 O   0  0  0  0  0  0  0  0  0  0  0  0
   -2.9605   -1.8599   -2.5689 C   0  0  0  0  0  0  0  0  0  0  0  0
   -1.4276   -0.6361   -0.9550 H   0  0  0  0  0  0  0  0  0  0  0  0
   -0.9344   -2.0207   -3.2974 H   0  0  0  0  0  0  0  0  0  0  0  0
   -3.6751   -1.0926   -2.2493 H   0  0  0  0  0  0  0  0  0  0  0  0
   -3.4161   -2.4109   -3.3983 H   0  0  0  0  0  0  0  0  0  0  0  0
   -2.8225   -2.5543   -1.7332 H   0  0  0  0  0  0  0  0  0  0  0  0
   -1.9843   -0.8722   -5.3435 N   0  0  0  0  0  0  0  0  0  0  0  0
   -2.1963   -0.1436   -6.5723 C   0  0  0  0  0  0  0  0  0  0  0  0
   -1.9093   -1.8837   -5.3991 H   0  0  0  0  0  0  0  0  0  0  0  0
   -3.2759   -0.0414   -6.7570 H   0  0  0  0  0  0  0  0  0  0  0  0
   -1.7425    0.8550   -6.4893 H   0  0  0  0  0  0  0  0  0  0  0  0
   -1.7317   -0.6892   -7.4069 H   0  0  0  0  0  0  0  0  0  0  0  0
 22 24  2  0  0  0  0
 24 26  1  0  0  0  0
 25 26  2  0  0  0  0
 23 25  1  0  0  0  0
 21 22  1  0  0  0  0
 22 23  1  0  0  0  0
  1  3  1  0  0  0  0
  1  7  1  0  0  0  0
  1  2  2  0  0  0  0
 35 36  1  0  0  0  0
 36 44  1  0  0  0  0
 36 37  2  0  0  0  0
  8  9  1  0  0  0  0
  9 17  1  0  0  0  0
  9 10  2  0  0  0  0
 18 19  1  0  0  0  0
 19 34  1  0  0  0  0
 19 20  2  0  0  0  0
 35 38  1  0  0  0  0
  8 11  1  0  0  0  0
 44 45  1  0  0  0  0
 18 21  1  0  0  0  0
 34 35  1  0  0  0  0
  7  8  1  0  0  0  0
 17 18  1  0  0  0  0
 24 32  1  0  0  0  0
 25 33  1  0  0  0  0
  3  4  1  0  0  0  0
  3  5  1  0  0  0  0
  3  6  1  0  0  0  0
 38 41  1  0  0  0  0
 38 42  1  0  0  0  0
 38 43  1  0  0  0  0
 11 14  1  0  0  0  0
 11 15  1  0  0  0  0
 11 16  1  0  0  0  0
 45 47  1  0  0  0  0
 45 48  1  0  0  0  0
 45 49  1  0  0  0  0
 21 29  1  0  0  0  0
 21 30  1  0  0  0  0
 35 40  1  0  0  0  0
  8 13  1  0  0  0  0
 18 28  1  0  0  0  0
 23 31  1  0  0  0  0
 44 46  1  0  0  0  0
  7 12  1  0  0  0  0
 34 39  1  0  0  0  0
 17 27  1  0  0  0  0
M  END
$$$$

  -OEChem-05262214473D

 49 49  0     1  0  0  0  0  0999 V2000
   -1.5619    0.5658    3.7981 C   0  0  0  0  0  0  0  0  0  0  0  0
   -0.6145   -0.0489    3.3224 O   0  0  0  0  0  0  0  0  0  0  0  0
   -1.9938    0.2834    5.1988 C   0  0  0  0  0  0  0  0  0  0  0  0
   -2.7535   -0.5129    5.2522 H   0  0  0  0  0  0  0  0  0  0  0  0
   -1.1626   -0.0642    5.8331 H   0  0  0  0  0  0  0  0  0  0  0  0
   -2.4318    1.1383    5.7384 H   0  0  0  0  0  0  0  0  0  0  0  0
   -2.3116    1.5383    3.1570 N   0  0  0  0  0  0  0  0  0  0  0  0
   -2.0648    1.9643    1.8046 C   0  0  2  0  0  0  0  0  0  0  0  0
   -0.7298    1.3789    1.3634 C   0  0  0  0  0  0  0  0  0  0  0  0
    0.1423    1.0262    2.1547 O   0  0  0  0  0  0  0  0  0  0  0  0
   -2.0560    3.4811    1.6952 C   0  0  0  0  0  0  0  0  0  0  0  0
   -3.0767    1.9741    3.6688 H   0  0  0  0  0  0  0  0  0  0  0  0
   -2.8689    1.5458    1.1895 H   0  0  0  0  0  0  0  0  0  0  0  0
   -1.2569    3.9183    2.3049 H   0  0  0  0  0  0  0  0  0  0  0  0
   -1.8965    3.8033    0.6609 H   0  0  0  0  0  0  0  0  0  0  0  0
   -3.0062    3.9023    2.0409 H   0  0  0  0  0  0  0  0  0  0  0  0
   -0.6071    1.3358   -0.0200 N   0  0  0  0  0  0  0  0  0  0  0  0
    0.5702    0.8350   -0.6836 C   0  0  2  0  0  0  0  0  0  0  0  0
    0.1205    0.2448   -2.0154 C   0  0  0  0  0  0  0  0  0  0  0  0
    0.8497    0.1902   -3.0034 O   0  0  0  0  0  0  0  0  0  0  0  0
    1.2982   -0.2254    0.1505 C   0  0  0  0  0  0  0  0  0  0  0  0
    1.8410    0.3237    1.4473 C   0  0  0  0  0  0  0  0  0  0  0  0
    2.9522    1.1166    1.5066 N   0  0  0  0  0  0  0  0  0  0  0  0
    1.4279    0.1982    2.7527 C   0  0  0  0  0  0  0  0  0  0  0  0
    3.1615    1.4313    2.8206 C   0  0  0  0  0  0  0  0  0  0  0  0
    2.2540    0.8902    3.6026 N   0  0  0  0  0  0  0  0  0  0  0  0
   -1.3903    1.6325   -0.5973 H   0  0  0  0  0  0  0  0  0  0  0  0
    1.2138    1.7018   -0.8743 H   0  0  0  0  0  0  0  0  0  0  0  0
    2.1150   -0.6727   -0.4320 H   0  0  0  0  0  0  0  0  0  0  0  0
    0.6227   -1.0585    0.3858 H   0  0  0  0  0  0  0  0  0  0  0  0
    3.5189    1.4165    0.7241 H   0  0  0  0  0  0  0  0  0  0  0  0
    0.5779   -0.3548    3.1264 H   0  0  0  0  0  0  0  0  0  0  0  0
    3.9863    2.0536    3.1376 H   0  0  0  0  0  0  0  0  0  0  0  0
   -1.1721   -0.2567   -1.9515 N   0  0  0  0  0  0  0  0  0  0  0  0
   -1.8332   -0.8916   -3.0689 C   0  0  2  0  0  0  0  0  0  0  0  0
   -1.6893    0.0202   -4.2803 C   0  0  0  0  0  0  0  0  0  0  0  0
   -1.4749    1.2273   -4.1896 O   0  0  0  0  0  0  0  0  0  0  0  0
   -3.2981   -1.1629   -2.7638 C   0  0  0  0  0  0  0  0  0  0  0  0
   -1.6790   -0.1734   -1.0752 H   0  0  0  0  0  0  0  0  0  0  0  0
   -1.3054   -1.8333   -3.2552 H   0  0  0  0  0  0  0  0  0  0  0  0
   -3.8433   -0.2310   -2.5744 H   0  0  0  0  0  0  0  0  0  0  0  0
   -3.7904   -1.6696   -3.6004 H   0  0  0  0  0  0  0  0  0  0  0  0
   -3.4005   -1.7945   -1.8747 H   0  0  0  0  0  0  0  0  0  0  0  0
   -1.8715   -0.6646   -5.4736 N   0  0  0  0  0  0  0  0  0  0  0  0
   -1.7970   -0.0179   -6.7629 C   0  0  0  0  0  0  0  0  0  0  0  0
   -2.0264   -1.6683   -5.4550 H   0  0  0  0  0  0  0  0  0  0  0  0
   -2.8026    0.3050   -7.0703 H   0  0  0  0  0  0  0  0  0  0  0  0
   -1.1352    0.8582   -6.6958 H   0  0  0  0  0  0  0  0  0  0  0  0
   -1.3960   -0.7244   -7.5046 H   0  0  0  0  0  0  0  0  0  0  0  0
 22 24  2  0  0  0  0
 24 26  1  0  0  0  0
 25 26  2  0  0  0  0
 23 25  1  0  0  0  0
 21 22  1  0  0  0  0
 22 23  1  0  0  0  0
  1  3  1  0  0  0  0
  1  7  1  0  0  0  0
  1  2  2  0  0  0  0
 35 36  1  0  0  0  0
 36 44  1  0  0  0  0
 36 37  2  0  0  0  0
  8  9  1  0  0  0  0
  9 17  1  0  0  0  0
  9 10  2  0  0  0  0
 18 19  1  0  0  0  0
 19 34  1  0  0  0  0
 19 20  2  0  0  0  0
 35 38  1  0  0  0  0
  8 11  1  0  0  0  0
 44 45  1  0  0  0  0
 18 21  1  0  0  0  0
 34 35  1  0  0  0  0
  7  8  1  0  0  0  0
 17 18  1  0  0  0  0
 24 32  1  0  0  0  0
 25 33  1  0  0  0  0
  3  4  1  0  0  0  0
  3  5  1  0  0  0  0
  3  6  1  0  0  0  0
 38 41  1  0  0  0  0
 38 42  1  0  0  0  0
 38 43  1  0  0  0  0
 11 14  1  0  0  0  0
 11 15  1  0  0  0  0
 11 16  1  0  0  0  0
 45 47  1  0  0  0  0
 45 48  1  0  0  0  0
 45 49  1  0  0  0  0
 21 29  1  0  0  0  0
 21 30  1  0  0  0  0
 35 40  1  0  0  0  0
  8 13  1  0  0  0  0
 18 28  1  0  0  0  0
 23 31  1  0  0  0  0
 44 46  1  0  0  0  0
  7 12  1  0  0  0  0
 34 39  1  0  0  0  0
 17 27  1  0  0  0  0
M  END
$$$$

  -OEChem-05262214473D

 49 49  0     1  0  0  0  0  0999 V2000
   -1.5619    0.5658    3.7981 C   0  0  0  0  0  0  0  0  0  0  0  0
   -0.6145   -0.0489    3.3224 O   0  0  0  0  0  0  0  0  0  0  0  0
   -1.9938    0.2834    5.1988 C   0  0  0  0  0  0  0  0  0  0  0  0
   -2.7535   -0.5129    5.2522 H   0  0  0  0  0  0  0  0  0  0  0  0
   -1.1626   -0.0642    5.8331 H   0  0  0  0  0  0  0  0  0  0  0  0
   -2.4318    1.1383    5.7384 H   0  0  0  0  0  0  0  0  0  0  0  0
   -2.3116    1.5383    3.1570 N   0  0  0  0  0  0  0  0  0  0  0  0
   -2.0648    1.9643    1.8046 C   0  0  2  0  0  0  0  0  0  0  0  0
   -0.7298    1.3789    1.3634 C   0  0  0  0  0  0  0  0  0  0  0  0
    0.1423    1.0262    2.1547 O   0  0  0  0  0  0  0  0  0  0  0  0
   -2.0560    3.4811    1.6952 C   0  0  0  0  0  0  0  0  0  0  0  0
   -3.0767    1.9741    3.6688 H   0  0  0  0  0  0  0  0  0  0  0  0
   -2.8689    1.5458    1.1895 H   0  0  0  0  0  0  0  0  0  0  0  0
   -1.2569    3.9183    2.3049 H   0  0  0  0  0  0  0  0  0  0  0  0
   -1.8965    3.8033    0.6609 H   0  0  0  0  0  0  0  0  0  0  0  0
   -3.0062    3.9023    2.0409 H   0  0  0  0  0  0  0  0  0  0  0  0
   -0.6071    1.3358   -0.0200 N   0  0  0  0  0  0  0  0  0  0  0  0
    0.5702    0.8350   -0.6836 C   0  0  2  0  0  0  0  0  0  0  0  0
    0.1205    0.2448   -2.0154 C   0  0  0  0  0  0  0  0  0  0  0  0
    0.9048   -0.0571   -2.9124 O   0  0  0  0  0  0  0  0  0  0  0  0
    1.2982   -0.2254    0.1505 C   0  0  0  0  0  0  0  0  0  0  0  0
    1.8410    0.3237    1.4473 C   0  0  0  0  0  0  0  0  0  0  0  0
    2.9522    1.1166    1.5066 N   0  0  0  0  0  0  0  0  0  0  0  0
    1.4279    0.1982    2.7527 C   0  0  0  0  0  0  0  0  0  0  0  0
    3.1615    1.4313    2.8206 C   0  0  0  0  0  0  0  0  0  0  0  0
    2.2540    0.8902    3.6026 N   0  0  0  0  0  0  0  0  0  0  0  0
   -1.3903    1.6325   -0.5973 H   0  0  0  0  0  0  0  0  0  0  0  0
    1.2138    1.7018   -0.8743 H   0  0  0  0  0  0  0  0  0  0  0  0
    2.1150   -0.6727   -0.4320 H   0  0  0  0  0  0  0  0  0  0  0  0
    0.6227   -1.0585    0.3858 H   0  0  0  0  0  0  0  0  0  0  0  0
    3.5189    1.4165    0.7241 H   0  0  0  0  0  0  0  0  0  0  0  0
    0.5779   -0.3548    3.1264 H   0  0  0  0  0  0  0  0  0  0  0  0
    3.9863    2.0536    3.1376 H   0  0  0  0  0  0  0  0  0  0  0  0
   -1.2531    0.0506   -2.0603 N   0  0  0  0  0  0  0  0  0  0  0  0
   -1.9375   -0.5171   -3.1997 C   0  0  2  0  0  0  0  0  0  0  0  0
   -1.4776    0.2299   -4.4447 C   0  0  0  0  0  0  0  0  0  0  0  0
   -1.0006    1.3622   -4.4096 O   0  0  0  0  0  0  0  0  0  0  0  0
   -3.4471   -0.4283   -3.0391 C   0  0  0  0  0  0  0  0  0  0  0  0
   -1.8052    0.3212   -1.2517 H   0  0  0  0  0  0  0  0  0  0  0  0
   -1.6257   -1.5652   -3.2659 H   0  0  0  0  0  0  0  0  0  0  0  0
   -3.7783    0.6144   -2.9710 H   0  0  0  0  0  0  0  0  0  0  0  0
   -3.9642   -0.8844   -3.8897 H   0  0  0  0  0  0  0  0  0  0  0  0
   -3.7729   -0.9406   -2.1274 H   0  0  0  0  0  0  0  0  0  0  0  0
   -1.7025   -0.4995   -5.6038 N   0  0  0  0  0  0  0  0  0  0  0  0
   -1.3638   -0.0014   -6.9165 C   0  0  0  0  0  0  0  0  0  0  0  0
   -2.0851   -1.4381   -5.5372 H   0  0  0  0  0  0  0  0  0  0  0  0
   -2.2357    0.5086   -7.3520 H   0  0  0  0  0  0  0  0  0  0  0  0
   -0.5272    0.7082   -6.8346 H   0  0  0  0  0  0  0  0  0  0  0  0
   -1.0699   -0.8416   -7.5628 H   0  0  0  0  0  0  0  0  0  0  0  0
 22 24  2  0  0  0  0
 24 26  1  0  0  0  0
 25 26  2  0  0  0  0
 23 25  1  0  0  0  0
 21 22  1  0  0  0  0
 22 23  1  0  0  0  0
  1  3  1  0  0  0  0
  1  7  1  0  0  0  0
  1  2  2  0  0  0  0
 35 36  1  0  0  0  0
 36 44  1  0  0  0  0
 36 37  2  0  0  0  0
  8  9  1  0  0  0  0
  9 17  1  0  0  0  0
  9 10  2  0  0  0  0
 18 19  1  0  0  0  0
 19 34  1  0  0  0  0
 19 20  2  0  0  0  0
 35 38  1  0  0  0  0
  8 11  1  0  0  0  0
 44 45  1  0  0  0  0
 18 21  1  0  0  0  0
 34 35  1  0  0  0  0
  7  8  1  0  0  0  0
 17 18  1  0  0  0  0
 24 32  1  0  0  0  0
 25 33  1  0  0  0  0
  3  4  1  0  0  0  0
  3  5  1  0  0  0  0
  3  6  1  0  0  0  0
 38 41  1  0  0  0  0
 38 42  1  0  0  0  0
 38 43  1  0  0  0  0
 11 14  1  0  0  0  0
 11 15  1  0  0  0  0
 11 16  1  0  0  0  0
 45 47  1  0  0  0  0
 45 48  1  0  0  0  0
 45 49  1  0  0  0  0
 21 29  1  0  0  0  0
 21 30  1  0  0  0  0
 35 40  1  0  0  0  0
  8 13  1  0  0  0  0
 18 28  1  0  0  0  0
 23 31  1  0  0  0  0
 44 46  1  0  0  0  0
  7 12  1  0  0  0  0
 34 39  1  0  0  0  0
 17 27  1  0  0  0  0
M  END
$$$$

  -OEChem-05262214473D

 49 49  0     1  0  0  0  0  0999 V2000
   -1.5619    0.5658    3.7981 C   0  0  0  0  0  0  0  0  0  0  0  0
   -0.6145   -0.0489    3.3224 O   0  0  0  0  0  0  0  0  0  0  0  0
   -1.9938    0.2834    5.1988 C   0  0  0  0  0  0  0  0  0  0  0  0
   -2.7535   -0.5129    5.2522 H   0  0  0  0  0  0  0  0  0  0  0  0
   -1.1626   -0.0642    5.8331 H   0  0  0  0  0  0  0  0  0  0  0  0
   -2.4318    1.1383    5.7384 H   0  0  0  0  0  0  0  0  0  0  0  0
   -2.3116    1.5383    3.1570 N   0  0  0  0  0  0  0  0  0  0  0  0
   -2.0648    1.9643    1.8046 C   0  0  2  0  0  0  0  0  0  0  0  0
   -0.7298    1.3789    1.3634 C   0  0  0  0  0  0  0  0  0  0  0  0
    0.1423    1.0262    2.1547 O   0  0  0  0  0  0  0  0  0  0  0  0
   -2.0560    3.4811    1.6952 C   0  0  0  0  0  0  0  0  0  0  0  0
   -3.0767    1.9741    3.6688 H   0  0  0  0  0  0  0  0  0  0  0  0
   -2.8689    1.5458    1.1895 H   0  0  0  0  0  0  0  0  0  0  0  0
   -1.2569    3.9183    2.3049 H   0  0  0  0  0  0  0  0  0  0  0  0
   -1.8965    3.8033    0.6609 H   0  0  0  0  0  0  0  0  0  0  0  0
   -3.0062    3.9023    2.0409 H   0  0  0  0  0  0  0  0  0  0  0  0
   -0.6071    1.3358   -0.0200 N   0  0  0  0  0  0  0  0  0  0  0  0
    0.5702    0.8350   -0.6836 C   0  0  2  0  0  0  0  0  0  0  0  0
    0.1205    0.2448   -2.0154 C   0  0  0  0  0  0  0  0  0  0  0  0
    0.8930   -0.3014   -2.8002 O   0  0  0  0  0  0  0  0  0  0  0  0
    1.2982   -0.2254    0.1505 C   0  0  0  0  0  0  0  0  0  0  0  0
    1.8410    0.3237    1.4473 C   0  0  0  0  0  0  0  0  0  0  0  0
    2.9522    1.1166    1.5066 N   0  0  0  0  0  0  0  0  0  0  0  0
    1.4279    0.1982    2.7527 C   0  0  0  0  0  0  0  0  0  0  0  0
    3.1615    1.4313    2.8206 C   0  0  0  0  0  0  0  0  0  0  0  0
    2.2540    0.8902    3.6026 N   0  0  0  0  0  0  0  0  0  0  0  0
   -1.3903    1.6325   -0.5973 H   0  0  0  0  0  0  0  0  0  0  0  0
    1.2138    1.7018   -0.8743 H   0  0  0  0  0  0  0  0  0  0  0  0
    2.1150   -0.6727   -0.4320 H   0  0  0  0  0  0  0  0  0  0  0  0
    0.6227   -1.0585    0.3858 H   0  0  0  0  0  0  0  0  0  0  0  0
    3.5189    1.4165    0.7241 H   0  0  0  0  0  0  0  0  0  0  0  0
    0.5779   -0.3548    3.1264 H   0  0  0  0  0  0  0  0  0  0  0  0
    3.9863    2.0536    3.1376 H   0  0  0  0  0  0  0  0  0  0  0  0
   -1.2509    0.3575   -2.1971 N   0  0  0  0  0  0  0  0  0  0  0  0
   -1.9404   -0.1418   -3.3650 C   0  0  2  0  0  0  0  0  0  0  0  0
   -1.2093    0.3720   -4.5983 C   0  0  0  0  0  0  0  0  0  0  0  0
   -0.4898    1.3686   -4.5849 O   0  0  0  0  0  0  0  0  0  0  0  0
   -3.3974    0.2940   -3.3760 C   0  0  0  0  0  0  0  0  0  0  0  0
   -1.7975    0.8139   -1.4727 H   0  0  0  0  0  0  0  0  0  0  0  0
   -1.8733   -1.2346   -3.3288 H   0  0  0  0  0  0  0  0  0  0  0  0
   -3.4847    1.3860   -3.4121 H   0  0  0  0  0  0  0  0  0  0  0  0
   -3.9254   -0.1088   -4.2465 H   0  0  0  0  0  0  0  0  0  0  0  0
   -3.9141   -0.0510   -2.4739 H   0  0  0  0  0  0  0  0  0  0  0  0
   -1.4890   -0.3882   -5.7253 N   0  0  0  0  0  0  0  0  0  0  0  0
   -0.9262   -0.0951   -7.0227 C   0  0  0  0  0  0  0  0  0  0  0  0
   -2.0816   -1.2087   -5.6401 H   0  0  0  0  0  0  0  0  0  0  0  0
   -1.6139    0.5555   -7.5828 H   0  0  0  0  0  0  0  0  0  0  0  0
    0.0401    0.4152   -6.8963 H   0  0  0  0  0  0  0  0  0  0  0  0
   -0.7757   -1.0331   -7.5773 H   0  0  0  0  0  0  0  0  0  0  0  0
 22 24  2  0  0  0  0
 24 26  1  0  0  0  0
 25 26  2  0  0  0  0
 23 25  1  0  0  0  0
 21 22  1  0  0  0  0
 22 23  1  0  0  0  0
  1  3  1  0  0  0  0
  1  7  1  0  0  0  0
  1  2  2  0  0  0  0
 35 36  1  0  0  0  0
 36 44  1  0  0  0  0
 36 37  2  0  0  0  0
  8  9  1  0  0  0  0
  9 17  1  0  0  0  0
  9 10  2  0  0  0  0
 18 19  1  0  0  0  0
 19 34  1  0  0  0  0
 19 20  2  0  0  0  0
 35 38  1  0  0  0  0
  8 11  1  0  0  0  0
 44 45  1  0  0  0  0
 18 21  1  0  0  0  0
 34 35  1  0  0  0  0
  7  8  1  0  0  0  0
 17 18  1  0  0  0  0
 24 32  1  0  0  0  0
 25 33  1  0  0  0  0
  3  4  1  0  0  0  0
  3  5  1  0  0  0  0
  3  6  1  0  0  0  0
 38 41  1  0  0  0  0
 38 42  1  0  0  0  0
 38 43  1  0  0  0  0
 11 14  1  0  0  0  0
 11 15  1  0  0  0  0
 11 16  1  0  0  0  0
 45 47  1  0  0  0  0
 45 48  1  0  0  0  0
 45 49  1  0  0  0  0
 21 29  1  0  0  0  0
 21 30  1  0  0  0  0
 35 40  1  0  0  0  0
  8 13  1  0  0  0  0
 18 28  1  0  0  0  0
 23 31  1  0  0  0  0
 44 46  1  0  0  0  0
  7 12  1  0  0  0  0
 34 39  1  0  0  0  0
 17 27  1  0  0  0  0
M  END
$$$$

  -OEChem-05262214473D

 49 49  0     1  0  0  0  0  0999 V2000
   -1.5619    0.5658    3.7981 C   0  0  0  0  0  0  0  0  0  0  0  0
   -0.6145   -0.0489    3.3224 O   0  0  0  0  0  0  0  0  0  0  0  0
   -1.9938    0.2834    5.1988 C   0  0  0  0  0  0  0  0  0  0  0  0
   -2.7535   -0.5129    5.2522 H   0  0  0  0  0  0  0  0  0  0  0  0
   -1.1626   -0.0642    5.8331 H   0  0  0  0  0  0  0  0  0  0  0  0
   -2.4318    1.1383    5.7384 H   0  0  0  0  0  0  0  0  0  0  0  0
   -2.3116    1.5383    3.1570 N   0  0  0  0  0  0  0  0  0  0  0  0
   -2.0648    1.9643    1.8046 C   0  0  2  0  0  0  0  0  0  0  0  0
   -0.7298    1.3789    1.3634 C   0  0  0  0  0  0  0  0  0  0  0  0
    0.1423    1.0262    2.1547 O   0  0  0  0  0  0  0  0  0  0  0  0
   -2.0560    3.4811    1.6952 C   0  0  0  0  0  0  0  0  0  0  0  0
   -3.0767    1.9741    3.6688 H   0  0  0  0  0  0  0  0  0  0  0  0
   -2.8689    1.5458    1.1895 H   0  0  0  0  0  0  0  0  0  0  0  0
   -1.2569    3.9183    2.3049 H   0  0  0  0  0  0  0  0  0  0  0  0
   -1.8965    3.8033    0.6609 H   0  0  0  0  0  0  0  0  0  0  0  0
   -3.0062    3.9023    2.0409 H   0  0  0  0  0  0  0  0  0  0  0  0
   -0.6071    1.3358   -0.0200 N   0  0  0  0  0  0  0  0  0  0  0  0
    0.5702    0.8350   -0.6836 C   0  0  2  0  0  0  0  0  0  0  0  0
    0.1205    0.2448   -2.0154 C   0  0  0  0  0  0  0  0  0  0  0  0
    0.8150   -0.5262   -2.6742 O   0  0  0  0  0  0  0  0  0  0  0  0
    1.2982   -0.2254    0.1505 C   0  0  0  0  0  0  0  0  0  0  0  0
    1.8410    0.3237    1.4473 C   0  0  0  0  0  0  0  0  0  0  0  0
    2.9522    1.1166    1.5066 N   0  0  0  0  0  0  0  0  0  0  0  0
    1.4279    0.1982    2.7527 C   0  0  0  0  0  0  0  0  0  0  0  0
    3.1615    1.4313    2.8206 C   0  0  0  0  0  0  0  0  0  0  0  0
    2.2540    0.8902    3.6026 N   0  0  0  0  0  0  0  0  0  0  0  0
   -1.3903    1.6325   -0.5973 H   0  0  0  0  0  0  0  0  0  0  0  0
    1.2138    1.7018   -0.8743 H   0  0  0  0  0  0  0  0  0  0  0  0
    2.1150   -0.6727   -0.4320 H   0  0  0  0  0  0  0  0  0  0  0  0
    0.6227   -1.0585    0.3858 H   0  0  0  0  0  0  0  0  0  0  0  0
    3.5189    1.4165    0.7241 H   0  0  0  0  0  0  0  0  0  0  0  0
    0.5779   -0.3548    3.1264 H   0  0  0  0  0  0  0  0  0  0  0  0
    3.9863    2.0536    3.1376 H   0  0  0  0  0  0  0  0  0  0  0  0
   -1.1657    0.6430   -2.3524 N   0  0  0  0  0  0  0  0  0  0  0  0
   -1.8419    0.2087   -3.5536 C   0  0  2  0  0  0  0  0  0  0  0  0
   -0.9025    0.4368   -4.7306 C   0  0  0  0  0  0  0  0  0  0  0  0
    0.0225    1.2459   -4.7035 O   0  0  0  0  0  0  0  0  0  0  0  0
   -3.1522    0.9547   -3.7515 C   0  0  0  0  0  0  0  0  0  0  0  0
   -1.6566    1.2713   -1.7230 H   0  0  0  0  0  0  0  0  0  0  0  0
   -2.0315   -0.8641   -3.4395 H   0  0  0  0  0  0  0  0  0  0  0  0
   -2.9824    2.0313   -3.8677 H   0  0  0  0  0  0  0  0  0  0  0  0
   -3.6769    0.6044   -4.6465 H   0  0  0  0  0  0  0  0  0  0  0  0
   -3.8148    0.8138   -2.8907 H   0  0  0  0  0  0  0  0  0  0  0  0
   -1.2453   -0.3382   -5.8297 N   0  0  0  0  0  0  0  0  0  0  0  0
   -0.5140   -0.2927   -7.0743 C   0  0  0  0  0  0  0  0  0  0  0  0
   -2.0160   -0.9958   -5.7566 H   0  0  0  0  0  0  0  0  0  0  0  0
   -0.9795    0.4427   -7.7470 H   0  0  0  0  0  0  0  0  0  0  0  0
    0.5279   -0.0007   -6.8767 H   0  0  0  0  0  0  0  0  0  0  0  0
   -0.5332   -1.2856   -7.5472 H   0  0  0  0  0  0  0  0  0  0  0  0
 22 24  2  0  0  0  0
 24 26  1  0  0  0  0
 25 26  2  0  0  0  0
 23 25  1  0  0  0  0
 21 22  1  0  0  0  0
 22 23  1  0  0  0  0
  1  3  1  0  0  0  0
  1  7  1  0  0  0  0
  1  2  2  0  0  0  0
 35 36  1  0  0  0  0
 36 44  1  0  0  0  0
 36 37  2  0  0  0  0
  8  9  1  0  0  0  0
  9 17  1  0  0  0  0
  9 10  2  0  0  0  0
 18 19  1  0  0  0  0
 19 34  1  0  0  0  0
 19 20  2  0  0  0  0
 35 38  1  0  0  0  0
  8 11  1  0  0  0  0
 44 45  1  0  0  0  0
 18 21  1  0  0  0  0
 34 35  1  0  0  0  0
  7  8  1  0  0  0  0
 17 18  1  0  0  0  0
 24 32  1  0  0  0  0
 25 33  1  0  0  0  0
  3  4  1  0  0  0  0
  3  5  1  0  0  0  0
  3  6  1  0  0  0  0
 38 41  1  0  0  0  0
 38 42  1  0  0  0  0
 38 43  1  0  0  0  0
 11 14  1  0  0  0  0
 11 15  1  0  0  0  0
 11 16  1  0  0  0  0
 45 47  1  0  0  0  0
 45 48  1  0  0  0  0
 45 49  1  0  0  0  0
 21 29  1  0  0  0  0
 21 30  1  0  0  0  0
 35 40  1  0  0  0  0
  8 13  1  0  0  0  0
 18 28  1  0  0  0  0
 23 31  1  0  0  0  0
 44 46  1  0  0  0  0
  7 12  1  0  0  0  0
 34 39  1  0  0  0  0
 17 27  1  0  0  0  0
M  END
$$$$

  -OEChem-05262214473D

 49 49  0     1  0  0  0  0  0999 V2000
   -1.5619    0.5658    3.7981 C   0  0  0  0  0  0  0  0  0  0  0  0
   -0.6145   -0.0489    3.3224 O   0  0  0  0  0  0  0  0  0  0  0  0
   -1.9938    0.2834    5.1988 C   0  0  0  0  0  0  0  0  0  0  0  0
   -2.7535   -0.5129    5.2522 H   0  0  0  0  0  0  0  0  0  0  0  0
   -1.1626   -0.0642    5.8331 H   0  0  0  0  0  0  0  0  0  0  0  0
   -2.4318    1.1383    5.7384 H   0  0  0  0  0  0  0  0  0  0  0  0
   -2.3116    1.5383    3.1570 N   0  0  0  0  0  0  0  0  0  0  0  0
   -2.0648    1.9643    1.8046 C   0  0  2  0  0  0  0  0  0  0  0  0
   -0.7298    1.3789    1.3634 C   0  0  0  0  0  0  0  0  0  0  0  0
    0.1423    1.0262    2.1547 O   0  0  0  0  0  0  0  0  0  0  0  0
   -2.0560    3.4811    1.6952 C   0  0  0  0  0  0  0  0  0  0  0  0
   -3.0767    1.9741    3.6688 H   0  0  0  0  0  0  0  0  0  0  0  0
   -2.8689    1.5458    1.1895 H   0  0  0  0  0  0  0  0  0  0  0  0
   -1.2569    3.9183    2.3049 H   0  0  0  0  0  0  0  0  0  0  0  0
   -1.8965    3.8033    0.6609 H   0  0  0  0  0  0  0  0  0  0  0  0
   -3.0062    3.9023    2.0409 H   0  0  0  0  0  0  0  0  0  0  0  0
   -0.6071    1.3358   -0.0200 N   0  0  0  0  0  0  0  0  0  0  0  0
    0.5702    0.8350   -0.6836 C   0  0  2  0  0  0  0  0  0  0  0  0
    0.1205    0.2448   -2.0154 C   0  0  0  0  0  0  0  0  0  0  0  0
    0.6763   -0.7161   -2.5432 O   0  0  0  0  0  0  0  0  0  0  0  0
    1.2982   -0.2254    0.1505 C   0  0  0  0  0  0  0  0  0  0  0  0
    1.8410    0.3237    1.4473 C   0  0  0  0  0  0  0  0  0  0  0  0
    2.9522    1.1166    1.5066 N   0  0  0  0  0  0  0  0  0  0  0  0
    1.4279    0.1982    2.7527 C   0  0  0  0  0  0  0  0  0  0  0  0
    3.1615    1.4313    2.8206 C   0  0  0  0  0  0  0  0  0  0  0  0
    2.2540    0.8902    3.6026 N   0  0  0  0  0  0  0  0  0  0  0  0
   -1.3903    1.6325   -0.5973 H   0  0  0  0  0  0  0  0  0  0  0  0
    1.2138    1.7018   -0.8743 H   0  0  0  0  0  0  0  0  0  0  0  0
    2.1150   -0.6727   -0.4320 H   0  0  0  0  0  0  0  0  0  0  0  0
    0.6227   -1.0585    0.3858 H   0  0  0  0  0  0  0  0  0  0  0  0
    3.5189    1.4165    0.7241 H   0  0  0  0  0  0  0  0  0  0  0  0
    0.5779   -0.3548    3.1264 H   0  0  0  0  0  0  0  0  0  0  0  0
    3.9863    2.0536    3.1376 H   0  0  0  0  0  0  0  0  0  0  0  0
   -1.0033    0.8877   -2.5156 N   0  0  0  0  0  0  0  0  0  0  0  0
   -1.6485    0.5107   -3.7527 C   0  0  2  0  0  0  0  0  0  0  0  0
   -0.5783    0.4200   -4.8326 C   0  0  0  0  0  0  0  0  0  0  0  0
    0.5015    1.0025   -4.7574 O   0  0  0  0  0  0  0  0  0  0  0  0
   -2.7284    1.5088   -4.1402 C   0  0  0  0  0  0  0  0  0  0  0  0
   -1.3919    1.6621   -1.9856 H   0  0  0  0  0  0  0  0  0  0  0  0
   -2.0894   -0.4790   -3.5907 H   0  0  0  0  0  0  0  0  0  0  0  0
   -2.3056    2.5063   -4.3067 H   0  0  0  0  0  0  0  0  0  0  0  0
   -3.2356    1.2066   -5.0624 H   0  0  0  0  0  0  0  0  0  0  0  0
   -3.4815    1.5948   -3.3494 H   0  0  0  0  0  0  0  0  0  0  0  0
   -0.9882   -0.3530   -5.9099 N   0  0  0  0  0  0  0  0  0  0  0  0
   -0.1554   -0.5806   -7.0678 C   0  0  0  0  0  0  0  0  0  0  0  0
   -1.8929   -0.8138   -5.8788 H   0  0  0  0  0  0  0  0  0  0  0  0
   -0.3758    0.1778   -7.8334 H   0  0  0  0  0  0  0  0  0  0  0  0
    0.9032   -0.5113   -6.7772 H   0  0  0  0  0  0  0  0  0  0  0  0
   -0.3592   -1.5821   -7.4746 H   0  0  0  0  0  0  0  0  0  0  0  0
 22 24  2  0  0  0  0
 24 26  1  0  0  0  0
 25 26  2  0  0  0  0
 23 25  1  0  0  0  0
 21 22  1  0  0  0  0
 22 23  1  0  0  0  0
  1  3  1  0  0  0  0
  1  7  1  0  0  0  0
  1  2  2  0  0  0  0
 35 36  1  0  0  0  0
 36 44  1  0  0  0  0
 36 37  2  0  0  0  0
  8  9  1  0  0  0  0
  9 17  1  0  0  0  0
  9 10  2  0  0  0  0
 18 19  1  0  0  0  0
 19 34  1  0  0  0  0
 19 20  2  0  0  0  0
 35 38  1  0  0  0  0
  8 11  1  0  0  0  0
 44 45  1  0  0  0  0
 18 21  1  0  0  0  0
 34 35  1  0  0  0  0
  7  8  1  0  0  0  0
 17 18  1  0  0  0  0
 24 32  1  0  0  0  0
 25 33  1  0  0  0  0
  3  4  1  0  0  0  0
  3  5  1  0  0  0  0
  3  6  1  0  0  0  0
 38 41  1  0  0  0  0
 38 42  1  0  0  0  0
 38 43  1  0  0  0  0
 11 14  1  0  0  0  0
 11 15  1  0  0  0  0
 11 16  1  0  0  0  0
 45 47  1  0  0  0  0
 45 48  1  0  0  0  0
 45 49  1  0  0  0  0
 21 29  1  0  0  0  0
 21 30  1  0  0  0  0
 35 40  1  0  0  0  0
  8 13  1  0  0  0  0
 18 28  1  0  0  0  0
 23 31  1  0  0  0  0
 44 46  1  0  0  0  0
  7 12  1  0  0  0  0
 34 39  1  0  0  0  0
 17 27  1  0  0  0  0
M  END
$$$$

  -OEChem-05262214473D

 49 49  0     1  0  0  0  0  0999 V2000
   -1.5619    0.5658    3.7981 C   0  0  0  0  0  0  0  0  0  0  0  0
   -0.6145   -0.0489    3.3224 O   0  0  0  0  0  0  0  0  0  0  0  0
   -1.9938    0.2834    5.1988 C   0  0  0  0  0  0  0  0  0  0  0  0
   -2.7535   -0.5129    5.2522 H   0  0  0  0  0  0  0  0  0  0  0  0
   -1.1626   -0.0642    5.8331 H   0  0  0  0  0  0  0  0  0  0  0  0
   -2.4318    1.1383    5.7384 H   0  0  0  0  0  0  0  0  0  0  0  0
   -2.3116    1.5383    3.1570 N   0  0  0  0  0  0  0  0  0  0  0  0
   -2.0648    1.9643    1.8046 C   0  0  2  0  0  0  0  0  0  0  0  0
   -0.7298    1.3789    1.3634 C   0  0  0  0  0  0  0  0  0  0  0  0
    0.1423    1.0262    2.1547 O   0  0  0  0  0  0  0  0  0  0  0  0
   -2.0560    3.4811    1.6952 C   0  0  0  0  0  0  0  0  0  0  0  0
   -3.0767    1.9741    3.6688 H   0  0  0  0  0  0  0  0  0  0  0  0
   -2.8689    1.5458    1.1895 H   0  0  0  0  0  0  0  0  0  0  0  0
   -1.2569    3.9183    2.3049 H   0  0  0  0  0  0  0  0  0  0  0  0
   -1.8965    3.8033    0.6609 H   0  0  0  0  0  0  0  0  0  0  0  0
   -3.0062    3.9023    2.0409 H   0  0  0  0  0  0  0  0  0  0  0  0
   -0.6071    1.3358   -0.0200 N   0  0  0  0  0  0  0  0  0  0  0  0
    0.5702    0.8350   -0.6836 C   0  0  2  0  0  0  0  0  0  0  0  0
    0.1205    0.2448   -2.0154 C   0  0  0  0  0  0  0  0  0  0  0  0
    0.4863   -0.8581   -2.4161 O   0  0  0  0  0  0  0  0  0  0  0  0
    1.2982   -0.2254    0.1505 C   0  0  0  0  0  0  0  0  0  0  0  0
    1.8410    0.3237    1.4473 C   0  0  0  0  0  0  0  0  0  0  0  0
    2.9522    1.1166    1.5066 N   0  0  0  0  0  0  0  0  0  0  0  0
    1.4279    0.1982    2.7527 C   0  0  0  0  0  0  0  0  0  0  0  0
    3.1615    1.4313    2.8206 C   0  0  0  0  0  0  0  0  0  0  0  0
    2.2540    0.8902    3.6026 N   0  0  0  0  0  0  0  0  0  0  0  0
   -1.3903    1.6325   -0.5973 H   0  0  0  0  0  0  0  0  0  0  0  0
    1.2138    1.7018   -0.8743 H   0  0  0  0  0  0  0  0  0  0  0  0
    2.1150   -0.6727   -0.4320 H   0  0  0  0  0  0  0  0  0  0  0  0
    0.6227   -1.0585    0.3858 H   0  0  0  0  0  0  0  0  0  0  0  0
    3.5189    1.4165    0.7241 H   0  0  0  0  0  0  0  0  0  0  0  0
    0.5779   -0.3548    3.1264 H   0  0  0  0  0  0  0  0  0  0  0  0
    3.9863    2.0536    3.1376 H   0  0  0  0  0  0  0  0  0  0  0  0
   -0.7748    1.0748   -2.6757 N   0  0  0  0  0  0  0  0  0  0  0  0
   -1.3735    0.7434   -3.9487 C   0  0  2  0  0  0  0  0  0  0  0  0
   -0.2588    0.3227   -4.8974 C   0  0  0  0  0  0  0  0  0  0  0  0
    0.9146    0.6549   -4.7428 O   0  0  0  0  0  0  0  0  0  0  0  0
   -2.1549    1.9185   -4.5154 C   0  0  0  0  0  0  0  0  0  0  0  0
   -1.0217    1.9598   -2.2425 H   0  0  0  0  0  0  0  0  0  0  0  0
   -2.0431   -0.1054   -3.7719 H   0  0  0  0  0  0  0  0  0  0  0  0
   -1.5006    2.7785   -4.6992 H   0  0  0  0  0  0  0  0  0  0  0  0
   -2.6314    1.6568   -5.4659 H   0  0  0  0  0  0  0  0  0  0  0  0
   -2.9370    2.2389   -3.8187 H   0  0  0  0  0  0  0  0  0  0  0  0
   -0.7352   -0.4315   -5.9606 N   0  0  0  0  0  0  0  0  0  0  0  0
    0.1252   -0.9394   -7.0036 C   0  0  0  0  0  0  0  0  0  0  0  0
   -1.7205   -0.6753   -5.9984 H   0  0  0  0  0  0  0  0  0  0  0  0
    0.1561   -0.2212   -7.8362 H   0  0  0  0  0  0  0  0  0  0  0  0
    1.1403   -1.0817   -6.6044 H   0  0  0  0  0  0  0  0  0  0  0  0
   -0.2654   -1.9023   -7.3644 H   0  0  0  0  0  0  0  0  0  0  0  0
 22 24  2  0  0  0  0
 24 26  1  0  0  0  0
 25 26  2  0  0  0  0
 23 25  1  0  0  0  0
 21 22  1  0  0  0  0
 22 23  1  0  0  0  0
  1  3  1  0  0  0  0
  1  7  1  0  0  0  0
  1  2  2  0  0  0  0
 35 36  1  0  0  0  0
 36 44  1  0  0  0  0
 36 37  2  0  0  0  0
  8  9  1  0  0  0  0
  9 17  1  0  0  0  0
  9 10  2  0  0  0  0
 18 19  1  0  0  0  0
 19 34  1  0  0  0  0
 19 20  2  0  0  0  0
 35 38  1  0  0  0  0
  8 11  1  0  0  0  0
 44 45  1  0  0  0  0
 18 21  1  0  0  0  0
 34 35  1  0  0  0  0
  7  8  1  0  0  0  0
 17 18  1  0  0  0  0
 24 32  1  0  0  0  0
 25 33  1  0  0  0  0
  3  4  1  0  0  0  0
  3  5  1  0  0  0  0
  3  6  1  0  0  0  0
 38 41  1  0  0  0  0
 38 42  1  0  0  0  0
 38 43  1  0  0  0  0
 11 14  1  0  0  0  0
 11 15  1  0  0  0  0
 11 16  1  0  0  0  0
 45 47  1  0  0  0  0
 45 48  1  0  0  0  0
 45 49  1  0  0  0  0
 21 29  1  0  0  0  0
 21 30  1  0  0  0  0
 35 40  1  0  0  0  0
  8 13  1  0  0  0  0
 18 28  1  0  0  0  0
 23 31  1  0  0  0  0
 44 46  1  0  0  0  0
  7 12  1  0  0  0  0
 34 39  1  0  0  0  0
 17 27  1  0  0  0  0
M  END
$$$$

  -OEChem-05262214473D

 49 49  0     1  0  0  0  0  0999 V2000
   -1.5619    0.5658    3.7981 C   0  0  0  0  0  0  0  0  0  0  0  0
   -0.6145   -0.0489    3.3224 O   0  0  0  0  0  0  0  0  0  0  0  0
   -1.9938    0.2834    5.1988 C   0  0  0  0  0  0  0  0  0  0  0  0
   -2.7535   -0.5129    5.2522 H   0  0  0  0  0  0  0  0  0  0  0  0
   -1.1626   -0.0642    5.8331 H   0  0  0  0  0  0  0  0  0  0  0  0
   -2.4318    1.1383    5.7384 H   0  0  0  0  0  0  0  0  0  0  0  0
   -2.3116    1.5383    3.1570 N   0  0  0  0  0  0  0  0  0  0  0  0
   -2.0648    1.9643    1.8046 C   0  0  2  0  0  0  0  0  0  0  0  0
   -0.7298    1.3789    1.3634 C   0  0  0  0  0  0  0  0  0  0  0  0
    0.1423    1.0262    2.1547 O   0  0  0  0  0  0  0  0  0  0  0  0
   -2.0560    3.4811    1.6952 C   0  0  0  0  0  0  0  0  0  0  0  0
   -3.0767    1.9741    3.6688 H   0  0  0  0  0  0  0  0  0  0  0  0
   -2.8689    1.5458    1.1895 H   0  0  0  0  0  0  0  0  0  0  0  0
   -1.2569    3.9183    2.3049 H   0  0  0  0  0  0  0  0  0  0  0  0
   -1.8965    3.8033    0.6609 H   0  0  0  0  0  0  0  0  0  0  0  0
   -3.0062    3.9023    2.0409 H   0  0  0  0  0  0  0  0  0  0  0  0
   -0.6071    1.3358   -0.0200 N   0  0  0  0  0  0  0  0  0  0  0  0
    0.5702    0.8350   -0.6836 C   0  0  2  0  0  0  0  0  0  0  0  0
    0.1205    0.2448   -2.0154 C   0  0  0  0  0  0  0  0  0  0  0  0
    0.2579   -0.9427   -2.3015 O   0  0  0  0  0  0  0  0  0  0  0  0
    1.2982   -0.2254    0.1505 C   0  0  0  0  0  0  0  0  0  0  0  0
    1.8410    0.3237    1.4473 C   0  0  0  0  0  0  0  0  0  0  0  0
    2.9522    1.1166    1.5066 N   0  0  0  0  0  0  0  0  0  0  0  0
    1.4279    0.1982    2.7527 C   0  0  0  0  0  0  0  0  0  0  0  0
    3.1615    1.4313    2.8206 C   0  0  0  0  0  0  0  0  0  0  0  0
    2.2540    0.8902    3.6026 N   0  0  0  0  0  0  0  0  0  0  0  0
   -1.3903    1.6325   -0.5973 H   0  0  0  0  0  0  0  0  0  0  0  0
    1.2138    1.7018   -0.8743 H   0  0  0  0  0  0  0  0  0  0  0  0
    2.1150   -0.6727   -0.4320 H   0  0  0  0  0  0  0  0  0  0  0  0
    0.6227   -1.0585    0.3858 H   0  0  0  0  0  0  0  0  0  0  0  0
    3.5189    1.4165    0.7241 H   0  0  0  0  0  0  0  0  0  0  0  0
    0.5779   -0.3548    3.1264 H   0  0  0  0  0  0  0  0  0  0  0  0
    3.9863    2.0536    3.1376 H   0  0  0  0  0  0  0  0  0  0  0  0
   -0.4957    1.1917   -2.8218 N   0  0  0  0  0  0  0  0  0  0  0  0
   -1.0356    0.8910   -4.1282 C   0  0  2  0  0  0  0  0  0  0  0  0
    0.0344    0.1515   -4.9205 C   0  0  0  0  0  0  0  0  0  0  0  0
    1.2335    0.2269   -4.6609 O   0  0  0  0  0  0  0  0  0  0  0  0
   -1.4706    2.1560   -4.8517 C   0  0  0  0  0  0  0  0  0  0  0  0
   -0.5710    2.1439   -2.4763 H   0  0  0  0  0  0  0  0  0  0  0  0
   -1.8958    0.2312   -3.9708 H   0  0  0  0  0  0  0  0  0  0  0  0
   -0.6221    2.8295   -5.0184 H   0  0  0  0  0  0  0  0  0  0  0  0
   -1.9056    1.9242   -5.8295 H   0  0  0  0  0  0  0  0  0  0  0  0
   -2.2184    2.7020   -4.2666 H   0  0  0  0  0  0  0  0  0  0  0  0
   -0.5035   -0.5684   -5.9781 N   0  0  0  0  0  0  0  0  0  0  0  0
    0.3087   -1.3444   -6.8860 C   0  0  0  0  0  0  0  0  0  0  0  0
   -1.5108   -0.5895   -6.1072 H   0  0  0  0  0  0  0  0  0  0  0  0
    0.5799   -0.7271   -7.7551 H   0  0  0  0  0  0  0  0  0  0  0  0
    1.2230   -1.6731   -6.3703 H   0  0  0  0  0  0  0  0  0  0  0  0
   -0.2582   -2.2244   -7.2241 H   0  0  0  0  0  0  0  0  0  0  0  0
 22 24  2  0  0  0  0
 24 26  1  0  0  0  0
 25 26  2  0  0  0  0
 23 25  1  0  0  0  0
 21 22  1  0  0  0  0
 22 23  1  0  0  0  0
  1  3  1  0  0  0  0
  1  7  1  0  0  0  0
  1  2  2  0  0  0  0
 35 36  1  0  0  0  0
 36 44  1  0  0  0  0
 36 37  2  0  0  0  0
  8  9  1  0  0  0  0
  9 17  1  0  0  0  0
  9 10  2  0  0  0  0
 18 19  1  0  0  0  0
 19 34  1  0  0  0  0
 19 20  2  0  0  0  0
 35 38  1  0  0  0  0
  8 11  1  0  0  0  0
 44 45  1  0  0  0  0
 18 21  1  0  0  0  0
 34 35  1  0  0  0  0
  7  8  1  0  0  0  0
 17 18  1  0  0  0  0
 24 32  1  0  0  0  0
 25 33  1  0  0  0  0
  3  4  1  0  0  0  0
  3  5  1  0  0  0  0
  3  6  1  0  0  0  0
 38 41  1  0  0  0  0
 38 42  1  0  0  0  0
 38 43  1  0  0  0  0
 11 14  1  0  0  0  0
 11 15  1  0  0  0  0
 11 16  1  0  0  0  0
 45 47  1  0  0  0  0
 45 48  1  0  0  0  0
 45 49  1  0  0  0  0
 21 29  1  0  0  0  0
 21 30  1  0  0  0  0
 35 40  1  0  0  0  0
  8 13  1  0  0  0  0
 18 28  1  0  0  0  0
 23 31  1  0  0  0  0
 44 46  1  0  0  0  0
  7 12  1  0  0  0  0
 34 39  1  0  0  0  0
 17 27  1  0  0  0  0
M  END
$$$$

  -OEChem-05262214473D

 49 49  0     1  0  0  0  0  0999 V2000
   -1.5619    0.5658    3.7981 C   0  0  0  0  0  0  0  0  0  0  0  0
   -0.6145   -0.0489    3.3224 O   0  0  0  0  0  0  0  0  0  0  0  0
   -1.9938    0.2834    5.1988 C   0  0  0  0  0  0  0  0  0  0  0  0
   -2.7535   -0.5129    5.2522 H   0  0  0  0  0  0  0  0  0  0  0  0
   -1.1626   -0.0642    5.8331 H   0  0  0  0  0  0  0  0  0  0  0  0
   -2.4318    1.1383    5.7384 H   0  0  0  0  0  0  0  0  0  0  0  0
   -2.3116    1.5383    3.1570 N   0  0  0  0  0  0  0  0  0  0  0  0
   -2.0648    1.9643    1.8046 C   0  0  2  0  0  0  0  0  0  0  0  0
   -0.7298    1.3789    1.3634 C   0  0  0  0  0  0  0  0  0  0  0  0
    0.1423    1.0262    2.1547 O   0  0  0  0  0  0  0  0  0  0  0  0
   -2.0560    3.4811    1.6952 C   0  0  0  0  0  0  0  0  0  0  0  0
   -3.0767    1.9741    3.6688 H   0  0  0  0  0  0  0  0  0  0  0  0
   -2.8689    1.5458    1.1895 H   0  0  0  0  0  0  0  0  0  0  0  0
   -1.2569    3.9183    2.3049 H   0  0  0  0  0  0  0  0  0  0  0  0
   -1.8965    3.8033    0.6609 H   0  0  0  0  0  0  0  0  0  0  0  0
   -3.0062    3.9023    2.0409 H   0  0  0  0  0  0  0  0  0  0  0  0
   -0.6071    1.3358   -0.0200 N   0  0  0  0  0  0  0  0  0  0  0  0
    0.5702    0.8350   -0.6836 C   0  0  2  0  0  0  0  0  0  0  0  0
    0.1205    0.2448   -2.0154 C   0  0  0  0  0  0  0  0  0  0  0  0
    0.0067   -0.9640   -2.2073 O   0  0  0  0  0  0  0  0  0  0  0  0
    1.2982   -0.2254    0.1505 C   0  0  0  0  0  0  0  0  0  0  0  0
    1.8410    0.3237    1.4473 C   0  0  0  0  0  0  0  0  0  0  0  0
    2.9522    1.1166    1.5066 N   0  0  0  0  0  0  0  0  0  0  0  0
    1.4279    0.1982    2.7527 C   0  0  0  0  0  0  0  0  0  0  0  0
    3.1615    1.4313    2.8206 C   0  0  0  0  0  0  0  0  0  0  0  0
    2.2540    0.8902    3.6026 N   0  0  0  0  0  0  0  0  0  0  0  0
   -1.3903    1.6325   -0.5973 H   0  0  0  0  0  0  0  0  0  0  0  0
    1.2138    1.7018   -0.8743 H   0  0  0  0  0  0  0  0  0  0  0  0
    2.1150   -0.6727   -0.4320 H   0  0  0  0  0  0  0  0  0  0  0  0
    0.6227   -1.0585    0.3858 H   0  0  0  0  0  0  0  0  0  0  0  0
    3.5189    1.4165    0.7241 H   0  0  0  0  0  0  0  0  0  0  0  0
    0.5779   -0.3548    3.1264 H   0  0  0  0  0  0  0  0  0  0  0  0
    3.9863    2.0536    3.1376 H   0  0  0  0  0  0  0  0  0  0  0  0
   -0.1850    1.2303   -2.9438 N   0  0  0  0  0  0  0  0  0  0  0  0
   -0.6579    0.9435   -4.2791 C   0  0  2  0  0  0  0  0  0  0  0  0
    0.2812   -0.0820   -4.9004 C   0  0  0  0  0  0  0  0  0  0  0  0
    1.4366   -0.2523   -4.5170 O   0  0  0  0  0  0  0  0  0  0  0  0
   -0.7223    2.2049   -5.1261 C   0  0  0  0  0  0  0  0  0  0  0  0
   -0.0705    2.2021   -2.6710 H   0  0  0  0  0  0  0  0  0  0  0  0
   -1.6574    0.5078   -4.1738 H   0  0  0  0  0  0  0  0  0  0  0  0
    0.2700    2.6558   -5.2426 H   0  0  0  0  0  0  0  0  0  0  0  0
   -1.1077    1.9906   -6.1284 H   0  0  0  0  0  0  0  0  0  0  0  0
   -1.3747    2.9528   -4.6626 H   0  0  0  0  0  0  0  0  0  0  0  0
   -0.3088   -0.7544   -5.9614 N   0  0  0  0  0  0  0  0  0  0  0  0
    0.3826   -1.7682   -6.7232 C   0  0  0  0  0  0  0  0  0  0  0  0
   -1.2778   -0.5624   -6.1979 H   0  0  0  0  0  0  0  0  0  0  0  0
    0.8668   -1.3054   -7.5957 H   0  0  0  0  0  0  0  0  0  0  0  0
    1.1457   -2.2452   -6.0906 H   0  0  0  0  0  0  0  0  0  0  0  0
   -0.3381   -2.5264   -7.0633 H   0  0  0  0  0  0  0  0  0  0  0  0
 22 24  2  0  0  0  0
 24 26  1  0  0  0  0
 25 26  2  0  0  0  0
 23 25  1  0  0  0  0
 21 22  1  0  0  0  0
 22 23  1  0  0  0  0
  1  3  1  0  0  0  0
  1  7  1  0  0  0  0
  1  2  2  0  0  0  0
 35 36  1  0  0  0  0
 36 44  1  0  0  0  0
 36 37  2  0  0  0  0
  8  9  1  0  0  0  0
  9 17  1  0  0  0  0
  9 10  2  0  0  0  0
 18 19  1  0  0  0  0
 19 34  1  0  0  0  0
 19 20  2  0  0  0  0
 35 38  1  0  0  0  0
  8 11  1  0  0  0  0
 44 45  1  0  0  0  0
 18 21  1  0  0  0  0
 34 35  1  0  0  0  0
  7  8  1  0  0  0  0
 17 18  1  0  0  0  0
 24 32  1  0  0  0  0
 25 33  1  0  0  0  0
  3  4  1  0  0  0  0
  3  5  1  0  0  0  0
  3  6  1  0  0  0  0
 38 41  1  0  0  0  0
 38 42  1  0  0  0  0
 38 43  1  0  0  0  0
 11 14  1  0  0  0  0
 11 15  1  0  0  0  0
 11 16  1  0  0  0  0
 45 47  1  0  0  0  0
 45 48  1  0  0  0  0
 45 49  1  0  0  0  0
 21 29  1  0  0  0  0
 21 30  1  0  0  0  0
 35 40  1  0  0  0  0
  8 13  1  0  0  0  0
 18 28  1  0  0  0  0
 23 31  1  0  0  0  0
 44 46  1  0  0  0  0
  7 12  1  0  0  0  0
 34 39  1  0  0  0  0
 17 27  1  0  0  0  0
M  END
$$$$

  -OEChem-05262214473D

 49 49  0     1  0  0  0  0  0999 V2000
   -1.5619    0.5658    3.7981 C   0  0  0  0  0  0  0  0  0  0  0  0
   -0.6145   -0.0489    3.3224 O   0  0  0  0  0  0  0  0  0  0  0  0
   -1.9938    0.2834    5.1988 C   0  0  0  0  0  0  0  0  0  0  0  0
   -2.7535   -0.5129    5.2522 H   0  0  0  0  0  0  0  0  0  0  0  0
   -1.1626   -0.0642    5.8331 H   0  0  0  0  0  0  0  0  0  0  0  0
   -2.4318    1.1383    5.7384 H   0  0  0  0  0  0  0  0  0  0  0  0
   -2.3116    1.5383    3.1570 N   0  0  0  0  0  0  0  0  0  0  0  0
   -2.0648    1.9643    1.8046 C   0  0  2  0  0  0  0  0  0  0  0  0
   -0.7298    1.3789    1.3634 C   0  0  0  0  0  0  0  0  0  0  0  0
    0.1423    1.0262    2.1547 O   0  0  0  0  0  0  0  0  0  0  0  0
   -2.0560    3.4811    1.6952 C   0  0  0  0  0  0  0  0  0  0  0  0
   -3.0767    1.9741    3.6688 H   0  0  0  0  0  0  0  0  0  0  0  0
   -2.8689    1.5458    1.1895 H   0  0  0  0  0  0  0  0  0  0  0  0
   -1.2569    3.9183    2.3049 H   0  0  0  0  0  0  0  0  0  0  0  0
   -1.8965    3.8033    0.6609 H   0  0  0  0  0  0  0  0  0  0  0  0
   -3.0062    3.9023    2.0409 H   0  0  0  0  0  0  0  0  0  0  0  0
   -0.6071    1.3358   -0.0200 N   0  0  0  0  0  0  0  0  0  0  0  0
    0.5702    0.8350   -0.6836 C   0  0  2  0  0  0  0  0  0  0  0  0
    0.1205    0.2448   -2.0154 C   0  0  0  0  0  0  0  0  0  0  0  0
   -0.2503   -0.9205   -2.1398 O   0  0  0  0  0  0  0  0  0  0  0  0
    1.2982   -0.2254    0.1505 C   0  0  0  0  0  0  0  0  0  0  0  0
    1.8410    0.3237    1.4473 C   0  0  0  0  0  0  0  0  0  0  0  0
    2.9522    1.1166    1.5066 N   0  0  0  0  0  0  0  0  0  0  0  0
    1.4279    0.1982    2.7527 C   0  0  0  0  0  0  0  0  0  0  0  0
    3.1615    1.4313    2.8206 C   0  0  0  0  0  0  0  0  0  0  0  0
    2.2540    0.8902    3.6026 N   0  0  0  0  0  0  0  0  0  0  0  0
   -1.3903    1.6325   -0.5973 H   0  0  0  0  0  0  0  0  0  0  0  0
    1.2138    1.7018   -0.8743 H   0  0  0  0  0  0  0  0  0  0  0  0
    2.1150   -0.6727   -0.4320 H   0  0  0  0  0  0  0  0  0  0  0  0
    0.6227   -1.0585    0.3858 H   0  0  0  0  0  0  0  0  0  0  0  0
    3.5189    1.4165    0.7241 H   0  0  0  0  0  0  0  0  0  0  0  0
    0.5779   -0.3548    3.1264 H   0  0  0  0  0  0  0  0  0  0  0  0
    3.9863    2.0536    3.1376 H   0  0  0  0  0  0  0  0  0  0  0  0
    0.1360    1.1881   -3.0335 N   0  0  0  0  0  0  0  0  0  0  0  0
   -0.2660    0.8974   -4.3909 C   0  0  2  0  0  0  0  0  0  0  0  0
    0.4647   -0.3617   -4.8384 C   0  0  0  0  0  0  0  0  0  0  0  0
    1.5100   -0.7502   -4.3212 O   0  0  0  0  0  0  0  0  0  0  0  0
    0.0391    2.0621   -5.3199 C   0  0  0  0  0  0  0  0  0  0  0  0
    0.4455    2.1302   -2.8134 H   0  0  0  0  0  0  0  0  0  0  0  0
   -1.3443    0.7056   -4.3672 H   0  0  0  0  0  0  0  0  0  0  0  0
    1.1149    2.2692   -5.3566 H   0  0  0  0  0  0  0  0  0  0  0  0
   -0.2920    1.8515   -6.3422 H   0  0  0  0  0  0  0  0  0  0  0  0
   -0.4634    2.9740   -4.9797 H   0  0  0  0  0  0  0  0  0  0  0  0
   -0.1646   -0.9768   -5.9116 N   0  0  0  0  0  0  0  0  0  0  0  0
    0.3418   -2.1818   -6.5261 C   0  0  0  0  0  0  0  0  0  0  0  0
   -1.0376   -0.5958   -6.2642 H   0  0  0  0  0  0  0  0  0  0  0  0
    0.9972   -1.9166   -7.3689 H   0  0  0  0  0  0  0  0  0  0  0  0
    0.9137   -2.7590   -5.7846 H   0  0  0  0  0  0  0  0  0  0  0  0
   -0.4997   -2.7878   -6.8929 H   0  0  0  0  0  0  0  0  0  0  0  0
 22 24  2  0  0  0  0
 24 26  1  0  0  0  0
 25 26  2  0  0  0  0
 23 25  1  0  0  0  0
 21 22  1  0  0  0  0
 22 23  1  0  0  0  0
  1  3  1  0  0  0  0
  1  7  1  0  0  0  0
  1  2  2  0  0  0  0
 35 36  1  0  0  0  0
 36 44  1  0  0  0  0
 36 37  2  0  0  0  0
  8  9  1  0  0  0  0
  9 17  1  0  0  0  0
  9 10  2  0  0  0  0
 18 19  1  0  0  0  0
 19 34  1  0  0  0  0
 19 20  2  0  0  0  0
 35 38  1  0  0  0  0
  8 11  1  0  0  0  0
 44 45  1  0  0  0  0
 18 21  1  0  0  0  0
 34 35  1  0  0  0  0
  7  8  1  0  0  0  0
 17 18  1  0  0  0  0
 24 32  1  0  0  0  0
 25 33  1  0  0  0  0
  3  4  1  0  0  0  0
  3  5  1  0  0  0  0
  3  6  1  0  0  0  0
 38 41  1  0  0  0  0
 38 42  1  0  0  0  0
 38 43  1  0  0  0  0
 11 14  1  0  0  0  0
 11 15  1  0  0  0  0
 11 16  1  0  0  0  0
 45 47  1  0  0  0  0
 45 48  1  0  0  0  0
 45 49  1  0  0  0  0
 21 29  1  0  0  0  0
 21 30  1  0  0  0  0
 35 40  1  0  0  0  0
  8 13  1  0  0  0  0
 18 28  1  0  0  0  0
 23 31  1  0  0  0  0
 44 46  1  0  0  0  0
  7 12  1  0  0  0  0
 34 39  1  0  0  0  0
 17 27  1  0  0  0  0
M  END
$$$$

  -OEChem-05262214473D

 49 49  0     1  0  0  0  0  0999 V2000
   -1.5619    0.5658    3.7981 C   0  0  0  0  0  0  0  0  0  0  0  0
   -0.6145   -0.0489    3.3224 O   0  0  0  0  0  0  0  0  0  0  0  0
   -1.9938    0.2834    5.1988 C   0  0  0  0  0  0  0  0  0  0  0  0
   -2.7535   -0.5129    5.2522 H   0  0  0  0  0  0  0  0  0  0  0  0
   -1.1626   -0.0642    5.8331 H   0  0  0  0  0  0  0  0  0  0  0  0
   -2.4318    1.1383    5.7384 H   0  0  0  0  0  0  0  0  0  0  0  0
   -2.3116    1.5383    3.1570 N   0  0  0  0  0  0  0  0  0  0  0  0
   -2.0648    1.9643    1.8046 C   0  0  2  0  0  0  0  0  0  0  0  0
   -0.7298    1.3789    1.3634 C   0  0  0  0  0  0  0  0  0  0  0  0
    0.1423    1.0262    2.1547 O   0  0  0  0  0  0  0  0  0  0  0  0
   -2.0560    3.4811    1.6952 C   0  0  0  0  0  0  0  0  0  0  0  0
   -3.0767    1.9741    3.6688 H   0  0  0  0  0  0  0  0  0  0  0  0
   -2.8689    1.5458    1.1895 H   0  0  0  0  0  0  0  0  0  0  0  0
   -1.2569    3.9183    2.3049 H   0  0  0  0  0  0  0  0  0  0  0  0
   -1.8965    3.8033    0.6609 H   0  0  0  0  0  0  0  0  0  0  0  0
   -3.0062    3.9023    2.0409 H   0  0  0  0  0  0  0  0  0  0  0  0
   -0.6071    1.3358   -0.0200 N   0  0  0  0  0  0  0  0  0  0  0  0
    0.5702    0.8350   -0.6836 C   0  0  2  0  0  0  0  0  0  0  0  0
    0.1205    0.2448   -2.0154 C   0  0  0  0  0  0  0  0  0  0  0  0
   -0.4954   -0.8153   -2.1036 O   0  0  0  0  0  0  0  0  0  0  0  0
    1.2982   -0.2254    0.1505 C   0  0  0  0  0  0  0  0  0  0  0  0
    1.8410    0.3237    1.4473 C   0  0  0  0  0  0  0  0  0  0  0  0
    2.9522    1.1166    1.5066 N   0  0  0  0  0  0  0  0  0  0  0  0
    1.4279    0.1982    2.7527 C   0  0  0  0  0  0  0  0  0  0  0  0
    3.1615    1.4313    2.8206 C   0  0  0  0  0  0  0  0  0  0  0  0
    2.2540    0.8902    3.6026 N   0  0  0  0  0  0  0  0  0  0  0  0
   -1.3903    1.6325   -0.5973 H   0  0  0  0  0  0  0  0  0  0  0  0
    1.2138    1.7018   -0.8743 H   0  0  0  0  0  0  0  0  0  0  0  0
    2.1150   -0.6727   -0.4320 H   0  0  0  0  0  0  0  0  0  0  0  0
    0.6227   -1.0585    0.3858 H   0  0  0  0  0  0  0  0  0  0  0  0
    3.5189    1.4165    0.7241 H   0  0  0  0  0  0  0  0  0  0  0  0
    0.5779   -0.3548    3.1264 H   0  0  0  0  0  0  0  0  0  0  0  0
    3.9863    2.0536    3.1376 H   0  0  0  0  0  0  0  0  0  0  0  0
    0.4455    1.0679   -3.0847 N   0  0  0  0  0  0  0  0  0  0  0  0
    0.1132    0.7556   -4.4562 C   0  0  2  0  0  0  0  0  0  0  0  0
    0.5726   -0.6687   -4.7388 C   0  0  0  0  0  0  0  0  0  0  0  0
    1.4487   -1.2328   -4.0866 O   0  0  0  0  0  0  0  0  0  0  0  0
    0.7617    1.7372   -5.4199 C   0  0  0  0  0  0  0  0  0  0  0  0
    0.9419    1.9333   -2.8938 H   0  0  0  0  0  0  0  0  0  0  0  0
   -0.9778    0.8111   -4.5377 H   0  0  0  0  0  0  0  0  0  0  0  0
    1.8549    1.6960   -5.3525 H   0  0  0  0  0  0  0  0  0  0  0  0
    0.4859    1.5165   -6.4563 H   0  0  0  0  0  0  0  0  0  0  0  0
    0.4534    2.7642   -5.1963 H   0  0  0  0  0  0  0  0  0  0  0  0
   -0.0805   -1.2204   -5.8320 N   0  0  0  0  0  0  0  0  0  0  0  0
    0.1892   -2.5570   -6.3083 C   0  0  0  0  0  0  0  0  0  0  0  0
   -0.8065   -0.6875   -6.3016 H   0  0  0  0  0  0  0  0  0  0  0  0
    0.9622   -2.5192   -7.0900 H   0  0  0  0  0  0  0  0  0  0  0  0
    0.5427   -3.1794   -5.4730 H   0  0  0  0  0  0  0  0  0  0  0  0
   -0.7320   -2.9907   -6.7245 H   0  0  0  0  0  0  0  0  0  0  0  0
 22 24  2  0  0  0  0
 24 26  1  0  0  0  0
 25 26  2  0  0  0  0
 23 25  1  0  0  0  0
 21 22  1  0  0  0  0
 22 23  1  0  0  0  0
  1  3  1  0  0  0  0
  1  7  1  0  0  0  0
  1  2  2  0  0  0  0
 35 36  1  0  0  0  0
 36 44  1  0  0  0  0
 36 37  2  0  0  0  0
  8  9  1  0  0  0  0
  9 17  1  0  0  0  0
  9 10  2  0  0  0  0
 18 19  1  0  0  0  0
 19 34  1  0  0  0  0
 19 20  2  0  0  0  0
 35 38  1  0  0  0  0
  8 11  1  0  0  0  0
 44 45  1  0  0  0  0
 18 21  1  0  0  0  0
 34 35  1  0  0  0  0
  7  8  1  0  0  0  0
 17 18  1  0  0  0  0
 24 32  1  0  0  0  0
 25 33  1  0  0  0  0
  3  4  1  0  0  0  0
  3  5  1  0  0  0  0
  3  6  1  0  0  0  0
 38 41  1  0  0  0  0
 38 42  1  0  0  0  0
 38 43  1  0  0  0  0
 11 14  1  0  0  0  0
 11 15  1  0  0  0  0
 11 16  1  0  0  0  0
 45 47  1  0  0  0  0
 45 48  1  0  0  0  0
 45 49  1  0  0  0  0
 21 29  1  0  0  0  0
 21 30  1  0  0  0  0
 35 40  1  0  0  0  0
  8 13  1  0  0  0  0
 18 28  1  0  0  0  0
 23 31  1  0  0  0  0
 44 46  1  0  0  0  0
  7 12  1  0  0  0  0
 34 39  1  0  0  0  0
 17 27  1  0  0  0  0
M  END
$$$$

  -OEChem-05262214473D

 49 49  0     1  0  0  0  0  0999 V2000
   -1.5619    0.5658    3.7981 C   0  0  0  0  0  0  0  0  0  0  0  0
   -0.6145   -0.0489    3.3224 O   0  0  0  0  0  0  0  0  0  0  0  0
   -1.9938    0.2834    5.1988 C   0  0  0  0  0  0  0  0  0  0  0  0
   -2.7535   -0.5129    5.2522 H   0  0  0  0  0  0  0  0  0  0  0  0
   -1.1626   -0.0642    5.8331 H   0  0  0  0  0  0  0  0  0  0  0  0
   -2.4318    1.1383    5.7384 H   0  0  0  0  0  0  0  0  0  0  0  0
   -2.3116    1.5383    3.1570 N   0  0  0  0  0  0  0  0  0  0  0  0
   -2.0648    1.9643    1.8046 C   0  0  2  0  0  0  0  0  0  0  0  0
   -0.7298    1.3789    1.3634 C   0  0  0  0  0  0  0  0  0  0  0  0
    0.1423    1.0262    2.1547 O   0  0  0  0  0  0  0  0  0  0  0  0
   -2.0560    3.4811    1.6952 C   0  0  0  0  0  0  0  0  0  0  0  0
   -3.0767    1.9741    3.6688 H   0  0  0  0  0  0  0  0  0  0  0  0
   -2.8689    1.5458    1.1895 H   0  0  0  0  0  0  0  0  0  0  0  0
   -1.2569    3.9183    2.3049 H   0  0  0  0  0  0  0  0  0  0  0  0
   -1.8965    3.8033    0.6609 H   0  0  0  0  0  0  0  0  0  0  0  0
   -3.0062    3.9023    2.0409 H   0  0  0  0  0  0  0  0  0  0  0  0
   -0.6071    1.3358   -0.0200 N   0  0  0  0  0  0  0  0  0  0  0  0
    0.5702    0.8350   -0.6836 C   0  0  2  0  0  0  0  0  0  0  0  0
    0.1205    0.2448   -2.0154 C   0  0  0  0  0  0  0  0  0  0  0  0
   -0.7120   -0.6555   -2.1013 O   0  0  0  0  0  0  0  0  0  0  0  0
    1.2982   -0.2254    0.1505 C   0  0  0  0  0  0  0  0  0  0  0  0
    1.8410    0.3237    1.4473 C   0  0  0  0  0  0  0  0  0  0  0  0
    2.9522    1.1166    1.5066 N   0  0  0  0  0  0  0  0  0  0  0  0
    1.4279    0.1982    2.7527 C   0  0  0  0  0  0  0  0  0  0  0  0
    3.1615    1.4313    2.8206 C   0  0  0  0  0  0  0  0  0  0  0  0
    2.2540    0.8902    3.6026 N   0  0  0  0  0  0  0  0  0  0  0  0
   -1.3903    1.6325   -0.5973 H   0  0  0  0  0  0  0  0  0  0  0  0
    1.2138    1.7018   -0.8743 H   0  0  0  0  0  0  0  0  0  0  0  0
    2.1150   -0.6727   -0.4320 H   0  0  0  0  0  0  0  0  0  0  0  0
    0.6227   -1.0585    0.3858 H   0  0  0  0  0  0  0  0  0  0  0  0
    3.5189    1.4165    0.7241 H   0  0  0  0  0  0  0  0  0  0  0  0
    0.5779   -0.3548    3.1264 H   0  0  0  0  0  0  0  0  0  0  0  0
    3.9863    2.0536    3.1376 H   0  0  0  0  0  0  0  0  0  0  0  0
    0.7224    0.8779   -3.0940 N   0  0  0  0  0  0  0  0  0  0  0  0
    0.4541    0.5280   -4.4704 C   0  0  2  0  0  0  0  0  0  0  0  0
    0.5974   -0.9820   -4.6083 C   0  0  0  0  0  0  0  0  0  0  0  0
    1.2569   -1.6671   -3.8294 O   0  0  0  0  0  0  0  0  0  0  0  0
    1.3962    1.2523   -5.4193 C   0  0  0  0  0  0  0  0  0  0  0  0
    1.3850    1.6246   -2.9066 H   0  0  0  0  0  0  0  0  0  0  0  0
   -0.5828    0.8171   -4.6738 H   0  0  0  0  0  0  0  0  0  0  0  0
    2.4398    0.9753   -5.2306 H   0  0  0  0  0  0  0  0  0  0  0  0
    1.1730    1.0082   -6.4631 H   0  0  0  0  0  0  0  0  0  0  0  0
    1.3132    2.3378   -5.2976 H   0  0  0  0  0  0  0  0  0  0  0  0
   -0.0623   -1.4687   -5.7281 N   0  0  0  0  0  0  0  0  0  0  0  0
   -0.0648   -2.8683   -6.0846 C   0  0  0  0  0  0  0  0  0  0  0  0
   -0.6003   -0.8311   -6.3076 H   0  0  0  0  0  0  0  0  0  0  0  0
    0.7643   -3.0721   -6.7781 H   0  0  0  0  0  0  0  0  0  0  0  0
    0.0581   -3.4778   -5.1772 H   0  0  0  0  0  0  0  0  0  0  0  0
   -1.0191   -3.1213   -6.5697 H   0  0  0  0  0  0  0  0  0  0  0  0
 22 24  2  0  0  0  0
 24 26  1  0  0  0  0
 25 26  2  0  0  0  0
 23 25  1  0  0  0  0
 21 22  1  0  0  0  0
 22 23  1  0  0  0  0
  1  3  1  0  0  0  0
  1  7  1  0  0  0  0
  1  2  2  0  0  0  0
 35 36  1  0  0  0  0
 36 44  1  0  0  0  0
 36 37  2  0  0  0  0
  8  9  1  0  0  0  0
  9 17  1  0  0  0  0
  9 10  2  0  0  0  0
 18 19  1  0  0  0  0
 19 34  1  0  0  0  0
 19 20  2  0  0  0  0
 35 38  1  0  0  0  0
  8 11  1  0  0  0  0
 44 45  1  0  0  0  0
 18 21  1  0  0  0  0
 34 35  1  0  0  0  0
  7  8  1  0  0  0  0
 17 18  1  0  0  0  0
 24 32  1  0  0  0  0
 25 33  1  0  0  0  0
  3  4  1  0  0  0  0
  3  5  1  0  0  0  0
  3  6  1  0  0  0  0
 38 41  1  0  0  0  0
 38 42  1  0  0  0  0
 38 43  1  0  0  0  0
 11 14  1  0  0  0  0
 11 15  1  0  0  0  0
 11 16  1  0  0  0  0
 45 47  1  0  0  0  0
 45 48  1  0  0  0  0
 45 49  1  0  0  0  0
 21 29  1  0  0  0  0
 21 30  1  0  0  0  0
 35 40  1  0  0  0  0
  8 13  1  0  0  0  0
 18 28  1  0  0  0  0
 23 31  1  0  0  0  0
 44 46  1  0  0  0  0
  7 12  1  0  0  0  0
 34 39  1  0  0  0  0
 17 27  1  0  0  0  0
M  END
$$$$

  -OEChem-05262214473D

 49 49  0     1  0  0  0  0  0999 V2000
   -1.5619    0.5658    3.7981 C   0  0  0  0  0  0  0  0  0  0  0  0
   -0.6145   -0.0489    3.3224 O   0  0  0  0  0  0  0  0  0  0  0  0
   -1.9938    0.2834    5.1988 C   0  0  0  0  0  0  0  0  0  0  0  0
   -2.7535   -0.5129    5.2522 H   0  0  0  0  0  0  0  0  0  0  0  0
   -1.1626   -0.0642    5.8331 H   0  0  0  0  0  0  0  0  0  0  0  0
   -2.4318    1.1383    5.7384 H   0  0  0  0  0  0  0  0  0  0  0  0
   -2.3116    1.5383    3.1570 N   0  0  0  0  0  0  0  0  0  0  0  0
   -2.0648    1.9643    1.8046 C   0  0  2  0  0  0  0  0  0  0  0  0
   -0.7298    1.3789    1.3634 C   0  0  0  0  0  0  0  0  0  0  0  0
    0.1423    1.0262    2.1547 O   0  0  0  0  0  0  0  0  0  0  0  0
   -2.0560    3.4811    1.6952 C   0  0  0  0  0  0  0  0  0  0  0  0
   -3.0767    1.9741    3.6688 H   0  0  0  0  0  0  0  0  0  0  0  0
   -2.8689    1.5458    1.1895 H   0  0  0  0  0  0  0  0  0  0  0  0
   -1.2569    3.9183    2.3049 H   0  0  0  0  0  0  0  0  0  0  0  0
   -1.8965    3.8033    0.6609 H   0  0  0  0  0  0  0  0  0  0  0  0
   -3.0062    3.9023    2.0409 H   0  0  0  0  0  0  0  0  0  0  0  0
   -0.6071    1.3358   -0.0200 N   0  0  0  0  0  0  0  0  0  0  0  0
    0.5702    0.8350   -0.6836 C   0  0  2  0  0  0  0  0  0  0  0  0
    0.1205    0.2448   -2.0154 C   0  0  0  0  0  0  0  0  0  0  0  0
   -0.8853   -0.4520   -2.1330 O   0  0  0  0  0  0  0  0  0  0  0  0
    1.2982   -0.2254    0.1505 C   0  0  0  0  0  0  0  0  0  0  0  0
    1.8410    0.3237    1.4473 C   0  0  0  0  0  0  0  0  0  0  0  0
    2.9522    1.1166    1.5066 N   0  0  0  0  0  0  0  0  0  0  0  0
    1.4279    0.1982    2.7527 C   0  0  0  0  0  0  0  0  0  0  0  0
    3.1615    1.4313    2.8206 C   0  0  0  0  0  0  0  0  0  0  0  0
    2.2540    0.8902    3.6026 N   0  0  0  0  0  0  0  0  0  0  0  0
   -1.3903    1.6325   -0.5973 H   0  0  0  0  0  0  0  0  0  0  0  0
    1.2138    1.7018   -0.8743 H   0  0  0  0  0  0  0  0  0  0  0  0
    2.1150   -0.6727   -0.4320 H   0  0  0  0  0  0  0  0  0  0  0  0
    0.6227   -1.0585    0.3858 H   0  0  0  0  0  0  0  0  0  0  0  0
    3.5189    1.4165    0.7241 H   0  0  0  0  0  0  0  0  0  0  0  0
    0.5779   -0.3548    3.1264 H   0  0  0  0  0  0  0  0  0  0  0  0
    3.9863    2.0536    3.1376 H   0  0  0  0  0  0  0  0  0  0  0  0
    0.9479    0.6310   -3.0607 N   0  0  0  0  0  0  0  0  0  0  0  0
    0.7332    0.2299   -4.4325 C   0  0  2  0  0  0  0  0  0  0  0  0
    0.5375   -1.2802   -4.4559 C   0  0  0  0  0  0  0  0  0  0  0  0
    0.9477   -2.0236   -3.5670 O   0  0  0  0  0  0  0  0  0  0  0  0
    1.8994    0.6406   -5.3181 C   0  0  0  0  0  0  0  0  0  0  0  0
    1.7445    1.2254   -2.8510 H   0  0  0  0  0  0  0  0  0  0  0  0
   -0.1863    0.7232   -4.7660 H   0  0  0  0  0  0  0  0  0  0  0  0
    2.8296    0.1563   -4.9992 H   0  0  0  0  0  0  0  0  0  0  0  0
    1.7224    0.3614   -6.3620 H   0  0  0  0  0  0  0  0  0  0  0  0
    2.0575    1.7237   -5.2768 H   0  0  0  0  0  0  0  0  0  0  0  0
   -0.1113   -1.7047   -5.6070 N   0  0  0  0  0  0  0  0  0  0  0  0
   -0.4031   -3.0945   -5.8701 C   0  0  0  0  0  0  0  0  0  0  0  0
   -0.4329   -1.0169   -6.2818 H   0  0  0  0  0  0  0  0  0  0  0  0
    0.4168   -3.5376   -6.4545 H   0  0  0  0  0  0  0  0  0  0  0  0
   -0.5070   -3.6340   -4.9171 H   0  0  0  0  0  0  0  0  0  0  0  0
   -1.3415   -3.1707   -6.4389 H   0  0  0  0  0  0  0  0  0  0  0  0
 22 24  2  0  0  0  0
 24 26  1  0  0  0  0
 25 26  2  0  0  0  0
 23 25  1  0  0  0  0
 21 22  1  0  0  0  0
 22 23  1  0  0  0  0
  1  3  1  0  0  0  0
  1  7  1  0  0  0  0
  1  2  2  0  0  0  0
 35 36  1  0  0  0  0
 36 44  1  0  0  0  0
 36 37  2  0  0  0  0
  8  9  1  0  0  0  0
  9 17  1  0  0  0  0
  9 10  2  0  0  0  0
 18 19  1  0  0  0  0
 19 34  1  0  0  0  0
 19 20  2  0  0  0  0
 35 38  1  0  0  0  0
  8 11  1  0  0  0  0
 44 45  1  0  0  0  0
 18 21  1  0  0  0  0
 34 35  1  0  0  0  0
  7  8  1  0  0  0  0
 17 18  1  0  0  0  0
 24 32  1  0  0  0  0
 25 33  1  0  0  0  0
  3  4  1  0  0  0  0
  3  5  1  0  0  0  0
  3  6  1  0  0  0  0
 38 41  1  0  0  0  0
 38 42  1  0  0  0  0
 38 43  1  0  0  0  0
 11 14  1  0  0  0  0
 11 15  1  0  0  0  0
 11 16  1  0  0  0  0
 45 47  1  0  0  0  0
 45 48  1  0  0  0  0
 45 49  1  0  0  0  0
 21 29  1  0  0  0  0
 21 30  1  0  0  0  0
 35 40  1  0  0  0  0
  8 13  1  0  0  0  0
 18 28  1  0  0  0  0
 23 31  1  0  0  0  0
 44 46  1  0  0  0  0
  7 12  1  0  0  0  0
 34 39  1  0  0  0  0
 17 27  1  0  0  0  0
M  END
$$$$

  -OEChem-05262214473D

 49 49  0     1  0  0  0  0  0999 V2000
   -1.5619    0.5658    3.7981 C   0  0  0  0  0  0  0  0  0  0  0  0
   -0.6145   -0.0489    3.3224 O   0  0  0  0  0  0  0  0  0  0  0  0
   -1.9938    0.2834    5.1988 C   0  0  0  0  0  0  0  0  0  0  0  0
   -2.7535   -0.5129    5.2522 H   0  0  0  0  0  0  0  0  0  0  0  0
   -1.1626   -0.0642    5.8331 H   0  0  0  0  0  0  0  0  0  0  0  0
   -2.4318    1.1383    5.7384 H   0  0  0  0  0  0  0  0  0  0  0  0
   -2.3116    1.5383    3.1570 N   0  0  0  0  0  0  0  0  0  0  0  0
   -2.0648    1.9643    1.8046 C   0  0  2  0  0  0  0  0  0  0  0  0
   -0.7298    1.3789    1.3634 C   0  0  0  0  0  0  0  0  0  0  0  0
    0.1423    1.0262    2.1547 O   0  0  0  0  0  0  0  0  0  0  0  0
   -2.0560    3.4811    1.6952 C   0  0  0  0  0  0  0  0  0  0  0  0
   -3.0767    1.9741    3.6688 H   0  0  0  0  0  0  0  0  0  0  0  0
   -2.8689    1.5458    1.1895 H   0  0  0  0  0  0  0  0  0  0  0  0
   -1.2569    3.9183    2.3049 H   0  0  0  0  0  0  0  0  0  0  0  0
   -1.8965    3.8033    0.6609 H   0  0  0  0  0  0  0  0  0  0  0  0
   -3.0062    3.9023    2.0409 H   0  0  0  0  0  0  0  0  0  0  0  0
   -0.6071    1.3358   -0.0200 N   0  0  0  0  0  0  0  0  0  0  0  0
    0.5702    0.8350   -0.6836 C   0  0  2  0  0  0  0  0  0  0  0  0
    0.1205    0.2448   -2.0154 C   0  0  0  0  0  0  0  0  0  0  0  0
   -1.0035   -0.2187   -2.1965 O   0  0  0  0  0  0  0  0  0  0  0  0
    1.2982   -0.2254    0.1505 C   0  0  0  0  0  0  0  0  0  0  0  0
    1.8410    0.3237    1.4473 C   0  0  0  0  0  0  0  0  0  0  0  0
    2.9522    1.1166    1.5066 N   0  0  0  0  0  0  0  0  0  0  0  0
    1.4279    0.1982    2.7527 C   0  0  0  0  0  0  0  0  0  0  0  0
    3.1615    1.4313    2.8206 C   0  0  0  0  0  0  0  0  0  0  0  0
    2.2540    0.8902    3.6026 N   0  0  0  0  0  0  0  0  0  0  0  0
   -1.3903    1.6325   -0.5973 H   0  0  0  0  0  0  0  0  0  0  0  0
    1.2138    1.7018   -0.8743 H   0  0  0  0  0  0  0  0  0  0  0  0
    2.1150   -0.6727   -0.4320 H   0  0  0  0  0  0  0  0  0  0  0  0
    0.6227   -1.0585    0.3858 H   0  0  0  0  0  0  0  0  0  0  0  0
    3.5189    1.4165    0.7241 H   0  0  0  0  0  0  0  0  0  0  0  0
    0.5779   -0.3548    3.1264 H   0  0  0  0  0  0  0  0  0  0  0  0
    3.9863    2.0536    3.1376 H   0  0  0  0  0  0  0  0  0  0  0  0
    1.1065    0.3441   -2.9872 N   0  0  0  0  0  0  0  0  0  0  0  0
    0.9317   -0.1182   -4.3453 C   0  0  2  0  0  0  0  0  0  0  0  0
    0.3968   -1.5432   -4.2919 C   0  0  0  0  0  0  0  0  0  0  0  0
    0.5421   -2.2781   -3.3173 O   0  0  0  0  0  0  0  0  0  0  0  0
    2.2370   -0.0563   -5.1232 C   0  0  0  0  0  0  0  0  0  0  0  0
    1.9958    0.7627   -2.7309 H   0  0  0  0  0  0  0  0  0  0  0  0
    0.1847    0.5358   -4.8083 H   0  0  0  0  0  0  0  0  0  0  0  0
    2.9977   -0.7053   -4.6742 H   0  0  0  0  0  0  0  0  0  0  0  0
    2.0967   -0.3798   -6.1599 H   0  0  0  0  0  0  0  0  0  0  0  0
    2.6355    0.9639   -5.1353 H   0  0  0  0  0  0  0  0  0  0  0  0
   -0.2241   -1.9123   -5.4769 N   0  0  0  0  0  0  0  0  0  0  0  0
   -0.8024   -3.2202   -5.6796 C   0  0  0  0  0  0  0  0  0  0  0  0
   -0.3159   -1.2323   -6.2259 H   0  0  0  0  0  0  0  0  0  0  0  0
   -0.0565   -3.8839   -6.1412 H   0  0  0  0  0  0  0  0  0  0  0  0
   -1.1143   -3.6371   -4.7107 H   0  0  0  0  0  0  0  0  0  0  0  0
   -1.6772   -3.1356   -6.3411 H   0  0  0  0  0  0  0  0  0  0  0  0
 22 24  2  0  0  0  0
 24 26  1  0  0  0  0
 25 26  2  0  0  0  0
 23 25  1  0  0  0  0
 21 22  1  0  0  0  0
 22 23  1  0  0  0  0
  1  3  1  0  0  0  0
  1  7  1  0  0  0  0
  1  2  2  0  0  0  0
 35 36  1  0  0  0  0
 36 44  1  0  0  0  0
 36 37  2  0  0  0  0
  8  9  1  0  0  0  0
  9 17  1  0  0  0  0
  9 10  2  0  0  0  0
 18 19  1  0  0  0  0
 19 34  1  0  0  0  0
 19 20  2  0  0  0  0
 35 38  1  0  0  0  0
  8 11  1  0  0  0  0
 44 45  1  0  0  0  0
 18 21  1  0  0  0  0
 34 35  1  0  0  0  0
  7  8  1  0  0  0  0
 17 18  1  0  0  0  0
 24 32  1  0  0  0  0
 25 33  1  0  0  0  0
  3  4  1  0  0  0  0
  3  5  1  0  0  0  0
  3  6  1  0  0  0  0
 38 41  1  0  0  0  0
 38 42  1  0  0  0  0
 38 43  1  0  0  0  0
 11 14  1  0  0  0  0
 11 15  1  0  0  0  0
 11 16  1  0  0  0  0
 45 47  1  0  0  0  0
 45 48  1  0  0  0  0
 45 49  1  0  0  0  0
 21 29  1  0  0  0  0
 21 30  1  0  0  0  0
 35 40  1  0  0  0  0
  8 13  1  0  0  0  0
 18 28  1  0  0  0  0
 23 31  1  0  0  0  0
 44 46  1  0  0  0  0
  7 12  1  0  0  0  0
 34 39  1  0  0  0  0
 17 27  1  0  0  0  0
M  END
$$$$

  -OEChem-05262214473D

 49 49  0     1  0  0  0  0  0999 V2000
   -1.5619    0.5658    3.7981 C   0  0  0  0  0  0  0  0  0  0  0  0
   -0.6145   -0.0489    3.3224 O   0  0  0  0  0  0  0  0  0  0  0  0
   -1.9938    0.2834    5.1988 C   0  0  0  0  0  0  0  0  0  0  0  0
   -2.7535   -0.5129    5.2522 H   0  0  0  0  0  0  0  0  0  0  0  0
   -1.1626   -0.0642    5.8331 H   0  0  0  0  0  0  0  0  0  0  0  0
   -2.4318    1.1383    5.7384 H   0  0  0  0  0  0  0  0  0  0  0  0
   -2.3116    1.5383    3.1570 N   0  0  0  0  0  0  0  0  0  0  0  0
   -2.0648    1.9643    1.8046 C   0  0  2  0  0  0  0  0  0  0  0  0
   -0.7298    1.3789    1.3634 C   0  0  0  0  0  0  0  0  0  0  0  0
    0.1423    1.0262    2.1547 O   0  0  0  0  0  0  0  0  0  0  0  0
   -2.0560    3.4811    1.6952 C   0  0  0  0  0  0  0  0  0  0  0  0
   -3.0767    1.9741    3.6688 H   0  0  0  0  0  0  0  0  0  0  0  0
   -2.8689    1.5458    1.1895 H   0  0  0  0  0  0  0  0  0  0  0  0
   -1.2569    3.9183    2.3049 H   0  0  0  0  0  0  0  0  0  0  0  0
   -1.8965    3.8033    0.6609 H   0  0  0  0  0  0  0  0  0  0  0  0
   -3.0062    3.9023    2.0409 H   0  0  0  0  0  0  0  0  0  0  0  0
   -0.6071    1.3358   -0.0200 N   0  0  0  0  0  0  0  0  0  0  0  0
    0.5702    0.8350   -0.6836 C   0  0  2  0  0  0  0  0  0  0  0  0
    0.1205    0.2448   -2.0154 C   0  0  0  0  0  0  0  0  0  0  0  0
   -1.0586    0.0286   -2.2875 O   0  0  0  0  0  0  0  0  0  0  0  0
    1.2982   -0.2254    0.1505 C   0  0  0  0  0  0  0  0  0  0  0  0
    1.8410    0.3237    1.4473 C   0  0  0  0  0  0  0  0  0  0  0  0
    2.9522    1.1166    1.5066 N   0  0  0  0  0  0  0  0  0  0  0  0
    1.4279    0.1982    2.7527 C   0  0  0  0  0  0  0  0  0  0  0  0
    3.1615    1.4313    2.8206 C   0  0  0  0  0  0  0  0  0  0  0  0
    2.2540    0.8902    3.6026 N   0  0  0  0  0  0  0  0  0  0  0  0
   -1.3903    1.6325   -0.5973 H   0  0  0  0  0  0  0  0  0  0  0  0
    1.2138    1.7018   -0.8743 H   0  0  0  0  0  0  0  0  0  0  0  0
    2.1150   -0.6727   -0.4320 H   0  0  0  0  0  0  0  0  0  0  0  0
    0.6227   -1.0585    0.3858 H   0  0  0  0  0  0  0  0  0  0  0  0
    3.5189    1.4165    0.7241 H   0  0  0  0  0  0  0  0  0  0  0  0
    0.5779   -0.3548    3.1264 H   0  0  0  0  0  0  0  0  0  0  0  0
    3.9863    2.0536    3.1376 H   0  0  0  0  0  0  0  0  0  0  0  0
    1.1875    0.0367   -2.8783 N   0  0  0  0  0  0  0  0  0  0  0  0
    1.0360   -0.4927   -4.2145 C   0  0  2  0  0  0  0  0  0  0  0  0
    0.1851   -1.7528   -4.1275 C   0  0  0  0  0  0  0  0  0  0  0  0
    0.0678   -2.4131   -3.0973 O   0  0  0  0  0  0  0  0  0  0  0  0
    2.3860   -0.7910   -4.8479 C   0  0  0  0  0  0  0  0  0  0  0  0
    2.1220    0.2681   -2.5543 H   0  0  0  0  0  0  0  0  0  0  0  0
    0.5049    0.2677   -4.7976 H   0  0  0  0  0  0  0  0  0  0  0  0
    2.9327   -1.5507   -4.2776 H   0  0  0  0  0  0  0  0  0  0  0  0
    2.2705   -1.1650   -5.8706 H   0  0  0  0  0  0  0  0  0  0  0  0
    3.0079    0.1100   -4.8826 H   0  0  0  0  0  0  0  0  0  0  0  0
   -0.3931   -2.0774   -5.3467 N   0  0  0  0  0  0  0  0  0  0  0  0
   -1.2356   -3.2367   -5.5260 C   0  0  0  0  0  0  0  0  0  0  0  0
   -0.2571   -1.4625   -6.1437 H   0  0  0  0  0  0  0  0  0  0  0  0
   -0.6234   -4.0875   -5.8596 H   0  0  0  0  0  0  0  0  0  0  0  0
   -1.7223   -3.4871   -4.5718 H   0  0  0  0  0  0  0  0  0  0  0  0
   -2.0033   -3.0184   -6.2830 H   0  0  0  0  0  0  0  0  0  0  0  0
 22 24  2  0  0  0  0
 24 26  1  0  0  0  0
 25 26  2  0  0  0  0
 23 25  1  0  0  0  0
 21 22  1  0  0  0  0
 22 23  1  0  0  0  0
  1  3  1  0  0  0  0
  1  7  1  0  0  0  0
  1  2  2  0  0  0  0
 35 36  1  0  0  0  0
 36 44  1  0  0  0  0
 36 37  2  0  0  0  0
  8  9  1  0  0  0  0
  9 17  1  0  0  0  0
  9 10  2  0  0  0  0
 18 19  1  0  0  0  0
 19 34  1  0  0  0  0
 19 20  2  0  0  0  0
 35 38  1  0  0  0  0
  8 11  1  0  0  0  0
 44 45  1  0  0  0  0
 18 21  1  0  0  0  0
 34 35  1  0  0  0  0
  7  8  1  0  0  0  0
 17 18  1  0  0  0  0
 24 32  1  0  0  0  0
 25 33  1  0  0  0  0
  3  4  1  0  0  0  0
  3  5  1  0  0  0  0
  3  6  1  0  0  0  0
 38 41  1  0  0  0  0
 38 42  1  0  0  0  0
 38 43  1  0  0  0  0
 11 14  1  0  0  0  0
 11 15  1  0  0  0  0
 11 16  1  0  0  0  0
 45 47  1  0  0  0  0
 45 48  1  0  0  0  0
 45 49  1  0  0  0  0
 21 29  1  0  0  0  0
 21 30  1  0  0  0  0
 35 40  1  0  0  0  0
  8 13  1  0  0  0  0
 18 28  1  0  0  0  0
 23 31  1  0  0  0  0
 44 46  1  0  0  0  0
  7 12  1  0  0  0  0
 34 39  1  0  0  0  0
 17 27  1  0  0  0  0
M  END
$$$$

  -OEChem-05262214473D

 49 49  0     1  0  0  0  0  0999 V2000
   -1.5619    0.5658    3.7981 C   0  0  0  0  0  0  0  0  0  0  0  0
   -0.6145   -0.0489    3.3224 O   0  0  0  0  0  0  0  0  0  0  0  0
   -1.9938    0.2834    5.1988 C   0  0  0  0  0  0  0  0  0  0  0  0
   -2.7535   -0.5129    5.2522 H   0  0  0  0  0  0  0  0  0  0  0  0
   -1.1626   -0.0642    5.8331 H   0  0  0  0  0  0  0  0  0  0  0  0
   -2.4318    1.1383    5.7384 H   0  0  0  0  0  0  0  0  0  0  0  0
   -2.3116    1.5383    3.1570 N   0  0  0  0  0  0  0  0  0  0  0  0
   -2.0648    1.9643    1.8046 C   0  0  2  0  0  0  0  0  0  0  0  0
   -0.7298    1.3789    1.3634 C   0  0  0  0  0  0  0  0  0  0  0  0
    0.1423    1.0262    2.1547 O   0  0  0  0  0  0  0  0  0  0  0  0
   -2.0560    3.4811    1.6952 C   0  0  0  0  0  0  0  0  0  0  0  0
   -3.0767    1.9741    3.6688 H   0  0  0  0  0  0  0  0  0  0  0  0
   -2.8689    1.5458    1.1895 H   0  0  0  0  0  0  0  0  0  0  0  0
   -1.2569    3.9183    2.3049 H   0  0  0  0  0  0  0  0  0  0  0  0
   -1.8965    3.8033    0.6609 H   0  0  0  0  0  0  0  0  0  0  0  0
   -3.0062    3.9023    2.0409 H   0  0  0  0  0  0  0  0  0  0  0  0
   -0.6071    1.3358   -0.0200 N   0  0  0  0  0  0  0  0  0  0  0  0
    0.5702    0.8350   -0.6836 C   0  0  2  0  0  0  0  0  0  0  0  0
    0.1978    0.5947   -2.1423 C   0  0  0  0  0  0  0  0  0  0  0  0
   -0.9136    0.8516   -2.6002 O   0  0  0  0  0  0  0  0  0  0  0  0
    1.0881   -0.4592   -0.0457 C   0  0  0  0  0  0  0  0  0  0  0  0
    1.5516   -0.2636    1.3772 C   0  0  0  0  0  0  0  0  0  0  0  0
    2.7310    0.3502    1.6926 N   0  0  0  0  0  0  0  0  0  0  0  0
    0.9954   -0.6010    2.5885 C   0  0  0  0  0  0  0  0  0  0  0  0
    2.8374    0.3578    3.0556 C   0  0  0  0  0  0  0  0  0  0  0  0
    1.8005   -0.2112    3.6293 N   0  0  0  0  0  0  0  0  0  0  0  0
   -1.3903    1.6325   -0.5973 H   0  0  0  0  0  0  0  0  0  0  0  0
    1.3211    1.6322   -0.6316 H   0  0  0  0  0  0  0  0  0  0  0  0
    1.9065   -0.8784   -0.6466 H   0  0  0  0  0  0  0  0  0  0  0  0
    0.3049   -1.2288   -0.0495 H   0  0  0  0  0  0  0  0  0  0  0  0
    3.4045    0.7292    1.0398 H   0  0  0  0  0  0  0  0  0  0  0  0
    0.0560   -1.1048    2.7667 H   0  0  0  0  0  0  0  0  0  0  0  0
    3.6884    0.7898    3.5627 H   0  0  0  0  0  0  0  0  0  0  0  0
    1.2688    0.1075   -2.8785 N   0  0  0  0  0  0  0  0  0  0  0  0
    1.1929   -0.1841   -4.2920 C   0  0  2  0  0  0  0  0  0  0  0  0
   -0.0367   -1.0512   -4.5280 C   0  0  0  0  0  0  0  0  0  0  0  0
   -0.5579   -1.7304   -3.6458 O   0  0  0  0  0  0  0  0  0  0  0  0
    2.4523   -0.8822   -4.7814 C   0  0  0  0  0  0  0  0  0  0  0  0
    2.1503   -0.0521   -2.3998 H   0  0  0  0  0  0  0  0  0  0  0  0
    1.0684    0.7749   -4.8066 H   0  0  0  0  0  0  0  0  0  0  0  0
    2.5938   -1.8450   -4.2770 H   0  0  0  0  0  0  0  0  0  0  0  0
    2.4052   -1.0768   -5.8579 H   0  0  0  0  0  0  0  0  0  0  0  0
    3.3389   -0.2701   -4.5839 H   0  0  0  0  0  0  0  0  0  0  0  0
   -0.4578   -1.0111   -5.8498 N   0  0  0  0  0  0  0  0  0  0  0  0
   -1.5968   -1.7593   -6.3283 C   0  0  0  0  0  0  0  0  0  0  0  0
    0.0225   -0.4058   -6.5091 H   0  0  0  0  0  0  0  0  0  0  0  0
   -1.2607   -2.7332   -6.7137 H   0  0  0  0  0  0  0  0  0  0  0  0
   -2.3052   -1.9169   -5.5017 H   0  0  0  0  0  0  0  0  0  0  0  0
   -2.0922   -1.1974   -7.1338 H   0  0  0  0  0  0  0  0  0  0  0  0
 22 24  2  0  0  0  0
 24 26  1  0  0  0  0
 25 26  2  0  0  0  0
 23 25  1  0  0  0  0
 21 22  1  0  0  0  0
 22 23  1  0  0  0  0
  1  3  1  0  0  0  0
  1  7  1  0  0  0  0
  1  2  2  0  0  0  0
 35 36  1  0  0  0  0
 36 44  1  0  0  0  0
 36 37  2  0  0  0  0
  8  9  1  0  0  0  0
  9 17  1  0  0  0  0
  9 10  2  0  0  0  0
 18 19  1  0  0  0  0
 19 34  1  0  0  0  0
 19 20  2  0  0  0  0
 35 38  1  0  0  0  0
  8 11  1  0  0  0  0
 44 45  1  0  0  0  0
 18 21  1  0  0  0  0
 34 35  1  0  0  0  0
  7  8  1  0  0  0  0
 17 18  1  0  0  0  0
 24 32  1  0  0  0  0
 25 33  1  0  0  0  0
  3  4  1  0  0  0  0
  3  5  1  0  0  0  0
  3  6  1  0  0  0  0
 38 41  1  0  0  0  0
 38 42  1  0  0  0  0
 38 43  1  0  0  0  0
 11 14  1  0  0  0  0
 11 15  1  0  0  0  0
 11 16  1  0  0  0  0
 45 47  1  0  0  0  0
 45 48  1  0  0  0  0
 45 49  1  0  0  0  0
 21 29  1  0  0  0  0
 21 30  1  0  0  0  0
 35 40  1  0  0  0  0
  8 13  1  0  0  0  0
 18 28  1  0  0  0  0
 23 31  1  0  0  0  0
 44 46  1  0  0  0  0
  7 12  1  0  0  0  0
 34 39  1  0  0  0  0
 17 27  1  0  0  0  0
M  END
$$$$

  -OEChem-05262214473D

 49 49  0     1  0  0  0  0  0999 V2000
   -1.5619    0.5658    3.7981 C   0  0  0  0  0  0  0  0  0  0  0  0
   -0.6145   -0.0489    3.3224 O   0  0  0  0  0  0  0  0  0  0  0  0
   -1.9938    0.2834    5.1988 C   0  0  0  0  0  0  0  0  0  0  0  0
   -2.7535   -0.5129    5.2522 H   0  0  0  0  0  0  0  0  0  0  0  0
   -1.1626   -0.0642    5.8331 H   0  0  0  0  0  0  0  0  0  0  0  0
   -2.4318    1.1383    5.7384 H   0  0  0  0  0  0  0  0  0  0  0  0
   -2.3116    1.5383    3.1570 N   0  0  0  0  0  0  0  0  0  0  0  0
   -2.0648    1.9643    1.8046 C   0  0  2  0  0  0  0  0  0  0  0  0
   -0.7298    1.3789    1.3634 C   0  0  0  0  0  0  0  0  0  0  0  0
    0.1423    1.0262    2.1547 O   0  0  0  0  0  0  0  0  0  0  0  0
   -2.0560    3.4811    1.6952 C   0  0  0  0  0  0  0  0  0  0  0  0
   -3.0767    1.9741    3.6688 H   0  0  0  0  0  0  0  0  0  0  0  0
   -2.8689    1.5458    1.1895 H   0  0  0  0  0  0  0  0  0  0  0  0
   -1.2569    3.9183    2.3049 H   0  0  0  0  0  0  0  0  0  0  0  0
   -1.8965    3.8033    0.6609 H   0  0  0  0  0  0  0  0  0  0  0  0
   -3.0062    3.9023    2.0409 H   0  0  0  0  0  0  0  0  0  0  0  0
   -0.6071    1.3358   -0.0200 N   0  0  0  0  0  0  0  0  0  0  0  0
    0.5702    0.8350   -0.6836 C   0  0  2  0  0  0  0  0  0  0  0  0
    0.1978    0.5947   -2.1423 C   0  0  0  0  0  0  0  0  0  0  0  0
   -0.7991    1.0855   -2.6680 O   0  0  0  0  0  0  0  0  0  0  0  0
    1.0881   -0.4592   -0.0457 C   0  0  0  0  0  0  0  0  0  0  0  0
    1.5516   -0.2636    1.3772 C   0  0  0  0  0  0  0  0  0  0  0  0
    2.7310    0.3502    1.6926 N   0  0  0  0  0  0  0  0  0  0  0  0
    0.9954   -0.6010    2.5885 C   0  0  0  0  0  0  0  0  0  0  0  0
    2.8374    0.3578    3.0556 C   0  0  0  0  0  0  0  0  0  0  0  0
    1.8005   -0.2112    3.6293 N   0  0  0  0  0  0  0  0  0  0  0  0
   -1.3903    1.6325   -0.5973 H   0  0  0  0  0  0  0  0  0  0  0  0
    1.3211    1.6322   -0.6316 H   0  0  0  0  0  0  0  0  0  0  0  0
    1.9065   -0.8784   -0.6466 H   0  0  0  0  0  0  0  0  0  0  0  0
    0.3049   -1.2288   -0.0495 H   0  0  0  0  0  0  0  0  0  0  0  0
    3.4045    0.7292    1.0398 H   0  0  0  0  0  0  0  0  0  0  0  0
    0.0560   -1.1048    2.7667 H   0  0  0  0  0  0  0  0  0  0  0  0
    3.6884    0.7898    3.5627 H   0  0  0  0  0  0  0  0  0  0  0  0
    1.1373   -0.1904   -2.7959 N   0  0  0  0  0  0  0  0  0  0  0  0
    1.0377   -0.5503   -4.1921 C   0  0  2  0  0  0  0  0  0  0  0  0
   -0.3606   -1.1019   -4.4369 C   0  0  0  0  0  0  0  0  0  0  0  0
   -1.0632   -1.5697   -3.5433 O   0  0  0  0  0  0  0  0  0  0  0  0
    2.0990   -1.5689   -4.5781 C   0  0  0  0  0  0  0  0  0  0  0  0
    1.9352   -0.5292   -2.2663 H   0  0  0  0  0  0  0  0  0  0  0  0
    1.1728    0.3723   -4.7669 H   0  0  0  0  0  0  0  0  0  0  0  0
    1.9797   -2.5001   -4.0123 H   0  0  0  0  0  0  0  0  0  0  0  0
    2.0403   -1.8190   -5.6425 H   0  0  0  0  0  0  0  0  0  0  0  0
    3.1031   -1.1820   -4.3735 H   0  0  0  0  0  0  0  0  0  0  0  0
   -0.7148   -1.0497   -5.7778 N   0  0  0  0  0  0  0  0  0  0  0  0
   -1.9879   -1.5252   -6.2670 C   0  0  0  0  0  0  0  0  0  0  0  0
   -0.0776   -0.6278   -6.4469 H   0  0  0  0  0  0  0  0  0  0  0  0
   -1.8924   -2.5758   -6.5784 H   0  0  0  0  0  0  0  0  0  0  0  0
   -2.7400   -1.4465   -5.4682 H   0  0  0  0  0  0  0  0  0  0  0  0
   -2.3012   -0.9150   -7.1270 H   0  0  0  0  0  0  0  0  0  0  0  0
 22 24  2  0  0  0  0
 24 26  1  0  0  0  0
 25 26  2  0  0  0  0
 23 25  1  0  0  0  0
 21 22  1  0  0  0  0
 22 23  1  0  0  0  0
  1  3  1  0  0  0  0
  1  7  1  0  0  0  0
  1  2  2  0  0  0  0
 35 36  1  0  0  0  0
 36 44  1  0  0  0  0
 36 37  2  0  0  0  0
  8  9  1  0  0  0  0
  9 17  1  0  0  0  0
  9 10  2  0  0  0  0
 18 19  1  0  0  0  0
 19 34  1  0  0  0  0
 19 20  2  0  0  0  0
 35 38  1  0  0  0  0
  8 11  1  0  0  0  0
 44 45  1  0  0  0  0
 18 21  1  0  0  0  0
 34 35  1  0  0  0  0
  7  8  1  0  0  0  0
 17 18  1  0  0  0  0
 24 32  1  0  0  0  0
 25 33  1  0  0  0  0
  3  4  1  0  0  0  0
  3  5  1  0  0  0  0
  3  6  1  0  0  0  0
 38 41  1  0  0  0  0
 38 42  1  0  0  0  0
 38 43  1  0  0  0  0
 11 14  1  0  0  0  0
 11 15  1  0  0  0  0
 11 16  1  0  0  0  0
 45 47  1  0  0  0  0
 45 48  1  0  0  0  0
 45 49  1  0  0  0  0
 21 29  1  0  0  0  0
 21 30  1  0  0  0  0
 35 40  1  0  0  0  0
  8 13  1  0  0  0  0
 18 28  1  0  0  0  0
 23 31  1  0  0  0  0
 44 46  1  0  0  0  0
  7 12  1  0  0  0  0
 34 39  1  0  0  0  0
 17 27  1  0  0  0  0
M  END
$$$$

  -OEChem-05262214473D

 49 49  0     1  0  0  0  0  0999 V2000
   -1.5619    0.5658    3.7981 C   0  0  0  0  0  0  0  0  0  0  0  0
   -0.6145   -0.0489    3.3224 O   0  0  0  0  0  0  0  0  0  0  0  0
   -1.9938    0.2834    5.1988 C   0  0  0  0  0  0  0  0  0  0  0  0
   -2.7535   -0.5129    5.2522 H   0  0  0  0  0  0  0  0  0  0  0  0
   -1.1626   -0.0642    5.8331 H   0  0  0  0  0  0  0  0  0  0  0  0
   -2.4318    1.1383    5.7384 H   0  0  0  0  0  0  0  0  0  0  0  0
   -2.3116    1.5383    3.1570 N   0  0  0  0  0  0  0  0  0  0  0  0
   -2.0648    1.9643    1.8046 C   0  0  2  0  0  0  0  0  0  0  0  0
   -0.7298    1.3789    1.3634 C   0  0  0  0  0  0  0  0  0  0  0  0
    0.1423    1.0262    2.1547 O   0  0  0  0  0  0  0  0  0  0  0  0
   -2.0560    3.4811    1.6952 C   0  0  0  0  0  0  0  0  0  0  0  0
   -3.0767    1.9741    3.6688 H   0  0  0  0  0  0  0  0  0  0  0  0
   -2.8689    1.5458    1.1895 H   0  0  0  0  0  0  0  0  0  0  0  0
   -1.2569    3.9183    2.3049 H   0  0  0  0  0  0  0  0  0  0  0  0
   -1.8965    3.8033    0.6609 H   0  0  0  0  0  0  0  0  0  0  0  0
   -3.0062    3.9023    2.0409 H   0  0  0  0  0  0  0  0  0  0  0  0
   -0.6071    1.3358   -0.0200 N   0  0  0  0  0  0  0  0  0  0  0  0
    0.5702    0.8350   -0.6836 C   0  0  2  0  0  0  0  0  0  0  0  0
    0.1978    0.5947   -2.1423 C   0  0  0  0  0  0  0  0  0  0  0  0
   -0.6277    1.2788   -2.7436 O   0  0  0  0  0  0  0  0  0  0  0  0
    1.0881   -0.4592   -0.0457 C   0  0  0  0  0  0  0  0  0  0  0  0
    1.5516   -0.2636    1.3772 C   0  0  0  0  0  0  0  0  0  0  0  0
    2.7310    0.3502    1.6926 N   0  0  0  0  0  0  0  0  0  0  0  0
    0.9954   -0.6010    2.5885 C   0  0  0  0  0  0  0  0  0  0  0  0
    2.8374    0.3578    3.0556 C   0  0  0  0  0  0  0  0  0  0  0  0
    1.8005   -0.2112    3.6293 N   0  0  0  0  0  0  0  0  0  0  0  0
   -1.3903    1.6325   -0.5973 H   0  0  0  0  0  0  0  0  0  0  0  0
    1.3211    1.6322   -0.6316 H   0  0  0  0  0  0  0  0  0  0  0  0
    1.9065   -0.8784   -0.6466 H   0  0  0  0  0  0  0  0  0  0  0  0
    0.3049   -1.2288   -0.0495 H   0  0  0  0  0  0  0  0  0  0  0  0
    3.4045    0.7292    1.0398 H   0  0  0  0  0  0  0  0  0  0  0  0
    0.0560   -1.1048    2.7667 H   0  0  0  0  0  0  0  0  0  0  0  0
    3.6884    0.7898    3.5627 H   0  0  0  0  0  0  0  0  0  0  0  0
    0.9332   -0.4405   -2.7026 N   0  0  0  0  0  0  0  0  0  0  0  0
    0.7930   -0.8593   -4.0787 C   0  0  2  0  0  0  0  0  0  0  0  0
   -0.6898   -1.0648   -4.3590 C   0  0  0  0  0  0  0  0  0  0  0  0
   -1.5156   -1.2830   -3.4750 O   0  0  0  0  0  0  0  0  0  0  0  0
    1.5794   -2.1318   -4.3527 C   0  0  0  0  0  0  0  0  0  0  0  0
    1.6038   -0.9283   -2.1159 H   0  0  0  0  0  0  0  0  0  0  0  0
    1.1724   -0.0399   -4.6989 H   0  0  0  0  0  0  0  0  0  0  0  0
    1.2136   -2.9640   -3.7403 H   0  0  0  0  0  0  0  0  0  0  0  0
    1.4953   -2.4320   -5.4024 H   0  0  0  0  0  0  0  0  0  0  0  0
    2.6410   -1.9911   -4.1222 H   0  0  0  0  0  0  0  0  0  0  0  0
   -0.9757   -1.0188   -5.7163 N   0  0  0  0  0  0  0  0  0  0  0  0
   -2.3102   -1.1983   -6.2385 C   0  0  0  0  0  0  0  0  0  0  0  0
   -0.2318   -0.8137   -6.3769 H   0  0  0  0  0  0  0  0  0  0  0  0
   -2.4691   -2.2588   -6.4834 H   0  0  0  0  0  0  0  0  0  0  0  0
   -3.0449   -0.8824   -5.4833 H   0  0  0  0  0  0  0  0  0  0  0  0
   -2.4333   -0.5900   -7.1468 H   0  0  0  0  0  0  0  0  0  0  0  0
 22 24  2  0  0  0  0
 24 26  1  0  0  0  0
 25 26  2  0  0  0  0
 23 25  1  0  0  0  0
 21 22  1  0  0  0  0
 22 23  1  0  0  0  0
  1  3  1  0  0  0  0
  1  7  1  0  0  0  0
  1  2  2  0  0  0  0
 35 36  1  0  0  0  0
 36 44  1  0  0  0  0
 36 37  2  0  0  0  0
  8  9  1  0  0  0  0
  9 17  1  0  0  0  0
  9 10  2  0  0  0  0
 18 19  1  0  0  0  0
 19 34  1  0  0  0  0
 19 20  2  0  0  0  0
 35 38  1  0  0  0  0
  8 11  1  0  0  0  0
 44 45  1  0  0  0  0
 18 21  1  0  0  0  0
 34 35  1  0  0  0  0
  7  8  1  0  0  0  0
 17 18  1  0  0  0  0
 24 32  1  0  0  0  0
 25 33  1  0  0  0  0
  3  4  1  0  0  0  0
  3  5  1  0  0  0  0
  3  6  1  0  0  0  0
 38 41  1  0  0  0  0
 38 42  1  0  0  0  0
 38 43  1  0  0  0  0
 11 14  1  0  0  0  0
 11 15  1  0  0  0  0
 11 16  1  0  0  0  0
 45 47  1  0  0  0  0
 45 48  1  0  0  0  0
 45 49  1  0  0  0  0
 21 29  1  0  0  0  0
 21 30  1  0  0  0  0
 35 40  1  0  0  0  0
  8 13  1  0  0  0  0
 18 28  1  0  0  0  0
 23 31  1  0  0  0  0
 44 46  1  0  0  0  0
  7 12  1  0  0  0  0
 34 39  1  0  0  0  0
 17 27  1  0  0  0  0
M  END
$$$$

  -OEChem-05262214473D

 49 49  0     1  0  0  0  0  0999 V2000
   -1.5619    0.5658    3.7981 C   0  0  0  0  0  0  0  0  0  0  0  0
   -0.6145   -0.0489    3.3224 O   0  0  0  0  0  0  0  0  0  0  0  0
   -1.9938    0.2834    5.1988 C   0  0  0  0  0  0  0  0  0  0  0  0
   -2.7535   -0.5129    5.2522 H   0  0  0  0  0  0  0  0  0  0  0  0
   -1.1626   -0.0642    5.8331 H   0  0  0  0  0  0  0  0  0  0  0  0
   -2.4318    1.1383    5.7384 H   0  0  0  0  0  0  0  0  0  0  0  0
   -2.3116    1.5383    3.1570 N   0  0  0  0  0  0  0  0  0  0  0  0
   -2.0648    1.9643    1.8046 C   0  0  2  0  0  0  0  0  0  0  0  0
   -0.7298    1.3789    1.3634 C   0  0  0  0  0  0  0  0  0  0  0  0
    0.1423    1.0262    2.1547 O   0  0  0  0  0  0  0  0  0  0  0  0
   -2.0560    3.4811    1.6952 C   0  0  0  0  0  0  0  0  0  0  0  0
   -3.0767    1.9741    3.6688 H   0  0  0  0  0  0  0  0  0  0  0  0
   -2.8689    1.5458    1.1895 H   0  0  0  0  0  0  0  0  0  0  0  0
   -1.2569    3.9183    2.3049 H   0  0  0  0  0  0  0  0  0  0  0  0
   -1.8965    3.8033    0.6609 H   0  0  0  0  0  0  0  0  0  0  0  0
   -3.0062    3.9023    2.0409 H   0  0  0  0  0  0  0  0  0  0  0  0
   -0.6071    1.3358   -0.0200 N   0  0  0  0  0  0  0  0  0  0  0  0
    0.5702    0.8350   -0.6836 C   0  0  2  0  0  0  0  0  0  0  0  0
    0.1978    0.5947   -2.1423 C   0  0  0  0  0  0  0  0  0  0  0  0
   -0.4112    1.4183   -2.8219 O   0  0  0  0  0  0  0  0  0  0  0  0
    1.0881   -0.4592   -0.0457 C   0  0  0  0  0  0  0  0  0  0  0  0
    1.5516   -0.2636    1.3772 C   0  0  0  0  0  0  0  0  0  0  0  0
    2.7310    0.3502    1.6926 N   0  0  0  0  0  0  0  0  0  0  0  0
    0.9954   -0.6010    2.5885 C   0  0  0  0  0  0  0  0  0  0  0  0
    2.8374    0.3578    3.0556 C   0  0  0  0  0  0  0  0  0  0  0  0
    1.8005   -0.2112    3.6293 N   0  0  0  0  0  0  0  0  0  0  0  0
   -1.3903    1.6325   -0.5973 H   0  0  0  0  0  0  0  0  0  0  0  0
    1.3211    1.6322   -0.6316 H   0  0  0  0  0  0  0  0  0  0  0  0
    1.9065   -0.8784   -0.6466 H   0  0  0  0  0  0  0  0  0  0  0  0
    0.3049   -1.2288   -0.0495 H   0  0  0  0  0  0  0  0  0  0  0  0
    3.4045    0.7292    1.0398 H   0  0  0  0  0  0  0  0  0  0  0  0
    0.0560   -1.1048    2.7667 H   0  0  0  0  0  0  0  0  0  0  0  0
    3.6884    0.7898    3.5627 H   0  0  0  0  0  0  0  0  0  0  0  0
    0.6703   -0.6255   -2.6050 N   0  0  0  0  0  0  0  0  0  0  0  0
    0.4755   -1.0900   -3.9597 C   0  0  2  0  0  0  0  0  0  0  0  0
   -1.0017   -0.9425   -4.2995 C   0  0  0  0  0  0  0  0  0  0  0  0
   -1.8845   -0.8896   -3.4456 O   0  0  0  0  0  0  0  0  0  0  0  0
    0.9289   -2.5326   -4.1206 C   0  0  0  0  0  0  0  0  0  0  0  0
    1.1787   -1.2222   -1.9590 H   0  0  0  0  0  0  0  0  0  0  0  0
    1.0671   -0.4337   -4.6072 H   0  0  0  0  0  0  0  0  0  0  0  0
    0.3475   -3.2052   -3.4795 H   0  0  0  0  0  0  0  0  0  0  0  0
    0.8072   -2.8739   -5.1539 H   0  0  0  0  0  0  0  0  0  0  0  0
    1.9839   -2.6424   -3.8472 H   0  0  0  0  0  0  0  0  0  0  0  0
   -1.2224   -0.9204   -5.6695 N   0  0  0  0  0  0  0  0  0  0  0  0
   -2.5418   -0.8009   -6.2449 C   0  0  0  0  0  0  0  0  0  0  0  0
   -0.4297   -0.9505   -6.3039 H   0  0  0  0  0  0  0  0  0  0  0  0
   -2.9516   -1.8038   -6.4352 H   0  0  0  0  0  0  0  0  0  0  0  0
   -3.1991   -0.2629   -5.5460 H   0  0  0  0  0  0  0  0  0  0  0  0
   -2.4797   -0.2446   -7.1918 H   0  0  0  0  0  0  0  0  0  0  0  0
 22 24  2  0  0  0  0
 24 26  1  0  0  0  0
 25 26  2  0  0  0  0
 23 25  1  0  0  0  0
 21 22  1  0  0  0  0
 22 23  1  0  0  0  0
  1  3  1  0  0  0  0
  1  7  1  0  0  0  0
  1  2  2  0  0  0  0
 35 36  1  0  0  0  0
 36 44  1  0  0  0  0
 36 37  2  0  0  0  0
  8  9  1  0  0  0  0
  9 17  1  0  0  0  0
  9 10  2  0  0  0  0
 18 19  1  0  0  0  0
 19 34  1  0  0  0  0
 19 20  2  0  0  0  0
 35 38  1  0  0  0  0
  8 11  1  0  0  0  0
 44 45  1  0  0  0  0
 18 21  1  0  0  0  0
 34 35  1  0  0  0  0
  7  8  1  0  0  0  0
 17 18  1  0  0  0  0
 24 32  1  0  0  0  0
 25 33  1  0  0  0  0
  3  4  1  0  0  0  0
  3  5  1  0  0  0  0
  3  6  1  0  0  0  0
 38 41  1  0  0  0  0
 38 42  1  0  0  0  0
 38 43  1  0  0  0  0
 11 14  1  0  0  0  0
 11 15  1  0  0  0  0
 11 16  1  0  0  0  0
 45 47  1  0  0  0  0
 45 48  1  0  0  0  0
 45 49  1  0  0  0  0
 21 29  1  0  0  0  0
 21 30  1  0  0  0  0
 35 40  1  0  0  0  0
  8 13  1  0  0  0  0
 18 28  1  0  0  0  0
 23 31  1  0  0  0  0
 44 46  1  0  0  0  0
  7 12  1  0  0  0  0
 34 39  1  0  0  0  0
 17 27  1  0  0  0  0
M  END
$$$$

  -OEChem-05262214473D

 49 49  0     1  0  0  0  0  0999 V2000
   -1.5619    0.5658    3.7981 C   0  0  0  0  0  0  0  0  0  0  0  0
   -0.6145   -0.0489    3.3224 O   0  0  0  0  0  0  0  0  0  0  0  0
   -1.9938    0.2834    5.1988 C   0  0  0  0  0  0  0  0  0  0  0  0
   -2.7535   -0.5129    5.2522 H   0  0  0  0  0  0  0  0  0  0  0  0
   -1.1626   -0.0642    5.8331 H   0  0  0  0  0  0  0  0  0  0  0  0
   -2.4318    1.1383    5.7384 H   0  0  0  0  0  0  0  0  0  0  0  0
   -2.3116    1.5383    3.1570 N   0  0  0  0  0  0  0  0  0  0  0  0
   -2.0648    1.9643    1.8046 C   0  0  2  0  0  0  0  0  0  0  0  0
   -0.7298    1.3789    1.3634 C   0  0  0  0  0  0  0  0  0  0  0  0
    0.1423    1.0262    2.1547 O   0  0  0  0  0  0  0  0  0  0  0  0
   -2.0560    3.4811    1.6952 C   0  0  0  0  0  0  0  0  0  0  0  0
   -3.0767    1.9741    3.6688 H   0  0  0  0  0  0  0  0  0  0  0  0
   -2.8689    1.5458    1.1895 H   0  0  0  0  0  0  0  0  0  0  0  0
   -1.2569    3.9183    2.3049 H   0  0  0  0  0  0  0  0  0  0  0  0
   -1.8965    3.8033    0.6609 H   0  0  0  0  0  0  0  0  0  0  0  0
   -3.0062    3.9023    2.0409 H   0  0  0  0  0  0  0  0  0  0  0  0
   -0.6071    1.3358   -0.0200 N   0  0  0  0  0  0  0  0  0  0  0  0
    0.5702    0.8350   -0.6836 C   0  0  2  0  0  0  0  0  0  0  0  0
    0.1978    0.5947   -2.1423 C   0  0  0  0  0  0  0  0  0  0  0  0
   -0.1643    1.4945   -2.8974 O   0  0  0  0  0  0  0  0  0  0  0  0
    1.0881   -0.4592   -0.0457 C   0  0  0  0  0  0  0  0  0  0  0  0
    1.5516   -0.2636    1.3772 C   0  0  0  0  0  0  0  0  0  0  0  0
    2.7310    0.3502    1.6926 N   0  0  0  0  0  0  0  0  0  0  0  0
    0.9954   -0.6010    2.5885 C   0  0  0  0  0  0  0  0  0  0  0  0
    2.8374    0.3578    3.0556 C   0  0  0  0  0  0  0  0  0  0  0  0
    1.8005   -0.2112    3.6293 N   0  0  0  0  0  0  0  0  0  0  0  0
   -1.3903    1.6325   -0.5973 H   0  0  0  0  0  0  0  0  0  0  0  0
    1.3211    1.6322   -0.6316 H   0  0  0  0  0  0  0  0  0  0  0  0
    1.9065   -0.8784   -0.6466 H   0  0  0  0  0  0  0  0  0  0  0  0
    0.3049   -1.2288   -0.0495 H   0  0  0  0  0  0  0  0  0  0  0  0
    3.4045    0.7292    1.0398 H   0  0  0  0  0  0  0  0  0  0  0  0
    0.0560   -1.1048    2.7667 H   0  0  0  0  0  0  0  0  0  0  0  0
    3.6884    0.7898    3.5627 H   0  0  0  0  0  0  0  0  0  0  0  0
    0.3666   -0.7330   -2.5098 N   0  0  0  0  0  0  0  0  0  0  0  0
    0.1068   -1.2266   -3.8430 C   0  0  2  0  0  0  0  0  0  0  0  0
   -1.2752   -0.7434   -4.2625 C   0  0  0  0  0  0  0  0  0  0  0  0
   -2.1445   -0.4165   -3.4572 O   0  0  0  0  0  0  0  0  0  0  0  0
    0.1919   -2.7440   -3.8976 C   0  0  0  0  0  0  0  0  0  0  0  0
    0.6889   -1.3909   -1.8062 H   0  0  0  0  0  0  0  0  0  0  0  0
    0.8641   -0.7821   -4.4980 H   0  0  0  0  0  0  0  0  0  0  0  0
   -0.5594   -3.2072   -3.2476 H   0  0  0  0  0  0  0  0  0  0  0  0
    0.0231   -3.1146   -4.9141 H   0  0  0  0  0  0  0  0  0  0  0  0
    1.1768   -3.0913   -3.5672 H   0  0  0  0  0  0  0  0  0  0  0  0
   -1.4383   -0.7614   -5.6406 N   0  0  0  0  0  0  0  0  0  0  0  0
   -2.6668   -0.3602   -6.2856 C   0  0  0  0  0  0  0  0  0  0  0  0
   -0.6576   -1.0291   -6.2327 H   0  0  0  0  0  0  0  0  0  0  0  0
   -3.3069   -1.2418   -6.4370 H   0  0  0  0  0  0  0  0  0  0  0  0
   -3.1920    0.3697   -5.6520 H   0  0  0  0  0  0  0  0  0  0  0  0
   -2.4371    0.0976   -7.2591 H   0  0  0  0  0  0  0  0  0  0  0  0
 22 24  2  0  0  0  0
 24 26  1  0  0  0  0
 25 26  2  0  0  0  0
 23 25  1  0  0  0  0
 21 22  1  0  0  0  0
 22 23  1  0  0  0  0
  1  3  1  0  0  0  0
  1  7  1  0  0  0  0
  1  2  2  0  0  0  0
 35 36  1  0  0  0  0
 36 44  1  0  0  0  0
 36 37  2  0  0  0  0
  8  9  1  0  0  0  0
  9 17  1  0  0  0  0
  9 10  2  0  0  0  0
 18 19  1  0  0  0  0
 19 34  1  0  0  0  0
 19 20  2  0  0  0  0
 35 38  1  0  0  0  0
  8 11  1  0  0  0  0
 44 45  1  0  0  0  0
 18 21  1  0  0  0  0
 34 35  1  0  0  0  0
  7  8  1  0  0  0  0
 17 18  1  0  0  0  0
 24 32  1  0  0  0  0
 25 33  1  0  0  0  0
  3  4  1  0  0  0  0
  3  5  1  0  0  0  0
  3  6  1  0  0  0  0
 38 41  1  0  0  0  0
 38 42  1  0  0  0  0
 38 43  1  0  0  0  0
 11 14  1  0  0  0  0
 11 15  1  0  0  0  0
 11 16  1  0  0  0  0
 45 47  1  0  0  0  0
 45 48  1  0  0  0  0
 45 49  1  0  0  0  0
 21 29  1  0  0  0  0
 21 30  1  0  0  0  0
 35 40  1  0  0  0  0
  8 13  1  0  0  0  0
 18 28  1  0  0  0  0
 23 31  1  0  0  0  0
 44 46  1  0  0  0  0
  7 12  1  0  0  0  0
 34 39  1  0  0  0  0
 17 27  1  0  0  0  0
M  END
$$$$

  -OEChem-05262214473D

 49 49  0     1  0  0  0  0  0999 V2000
   -1.5619    0.5658    3.7981 C   0  0  0  0  0  0  0  0  0  0  0  0
   -0.6145   -0.0489    3.3224 O   0  0  0  0  0  0  0  0  0  0  0  0
   -1.9938    0.2834    5.1988 C   0  0  0  0  0  0  0  0  0  0  0  0
   -2.7535   -0.5129    5.2522 H   0  0  0  0  0  0  0  0  0  0  0  0
   -1.1626   -0.0642    5.8331 H   0  0  0  0  0  0  0  0  0  0  0  0
   -2.4318    1.1383    5.7384 H   0  0  0  0  0  0  0  0  0  0  0  0
   -2.3116    1.5383    3.1570 N   0  0  0  0  0  0  0  0  0  0  0  0
   -2.0648    1.9643    1.8046 C   0  0  2  0  0  0  0  0  0  0  0  0
   -0.7298    1.3789    1.3634 C   0  0  0  0  0  0  0  0  0  0  0  0
    0.1423    1.0262    2.1547 O   0  0  0  0  0  0  0  0  0  0  0  0
   -2.0560    3.4811    1.6952 C   0  0  0  0  0  0  0  0  0  0  0  0
   -3.0767    1.9741    3.6688 H   0  0  0  0  0  0  0  0  0  0  0  0
   -2.8689    1.5458    1.1895 H   0  0  0  0  0  0  0  0  0  0  0  0
   -1.2569    3.9183    2.3049 H   0  0  0  0  0  0  0  0  0  0  0  0
   -1.8965    3.8033    0.6609 H   0  0  0  0  0  0  0  0  0  0  0  0
   -3.0062    3.9023    2.0409 H   0  0  0  0  0  0  0  0  0  0  0  0
   -0.6071    1.3358   -0.0200 N   0  0  0  0  0  0  0  0  0  0  0  0
    0.5702    0.8350   -0.6836 C   0  0  2  0  0  0  0  0  0  0  0  0
    0.1978    0.5947   -2.1423 C   0  0  0  0  0  0  0  0  0  0  0  0
    0.0961    1.5022   -2.9652 O   0  0  0  0  0  0  0  0  0  0  0  0
    1.0881   -0.4592   -0.0457 C   0  0  0  0  0  0  0  0  0  0  0  0
    1.5516   -0.2636    1.3772 C   0  0  0  0  0  0  0  0  0  0  0  0
    2.7310    0.3502    1.6926 N   0  0  0  0  0  0  0  0  0  0  0  0
    0.9954   -0.6010    2.5885 C   0  0  0  0  0  0  0  0  0  0  0  0
    2.8374    0.3578    3.0556 C   0  0  0  0  0  0  0  0  0  0  0  0
    1.8005   -0.2112    3.6293 N   0  0  0  0  0  0  0  0  0  0  0  0
   -1.3903    1.6325   -0.5973 H   0  0  0  0  0  0  0  0  0  0  0  0
    1.3211    1.6322   -0.6316 H   0  0  0  0  0  0  0  0  0  0  0  0
    1.9065   -0.8784   -0.6466 H   0  0  0  0  0  0  0  0  0  0  0  0
    0.3049   -1.2288   -0.0495 H   0  0  0  0  0  0  0  0  0  0  0  0
    3.4045    0.7292    1.0398 H   0  0  0  0  0  0  0  0  0  0  0  0
    0.0560   -1.1048    2.7667 H   0  0  0  0  0  0  0  0  0  0  0  0
    3.6884    0.7898    3.5627 H   0  0  0  0  0  0  0  0  0  0  0  0
    0.0427   -0.7556   -2.4233 N   0  0  0  0  0  0  0  0  0  0  0  0
   -0.2879   -1.2600   -3.7368 C   0  0  2  0  0  0  0  0  0  0  0  0
   -1.4916   -0.4811   -4.2505 C   0  0  0  0  0  0  0  0  0  0  0  0
   -2.2780    0.1042   -3.5089 O   0  0  0  0  0  0  0  0  0  0  0  0
   -0.5815   -2.7516   -3.6989 C   0  0  0  0  0  0  0  0  0  0  0  0
    0.1678   -1.4229   -1.6679 H   0  0  0  0  0  0  0  0  0  0  0  0
    0.5773   -1.0615   -4.3787 H   0  0  0  0  0  0  0  0  0  0  0  0
   -1.4454   -2.9699   -3.0605 H   0  0  0  0  0  0  0  0  0  0  0  0
   -0.8038   -3.1378   -4.6992 H   0  0  0  0  0  0  0  0  0  0  0  0
    0.2745   -3.3074   -3.3013 H   0  0  0  0  0  0  0  0  0  0  0  0
   -1.6087   -0.5524   -5.6315 N   0  0  0  0  0  0  0  0  0  0  0  0
   -2.6767    0.0940   -6.3578 C   0  0  0  0  0  0  0  0  0  0  0  0
   -0.9002   -1.0440   -6.1684 H   0  0  0  0  0  0  0  0  0  0  0  0
   -3.5108   -0.6111   -6.4889 H   0  0  0  0  0  0  0  0  0  0  0  0
   -3.0242    0.9722   -5.7941 H   0  0  0  0  0  0  0  0  0  0  0  0
   -2.3085    0.4134   -7.3439 H   0  0  0  0  0  0  0  0  0  0  0  0
 22 24  2  0  0  0  0
 24 26  1  0  0  0  0
 25 26  2  0  0  0  0
 23 25  1  0  0  0  0
 21 22  1  0  0  0  0
 22 23  1  0  0  0  0
  1  3  1  0  0  0  0
  1  7  1  0  0  0  0
  1  2  2  0  0  0  0
 35 36  1  0  0  0  0
 36 44  1  0  0  0  0
 36 37  2  0  0  0  0
  8  9  1  0  0  0  0
  9 17  1  0  0  0  0
  9 10  2  0  0  0  0
 18 19  1  0  0  0  0
 19 34  1  0  0  0  0
 19 20  2  0  0  0  0
 35 38  1  0  0  0  0
  8 11  1  0  0  0  0
 44 45  1  0  0  0  0
 18 21  1  0  0  0  0
 34 35  1  0  0  0  0
  7  8  1  0  0  0  0
 17 18  1  0  0  0  0
 24 32  1  0  0  0  0
 25 33  1  0  0  0  0
  3  4  1  0  0  0  0
  3  5  1  0  0  0  0
  3  6  1  0  0  0  0
 38 41  1  0  0  0  0
 38 42  1  0  0  0  0
 38 43  1  0  0  0  0
 11 14  1  0  0  0  0
 11 15  1  0  0  0  0
 11 16  1  0  0  0  0
 45 47  1  0  0  0  0
 45 48  1  0  0  0  0
 45 49  1  0  0  0  0
 21 29  1  0  0  0  0
 21 30  1  0  0  0  0
 35 40  1  0  0  0  0
  8 13  1  0  0  0  0
 18 28  1  0  0  0  0
 23 31  1  0  0  0  0
 44 46  1  0  0  0  0
  7 12  1  0  0  0  0
 34 39  1  0  0  0  0
 17 27  1  0  0  0  0
M  END
$$$$

  -OEChem-05262214473D

 49 49  0     1  0  0  0  0  0999 V2000
   -1.5619    0.5658    3.7981 C   0  0  0  0  0  0  0  0  0  0  0  0
   -0.6145   -0.0489    3.3224 O   0  0  0  0  0  0  0  0  0  0  0  0
   -1.9938    0.2834    5.1988 C   0  0  0  0  0  0  0  0  0  0  0  0
   -2.7535   -0.5129    5.2522 H   0  0  0  0  0  0  0  0  0  0  0  0
   -1.1626   -0.0642    5.8331 H   0  0  0  0  0  0  0  0  0  0  0  0
   -2.4318    1.1383    5.7384 H   0  0  0  0  0  0  0  0  0  0  0  0
   -2.3116    1.5383    3.1570 N   0  0  0  0  0  0  0  0  0  0  0  0
   -2.0648    1.9643    1.8046 C   0  0  2  0  0  0  0  0  0  0  0  0
   -0.7298    1.3789    1.3634 C   0  0  0  0  0  0  0  0  0  0  0  0
    0.1423    1.0262    2.1547 O   0  0  0  0  0  0  0  0  0  0  0  0
   -2.0560    3.4811    1.6952 C   0  0  0  0  0  0  0  0  0  0  0  0
   -3.0767    1.9741    3.6688 H   0  0  0  0  0  0  0  0  0  0  0  0
   -2.8689    1.5458    1.1895 H   0  0  0  0  0  0  0  0  0  0  0  0
   -1.2569    3.9183    2.3049 H   0  0  0  0  0  0  0  0  0  0  0  0
   -1.8965    3.8033    0.6609 H   0  0  0  0  0  0  0  0  0  0  0  0
   -3.0062    3.9023    2.0409 H   0  0  0  0  0  0  0  0  0  0  0  0
   -0.6071    1.3358   -0.0200 N   0  0  0  0  0  0  0  0  0  0  0  0
    0.5702    0.8350   -0.6836 C   0  0  2  0  0  0  0  0  0  0  0  0
    0.1978    0.5947   -2.1423 C   0  0  0  0  0  0  0  0  0  0  0  0
    0.3523    1.4409   -3.0205 O   0  0  0  0  0  0  0  0  0  0  0  0
    1.0881   -0.4592   -0.0457 C   0  0  0  0  0  0  0  0  0  0  0  0
    1.5516   -0.2636    1.3772 C   0  0  0  0  0  0  0  0  0  0  0  0
    2.7310    0.3502    1.6926 N   0  0  0  0  0  0  0  0  0  0  0  0
    0.9954   -0.6010    2.5885 C   0  0  0  0  0  0  0  0  0  0  0  0
    2.8374    0.3578    3.0556 C   0  0  0  0  0  0  0  0  0  0  0  0
    1.8005   -0.2112    3.6293 N   0  0  0  0  0  0  0  0  0  0  0  0
   -1.3903    1.6325   -0.5973 H   0  0  0  0  0  0  0  0  0  0  0  0
    1.3211    1.6322   -0.6316 H   0  0  0  0  0  0  0  0  0  0  0  0
    1.9065   -0.8784   -0.6466 H   0  0  0  0  0  0  0  0  0  0  0  0
    0.3049   -1.2288   -0.0495 H   0  0  0  0  0  0  0  0  0  0  0  0
    3.4045    0.7292    1.0398 H   0  0  0  0  0  0  0  0  0  0  0  0
    0.0560   -1.1048    2.7667 H   0  0  0  0  0  0  0  0  0  0  0  0
    3.6884    0.7898    3.5627 H   0  0  0  0  0  0  0  0  0  0  0  0
   -0.2793   -0.6917   -2.3517 N   0  0  0  0  0  0  0  0  0  0  0  0
   -0.6817   -1.1877   -3.6482 C   0  0  2  0  0  0  0  0  0  0  0  0
   -1.6361   -0.1733   -4.2643 C   0  0  0  0  0  0  0  0  0  0  0  0
   -2.2759    0.6370   -3.5971 O   0  0  0  0  0  0  0  0  0  0  0  0
   -1.3386   -2.5549   -3.5381 C   0  0  0  0  0  0  0  0  0  0  0  0
   -0.3491   -1.3161   -1.5535 H   0  0  0  0  0  0  0  0  0  0  0  0
    0.2262   -1.2529   -4.2576 H   0  0  0  0  0  0  0  0  0  0  0  0
   -2.2500   -2.5095   -2.9309 H   0  0  0  0  0  0  0  0  0  0  0  0
   -1.6170   -2.9418   -4.5239 H   0  0  0  0  0  0  0  0  0  0  0  0
   -0.6614   -3.2759   -3.0675 H   0  0  0  0  0  0  0  0  0  0  0  0
   -1.7218   -0.3078   -5.6429 N   0  0  0  0  0  0  0  0  0  0  0  0
   -2.5709    0.5305   -6.4568 C   0  0  0  0  0  0  0  0  0  0  0  0
   -1.1408   -0.9943   -6.1151 H   0  0  0  0  0  0  0  0  0  0  0  0
   -3.5495    0.0454   -6.5871 H   0  0  0  0  0  0  0  0  0  0  0  0
   -2.7071    1.5037   -5.9626 H   0  0  0  0  0  0  0  0  0  0  0  0
   -2.1025    0.6812   -7.4406 H   0  0  0  0  0  0  0  0  0  0  0  0
 22 24  2  0  0  0  0
 24 26  1  0  0  0  0
 25 26  2  0  0  0  0
 23 25  1  0  0  0  0
 21 22  1  0  0  0  0
 22 23  1  0  0  0  0
  1  3  1  0  0  0  0
  1  7  1  0  0  0  0
  1  2  2  0  0  0  0
 35 36  1  0  0  0  0
 36 44  1  0  0  0  0
 36 37  2  0  0  0  0
  8  9  1  0  0  0  0
  9 17  1  0  0  0  0
  9 10  2  0  0  0  0
 18 19  1  0  0  0  0
 19 34  1  0  0  0  0
 19 20  2  0  0  0  0
 35 38  1  0  0  0  0
  8 11  1  0  0  0  0
 44 45  1  0  0  0  0
 18 21  1  0  0  0  0
 34 35  1  0  0  0  0
  7  8  1  0  0  0  0
 17 18  1  0  0  0  0
 24 32  1  0  0  0  0
 25 33  1  0  0  0  0
  3  4  1  0  0  0  0
  3  5  1  0  0  0  0
  3  6  1  0  0  0  0
 38 41  1  0  0  0  0
 38 42  1  0  0  0  0
 38 43  1  0  0  0  0
 11 14  1  0  0  0  0
 11 15  1  0  0  0  0
 11 16  1  0  0  0  0
 45 47  1  0  0  0  0
 45 48  1  0  0  0  0
 45 49  1  0  0  0  0
 21 29  1  0  0  0  0
 21 30  1  0  0  0  0
 35 40  1  0  0  0  0
  8 13  1  0  0  0  0
 18 28  1  0  0  0  0
 23 31  1  0  0  0  0
 44 46  1  0  0  0  0
  7 12  1  0  0  0  0
 34 39  1  0  0  0  0
 17 27  1  0  0  0  0
M  END
$$$$

  -OEChem-05262214473D

 49 49  0     1  0  0  0  0  0999 V2000
   -1.5619    0.5658    3.7981 C   0  0  0  0  0  0  0  0  0  0  0  0
   -0.6145   -0.0489    3.3224 O   0  0  0  0  0  0  0  0  0  0  0  0
   -1.9938    0.2834    5.1988 C   0  0  0  0  0  0  0  0  0  0  0  0
   -2.7535   -0.5129    5.2522 H   0  0  0  0  0  0  0  0  0  0  0  0
   -1.1626   -0.0642    5.8331 H   0  0  0  0  0  0  0  0  0  0  0  0
   -2.4318    1.1383    5.7384 H   0  0  0  0  0  0  0  0  0  0  0  0
   -2.3116    1.5383    3.1570 N   0  0  0  0  0  0  0  0  0  0  0  0
   -2.0648    1.9643    1.8046 C   0  0  2  0  0  0  0  0  0  0  0  0
   -0.7298    1.3789    1.3634 C   0  0  0  0  0  0  0  0  0  0  0  0
    0.1423    1.0262    2.1547 O   0  0  0  0  0  0  0  0  0  0  0  0
   -2.0560    3.4811    1.6952 C   0  0  0  0  0  0  0  0  0  0  0  0
   -3.0767    1.9741    3.6688 H   0  0  0  0  0  0  0  0  0  0  0  0
   -2.8689    1.5458    1.1895 H   0  0  0  0  0  0  0  0  0  0  0  0
   -1.2569    3.9183    2.3049 H   0  0  0  0  0  0  0  0  0  0  0  0
   -1.8965    3.8033    0.6609 H   0  0  0  0  0  0  0  0  0  0  0  0
   -3.0062    3.9023    2.0409 H   0  0  0  0  0  0  0  0  0  0  0  0
   -0.6071    1.3358   -0.0200 N   0  0  0  0  0  0  0  0  0  0  0  0
    0.5702    0.8350   -0.6836 C   0  0  2  0  0  0  0  0  0  0  0  0
    0.1978    0.5947   -2.1423 C   0  0  0  0  0  0  0  0  0  0  0  0
    0.5868    1.3147   -3.0596 O   0  0  0  0  0  0  0  0  0  0  0  0
    1.0881   -0.4592   -0.0457 C   0  0  0  0  0  0  0  0  0  0  0  0
    1.5516   -0.2636    1.3772 C   0  0  0  0  0  0  0  0  0  0  0  0
    2.7310    0.3502    1.6926 N   0  0  0  0  0  0  0  0  0  0  0  0
    0.9954   -0.6010    2.5885 C   0  0  0  0  0  0  0  0  0  0  0  0
    2.8374    0.3578    3.0556 C   0  0  0  0  0  0  0  0  0  0  0  0
    1.8005   -0.2112    3.6293 N   0  0  0  0  0  0  0  0  0  0  0  0
   -1.3903    1.6325   -0.5973 H   0  0  0  0  0  0  0  0  0  0  0  0
    1.3211    1.6322   -0.6316 H   0  0  0  0  0  0  0  0  0  0  0  0
    1.9065   -0.8784   -0.6466 H   0  0  0  0  0  0  0  0  0  0  0  0
    0.3049   -1.2288   -0.0495 H   0  0  0  0  0  0  0  0  0  0  0  0
    3.4045    0.7292    1.0398 H   0  0  0  0  0  0  0  0  0  0  0  0
    0.0560   -1.1048    2.7667 H   0  0  0  0  0  0  0  0  0  0  0  0
    3.6884    0.7898    3.5627 H   0  0  0  0  0  0  0  0  0  0  0  0
   -0.5774   -0.5458   -2.2996 N   0  0  0  0  0  0  0  0  0  0  0  0
   -1.0478   -1.0148   -3.5832 C   0  0  2  0  0  0  0  0  0  0  0  0
   -1.6988    0.1589   -4.3030 C   0  0  0  0  0  0  0  0  0  0  0  0
   -2.1384    1.1455   -3.7160 O   0  0  0  0  0  0  0  0  0  0  0  0
   -2.0276   -2.1672   -3.4260 C   0  0  0  0  0  0  0  0  0  0  0  0
   -0.8266   -1.0776   -1.4709 H   0  0  0  0  0  0  0  0  0  0  0  0
   -0.1652   -1.3431   -4.1428 H   0  0  0  0  0  0  0  0  0  0  0  0
   -2.9185   -1.8573   -2.8677 H   0  0  0  0  0  0  0  0  0  0  0  0
   -2.3611   -2.5401   -4.4001 H   0  0  0  0  0  0  0  0  0  0  0  0
   -1.5671   -2.9989   -2.8820 H   0  0  0  0  0  0  0  0  0  0  0  0
   -1.7701   -0.0443   -5.6740 N   0  0  0  0  0  0  0  0  0  0  0  0
   -2.3565    0.9197   -6.5756 C   0  0  0  0  0  0  0  0  0  0  0  0
   -1.3631   -0.8834   -6.0766 H   0  0  0  0  0  0  0  0  0  0  0  0
   -3.4203    0.6829   -6.7251 H   0  0  0  0  0  0  0  0  0  0  0  0
   -2.2623    1.9280   -6.1460 H   0  0  0  0  0  0  0  0  0  0  0  0
   -1.8334    0.8828   -7.5425 H   0  0  0  0  0  0  0  0  0  0  0  0
 22 24  2  0  0  0  0
 24 26  1  0  0  0  0
 25 26  2  0  0  0  0
 23 25  1  0  0  0  0
 21 22  1  0  0  0  0
 22 23  1  0  0  0  0
  1  3  1  0  0  0  0
  1  7  1  0  0  0  0
  1  2  2  0  0  0  0
 35 36  1  0  0  0  0
 36 44  1  0  0  0  0
 36 37  2  0  0  0  0
  8  9  1  0  0  0  0
  9 17  1  0  0  0  0
  9 10  2  0  0  0  0
 18 19  1  0  0  0  0
 19 34  1  0  0  0  0
 19 20  2  0  0  0  0
 35 38  1  0  0  0  0
  8 11  1  0  0  0  0
 44 45  1  0  0  0  0
 18 21  1  0  0  0  0
 34 35  1  0  0  0  0
  7  8  1  0  0  0  0
 17 18  1  0  0  0  0
 24 32  1  0  0  0  0
 25 33  1  0  0  0  0
  3  4  1  0  0  0  0
  3  5  1  0  0  0  0
  3  6  1  0  0  0  0
 38 41  1  0  0  0  0
 38 42  1  0  0  0  0
 38 43  1  0  0  0  0
 11 14  1  0  0  0  0
 11 15  1  0  0  0  0
 11 16  1  0  0  0  0
 45 47  1  0  0  0  0
 45 48  1  0  0  0  0
 45 49  1  0  0  0  0
 21 29  1  0  0  0  0
 21 30  1  0  0  0  0
 35 40  1  0  0  0  0
  8 13  1  0  0  0  0
 18 28  1  0  0  0  0
 23 31  1  0  0  0  0
 44 46  1  0  0  0  0
  7 12  1  0  0  0  0
 34 39  1  0  0  0  0
 17 27  1  0  0  0  0
M  END
$$$$

  -OEChem-05262214473D

 49 49  0     1  0  0  0  0  0999 V2000
   -1.5619    0.5658    3.7981 C   0  0  0  0  0  0  0  0  0  0  0  0
   -0.6145   -0.0489    3.3224 O   0  0  0  0  0  0  0  0  0  0  0  0
   -1.9938    0.2834    5.1988 C   0  0  0  0  0  0  0  0  0  0  0  0
   -2.7535   -0.5129    5.2522 H   0  0  0  0  0  0  0  0  0  0  0  0
   -1.1626   -0.0642    5.8331 H   0  0  0  0  0  0  0  0  0  0  0  0
   -2.4318    1.1383    5.7384 H   0  0  0  0  0  0  0  0  0  0  0  0
   -2.3116    1.5383    3.1570 N   0  0  0  0  0  0  0  0  0  0  0  0
   -2.0648    1.9643    1.8046 C   0  0  2  0  0  0  0  0  0  0  0  0
   -0.7298    1.3789    1.3634 C   0  0  0  0  0  0  0  0  0  0  0  0
    0.1423    1.0262    2.1547 O   0  0  0  0  0  0  0  0  0  0  0  0
   -2.0560    3.4811    1.6952 C   0  0  0  0  0  0  0  0  0  0  0  0
   -3.0767    1.9741    3.6688 H   0  0  0  0  0  0  0  0  0  0  0  0
   -2.8689    1.5458    1.1895 H   0  0  0  0  0  0  0  0  0  0  0  0
   -1.2569    3.9183    2.3049 H   0  0  0  0  0  0  0  0  0  0  0  0
   -1.8965    3.8033    0.6609 H   0  0  0  0  0  0  0  0  0  0  0  0
   -3.0062    3.9023    2.0409 H   0  0  0  0  0  0  0  0  0  0  0  0
   -0.6071    1.3358   -0.0200 N   0  0  0  0  0  0  0  0  0  0  0  0
    0.5702    0.8350   -0.6836 C   0  0  2  0  0  0  0  0  0  0  0  0
    0.1978    0.5947   -2.1423 C   0  0  0  0  0  0  0  0  0  0  0  0
    0.7837    1.1322   -3.0798 O   0  0  0  0  0  0  0  0  0  0  0  0
    1.0881   -0.4592   -0.0457 C   0  0  0  0  0  0  0  0  0  0  0  0
    1.5516   -0.2636    1.3772 C   0  0  0  0  0  0  0  0  0  0  0  0
    2.7310    0.3502    1.6926 N   0  0  0  0  0  0  0  0  0  0  0  0
    0.9954   -0.6010    2.5885 C   0  0  0  0  0  0  0  0  0  0  0  0
    2.8374    0.3578    3.0556 C   0  0  0  0  0  0  0  0  0  0  0  0
    1.8005   -0.2112    3.6293 N   0  0  0  0  0  0  0  0  0  0  0  0
   -1.3903    1.6325   -0.5973 H   0  0  0  0  0  0  0  0  0  0  0  0
    1.3211    1.6322   -0.6316 H   0  0  0  0  0  0  0  0  0  0  0  0
    1.9065   -0.8784   -0.6466 H   0  0  0  0  0  0  0  0  0  0  0  0
    0.3049   -1.2288   -0.0495 H   0  0  0  0  0  0  0  0  0  0  0  0
    3.4045    0.7292    1.0398 H   0  0  0  0  0  0  0  0  0  0  0  0
    0.0560   -1.1048    2.7667 H   0  0  0  0  0  0  0  0  0  0  0  0
    3.6884    0.7898    3.5627 H   0  0  0  0  0  0  0  0  0  0  0  0
   -0.8314   -0.3277   -2.2707 N   0  0  0  0  0  0  0  0  0  0  0  0
   -1.3613   -0.7530   -3.5463 C   0  0  2  0  0  0  0  0  0  0  0  0
   -1.6757    0.4929   -4.3639 C   0  0  0  0  0  0  0  0  0  0  0  0
   -1.8748    1.5951   -3.8574 O   0  0  0  0  0  0  0  0  0  0  0  0
   -2.6018   -1.6150   -3.3704 C   0  0  0  0  0  0  0  0  0  0  0  0
   -1.2322   -0.7238   -1.4256 H   0  0  0  0  0  0  0  0  0  0  0  0
   -0.5703   -1.3260   -4.0422 H   0  0  0  0  0  0  0  0  0  0  0  0
   -3.4053   -1.0578   -2.8751 H   0  0  0  0  0  0  0  0  0  0  0  0
   -2.9854   -1.9599   -4.3362 H   0  0  0  0  0  0  0  0  0  0  0  0
   -2.3809   -2.4953   -2.7571 H   0  0  0  0  0  0  0  0  0  0  0  0
   -1.7502    0.2203   -5.7227 N   0  0  0  0  0  0  0  0  0  0  0  0
   -2.0482    1.2351   -6.7062 C   0  0  0  0  0  0  0  0  0  0  0  0
   -1.5520   -0.7187   -6.0556 H   0  0  0  0  0  0  0  0  0  0  0  0
   -3.1320    1.2579   -6.8934 H   0  0  0  0  0  0  0  0  0  0  0  0
   -1.7202    2.2160   -6.3318 H   0  0  0  0  0  0  0  0  0  0  0  0
   -1.5193    1.0044   -7.6427 H   0  0  0  0  0  0  0  0  0  0  0  0
 22 24  2  0  0  0  0
 24 26  1  0  0  0  0
 25 26  2  0  0  0  0
 23 25  1  0  0  0  0
 21 22  1  0  0  0  0
 22 23  1  0  0  0  0
  1  3  1  0  0  0  0
  1  7  1  0  0  0  0
  1  2  2  0  0  0  0
 35 36  1  0  0  0  0
 36 44  1  0  0  0  0
 36 37  2  0  0  0  0
  8  9  1  0  0  0  0
  9 17  1  0  0  0  0
  9 10  2  0  0  0  0
 18 19  1  0  0  0  0
 19 34  1  0  0  0  0
 19 20  2  0  0  0  0
 35 38  1  0  0  0  0
  8 11  1  0  0  0  0
 44 45  1  0  0  0  0
 18 21  1  0  0  0  0
 34 35  1  0  0  0  0
  7  8  1  0  0  0  0
 17 18  1  0  0  0  0
 24 32  1  0  0  0  0
 25 33  1  0  0  0  0
  3  4  1  0  0  0  0
  3  5  1  0  0  0  0
  3  6  1  0  0  0  0
 38 41  1  0  0  0  0
 38 42  1  0  0  0  0
 38 43  1  0  0  0  0
 11 14  1  0  0  0  0
 11 15  1  0  0  0  0
 11 16  1  0  0  0  0
 45 47  1  0  0  0  0
 45 48  1  0  0  0  0
 45 49  1  0  0  0  0
 21 29  1  0  0  0  0
 21 30  1  0  0  0  0
 35 40  1  0  0  0  0
  8 13  1  0  0  0  0
 18 28  1  0  0  0  0
 23 31  1  0  0  0  0
 44 46  1  0  0  0  0
  7 12  1  0  0  0  0
 34 39  1  0  0  0  0
 17 27  1  0  0  0  0
M  END
$$$$

  -OEChem-05262214473D

 49 49  0     1  0  0  0  0  0999 V2000
   -1.5619    0.5658    3.7981 C   0  0  0  0  0  0  0  0  0  0  0  0
   -0.6145   -0.0489    3.3224 O   0  0  0  0  0  0  0  0  0  0  0  0
   -1.9938    0.2834    5.1988 C   0  0  0  0  0  0  0  0  0  0  0  0
   -2.7535   -0.5129    5.2522 H   0  0  0  0  0  0  0  0  0  0  0  0
   -1.1626   -0.0642    5.8331 H   0  0  0  0  0  0  0  0  0  0  0  0
   -2.4318    1.1383    5.7384 H   0  0  0  0  0  0  0  0  0  0  0  0
   -2.3116    1.5383    3.1570 N   0  0  0  0  0  0  0  0  0  0  0  0
   -2.0648    1.9643    1.8046 C   0  0  2  0  0  0  0  0  0  0  0  0
   -0.7298    1.3789    1.3634 C   0  0  0  0  0  0  0  0  0  0  0  0
    0.1423    1.0262    2.1547 O   0  0  0  0  0  0  0  0  0  0  0  0
   -2.0560    3.4811    1.6952 C   0  0  0  0  0  0  0  0  0  0  0  0
   -3.0767    1.9741    3.6688 H   0  0  0  0  0  0  0  0  0  0  0  0
   -2.8689    1.5458    1.1895 H   0  0  0  0  0  0  0  0  0  0  0  0
   -1.2569    3.9183    2.3049 H   0  0  0  0  0  0  0  0  0  0  0  0
   -1.8965    3.8033    0.6609 H   0  0  0  0  0  0  0  0  0  0  0  0
   -3.0062    3.9023    2.0409 H   0  0  0  0  0  0  0  0  0  0  0  0
   -0.6071    1.3358   -0.0200 N   0  0  0  0  0  0  0  0  0  0  0  0
    0.5702    0.8350   -0.6836 C   0  0  2  0  0  0  0  0  0  0  0  0
    0.1978    0.5947   -2.1423 C   0  0  0  0  0  0  0  0  0  0  0  0
    0.9295    0.9060   -3.0797 O   0  0  0  0  0  0  0  0  0  0  0  0
    1.0881   -0.4592   -0.0457 C   0  0  0  0  0  0  0  0  0  0  0  0
    1.5516   -0.2636    1.3772 C   0  0  0  0  0  0  0  0  0  0  0  0
    2.7310    0.3502    1.6926 N   0  0  0  0  0  0  0  0  0  0  0  0
    0.9954   -0.6010    2.5885 C   0  0  0  0  0  0  0  0  0  0  0  0
    2.8374    0.3578    3.0556 C   0  0  0  0  0  0  0  0  0  0  0  0
    1.8005   -0.2112    3.6293 N   0  0  0  0  0  0  0  0  0  0  0  0
   -1.3903    1.6325   -0.5973 H   0  0  0  0  0  0  0  0  0  0  0  0
    1.3211    1.6322   -0.6316 H   0  0  0  0  0  0  0  0  0  0  0  0
    1.9065   -0.8784   -0.6466 H   0  0  0  0  0  0  0  0  0  0  0  0
    0.3049   -1.2288   -0.0495 H   0  0  0  0  0  0  0  0  0  0  0  0
    3.4045    0.7292    1.0398 H   0  0  0  0  0  0  0  0  0  0  0  0
    0.0560   -1.1048    2.7667 H   0  0  0  0  0  0  0  0  0  0  0  0
    3.6884    0.7898    3.5627 H   0  0  0  0  0  0  0  0  0  0  0  0
   -1.0238   -0.0523   -2.2669 N   0  0  0  0  0  0  0  0  0  0  0  0
   -1.6008   -0.4201   -3.5400 C   0  0  2  0  0  0  0  0  0  0  0  0
   -1.5681    0.8059   -4.4429 C   0  0  0  0  0  0  0  0  0  0  0  0
   -1.5031    1.9551   -4.0116 O   0  0  0  0  0  0  0  0  0  0  0  0
   -3.0219   -0.9359   -3.3750 C   0  0  0  0  0  0  0  0  0  0  0  0
   -1.5382   -0.2787   -1.4208 H   0  0  0  0  0  0  0  0  0  0  0  0
   -0.9615   -1.2029   -3.9626 H   0  0  0  0  0  0  0  0  0  0  0  0
   -3.6772   -0.1654   -2.9527 H   0  0  0  0  0  0  0  0  0  0  0  0
   -3.4474   -1.2409   -4.3368 H   0  0  0  0  0  0  0  0  0  0  0  0
   -3.0474   -1.7994   -2.7016 H   0  0  0  0  0  0  0  0  0  0  0  0
   -1.6635    0.4678   -5.7856 N   0  0  0  0  0  0  0  0  0  0  0  0
   -1.6671    1.4551   -6.8398 C   0  0  0  0  0  0  0  0  0  0  0  0
   -1.6944   -0.5115   -6.0533 H   0  0  0  0  0  0  0  0  0  0  0  0
   -2.7042    1.7313   -7.0806 H   0  0  0  0  0  0  0  0  0  0  0  0
   -1.1176    2.3481   -6.5074 H   0  0  0  0  0  0  0  0  0  0  0  0
   -1.1817    1.0378   -7.7344 H   0  0  0  0  0  0  0  0  0  0  0  0
 22 24  2  0  0  0  0
 24 26  1  0  0  0  0
 25 26  2  0  0  0  0
 23 25  1  0  0  0  0
 21 22  1  0  0  0  0
 22 23  1  0  0  0  0
  1  3  1  0  0  0  0
  1  7  1  0  0  0  0
  1  2  2  0  0  0  0
 35 36  1  0  0  0  0
 36 44  1  0  0  0  0
 36 37  2  0  0  0  0
  8  9  1  0  0  0  0
  9 17  1  0  0  0  0
  9 10  2  0  0  0  0
 18 19  1  0  0  0  0
 19 34  1  0  0  0  0
 19 20  2  0  0  0  0
 35 38  1  0  0  0  0
  8 11  1  0  0  0  0
 44 45  1  0  0  0  0
 18 21  1  0  0  0  0
 34 35  1  0  0  0  0
  7  8  1  0  0  0  0
 17 18  1  0  0  0  0
 24 32  1  0  0  0  0
 25 33  1  0  0  0  0
  3  4  1  0  0  0  0
  3  5  1  0  0  0  0
  3  6  1  0  0  0  0
 38 41  1  0  0  0  0
 38 42  1  0  0  0  0
 38 43  1  0  0  0  0
 11 14  1  0  0  0  0
 11 15  1  0  0  0  0
 11 16  1  0  0  0  0
 45 47  1  0  0  0  0
 45 48  1  0  0  0  0
 45 49  1  0  0  0  0
 21 29  1  0  0  0  0
 21 30  1  0  0  0  0
 35 40  1  0  0  0  0
  8 13  1  0  0  0  0
 18 28  1  0  0  0  0
 23 31  1  0  0  0  0
 44 46  1  0  0  0  0
  7 12  1  0  0  0  0
 34 39  1  0  0  0  0
 17 27  1  0  0  0  0
M  END
$$$$

  -OEChem-05262214473D

 49 49  0     1  0  0  0  0  0999 V2000
   -1.5619    0.5658    3.7981 C   0  0  0  0  0  0  0  0  0  0  0  0
   -0.6145   -0.0489    3.3224 O   0  0  0  0  0  0  0  0  0  0  0  0
   -1.9938    0.2834    5.1988 C   0  0  0  0  0  0  0  0  0  0  0  0
   -2.7535   -0.5129    5.2522 H   0  0  0  0  0  0  0  0  0  0  0  0
   -1.1626   -0.0642    5.8331 H   0  0  0  0  0  0  0  0  0  0  0  0
   -2.4318    1.1383    5.7384 H   0  0  0  0  0  0  0  0  0  0  0  0
   -2.3116    1.5383    3.1570 N   0  0  0  0  0  0  0  0  0  0  0  0
   -2.0648    1.9643    1.8046 C   0  0  2  0  0  0  0  0  0  0  0  0
   -0.7298    1.3789    1.3634 C   0  0  0  0  0  0  0  0  0  0  0  0
    0.1423    1.0262    2.1547 O   0  0  0  0  0  0  0  0  0  0  0  0
   -2.0560    3.4811    1.6952 C   0  0  0  0  0  0  0  0  0  0  0  0
   -3.0767    1.9741    3.6688 H   0  0  0  0  0  0  0  0  0  0  0  0
   -2.8689    1.5458    1.1895 H   0  0  0  0  0  0  0  0  0  0  0  0
   -1.2569    3.9183    2.3049 H   0  0  0  0  0  0  0  0  0  0  0  0
   -1.8965    3.8033    0.6609 H   0  0  0  0  0  0  0  0  0  0  0  0
   -3.0062    3.9023    2.0409 H   0  0  0  0  0  0  0  0  0  0  0  0
   -0.6071    1.3358   -0.0200 N   0  0  0  0  0  0  0  0  0  0  0  0
    0.5702    0.8350   -0.6836 C   0  0  2  0  0  0  0  0  0  0  0  0
    0.1978    0.5947   -2.1423 C   0  0  0  0  0  0  0  0  0  0  0  0
    1.0143    0.6513   -3.0594 O   0  0  0  0  0  0  0  0  0  0  0  0
    1.0881   -0.4592   -0.0457 C   0  0  0  0  0  0  0  0  0  0  0  0
    1.5516   -0.2636    1.3772 C   0  0  0  0  0  0  0  0  0  0  0  0
    2.7310    0.3502    1.6926 N   0  0  0  0  0  0  0  0  0  0  0  0
    0.9954   -0.6010    2.5885 C   0  0  0  0  0  0  0  0  0  0  0  0
    2.8374    0.3578    3.0556 C   0  0  0  0  0  0  0  0  0  0  0  0
    1.8005   -0.2112    3.6293 N   0  0  0  0  0  0  0  0  0  0  0  0
   -1.3903    1.6325   -0.5973 H   0  0  0  0  0  0  0  0  0  0  0  0
    1.3211    1.6322   -0.6316 H   0  0  0  0  0  0  0  0  0  0  0  0
    1.9065   -0.8784   -0.6466 H   0  0  0  0  0  0  0  0  0  0  0  0
    0.3049   -1.2288   -0.0495 H   0  0  0  0  0  0  0  0  0  0  0  0
    3.4045    0.7292    1.0398 H   0  0  0  0  0  0  0  0  0  0  0  0
    0.0560   -1.1048    2.7667 H   0  0  0  0  0  0  0  0  0  0  0  0
    3.6884    0.7898    3.5627 H   0  0  0  0  0  0  0  0  0  0  0  0
   -1.1417    0.2616   -2.2885 N   0  0  0  0  0  0  0  0  0  0  0  0
   -1.7499   -0.0389   -3.5647 C   0  0  2  0  0  0  0  0  0  0  0  0
   -1.3834    1.0766   -4.5347 C   0  0  0  0  0  0  0  0  0  0  0  0
   -1.0485    2.2011   -4.1681 O   0  0  0  0  0  0  0  0  0  0  0  0
   -3.2593   -0.1762   -3.4395 C   0  0  0  0  0  0  0  0  0  0  0  0
   -1.7237    0.2272   -1.4568 H   0  0  0  0  0  0  0  0  0  0  0  0
   -1.3122   -0.9820   -3.9095 H   0  0  0  0  0  0  0  0  0  0  0  0
   -3.7157    0.7590   -3.0952 H   0  0  0  0  0  0  0  0  0  0  0  0
   -3.7156   -0.4320   -4.4015 H   0  0  0  0  0  0  0  0  0  0  0  0
   -3.5211   -0.9587   -2.7192 H   0  0  0  0  0  0  0  0  0  0  0  0
   -1.5159    0.6815   -5.8585 N   0  0  0  0  0  0  0  0  0  0  0  0
   -1.2389    1.5647   -6.9672 C   0  0  0  0  0  0  0  0  0  0  0  0
   -1.7808   -0.2760   -6.0701 H   0  0  0  0  0  0  0  0  0  0  0  0
   -2.1661    2.0708   -7.2739 H   0  0  0  0  0  0  0  0  0  0  0  0
   -0.4956    2.3155   -6.6609 H   0  0  0  0  0  0  0  0  0  0  0  0
   -0.8437    0.9806   -7.8113 H   0  0  0  0  0  0  0  0  0  0  0  0
 22 24  2  0  0  0  0
 24 26  1  0  0  0  0
 25 26  2  0  0  0  0
 23 25  1  0  0  0  0
 21 22  1  0  0  0  0
 22 23  1  0  0  0  0
  1  3  1  0  0  0  0
  1  7  1  0  0  0  0
  1  2  2  0  0  0  0
 35 36  1  0  0  0  0
 36 44  1  0  0  0  0
 36 37  2  0  0  0  0
  8  9  1  0  0  0  0
  9 17  1  0  0  0  0
  9 10  2  0  0  0  0
 18 19  1  0  0  0  0
 19 34  1  0  0  0  0
 19 20  2  0  0  0  0
 35 38  1  0  0  0  0
  8 11  1  0  0  0  0
 44 45  1  0  0  0  0
 18 21  1  0  0  0  0
 34 35  1  0  0  0  0
  7  8  1  0  0  0  0
 17 18  1  0  0  0  0
 24 32  1  0  0  0  0
 25 33  1  0  0  0  0
  3  4  1  0  0  0  0
  3  5  1  0  0  0  0
  3  6  1  0  0  0  0
 38 41  1  0  0  0  0
 38 42  1  0  0  0  0
 38 43  1  0  0  0  0
 11 14  1  0  0  0  0
 11 15  1  0  0  0  0
 11 16  1  0  0  0  0
 45 47  1  0  0  0  0
 45 48  1  0  0  0  0
 45 49  1  0  0  0  0
 21 29  1  0  0  0  0
 21 30  1  0  0  0  0
 35 40  1  0  0  0  0
  8 13  1  0  0  0  0
 18 28  1  0  0  0  0
 23 31  1  0  0  0  0
 44 46  1  0  0  0  0
  7 12  1  0  0  0  0
 34 39  1  0  0  0  0
 17 27  1  0  0  0  0
M  END
$$$$

  -OEChem-05262214473D

 49 49  0     1  0  0  0  0  0999 V2000
   -1.5619    0.5658    3.7981 C   0  0  0  0  0  0  0  0  0  0  0  0
   -0.6145   -0.0489    3.3224 O   0  0  0  0  0  0  0  0  0  0  0  0
   -1.9938    0.2834    5.1988 C   0  0  0  0  0  0  0  0  0  0  0  0
   -2.7535   -0.5129    5.2522 H   0  0  0  0  0  0  0  0  0  0  0  0
   -1.1626   -0.0642    5.8331 H   0  0  0  0  0  0  0  0  0  0  0  0
   -2.4318    1.1383    5.7384 H   0  0  0  0  0  0  0  0  0  0  0  0
   -2.3116    1.5383    3.1570 N   0  0  0  0  0  0  0  0  0  0  0  0
   -2.0648    1.9643    1.8046 C   0  0  2  0  0  0  0  0  0  0  0  0
   -0.7298    1.3789    1.3634 C   0  0  0  0  0  0  0  0  0  0  0  0
    0.1423    1.0262    2.1547 O   0  0  0  0  0  0  0  0  0  0  0  0
   -2.0560    3.4811    1.6952 C   0  0  0  0  0  0  0  0  0  0  0  0
   -3.0767    1.9741    3.6688 H   0  0  0  0  0  0  0  0  0  0  0  0
   -2.8689    1.5458    1.1895 H   0  0  0  0  0  0  0  0  0  0  0  0
   -1.2569    3.9183    2.3049 H   0  0  0  0  0  0  0  0  0  0  0  0
   -1.8965    3.8033    0.6609 H   0  0  0  0  0  0  0  0  0  0  0  0
   -3.0062    3.9023    2.0409 H   0  0  0  0  0  0  0  0  0  0  0  0
   -0.6071    1.3358   -0.0200 N   0  0  0  0  0  0  0  0  0  0  0  0
    0.5702    0.8350   -0.6836 C   0  0  2  0  0  0  0  0  0  0  0  0
    0.1978    0.5947   -2.1423 C   0  0  0  0  0  0  0  0  0  0  0  0
    1.0323    0.3856   -3.0203 O   0  0  0  0  0  0  0  0  0  0  0  0
    1.0881   -0.4592   -0.0457 C   0  0  0  0  0  0  0  0  0  0  0  0
    1.5516   -0.2636    1.3772 C   0  0  0  0  0  0  0  0  0  0  0  0
    2.7310    0.3502    1.6926 N   0  0  0  0  0  0  0  0  0  0  0  0
    0.9954   -0.6010    2.5885 C   0  0  0  0  0  0  0  0  0  0  0  0
    2.8374    0.3578    3.0556 C   0  0  0  0  0  0  0  0  0  0  0  0
    1.8005   -0.2112    3.6293 N   0  0  0  0  0  0  0  0  0  0  0  0
   -1.3903    1.6325   -0.5973 H   0  0  0  0  0  0  0  0  0  0  0  0
    1.3211    1.6322   -0.6316 H   0  0  0  0  0  0  0  0  0  0  0  0
    1.9065   -0.8784   -0.6466 H   0  0  0  0  0  0  0  0  0  0  0  0
    0.3049   -1.2288   -0.0495 H   0  0  0  0  0  0  0  0  0  0  0  0
    3.4045    0.7292    1.0398 H   0  0  0  0  0  0  0  0  0  0  0  0
    0.0560   -1.1048    2.7667 H   0  0  0  0  0  0  0  0  0  0  0  0
    3.6884    0.7898    3.5627 H   0  0  0  0  0  0  0  0  0  0  0  0
   -1.1769    0.5926   -2.3341 N   0  0  0  0  0  0  0  0  0  0  0  0
   -1.7986    0.3647   -3.6187 C   0  0  2  0  0  0  0  0  0  0  0  0
   -1.1342    1.2865   -4.6329 C   0  0  0  0  0  0  0  0  0  0  0  0
   -0.5422    2.3163   -4.3164 O   0  0  0  0  0  0  0  0  0  0  0  0
   -3.2979    0.6123   -3.5596 C   0  0  0  0  0  0  0  0  0  0  0  0
   -1.7761    0.7596   -1.5311 H   0  0  0  0  0  0  0  0  0  0  0  0
   -1.5983   -0.6785   -3.8864 H   0  0  0  0  0  0  0  0  0  0  0  0
   -3.5181    1.6524   -3.2927 H   0  0  0  0  0  0  0  0  0  0  0  0
   -3.7716    0.4117   -4.5262 H   0  0  0  0  0  0  0  0  0  0  0  0
   -3.7697   -0.0305   -2.8086 H   0  0  0  0  0  0  0  0  0  0  0  0
   -1.3174    0.8467   -5.9364 N   0  0  0  0  0  0  0  0  0  0  0  0
   -0.7930    1.5566   -7.0797 C   0  0  0  0  0  0  0  0  0  0  0  0
   -1.8053   -0.0282   -6.1046 H   0  0  0  0  0  0  0  0  0  0  0  0
   -1.5545    2.2533   -7.4601 H   0  0  0  0  0  0  0  0  0  0  0  0
    0.1033    2.1202   -6.7816 H   0  0  0  0  0  0  0  0  0  0  0  0
   -0.5281    0.8368   -7.8682 H   0  0  0  0  0  0  0  0  0  0  0  0
 22 24  2  0  0  0  0
 24 26  1  0  0  0  0
 25 26  2  0  0  0  0
 23 25  1  0  0  0  0
 21 22  1  0  0  0  0
 22 23  1  0  0  0  0
  1  3  1  0  0  0  0
  1  7  1  0  0  0  0
  1  2  2  0  0  0  0
 35 36  1  0  0  0  0
 36 44  1  0  0  0  0
 36 37  2  0  0  0  0
  8  9  1  0  0  0  0
  9 17  1  0  0  0  0
  9 10  2  0  0  0  0
 18 19  1  0  0  0  0
 19 34  1  0  0  0  0
 19 20  2  0  0  0  0
 35 38  1  0  0  0  0
  8 11  1  0  0  0  0
 44 45  1  0  0  0  0
 18 21  1  0  0  0  0
 34 35  1  0  0  0  0
  7  8  1  0  0  0  0
 17 18  1  0  0  0  0
 24 32  1  0  0  0  0
 25 33  1  0  0  0  0
  3  4  1  0  0  0  0
  3  5  1  0  0  0  0
  3  6  1  0  0  0  0
 38 41  1  0  0  0  0
 38 42  1  0  0  0  0
 38 43  1  0  0  0  0
 11 14  1  0  0  0  0
 11 15  1  0  0  0  0
 11 16  1  0  0  0  0
 45 47  1  0  0  0  0
 45 48  1  0  0  0  0
 45 49  1  0  0  0  0
 21 29  1  0  0  0  0
 21 30  1  0  0  0  0
 35 40  1  0  0  0  0
  8 13  1  0  0  0  0
 18 28  1  0  0  0  0
 23 31  1  0  0  0  0
 44 46  1  0  0  0  0
  7 12  1  0  0  0  0
 34 39  1  0  0  0  0
 17 27  1  0  0  0  0
M  END
$$$$

  -OEChem-05262214473D

 49 49  0     1  0  0  0  0  0999 V2000
   -1.5619    0.5658    3.7981 C   0  0  0  0  0  0  0  0  0  0  0  0
   -0.6145   -0.0489    3.3224 O   0  0  0  0  0  0  0  0  0  0  0  0
   -1.9938    0.2834    5.1988 C   0  0  0  0  0  0  0  0  0  0  0  0
   -2.7535   -0.5129    5.2522 H   0  0  0  0  0  0  0  0  0  0  0  0
   -1.1626   -0.0642    5.8331 H   0  0  0  0  0  0  0  0  0  0  0  0
   -2.4318    1.1383    5.7384 H   0  0  0  0  0  0  0  0  0  0  0  0
   -2.3116    1.5383    3.1570 N   0  0  0  0  0  0  0  0  0  0  0  0
   -2.0648    1.9643    1.8046 C   0  0  2  0  0  0  0  0  0  0  0  0
   -0.7298    1.3789    1.3634 C   0  0  0  0  0  0  0  0  0  0  0  0
    0.1423    1.0262    2.1547 O   0  0  0  0  0  0  0  0  0  0  0  0
   -2.0560    3.4811    1.6952 C   0  0  0  0  0  0  0  0  0  0  0  0
   -3.0767    1.9741    3.6688 H   0  0  0  0  0  0  0  0  0  0  0  0
   -2.8689    1.5458    1.1895 H   0  0  0  0  0  0  0  0  0  0  0  0
   -1.2569    3.9183    2.3049 H   0  0  0  0  0  0  0  0  0  0  0  0
   -1.8965    3.8033    0.6609 H   0  0  0  0  0  0  0  0  0  0  0  0
   -3.0062    3.9023    2.0409 H   0  0  0  0  0  0  0  0  0  0  0  0
   -0.6071    1.3358   -0.0200 N   0  0  0  0  0  0  0  0  0  0  0  0
    0.5702    0.8350   -0.6836 C   0  0  2  0  0  0  0  0  0  0  0  0
    0.1978    0.5947   -2.1423 C   0  0  0  0  0  0  0  0  0  0  0  0
    0.9823    0.1270   -2.9649 O   0  0  0  0  0  0  0  0  0  0  0  0
    1.0881   -0.4592   -0.0457 C   0  0  0  0  0  0  0  0  0  0  0  0
    1.5516   -0.2636    1.3772 C   0  0  0  0  0  0  0  0  0  0  0  0
    2.7310    0.3502    1.6926 N   0  0  0  0  0  0  0  0  0  0  0  0
    0.9954   -0.6010    2.5885 C   0  0  0  0  0  0  0  0  0  0  0  0
    2.8374    0.3578    3.0556 C   0  0  0  0  0  0  0  0  0  0  0  0
    1.8005   -0.2112    3.6293 N   0  0  0  0  0  0  0  0  0  0  0  0
   -1.3903    1.6325   -0.5973 H   0  0  0  0  0  0  0  0  0  0  0  0
    1.3211    1.6322   -0.6316 H   0  0  0  0  0  0  0  0  0  0  0  0
    1.9065   -0.8784   -0.6466 H   0  0  0  0  0  0  0  0  0  0  0  0
    0.3049   -1.2288   -0.0495 H   0  0  0  0  0  0  0  0  0  0  0  0
    3.4045    0.7292    1.0398 H   0  0  0  0  0  0  0  0  0  0  0  0
    0.0560   -1.1048    2.7667 H   0  0  0  0  0  0  0  0  0  0  0  0
    3.6884    0.7898    3.5627 H   0  0  0  0  0  0  0  0  0  0  0  0
   -1.1271    0.9182   -2.4004 N   0  0  0  0  0  0  0  0  0  0  0  0
   -1.7434    0.7632   -3.6985 C   0  0  2  0  0  0  0  0  0  0  0  0
   -0.8376    1.4214   -4.7308 C   0  0  0  0  0  0  0  0  0  0  0  0
   -0.0185    2.2927   -4.4462 O   0  0  0  0  0  0  0  0  0  0  0  0
   -3.1350    1.3759   -3.7269 C   0  0  0  0  0  0  0  0  0  0  0  0
   -1.6919    1.2822   -1.6387 H   0  0  0  0  0  0  0  0  0  0  0  0
   -1.8005   -0.3130   -3.8950 H   0  0  0  0  0  0  0  0  0  0  0  0
   -3.0980    2.4540   -3.5320 H   0  0  0  0  0  0  0  0  0  0  0  0
   -3.6118    1.2326   -4.7022 H   0  0  0  0  0  0  0  0  0  0  0  0
   -3.7764    0.9221   -2.9638 H   0  0  0  0  0  0  0  0  0  0  0  0
   -1.0815    0.9522   -6.0140 N   0  0  0  0  0  0  0  0  0  0  0  0
   -0.3597    1.4312   -7.1696 C   0  0  0  0  0  0  0  0  0  0  0  0
   -1.7661    0.2150   -6.1547 H   0  0  0  0  0  0  0  0  0  0  0  0
   -0.9108    2.2663   -7.6266 H   0  0  0  0  0  0  0  0  0  0  0  0
    0.6384    1.7757   -6.8614 H   0  0  0  0  0  0  0  0  0  0  0  0
   -0.2567    0.6161   -7.9011 H   0  0  0  0  0  0  0  0  0  0  0  0
 22 24  2  0  0  0  0
 24 26  1  0  0  0  0
 25 26  2  0  0  0  0
 23 25  1  0  0  0  0
 21 22  1  0  0  0  0
 22 23  1  0  0  0  0
  1  3  1  0  0  0  0
  1  7  1  0  0  0  0
  1  2  2  0  0  0  0
 35 36  1  0  0  0  0
 36 44  1  0  0  0  0
 36 37  2  0  0  0  0
  8  9  1  0  0  0  0
  9 17  1  0  0  0  0
  9 10  2  0  0  0  0
 18 19  1  0  0  0  0
 19 34  1  0  0  0  0
 19 20  2  0  0  0  0
 35 38  1  0  0  0  0
  8 11  1  0  0  0  0
 44 45  1  0  0  0  0
 18 21  1  0  0  0  0
 34 35  1  0  0  0  0
  7  8  1  0  0  0  0
 17 18  1  0  0  0  0
 24 32  1  0  0  0  0
 25 33  1  0  0  0  0
  3  4  1  0  0  0  0
  3  5  1  0  0  0  0
  3  6  1  0  0  0  0
 38 41  1  0  0  0  0
 38 42  1  0  0  0  0
 38 43  1  0  0  0  0
 11 14  1  0  0  0  0
 11 15  1  0  0  0  0
 11 16  1  0  0  0  0
 45 47  1  0  0  0  0
 45 48  1  0  0  0  0
 45 49  1  0  0  0  0
 21 29  1  0  0  0  0
 21 30  1  0  0  0  0
 35 40  1  0  0  0  0
  8 13  1  0  0  0  0
 18 28  1  0  0  0  0
 23 31  1  0  0  0  0
 44 46  1  0  0  0  0
  7 12  1  0  0  0  0
 34 39  1  0  0  0  0
 17 27  1  0  0  0  0
M  END
$$$$

  -OEChem-05262214473D

 49 49  0     1  0  0  0  0  0999 V2000
   -1.5619    0.5658    3.7981 C   0  0  0  0  0  0  0  0  0  0  0  0
   -0.6145   -0.0489    3.3224 O   0  0  0  0  0  0  0  0  0  0  0  0
   -1.9938    0.2834    5.1988 C   0  0  0  0  0  0  0  0  0  0  0  0
   -2.7535   -0.5129    5.2522 H   0  0  0  0  0  0  0  0  0  0  0  0
   -1.1626   -0.0642    5.8331 H   0  0  0  0  0  0  0  0  0  0  0  0
   -2.4318    1.1383    5.7384 H   0  0  0  0  0  0  0  0  0  0  0  0
   -2.3116    1.5383    3.1570 N   0  0  0  0  0  0  0  0  0  0  0  0
   -2.0648    1.9643    1.8046 C   0  0  2  0  0  0  0  0  0  0  0  0
   -0.7298    1.3789    1.3634 C   0  0  0  0  0  0  0  0  0  0  0  0
    0.1423    1.0262    2.1547 O   0  0  0  0  0  0  0  0  0  0  0  0
   -2.0560    3.4811    1.6952 C   0  0  0  0  0  0  0  0  0  0  0  0
   -3.0767    1.9741    3.6688 H   0  0  0  0  0  0  0  0  0  0  0  0
   -2.8689    1.5458    1.1895 H   0  0  0  0  0  0  0  0  0  0  0  0
   -1.2569    3.9183    2.3049 H   0  0  0  0  0  0  0  0  0  0  0  0
   -1.8965    3.8033    0.6609 H   0  0  0  0  0  0  0  0  0  0  0  0
   -3.0062    3.9023    2.0409 H   0  0  0  0  0  0  0  0  0  0  0  0
   -0.6071    1.3358   -0.0200 N   0  0  0  0  0  0  0  0  0  0  0  0
    0.5702    0.8350   -0.6836 C   0  0  2  0  0  0  0  0  0  0  0  0
    0.1978    0.5947   -2.1423 C   0  0  0  0  0  0  0  0  0  0  0  0
    0.8677   -0.1070   -2.8971 O   0  0  0  0  0  0  0  0  0  0  0  0
    1.0881   -0.4592   -0.0457 C   0  0  0  0  0  0  0  0  0  0  0  0
    1.5516   -0.2636    1.3772 C   0  0  0  0  0  0  0  0  0  0  0  0
    2.7310    0.3502    1.6926 N   0  0  0  0  0  0  0  0  0  0  0  0
    0.9954   -0.6010    2.5885 C   0  0  0  0  0  0  0  0  0  0  0  0
    2.8374    0.3578    3.0556 C   0  0  0  0  0  0  0  0  0  0  0  0
    1.8005   -0.2112    3.6293 N   0  0  0  0  0  0  0  0  0  0  0  0
   -1.3903    1.6325   -0.5973 H   0  0  0  0  0  0  0  0  0  0  0  0
    1.3211    1.6322   -0.6316 H   0  0  0  0  0  0  0  0  0  0  0  0
    1.9065   -0.8784   -0.6466 H   0  0  0  0  0  0  0  0  0  0  0  0
    0.3049   -1.2288   -0.0495 H   0  0  0  0  0  0  0  0  0  0  0  0
    3.4045    0.7292    1.0398 H   0  0  0  0  0  0  0  0  0  0  0  0
    0.0560   -1.1048    2.7667 H   0  0  0  0  0  0  0  0  0  0  0  0
    3.6884    0.7898    3.5627 H   0  0  0  0  0  0  0  0  0  0  0  0
   -0.9956    1.2162   -2.4831 N   0  0  0  0  0  0  0  0  0  0  0  0
   -1.5882    1.1294   -3.7984 C   0  0  2  0  0  0  0  0  0  0  0  0
   -0.5136    1.4720   -4.8218 C   0  0  0  0  0  0  0  0  0  0  0  0
    0.4868    2.1321   -4.5487 O   0  0  0  0  0  0  0  0  0  0  0  0
   -2.7817    2.0626   -3.9302 C   0  0  0  0  0  0  0  0  0  0  0  0
   -1.4768    1.7592   -1.7722 H   0  0  0  0  0  0  0  0  0  0  0  0
   -1.9049    0.0896   -3.9347 H   0  0  0  0  0  0  0  0  0  0  0  0
   -2.4839    3.1090   -3.7967 H   0  0  0  0  0  0  0  0  0  0  0  0
   -3.2469    1.9748   -4.9176 H   0  0  0  0  0  0  0  0  0  0  0  0
   -3.5406    1.8340   -3.1742 H   0  0  0  0  0  0  0  0  0  0  0  0
   -0.8245    0.9908   -6.0859 N   0  0  0  0  0  0  0  0  0  0  0  0
    0.0314    1.1970   -7.2309 C   0  0  0  0  0  0  0  0  0  0  0  0
   -1.6660    0.4371   -6.2168 H   0  0  0  0  0  0  0  0  0  0  0  0
   -0.2792    2.1089   -7.7619 H   0  0  0  0  0  0  0  0  0  0  0  0
    1.0732    1.3053   -6.8950 H   0  0  0  0  0  0  0  0  0  0  0  0
   -0.0477    0.3337   -7.9079 H   0  0  0  0  0  0  0  0  0  0  0  0
 22 24  2  0  0  0  0
 24 26  1  0  0  0  0
 25 26  2  0  0  0  0
 23 25  1  0  0  0  0
 21 22  1  0  0  0  0
 22 23  1  0  0  0  0
  1  3  1  0  0  0  0
  1  7  1  0  0  0  0
  1  2  2  0  0  0  0
 35 36  1  0  0  0  0
 36 44  1  0  0  0  0
 36 37  2  0  0  0  0
  8  9  1  0  0  0  0
  9 17  1  0  0  0  0
  9 10  2  0  0  0  0
 18 19  1  0  0  0  0
 19 34  1  0  0  0  0
 19 20  2  0  0  0  0
 35 38  1  0  0  0  0
  8 11  1  0  0  0  0
 44 45  1  0  0  0  0
 18 21  1  0  0  0  0
 34 35  1  0  0  0  0
  7  8  1  0  0  0  0
 17 18  1  0  0  0  0
 24 32  1  0  0  0  0
 25 33  1  0  0  0  0
  3  4  1  0  0  0  0
  3  5  1  0  0  0  0
  3  6  1  0  0  0  0
 38 41  1  0  0  0  0
 38 42  1  0  0  0  0
 38 43  1  0  0  0  0
 11 14  1  0  0  0  0
 11 15  1  0  0  0  0
 11 16  1  0  0  0  0
 45 47  1  0  0  0  0
 45 48  1  0  0  0  0
 45 49  1  0  0  0  0
 21 29  1  0  0  0  0
 21 30  1  0  0  0  0
 35 40  1  0  0  0  0
  8 13  1  0  0  0  0
 18 28  1  0  0  0  0
 23 31  1  0  0  0  0
 44 46  1  0  0  0  0
  7 12  1  0  0  0  0
 34 39  1  0  0  0  0
 17 27  1  0  0  0  0
M  END
$$$$

  -OEChem-05262214473D

 49 49  0     1  0  0  0  0  0999 V2000
   -1.5619    0.5658    3.7981 C   0  0  0  0  0  0  0  0  0  0  0  0
   -0.6145   -0.0489    3.3224 O   0  0  0  0  0  0  0  0  0  0  0  0
   -1.9938    0.2834    5.1988 C   0  0  0  0  0  0  0  0  0  0  0  0
   -2.7535   -0.5129    5.2522 H   0  0  0  0  0  0  0  0  0  0  0  0
   -1.1626   -0.0642    5.8331 H   0  0  0  0  0  0  0  0  0  0  0  0
   -2.4318    1.1383    5.7384 H   0  0  0  0  0  0  0  0  0  0  0  0
   -2.3116    1.5383    3.1570 N   0  0  0  0  0  0  0  0  0  0  0  0
   -2.0648    1.9643    1.8046 C   0  0  2  0  0  0  0  0  0  0  0  0
   -0.7298    1.3789    1.3634 C   0  0  0  0  0  0  0  0  0  0  0  0
    0.1423    1.0262    2.1547 O   0  0  0  0  0  0  0  0  0  0  0  0
   -2.0560    3.4811    1.6952 C   0  0  0  0  0  0  0  0  0  0  0  0
   -3.0767    1.9741    3.6688 H   0  0  0  0  0  0  0  0  0  0  0  0
   -2.8689    1.5458    1.1895 H   0  0  0  0  0  0  0  0  0  0  0  0
   -1.2569    3.9183    2.3049 H   0  0  0  0  0  0  0  0  0  0  0  0
   -1.8965    3.8033    0.6609 H   0  0  0  0  0  0  0  0  0  0  0  0
   -3.0062    3.9023    2.0409 H   0  0  0  0  0  0  0  0  0  0  0  0
   -0.6071    1.3358   -0.0200 N   0  0  0  0  0  0  0  0  0  0  0  0
    0.5702    0.8350   -0.6836 C   0  0  2  0  0  0  0  0  0  0  0  0
    0.1978    0.5947   -2.1423 C   0  0  0  0  0  0  0  0  0  0  0  0
    0.6963   -0.3003   -2.8215 O   0  0  0  0  0  0  0  0  0  0  0  0
    1.0881   -0.4592   -0.0457 C   0  0  0  0  0  0  0  0  0  0  0  0
    1.5516   -0.2636    1.3772 C   0  0  0  0  0  0  0  0  0  0  0  0
    2.7310    0.3502    1.6926 N   0  0  0  0  0  0  0  0  0  0  0  0
    0.9954   -0.6010    2.5885 C   0  0  0  0  0  0  0  0  0  0  0  0
    2.8374    0.3578    3.0556 C   0  0  0  0  0  0  0  0  0  0  0  0
    1.8005   -0.2112    3.6293 N   0  0  0  0  0  0  0  0  0  0  0  0
   -1.3903    1.6325   -0.5973 H   0  0  0  0  0  0  0  0  0  0  0  0
    1.3211    1.6322   -0.6316 H   0  0  0  0  0  0  0  0  0  0  0  0
    1.9065   -0.8784   -0.6466 H   0  0  0  0  0  0  0  0  0  0  0  0
    0.3049   -1.2288   -0.0495 H   0  0  0  0  0  0  0  0  0  0  0  0
    3.4045    0.7292    1.0398 H   0  0  0  0  0  0  0  0  0  0  0  0
    0.0560   -1.1048    2.7667 H   0  0  0  0  0  0  0  0  0  0  0  0
    3.6884    0.7898    3.5627 H   0  0  0  0  0  0  0  0  0  0  0  0
   -0.7915    1.4662   -2.5764 N   0  0  0  0  0  0  0  0  0  0  0  0
   -1.3435    1.4384   -3.9118 C   0  0  2  0  0  0  0  0  0  0  0  0
   -0.1845    1.4349   -4.8998 C   0  0  0  0  0  0  0  0  0  0  0  0
    0.9392    1.8453   -4.6170 O   0  0  0  0  0  0  0  0  0  0  0  0
   -2.2621    2.6256   -4.1556 C   0  0  0  0  0  0  0  0  0  0  0  0
   -1.1453    2.1583   -1.9225 H   0  0  0  0  0  0  0  0  0  0  0  0
   -1.9044    0.5018   -4.0027 H   0  0  0  0  0  0  0  0  0  0  0  0
   -1.7177    3.5730   -4.0687 H   0  0  0  0  0  0  0  0  0  0  0  0
   -2.7018    2.5877   -5.1577 H   0  0  0  0  0  0  0  0  0  0  0  0
   -3.0784    2.6431   -3.4255 H   0  0  0  0  0  0  0  0  0  0  0  0
   -0.5637    0.9598   -6.1474 N   0  0  0  0  0  0  0  0  0  0  0  0
    0.3537    0.8702   -7.2593 C   0  0  0  0  0  0  0  0  0  0  0  0
   -1.5117    0.6229   -6.2868 H   0  0  0  0  0  0  0  0  0  0  0  0
    0.2976    1.7920   -7.8569 H   0  0  0  0  0  0  0  0  0  0  0  0
    1.3781    0.7412   -6.8799 H   0  0  0  0  0  0  0  0  0  0  0  0
    0.0844    0.0087   -7.8881 H   0  0  0  0  0  0  0  0  0  0  0  0
 22 24  2  0  0  0  0
 24 26  1  0  0  0  0
 25 26  2  0  0  0  0
 23 25  1  0  0  0  0
 21 22  1  0  0  0  0
 22 23  1  0  0  0  0
  1  3  1  0  0  0  0
  1  7  1  0  0  0  0
  1  2  2  0  0  0  0
 35 36  1  0  0  0  0
 36 44  1  0  0  0  0
 36 37  2  0  0  0  0
  8  9  1  0  0  0  0
  9 17  1  0  0  0  0
  9 10  2  0  0  0  0
 18 19  1  0  0  0  0
 19 34  1  0  0  0  0
 19 20  2  0  0  0  0
 35 38  1  0  0  0  0
  8 11  1  0  0  0  0
 44 45  1  0  0  0  0
 18 21  1  0  0  0  0
 34 35  1  0  0  0  0
  7  8  1  0  0  0  0
 17 18  1  0  0  0  0
 24 32  1  0  0  0  0
 25 33  1  0  0  0  0
  3  4  1  0  0  0  0
  3  5  1  0  0  0  0
  3  6  1  0  0  0  0
 38 41  1  0  0  0  0
 38 42  1  0  0  0  0
 38 43  1  0  0  0  0
 11 14  1  0  0  0  0
 11 15  1  0  0  0  0
 11 16  1  0  0  0  0
 45 47  1  0  0  0  0
 45 48  1  0  0  0  0
 45 49  1  0  0  0  0
 21 29  1  0  0  0  0
 21 30  1  0  0  0  0
 35 40  1  0  0  0  0
  8 13  1  0  0  0  0
 18 28  1  0  0  0  0
 23 31  1  0  0  0  0
 44 46  1  0  0  0  0
  7 12  1  0  0  0  0
 34 39  1  0  0  0  0
 17 27  1  0  0  0  0
M  END
$$$$

  -OEChem-05262214473D

 49 49  0     1  0  0  0  0  0999 V2000
   -1.5619    0.5658    3.7981 C   0  0  0  0  0  0  0  0  0  0  0  0
   -0.6145   -0.0489    3.3224 O   0  0  0  0  0  0  0  0  0  0  0  0
   -1.9938    0.2834    5.1988 C   0  0  0  0  0  0  0  0  0  0  0  0
   -2.7535   -0.5129    5.2522 H   0  0  0  0  0  0  0  0  0  0  0  0
   -1.1626   -0.0642    5.8331 H   0  0  0  0  0  0  0  0  0  0  0  0
   -2.4318    1.1383    5.7384 H   0  0  0  0  0  0  0  0  0  0  0  0
   -2.3116    1.5383    3.1570 N   0  0  0  0  0  0  0  0  0  0  0  0
   -2.0648    1.9643    1.8046 C   0  0  2  0  0  0  0  0  0  0  0  0
   -0.7298    1.3789    1.3634 C   0  0  0  0  0  0  0  0  0  0  0  0
    0.1423    1.0262    2.1547 O   0  0  0  0  0  0  0  0  0  0  0  0
   -2.0560    3.4811    1.6952 C   0  0  0  0  0  0  0  0  0  0  0  0
   -3.0767    1.9741    3.6688 H   0  0  0  0  0  0  0  0  0  0  0  0
   -2.8689    1.5458    1.1895 H   0  0  0  0  0  0  0  0  0  0  0  0
   -1.2569    3.9183    2.3049 H   0  0  0  0  0  0  0  0  0  0  0  0
   -1.8965    3.8033    0.6609 H   0  0  0  0  0  0  0  0  0  0  0  0
   -3.0062    3.9023    2.0409 H   0  0  0  0  0  0  0  0  0  0  0  0
   -0.6071    1.3358   -0.0200 N   0  0  0  0  0  0  0  0  0  0  0  0
    0.5702    0.8350   -0.6836 C   0  0  2  0  0  0  0  0  0  0  0  0
    0.1978    0.5947   -2.1423 C   0  0  0  0  0  0  0  0  0  0  0  0
    0.4798   -0.4398   -2.7433 O   0  0  0  0  0  0  0  0  0  0  0  0
    1.0881   -0.4592   -0.0457 C   0  0  0  0  0  0  0  0  0  0  0  0
    1.5516   -0.2636    1.3772 C   0  0  0  0  0  0  0  0  0  0  0  0
    2.7310    0.3502    1.6926 N   0  0  0  0  0  0  0  0  0  0  0  0
    0.9954   -0.6010    2.5885 C   0  0  0  0  0  0  0  0  0  0  0  0
    2.8374    0.3578    3.0556 C   0  0  0  0  0  0  0  0  0  0  0  0
    1.8005   -0.2112    3.6293 N   0  0  0  0  0  0  0  0  0  0  0  0
   -1.3903    1.6325   -0.5973 H   0  0  0  0  0  0  0  0  0  0  0  0
    1.3211    1.6322   -0.6316 H   0  0  0  0  0  0  0  0  0  0  0  0
    1.9065   -0.8784   -0.6466 H   0  0  0  0  0  0  0  0  0  0  0  0
    0.3049   -1.2288   -0.0495 H   0  0  0  0  0  0  0  0  0  0  0  0
    3.4045    0.7292    1.0398 H   0  0  0  0  0  0  0  0  0  0  0  0
    0.0560   -1.1048    2.7667 H   0  0  0  0  0  0  0  0  0  0  0  0
    3.6884    0.7898    3.5627 H   0  0  0  0  0  0  0  0  0  0  0  0
   -0.5286    1.6512   -2.6740 N   0  0  0  0  0  0  0  0  0  0  0  0
   -1.0260    1.6691   -4.0308 C   0  0  2  0  0  0  0  0  0  0  0  0
    0.1275    1.3127   -4.9593 C   0  0  0  0  0  0  0  0  0  0  0  0
    1.3080    1.4520   -4.6463 O   0  0  0  0  0  0  0  0  0  0  0  0
   -1.6116    3.0264   -4.3877 C   0  0  0  0  0  0  0  0  0  0  0  0
   -0.7203    2.4522   -2.0795 H   0  0  0  0  0  0  0  0  0  0  0  0
   -1.7991    0.8956   -4.0944 H   0  0  0  0  0  0  0  0  0  0  0  0
   -0.8517    3.8142   -4.3296 H   0  0  0  0  0  0  0  0  0  0  0  0
   -2.0138    3.0296   -5.4062 H   0  0  0  0  0  0  0  0  0  0  0  0
   -2.4214    3.2944   -3.7005 H   0  0  0  0  0  0  0  0  0  0  0  0
   -0.3169    0.8615   -6.1942 N   0  0  0  0  0  0  0  0  0  0  0  0
    0.5853    0.4728   -7.2530 C   0  0  0  0  0  0  0  0  0  0  0  0
   -1.3139    0.7598   -6.3599 H   0  0  0  0  0  0  0  0  0  0  0  0
    0.7800    1.3370   -7.9052 H   0  0  0  0  0  0  0  0  0  0  0  0
    1.5322    0.1217   -6.8172 H   0  0  0  0  0  0  0  0  0  0  0  0
    0.1308   -0.3367   -7.8431 H   0  0  0  0  0  0  0  0  0  0  0  0
 22 24  2  0  0  0  0
 24 26  1  0  0  0  0
 25 26  2  0  0  0  0
 23 25  1  0  0  0  0
 21 22  1  0  0  0  0
 22 23  1  0  0  0  0
  1  3  1  0  0  0  0
  1  7  1  0  0  0  0
  1  2  2  0  0  0  0
 35 36  1  0  0  0  0
 36 44  1  0  0  0  0
 36 37  2  0  0  0  0
  8  9  1  0  0  0  0
  9 17  1  0  0  0  0
  9 10  2  0  0  0  0
 18 19  1  0  0  0  0
 19 34  1  0  0  0  0
 19 20  2  0  0  0  0
 35 38  1  0  0  0  0
  8 11  1  0  0  0  0
 44 45  1  0  0  0  0
 18 21  1  0  0  0  0
 34 35  1  0  0  0  0
  7  8  1  0  0  0  0
 17 18  1  0  0  0  0
 24 32  1  0  0  0  0
 25 33  1  0  0  0  0
  3  4  1  0  0  0  0
  3  5  1  0  0  0  0
  3  6  1  0  0  0  0
 38 41  1  0  0  0  0
 38 42  1  0  0  0  0
 38 43  1  0  0  0  0
 11 14  1  0  0  0  0
 11 15  1  0  0  0  0
 11 16  1  0  0  0  0
 45 47  1  0  0  0  0
 45 48  1  0  0  0  0
 45 49  1  0  0  0  0
 21 29  1  0  0  0  0
 21 30  1  0  0  0  0
 35 40  1  0  0  0  0
  8 13  1  0  0  0  0
 18 28  1  0  0  0  0
 23 31  1  0  0  0  0
 44 46  1  0  0  0  0
  7 12  1  0  0  0  0
 34 39  1  0  0  0  0
 17 27  1  0  0  0  0
M  END
$$$$

  -OEChem-05262214473D

 49 49  0     1  0  0  0  0  0999 V2000
   -1.5619    0.5658    3.7981 C   0  0  0  0  0  0  0  0  0  0  0  0
   -0.6145   -0.0489    3.3224 O   0  0  0  0  0  0  0  0  0  0  0  0
   -1.9938    0.2834    5.1988 C   0  0  0  0  0  0  0  0  0  0  0  0
   -2.7535   -0.5129    5.2522 H   0  0  0  0  0  0  0  0  0  0  0  0
   -1.1626   -0.0642    5.8331 H   0  0  0  0  0  0  0  0  0  0  0  0
   -2.4318    1.1383    5.7384 H   0  0  0  0  0  0  0  0  0  0  0  0
   -2.3116    1.5383    3.1570 N   0  0  0  0  0  0  0  0  0  0  0  0
   -2.0648    1.9643    1.8046 C   0  0  2  0  0  0  0  0  0  0  0  0
   -0.7298    1.3789    1.3634 C   0  0  0  0  0  0  0  0  0  0  0  0
    0.1423    1.0262    2.1547 O   0  0  0  0  0  0  0  0  0  0  0  0
   -2.0560    3.4811    1.6952 C   0  0  0  0  0  0  0  0  0  0  0  0
   -3.0767    1.9741    3.6688 H   0  0  0  0  0  0  0  0  0  0  0  0
   -2.8689    1.5458    1.1895 H   0  0  0  0  0  0  0  0  0  0  0  0
   -1.2569    3.9183    2.3049 H   0  0  0  0  0  0  0  0  0  0  0  0
   -1.8965    3.8033    0.6609 H   0  0  0  0  0  0  0  0  0  0  0  0
   -3.0062    3.9023    2.0409 H   0  0  0  0  0  0  0  0  0  0  0  0
   -0.6071    1.3358   -0.0200 N   0  0  0  0  0  0  0  0  0  0  0  0
    0.5702    0.8350   -0.6836 C   0  0  2  0  0  0  0  0  0  0  0  0
    0.1978    0.5947   -2.1423 C   0  0  0  0  0  0  0  0  0  0  0  0
    0.2330   -0.5160   -2.6677 O   0  0  0  0  0  0  0  0  0  0  0  0
    1.0881   -0.4592   -0.0457 C   0  0  0  0  0  0  0  0  0  0  0  0
    1.5516   -0.2636    1.3772 C   0  0  0  0  0  0  0  0  0  0  0  0
    2.7310    0.3502    1.6926 N   0  0  0  0  0  0  0  0  0  0  0  0
    0.9954   -0.6010    2.5885 C   0  0  0  0  0  0  0  0  0  0  0  0
    2.8374    0.3578    3.0556 C   0  0  0  0  0  0  0  0  0  0  0  0
    1.8005   -0.2112    3.6293 N   0  0  0  0  0  0  0  0  0  0  0  0
   -1.3903    1.6325   -0.5973 H   0  0  0  0  0  0  0  0  0  0  0  0
    1.3211    1.6322   -0.6316 H   0  0  0  0  0  0  0  0  0  0  0  0
    1.9065   -0.8784   -0.6466 H   0  0  0  0  0  0  0  0  0  0  0  0
    0.3049   -1.2288   -0.0495 H   0  0  0  0  0  0  0  0  0  0  0  0
    3.4045    0.7292    1.0398 H   0  0  0  0  0  0  0  0  0  0  0  0
    0.0560   -1.1048    2.7667 H   0  0  0  0  0  0  0  0  0  0  0  0
    3.6884    0.7898    3.5627 H   0  0  0  0  0  0  0  0  0  0  0  0
   -0.2249    1.7587   -2.7692 N   0  0  0  0  0  0  0  0  0  0  0  0
   -0.6574    1.8057   -4.1474 C   0  0  2  0  0  0  0  0  0  0  0  0
    0.4009    1.1136   -4.9963 C   0  0  0  0  0  0  0  0  0  0  0  0
    1.5681    0.9788   -4.6348 O   0  0  0  0  0  0  0  0  0  0  0  0
   -0.8746    3.2378   -4.6107 C   0  0  0  0  0  0  0  0  0  0  0  0
   -0.2305    2.6210   -2.2323 H   0  0  0  0  0  0  0  0  0  0  0  0
   -1.5962    1.2440   -4.2036 H   0  0  0  0  0  0  0  0  0  0  0  0
    0.0552    3.8162   -4.5614 H   0  0  0  0  0  0  0  0  0  0  0  0
   -1.2296    3.2704   -5.6460 H   0  0  0  0  0  0  0  0  0  0  0  0
   -1.6142    3.7433   -3.9805 H   0  0  0  0  0  0  0  0  0  0  0  0
   -0.1010    0.7024   -6.2231 N   0  0  0  0  0  0  0  0  0  0  0  0
    0.7103    0.0321   -7.2123 C   0  0  0  0  0  0  0  0  0  0  0  0
   -1.0859    0.8384   -6.4310 H   0  0  0  0  0  0  0  0  0  0  0  0
    1.1353    0.7749   -7.9033 H   0  0  0  0  0  0  0  0  0  0  0  0
    1.5252   -0.5109   -6.7112 H   0  0  0  0  0  0  0  0  0  0  0  0
    0.0882   -0.6789   -7.7758 H   0  0  0  0  0  0  0  0  0  0  0  0
 22 24  2  0  0  0  0
 24 26  1  0  0  0  0
 25 26  2  0  0  0  0
 23 25  1  0  0  0  0
 21 22  1  0  0  0  0
 22 23  1  0  0  0  0
  1  3  1  0  0  0  0
  1  7  1  0  0  0  0
  1  2  2  0  0  0  0
 35 36  1  0  0  0  0
 36 44  1  0  0  0  0
 36 37  2  0  0  0  0
  8  9  1  0  0  0  0
  9 17  1  0  0  0  0
  9 10  2  0  0  0  0
 18 19  1  0  0  0  0
 19 34  1  0  0  0  0
 19 20  2  0  0  0  0
 35 38  1  0  0  0  0
  8 11  1  0  0  0  0
 44 45  1  0  0  0  0
 18 21  1  0  0  0  0
 34 35  1  0  0  0  0
  7  8  1  0  0  0  0
 17 18  1  0  0  0  0
 24 32  1  0  0  0  0
 25 33  1  0  0  0  0
  3  4  1  0  0  0  0
  3  5  1  0  0  0  0
  3  6  1  0  0  0  0
 38 41  1  0  0  0  0
 38 42  1  0  0  0  0
 38 43  1  0  0  0  0
 11 14  1  0  0  0  0
 11 15  1  0  0  0  0
 11 16  1  0  0  0  0
 45 47  1  0  0  0  0
 45 48  1  0  0  0  0
 45 49  1  0  0  0  0
 21 29  1  0  0  0  0
 21 30  1  0  0  0  0
 35 40  1  0  0  0  0
  8 13  1  0  0  0  0
 18 28  1  0  0  0  0
 23 31  1  0  0  0  0
 44 46  1  0  0  0  0
  7 12  1  0  0  0  0
 34 39  1  0  0  0  0
 17 27  1  0  0  0  0
M  END
$$$$

  -OEChem-05262214473D

 49 49  0     1  0  0  0  0  0999 V2000
   -1.5619    0.5658    3.7981 C   0  0  0  0  0  0  0  0  0  0  0  0
   -0.6145   -0.0489    3.3224 O   0  0  0  0  0  0  0  0  0  0  0  0
   -1.9938    0.2834    5.1988 C   0  0  0  0  0  0  0  0  0  0  0  0
   -2.7535   -0.5129    5.2522 H   0  0  0  0  0  0  0  0  0  0  0  0
   -1.1626   -0.0642    5.8331 H   0  0  0  0  0  0  0  0  0  0  0  0
   -2.4318    1.1383    5.7384 H   0  0  0  0  0  0  0  0  0  0  0  0
   -2.3116    1.5383    3.1570 N   0  0  0  0  0  0  0  0  0  0  0  0
   -2.0648    1.9643    1.8046 C   0  0  2  0  0  0  0  0  0  0  0  0
   -0.7298    1.3789    1.3634 C   0  0  0  0  0  0  0  0  0  0  0  0
    0.1423    1.0262    2.1547 O   0  0  0  0  0  0  0  0  0  0  0  0
   -2.0560    3.4811    1.6952 C   0  0  0  0  0  0  0  0  0  0  0  0
   -3.0767    1.9741    3.6688 H   0  0  0  0  0  0  0  0  0  0  0  0
   -2.8689    1.5458    1.1895 H   0  0  0  0  0  0  0  0  0  0  0  0
   -1.2569    3.9183    2.3049 H   0  0  0  0  0  0  0  0  0  0  0  0
   -1.8965    3.8033    0.6609 H   0  0  0  0  0  0  0  0  0  0  0  0
   -3.0062    3.9023    2.0409 H   0  0  0  0  0  0  0  0  0  0  0  0
   -0.6071    1.3358   -0.0200 N   0  0  0  0  0  0  0  0  0  0  0  0
    0.5702    0.8350   -0.6836 C   0  0  2  0  0  0  0  0  0  0  0  0
    0.1978    0.5947   -2.1423 C   0  0  0  0  0  0  0  0  0  0  0  0
   -0.0274   -0.5236   -2.6000 O   0  0  0  0  0  0  0  0  0  0  0  0
    1.0881   -0.4592   -0.0457 C   0  0  0  0  0  0  0  0  0  0  0  0
    1.5516   -0.2636    1.3772 C   0  0  0  0  0  0  0  0  0  0  0  0
    2.7310    0.3502    1.6926 N   0  0  0  0  0  0  0  0  0  0  0  0
    0.9954   -0.6010    2.5885 C   0  0  0  0  0  0  0  0  0  0  0  0
    2.8374    0.3578    3.0556 C   0  0  0  0  0  0  0  0  0  0  0  0
    1.8005   -0.2112    3.6293 N   0  0  0  0  0  0  0  0  0  0  0  0
   -1.3903    1.6325   -0.5973 H   0  0  0  0  0  0  0  0  0  0  0  0
    1.3211    1.6322   -0.6316 H   0  0  0  0  0  0  0  0  0  0  0  0
    1.9065   -0.8784   -0.6466 H   0  0  0  0  0  0  0  0  0  0  0  0
    0.3049   -1.2288   -0.0495 H   0  0  0  0  0  0  0  0  0  0  0  0
    3.4045    0.7292    1.0398 H   0  0  0  0  0  0  0  0  0  0  0  0
    0.0560   -1.1048    2.7667 H   0  0  0  0  0  0  0  0  0  0  0  0
    3.6884    0.7898    3.5627 H   0  0  0  0  0  0  0  0  0  0  0  0
    0.0990    1.7813   -2.8556 N   0  0  0  0  0  0  0  0  0  0  0  0
   -0.2627    1.8391   -4.2537 C   0  0  2  0  0  0  0  0  0  0  0  0
    0.6173    0.8512   -5.0083 C   0  0  0  0  0  0  0  0  0  0  0  0
    1.7016    0.4581   -4.5831 O   0  0  0  0  0  0  0  0  0  0  0  0
   -0.1012    3.2454   -4.8094 C   0  0  0  0  0  0  0  0  0  0  0  0
    0.2906    2.6530   -2.3706 H   0  0  0  0  0  0  0  0  0  0  0  0
   -1.3094    1.5235   -4.3229 H   0  0  0  0  0  0  0  0  0  0  0  0
    0.9412    3.5789   -4.7485 H   0  0  0  0  0  0  0  0  0  0  0  0
   -0.4027    3.2936   -5.8610 H   0  0  0  0  0  0  0  0  0  0  0  0
   -0.7120    3.9594   -4.2464 H   0  0  0  0  0  0  0  0  0  0  0  0
    0.0694    0.4935   -6.2322 N   0  0  0  0  0  0  0  0  0  0  0  0
    0.7202   -0.4221   -7.1400 C   0  0  0  0  0  0  0  0  0  0  0  0
   -0.8433    0.8533   -6.4954 H   0  0  0  0  0  0  0  0  0  0  0  0
    1.3393    0.1442   -7.8514 H   0  0  0  0  0  0  0  0  0  0  0  0
    1.3574   -1.1134   -6.5691 H   0  0  0  0  0  0  0  0  0  0  0  0
   -0.0404   -0.9947   -7.6910 H   0  0  0  0  0  0  0  0  0  0  0  0
 22 24  2  0  0  0  0
 24 26  1  0  0  0  0
 25 26  2  0  0  0  0
 23 25  1  0  0  0  0
 21 22  1  0  0  0  0
 22 23  1  0  0  0  0
  1  3  1  0  0  0  0
  1  7  1  0  0  0  0
  1  2  2  0  0  0  0
 35 36  1  0  0  0  0
 36 44  1  0  0  0  0
 36 37  2  0  0  0  0
  8  9  1  0  0  0  0
  9 17  1  0  0  0  0
  9 10  2  0  0  0  0
 18 19  1  0  0  0  0
 19 34  1  0  0  0  0
 19 20  2  0  0  0  0
 35 38  1  0  0  0  0
  8 11  1  0  0  0  0
 44 45  1  0  0  0  0
 18 21  1  0  0  0  0
 34 35  1  0  0  0  0
  7  8  1  0  0  0  0
 17 18  1  0  0  0  0
 24 32  1  0  0  0  0
 25 33  1  0  0  0  0
  3  4  1  0  0  0  0
  3  5  1  0  0  0  0
  3  6  1  0  0  0  0
 38 41  1  0  0  0  0
 38 42  1  0  0  0  0
 38 43  1  0  0  0  0
 11 14  1  0  0  0  0
 11 15  1  0  0  0  0
 11 16  1  0  0  0  0
 45 47  1  0  0  0  0
 45 48  1  0  0  0  0
 45 49  1  0  0  0  0
 21 29  1  0  0  0  0
 21 30  1  0  0  0  0
 35 40  1  0  0  0  0
  8 13  1  0  0  0  0
 18 28  1  0  0  0  0
 23 31  1  0  0  0  0
 44 46  1  0  0  0  0
  7 12  1  0  0  0  0
 34 39  1  0  0  0  0
 17 27  1  0  0  0  0
M  END
$$$$

  -OEChem-05262214473D

 49 49  0     1  0  0  0  0  0999 V2000
   -1.5619    0.5658    3.7981 C   0  0  0  0  0  0  0  0  0  0  0  0
   -0.6145   -0.0489    3.3224 O   0  0  0  0  0  0  0  0  0  0  0  0
   -1.9938    0.2834    5.1988 C   0  0  0  0  0  0  0  0  0  0  0  0
   -2.7535   -0.5129    5.2522 H   0  0  0  0  0  0  0  0  0  0  0  0
   -1.1626   -0.0642    5.8331 H   0  0  0  0  0  0  0  0  0  0  0  0
   -2.4318    1.1383    5.7384 H   0  0  0  0  0  0  0  0  0  0  0  0
   -2.3116    1.5383    3.1570 N   0  0  0  0  0  0  0  0  0  0  0  0
   -2.0648    1.9643    1.8046 C   0  0  2  0  0  0  0  0  0  0  0  0
   -0.7298    1.3789    1.3634 C   0  0  0  0  0  0  0  0  0  0  0  0
    0.1423    1.0262    2.1547 O   0  0  0  0  0  0  0  0  0  0  0  0
   -2.0560    3.4811    1.6952 C   0  0  0  0  0  0  0  0  0  0  0  0
   -3.0767    1.9741    3.6688 H   0  0  0  0  0  0  0  0  0  0  0  0
   -2.8689    1.5458    1.1895 H   0  0  0  0  0  0  0  0  0  0  0  0
   -1.2569    3.9183    2.3049 H   0  0  0  0  0  0  0  0  0  0  0  0
   -1.8965    3.8033    0.6609 H   0  0  0  0  0  0  0  0  0  0  0  0
   -3.0062    3.9023    2.0409 H   0  0  0  0  0  0  0  0  0  0  0  0
   -0.6071    1.3358   -0.0200 N   0  0  0  0  0  0  0  0  0  0  0  0
    0.5702    0.8350   -0.6836 C   0  0  2  0  0  0  0  0  0  0  0  0
    0.1978    0.5947   -2.1423 C   0  0  0  0  0  0  0  0  0  0  0  0
   -0.2836   -0.4623   -2.5447 O   0  0  0  0  0  0  0  0  0  0  0  0
    1.0881   -0.4592   -0.0457 C   0  0  0  0  0  0  0  0  0  0  0  0
    1.5516   -0.2636    1.3772 C   0  0  0  0  0  0  0  0  0  0  0  0
    2.7310    0.3502    1.6926 N   0  0  0  0  0  0  0  0  0  0  0  0
    0.9954   -0.6010    2.5885 C   0  0  0  0  0  0  0  0  0  0  0  0
    2.8374    0.3578    3.0556 C   0  0  0  0  0  0  0  0  0  0  0  0
    1.8005   -0.2112    3.6293 N   0  0  0  0  0  0  0  0  0  0  0  0
   -1.3903    1.6325   -0.5973 H   0  0  0  0  0  0  0  0  0  0  0  0
    1.3211    1.6322   -0.6316 H   0  0  0  0  0  0  0  0  0  0  0  0
    1.9065   -0.8784   -0.6466 H   0  0  0  0  0  0  0  0  0  0  0  0
    0.3049   -1.2288   -0.0495 H   0  0  0  0  0  0  0  0  0  0  0  0
    3.4045    0.7292    1.0398 H   0  0  0  0  0  0  0  0  0  0  0  0
    0.0560   -1.1048    2.7667 H   0  0  0  0  0  0  0  0  0  0  0  0
    3.6884    0.7898    3.5627 H   0  0  0  0  0  0  0  0  0  0  0  0
    0.4210    1.7174   -2.9273 N   0  0  0  0  0  0  0  0  0  0  0  0
    0.1312    1.7668   -4.3423 C   0  0  2  0  0  0  0  0  0  0  0  0
    0.7618    0.5435   -4.9945 C   0  0  0  0  0  0  0  0  0  0  0  0
    1.6995   -0.0746   -4.4948 O   0  0  0  0  0  0  0  0  0  0  0  0
    0.6559    3.0487   -4.9702 C   0  0  0  0  0  0  0  0  0  0  0  0
    0.8075    2.5461   -2.4850 H   0  0  0  0  0  0  0  0  0  0  0  0
   -0.9583    1.7148   -4.4440 H   0  0  0  0  0  0  0  0  0  0  0  0
    1.7459    3.1185   -4.8781 H   0  0  0  0  0  0  0  0  0  0  0  0
    0.4105    3.0976   -6.0363 H   0  0  0  0  0  0  0  0  0  0  0  0
    0.2239    3.9279   -4.4802 H   0  0  0  0  0  0  0  0  0  0  0  0
    0.1825    0.2489   -6.2208 N   0  0  0  0  0  0  0  0  0  0  0  0
    0.6144   -0.8586   -7.0411 C   0  0  0  0  0  0  0  0  0  0  0  0
   -0.6027    0.8036   -6.5487 H   0  0  0  0  0  0  0  0  0  0  0  0
    1.3779   -0.5123   -7.7532 H   0  0  0  0  0  0  0  0  0  0  0  0
    1.0403   -1.6449   -6.4006 H   0  0  0  0  0  0  0  0  0  0  0  0
   -0.2464   -1.2625   -7.5943 H   0  0  0  0  0  0  0  0  0  0  0  0
 22 24  2  0  0  0  0
 24 26  1  0  0  0  0
 25 26  2  0  0  0  0
 23 25  1  0  0  0  0
 21 22  1  0  0  0  0
 22 23  1  0  0  0  0
  1  3  1  0  0  0  0
  1  7  1  0  0  0  0
  1  2  2  0  0  0  0
 35 36  1  0  0  0  0
 36 44  1  0  0  0  0
 36 37  2  0  0  0  0
  8  9  1  0  0  0  0
  9 17  1  0  0  0  0
  9 10  2  0  0  0  0
 18 19  1  0  0  0  0
 19 34  1  0  0  0  0
 19 20  2  0  0  0  0
 35 38  1  0  0  0  0
  8 11  1  0  0  0  0
 44 45  1  0  0  0  0
 18 21  1  0  0  0  0
 34 35  1  0  0  0  0
  7  8  1  0  0  0  0
 17 18  1  0  0  0  0
 24 32  1  0  0  0  0
 25 33  1  0  0  0  0
  3  4  1  0  0  0  0
  3  5  1  0  0  0  0
  3  6  1  0  0  0  0
 38 41  1  0  0  0  0
 38 42  1  0  0  0  0
 38 43  1  0  0  0  0
 11 14  1  0  0  0  0
 11 15  1  0  0  0  0
 11 16  1  0  0  0  0
 45 47  1  0  0  0  0
 45 48  1  0  0  0  0
 45 49  1  0  0  0  0
 21 29  1  0  0  0  0
 21 30  1  0  0  0  0
 35 40  1  0  0  0  0
  8 13  1  0  0  0  0
 18 28  1  0  0  0  0
 23 31  1  0  0  0  0
 44 46  1  0  0  0  0
  7 12  1  0  0  0  0
 34 39  1  0  0  0  0
 17 27  1  0  0  0  0
M  END
$$$$

  -OEChem-05262214473D

 49 49  0     1  0  0  0  0  0999 V2000
   -1.5619    0.5658    3.7981 C   0  0  0  0  0  0  0  0  0  0  0  0
   -0.6145   -0.0489    3.3224 O   0  0  0  0  0  0  0  0  0  0  0  0
   -1.9938    0.2834    5.1988 C   0  0  0  0  0  0  0  0  0  0  0  0
   -2.7535   -0.5129    5.2522 H   0  0  0  0  0  0  0  0  0  0  0  0
   -1.1626   -0.0642    5.8331 H   0  0  0  0  0  0  0  0  0  0  0  0
   -2.4318    1.1383    5.7384 H   0  0  0  0  0  0  0  0  0  0  0  0
   -2.3116    1.5383    3.1570 N   0  0  0  0  0  0  0  0  0  0  0  0
   -2.0648    1.9643    1.8046 C   0  0  2  0  0  0  0  0  0  0  0  0
   -0.7298    1.3789    1.3634 C   0  0  0  0  0  0  0  0  0  0  0  0
    0.1423    1.0262    2.1547 O   0  0  0  0  0  0  0  0  0  0  0  0
   -2.0560    3.4811    1.6952 C   0  0  0  0  0  0  0  0  0  0  0  0
   -3.0767    1.9741    3.6688 H   0  0  0  0  0  0  0  0  0  0  0  0
   -2.8689    1.5458    1.1895 H   0  0  0  0  0  0  0  0  0  0  0  0
   -1.2569    3.9183    2.3049 H   0  0  0  0  0  0  0  0  0  0  0  0
   -1.8965    3.8033    0.6609 H   0  0  0  0  0  0  0  0  0  0  0  0
   -3.0062    3.9023    2.0409 H   0  0  0  0  0  0  0  0  0  0  0  0
   -0.6071    1.3358   -0.0200 N   0  0  0  0  0  0  0  0  0  0  0  0
    0.5702    0.8350   -0.6836 C   0  0  2  0  0  0  0  0  0  0  0  0
    0.1978    0.5947   -2.1423 C   0  0  0  0  0  0  0  0  0  0  0  0
   -0.5181   -0.3361   -2.5056 O   0  0  0  0  0  0  0  0  0  0  0  0
    1.0881   -0.4592   -0.0457 C   0  0  0  0  0  0  0  0  0  0  0  0
    1.5516   -0.2636    1.3772 C   0  0  0  0  0  0  0  0  0  0  0  0
    2.7310    0.3502    1.6926 N   0  0  0  0  0  0  0  0  0  0  0  0
    0.9954   -0.6010    2.5885 C   0  0  0  0  0  0  0  0  0  0  0  0
    2.8374    0.3578    3.0556 C   0  0  0  0  0  0  0  0  0  0  0  0
    1.8005   -0.2112    3.6293 N   0  0  0  0  0  0  0  0  0  0  0  0
   -1.3903    1.6325   -0.5973 H   0  0  0  0  0  0  0  0  0  0  0  0
    1.3211    1.6322   -0.6316 H   0  0  0  0  0  0  0  0  0  0  0  0
    1.9065   -0.8784   -0.6466 H   0  0  0  0  0  0  0  0  0  0  0  0
    0.3049   -1.2288   -0.0495 H   0  0  0  0  0  0  0  0  0  0  0  0
    3.4045    0.7292    1.0398 H   0  0  0  0  0  0  0  0  0  0  0  0
    0.0560   -1.1048    2.7667 H   0  0  0  0  0  0  0  0  0  0  0  0
    3.6884    0.7898    3.5627 H   0  0  0  0  0  0  0  0  0  0  0  0
    0.7191    1.5715   -2.9794 N   0  0  0  0  0  0  0  0  0  0  0  0
    0.4973    1.5939   -4.4073 C   0  0  2  0  0  0  0  0  0  0  0  0
    0.8246    0.2113   -4.9558 C   0  0  0  0  0  0  0  0  0  0  0  0
    1.5620   -0.5831   -4.3760 O   0  0  0  0  0  0  0  0  0  0  0  0
    1.3449    2.6610   -5.0823 C   0  0  0  0  0  0  0  0  0  0  0  0
    1.2851    2.3077   -2.5676 H   0  0  0  0  0  0  0  0  0  0  0  0
   -0.5669    1.8050   -4.5588 H   0  0  0  0  0  0  0  0  0  0  0  0
    2.4144    2.4663   -4.9413 H   0  0  0  0  0  0  0  0  0  0  0  0
    1.1546    2.6959   -6.1601 H   0  0  0  0  0  0  0  0  0  0  0  0
    1.1296    3.6509   -4.6658 H   0  0  0  0  0  0  0  0  0  0  0  0
    0.2308   -0.0147   -6.1897 N   0  0  0  0  0  0  0  0  0  0  0  0
    0.4000   -1.2478   -6.9223 C   0  0  0  0  0  0  0  0  0  0  0  0
   -0.3804    0.6926   -6.5871 H   0  0  0  0  0  0  0  0  0  0  0  0
    1.2487   -1.1498   -7.6152 H   0  0  0  0  0  0  0  0  0  0  0  0
    0.5955   -2.0691   -6.2172 H   0  0  0  0  0  0  0  0  0  0  0  0
   -0.5155   -1.4641   -7.4924 H   0  0  0  0  0  0  0  0  0  0  0  0
 22 24  2  0  0  0  0
 24 26  1  0  0  0  0
 25 26  2  0  0  0  0
 23 25  1  0  0  0  0
 21 22  1  0  0  0  0
 22 23  1  0  0  0  0
  1  3  1  0  0  0  0
  1  7  1  0  0  0  0
  1  2  2  0  0  0  0
 35 36  1  0  0  0  0
 36 44  1  0  0  0  0
 36 37  2  0  0  0  0
  8  9  1  0  0  0  0
  9 17  1  0  0  0  0
  9 10  2  0  0  0  0
 18 19  1  0  0  0  0
 19 34  1  0  0  0  0
 19 20  2  0  0  0  0
 35 38  1  0  0  0  0
  8 11  1  0  0  0  0
 44 45  1  0  0  0  0
 18 21  1  0  0  0  0
 34 35  1  0  0  0  0
  7  8  1  0  0  0  0
 17 18  1  0  0  0  0
 24 32  1  0  0  0  0
 25 33  1  0  0  0  0
  3  4  1  0  0  0  0
  3  5  1  0  0  0  0
  3  6  1  0  0  0  0
 38 41  1  0  0  0  0
 38 42  1  0  0  0  0
 38 43  1  0  0  0  0
 11 14  1  0  0  0  0
 11 15  1  0  0  0  0
 11 16  1  0  0  0  0
 45 47  1  0  0  0  0
 45 48  1  0  0  0  0
 45 49  1  0  0  0  0
 21 29  1  0  0  0  0
 21 30  1  0  0  0  0
 35 40  1  0  0  0  0
  8 13  1  0  0  0  0
 18 28  1  0  0  0  0
 23 31  1  0  0  0  0
 44 46  1  0  0  0  0
  7 12  1  0  0  0  0
 34 39  1  0  0  0  0
 17 27  1  0  0  0  0
M  END
$$$$

  -OEChem-05262214473D

 49 49  0     1  0  0  0  0  0999 V2000
   -1.5619    0.5658    3.7981 C   0  0  0  0  0  0  0  0  0  0  0  0
   -0.6145   -0.0489    3.3224 O   0  0  0  0  0  0  0  0  0  0  0  0
   -1.9938    0.2834    5.1988 C   0  0  0  0  0  0  0  0  0  0  0  0
   -2.7535   -0.5129    5.2522 H   0  0  0  0  0  0  0  0  0  0  0  0
   -1.1626   -0.0642    5.8331 H   0  0  0  0  0  0  0  0  0  0  0  0
   -2.4318    1.1383    5.7384 H   0  0  0  0  0  0  0  0  0  0  0  0
   -2.3116    1.5383    3.1570 N   0  0  0  0  0  0  0  0  0  0  0  0
   -2.0648    1.9643    1.8046 C   0  0  2  0  0  0  0  0  0  0  0  0
   -0.7298    1.3789    1.3634 C   0  0  0  0  0  0  0  0  0  0  0  0
    0.1423    1.0262    2.1547 O   0  0  0  0  0  0  0  0  0  0  0  0
   -2.0560    3.4811    1.6952 C   0  0  0  0  0  0  0  0  0  0  0  0
   -3.0767    1.9741    3.6688 H   0  0  0  0  0  0  0  0  0  0  0  0
   -2.8689    1.5458    1.1895 H   0  0  0  0  0  0  0  0  0  0  0  0
   -1.2569    3.9183    2.3049 H   0  0  0  0  0  0  0  0  0  0  0  0
   -1.8965    3.8033    0.6609 H   0  0  0  0  0  0  0  0  0  0  0  0
   -3.0062    3.9023    2.0409 H   0  0  0  0  0  0  0  0  0  0  0  0
   -0.6071    1.3358   -0.0200 N   0  0  0  0  0  0  0  0  0  0  0  0
    0.5702    0.8350   -0.6836 C   0  0  2  0  0  0  0  0  0  0  0  0
    0.1978    0.5947   -2.1423 C   0  0  0  0  0  0  0  0  0  0  0  0
   -0.7150   -0.1536   -2.4854 O   0  0  0  0  0  0  0  0  0  0  0  0
    1.0881   -0.4592   -0.0457 C   0  0  0  0  0  0  0  0  0  0  0  0
    1.5516   -0.2636    1.3772 C   0  0  0  0  0  0  0  0  0  0  0  0
    2.7310    0.3502    1.6926 N   0  0  0  0  0  0  0  0  0  0  0  0
    0.9954   -0.6010    2.5885 C   0  0  0  0  0  0  0  0  0  0  0  0
    2.8374    0.3578    3.0556 C   0  0  0  0  0  0  0  0  0  0  0  0
    1.8005   -0.2112    3.6293 N   0  0  0  0  0  0  0  0  0  0  0  0
   -1.3903    1.6325   -0.5973 H   0  0  0  0  0  0  0  0  0  0  0  0
    1.3211    1.6322   -0.6316 H   0  0  0  0  0  0  0  0  0  0  0  0
    1.9065   -0.8784   -0.6466 H   0  0  0  0  0  0  0  0  0  0  0  0
    0.3049   -1.2288   -0.0495 H   0  0  0  0  0  0  0  0  0  0  0  0
    3.4045    0.7292    1.0398 H   0  0  0  0  0  0  0  0  0  0  0  0
    0.0560   -1.1048    2.7667 H   0  0  0  0  0  0  0  0  0  0  0  0
    3.6884    0.7898    3.5627 H   0  0  0  0  0  0  0  0  0  0  0  0
    0.9731    1.3534   -3.0083 N   0  0  0  0  0  0  0  0  0  0  0  0
    0.8108    1.3320   -4.4442 C   0  0  2  0  0  0  0  0  0  0  0  0
    0.8014   -0.1227   -4.8949 C   0  0  0  0  0  0  0  0  0  0  0  0
    1.2984   -1.0327   -4.2346 O   0  0  0  0  0  0  0  0  0  0  0  0
    1.9191    2.1088   -5.1379 C   0  0  0  0  0  0  0  0  0  0  0  0
    1.6906    1.9538   -2.6128 H   0  0  0  0  0  0  0  0  0  0  0  0
   -0.1617    1.7880   -4.6594 H   0  0  0  0  0  0  0  0  0  0  0  0
    2.9011    1.6667   -4.9339 H   0  0  0  0  0  0  0  0  0  0  0  0
    1.7789    2.1157   -6.2239 H   0  0  0  0  0  0  0  0  0  0  0  0
    1.9434    3.1473   -4.7906 H   0  0  0  0  0  0  0  0  0  0  0  0
    0.2109   -0.2792   -6.1411 N   0  0  0  0  0  0  0  0  0  0  0  0
    0.0917   -1.5632   -6.7916 C   0  0  0  0  0  0  0  0  0  0  0  0
   -0.1916    0.5280   -6.6082 H   0  0  0  0  0  0  0  0  0  0  0  0
    0.9604   -1.7248   -7.4469 H   0  0  0  0  0  0  0  0  0  0  0  0
    0.0533   -2.3572   -6.0313 H   0  0  0  0  0  0  0  0  0  0  0  0
   -0.8296   -1.5857   -7.3922 H   0  0  0  0  0  0  0  0  0  0  0  0
 22 24  2  0  0  0  0
 24 26  1  0  0  0  0
 25 26  2  0  0  0  0
 23 25  1  0  0  0  0
 21 22  1  0  0  0  0
 22 23  1  0  0  0  0
  1  3  1  0  0  0  0
  1  7  1  0  0  0  0
  1  2  2  0  0  0  0
 35 36  1  0  0  0  0
 36 44  1  0  0  0  0
 36 37  2  0  0  0  0
  8  9  1  0  0  0  0
  9 17  1  0  0  0  0
  9 10  2  0  0  0  0
 18 19  1  0  0  0  0
 19 34  1  0  0  0  0
 19 20  2  0  0  0  0
 35 38  1  0  0  0  0
  8 11  1  0  0  0  0
 44 45  1  0  0  0  0
 18 21  1  0  0  0  0
 34 35  1  0  0  0  0
  7  8  1  0  0  0  0
 17 18  1  0  0  0  0
 24 32  1  0  0  0  0
 25 33  1  0  0  0  0
  3  4  1  0  0  0  0
  3  5  1  0  0  0  0
  3  6  1  0  0  0  0
 38 41  1  0  0  0  0
 38 42  1  0  0  0  0
 38 43  1  0  0  0  0
 11 14  1  0  0  0  0
 11 15  1  0  0  0  0
 11 16  1  0  0  0  0
 45 47  1  0  0  0  0
 45 48  1  0  0  0  0
 45 49  1  0  0  0  0
 21 29  1  0  0  0  0
 21 30  1  0  0  0  0
 35 40  1  0  0  0  0
  8 13  1  0  0  0  0
 18 28  1  0  0  0  0
 23 31  1  0  0  0  0
 44 46  1  0  0  0  0
  7 12  1  0  0  0  0
 34 39  1  0  0  0  0
 17 27  1  0  0  0  0
M  END
$$$$

  -OEChem-05262214473D

 49 49  0     1  0  0  0  0  0999 V2000
   -1.5619    0.5658    3.7981 C   0  0  0  0  0  0  0  0  0  0  0  0
   -0.6145   -0.0489    3.3224 O   0  0  0  0  0  0  0  0  0  0  0  0
   -1.9938    0.2834    5.1988 C   0  0  0  0  0  0  0  0  0  0  0  0
   -2.7535   -0.5129    5.2522 H   0  0  0  0  0  0  0  0  0  0  0  0
   -1.1626   -0.0642    5.8331 H   0  0  0  0  0  0  0  0  0  0  0  0
   -2.4318    1.1383    5.7384 H   0  0  0  0  0  0  0  0  0  0  0  0
   -2.3116    1.5383    3.1570 N   0  0  0  0  0  0  0  0  0  0  0  0
   -2.0648    1.9643    1.8046 C   0  0  2  0  0  0  0  0  0  0  0  0
   -0.7298    1.3789    1.3634 C   0  0  0  0  0  0  0  0  0  0  0  0
    0.1423    1.0262    2.1547 O   0  0  0  0  0  0  0  0  0  0  0  0
   -2.0560    3.4811    1.6952 C   0  0  0  0  0  0  0  0  0  0  0  0
   -3.0767    1.9741    3.6688 H   0  0  0  0  0  0  0  0  0  0  0  0
   -2.8689    1.5458    1.1895 H   0  0  0  0  0  0  0  0  0  0  0  0
   -1.2569    3.9183    2.3049 H   0  0  0  0  0  0  0  0  0  0  0  0
   -1.8965    3.8033    0.6609 H   0  0  0  0  0  0  0  0  0  0  0  0
   -3.0062    3.9023    2.0409 H   0  0  0  0  0  0  0  0  0  0  0  0
   -0.6071    1.3358   -0.0200 N   0  0  0  0  0  0  0  0  0  0  0  0
    0.5702    0.8350   -0.6836 C   0  0  2  0  0  0  0  0  0  0  0  0
    0.1978    0.5947   -2.1423 C   0  0  0  0  0  0  0  0  0  0  0  0
   -0.8608    0.0726   -2.4854 O   0  0  0  0  0  0  0  0  0  0  0  0
    1.0881   -0.4592   -0.0457 C   0  0  0  0  0  0  0  0  0  0  0  0
    1.5516   -0.2636    1.3772 C   0  0  0  0  0  0  0  0  0  0  0  0
    2.7310    0.3502    1.6926 N   0  0  0  0  0  0  0  0  0  0  0  0
    0.9954   -0.6010    2.5885 C   0  0  0  0  0  0  0  0  0  0  0  0
    2.8374    0.3578    3.0556 C   0  0  0  0  0  0  0  0  0  0  0  0
    1.8005   -0.2112    3.6293 N   0  0  0  0  0  0  0  0  0  0  0  0
   -1.3903    1.6325   -0.5973 H   0  0  0  0  0  0  0  0  0  0  0  0
    1.3211    1.6322   -0.6316 H   0  0  0  0  0  0  0  0  0  0  0  0
    1.9065   -0.8784   -0.6466 H   0  0  0  0  0  0  0  0  0  0  0  0
    0.3049   -1.2288   -0.0495 H   0  0  0  0  0  0  0  0  0  0  0  0
    3.4045    0.7292    1.0398 H   0  0  0  0  0  0  0  0  0  0  0  0
    0.0560   -1.1048    2.7667 H   0  0  0  0  0  0  0  0  0  0  0  0
    3.6884    0.7898    3.5627 H   0  0  0  0  0  0  0  0  0  0  0  0
    1.1655    1.0780   -3.0120 N   0  0  0  0  0  0  0  0  0  0  0  0
    1.0503    0.9992   -4.4505 C   0  0  2  0  0  0  0  0  0  0  0  0
    0.6938   -0.4357   -4.8158 C   0  0  0  0  0  0  0  0  0  0  0  0
    0.9266   -1.3928   -4.0804 O   0  0  0  0  0  0  0  0  0  0  0  0
    2.3392    1.4297   -5.1333 C   0  0  0  0  0  0  0  0  0  0  0  0
    1.9966    1.5088   -2.6176 H   0  0  0  0  0  0  0  0  0  0  0  0
    0.2295    1.6648   -4.7390 H   0  0  0  0  0  0  0  0  0  0  0  0
    3.1730    0.7744   -4.8563 H   0  0  0  0  0  0  0  0  0  0  0  0
    2.2409    1.3967   -6.2234 H   0  0  0  0  0  0  0  0  0  0  0  0
    2.6099    2.4514   -4.8461 H   0  0  0  0  0  0  0  0  0  0  0  0
    0.1242   -0.5268   -6.0782 N   0  0  0  0  0  0  0  0  0  0  0  0
   -0.2894   -1.7832   -6.6581 C   0  0  0  0  0  0  0  0  0  0  0  0
   -0.0491    0.3208   -6.6104 H   0  0  0  0  0  0  0  0  0  0  0  0
    0.5326   -2.1982   -7.2597 H   0  0  0  0  0  0  0  0  0  0  0  0
   -0.5492   -2.4893   -5.8557 H   0  0  0  0  0  0  0  0  0  0  0  0
   -1.1672   -1.6190   -7.3005 H   0  0  0  0  0  0  0  0  0  0  0  0
 22 24  2  0  0  0  0
 24 26  1  0  0  0  0
 25 26  2  0  0  0  0
 23 25  1  0  0  0  0
 21 22  1  0  0  0  0
 22 23  1  0  0  0  0
  1  3  1  0  0  0  0
  1  7  1  0  0  0  0
  1  2  2  0  0  0  0
 35 36  1  0  0  0  0
 36 44  1  0  0  0  0
 36 37  2  0  0  0  0
  8  9  1  0  0  0  0
  9 17  1  0  0  0  0
  9 10  2  0  0  0  0
 18 19  1  0  0  0  0
 19 34  1  0  0  0  0
 19 20  2  0  0  0  0
 35 38  1  0  0  0  0
  8 11  1  0  0  0  0
 44 45  1  0  0  0  0
 18 21  1  0  0  0  0
 34 35  1  0  0  0  0
  7  8  1  0  0  0  0
 17 18  1  0  0  0  0
 24 32  1  0  0  0  0
 25 33  1  0  0  0  0
  3  4  1  0  0  0  0
  3  5  1  0  0  0  0
  3  6  1  0  0  0  0
 38 41  1  0  0  0  0
 38 42  1  0  0  0  0
 38 43  1  0  0  0  0
 11 14  1  0  0  0  0
 11 15  1  0  0  0  0
 11 16  1  0  0  0  0
 45 47  1  0  0  0  0
 45 48  1  0  0  0  0
 45 49  1  0  0  0  0
 21 29  1  0  0  0  0
 21 30  1  0  0  0  0
 35 40  1  0  0  0  0
  8 13  1  0  0  0  0
 18 28  1  0  0  0  0
 23 31  1  0  0  0  0
 44 46  1  0  0  0  0
  7 12  1  0  0  0  0
 34 39  1  0  0  0  0
 17 27  1  0  0  0  0
M  END
$$$$

  -OEChem-05262214473D

 49 49  0     1  0  0  0  0  0999 V2000
   -1.5619    0.5658    3.7981 C   0  0  0  0  0  0  0  0  0  0  0  0
   -0.6145   -0.0489    3.3224 O   0  0  0  0  0  0  0  0  0  0  0  0
   -1.9938    0.2834    5.1988 C   0  0  0  0  0  0  0  0  0  0  0  0
   -2.7535   -0.5129    5.2522 H   0  0  0  0  0  0  0  0  0  0  0  0
   -1.1626   -0.0642    5.8331 H   0  0  0  0  0  0  0  0  0  0  0  0
   -2.4318    1.1383    5.7384 H   0  0  0  0  0  0  0  0  0  0  0  0
   -2.3116    1.5383    3.1570 N   0  0  0  0  0  0  0  0  0  0  0  0
   -2.0648    1.9643    1.8046 C   0  0  2  0  0  0  0  0  0  0  0  0
   -0.7298    1.3789    1.3634 C   0  0  0  0  0  0  0  0  0  0  0  0
    0.1423    1.0262    2.1547 O   0  0  0  0  0  0  0  0  0  0  0  0
   -2.0560    3.4811    1.6952 C   0  0  0  0  0  0  0  0  0  0  0  0
   -3.0767    1.9741    3.6688 H   0  0  0  0  0  0  0  0  0  0  0  0
   -2.8689    1.5458    1.1895 H   0  0  0  0  0  0  0  0  0  0  0  0
   -1.2569    3.9183    2.3049 H   0  0  0  0  0  0  0  0  0  0  0  0
   -1.8965    3.8033    0.6609 H   0  0  0  0  0  0  0  0  0  0  0  0
   -3.0062    3.9023    2.0409 H   0  0  0  0  0  0  0  0  0  0  0  0
   -0.6071    1.3358   -0.0200 N   0  0  0  0  0  0  0  0  0  0  0  0
    0.5702    0.8350   -0.6836 C   0  0  2  0  0  0  0  0  0  0  0  0
    0.1978    0.5947   -2.1423 C   0  0  0  0  0  0  0  0  0  0  0  0
   -0.9456    0.3273   -2.5057 O   0  0  0  0  0  0  0  0  0  0  0  0
    1.0881   -0.4592   -0.0457 C   0  0  0  0  0  0  0  0  0  0  0  0
    1.5516   -0.2636    1.3772 C   0  0  0  0  0  0  0  0  0  0  0  0
    2.7310    0.3502    1.6926 N   0  0  0  0  0  0  0  0  0  0  0  0
    0.9954   -0.6010    2.5885 C   0  0  0  0  0  0  0  0  0  0  0  0
    2.8374    0.3578    3.0556 C   0  0  0  0  0  0  0  0  0  0  0  0
    1.8005   -0.2112    3.6293 N   0  0  0  0  0  0  0  0  0  0  0  0
   -1.3903    1.6325   -0.5973 H   0  0  0  0  0  0  0  0  0  0  0  0
    1.3211    1.6322   -0.6316 H   0  0  0  0  0  0  0  0  0  0  0  0
    1.9065   -0.8784   -0.6466 H   0  0  0  0  0  0  0  0  0  0  0  0
    0.3049   -1.2288   -0.0495 H   0  0  0  0  0  0  0  0  0  0  0  0
    3.4045    0.7292    1.0398 H   0  0  0  0  0  0  0  0  0  0  0  0
    0.0560   -1.1048    2.7667 H   0  0  0  0  0  0  0  0  0  0  0  0
    3.6884    0.7898    3.5627 H   0  0  0  0  0  0  0  0  0  0  0  0
    1.2834    0.7641   -2.9904 N   0  0  0  0  0  0  0  0  0  0  0  0
    1.1994    0.6180   -4.4258 C   0  0  2  0  0  0  0  0  0  0  0  0
    0.5091   -0.7064   -4.7241 C   0  0  0  0  0  0  0  0  0  0  0  0
    0.4721   -1.6388   -3.9238 O   0  0  0  0  0  0  0  0  0  0  0  0
    2.5766    0.6700   -5.0688 C   0  0  0  0  0  0  0  0  0  0  0  0
    2.1821    1.0028   -2.5817 H   0  0  0  0  0  0  0  0  0  0  0  0
    0.5801    1.4439   -4.7921 H   0  0  0  0  0  0  0  0  0  0  0  0
    3.2115   -0.1500   -4.7139 H   0  0  0  0  0  0  0  0  0  0  0  0
    2.5090    0.5878   -6.1586 H   0  0  0  0  0  0  0  0  0  0  0  0
    3.0836    1.6107   -4.8285 H   0  0  0  0  0  0  0  0  0  0  0  0
   -0.0235   -0.7404   -6.0053 N   0  0  0  0  0  0  0  0  0  0  0  0
   -0.7176   -1.8928   -6.5307 C   0  0  0  0  0  0  0  0  0  0  0  0
    0.0372    0.0853   -6.5937 H   0  0  0  0  0  0  0  0  0  0  0  0
   -0.0054   -2.5377   -7.0664 H   0  0  0  0  0  0  0  0  0  0  0  0
   -1.1712   -2.4567   -5.7023 H   0  0  0  0  0  0  0  0  0  0  0  0
   -1.5052   -1.5619   -7.2236 H   0  0  0  0  0  0  0  0  0  0  0  0
 22 24  2  0  0  0  0
 24 26  1  0  0  0  0
 25 26  2  0  0  0  0
 23 25  1  0  0  0  0
 21 22  1  0  0  0  0
 22 23  1  0  0  0  0
  1  3  1  0  0  0  0
  1  7  1  0  0  0  0
  1  2  2  0  0  0  0
 35 36  1  0  0  0  0
 36 44  1  0  0  0  0
 36 37  2  0  0  0  0
  8  9  1  0  0  0  0
  9 17  1  0  0  0  0
  9 10  2  0  0  0  0
 18 19  1  0  0  0  0
 19 34  1  0  0  0  0
 19 20  2  0  0  0  0
 35 38  1  0  0  0  0
  8 11  1  0  0  0  0
 44 45  1  0  0  0  0
 18 21  1  0  0  0  0
 34 35  1  0  0  0  0
  7  8  1  0  0  0  0
 17 18  1  0  0  0  0
 24 32  1  0  0  0  0
 25 33  1  0  0  0  0
  3  4  1  0  0  0  0
  3  5  1  0  0  0  0
  3  6  1  0  0  0  0
 38 41  1  0  0  0  0
 38 42  1  0  0  0  0
 38 43  1  0  0  0  0
 11 14  1  0  0  0  0
 11 15  1  0  0  0  0
 11 16  1  0  0  0  0
 45 47  1  0  0  0  0
 45 48  1  0  0  0  0
 45 49  1  0  0  0  0
 21 29  1  0  0  0  0
 21 30  1  0  0  0  0
 35 40  1  0  0  0  0
  8 13  1  0  0  0  0
 18 28  1  0  0  0  0
 23 31  1  0  0  0  0
 44 46  1  0  0  0  0
  7 12  1  0  0  0  0
 34 39  1  0  0  0  0
 17 27  1  0  0  0  0
M  END
$$$$

  -OEChem-05262214473D

 49 49  0     1  0  0  0  0  0999 V2000
   -1.5619    0.5658    3.7981 C   0  0  0  0  0  0  0  0  0  0  0  0
   -0.6145   -0.0489    3.3224 O   0  0  0  0  0  0  0  0  0  0  0  0
   -1.9938    0.2834    5.1988 C   0  0  0  0  0  0  0  0  0  0  0  0
   -2.7535   -0.5129    5.2522 H   0  0  0  0  0  0  0  0  0  0  0  0
   -1.1626   -0.0642    5.8331 H   0  0  0  0  0  0  0  0  0  0  0  0
   -2.4318    1.1383    5.7384 H   0  0  0  0  0  0  0  0  0  0  0  0
   -2.3116    1.5383    3.1570 N   0  0  0  0  0  0  0  0  0  0  0  0
   -2.0648    1.9643    1.8046 C   0  0  2  0  0  0  0  0  0  0  0  0
   -0.7298    1.3789    1.3634 C   0  0  0  0  0  0  0  0  0  0  0  0
    0.1423    1.0262    2.1547 O   0  0  0  0  0  0  0  0  0  0  0  0
   -2.0560    3.4811    1.6952 C   0  0  0  0  0  0  0  0  0  0  0  0
   -3.0767    1.9741    3.6688 H   0  0  0  0  0  0  0  0  0  0  0  0
   -2.8689    1.5458    1.1895 H   0  0  0  0  0  0  0  0  0  0  0  0
   -1.2569    3.9183    2.3049 H   0  0  0  0  0  0  0  0  0  0  0  0
   -1.8965    3.8033    0.6609 H   0  0  0  0  0  0  0  0  0  0  0  0
   -3.0062    3.9023    2.0409 H   0  0  0  0  0  0  0  0  0  0  0  0
   -0.6071    1.3358   -0.0200 N   0  0  0  0  0  0  0  0  0  0  0  0
    0.5702    0.8350   -0.6836 C   0  0  2  0  0  0  0  0  0  0  0  0
    0.1978    0.5947   -2.1423 C   0  0  0  0  0  0  0  0  0  0  0  0
   -0.9636    0.5930   -2.5449 O   0  0  0  0  0  0  0  0  0  0  0  0
    1.0881   -0.4592   -0.0457 C   0  0  0  0  0  0  0  0  0  0  0  0
    1.5516   -0.2636    1.3772 C   0  0  0  0  0  0  0  0  0  0  0  0
    2.7310    0.3502    1.6926 N   0  0  0  0  0  0  0  0  0  0  0  0
    0.9954   -0.6010    2.5885 C   0  0  0  0  0  0  0  0  0  0  0  0
    2.8374    0.3578    3.0556 C   0  0  0  0  0  0  0  0  0  0  0  0
    1.8005   -0.2112    3.6293 N   0  0  0  0  0  0  0  0  0  0  0  0
   -1.3903    1.6325   -0.5973 H   0  0  0  0  0  0  0  0  0  0  0  0
    1.3211    1.6322   -0.6316 H   0  0  0  0  0  0  0  0  0  0  0  0
    1.9065   -0.8784   -0.6466 H   0  0  0  0  0  0  0  0  0  0  0  0
    0.3049   -1.2288   -0.0495 H   0  0  0  0  0  0  0  0  0  0  0  0
    3.4045    0.7292    1.0398 H   0  0  0  0  0  0  0  0  0  0  0  0
    0.0560   -1.1048    2.7667 H   0  0  0  0  0  0  0  0  0  0  0  0
    3.6884    0.7898    3.5627 H   0  0  0  0  0  0  0  0  0  0  0  0
    1.3186    0.4331   -2.9449 N   0  0  0  0  0  0  0  0  0  0  0  0
    1.2481    0.2143   -4.3718 C   0  0  2  0  0  0  0  0  0  0  0  0
    0.2600   -0.9164   -4.6259 C   0  0  0  0  0  0  0  0  0  0  0  0
   -0.0342   -1.7539   -3.7756 O   0  0  0  0  0  0  0  0  0  0  0  0
    2.6152   -0.1185   -4.9487 C   0  0  0  0  0  0  0  0  0  0  0  0
    2.2345    0.4704   -2.5074 H   0  0  0  0  0  0  0  0  0  0  0  0
    0.8663    1.1404   -4.8152 H   0  0  0  0  0  0  0  0  0  0  0  0
    3.0139   -1.0434   -4.5163 H   0  0  0  0  0  0  0  0  0  0  0  0
    2.5651   -0.2559   -6.0339 H   0  0  0  0  0  0  0  0  0  0  0  0
    3.3323    0.6825   -4.7391 H   0  0  0  0  0  0  0  0  0  0  0  0
   -0.2220   -0.9056   -5.9274 N   0  0  0  0  0  0  0  0  0  0  0  0
   -1.1635   -1.8847   -6.4182 C   0  0  0  0  0  0  0  0  0  0  0  0
    0.0617   -0.1625   -6.5591 H   0  0  0  0  0  0  0  0  0  0  0  0
   -0.6171   -2.7202   -6.8802 H   0  0  0  0  0  0  0  0  0  0  0  0
   -1.7701   -2.2614   -5.5816 H   0  0  0  0  0  0  0  0  0  0  0  0
   -1.8207   -1.4181   -7.1668 H   0  0  0  0  0  0  0  0  0  0  0  0
 22 24  2  0  0  0  0
 24 26  1  0  0  0  0
 25 26  2  0  0  0  0
 23 25  1  0  0  0  0
 21 22  1  0  0  0  0
 22 23  1  0  0  0  0
  1  3  1  0  0  0  0
  1  7  1  0  0  0  0
  1  2  2  0  0  0  0
 35 36  1  0  0  0  0
 36 44  1  0  0  0  0
 36 37  2  0  0  0  0
  8  9  1  0  0  0  0
  9 17  1  0  0  0  0
  9 10  2  0  0  0  0
 18 19  1  0  0  0  0
 19 34  1  0  0  0  0
 19 20  2  0  0  0  0
 35 38  1  0  0  0  0
  8 11  1  0  0  0  0
 44 45  1  0  0  0  0
 18 21  1  0  0  0  0
 34 35  1  0  0  0  0
  7  8  1  0  0  0  0
 17 18  1  0  0  0  0
 24 32  1  0  0  0  0
 25 33  1  0  0  0  0
  3  4  1  0  0  0  0
  3  5  1  0  0  0  0
  3  6  1  0  0  0  0
 38 41  1  0  0  0  0
 38 42  1  0  0  0  0
 38 43  1  0  0  0  0
 11 14  1  0  0  0  0
 11 15  1  0  0  0  0
 11 16  1  0  0  0  0
 45 47  1  0  0  0  0
 45 48  1  0  0  0  0
 45 49  1  0  0  0  0
 21 29  1  0  0  0  0
 21 30  1  0  0  0  0
 35 40  1  0  0  0  0
  8 13  1  0  0  0  0
 18 28  1  0  0  0  0
 23 31  1  0  0  0  0
 44 46  1  0  0  0  0
  7 12  1  0  0  0  0
 34 39  1  0  0  0  0
 17 27  1  0  0  0  0
M  END
$$$$
