default_name
  -OEChem-02102213163D

 32 32  0     1  0  0  0  0  0999 V2000
   -3.8405   -3.7518    1.6252 H   0  0  0  0  0  0  0  0  0  0  0  0
   -3.7965   -2.8768    0.9782 C   0  0  0  0  0  0  0  0  0  0  0  0
   -4.5465   -2.1527    1.2902 H   0  0  0  0  0  0  0  0  0  0  0  0
   -3.9745   -3.1748   -0.0538 H   0  0  0  0  0  0  0  0  0  0  0  0
   -2.4245   -2.2537    1.0882 C   0  0  0  0  0  0  0  0  0  0  0  0
   -1.5805   -2.7478    1.8242 O   0  0  0  0  0  0  0  0  0  0  0  0
   -2.2045   -1.1637    0.3562 N   0  0  0  0  0  0  0  0  0  0  0  0
   -2.9595   -0.7907   -0.2008 H   0  0  0  0  0  0  0  0  0  0  0  0
   -0.9485   -0.4087    0.3482 C   0  0  1  0  0  0  0  0  0  0  0  0
   -0.1408   -1.0795    0.0507 H   0  0  0  0  0  0  0  0  0  0  0  0
   -1.0432    0.7243   -0.6879 C   0  0  0  0  0  0  0  0  0  0  0  0
   -1.2333    0.2915   -1.6712 H   0  0  0  0  0  0  0  0  0  0  0  0
   -1.8943    1.3603   -0.4399 H   0  0  0  0  0  0  0  0  0  0  0  0
    0.2078    1.5768   -0.7835 C   0  0  0  0  0  0  0  0  0  0  0  0
    0.2700    2.6530   -1.6890 C   0  0  0  0  0  0  0  0  0  0  0  0
   -0.5672    2.8644   -2.3391 H   0  0  0  0  0  0  0  0  0  0  0  0
    1.4181    3.4647   -1.7428 C   0  0  0  0  0  0  0  0  0  0  0  0
    1.4648    4.2890   -2.4405 H   0  0  0  0  0  0  0  0  0  0  0  0
    2.5045    3.2033   -0.8907 C   0  0  0  0  0  0  0  0  0  0  0  0
    3.3875    3.8255   -0.9337 H   0  0  0  0  0  0  0  0  0  0  0  0
    2.4462    2.1278    0.0142 C   0  0  0  0  0  0  0  0  0  0  0  0
    3.2834    1.9234    0.6654 H   0  0  0  0  0  0  0  0  0  0  0  0
    1.3000    1.3148    0.0654 C   0  0  0  0  0  0  0  0  0  0  0  0
    1.2577    0.4856    0.7596 H   0  0  0  0  0  0  0  0  0  0  0  0
   -0.6196    0.1253    1.7539 C   0  0  0  0  0  0  0  0  0  0  0  0
    0.5216    0.0194    2.2054 O   0  0  0  0  0  0  0  0  0  0  0  0
   -1.6152    0.6924    2.4469 N   0  0  0  0  0  0  0  0  0  0  0  0
   -2.5345    0.6914    2.0318 H   0  0  0  0  0  0  0  0  0  0  0  0
   -1.4720    1.2390    3.7941 C   0  0  0  0  0  0  0  0  0  0  0  0
   -0.6345    1.9391    3.8219 H   0  0  0  0  0  0  0  0  0  0  0  0
   -2.3844    1.7580    4.0892 H   0  0  0  0  0  0  0  0  0  0  0  0
   -1.2733    0.4298    4.4995 H   0  0  0  0  0  0  0  0  0  0  0  0
  5  6  2  0  0  0  0
  5  7  1  0  0  0  0
  2  3  1  0  0  0  0
  2  4  1  0  0  0  0
  2  5  1  0  0  0  0
  1  2  1  0  0  0  0
 25 26  2  0  0  0  0
 25 27  1  0  0  0  0
 23 24  1  0  0  0  0
 21 22  1  0  0  0  0
 21 23  2  0  0  0  0
 19 20  1  0  0  0  0
 19 21  1  0  0  0  0
 17 18  1  0  0  0  0
 17 19  2  0  0  0  0
 15 16  1  0  0  0  0
 15 17  1  0  0  0  0
 14 15  2  0  0  0  0
 14 23  1  0  0  0  0
 11 12  1  0  0  0  0
 11 13  1  0  0  0  0
 11 14  1  0  0  0  0
  9 10  1  0  0  0  0
  9 11  1  0  0  0  0
  9 25  1  0  0  0  0
  7  8  1  0  0  0  0
  7  9  1  0  0  0  0
 29 30  1  0  0  0  0
 29 31  1  0  0  0  0
 29 32  1  0  0  0  0
 27 28  1  0  0  0  0
 27 29  1  0  0  0  0
M  END
$$$$
default_name
  -OEChem-02102213163D

 32 32  0     1  0  0  0  0  0999 V2000
   -3.8405   -3.7518    1.6252 H   0  0  0  0  0  0  0  0  0  0  0  0
   -3.7965   -2.8768    0.9782 C   0  0  0  0  0  0  0  0  0  0  0  0
   -4.5465   -2.1527    1.2902 H   0  0  0  0  0  0  0  0  0  0  0  0
   -3.9745   -3.1748   -0.0538 H   0  0  0  0  0  0  0  0  0  0  0  0
   -2.4245   -2.2537    1.0882 C   0  0  0  0  0  0  0  0  0  0  0  0
   -1.5805   -2.7478    1.8242 O   0  0  0  0  0  0  0  0  0  0  0  0
   -2.2045   -1.1637    0.3562 N   0  0  0  0  0  0  0  0  0  0  0  0
   -2.9595   -0.7907   -0.2008 H   0  0  0  0  0  0  0  0  0  0  0  0
   -0.9485   -0.4087    0.3482 C   0  0  1  0  0  0  0  0  0  0  0  0
   -0.1408   -1.0795    0.0507 H   0  0  0  0  0  0  0  0  0  0  0  0
   -1.0432    0.7243   -0.6879 C   0  0  0  0  0  0  0  0  0  0  0  0
   -1.2333    0.2915   -1.6712 H   0  0  0  0  0  0  0  0  0  0  0  0
   -1.8943    1.3603   -0.4399 H   0  0  0  0  0  0  0  0  0  0  0  0
    0.2078    1.5768   -0.7835 C   0  0  0  0  0  0  0  0  0  0  0  0
    0.1737    2.8223   -1.4390 C   0  0  0  0  0  0  0  0  0  0  0  0
   -0.7410    3.1687   -1.8989 H   0  0  0  0  0  0  0  0  0  0  0  0
    1.3277    3.6260   -1.4877 C   0  0  0  0  0  0  0  0  0  0  0  0
    1.3001    4.5808   -1.9938 H   0  0  0  0  0  0  0  0  0  0  0  0
    2.5163    3.1872   -0.8801 C   0  0  0  0  0  0  0  0  0  0  0  0
    3.4035    3.8037   -0.9196 H   0  0  0  0  0  0  0  0  0  0  0  0
    2.5541    1.9425   -0.2256 C   0  0  0  0  0  0  0  0  0  0  0  0
    3.4692    1.6027    0.2369 H   0  0  0  0  0  0  0  0  0  0  0  0
    1.4017    1.1381   -0.1799 C   0  0  0  0  0  0  0  0  0  0  0  0
    1.4330    0.1792    0.3210 H   0  0  0  0  0  0  0  0  0  0  0  0
   -0.6196    0.1253    1.7539 C   0  0  0  0  0  0  0  0  0  0  0  0
    0.5216    0.0194    2.2054 O   0  0  0  0  0  0  0  0  0  0  0  0
   -1.6152    0.6924    2.4469 N   0  0  0  0  0  0  0  0  0  0  0  0
   -2.5345    0.6914    2.0318 H   0  0  0  0  0  0  0  0  0  0  0  0
   -1.4720    1.2390    3.7941 C   0  0  0  0  0  0  0  0  0  0  0  0
   -0.6345    1.9391    3.8219 H   0  0  0  0  0  0  0  0  0  0  0  0
   -2.3844    1.7580    4.0892 H   0  0  0  0  0  0  0  0  0  0  0  0
   -1.2733    0.4298    4.4995 H   0  0  0  0  0  0  0  0  0  0  0  0
  5  6  2  0  0  0  0
  5  7  1  0  0  0  0
  2  3  1  0  0  0  0
  2  4  1  0  0  0  0
  2  5  1  0  0  0  0
  1  2  1  0  0  0  0
 25 26  2  0  0  0  0
 25 27  1  0  0  0  0
 23 24  1  0  0  0  0
 21 22  1  0  0  0  0
 21 23  2  0  0  0  0
 19 20  1  0  0  0  0
 19 21  1  0  0  0  0
 17 18  1  0  0  0  0
 17 19  2  0  0  0  0
 15 16  1  0  0  0  0
 15 17  1  0  0  0  0
 14 15  2  0  0  0  0
 14 23  1  0  0  0  0
 11 12  1  0  0  0  0
 11 13  1  0  0  0  0
 11 14  1  0  0  0  0
  9 10  1  0  0  0  0
  9 11  1  0  0  0  0
  9 25  1  0  0  0  0
  7  8  1  0  0  0  0
  7  9  1  0  0  0  0
 29 30  1  0  0  0  0
 29 31  1  0  0  0  0
 29 32  1  0  0  0  0
 27 28  1  0  0  0  0
 27 29  1  0  0  0  0
M  END
$$$$
default_name
  -OEChem-02102213163D

 32 32  0     1  0  0  0  0  0999 V2000
   -3.8405   -3.7518    1.6252 H   0  0  0  0  0  0  0  0  0  0  0  0
   -3.7965   -2.8768    0.9782 C   0  0  0  0  0  0  0  0  0  0  0  0
   -4.5465   -2.1527    1.2902 H   0  0  0  0  0  0  0  0  0  0  0  0
   -3.9745   -3.1748   -0.0538 H   0  0  0  0  0  0  0  0  0  0  0  0
   -2.4245   -2.2537    1.0882 C   0  0  0  0  0  0  0  0  0  0  0  0
   -1.5805   -2.7478    1.8242 O   0  0  0  0  0  0  0  0  0  0  0  0
   -2.2045   -1.1637    0.3562 N   0  0  0  0  0  0  0  0  0  0  0  0
   -2.9595   -0.7907   -0.2008 H   0  0  0  0  0  0  0  0  0  0  0  0
   -0.9485   -0.4087    0.3482 C   0  0  1  0  0  0  0  0  0  0  0  0
   -0.1408   -1.0795    0.0507 H   0  0  0  0  0  0  0  0  0  0  0  0
   -1.0432    0.7243   -0.6879 C   0  0  0  0  0  0  0  0  0  0  0  0
   -1.2333    0.2915   -1.6712 H   0  0  0  0  0  0  0  0  0  0  0  0
   -1.8943    1.3603   -0.4399 H   0  0  0  0  0  0  0  0  0  0  0  0
    0.2078    1.5768   -0.7835 C   0  0  0  0  0  0  0  0  0  0  0  0
    0.1199    2.9340   -1.1474 C   0  0  0  0  0  0  0  0  0  0  0  0
   -0.8398    3.3716   -1.3835 H   0  0  0  0  0  0  0  0  0  0  0  0
    1.2801    3.7288   -1.1938 C   0  0  0  0  0  0  0  0  0  0  0  0
    1.2107    4.7700   -1.4760 H   0  0  0  0  0  0  0  0  0  0  0  0
    2.5290    3.1692   -0.8749 C   0  0  0  0  0  0  0  0  0  0  0  0
    3.4206    3.7793   -0.9129 H   0  0  0  0  0  0  0  0  0  0  0  0
    2.6205    1.8130   -0.5124 C   0  0  0  0  0  0  0  0  0  0  0  0
    3.5811    1.3813   -0.2725 H   0  0  0  0  0  0  0  0  0  0  0  0
    1.4613    1.0181   -0.4693 C   0  0  0  0  0  0  0  0  0  0  0  0
    1.5335   -0.0259   -0.1935 H   0  0  0  0  0  0  0  0  0  0  0  0
   -0.6196    0.1253    1.7539 C   0  0  0  0  0  0  0  0  0  0  0  0
    0.5216    0.0194    2.2054 O   0  0  0  0  0  0  0  0  0  0  0  0
   -1.6152    0.6924    2.4469 N   0  0  0  0  0  0  0  0  0  0  0  0
   -2.5345    0.6914    2.0318 H   0  0  0  0  0  0  0  0  0  0  0  0
   -1.4720    1.2390    3.7941 C   0  0  0  0  0  0  0  0  0  0  0  0
   -0.6345    1.9391    3.8219 H   0  0  0  0  0  0  0  0  0  0  0  0
   -2.3844    1.7580    4.0892 H   0  0  0  0  0  0  0  0  0  0  0  0
   -1.2733    0.4298    4.4995 H   0  0  0  0  0  0  0  0  0  0  0  0
  5  6  2  0  0  0  0
  5  7  1  0  0  0  0
  2  3  1  0  0  0  0
  2  4  1  0  0  0  0
  2  5  1  0  0  0  0
  1  2  1  0  0  0  0
 25 26  2  0  0  0  0
 25 27  1  0  0  0  0
 23 24  1  0  0  0  0
 21 22  1  0  0  0  0
 21 23  2  0  0  0  0
 19 20  1  0  0  0  0
 19 21  1  0  0  0  0
 17 18  1  0  0  0  0
 17 19  2  0  0  0  0
 15 16  1  0  0  0  0
 15 17  1  0  0  0  0
 14 15  2  0  0  0  0
 14 23  1  0  0  0  0
 11 12  1  0  0  0  0
 11 13  1  0  0  0  0
 11 14  1  0  0  0  0
  9 10  1  0  0  0  0
  9 11  1  0  0  0  0
  9 25  1  0  0  0  0
  7  8  1  0  0  0  0
  7  9  1  0  0  0  0
 29 30  1  0  0  0  0
 29 31  1  0  0  0  0
 29 32  1  0  0  0  0
 27 28  1  0  0  0  0
 27 29  1  0  0  0  0
M  END
$$$$
default_name
  -OEChem-02102213163D

 32 32  0     1  0  0  0  0  0999 V2000
   -3.8405   -3.7518    1.6252 H   0  0  0  0  0  0  0  0  0  0  0  0
   -3.7965   -2.8768    0.9782 C   0  0  0  0  0  0  0  0  0  0  0  0
   -4.5465   -2.1527    1.2902 H   0  0  0  0  0  0  0  0  0  0  0  0
   -3.9745   -3.1748   -0.0538 H   0  0  0  0  0  0  0  0  0  0  0  0
   -2.4245   -2.2537    1.0882 C   0  0  0  0  0  0  0  0  0  0  0  0
   -1.5805   -2.7478    1.8242 O   0  0  0  0  0  0  0  0  0  0  0  0
   -2.2045   -1.1637    0.3562 N   0  0  0  0  0  0  0  0  0  0  0  0
   -2.9595   -0.7907   -0.2008 H   0  0  0  0  0  0  0  0  0  0  0  0
   -0.9485   -0.4087    0.3482 C   0  0  1  0  0  0  0  0  0  0  0  0
   -0.1408   -1.0795    0.0507 H   0  0  0  0  0  0  0  0  0  0  0  0
   -1.0432    0.7243   -0.6879 C   0  0  0  0  0  0  0  0  0  0  0  0
   -1.2333    0.2915   -1.6712 H   0  0  0  0  0  0  0  0  0  0  0  0
   -1.8943    1.3603   -0.4399 H   0  0  0  0  0  0  0  0  0  0  0  0
    0.2078    1.5768   -0.7835 C   0  0  0  0  0  0  0  0  0  0  0  0
    0.1122    2.9805   -0.8341 C   0  0  0  0  0  0  0  0  0  0  0  0
   -0.8570    3.4591   -0.8280 H   0  0  0  0  0  0  0  0  0  0  0  0
    1.2785    3.7662   -0.8810 C   0  0  0  0  0  0  0  0  0  0  0  0
    1.2028    4.8437   -0.9224 H   0  0  0  0  0  0  0  0  0  0  0  0
    2.5417    3.1505   -0.8756 C   0  0  0  0  0  0  0  0  0  0  0  0
    3.4377    3.7541   -0.9141 H   0  0  0  0  0  0  0  0  0  0  0  0
    2.6407    1.7481   -0.8267 C   0  0  0  0  0  0  0  0  0  0  0  0
    3.6115    1.2745   -0.8280 H   0  0  0  0  0  0  0  0  0  0  0  0
    1.4749    0.9630   -0.7831 C   0  0  0  0  0  0  0  0  0  0  0  0
    1.5524   -0.1159   -0.7489 H   0  0  0  0  0  0  0  0  0  0  0  0
   -0.6196    0.1253    1.7539 C   0  0  0  0  0  0  0  0  0  0  0  0
    0.5216    0.0194    2.2054 O   0  0  0  0  0  0  0  0  0  0  0  0
   -1.6152    0.6924    2.4469 N   0  0  0  0  0  0  0  0  0  0  0  0
   -2.5345    0.6914    2.0318 H   0  0  0  0  0  0  0  0  0  0  0  0
   -1.4720    1.2390    3.7941 C   0  0  0  0  0  0  0  0  0  0  0  0
   -0.6345    1.9391    3.8219 H   0  0  0  0  0  0  0  0  0  0  0  0
   -2.3844    1.7580    4.0892 H   0  0  0  0  0  0  0  0  0  0  0  0
   -1.2733    0.4298    4.4995 H   0  0  0  0  0  0  0  0  0  0  0  0
  5  6  2  0  0  0  0
  5  7  1  0  0  0  0
  2  3  1  0  0  0  0
  2  4  1  0  0  0  0
  2  5  1  0  0  0  0
  1  2  1  0  0  0  0
 25 26  2  0  0  0  0
 25 27  1  0  0  0  0
 23 24  1  0  0  0  0
 21 22  1  0  0  0  0
 21 23  2  0  0  0  0
 19 20  1  0  0  0  0
 19 21  1  0  0  0  0
 17 18  1  0  0  0  0
 17 19  2  0  0  0  0
 15 16  1  0  0  0  0
 15 17  1  0  0  0  0
 14 15  2  0  0  0  0
 14 23  1  0  0  0  0
 11 12  1  0  0  0  0
 11 13  1  0  0  0  0
 11 14  1  0  0  0  0
  9 10  1  0  0  0  0
  9 11  1  0  0  0  0
  9 25  1  0  0  0  0
  7  8  1  0  0  0  0
  7  9  1  0  0  0  0
 29 30  1  0  0  0  0
 29 31  1  0  0  0  0
 29 32  1  0  0  0  0
 27 28  1  0  0  0  0
 27 29  1  0  0  0  0
M  END
$$$$
default_name
  -OEChem-02102213163D

 32 32  0     1  0  0  0  0  0999 V2000
   -3.8405   -3.7518    1.6252 H   0  0  0  0  0  0  0  0  0  0  0  0
   -3.7965   -2.8768    0.9782 C   0  0  0  0  0  0  0  0  0  0  0  0
   -4.5465   -2.1527    1.2902 H   0  0  0  0  0  0  0  0  0  0  0  0
   -3.9745   -3.1748   -0.0538 H   0  0  0  0  0  0  0  0  0  0  0  0
   -2.4245   -2.2537    1.0882 C   0  0  0  0  0  0  0  0  0  0  0  0
   -1.5805   -2.7478    1.8242 O   0  0  0  0  0  0  0  0  0  0  0  0
   -2.2045   -1.1637    0.3562 N   0  0  0  0  0  0  0  0  0  0  0  0
   -2.9595   -0.7907   -0.2008 H   0  0  0  0  0  0  0  0  0  0  0  0
   -0.9485   -0.4087    0.3482 C   0  0  1  0  0  0  0  0  0  0  0  0
   -0.1408   -1.0795    0.0507 H   0  0  0  0  0  0  0  0  0  0  0  0
   -1.0432    0.7243   -0.6879 C   0  0  0  0  0  0  0  0  0  0  0  0
   -1.2333    0.2915   -1.6712 H   0  0  0  0  0  0  0  0  0  0  0  0
   -1.8943    1.3603   -0.4399 H   0  0  0  0  0  0  0  0  0  0  0  0
    0.2078    1.5768   -0.7835 C   0  0  0  0  0  0  0  0  0  0  0  0
    0.1510    2.9587   -0.5204 C   0  0  0  0  0  0  0  0  0  0  0  0
   -0.7913    3.4253   -0.2702 H   0  0  0  0  0  0  0  0  0  0  0  0
    1.3231    3.7355   -0.5707 C   0  0  0  0  0  0  0  0  0  0  0  0
    1.2769    4.7968   -0.3709 H   0  0  0  0  0  0  0  0  0  0  0  0
    2.5535    3.1324   -0.8822 C   0  0  0  0  0  0  0  0  0  0  0  0
    3.4536    3.7297   -0.9231 H   0  0  0  0  0  0  0  0  0  0  0  0
    2.6135    1.7521   -1.1471 C   0  0  0  0  0  0  0  0  0  0  0  0
    3.5583    1.2893   -1.3919 H   0  0  0  0  0  0  0  0  0  0  0  0
    1.4414    0.9766   -1.1000 C   0  0  0  0  0  0  0  0  0  0  0  0
    1.4883   -0.0846   -1.3073 H   0  0  0  0  0  0  0  0  0  0  0  0
   -0.6196    0.1253    1.7539 C   0  0  0  0  0  0  0  0  0  0  0  0
    0.5216    0.0194    2.2054 O   0  0  0  0  0  0  0  0  0  0  0  0
   -1.6152    0.6924    2.4469 N   0  0  0  0  0  0  0  0  0  0  0  0
   -2.5345    0.6914    2.0318 H   0  0  0  0  0  0  0  0  0  0  0  0
   -1.4720    1.2390    3.7941 C   0  0  0  0  0  0  0  0  0  0  0  0
   -0.6345    1.9391    3.8219 H   0  0  0  0  0  0  0  0  0  0  0  0
   -2.3844    1.7580    4.0892 H   0  0  0  0  0  0  0  0  0  0  0  0
   -1.2733    0.4298    4.4995 H   0  0  0  0  0  0  0  0  0  0  0  0
  5  6  2  0  0  0  0
  5  7  1  0  0  0  0
  2  3  1  0  0  0  0
  2  4  1  0  0  0  0
  2  5  1  0  0  0  0
  1  2  1  0  0  0  0
 25 26  2  0  0  0  0
 25 27  1  0  0  0  0
 23 24  1  0  0  0  0
 21 22  1  0  0  0  0
 21 23  2  0  0  0  0
 19 20  1  0  0  0  0
 19 21  1  0  0  0  0
 17 18  1  0  0  0  0
 17 19  2  0  0  0  0
 15 16  1  0  0  0  0
 15 17  1  0  0  0  0
 14 15  2  0  0  0  0
 14 23  1  0  0  0  0
 11 12  1  0  0  0  0
 11 13  1  0  0  0  0
 11 14  1  0  0  0  0
  9 10  1  0  0  0  0
  9 11  1  0  0  0  0
  9 25  1  0  0  0  0
  7  8  1  0  0  0  0
  7  9  1  0  0  0  0
 29 30  1  0  0  0  0
 29 31  1  0  0  0  0
 29 32  1  0  0  0  0
 27 28  1  0  0  0  0
 27 29  1  0  0  0  0
M  END
$$$$
default_name
  -OEChem-02102213163D

 32 32  0     1  0  0  0  0  0999 V2000
   -3.8405   -3.7518    1.6252 H   0  0  0  0  0  0  0  0  0  0  0  0
   -3.7965   -2.8768    0.9782 C   0  0  0  0  0  0  0  0  0  0  0  0
   -4.5465   -2.1527    1.2902 H   0  0  0  0  0  0  0  0  0  0  0  0
   -3.9745   -3.1748   -0.0538 H   0  0  0  0  0  0  0  0  0  0  0  0
   -2.4245   -2.2537    1.0882 C   0  0  0  0  0  0  0  0  0  0  0  0
   -1.5805   -2.7478    1.8242 O   0  0  0  0  0  0  0  0  0  0  0  0
   -2.2045   -1.1637    0.3562 N   0  0  0  0  0  0  0  0  0  0  0  0
   -2.9595   -0.7907   -0.2008 H   0  0  0  0  0  0  0  0  0  0  0  0
   -0.9485   -0.4087    0.3482 C   0  0  1  0  0  0  0  0  0  0  0  0
   -0.1408   -1.0795    0.0507 H   0  0  0  0  0  0  0  0  0  0  0  0
   -1.0432    0.7243   -0.6879 C   0  0  0  0  0  0  0  0  0  0  0  0
   -1.2333    0.2915   -1.6712 H   0  0  0  0  0  0  0  0  0  0  0  0
   -1.8943    1.3603   -0.4399 H   0  0  0  0  0  0  0  0  0  0  0  0
    0.2078    1.5768   -0.7835 C   0  0  0  0  0  0  0  0  0  0  0  0
    0.2338    2.8700   -0.2277 C   0  0  0  0  0  0  0  0  0  0  0  0
   -0.6473    3.2725    0.2518 H   0  0  0  0  0  0  0  0  0  0  0  0
    1.4109    3.6389   -0.2840 C   0  0  0  0  0  0  0  0  0  0  0  0
    1.4279    4.6326    0.1411 H   0  0  0  0  0  0  0  0  0  0  0  0
    2.5637    3.1161   -0.8941 C   0  0  0  0  0  0  0  0  0  0  0  0
    3.4673    3.7078   -0.9394 H   0  0  0  0  0  0  0  0  0  0  0  0
    2.5406    1.8248   -1.4518 C   0  0  0  0  0  0  0  0  0  0  0  0
    3.4251    1.4248   -1.9256 H   0  0  0  0  0  0  0  0  0  0  0  0
    1.3632    1.0579   -1.3983 C   0  0  0  0  0  0  0  0  0  0  0  0
    1.3458    0.0659   -1.8307 H   0  0  0  0  0  0  0  0  0  0  0  0
   -0.6196    0.1253    1.7539 C   0  0  0  0  0  0  0  0  0  0  0  0
    0.5216    0.0194    2.2054 O   0  0  0  0  0  0  0  0  0  0  0  0
   -1.6152    0.6924    2.4469 N   0  0  0  0  0  0  0  0  0  0  0  0
   -2.5345    0.6914    2.0318 H   0  0  0  0  0  0  0  0  0  0  0  0
   -1.4720    1.2390    3.7941 C   0  0  0  0  0  0  0  0  0  0  0  0
   -0.6345    1.9391    3.8219 H   0  0  0  0  0  0  0  0  0  0  0  0
   -2.3844    1.7580    4.0892 H   0  0  0  0  0  0  0  0  0  0  0  0
   -1.2733    0.4298    4.4995 H   0  0  0  0  0  0  0  0  0  0  0  0
  5  6  2  0  0  0  0
  5  7  1  0  0  0  0
  2  3  1  0  0  0  0
  2  4  1  0  0  0  0
  2  5  1  0  0  0  0
  1  2  1  0  0  0  0
 25 26  2  0  0  0  0
 25 27  1  0  0  0  0
 23 24  1  0  0  0  0
 21 22  1  0  0  0  0
 21 23  2  0  0  0  0
 19 20  1  0  0  0  0
 19 21  1  0  0  0  0
 17 18  1  0  0  0  0
 17 19  2  0  0  0  0
 15 16  1  0  0  0  0
 15 17  1  0  0  0  0
 14 15  2  0  0  0  0
 14 23  1  0  0  0  0
 11 12  1  0  0  0  0
 11 13  1  0  0  0  0
 11 14  1  0  0  0  0
  9 10  1  0  0  0  0
  9 11  1  0  0  0  0
  9 25  1  0  0  0  0
  7  8  1  0  0  0  0
  7  9  1  0  0  0  0
 29 30  1  0  0  0  0
 29 31  1  0  0  0  0
 29 32  1  0  0  0  0
 27 28  1  0  0  0  0
 27 29  1  0  0  0  0
M  END
$$$$
default_name
  -OEChem-02102213163D

 32 32  0     1  0  0  0  0  0999 V2000
   -3.8405   -3.7518    1.6252 H   0  0  0  0  0  0  0  0  0  0  0  0
   -3.7965   -2.8768    0.9782 C   0  0  0  0  0  0  0  0  0  0  0  0
   -4.5465   -2.1527    1.2902 H   0  0  0  0  0  0  0  0  0  0  0  0
   -3.9745   -3.1748   -0.0538 H   0  0  0  0  0  0  0  0  0  0  0  0
   -2.4245   -2.2537    1.0882 C   0  0  0  0  0  0  0  0  0  0  0  0
   -1.5805   -2.7478    1.8242 O   0  0  0  0  0  0  0  0  0  0  0  0
   -2.2045   -1.1637    0.3562 N   0  0  0  0  0  0  0  0  0  0  0  0
   -2.9595   -0.7907   -0.2008 H   0  0  0  0  0  0  0  0  0  0  0  0
   -0.9485   -0.4087    0.3482 C   0  0  1  0  0  0  0  0  0  0  0  0
   -0.1408   -1.0795    0.0507 H   0  0  0  0  0  0  0  0  0  0  0  0
   -1.0432    0.7243   -0.6879 C   0  0  0  0  0  0  0  0  0  0  0  0
   -1.2333    0.2915   -1.6712 H   0  0  0  0  0  0  0  0  0  0  0  0
   -1.8943    1.3603   -0.4399 H   0  0  0  0  0  0  0  0  0  0  0  0
    0.2078    1.5768   -0.7835 C   0  0  0  0  0  0  0  0  0  0  0  0
    0.3549    2.7205    0.0241 C   0  0  0  0  0  0  0  0  0  0  0  0
   -0.4348    3.0112    0.7024 H   0  0  0  0  0  0  0  0  0  0  0  0
    1.5357    3.4830   -0.0405 C   0  0  0  0  0  0  0  0  0  0  0  0
    1.6456    4.3623    0.5787 H   0  0  0  0  0  0  0  0  0  0  0  0
    2.5716    3.1027   -0.9105 C   0  0  0  0  0  0  0  0  0  0  0  0
    3.4778    3.6898   -0.9618 H   0  0  0  0  0  0  0  0  0  0  0  0
    2.4271    1.9612   -1.7200 C   0  0  0  0  0  0  0  0  0  0  0  0
    3.2211    1.6719   -2.3928 H   0  0  0  0  0  0  0  0  0  0  0  0
    1.2456    1.2013   -1.6577 C   0  0  0  0  0  0  0  0  0  0  0  0
    1.1344    0.3253   -2.2834 H   0  0  0  0  0  0  0  0  0  0  0  0
   -0.6196    0.1253    1.7539 C   0  0  0  0  0  0  0  0  0  0  0  0
    0.5216    0.0194    2.2054 O   0  0  0  0  0  0  0  0  0  0  0  0
   -1.6152    0.6924    2.4469 N   0  0  0  0  0  0  0  0  0  0  0  0
   -2.5345    0.6914    2.0318 H   0  0  0  0  0  0  0  0  0  0  0  0
   -1.4720    1.2390    3.7941 C   0  0  0  0  0  0  0  0  0  0  0  0
   -0.6345    1.9391    3.8219 H   0  0  0  0  0  0  0  0  0  0  0  0
   -2.3844    1.7580    4.0892 H   0  0  0  0  0  0  0  0  0  0  0  0
   -1.2733    0.4298    4.4995 H   0  0  0  0  0  0  0  0  0  0  0  0
  5  6  2  0  0  0  0
  5  7  1  0  0  0  0
  2  3  1  0  0  0  0
  2  4  1  0  0  0  0
  2  5  1  0  0  0  0
  1  2  1  0  0  0  0
 25 26  2  0  0  0  0
 25 27  1  0  0  0  0
 23 24  1  0  0  0  0
 21 22  1  0  0  0  0
 21 23  2  0  0  0  0
 19 20  1  0  0  0  0
 19 21  1  0  0  0  0
 17 18  1  0  0  0  0
 17 19  2  0  0  0  0
 15 16  1  0  0  0  0
 15 17  1  0  0  0  0
 14 15  2  0  0  0  0
 14 23  1  0  0  0  0
 11 12  1  0  0  0  0
 11 13  1  0  0  0  0
 11 14  1  0  0  0  0
  9 10  1  0  0  0  0
  9 11  1  0  0  0  0
  9 25  1  0  0  0  0
  7  8  1  0  0  0  0
  7  9  1  0  0  0  0
 29 30  1  0  0  0  0
 29 31  1  0  0  0  0
 29 32  1  0  0  0  0
 27 28  1  0  0  0  0
 27 29  1  0  0  0  0
M  END
$$$$
default_name
  -OEChem-02102213163D

 32 32  0     1  0  0  0  0  0999 V2000
   -3.8405   -3.7518    1.6252 H   0  0  0  0  0  0  0  0  0  0  0  0
   -3.7965   -2.8768    0.9782 C   0  0  0  0  0  0  0  0  0  0  0  0
   -4.5465   -2.1527    1.2902 H   0  0  0  0  0  0  0  0  0  0  0  0
   -3.9745   -3.1748   -0.0538 H   0  0  0  0  0  0  0  0  0  0  0  0
   -2.4245   -2.2537    1.0882 C   0  0  0  0  0  0  0  0  0  0  0  0
   -1.5805   -2.7478    1.8242 O   0  0  0  0  0  0  0  0  0  0  0  0
   -2.2045   -1.1637    0.3562 N   0  0  0  0  0  0  0  0  0  0  0  0
   -2.9595   -0.7907   -0.2008 H   0  0  0  0  0  0  0  0  0  0  0  0
   -0.9485   -0.4087    0.3482 C   0  0  1  0  0  0  0  0  0  0  0  0
   -0.1408   -1.0795    0.0507 H   0  0  0  0  0  0  0  0  0  0  0  0
   -1.0432    0.7243   -0.6879 C   0  0  0  0  0  0  0  0  0  0  0  0
   -1.2333    0.2915   -1.6712 H   0  0  0  0  0  0  0  0  0  0  0  0
   -1.8943    1.3603   -0.4399 H   0  0  0  0  0  0  0  0  0  0  0  0
    0.2078    1.5768   -0.7835 C   0  0  0  0  0  0  0  0  0  0  0  0
    0.5061    2.5204    0.2177 C   0  0  0  0  0  0  0  0  0  0  0  0
   -0.1682    2.6591    1.0510 H   0  0  0  0  0  0  0  0  0  0  0  0
    1.6892    3.2784    0.1433 C   0  0  0  0  0  0  0  0  0  0  0  0
    1.9151    4.0042    0.9119 H   0  0  0  0  0  0  0  0  0  0  0  0
    2.5766    3.0931   -0.9304 C   0  0  0  0  0  0  0  0  0  0  0  0
    3.4844    3.6772   -0.9888 H   0  0  0  0  0  0  0  0  0  0  0  0
    2.2807    2.1521   -1.9334 C   0  0  0  0  0  0  0  0  0  0  0  0
    2.9600    2.0135   -2.7617 H   0  0  0  0  0  0  0  0  0  0  0  0
    1.0966    1.3972   -1.8605 C   0  0  0  0  0  0  0  0  0  0  0  0
    0.8686    0.6760   -2.6346 H   0  0  0  0  0  0  0  0  0  0  0  0
   -0.6196    0.1253    1.7539 C   0  0  0  0  0  0  0  0  0  0  0  0
    0.5216    0.0194    2.2054 O   0  0  0  0  0  0  0  0  0  0  0  0
   -1.6152    0.6924    2.4469 N   0  0  0  0  0  0  0  0  0  0  0  0
   -2.5345    0.6914    2.0318 H   0  0  0  0  0  0  0  0  0  0  0  0
   -1.4720    1.2390    3.7941 C   0  0  0  0  0  0  0  0  0  0  0  0
   -0.6345    1.9391    3.8219 H   0  0  0  0  0  0  0  0  0  0  0  0
   -2.3844    1.7580    4.0892 H   0  0  0  0  0  0  0  0  0  0  0  0
   -1.2733    0.4298    4.4995 H   0  0  0  0  0  0  0  0  0  0  0  0
  5  6  2  0  0  0  0
  5  7  1  0  0  0  0
  2  3  1  0  0  0  0
  2  4  1  0  0  0  0
  2  5  1  0  0  0  0
  1  2  1  0  0  0  0
 25 26  2  0  0  0  0
 25 27  1  0  0  0  0
 23 24  1  0  0  0  0
 21 22  1  0  0  0  0
 21 23  2  0  0  0  0
 19 20  1  0  0  0  0
 19 21  1  0  0  0  0
 17 18  1  0  0  0  0
 17 19  2  0  0  0  0
 15 16  1  0  0  0  0
 15 17  1  0  0  0  0
 14 15  2  0  0  0  0
 14 23  1  0  0  0  0
 11 12  1  0  0  0  0
 11 13  1  0  0  0  0
 11 14  1  0  0  0  0
  9 10  1  0  0  0  0
  9 11  1  0  0  0  0
  9 25  1  0  0  0  0
  7  8  1  0  0  0  0
  7  9  1  0  0  0  0
 29 30  1  0  0  0  0
 29 31  1  0  0  0  0
 29 32  1  0  0  0  0
 27 28  1  0  0  0  0
 27 29  1  0  0  0  0
M  END
$$$$
default_name
  -OEChem-02102213163D

 32 32  0     1  0  0  0  0  0999 V2000
   -3.8405   -3.7518    1.6252 H   0  0  0  0  0  0  0  0  0  0  0  0
   -3.7965   -2.8768    0.9782 C   0  0  0  0  0  0  0  0  0  0  0  0
   -4.5465   -2.1527    1.2902 H   0  0  0  0  0  0  0  0  0  0  0  0
   -3.9745   -3.1748   -0.0538 H   0  0  0  0  0  0  0  0  0  0  0  0
   -2.4245   -2.2537    1.0882 C   0  0  0  0  0  0  0  0  0  0  0  0
   -1.5805   -2.7478    1.8242 O   0  0  0  0  0  0  0  0  0  0  0  0
   -2.2045   -1.1637    0.3562 N   0  0  0  0  0  0  0  0  0  0  0  0
   -2.9595   -0.7907   -0.2008 H   0  0  0  0  0  0  0  0  0  0  0  0
   -0.9485   -0.4087    0.3482 C   0  0  1  0  0  0  0  0  0  0  0  0
   -0.1408   -1.0795    0.0507 H   0  0  0  0  0  0  0  0  0  0  0  0
   -1.0432    0.7243   -0.6879 C   0  0  0  0  0  0  0  0  0  0  0  0
   -1.2333    0.2915   -1.6712 H   0  0  0  0  0  0  0  0  0  0  0  0
   -1.8943    1.3603   -0.4399 H   0  0  0  0  0  0  0  0  0  0  0  0
    0.2078    1.5768   -0.7835 C   0  0  0  0  0  0  0  0  0  0  0  0
    0.6770    2.2833    0.3401 C   0  0  0  0  0  0  0  0  0  0  0  0
    0.1342    2.2403    1.2738 H   0  0  0  0  0  0  0  0  0  0  0  0
    1.8609    3.0390    0.2549 C   0  0  0  0  0  0  0  0  0  0  0  0
    2.2181    3.5828    1.1182 H   0  0  0  0  0  0  0  0  0  0  0  0
    2.5783    3.0881   -0.9524 C   0  0  0  0  0  0  0  0  0  0  0  0
    3.4866    3.6706   -1.0185 H   0  0  0  0  0  0  0  0  0  0  0  0
    2.1114    2.3845   -2.0775 C   0  0  0  0  0  0  0  0  0  0  0  0
    2.6598    2.4265   -3.0071 H   0  0  0  0  0  0  0  0  0  0  0  0
    0.9264    1.6321   -1.9930 C   0  0  0  0  0  0  0  0  0  0  0  0
    0.5665    1.0939   -2.8603 H   0  0  0  0  0  0  0  0  0  0  0  0
   -0.6196    0.1253    1.7539 C   0  0  0  0  0  0  0  0  0  0  0  0
    0.5216    0.0194    2.2054 O   0  0  0  0  0  0  0  0  0  0  0  0
   -1.6152    0.6924    2.4469 N   0  0  0  0  0  0  0  0  0  0  0  0
   -2.5345    0.6914    2.0318 H   0  0  0  0  0  0  0  0  0  0  0  0
   -1.4720    1.2390    3.7941 C   0  0  0  0  0  0  0  0  0  0  0  0
   -0.6345    1.9391    3.8219 H   0  0  0  0  0  0  0  0  0  0  0  0
   -2.3844    1.7580    4.0892 H   0  0  0  0  0  0  0  0  0  0  0  0
   -1.2733    0.4298    4.4995 H   0  0  0  0  0  0  0  0  0  0  0  0
  5  6  2  0  0  0  0
  5  7  1  0  0  0  0
  2  3  1  0  0  0  0
  2  4  1  0  0  0  0
  2  5  1  0  0  0  0
  1  2  1  0  0  0  0
 25 26  2  0  0  0  0
 25 27  1  0  0  0  0
 23 24  1  0  0  0  0
 21 22  1  0  0  0  0
 21 23  2  0  0  0  0
 19 20  1  0  0  0  0
 19 21  1  0  0  0  0
 17 18  1  0  0  0  0
 17 19  2  0  0  0  0
 15 16  1  0  0  0  0
 15 17  1  0  0  0  0
 14 15  2  0  0  0  0
 14 23  1  0  0  0  0
 11 12  1  0  0  0  0
 11 13  1  0  0  0  0
 11 14  1  0  0  0  0
  9 10  1  0  0  0  0
  9 11  1  0  0  0  0
  9 25  1  0  0  0  0
  7  8  1  0  0  0  0
  7  9  1  0  0  0  0
 29 30  1  0  0  0  0
 29 31  1  0  0  0  0
 29 32  1  0  0  0  0
 27 28  1  0  0  0  0
 27 29  1  0  0  0  0
M  END
$$$$
default_name
  -OEChem-02102213163D

 32 32  0     1  0  0  0  0  0999 V2000
   -3.8405   -3.7518    1.6252 H   0  0  0  0  0  0  0  0  0  0  0  0
   -3.7965   -2.8768    0.9782 C   0  0  0  0  0  0  0  0  0  0  0  0
   -4.5465   -2.1527    1.2902 H   0  0  0  0  0  0  0  0  0  0  0  0
   -3.9745   -3.1748   -0.0538 H   0  0  0  0  0  0  0  0  0  0  0  0
   -2.4245   -2.2537    1.0882 C   0  0  0  0  0  0  0  0  0  0  0  0
   -1.5805   -2.7478    1.8242 O   0  0  0  0  0  0  0  0  0  0  0  0
   -2.2045   -1.1637    0.3562 N   0  0  0  0  0  0  0  0  0  0  0  0
   -2.9595   -0.7907   -0.2008 H   0  0  0  0  0  0  0  0  0  0  0  0
   -0.9485   -0.4087    0.3482 C   0  0  1  0  0  0  0  0  0  0  0  0
   -0.1408   -1.0795    0.0507 H   0  0  0  0  0  0  0  0  0  0  0  0
   -1.0432    0.7243   -0.6879 C   0  0  0  0  0  0  0  0  0  0  0  0
   -1.2333    0.2915   -1.6712 H   0  0  0  0  0  0  0  0  0  0  0  0
   -1.8943    1.3603   -0.4399 H   0  0  0  0  0  0  0  0  0  0  0  0
    0.2078    1.5768   -0.7835 C   0  0  0  0  0  0  0  0  0  0  0  0
    0.8560    2.0254    0.3828 C   0  0  0  0  0  0  0  0  0  0  0  0
    0.4520    1.7832    1.3556 H   0  0  0  0  0  0  0  0  0  0  0  0
    2.0391    2.7811    0.2866 C   0  0  0  0  0  0  0  0  0  0  0  0
    2.5338    3.1268    1.1834 H   0  0  0  0  0  0  0  0  0  0  0  0
    2.5767    3.0879   -0.9750 C   0  0  0  0  0  0  0  0  0  0  0  0
    3.4843    3.6705   -1.0489 H   0  0  0  0  0  0  0  0  0  0  0  0
    1.9306    2.6424   -2.1425 C   0  0  0  0  0  0  0  0  0  0  0  0
    2.3408    2.8828   -3.1124 H   0  0  0  0  0  0  0  0  0  0  0  0
    0.7466    1.8900   -2.0461 C   0  0  0  0  0  0  0  0  0  0  0  0
    0.2486    1.5508   -2.9451 H   0  0  0  0  0  0  0  0  0  0  0  0
   -0.6196    0.1253    1.7539 C   0  0  0  0  0  0  0  0  0  0  0  0
    0.5216    0.0194    2.2054 O   0  0  0  0  0  0  0  0  0  0  0  0
   -1.6152    0.6924    2.4469 N   0  0  0  0  0  0  0  0  0  0  0  0
   -2.5345    0.6914    2.0318 H   0  0  0  0  0  0  0  0  0  0  0  0
   -1.4720    1.2390    3.7941 C   0  0  0  0  0  0  0  0  0  0  0  0
   -0.6345    1.9391    3.8219 H   0  0  0  0  0  0  0  0  0  0  0  0
   -2.3844    1.7580    4.0892 H   0  0  0  0  0  0  0  0  0  0  0  0
   -1.2733    0.4298    4.4995 H   0  0  0  0  0  0  0  0  0  0  0  0
  5  6  2  0  0  0  0
  5  7  1  0  0  0  0
  2  3  1  0  0  0  0
  2  4  1  0  0  0  0
  2  5  1  0  0  0  0
  1  2  1  0  0  0  0
 25 26  2  0  0  0  0
 25 27  1  0  0  0  0
 23 24  1  0  0  0  0
 21 22  1  0  0  0  0
 21 23  2  0  0  0  0
 19 20  1  0  0  0  0
 19 21  1  0  0  0  0
 17 18  1  0  0  0  0
 17 19  2  0  0  0  0
 15 16  1  0  0  0  0
 15 17  1  0  0  0  0
 14 15  2  0  0  0  0
 14 23  1  0  0  0  0
 11 12  1  0  0  0  0
 11 13  1  0  0  0  0
 11 14  1  0  0  0  0
  9 10  1  0  0  0  0
  9 11  1  0  0  0  0
  9 25  1  0  0  0  0
  7  8  1  0  0  0  0
  7  9  1  0  0  0  0
 29 30  1  0  0  0  0
 29 31  1  0  0  0  0
 29 32  1  0  0  0  0
 27 28  1  0  0  0  0
 27 29  1  0  0  0  0
M  END
$$$$
default_name
  -OEChem-02102213163D

 32 32  0     1  0  0  0  0  0999 V2000
   -3.8405   -3.7518    1.6252 H   0  0  0  0  0  0  0  0  0  0  0  0
   -3.7965   -2.8768    0.9782 C   0  0  0  0  0  0  0  0  0  0  0  0
   -4.5465   -2.1527    1.2902 H   0  0  0  0  0  0  0  0  0  0  0  0
   -3.9745   -3.1748   -0.0538 H   0  0  0  0  0  0  0  0  0  0  0  0
   -2.4245   -2.2537    1.0882 C   0  0  0  0  0  0  0  0  0  0  0  0
   -1.5805   -2.7478    1.8242 O   0  0  0  0  0  0  0  0  0  0  0  0
   -2.2045   -1.1637    0.3562 N   0  0  0  0  0  0  0  0  0  0  0  0
   -2.9595   -0.7907   -0.2008 H   0  0  0  0  0  0  0  0  0  0  0  0
   -0.9485   -0.4087    0.3482 C   0  0  1  0  0  0  0  0  0  0  0  0
   -0.1408   -1.0795    0.0507 H   0  0  0  0  0  0  0  0  0  0  0  0
   -1.0432    0.7243   -0.6879 C   0  0  0  0  0  0  0  0  0  0  0  0
   -1.2333    0.2915   -1.6712 H   0  0  0  0  0  0  0  0  0  0  0  0
   -1.8943    1.3603   -0.4399 H   0  0  0  0  0  0  0  0  0  0  0  0
    0.2078    1.5768   -0.7835 C   0  0  0  0  0  0  0  0  0  0  0  0
    1.0310    1.7643    0.3430 C   0  0  0  0  0  0  0  0  0  0  0  0
    0.7633    1.3191    1.2909 H   0  0  0  0  0  0  0  0  0  0  0  0
    2.2115    2.5224    0.2362 C   0  0  0  0  0  0  0  0  0  0  0  0
    2.8409    2.6672    1.1031 H   0  0  0  0  0  0  0  0  0  0  0  0
    2.5719    3.0925   -0.9966 C   0  0  0  0  0  0  0  0  0  0  0  0
    3.4777    3.6769   -1.0780 H   0  0  0  0  0  0  0  0  0  0  0  0
    1.7508    2.9084   -2.1239 C   0  0  0  0  0  0  0  0  0  0  0  0
    2.0248    3.3511   -3.0702 H   0  0  0  0  0  0  0  0  0  0  0  0
    0.5693    2.1535   -2.0161 C   0  0  0  0  0  0  0  0  0  0  0  0
   -0.0633    2.0154   -2.8833 H   0  0  0  0  0  0  0  0  0  0  0  0
   -0.6196    0.1253    1.7539 C   0  0  0  0  0  0  0  0  0  0  0  0
    0.5216    0.0194    2.2054 O   0  0  0  0  0  0  0  0  0  0  0  0
   -1.6152    0.6924    2.4469 N   0  0  0  0  0  0  0  0  0  0  0  0
   -2.5345    0.6914    2.0318 H   0  0  0  0  0  0  0  0  0  0  0  0
   -1.4720    1.2390    3.7941 C   0  0  0  0  0  0  0  0  0  0  0  0
   -0.6345    1.9391    3.8219 H   0  0  0  0  0  0  0  0  0  0  0  0
   -2.3844    1.7580    4.0892 H   0  0  0  0  0  0  0  0  0  0  0  0
   -1.2733    0.4298    4.4995 H   0  0  0  0  0  0  0  0  0  0  0  0
  5  6  2  0  0  0  0
  5  7  1  0  0  0  0
  2  3  1  0  0  0  0
  2  4  1  0  0  0  0
  2  5  1  0  0  0  0
  1  2  1  0  0  0  0
 25 26  2  0  0  0  0
 25 27  1  0  0  0  0
 23 24  1  0  0  0  0
 21 22  1  0  0  0  0
 21 23  2  0  0  0  0
 19 20  1  0  0  0  0
 19 21  1  0  0  0  0
 17 18  1  0  0  0  0
 17 19  2  0  0  0  0
 15 16  1  0  0  0  0
 15 17  1  0  0  0  0
 14 15  2  0  0  0  0
 14 23  1  0  0  0  0
 11 12  1  0  0  0  0
 11 13  1  0  0  0  0
 11 14  1  0  0  0  0
  9 10  1  0  0  0  0
  9 11  1  0  0  0  0
  9 25  1  0  0  0  0
  7  8  1  0  0  0  0
  7  9  1  0  0  0  0
 29 30  1  0  0  0  0
 29 31  1  0  0  0  0
 29 32  1  0  0  0  0
 27 28  1  0  0  0  0
 27 29  1  0  0  0  0
M  END
$$$$
default_name
  -OEChem-02102213163D

 32 32  0     1  0  0  0  0  0999 V2000
   -3.8405   -3.7518    1.6252 H   0  0  0  0  0  0  0  0  0  0  0  0
   -3.7965   -2.8768    0.9782 C   0  0  0  0  0  0  0  0  0  0  0  0
   -4.5465   -2.1527    1.2902 H   0  0  0  0  0  0  0  0  0  0  0  0
   -3.9745   -3.1748   -0.0538 H   0  0  0  0  0  0  0  0  0  0  0  0
   -2.4245   -2.2537    1.0882 C   0  0  0  0  0  0  0  0  0  0  0  0
   -1.5805   -2.7478    1.8242 O   0  0  0  0  0  0  0  0  0  0  0  0
   -2.2045   -1.1637    0.3562 N   0  0  0  0  0  0  0  0  0  0  0  0
   -2.9595   -0.7907   -0.2008 H   0  0  0  0  0  0  0  0  0  0  0  0
   -0.9485   -0.4087    0.3482 C   0  0  1  0  0  0  0  0  0  0  0  0
   -0.1408   -1.0795    0.0507 H   0  0  0  0  0  0  0  0  0  0  0  0
   -1.0432    0.7243   -0.6879 C   0  0  0  0  0  0  0  0  0  0  0  0
   -1.2333    0.2915   -1.6712 H   0  0  0  0  0  0  0  0  0  0  0  0
   -1.8943    1.3603   -0.4399 H   0  0  0  0  0  0  0  0  0  0  0  0
    0.2078    1.5768   -0.7835 C   0  0  0  0  0  0  0  0  0  0  0  0
    1.1899    1.5177    0.2233 C   0  0  0  0  0  0  0  0  0  0  0  0
    1.0471    0.8796    1.0840 H   0  0  0  0  0  0  0  0  0  0  0  0
    2.3666    2.2804    0.1072 C   0  0  0  0  0  0  0  0  0  0  0  0
    3.1183    2.2355    0.8828 H   0  0  0  0  0  0  0  0  0  0  0  0
    2.5642    3.1017   -1.0158 C   0  0  0  0  0  0  0  0  0  0  0  0
    3.4672    3.6895   -1.1037 H   0  0  0  0  0  0  0  0  0  0  0  0
    1.5841    3.1643   -2.0230 C   0  0  0  0  0  0  0  0  0  0  0  0
    1.7334    3.7997   -2.8836 H   0  0  0  0  0  0  0  0  0  0  0  0
    0.4068    2.4044   -1.9051 C   0  0  0  0  0  0  0  0  0  0  0  0
   -0.3480    2.4560   -2.6790 H   0  0  0  0  0  0  0  0  0  0  0  0
   -0.6196    0.1253    1.7539 C   0  0  0  0  0  0  0  0  0  0  0  0
    0.5216    0.0194    2.2054 O   0  0  0  0  0  0  0  0  0  0  0  0
   -1.6152    0.6924    2.4469 N   0  0  0  0  0  0  0  0  0  0  0  0
   -2.5345    0.6914    2.0318 H   0  0  0  0  0  0  0  0  0  0  0  0
   -1.4720    1.2390    3.7941 C   0  0  0  0  0  0  0  0  0  0  0  0
   -0.6345    1.9391    3.8219 H   0  0  0  0  0  0  0  0  0  0  0  0
   -2.3844    1.7580    4.0892 H   0  0  0  0  0  0  0  0  0  0  0  0
   -1.2733    0.4298    4.4995 H   0  0  0  0  0  0  0  0  0  0  0  0
  5  6  2  0  0  0  0
  5  7  1  0  0  0  0
  2  3  1  0  0  0  0
  2  4  1  0  0  0  0
  2  5  1  0  0  0  0
  1  2  1  0  0  0  0
 25 26  2  0  0  0  0
 25 27  1  0  0  0  0
 23 24  1  0  0  0  0
 21 22  1  0  0  0  0
 21 23  2  0  0  0  0
 19 20  1  0  0  0  0
 19 21  1  0  0  0  0
 17 18  1  0  0  0  0
 17 19  2  0  0  0  0
 15 16  1  0  0  0  0
 15 17  1  0  0  0  0
 14 15  2  0  0  0  0
 14 23  1  0  0  0  0
 11 12  1  0  0  0  0
 11 13  1  0  0  0  0
 11 14  1  0  0  0  0
  9 10  1  0  0  0  0
  9 11  1  0  0  0  0
  9 25  1  0  0  0  0
  7  8  1  0  0  0  0
  7  9  1  0  0  0  0
 29 30  1  0  0  0  0
 29 31  1  0  0  0  0
 29 32  1  0  0  0  0
 27 28  1  0  0  0  0
 27 29  1  0  0  0  0
M  END
$$$$
default_name
  -OEChem-02102213163D

 32 32  0     1  0  0  0  0  0999 V2000
   -3.8405   -3.7518    1.6252 H   0  0  0  0  0  0  0  0  0  0  0  0
   -3.7965   -2.8768    0.9782 C   0  0  0  0  0  0  0  0  0  0  0  0
   -4.5465   -2.1527    1.2902 H   0  0  0  0  0  0  0  0  0  0  0  0
   -3.9745   -3.1748   -0.0538 H   0  0  0  0  0  0  0  0  0  0  0  0
   -2.4245   -2.2537    1.0882 C   0  0  0  0  0  0  0  0  0  0  0  0
   -1.5805   -2.7478    1.8242 O   0  0  0  0  0  0  0  0  0  0  0  0
   -2.2045   -1.1637    0.3562 N   0  0  0  0  0  0  0  0  0  0  0  0
   -2.9595   -0.7907   -0.2008 H   0  0  0  0  0  0  0  0  0  0  0  0
   -0.9485   -0.4087    0.3482 C   0  0  1  0  0  0  0  0  0  0  0  0
   -0.1408   -1.0795    0.0507 H   0  0  0  0  0  0  0  0  0  0  0  0
   -1.0432    0.7243   -0.6879 C   0  0  0  0  0  0  0  0  0  0  0  0
   -1.2333    0.2915   -1.6712 H   0  0  0  0  0  0  0  0  0  0  0  0
   -1.8943    1.3603   -0.4399 H   0  0  0  0  0  0  0  0  0  0  0  0
    0.2078    1.5768   -0.7835 C   0  0  0  0  0  0  0  0  0  0  0  0
    1.3220    1.3024    0.0320 C   0  0  0  0  0  0  0  0  0  0  0  0
    1.2839    0.4945    0.7490 H   0  0  0  0  0  0  0  0  0  0  0  0
    2.4937    2.0717   -0.0915 C   0  0  0  0  0  0  0  0  0  0  0  0
    3.3472    1.8610    0.5375 H   0  0  0  0  0  0  0  0  0  0  0  0
    2.5541    3.1148   -1.0312 C   0  0  0  0  0  0  0  0  0  0  0  0
    3.4535    3.7073   -1.1244 H   0  0  0  0  0  0  0  0  0  0  0  0
    1.4420    3.3926   -1.8466 C   0  0  0  0  0  0  0  0  0  0  0  0
    1.4864    4.1978   -2.5652 H   0  0  0  0  0  0  0  0  0  0  0  0
    0.2700    2.6258   -1.7207 C   0  0  0  0  0  0  0  0  0  0  0  0
   -0.5860    2.8427   -2.3463 H   0  0  0  0  0  0  0  0  0  0  0  0
   -0.6196    0.1253    1.7539 C   0  0  0  0  0  0  0  0  0  0  0  0
    0.5216    0.0194    2.2054 O   0  0  0  0  0  0  0  0  0  0  0  0
   -1.6152    0.6924    2.4469 N   0  0  0  0  0  0  0  0  0  0  0  0
   -2.5345    0.6914    2.0318 H   0  0  0  0  0  0  0  0  0  0  0  0
   -1.4720    1.2390    3.7941 C   0  0  0  0  0  0  0  0  0  0  0  0
   -0.6345    1.9391    3.8219 H   0  0  0  0  0  0  0  0  0  0  0  0
   -2.3844    1.7580    4.0892 H   0  0  0  0  0  0  0  0  0  0  0  0
   -1.2733    0.4298    4.4995 H   0  0  0  0  0  0  0  0  0  0  0  0
  5  6  2  0  0  0  0
  5  7  1  0  0  0  0
  2  3  1  0  0  0  0
  2  4  1  0  0  0  0
  2  5  1  0  0  0  0
  1  2  1  0  0  0  0
 25 26  2  0  0  0  0
 25 27  1  0  0  0  0
 23 24  1  0  0  0  0
 21 22  1  0  0  0  0
 21 23  2  0  0  0  0
 19 20  1  0  0  0  0
 19 21  1  0  0  0  0
 17 18  1  0  0  0  0
 17 19  2  0  0  0  0
 15 16  1  0  0  0  0
 15 17  1  0  0  0  0
 14 15  2  0  0  0  0
 14 23  1  0  0  0  0
 11 12  1  0  0  0  0
 11 13  1  0  0  0  0
 11 14  1  0  0  0  0
  9 10  1  0  0  0  0
  9 11  1  0  0  0  0
  9 25  1  0  0  0  0
  7  8  1  0  0  0  0
  7  9  1  0  0  0  0
 29 30  1  0  0  0  0
 29 31  1  0  0  0  0
 29 32  1  0  0  0  0
 27 28  1  0  0  0  0
 27 29  1  0  0  0  0
M  END
$$$$
default_name
  -OEChem-02102213163D

 32 32  0     1  0  0  0  0  0999 V2000
   -3.8405   -3.7518    1.6252 H   0  0  0  0  0  0  0  0  0  0  0  0
   -3.7965   -2.8768    0.9782 C   0  0  0  0  0  0  0  0  0  0  0  0
   -4.5465   -2.1527    1.2902 H   0  0  0  0  0  0  0  0  0  0  0  0
   -3.9745   -3.1748   -0.0538 H   0  0  0  0  0  0  0  0  0  0  0  0
   -2.4245   -2.2537    1.0882 C   0  0  0  0  0  0  0  0  0  0  0  0
   -1.5805   -2.7478    1.8242 O   0  0  0  0  0  0  0  0  0  0  0  0
   -2.2045   -1.1637    0.3562 N   0  0  0  0  0  0  0  0  0  0  0  0
   -2.9595   -0.7907   -0.2008 H   0  0  0  0  0  0  0  0  0  0  0  0
   -0.9485   -0.4087    0.3482 C   0  0  1  0  0  0  0  0  0  0  0  0
   -0.1408   -1.0795    0.0507 H   0  0  0  0  0  0  0  0  0  0  0  0
   -1.0432    0.7243   -0.6879 C   0  0  0  0  0  0  0  0  0  0  0  0
   -1.2333    0.2915   -1.6712 H   0  0  0  0  0  0  0  0  0  0  0  0
   -1.8943    1.3603   -0.4399 H   0  0  0  0  0  0  0  0  0  0  0  0
    0.2078    1.5768   -0.7835 C   0  0  0  0  0  0  0  0  0  0  0  0
    1.4182    1.1332   -0.2180 C   0  0  0  0  0  0  0  0  0  0  0  0
    1.4577    0.1902    0.3088 H   0  0  0  0  0  0  0  0  0  0  0  0
    2.5841    1.9104   -0.3466 C   0  0  0  0  0  0  0  0  0  0  0  0
    3.5119    1.5691    0.0907 H   0  0  0  0  0  0  0  0  0  0  0  0
    2.5423    3.1309   -1.0419 C   0  0  0  0  0  0  0  0  0  0  0  0
    3.4375    3.7291   -1.1386 H   0  0  0  0  0  0  0  0  0  0  0  0
    1.3340    3.5778   -1.6069 C   0  0  0  0  0  0  0  0  0  0  0  0
    1.3006    4.5185   -2.1367 H   0  0  0  0  0  0  0  0  0  0  0  0
    0.1684    2.8024   -1.4754 C   0  0  0  0  0  0  0  0  0  0  0  0
   -0.7613    3.1490   -1.9077 H   0  0  0  0  0  0  0  0  0  0  0  0
   -0.6196    0.1253    1.7539 C   0  0  0  0  0  0  0  0  0  0  0  0
    0.5216    0.0194    2.2054 O   0  0  0  0  0  0  0  0  0  0  0  0
   -1.6152    0.6924    2.4469 N   0  0  0  0  0  0  0  0  0  0  0  0
   -2.5345    0.6914    2.0318 H   0  0  0  0  0  0  0  0  0  0  0  0
   -1.4720    1.2390    3.7941 C   0  0  0  0  0  0  0  0  0  0  0  0
   -0.6345    1.9391    3.8219 H   0  0  0  0  0  0  0  0  0  0  0  0
   -2.3844    1.7580    4.0892 H   0  0  0  0  0  0  0  0  0  0  0  0
   -1.2733    0.4298    4.4995 H   0  0  0  0  0  0  0  0  0  0  0  0
  5  6  2  0  0  0  0
  5  7  1  0  0  0  0
  2  3  1  0  0  0  0
  2  4  1  0  0  0  0
  2  5  1  0  0  0  0
  1  2  1  0  0  0  0
 25 26  2  0  0  0  0
 25 27  1  0  0  0  0
 23 24  1  0  0  0  0
 21 22  1  0  0  0  0
 21 23  2  0  0  0  0
 19 20  1  0  0  0  0
 19 21  1  0  0  0  0
 17 18  1  0  0  0  0
 17 19  2  0  0  0  0
 15 16  1  0  0  0  0
 15 17  1  0  0  0  0
 14 15  2  0  0  0  0
 14 23  1  0  0  0  0
 11 12  1  0  0  0  0
 11 13  1  0  0  0  0
 11 14  1  0  0  0  0
  9 10  1  0  0  0  0
  9 11  1  0  0  0  0
  9 25  1  0  0  0  0
  7  8  1  0  0  0  0
  7  9  1  0  0  0  0
 29 30  1  0  0  0  0
 29 31  1  0  0  0  0
 29 32  1  0  0  0  0
 27 28  1  0  0  0  0
 27 29  1  0  0  0  0
M  END
$$$$
default_name
  -OEChem-02102213163D

 32 32  0     1  0  0  0  0  0999 V2000
   -3.8405   -3.7518    1.6252 H   0  0  0  0  0  0  0  0  0  0  0  0
   -3.7965   -2.8768    0.9782 C   0  0  0  0  0  0  0  0  0  0  0  0
   -4.5465   -2.1527    1.2902 H   0  0  0  0  0  0  0  0  0  0  0  0
   -3.9745   -3.1748   -0.0538 H   0  0  0  0  0  0  0  0  0  0  0  0
   -2.4245   -2.2537    1.0882 C   0  0  0  0  0  0  0  0  0  0  0  0
   -1.5805   -2.7478    1.8242 O   0  0  0  0  0  0  0  0  0  0  0  0
   -2.2045   -1.1637    0.3562 N   0  0  0  0  0  0  0  0  0  0  0  0
   -2.9595   -0.7907   -0.2008 H   0  0  0  0  0  0  0  0  0  0  0  0
   -0.9485   -0.4087    0.3482 C   0  0  1  0  0  0  0  0  0  0  0  0
   -0.1408   -1.0795    0.0507 H   0  0  0  0  0  0  0  0  0  0  0  0
   -1.0432    0.7243   -0.6879 C   0  0  0  0  0  0  0  0  0  0  0  0
   -1.2333    0.2915   -1.6712 H   0  0  0  0  0  0  0  0  0  0  0  0
   -1.8943    1.3603   -0.4399 H   0  0  0  0  0  0  0  0  0  0  0  0
    0.2078    1.5768   -0.7835 C   0  0  0  0  0  0  0  0  0  0  0  0
    1.4720    1.0215   -0.5096 C   0  0  0  0  0  0  0  0  0  0  0  0
    1.5565   -0.0126   -0.2066 H   0  0  0  0  0  0  0  0  0  0  0  0
    2.6317    1.8076   -0.6405 C   0  0  0  0  0  0  0  0  0  0  0  0
    3.6013    1.3800   -0.4271 H   0  0  0  0  0  0  0  0  0  0  0  0
    2.5297    3.1489   -1.0470 C   0  0  0  0  0  0  0  0  0  0  0  0
    3.4204    3.7535   -1.1453 H   0  0  0  0  0  0  0  0  0  0  0  0
    1.2677    3.7073   -1.3201 C   0  0  0  0  0  0  0  0  0  0  0  0
    1.1887    4.7399   -1.6274 H   0  0  0  0  0  0  0  0  0  0  0  0
    0.1087    2.9224   -1.1860 C   0  0  0  0  0  0  0  0  0  0  0  0
   -0.8618    3.3542   -1.3932 H   0  0  0  0  0  0  0  0  0  0  0  0
   -0.6196    0.1253    1.7539 C   0  0  0  0  0  0  0  0  0  0  0  0
    0.5216    0.0194    2.2054 O   0  0  0  0  0  0  0  0  0  0  0  0
   -1.6152    0.6924    2.4469 N   0  0  0  0  0  0  0  0  0  0  0  0
   -2.5345    0.6914    2.0318 H   0  0  0  0  0  0  0  0  0  0  0  0
   -1.4720    1.2390    3.7941 C   0  0  0  0  0  0  0  0  0  0  0  0
   -0.6345    1.9391    3.8219 H   0  0  0  0  0  0  0  0  0  0  0  0
   -2.3844    1.7580    4.0892 H   0  0  0  0  0  0  0  0  0  0  0  0
   -1.2733    0.4298    4.4995 H   0  0  0  0  0  0  0  0  0  0  0  0
  5  6  2  0  0  0  0
  5  7  1  0  0  0  0
  2  3  1  0  0  0  0
  2  4  1  0  0  0  0
  2  5  1  0  0  0  0
  1  2  1  0  0  0  0
 25 26  2  0  0  0  0
 25 27  1  0  0  0  0
 23 24  1  0  0  0  0
 21 22  1  0  0  0  0
 21 23  2  0  0  0  0
 19 20  1  0  0  0  0
 19 21  1  0  0  0  0
 17 18  1  0  0  0  0
 17 19  2  0  0  0  0
 15 16  1  0  0  0  0
 15 17  1  0  0  0  0
 14 15  2  0  0  0  0
 14 23  1  0  0  0  0
 11 12  1  0  0  0  0
 11 13  1  0  0  0  0
 11 14  1  0  0  0  0
  9 10  1  0  0  0  0
  9 11  1  0  0  0  0
  9 25  1  0  0  0  0
  7  8  1  0  0  0  0
  7  9  1  0  0  0  0
 29 30  1  0  0  0  0
 29 31  1  0  0  0  0
 29 32  1  0  0  0  0
 27 28  1  0  0  0  0
 27 29  1  0  0  0  0
M  END
$$$$
default_name
  -OEChem-02102213163D

 32 32  0     1  0  0  0  0  0999 V2000
   -3.8405   -3.7518    1.6252 H   0  0  0  0  0  0  0  0  0  0  0  0
   -3.7965   -2.8768    0.9782 C   0  0  0  0  0  0  0  0  0  0  0  0
   -4.5465   -2.1527    1.2902 H   0  0  0  0  0  0  0  0  0  0  0  0
   -3.9745   -3.1748   -0.0538 H   0  0  0  0  0  0  0  0  0  0  0  0
   -2.4245   -2.2537    1.0882 C   0  0  0  0  0  0  0  0  0  0  0  0
   -1.5805   -2.7478    1.8242 O   0  0  0  0  0  0  0  0  0  0  0  0
   -2.2045   -1.1637    0.3562 N   0  0  0  0  0  0  0  0  0  0  0  0
   -2.9595   -0.7907   -0.2008 H   0  0  0  0  0  0  0  0  0  0  0  0
   -0.9485   -0.4087    0.3482 C   0  0  1  0  0  0  0  0  0  0  0  0
   -0.1408   -1.0795    0.0507 H   0  0  0  0  0  0  0  0  0  0  0  0
   -1.0432    0.7243   -0.6879 C   0  0  0  0  0  0  0  0  0  0  0  0
   -1.2333    0.2915   -1.6712 H   0  0  0  0  0  0  0  0  0  0  0  0
   -1.8943    1.3603   -0.4399 H   0  0  0  0  0  0  0  0  0  0  0  0
    0.2078    1.5768   -0.7835 C   0  0  0  0  0  0  0  0  0  0  0  0
    1.4798    0.9750   -0.8229 C   0  0  0  0  0  0  0  0  0  0  0  0
    1.5737   -0.1001   -0.7621 H   0  0  0  0  0  0  0  0  0  0  0  0
    2.6332    1.7703   -0.9532 C   0  0  0  0  0  0  0  0  0  0  0  0
    3.6092    1.3063   -0.9807 H   0  0  0  0  0  0  0  0  0  0  0  0
    2.5170    3.1676   -1.0463 C   0  0  0  0  0  0  0  0  0  0  0  0
    3.4033    3.7787   -1.1441 H   0  0  0  0  0  0  0  0  0  0  0  0
    1.2475    3.7723   -1.0058 C   0  0  0  0  0  0  0  0  0  0  0  0
    1.1583    4.8467   -1.0718 H   0  0  0  0  0  0  0  0  0  0  0  0
    0.0952    2.9775   -0.8722 C   0  0  0  0  0  0  0  0  0  0  0  0
   -0.8807    3.4442   -0.8378 H   0  0  0  0  0  0  0  0  0  0  0  0
   -0.6196    0.1253    1.7539 C   0  0  0  0  0  0  0  0  0  0  0  0
    0.5216    0.0194    2.2054 O   0  0  0  0  0  0  0  0  0  0  0  0
   -1.6152    0.6924    2.4469 N   0  0  0  0  0  0  0  0  0  0  0  0
   -2.5345    0.6914    2.0318 H   0  0  0  0  0  0  0  0  0  0  0  0
   -1.4720    1.2390    3.7941 C   0  0  0  0  0  0  0  0  0  0  0  0
   -0.6345    1.9391    3.8219 H   0  0  0  0  0  0  0  0  0  0  0  0
   -2.3844    1.7580    4.0892 H   0  0  0  0  0  0  0  0  0  0  0  0
   -1.2733    0.4298    4.4995 H   0  0  0  0  0  0  0  0  0  0  0  0
  5  6  2  0  0  0  0
  5  7  1  0  0  0  0
  2  3  1  0  0  0  0
  2  4  1  0  0  0  0
  2  5  1  0  0  0  0
  1  2  1  0  0  0  0
 25 26  2  0  0  0  0
 25 27  1  0  0  0  0
 23 24  1  0  0  0  0
 21 22  1  0  0  0  0
 21 23  2  0  0  0  0
 19 20  1  0  0  0  0
 19 21  1  0  0  0  0
 17 18  1  0  0  0  0
 17 19  2  0  0  0  0
 15 16  1  0  0  0  0
 15 17  1  0  0  0  0
 14 15  2  0  0  0  0
 14 23  1  0  0  0  0
 11 12  1  0  0  0  0
 11 13  1  0  0  0  0
 11 14  1  0  0  0  0
  9 10  1  0  0  0  0
  9 11  1  0  0  0  0
  9 25  1  0  0  0  0
  7  8  1  0  0  0  0
  7  9  1  0  0  0  0
 29 30  1  0  0  0  0
 29 31  1  0  0  0  0
 29 32  1  0  0  0  0
 27 28  1  0  0  0  0
 27 29  1  0  0  0  0
M  END
$$$$
default_name
  -OEChem-02102213163D

 32 32  0     1  0  0  0  0  0999 V2000
   -3.8405   -3.7518    1.6252 H   0  0  0  0  0  0  0  0  0  0  0  0
   -3.7965   -2.8768    0.9782 C   0  0  0  0  0  0  0  0  0  0  0  0
   -4.5465   -2.1527    1.2902 H   0  0  0  0  0  0  0  0  0  0  0  0
   -3.9745   -3.1748   -0.0538 H   0  0  0  0  0  0  0  0  0  0  0  0
   -2.4245   -2.2537    1.0882 C   0  0  0  0  0  0  0  0  0  0  0  0
   -1.5805   -2.7478    1.8242 O   0  0  0  0  0  0  0  0  0  0  0  0
   -2.2045   -1.1637    0.3562 N   0  0  0  0  0  0  0  0  0  0  0  0
   -2.9595   -0.7907   -0.2008 H   0  0  0  0  0  0  0  0  0  0  0  0
   -0.9485   -0.4087    0.3482 C   0  0  1  0  0  0  0  0  0  0  0  0
   -0.1408   -1.0795    0.0507 H   0  0  0  0  0  0  0  0  0  0  0  0
   -1.0432    0.7243   -0.6879 C   0  0  0  0  0  0  0  0  0  0  0  0
   -1.2333    0.2915   -1.6712 H   0  0  0  0  0  0  0  0  0  0  0  0
   -1.8943    1.3603   -0.4399 H   0  0  0  0  0  0  0  0  0  0  0  0
    0.2078    1.5768   -0.7835 C   0  0  0  0  0  0  0  0  0  0  0  0
    1.4410    0.9968   -1.1366 C   0  0  0  0  0  0  0  0  0  0  0  0
    1.5080   -0.0663   -1.3199 H   0  0  0  0  0  0  0  0  0  0  0  0
    2.5886    1.8009   -1.2636 C   0  0  0  0  0  0  0  0  0  0  0  0
    3.5351    1.3531   -1.5322 H   0  0  0  0  0  0  0  0  0  0  0  0
    2.5051    3.1857   -1.0398 C   0  0  0  0  0  0  0  0  0  0  0  0
    3.3874    3.8031   -1.1350 H   0  0  0  0  0  0  0  0  0  0  0  0
    1.2747    3.7683   -0.6854 C   0  0  0  0  0  0  0  0  0  0  0  0
    1.2115    4.8319   -0.5080 H   0  0  0  0  0  0  0  0  0  0  0  0
    0.1286    2.9639   -0.5553 C   0  0  0  0  0  0  0  0  0  0  0  0
   -0.8167    3.4129   -0.2794 H   0  0  0  0  0  0  0  0  0  0  0  0
   -0.6196    0.1253    1.7539 C   0  0  0  0  0  0  0  0  0  0  0  0
    0.5216    0.0194    2.2054 O   0  0  0  0  0  0  0  0  0  0  0  0
   -1.6152    0.6924    2.4469 N   0  0  0  0  0  0  0  0  0  0  0  0
   -2.5345    0.6914    2.0318 H   0  0  0  0  0  0  0  0  0  0  0  0
   -1.4720    1.2390    3.7941 C   0  0  0  0  0  0  0  0  0  0  0  0
   -0.6345    1.9391    3.8219 H   0  0  0  0  0  0  0  0  0  0  0  0
   -2.3844    1.7580    4.0892 H   0  0  0  0  0  0  0  0  0  0  0  0
   -1.2733    0.4298    4.4995 H   0  0  0  0  0  0  0  0  0  0  0  0
  5  6  2  0  0  0  0
  5  7  1  0  0  0  0
  2  3  1  0  0  0  0
  2  4  1  0  0  0  0
  2  5  1  0  0  0  0
  1  2  1  0  0  0  0
 25 26  2  0  0  0  0
 25 27  1  0  0  0  0
 23 24  1  0  0  0  0
 21 22  1  0  0  0  0
 21 23  2  0  0  0  0
 19 20  1  0  0  0  0
 19 21  1  0  0  0  0
 17 18  1  0  0  0  0
 17 19  2  0  0  0  0
 15 16  1  0  0  0  0
 15 17  1  0  0  0  0
 14 15  2  0  0  0  0
 14 23  1  0  0  0  0
 11 12  1  0  0  0  0
 11 13  1  0  0  0  0
 11 14  1  0  0  0  0
  9 10  1  0  0  0  0
  9 11  1  0  0  0  0
  9 25  1  0  0  0  0
  7  8  1  0  0  0  0
  7  9  1  0  0  0  0
 29 30  1  0  0  0  0
 29 31  1  0  0  0  0
 29 32  1  0  0  0  0
 27 28  1  0  0  0  0
 27 29  1  0  0  0  0
M  END
$$$$
default_name
  -OEChem-02102213163D

 32 32  0     1  0  0  0  0  0999 V2000
   -3.8405   -3.7518    1.6252 H   0  0  0  0  0  0  0  0  0  0  0  0
   -3.7965   -2.8768    0.9782 C   0  0  0  0  0  0  0  0  0  0  0  0
   -4.5465   -2.1527    1.2902 H   0  0  0  0  0  0  0  0  0  0  0  0
   -3.9745   -3.1748   -0.0538 H   0  0  0  0  0  0  0  0  0  0  0  0
   -2.4245   -2.2537    1.0882 C   0  0  0  0  0  0  0  0  0  0  0  0
   -1.5805   -2.7478    1.8242 O   0  0  0  0  0  0  0  0  0  0  0  0
   -2.2045   -1.1637    0.3562 N   0  0  0  0  0  0  0  0  0  0  0  0
   -2.9595   -0.7907   -0.2008 H   0  0  0  0  0  0  0  0  0  0  0  0
   -0.9485   -0.4087    0.3482 C   0  0  1  0  0  0  0  0  0  0  0  0
   -0.1408   -1.0795    0.0507 H   0  0  0  0  0  0  0  0  0  0  0  0
   -1.0432    0.7243   -0.6879 C   0  0  0  0  0  0  0  0  0  0  0  0
   -1.2333    0.2915   -1.6712 H   0  0  0  0  0  0  0  0  0  0  0  0
   -1.8943    1.3603   -0.4399 H   0  0  0  0  0  0  0  0  0  0  0  0
    0.2078    1.5768   -0.7835 C   0  0  0  0  0  0  0  0  0  0  0  0
    1.3582    1.0855   -1.4293 C   0  0  0  0  0  0  0  0  0  0  0  0
    1.3640    0.0864   -1.8419 H   0  0  0  0  0  0  0  0  0  0  0  0
    2.5009    1.8975   -1.5503 C   0  0  0  0  0  0  0  0  0  0  0  0
    3.3840    1.5173   -2.0442 H   0  0  0  0  0  0  0  0  0  0  0  0
    2.4949    3.2020   -1.0279 C   0  0  0  0  0  0  0  0  0  0  0  0
    3.3737    3.8250   -1.1187 H   0  0  0  0  0  0  0  0  0  0  0  0
    1.3475    3.6956   -0.3807 C   0  0  0  0  0  0  0  0  0  0  0  0
    1.3446    4.6964    0.0257 H   0  0  0  0  0  0  0  0  0  0  0  0
    0.2068    2.8826   -0.2570 C   0  0  0  0  0  0  0  0  0  0  0  0
   -0.6741    3.2624    0.2440 H   0  0  0  0  0  0  0  0  0  0  0  0
   -0.6196    0.1253    1.7539 C   0  0  0  0  0  0  0  0  0  0  0  0
    0.5216    0.0194    2.2054 O   0  0  0  0  0  0  0  0  0  0  0  0
   -1.6152    0.6924    2.4469 N   0  0  0  0  0  0  0  0  0  0  0  0
   -2.5345    0.6914    2.0318 H   0  0  0  0  0  0  0  0  0  0  0  0
   -1.4720    1.2390    3.7941 C   0  0  0  0  0  0  0  0  0  0  0  0
   -0.6345    1.9391    3.8219 H   0  0  0  0  0  0  0  0  0  0  0  0
   -2.3844    1.7580    4.0892 H   0  0  0  0  0  0  0  0  0  0  0  0
   -1.2733    0.4298    4.4995 H   0  0  0  0  0  0  0  0  0  0  0  0
  5  6  2  0  0  0  0
  5  7  1  0  0  0  0
  2  3  1  0  0  0  0
  2  4  1  0  0  0  0
  2  5  1  0  0  0  0
  1  2  1  0  0  0  0
 25 26  2  0  0  0  0
 25 27  1  0  0  0  0
 23 24  1  0  0  0  0
 21 22  1  0  0  0  0
 21 23  2  0  0  0  0
 19 20  1  0  0  0  0
 19 21  1  0  0  0  0
 17 18  1  0  0  0  0
 17 19  2  0  0  0  0
 15 16  1  0  0  0  0
 15 17  1  0  0  0  0
 14 15  2  0  0  0  0
 14 23  1  0  0  0  0
 11 12  1  0  0  0  0
 11 13  1  0  0  0  0
 11 14  1  0  0  0  0
  9 10  1  0  0  0  0
  9 11  1  0  0  0  0
  9 25  1  0  0  0  0
  7  8  1  0  0  0  0
  7  9  1  0  0  0  0
 29 30  1  0  0  0  0
 29 31  1  0  0  0  0
 29 32  1  0  0  0  0
 27 28  1  0  0  0  0
 27 29  1  0  0  0  0
M  END
$$$$
default_name
  -OEChem-02102213163D

 32 32  0     1  0  0  0  0  0999 V2000
   -3.8405   -3.7518    1.6252 H   0  0  0  0  0  0  0  0  0  0  0  0
   -3.7965   -2.8768    0.9782 C   0  0  0  0  0  0  0  0  0  0  0  0
   -4.5465   -2.1527    1.2902 H   0  0  0  0  0  0  0  0  0  0  0  0
   -3.9745   -3.1748   -0.0538 H   0  0  0  0  0  0  0  0  0  0  0  0
   -2.4245   -2.2537    1.0882 C   0  0  0  0  0  0  0  0  0  0  0  0
   -1.5805   -2.7478    1.8242 O   0  0  0  0  0  0  0  0  0  0  0  0
   -2.2045   -1.1637    0.3562 N   0  0  0  0  0  0  0  0  0  0  0  0
   -2.9595   -0.7907   -0.2008 H   0  0  0  0  0  0  0  0  0  0  0  0
   -0.9485   -0.4087    0.3482 C   0  0  1  0  0  0  0  0  0  0  0  0
   -0.1408   -1.0795    0.0507 H   0  0  0  0  0  0  0  0  0  0  0  0
   -1.0432    0.7243   -0.6879 C   0  0  0  0  0  0  0  0  0  0  0  0
   -1.2333    0.2915   -1.6712 H   0  0  0  0  0  0  0  0  0  0  0  0
   -1.8943    1.3603   -0.4399 H   0  0  0  0  0  0  0  0  0  0  0  0
    0.2078    1.5768   -0.7835 C   0  0  0  0  0  0  0  0  0  0  0  0
    1.2371    1.2349   -1.6811 C   0  0  0  0  0  0  0  0  0  0  0  0
    1.1515    0.3477   -2.2925 H   0  0  0  0  0  0  0  0  0  0  0  0
    2.3760    2.0534   -1.7938 C   0  0  0  0  0  0  0  0  0  0  0  0
    3.1664    1.7877   -2.4817 H   0  0  0  0  0  0  0  0  0  0  0  0
    2.4870    3.2154   -1.0114 C   0  0  0  0  0  0  0  0  0  0  0  0
    3.3632    3.8429   -1.0964 H   0  0  0  0  0  0  0  0  0  0  0  0
    1.4610    3.5591   -0.1125 C   0  0  0  0  0  0  0  0  0  0  0  0
    1.5487    4.4493    0.4930 H   0  0  0  0  0  0  0  0  0  0  0  0
    0.3244    2.7392    0.0024 C   0  0  0  0  0  0  0  0  0  0  0  0
   -0.4627    3.0029    0.6967 H   0  0  0  0  0  0  0  0  0  0  0  0
   -0.6196    0.1253    1.7539 C   0  0  0  0  0  0  0  0  0  0  0  0
    0.5216    0.0194    2.2054 O   0  0  0  0  0  0  0  0  0  0  0  0
   -1.6152    0.6924    2.4469 N   0  0  0  0  0  0  0  0  0  0  0  0
   -2.5345    0.6914    2.0318 H   0  0  0  0  0  0  0  0  0  0  0  0
   -1.4720    1.2390    3.7941 C   0  0  0  0  0  0  0  0  0  0  0  0
   -0.6345    1.9391    3.8219 H   0  0  0  0  0  0  0  0  0  0  0  0
   -2.3844    1.7580    4.0892 H   0  0  0  0  0  0  0  0  0  0  0  0
   -1.2733    0.4298    4.4995 H   0  0  0  0  0  0  0  0  0  0  0  0
  5  6  2  0  0  0  0
  5  7  1  0  0  0  0
  2  3  1  0  0  0  0
  2  4  1  0  0  0  0
  2  5  1  0  0  0  0
  1  2  1  0  0  0  0
 25 26  2  0  0  0  0
 25 27  1  0  0  0  0
 23 24  1  0  0  0  0
 21 22  1  0  0  0  0
 21 23  2  0  0  0  0
 19 20  1  0  0  0  0
 19 21  1  0  0  0  0
 17 18  1  0  0  0  0
 17 19  2  0  0  0  0
 15 16  1  0  0  0  0
 15 17  1  0  0  0  0
 14 15  2  0  0  0  0
 14 23  1  0  0  0  0
 11 12  1  0  0  0  0
 11 13  1  0  0  0  0
 11 14  1  0  0  0  0
  9 10  1  0  0  0  0
  9 11  1  0  0  0  0
  9 25  1  0  0  0  0
  7  8  1  0  0  0  0
  7  9  1  0  0  0  0
 29 30  1  0  0  0  0
 29 31  1  0  0  0  0
 29 32  1  0  0  0  0
 27 28  1  0  0  0  0
 27 29  1  0  0  0  0
M  END
$$$$
default_name
  -OEChem-02102213163D

 32 32  0     1  0  0  0  0  0999 V2000
   -3.8405   -3.7518    1.6252 H   0  0  0  0  0  0  0  0  0  0  0  0
   -3.7965   -2.8768    0.9782 C   0  0  0  0  0  0  0  0  0  0  0  0
   -4.5465   -2.1527    1.2902 H   0  0  0  0  0  0  0  0  0  0  0  0
   -3.9745   -3.1748   -0.0538 H   0  0  0  0  0  0  0  0  0  0  0  0
   -2.4245   -2.2537    1.0882 C   0  0  0  0  0  0  0  0  0  0  0  0
   -1.5805   -2.7478    1.8242 O   0  0  0  0  0  0  0  0  0  0  0  0
   -2.2045   -1.1637    0.3562 N   0  0  0  0  0  0  0  0  0  0  0  0
   -2.9595   -0.7907   -0.2008 H   0  0  0  0  0  0  0  0  0  0  0  0
   -0.9485   -0.4087    0.3482 C   0  0  1  0  0  0  0  0  0  0  0  0
   -0.1408   -1.0795    0.0507 H   0  0  0  0  0  0  0  0  0  0  0  0
   -1.0432    0.7243   -0.6879 C   0  0  0  0  0  0  0  0  0  0  0  0
   -1.2333    0.2915   -1.6712 H   0  0  0  0  0  0  0  0  0  0  0  0
   -1.8943    1.3603   -0.4399 H   0  0  0  0  0  0  0  0  0  0  0  0
    0.2078    1.5768   -0.7835 C   0  0  0  0  0  0  0  0  0  0  0  0
    1.0859    1.4350   -1.8747 C   0  0  0  0  0  0  0  0  0  0  0  0
    0.8849    0.6998   -2.6411 H   0  0  0  0  0  0  0  0  0  0  0  0
    2.2225    2.2581   -1.9776 C   0  0  0  0  0  0  0  0  0  0  0  0
    2.8969    2.1458   -2.8150 H   0  0  0  0  0  0  0  0  0  0  0  0
    2.4821    3.2249   -0.9915 C   0  0  0  0  0  0  0  0  0  0  0  0
    3.3566    3.8556   -1.0694 H   0  0  0  0  0  0  0  0  0  0  0  0
    1.6074    3.3682    0.1009 C   0  0  0  0  0  0  0  0  0  0  0  0
    1.8097    4.1077    0.8619 H   0  0  0  0  0  0  0  0  0  0  0  0
    0.4734    2.5433    0.2052 C   0  0  0  0  0  0  0  0  0  0  0  0
   -0.1969    2.6523    1.0479 H   0  0  0  0  0  0  0  0  0  0  0  0
   -0.6196    0.1253    1.7539 C   0  0  0  0  0  0  0  0  0  0  0  0
    0.5216    0.0194    2.2054 O   0  0  0  0  0  0  0  0  0  0  0  0
   -1.6152    0.6924    2.4469 N   0  0  0  0  0  0  0  0  0  0  0  0
   -2.5345    0.6914    2.0318 H   0  0  0  0  0  0  0  0  0  0  0  0
   -1.4720    1.2390    3.7941 C   0  0  0  0  0  0  0  0  0  0  0  0
   -0.6345    1.9391    3.8219 H   0  0  0  0  0  0  0  0  0  0  0  0
   -2.3844    1.7580    4.0892 H   0  0  0  0  0  0  0  0  0  0  0  0
   -1.2733    0.4298    4.4995 H   0  0  0  0  0  0  0  0  0  0  0  0
  5  6  2  0  0  0  0
  5  7  1  0  0  0  0
  2  3  1  0  0  0  0
  2  4  1  0  0  0  0
  2  5  1  0  0  0  0
  1  2  1  0  0  0  0
 25 26  2  0  0  0  0
 25 27  1  0  0  0  0
 23 24  1  0  0  0  0
 21 22  1  0  0  0  0
 21 23  2  0  0  0  0
 19 20  1  0  0  0  0
 19 21  1  0  0  0  0
 17 18  1  0  0  0  0
 17 19  2  0  0  0  0
 15 16  1  0  0  0  0
 15 17  1  0  0  0  0
 14 15  2  0  0  0  0
 14 23  1  0  0  0  0
 11 12  1  0  0  0  0
 11 13  1  0  0  0  0
 11 14  1  0  0  0  0
  9 10  1  0  0  0  0
  9 11  1  0  0  0  0
  9 25  1  0  0  0  0
  7  8  1  0  0  0  0
  7  9  1  0  0  0  0
 29 30  1  0  0  0  0
 29 31  1  0  0  0  0
 29 32  1  0  0  0  0
 27 28  1  0  0  0  0
 27 29  1  0  0  0  0
M  END
$$$$
default_name
  -OEChem-02102213163D

 32 32  0     1  0  0  0  0  0999 V2000
   -3.8405   -3.7518    1.6252 H   0  0  0  0  0  0  0  0  0  0  0  0
   -3.7965   -2.8768    0.9782 C   0  0  0  0  0  0  0  0  0  0  0  0
   -4.5465   -2.1527    1.2902 H   0  0  0  0  0  0  0  0  0  0  0  0
   -3.9745   -3.1748   -0.0538 H   0  0  0  0  0  0  0  0  0  0  0  0
   -2.4245   -2.2537    1.0882 C   0  0  0  0  0  0  0  0  0  0  0  0
   -1.5805   -2.7478    1.8242 O   0  0  0  0  0  0  0  0  0  0  0  0
   -2.2045   -1.1637    0.3562 N   0  0  0  0  0  0  0  0  0  0  0  0
   -2.9595   -0.7907   -0.2008 H   0  0  0  0  0  0  0  0  0  0  0  0
   -0.9485   -0.4087    0.3482 C   0  0  1  0  0  0  0  0  0  0  0  0
   -0.1408   -1.0795    0.0507 H   0  0  0  0  0  0  0  0  0  0  0  0
   -1.0432    0.7243   -0.6879 C   0  0  0  0  0  0  0  0  0  0  0  0
   -1.2333    0.2915   -1.6712 H   0  0  0  0  0  0  0  0  0  0  0  0
   -1.8943    1.3603   -0.4399 H   0  0  0  0  0  0  0  0  0  0  0  0
    0.2078    1.5768   -0.7835 C   0  0  0  0  0  0  0  0  0  0  0  0
    0.9150    1.6721   -1.9971 C   0  0  0  0  0  0  0  0  0  0  0  0
    0.5825    1.1187   -2.8639 H   0  0  0  0  0  0  0  0  0  0  0  0
    2.0508    2.4975   -2.0892 C   0  0  0  0  0  0  0  0  0  0  0  0
    2.5939    2.5672   -3.0212 H   0  0  0  0  0  0  0  0  0  0  0  0
    2.4803    3.2300   -0.9695 C   0  0  0  0  0  0  0  0  0  0  0  0
    3.3544    3.8622   -1.0397 H   0  0  0  0  0  0  0  0  0  0  0  0
    1.7768    3.1359    0.2450 C   0  0  0  0  0  0  0  0  0  0  0  0
    2.1100    3.6947    1.1073 H   0  0  0  0  0  0  0  0  0  0  0  0
    0.6436    2.3084    0.3377 C   0  0  0  0  0  0  0  0  0  0  0  0
    0.1052    2.2343    1.2736 H   0  0  0  0  0  0  0  0  0  0  0  0
   -0.6196    0.1253    1.7539 C   0  0  0  0  0  0  0  0  0  0  0  0
    0.5216    0.0194    2.2054 O   0  0  0  0  0  0  0  0  0  0  0  0
   -1.6152    0.6924    2.4469 N   0  0  0  0  0  0  0  0  0  0  0  0
   -2.5345    0.6914    2.0318 H   0  0  0  0  0  0  0  0  0  0  0  0
   -1.4720    1.2390    3.7941 C   0  0  0  0  0  0  0  0  0  0  0  0
   -0.6345    1.9391    3.8219 H   0  0  0  0  0  0  0  0  0  0  0  0
   -2.3844    1.7580    4.0892 H   0  0  0  0  0  0  0  0  0  0  0  0
   -1.2733    0.4298    4.4995 H   0  0  0  0  0  0  0  0  0  0  0  0
  5  6  2  0  0  0  0
  5  7  1  0  0  0  0
  2  3  1  0  0  0  0
  2  4  1  0  0  0  0
  2  5  1  0  0  0  0
  1  2  1  0  0  0  0
 25 26  2  0  0  0  0
 25 27  1  0  0  0  0
 23 24  1  0  0  0  0
 21 22  1  0  0  0  0
 21 23  2  0  0  0  0
 19 20  1  0  0  0  0
 19 21  1  0  0  0  0
 17 18  1  0  0  0  0
 17 19  2  0  0  0  0
 15 16  1  0  0  0  0
 15 17  1  0  0  0  0
 14 15  2  0  0  0  0
 14 23  1  0  0  0  0
 11 12  1  0  0  0  0
 11 13  1  0  0  0  0
 11 14  1  0  0  0  0
  9 10  1  0  0  0  0
  9 11  1  0  0  0  0
  9 25  1  0  0  0  0
  7  8  1  0  0  0  0
  7  9  1  0  0  0  0
 29 30  1  0  0  0  0
 29 31  1  0  0  0  0
 29 32  1  0  0  0  0
 27 28  1  0  0  0  0
 27 29  1  0  0  0  0
M  END
$$$$
default_name
  -OEChem-02102213163D

 32 32  0     1  0  0  0  0  0999 V2000
   -3.8405   -3.7518    1.6252 H   0  0  0  0  0  0  0  0  0  0  0  0
   -3.7965   -2.8768    0.9782 C   0  0  0  0  0  0  0  0  0  0  0  0
   -4.5465   -2.1527    1.2902 H   0  0  0  0  0  0  0  0  0  0  0  0
   -3.9745   -3.1748   -0.0538 H   0  0  0  0  0  0  0  0  0  0  0  0
   -2.4245   -2.2537    1.0882 C   0  0  0  0  0  0  0  0  0  0  0  0
   -1.5805   -2.7478    1.8242 O   0  0  0  0  0  0  0  0  0  0  0  0
   -2.2045   -1.1637    0.3562 N   0  0  0  0  0  0  0  0  0  0  0  0
   -2.9595   -0.7907   -0.2008 H   0  0  0  0  0  0  0  0  0  0  0  0
   -0.9485   -0.4087    0.3482 C   0  0  1  0  0  0  0  0  0  0  0  0
   -0.1408   -1.0795    0.0507 H   0  0  0  0  0  0  0  0  0  0  0  0
   -1.0432    0.7243   -0.6879 C   0  0  0  0  0  0  0  0  0  0  0  0
   -1.2333    0.2915   -1.6712 H   0  0  0  0  0  0  0  0  0  0  0  0
   -1.8943    1.3603   -0.4399 H   0  0  0  0  0  0  0  0  0  0  0  0
    0.2078    1.5768   -0.7835 C   0  0  0  0  0  0  0  0  0  0  0  0
    0.7359    1.9300   -2.0398 C   0  0  0  0  0  0  0  0  0  0  0  0
    0.2647    1.5757   -2.9458 H   0  0  0  0  0  0  0  0  0  0  0  0
    1.8727    2.7553   -2.1208 C   0  0  0  0  0  0  0  0  0  0  0  0
    2.2781    3.0232   -3.0864 H   0  0  0  0  0  0  0  0  0  0  0  0
    2.4819    3.2302   -0.9470 C   0  0  0  0  0  0  0  0  0  0  0  0
    3.3566    3.8623   -1.0092 H   0  0  0  0  0  0  0  0  0  0  0  0
    1.9575    2.8779    0.3100 C   0  0  0  0  0  0  0  0  0  0  0  0
    2.4289    3.2384    1.2125 H   0  0  0  0  0  0  0  0  0  0  0  0
    0.8235    2.0505    0.3907 C   0  0  0  0  0  0  0  0  0  0  0  0
    0.4230    1.7775    1.3584 H   0  0  0  0  0  0  0  0  0  0  0  0
   -0.6196    0.1253    1.7539 C   0  0  0  0  0  0  0  0  0  0  0  0
    0.5216    0.0194    2.2054 O   0  0  0  0  0  0  0  0  0  0  0  0
   -1.6152    0.6924    2.4469 N   0  0  0  0  0  0  0  0  0  0  0  0
   -2.5345    0.6914    2.0318 H   0  0  0  0  0  0  0  0  0  0  0  0
   -1.4720    1.2390    3.7941 C   0  0  0  0  0  0  0  0  0  0  0  0
   -0.6345    1.9391    3.8219 H   0  0  0  0  0  0  0  0  0  0  0  0
   -2.3844    1.7580    4.0892 H   0  0  0  0  0  0  0  0  0  0  0  0
   -1.2733    0.4298    4.4995 H   0  0  0  0  0  0  0  0  0  0  0  0
  5  6  2  0  0  0  0
  5  7  1  0  0  0  0
  2  3  1  0  0  0  0
  2  4  1  0  0  0  0
  2  5  1  0  0  0  0
  1  2  1  0  0  0  0
 25 26  2  0  0  0  0
 25 27  1  0  0  0  0
 23 24  1  0  0  0  0
 21 22  1  0  0  0  0
 21 23  2  0  0  0  0
 19 20  1  0  0  0  0
 19 21  1  0  0  0  0
 17 18  1  0  0  0  0
 17 19  2  0  0  0  0
 15 16  1  0  0  0  0
 15 17  1  0  0  0  0
 14 15  2  0  0  0  0
 14 23  1  0  0  0  0
 11 12  1  0  0  0  0
 11 13  1  0  0  0  0
 11 14  1  0  0  0  0
  9 10  1  0  0  0  0
  9 11  1  0  0  0  0
  9 25  1  0  0  0  0
  7  8  1  0  0  0  0
  7  9  1  0  0  0  0
 29 30  1  0  0  0  0
 29 31  1  0  0  0  0
 29 32  1  0  0  0  0
 27 28  1  0  0  0  0
 27 29  1  0  0  0  0
M  END
$$$$
default_name
  -OEChem-02102213163D

 32 32  0     1  0  0  0  0  0999 V2000
   -3.8405   -3.7518    1.6252 H   0  0  0  0  0  0  0  0  0  0  0  0
   -3.7965   -2.8768    0.9782 C   0  0  0  0  0  0  0  0  0  0  0  0
   -4.5465   -2.1527    1.2902 H   0  0  0  0  0  0  0  0  0  0  0  0
   -3.9745   -3.1748   -0.0538 H   0  0  0  0  0  0  0  0  0  0  0  0
   -2.4245   -2.2537    1.0882 C   0  0  0  0  0  0  0  0  0  0  0  0
   -1.5805   -2.7478    1.8242 O   0  0  0  0  0  0  0  0  0  0  0  0
   -2.2045   -1.1637    0.3562 N   0  0  0  0  0  0  0  0  0  0  0  0
   -2.9595   -0.7907   -0.2008 H   0  0  0  0  0  0  0  0  0  0  0  0
   -0.9485   -0.4087    0.3482 C   0  0  1  0  0  0  0  0  0  0  0  0
   -0.1408   -1.0795    0.0507 H   0  0  0  0  0  0  0  0  0  0  0  0
   -1.0432    0.7243   -0.6879 C   0  0  0  0  0  0  0  0  0  0  0  0
   -1.2333    0.2915   -1.6712 H   0  0  0  0  0  0  0  0  0  0  0  0
   -1.8943    1.3603   -0.4399 H   0  0  0  0  0  0  0  0  0  0  0  0
    0.2078    1.5768   -0.7835 C   0  0  0  0  0  0  0  0  0  0  0  0
    0.5610    2.1912   -2.0000 C   0  0  0  0  0  0  0  0  0  0  0  0
   -0.0466    2.0398   -2.8810 H   0  0  0  0  0  0  0  0  0  0  0  0
    1.7002    3.0140   -2.0705 C   0  0  0  0  0  0  0  0  0  0  0  0
    1.9711    3.4827   -3.0062 H   0  0  0  0  0  0  0  0  0  0  0  0
    2.4867    3.2255   -0.9254 C   0  0  0  0  0  0  0  0  0  0  0  0
    3.3633    3.8558   -0.9802 H   0  0  0  0  0  0  0  0  0  0  0  0
    2.1374    2.6120    0.2914 C   0  0  0  0  0  0  0  0  0  0  0  0
    2.7449    2.7701    1.1704 H   0  0  0  0  0  0  0  0  0  0  0  0
    1.0007    1.7870    0.3607 C   0  0  0  0  0  0  0  0  0  0  0  0
    0.7349    1.3129    1.2966 H   0  0  0  0  0  0  0  0  0  0  0  0
   -0.6196    0.1253    1.7539 C   0  0  0  0  0  0  0  0  0  0  0  0
    0.5216    0.0194    2.2054 O   0  0  0  0  0  0  0  0  0  0  0  0
   -1.6152    0.6924    2.4469 N   0  0  0  0  0  0  0  0  0  0  0  0
   -2.5345    0.6914    2.0318 H   0  0  0  0  0  0  0  0  0  0  0  0
   -1.4720    1.2390    3.7941 C   0  0  0  0  0  0  0  0  0  0  0  0
   -0.6345    1.9391    3.8219 H   0  0  0  0  0  0  0  0  0  0  0  0
   -2.3844    1.7580    4.0892 H   0  0  0  0  0  0  0  0  0  0  0  0
   -1.2733    0.4298    4.4995 H   0  0  0  0  0  0  0  0  0  0  0  0
  5  6  2  0  0  0  0
  5  7  1  0  0  0  0
  2  3  1  0  0  0  0
  2  4  1  0  0  0  0
  2  5  1  0  0  0  0
  1  2  1  0  0  0  0
 25 26  2  0  0  0  0
 25 27  1  0  0  0  0
 23 24  1  0  0  0  0
 21 22  1  0  0  0  0
 21 23  2  0  0  0  0
 19 20  1  0  0  0  0
 19 21  1  0  0  0  0
 17 18  1  0  0  0  0
 17 19  2  0  0  0  0
 15 16  1  0  0  0  0
 15 17  1  0  0  0  0
 14 15  2  0  0  0  0
 14 23  1  0  0  0  0
 11 12  1  0  0  0  0
 11 13  1  0  0  0  0
 11 14  1  0  0  0  0
  9 10  1  0  0  0  0
  9 11  1  0  0  0  0
  9 25  1  0  0  0  0
  7  8  1  0  0  0  0
  7  9  1  0  0  0  0
 29 30  1  0  0  0  0
 29 31  1  0  0  0  0
 29 32  1  0  0  0  0
 27 28  1  0  0  0  0
 27 29  1  0  0  0  0
M  END
$$$$
default_name
  -OEChem-02102213163D

 32 32  0     1  0  0  0  0  0999 V2000
   -3.8405   -3.7518    1.6252 H   0  0  0  0  0  0  0  0  0  0  0  0
   -3.7965   -2.8768    0.9782 C   0  0  0  0  0  0  0  0  0  0  0  0
   -4.5465   -2.1527    1.2902 H   0  0  0  0  0  0  0  0  0  0  0  0
   -3.9745   -3.1748   -0.0538 H   0  0  0  0  0  0  0  0  0  0  0  0
   -2.4245   -2.2537    1.0882 C   0  0  0  0  0  0  0  0  0  0  0  0
   -1.5805   -2.7478    1.8242 O   0  0  0  0  0  0  0  0  0  0  0  0
   -2.2045   -1.1637    0.3562 N   0  0  0  0  0  0  0  0  0  0  0  0
   -2.9595   -0.7907   -0.2008 H   0  0  0  0  0  0  0  0  0  0  0  0
   -0.9485   -0.4087    0.3482 C   0  0  1  0  0  0  0  0  0  0  0  0
   -0.1408   -1.0795    0.0507 H   0  0  0  0  0  0  0  0  0  0  0  0
   -1.0432    0.7243   -0.6879 C   0  0  0  0  0  0  0  0  0  0  0  0
   -1.2333    0.2915   -1.6712 H   0  0  0  0  0  0  0  0  0  0  0  0
   -1.8943    1.3603   -0.4399 H   0  0  0  0  0  0  0  0  0  0  0  0
    0.2078    1.5768   -0.7835 C   0  0  0  0  0  0  0  0  0  0  0  0
    0.4021    2.4378   -1.8803 C   0  0  0  0  0  0  0  0  0  0  0  0
   -0.3304    2.4794   -2.6741 H   0  0  0  0  0  0  0  0  0  0  0  0
    1.5452    3.2560   -1.9415 C   0  0  0  0  0  0  0  0  0  0  0  0
    1.6937    3.9145   -2.7859 H   0  0  0  0  0  0  0  0  0  0  0  0
    2.4944    3.2164   -0.9062 C   0  0  0  0  0  0  0  0  0  0  0  0
    3.3738    3.8433   -0.9544 H   0  0  0  0  0  0  0  0  0  0  0  0
    2.3041    2.3561    0.1905 C   0  0  0  0  0  0  0  0  0  0  0  0
    3.0363    2.3215    0.9838 H   0  0  0  0  0  0  0  0  0  0  0  0
    1.1632    1.5361    0.2498 C   0  0  0  0  0  0  0  0  0  0  0  0
    1.0196    0.8723    1.0924 H   0  0  0  0  0  0  0  0  0  0  0  0
   -0.6196    0.1253    1.7539 C   0  0  0  0  0  0  0  0  0  0  0  0
    0.5216    0.0194    2.2054 O   0  0  0  0  0  0  0  0  0  0  0  0
   -1.6152    0.6924    2.4469 N   0  0  0  0  0  0  0  0  0  0  0  0
   -2.5345    0.6914    2.0318 H   0  0  0  0  0  0  0  0  0  0  0  0
   -1.4720    1.2390    3.7941 C   0  0  0  0  0  0  0  0  0  0  0  0
   -0.6345    1.9391    3.8219 H   0  0  0  0  0  0  0  0  0  0  0  0
   -2.3844    1.7580    4.0892 H   0  0  0  0  0  0  0  0  0  0  0  0
   -1.2733    0.4298    4.4995 H   0  0  0  0  0  0  0  0  0  0  0  0
  5  6  2  0  0  0  0
  5  7  1  0  0  0  0
  2  3  1  0  0  0  0
  2  4  1  0  0  0  0
  2  5  1  0  0  0  0
  1  2  1  0  0  0  0
 25 26  2  0  0  0  0
 25 27  1  0  0  0  0
 23 24  1  0  0  0  0
 21 22  1  0  0  0  0
 21 23  2  0  0  0  0
 19 20  1  0  0  0  0
 19 21  1  0  0  0  0
 17 18  1  0  0  0  0
 17 19  2  0  0  0  0
 15 16  1  0  0  0  0
 15 17  1  0  0  0  0
 14 15  2  0  0  0  0
 14 23  1  0  0  0  0
 11 12  1  0  0  0  0
 11 13  1  0  0  0  0
 11 14  1  0  0  0  0
  9 10  1  0  0  0  0
  9 11  1  0  0  0  0
  9 25  1  0  0  0  0
  7  8  1  0  0  0  0
  7  9  1  0  0  0  0
 29 30  1  0  0  0  0
 29 31  1  0  0  0  0
 29 32  1  0  0  0  0
 27 28  1  0  0  0  0
 27 29  1  0  0  0  0
M  END
$$$$
default_name
  -OEChem-02102213163D

 32 32  0     1  0  0  0  0  0999 V2000
   -3.8405   -3.7518    1.6252 H   0  0  0  0  0  0  0  0  0  0  0  0
   -3.7965   -2.8768    0.9782 C   0  0  0  0  0  0  0  0  0  0  0  0
   -4.5465   -2.1527    1.2902 H   0  0  0  0  0  0  0  0  0  0  0  0
   -3.9745   -3.1748   -0.0538 H   0  0  0  0  0  0  0  0  0  0  0  0
   -2.4245   -2.2537    1.0882 C   0  0  0  0  0  0  0  0  0  0  0  0
   -1.5805   -2.7478    1.8242 O   0  0  0  0  0  0  0  0  0  0  0  0
   -2.2045   -1.1637    0.3562 N   0  0  0  0  0  0  0  0  0  0  0  0
   -2.9595   -0.7907   -0.2008 H   0  0  0  0  0  0  0  0  0  0  0  0
   -0.9485   -0.4087    0.3482 C   0  0  1  0  0  0  0  0  0  0  0  0
   -0.1408   -1.0795    0.0507 H   0  0  0  0  0  0  0  0  0  0  0  0
   -1.0432    0.7243   -0.6879 C   0  0  0  0  0  0  0  0  0  0  0  0
   -1.4905    0.3327   -1.6027 H   0  0  0  0  0  0  0  0  0  0  0  0
   -1.7079    1.4998   -0.3044 H   0  0  0  0  0  0  0  0  0  0  0  0
    0.2942    1.3436   -1.0465 C   0  0  0  0  0  0  0  0  0  0  0  0
    0.3664    2.3930   -1.9822 C   0  0  0  0  0  0  0  0  0  0  0  0
   -0.5307    2.7490   -2.4687 H   0  0  0  0  0  0  0  0  0  0  0  0
    1.6055    2.9902   -2.2788 C   0  0  0  0  0  0  0  0  0  0  0  0
    1.6590    3.7941   -2.9995 H   0  0  0  0  0  0  0  0  0  0  0  0
    2.7735    2.5409   -1.6397 C   0  0  0  0  0  0  0  0  0  0  0  0
    3.7257    2.9981   -1.8694 H   0  0  0  0  0  0  0  0  0  0  0  0
    2.7051    1.4915   -0.7053 C   0  0  0  0  0  0  0  0  0  0  0  0
    3.6036    1.1424   -0.2179 H   0  0  0  0  0  0  0  0  0  0  0  0
    1.4672    0.8927   -0.4114 C   0  0  0  0  0  0  0  0  0  0  0  0
    1.4164    0.0832    0.3051 H   0  0  0  0  0  0  0  0  0  0  0  0
   -0.6196    0.1253    1.7539 C   0  0  0  0  0  0  0  0  0  0  0  0
    0.5216    0.0194    2.2054 O   0  0  0  0  0  0  0  0  0  0  0  0
   -1.6152    0.6924    2.4469 N   0  0  0  0  0  0  0  0  0  0  0  0
   -2.5345    0.6914    2.0318 H   0  0  0  0  0  0  0  0  0  0  0  0
   -1.4720    1.2390    3.7941 C   0  0  0  0  0  0  0  0  0  0  0  0
   -0.6345    1.9391    3.8219 H   0  0  0  0  0  0  0  0  0  0  0  0
   -2.3844    1.7580    4.0892 H   0  0  0  0  0  0  0  0  0  0  0  0
   -1.2733    0.4298    4.4995 H   0  0  0  0  0  0  0  0  0  0  0  0
  5  6  2  0  0  0  0
  5  7  1  0  0  0  0
  2  3  1  0  0  0  0
  2  4  1  0  0  0  0
  2  5  1  0  0  0  0
  1  2  1  0  0  0  0
 25 26  2  0  0  0  0
 25 27  1  0  0  0  0
 23 24  1  0  0  0  0
 21 22  1  0  0  0  0
 21 23  2  0  0  0  0
 19 20  1  0  0  0  0
 19 21  1  0  0  0  0
 17 18  1  0  0  0  0
 17 19  2  0  0  0  0
 15 16  1  0  0  0  0
 15 17  1  0  0  0  0
 14 15  2  0  0  0  0
 14 23  1  0  0  0  0
 11 12  1  0  0  0  0
 11 13  1  0  0  0  0
 11 14  1  0  0  0  0
  9 10  1  0  0  0  0
  9 11  1  0  0  0  0
  9 25  1  0  0  0  0
  7  8  1  0  0  0  0
  7  9  1  0  0  0  0
 29 30  1  0  0  0  0
 29 31  1  0  0  0  0
 29 32  1  0  0  0  0
 27 28  1  0  0  0  0
 27 29  1  0  0  0  0
M  END
$$$$
default_name
  -OEChem-02102213163D

 32 32  0     1  0  0  0  0  0999 V2000
   -3.8405   -3.7518    1.6252 H   0  0  0  0  0  0  0  0  0  0  0  0
   -3.7965   -2.8768    0.9782 C   0  0  0  0  0  0  0  0  0  0  0  0
   -4.5465   -2.1527    1.2902 H   0  0  0  0  0  0  0  0  0  0  0  0
   -3.9745   -3.1748   -0.0538 H   0  0  0  0  0  0  0  0  0  0  0  0
   -2.4245   -2.2537    1.0882 C   0  0  0  0  0  0  0  0  0  0  0  0
   -1.5805   -2.7478    1.8242 O   0  0  0  0  0  0  0  0  0  0  0  0
   -2.2045   -1.1637    0.3562 N   0  0  0  0  0  0  0  0  0  0  0  0
   -2.9595   -0.7907   -0.2008 H   0  0  0  0  0  0  0  0  0  0  0  0
   -0.9485   -0.4087    0.3482 C   0  0  1  0  0  0  0  0  0  0  0  0
   -0.1408   -1.0795    0.0507 H   0  0  0  0  0  0  0  0  0  0  0  0
   -1.0432    0.7243   -0.6879 C   0  0  0  0  0  0  0  0  0  0  0  0
   -1.4905    0.3327   -1.6027 H   0  0  0  0  0  0  0  0  0  0  0  0
   -1.7079    1.4998   -0.3044 H   0  0  0  0  0  0  0  0  0  0  0  0
    0.2942    1.3436   -1.0465 C   0  0  0  0  0  0  0  0  0  0  0  0
    0.3507    2.5763   -1.7242 C   0  0  0  0  0  0  0  0  0  0  0  0
   -0.5614    3.0787   -2.0139 H   0  0  0  0  0  0  0  0  0  0  0  0
    1.5950    3.1646   -2.0167 C   0  0  0  0  0  0  0  0  0  0  0  0
    1.6361    4.1099   -2.5395 H   0  0  0  0  0  0  0  0  0  0  0  0
    2.7841    2.5230   -1.6309 C   0  0  0  0  0  0  0  0  0  0  0  0
    3.7401    2.9738   -1.8578 H   0  0  0  0  0  0  0  0  0  0  0  0
    2.7313    1.2904   -0.9549 C   0  0  0  0  0  0  0  0  0  0  0  0
    3.6454    0.7945   -0.6630 H   0  0  0  0  0  0  0  0  0  0  0  0
    1.4877    0.7011   -0.6656 C   0  0  0  0  0  0  0  0  0  0  0  0
    1.4485   -0.2488   -0.1484 H   0  0  0  0  0  0  0  0  0  0  0  0
   -0.6196    0.1253    1.7539 C   0  0  0  0  0  0  0  0  0  0  0  0
    0.5216    0.0194    2.2054 O   0  0  0  0  0  0  0  0  0  0  0  0
   -1.6152    0.6924    2.4469 N   0  0  0  0  0  0  0  0  0  0  0  0
   -2.5345    0.6914    2.0318 H   0  0  0  0  0  0  0  0  0  0  0  0
   -1.4720    1.2390    3.7941 C   0  0  0  0  0  0  0  0  0  0  0  0
   -0.6345    1.9391    3.8219 H   0  0  0  0  0  0  0  0  0  0  0  0
   -2.3844    1.7580    4.0892 H   0  0  0  0  0  0  0  0  0  0  0  0
   -1.2733    0.4298    4.4995 H   0  0  0  0  0  0  0  0  0  0  0  0
  5  6  2  0  0  0  0
  5  7  1  0  0  0  0
  2  3  1  0  0  0  0
  2  4  1  0  0  0  0
  2  5  1  0  0  0  0
  1  2  1  0  0  0  0
 25 26  2  0  0  0  0
 25 27  1  0  0  0  0
 23 24  1  0  0  0  0
 21 22  1  0  0  0  0
 21 23  2  0  0  0  0
 19 20  1  0  0  0  0
 19 21  1  0  0  0  0
 17 18  1  0  0  0  0
 17 19  2  0  0  0  0
 15 16  1  0  0  0  0
 15 17  1  0  0  0  0
 14 15  2  0  0  0  0
 14 23  1  0  0  0  0
 11 12  1  0  0  0  0
 11 13  1  0  0  0  0
 11 14  1  0  0  0  0
  9 10  1  0  0  0  0
  9 11  1  0  0  0  0
  9 25  1  0  0  0  0
  7  8  1  0  0  0  0
  7  9  1  0  0  0  0
 29 30  1  0  0  0  0
 29 31  1  0  0  0  0
 29 32  1  0  0  0  0
 27 28  1  0  0  0  0
 27 29  1  0  0  0  0
M  END
$$$$
default_name
  -OEChem-02102213163D

 32 32  0     1  0  0  0  0  0999 V2000
   -3.8405   -3.7518    1.6252 H   0  0  0  0  0  0  0  0  0  0  0  0
   -3.7965   -2.8768    0.9782 C   0  0  0  0  0  0  0  0  0  0  0  0
   -4.5465   -2.1527    1.2902 H   0  0  0  0  0  0  0  0  0  0  0  0
   -3.9745   -3.1748   -0.0538 H   0  0  0  0  0  0  0  0  0  0  0  0
   -2.4245   -2.2537    1.0882 C   0  0  0  0  0  0  0  0  0  0  0  0
   -1.5805   -2.7478    1.8242 O   0  0  0  0  0  0  0  0  0  0  0  0
   -2.2045   -1.1637    0.3562 N   0  0  0  0  0  0  0  0  0  0  0  0
   -2.9595   -0.7907   -0.2008 H   0  0  0  0  0  0  0  0  0  0  0  0
   -0.9485   -0.4087    0.3482 C   0  0  1  0  0  0  0  0  0  0  0  0
   -0.1408   -1.0795    0.0507 H   0  0  0  0  0  0  0  0  0  0  0  0
   -1.0432    0.7243   -0.6879 C   0  0  0  0  0  0  0  0  0  0  0  0
   -1.4905    0.3327   -1.6027 H   0  0  0  0  0  0  0  0  0  0  0  0
   -1.7079    1.4998   -0.3044 H   0  0  0  0  0  0  0  0  0  0  0  0
    0.2942    1.3436   -1.0465 C   0  0  0  0  0  0  0  0  0  0  0  0
    0.3740    2.6954   -1.4315 C   0  0  0  0  0  0  0  0  0  0  0  0
   -0.5229    3.2952   -1.4960 H   0  0  0  0  0  0  0  0  0  0  0  0
    1.6232    3.2739   -1.7227 C   0  0  0  0  0  0  0  0  0  0  0  0
    1.6819    4.3113   -2.0206 H   0  0  0  0  0  0  0  0  0  0  0  0
    2.7942    2.5030   -1.6277 C   0  0  0  0  0  0  0  0  0  0  0  0
    3.7537    2.9468   -1.8536 H   0  0  0  0  0  0  0  0  0  0  0  0
    2.7179    1.1515   -1.2446 C   0  0  0  0  0  0  0  0  0  0  0  0
    3.6174    0.5574   -1.1768 H   0  0  0  0  0  0  0  0  0  0  0  0
    1.4691    0.5728   -0.9569 C   0  0  0  0  0  0  0  0  0  0  0  0
    1.4114   -0.4679   -0.6656 H   0  0  0  0  0  0  0  0  0  0  0  0
   -0.6196    0.1253    1.7539 C   0  0  0  0  0  0  0  0  0  0  0  0
    0.5216    0.0194    2.2054 O   0  0  0  0  0  0  0  0  0  0  0  0
   -1.6152    0.6924    2.4469 N   0  0  0  0  0  0  0  0  0  0  0  0
   -2.5345    0.6914    2.0318 H   0  0  0  0  0  0  0  0  0  0  0  0
   -1.4720    1.2390    3.7941 C   0  0  0  0  0  0  0  0  0  0  0  0
   -0.6345    1.9391    3.8219 H   0  0  0  0  0  0  0  0  0  0  0  0
   -2.3844    1.7580    4.0892 H   0  0  0  0  0  0  0  0  0  0  0  0
   -1.2733    0.4298    4.4995 H   0  0  0  0  0  0  0  0  0  0  0  0
  5  6  2  0  0  0  0
  5  7  1  0  0  0  0
  2  3  1  0  0  0  0
  2  4  1  0  0  0  0
  2  5  1  0  0  0  0
  1  2  1  0  0  0  0
 25 26  2  0  0  0  0
 25 27  1  0  0  0  0
 23 24  1  0  0  0  0
 21 22  1  0  0  0  0
 21 23  2  0  0  0  0
 19 20  1  0  0  0  0
 19 21  1  0  0  0  0
 17 18  1  0  0  0  0
 17 19  2  0  0  0  0
 15 16  1  0  0  0  0
 15 17  1  0  0  0  0
 14 15  2  0  0  0  0
 14 23  1  0  0  0  0
 11 12  1  0  0  0  0
 11 13  1  0  0  0  0
 11 14  1  0  0  0  0
  9 10  1  0  0  0  0
  9 11  1  0  0  0  0
  9 25  1  0  0  0  0
  7  8  1  0  0  0  0
  7  9  1  0  0  0  0
 29 30  1  0  0  0  0
 29 31  1  0  0  0  0
 29 32  1  0  0  0  0
 27 28  1  0  0  0  0
 27 29  1  0  0  0  0
M  END
$$$$
default_name
  -OEChem-02102213163D

 32 32  0     1  0  0  0  0  0999 V2000
   -3.8405   -3.7518    1.6252 H   0  0  0  0  0  0  0  0  0  0  0  0
   -3.7965   -2.8768    0.9782 C   0  0  0  0  0  0  0  0  0  0  0  0
   -4.5465   -2.1527    1.2902 H   0  0  0  0  0  0  0  0  0  0  0  0
   -3.9745   -3.1748   -0.0538 H   0  0  0  0  0  0  0  0  0  0  0  0
   -2.4245   -2.2537    1.0882 C   0  0  0  0  0  0  0  0  0  0  0  0
   -1.5805   -2.7478    1.8242 O   0  0  0  0  0  0  0  0  0  0  0  0
   -2.2045   -1.1637    0.3562 N   0  0  0  0  0  0  0  0  0  0  0  0
   -2.9595   -0.7907   -0.2008 H   0  0  0  0  0  0  0  0  0  0  0  0
   -0.9485   -0.4087    0.3482 C   0  0  1  0  0  0  0  0  0  0  0  0
   -0.1408   -1.0795    0.0507 H   0  0  0  0  0  0  0  0  0  0  0  0
   -1.0432    0.7243   -0.6879 C   0  0  0  0  0  0  0  0  0  0  0  0
   -1.4905    0.3327   -1.6027 H   0  0  0  0  0  0  0  0  0  0  0  0
   -1.7079    1.4998   -0.3044 H   0  0  0  0  0  0  0  0  0  0  0  0
    0.2942    1.3436   -1.0465 C   0  0  0  0  0  0  0  0  0  0  0  0
    0.4347    2.7423   -1.1241 C   0  0  0  0  0  0  0  0  0  0  0  0
   -0.4177    3.3838   -0.9504 H   0  0  0  0  0  0  0  0  0  0  0  0
    1.6882    3.3106   -1.4167 C   0  0  0  0  0  0  0  0  0  0  0  0
    1.7933    4.3847   -1.4783 H   0  0  0  0  0  0  0  0  0  0  0  0
    2.8031    2.4824   -1.6301 C   0  0  0  0  0  0  0  0  0  0  0  0
    3.7657    2.9190   -1.8573 H   0  0  0  0  0  0  0  0  0  0  0  0
    2.6659    1.0843   -1.5548 C   0  0  0  0  0  0  0  0  0  0  0  0
    3.5216    0.4474   -1.7243 H   0  0  0  0  0  0  0  0  0  0  0  0
    1.4124    0.5165   -1.2657 C   0  0  0  0  0  0  0  0  0  0  0  0
    1.3074   -0.5593   -1.2113 H   0  0  0  0  0  0  0  0  0  0  0  0
   -0.6196    0.1253    1.7539 C   0  0  0  0  0  0  0  0  0  0  0  0
    0.5216    0.0194    2.2054 O   0  0  0  0  0  0  0  0  0  0  0  0
   -1.6152    0.6924    2.4469 N   0  0  0  0  0  0  0  0  0  0  0  0
   -2.5345    0.6914    2.0318 H   0  0  0  0  0  0  0  0  0  0  0  0
   -1.4720    1.2390    3.7941 C   0  0  0  0  0  0  0  0  0  0  0  0
   -0.6345    1.9391    3.8219 H   0  0  0  0  0  0  0  0  0  0  0  0
   -2.3844    1.7580    4.0892 H   0  0  0  0  0  0  0  0  0  0  0  0
   -1.2733    0.4298    4.4995 H   0  0  0  0  0  0  0  0  0  0  0  0
  5  6  2  0  0  0  0
  5  7  1  0  0  0  0
  2  3  1  0  0  0  0
  2  4  1  0  0  0  0
  2  5  1  0  0  0  0
  1  2  1  0  0  0  0
 25 26  2  0  0  0  0
 25 27  1  0  0  0  0
 23 24  1  0  0  0  0
 21 22  1  0  0  0  0
 21 23  2  0  0  0  0
 19 20  1  0  0  0  0
 19 21  1  0  0  0  0
 17 18  1  0  0  0  0
 17 19  2  0  0  0  0
 15 16  1  0  0  0  0
 15 17  1  0  0  0  0
 14 15  2  0  0  0  0
 14 23  1  0  0  0  0
 11 12  1  0  0  0  0
 11 13  1  0  0  0  0
 11 14  1  0  0  0  0
  9 10  1  0  0  0  0
  9 11  1  0  0  0  0
  9 25  1  0  0  0  0
  7  8  1  0  0  0  0
  7  9  1  0  0  0  0
 29 30  1  0  0  0  0
 29 31  1  0  0  0  0
 29 32  1  0  0  0  0
 27 28  1  0  0  0  0
 27 29  1  0  0  0  0
M  END
$$$$
default_name
  -OEChem-02102213163D

 32 32  0     1  0  0  0  0  0999 V2000
   -3.8405   -3.7518    1.6252 H   0  0  0  0  0  0  0  0  0  0  0  0
   -3.7965   -2.8768    0.9782 C   0  0  0  0  0  0  0  0  0  0  0  0
   -4.5465   -2.1527    1.2902 H   0  0  0  0  0  0  0  0  0  0  0  0
   -3.9745   -3.1748   -0.0538 H   0  0  0  0  0  0  0  0  0  0  0  0
   -2.4245   -2.2537    1.0882 C   0  0  0  0  0  0  0  0  0  0  0  0
   -1.5805   -2.7478    1.8242 O   0  0  0  0  0  0  0  0  0  0  0  0
   -2.2045   -1.1637    0.3562 N   0  0  0  0  0  0  0  0  0  0  0  0
   -2.9595   -0.7907   -0.2008 H   0  0  0  0  0  0  0  0  0  0  0  0
   -0.9485   -0.4087    0.3482 C   0  0  1  0  0  0  0  0  0  0  0  0
   -0.1408   -1.0795    0.0507 H   0  0  0  0  0  0  0  0  0  0  0  0
   -1.0432    0.7243   -0.6879 C   0  0  0  0  0  0  0  0  0  0  0  0
   -1.4905    0.3327   -1.6027 H   0  0  0  0  0  0  0  0  0  0  0  0
   -1.7079    1.4998   -0.3044 H   0  0  0  0  0  0  0  0  0  0  0  0
    0.2942    1.3436   -1.0465 C   0  0  0  0  0  0  0  0  0  0  0  0
    0.5287    2.7136   -0.8229 C   0  0  0  0  0  0  0  0  0  0  0  0
   -0.2530    3.3385   -0.4144 H   0  0  0  0  0  0  0  0  0  0  0  0
    1.7856    3.2723   -1.1196 C   0  0  0  0  0  0  0  0  0  0  0  0
    1.9627    4.3250   -0.9495 H   0  0  0  0  0  0  0  0  0  0  0  0
    2.8102    2.4624   -1.6382 C   0  0  0  0  0  0  0  0  0  0  0  0
    3.7751    2.8922   -1.8683 H   0  0  0  0  0  0  0  0  0  0  0  0
    2.5788    1.0934   -1.8643 C   0  0  0  0  0  0  0  0  0  0  0  0
    3.3645    0.4719   -2.2680 H   0  0  0  0  0  0  0  0  0  0  0  0
    1.3215    0.5361   -1.5707 C   0  0  0  0  0  0  0  0  0  0  0  0
    1.1437   -0.5166   -1.7482 H   0  0  0  0  0  0  0  0  0  0  0  0
   -0.6196    0.1253    1.7539 C   0  0  0  0  0  0  0  0  0  0  0  0
    0.5216    0.0194    2.2054 O   0  0  0  0  0  0  0  0  0  0  0  0
   -1.6152    0.6924    2.4469 N   0  0  0  0  0  0  0  0  0  0  0  0
   -2.5345    0.6914    2.0318 H   0  0  0  0  0  0  0  0  0  0  0  0
   -1.4720    1.2390    3.7941 C   0  0  0  0  0  0  0  0  0  0  0  0
   -0.6345    1.9391    3.8219 H   0  0  0  0  0  0  0  0  0  0  0  0
   -2.3844    1.7580    4.0892 H   0  0  0  0  0  0  0  0  0  0  0  0
   -1.2733    0.4298    4.4995 H   0  0  0  0  0  0  0  0  0  0  0  0
  5  6  2  0  0  0  0
  5  7  1  0  0  0  0
  2  3  1  0  0  0  0
  2  4  1  0  0  0  0
  2  5  1  0  0  0  0
  1  2  1  0  0  0  0
 25 26  2  0  0  0  0
 25 27  1  0  0  0  0
 23 24  1  0  0  0  0
 21 22  1  0  0  0  0
 21 23  2  0  0  0  0
 19 20  1  0  0  0  0
 19 21  1  0  0  0  0
 17 18  1  0  0  0  0
 17 19  2  0  0  0  0
 15 16  1  0  0  0  0
 15 17  1  0  0  0  0
 14 15  2  0  0  0  0
 14 23  1  0  0  0  0
 11 12  1  0  0  0  0
 11 13  1  0  0  0  0
 11 14  1  0  0  0  0
  9 10  1  0  0  0  0
  9 11  1  0  0  0  0
  9 25  1  0  0  0  0
  7  8  1  0  0  0  0
  7  9  1  0  0  0  0
 29 30  1  0  0  0  0
 29 31  1  0  0  0  0
 29 32  1  0  0  0  0
 27 28  1  0  0  0  0
 27 29  1  0  0  0  0
M  END
$$$$
default_name
  -OEChem-02102213163D

 32 32  0     1  0  0  0  0  0999 V2000
   -3.8405   -3.7518    1.6252 H   0  0  0  0  0  0  0  0  0  0  0  0
   -3.7965   -2.8768    0.9782 C   0  0  0  0  0  0  0  0  0  0  0  0
   -4.5465   -2.1527    1.2902 H   0  0  0  0  0  0  0  0  0  0  0  0
   -3.9745   -3.1748   -0.0538 H   0  0  0  0  0  0  0  0  0  0  0  0
   -2.4245   -2.2537    1.0882 C   0  0  0  0  0  0  0  0  0  0  0  0
   -1.5805   -2.7478    1.8242 O   0  0  0  0  0  0  0  0  0  0  0  0
   -2.2045   -1.1637    0.3562 N   0  0  0  0  0  0  0  0  0  0  0  0
   -2.9595   -0.7907   -0.2008 H   0  0  0  0  0  0  0  0  0  0  0  0
   -0.9485   -0.4087    0.3482 C   0  0  1  0  0  0  0  0  0  0  0  0
   -0.1408   -1.0795    0.0507 H   0  0  0  0  0  0  0  0  0  0  0  0
   -1.0432    0.7243   -0.6879 C   0  0  0  0  0  0  0  0  0  0  0  0
   -1.4905    0.3327   -1.6027 H   0  0  0  0  0  0  0  0  0  0  0  0
   -1.7079    1.4998   -0.3044 H   0  0  0  0  0  0  0  0  0  0  0  0
    0.2942    1.3436   -1.0465 C   0  0  0  0  0  0  0  0  0  0  0  0
    0.6496    2.6115   -0.5483 C   0  0  0  0  0  0  0  0  0  0  0  0
   -0.0400    3.1623    0.0757 H   0  0  0  0  0  0  0  0  0  0  0  0
    1.9087    3.1615   -0.8516 C   0  0  0  0  0  0  0  0  0  0  0  0
    2.1786    4.1363   -0.4702 H   0  0  0  0  0  0  0  0  0  0  0  0
    2.8150    2.4446   -1.6513 C   0  0  0  0  0  0  0  0  0  0  0  0
    3.7814    2.8682   -1.8862 H   0  0  0  0  0  0  0  0  0  0  0  0
    2.4624    1.1781   -2.1519 C   0  0  0  0  0  0  0  0  0  0  0  0
    3.1568    0.6292   -2.7711 H   0  0  0  0  0  0  0  0  0  0  0  0
    1.2027    0.6301   -1.8514 C   0  0  0  0  0  0  0  0  0  0  0  0
    0.9315   -0.3429   -2.2399 H   0  0  0  0  0  0  0  0  0  0  0  0
   -0.6196    0.1253    1.7539 C   0  0  0  0  0  0  0  0  0  0  0  0
    0.5216    0.0194    2.2054 O   0  0  0  0  0  0  0  0  0  0  0  0
   -1.6152    0.6924    2.4469 N   0  0  0  0  0  0  0  0  0  0  0  0
   -2.5345    0.6914    2.0318 H   0  0  0  0  0  0  0  0  0  0  0  0
   -1.4720    1.2390    3.7941 C   0  0  0  0  0  0  0  0  0  0  0  0
   -0.6345    1.9391    3.8219 H   0  0  0  0  0  0  0  0  0  0  0  0
   -2.3844    1.7580    4.0892 H   0  0  0  0  0  0  0  0  0  0  0  0
   -1.2733    0.4298    4.4995 H   0  0  0  0  0  0  0  0  0  0  0  0
  5  6  2  0  0  0  0
  5  7  1  0  0  0  0
  2  3  1  0  0  0  0
  2  4  1  0  0  0  0
  2  5  1  0  0  0  0
  1  2  1  0  0  0  0
 25 26  2  0  0  0  0
 25 27  1  0  0  0  0
 23 24  1  0  0  0  0
 21 22  1  0  0  0  0
 21 23  2  0  0  0  0
 19 20  1  0  0  0  0
 19 21  1  0  0  0  0
 17 18  1  0  0  0  0
 17 19  2  0  0  0  0
 15 16  1  0  0  0  0
 15 17  1  0  0  0  0
 14 15  2  0  0  0  0
 14 23  1  0  0  0  0
 11 12  1  0  0  0  0
 11 13  1  0  0  0  0
 11 14  1  0  0  0  0
  9 10  1  0  0  0  0
  9 11  1  0  0  0  0
  9 25  1  0  0  0  0
  7  8  1  0  0  0  0
  7  9  1  0  0  0  0
 29 30  1  0  0  0  0
 29 31  1  0  0  0  0
 29 32  1  0  0  0  0
 27 28  1  0  0  0  0
 27 29  1  0  0  0  0
M  END
$$$$
default_name
  -OEChem-02102213163D

 32 32  0     1  0  0  0  0  0999 V2000
   -3.8405   -3.7518    1.6252 H   0  0  0  0  0  0  0  0  0  0  0  0
   -3.7965   -2.8768    0.9782 C   0  0  0  0  0  0  0  0  0  0  0  0
   -4.5465   -2.1527    1.2902 H   0  0  0  0  0  0  0  0  0  0  0  0
   -3.9745   -3.1748   -0.0538 H   0  0  0  0  0  0  0  0  0  0  0  0
   -2.4245   -2.2537    1.0882 C   0  0  0  0  0  0  0  0  0  0  0  0
   -1.5805   -2.7478    1.8242 O   0  0  0  0  0  0  0  0  0  0  0  0
   -2.2045   -1.1637    0.3562 N   0  0  0  0  0  0  0  0  0  0  0  0
   -2.9595   -0.7907   -0.2008 H   0  0  0  0  0  0  0  0  0  0  0  0
   -0.9485   -0.4087    0.3482 C   0  0  1  0  0  0  0  0  0  0  0  0
   -0.1408   -1.0795    0.0507 H   0  0  0  0  0  0  0  0  0  0  0  0
   -1.0432    0.7243   -0.6879 C   0  0  0  0  0  0  0  0  0  0  0  0
   -1.4905    0.3327   -1.6027 H   0  0  0  0  0  0  0  0  0  0  0  0
   -1.7079    1.4998   -0.3044 H   0  0  0  0  0  0  0  0  0  0  0  0
    0.2942    1.3436   -1.0465 C   0  0  0  0  0  0  0  0  0  0  0  0
    0.7891    2.4428   -0.3193 C   0  0  0  0  0  0  0  0  0  0  0  0
    0.2067    2.8672    0.4863 H   0  0  0  0  0  0  0  0  0  0  0  0
    2.0492    2.9858   -0.6311 C   0  0  0  0  0  0  0  0  0  0  0  0
    2.4262    3.8314   -0.0732 H   0  0  0  0  0  0  0  0  0  0  0  0
    2.8171    2.4301   -1.6685 C   0  0  0  0  0  0  0  0  0  0  0  0
    3.7841    2.8488   -1.9095 H   0  0  0  0  0  0  0  0  0  0  0  0
    2.3249    1.3326   -2.3981 C   0  0  0  0  0  0  0  0  0  0  0  0
    2.9126    0.9088   -3.1991 H   0  0  0  0  0  0  0  0  0  0  0  0
    1.0641    0.7923   -2.0884 C   0  0  0  0  0  0  0  0  0  0  0  0
    0.6851   -0.0499   -2.6527 H   0  0  0  0  0  0  0  0  0  0  0  0
   -0.6196    0.1253    1.7539 C   0  0  0  0  0  0  0  0  0  0  0  0
    0.5216    0.0194    2.2054 O   0  0  0  0  0  0  0  0  0  0  0  0
   -1.6152    0.6924    2.4469 N   0  0  0  0  0  0  0  0  0  0  0  0
   -2.5345    0.6914    2.0318 H   0  0  0  0  0  0  0  0  0  0  0  0
   -1.4720    1.2390    3.7941 C   0  0  0  0  0  0  0  0  0  0  0  0
   -0.6345    1.9391    3.8219 H   0  0  0  0  0  0  0  0  0  0  0  0
   -2.3844    1.7580    4.0892 H   0  0  0  0  0  0  0  0  0  0  0  0
   -1.2733    0.4298    4.4995 H   0  0  0  0  0  0  0  0  0  0  0  0
  5  6  2  0  0  0  0
  5  7  1  0  0  0  0
  2  3  1  0  0  0  0
  2  4  1  0  0  0  0
  2  5  1  0  0  0  0
  1  2  1  0  0  0  0
 25 26  2  0  0  0  0
 25 27  1  0  0  0  0
 23 24  1  0  0  0  0
 21 22  1  0  0  0  0
 21 23  2  0  0  0  0
 19 20  1  0  0  0  0
 19 21  1  0  0  0  0
 17 18  1  0  0  0  0
 17 19  2  0  0  0  0
 15 16  1  0  0  0  0
 15 17  1  0  0  0  0
 14 15  2  0  0  0  0
 14 23  1  0  0  0  0
 11 12  1  0  0  0  0
 11 13  1  0  0  0  0
 11 14  1  0  0  0  0
  9 10  1  0  0  0  0
  9 11  1  0  0  0  0
  9 25  1  0  0  0  0
  7  8  1  0  0  0  0
  7  9  1  0  0  0  0
 29 30  1  0  0  0  0
 29 31  1  0  0  0  0
 29 32  1  0  0  0  0
 27 28  1  0  0  0  0
 27 29  1  0  0  0  0
M  END
$$$$
default_name
  -OEChem-02102213163D

 32 32  0     1  0  0  0  0  0999 V2000
   -3.8405   -3.7518    1.6252 H   0  0  0  0  0  0  0  0  0  0  0  0
   -3.7965   -2.8768    0.9782 C   0  0  0  0  0  0  0  0  0  0  0  0
   -4.5465   -2.1527    1.2902 H   0  0  0  0  0  0  0  0  0  0  0  0
   -3.9745   -3.1748   -0.0538 H   0  0  0  0  0  0  0  0  0  0  0  0
   -2.4245   -2.2537    1.0882 C   0  0  0  0  0  0  0  0  0  0  0  0
   -1.5805   -2.7478    1.8242 O   0  0  0  0  0  0  0  0  0  0  0  0
   -2.2045   -1.1637    0.3562 N   0  0  0  0  0  0  0  0  0  0  0  0
   -2.9595   -0.7907   -0.2008 H   0  0  0  0  0  0  0  0  0  0  0  0
   -0.9485   -0.4087    0.3482 C   0  0  1  0  0  0  0  0  0  0  0  0
   -0.1408   -1.0795    0.0507 H   0  0  0  0  0  0  0  0  0  0  0  0
   -1.0432    0.7243   -0.6879 C   0  0  0  0  0  0  0  0  0  0  0  0
   -1.4905    0.3327   -1.6027 H   0  0  0  0  0  0  0  0  0  0  0  0
   -1.7079    1.4998   -0.3044 H   0  0  0  0  0  0  0  0  0  0  0  0
    0.2942    1.3436   -1.0465 C   0  0  0  0  0  0  0  0  0  0  0  0
    0.9378    2.2191   -0.1513 C   0  0  0  0  0  0  0  0  0  0  0  0
    0.4704    2.4734    0.7896 H   0  0  0  0  0  0  0  0  0  0  0  0
    2.1974    2.7572   -0.4730 C   0  0  0  0  0  0  0  0  0  0  0  0
    2.6887    3.4312    0.2146 H   0  0  0  0  0  0  0  0  0  0  0  0
    2.8164    2.4198   -1.6886 C   0  0  0  0  0  0  0  0  0  0  0  0
    3.7831    2.8351   -1.9368 H   0  0  0  0  0  0  0  0  0  0  0  0
    2.1754    1.5465   -2.5861 C   0  0  0  0  0  0  0  0  0  0  0  0
    2.6486    1.2914   -3.5229 H   0  0  0  0  0  0  0  0  0  0  0  0
    0.9151    1.0115   -2.2657 C   0  0  0  0  0  0  0  0  0  0  0  0
    0.4215    0.3424   -2.9585 H   0  0  0  0  0  0  0  0  0  0  0  0
   -0.6196    0.1253    1.7539 C   0  0  0  0  0  0  0  0  0  0  0  0
    0.5216    0.0194    2.2054 O   0  0  0  0  0  0  0  0  0  0  0  0
   -1.6152    0.6924    2.4469 N   0  0  0  0  0  0  0  0  0  0  0  0
   -2.5345    0.6914    2.0318 H   0  0  0  0  0  0  0  0  0  0  0  0
   -1.4720    1.2390    3.7941 C   0  0  0  0  0  0  0  0  0  0  0  0
   -0.6345    1.9391    3.8219 H   0  0  0  0  0  0  0  0  0  0  0  0
   -2.3844    1.7580    4.0892 H   0  0  0  0  0  0  0  0  0  0  0  0
   -1.2733    0.4298    4.4995 H   0  0  0  0  0  0  0  0  0  0  0  0
  5  6  2  0  0  0  0
  5  7  1  0  0  0  0
  2  3  1  0  0  0  0
  2  4  1  0  0  0  0
  2  5  1  0  0  0  0
  1  2  1  0  0  0  0
 25 26  2  0  0  0  0
 25 27  1  0  0  0  0
 23 24  1  0  0  0  0
 21 22  1  0  0  0  0
 21 23  2  0  0  0  0
 19 20  1  0  0  0  0
 19 21  1  0  0  0  0
 17 18  1  0  0  0  0
 17 19  2  0  0  0  0
 15 16  1  0  0  0  0
 15 17  1  0  0  0  0
 14 15  2  0  0  0  0
 14 23  1  0  0  0  0
 11 12  1  0  0  0  0
 11 13  1  0  0  0  0
 11 14  1  0  0  0  0
  9 10  1  0  0  0  0
  9 11  1  0  0  0  0
  9 25  1  0  0  0  0
  7  8  1  0  0  0  0
  7  9  1  0  0  0  0
 29 30  1  0  0  0  0
 29 31  1  0  0  0  0
 29 32  1  0  0  0  0
 27 28  1  0  0  0  0
 27 29  1  0  0  0  0
M  END
$$$$
default_name
  -OEChem-02102213163D

 32 32  0     1  0  0  0  0  0999 V2000
   -3.8405   -3.7518    1.6252 H   0  0  0  0  0  0  0  0  0  0  0  0
   -3.7965   -2.8768    0.9782 C   0  0  0  0  0  0  0  0  0  0  0  0
   -4.5465   -2.1527    1.2902 H   0  0  0  0  0  0  0  0  0  0  0  0
   -3.9745   -3.1748   -0.0538 H   0  0  0  0  0  0  0  0  0  0  0  0
   -2.4245   -2.2537    1.0882 C   0  0  0  0  0  0  0  0  0  0  0  0
   -1.5805   -2.7478    1.8242 O   0  0  0  0  0  0  0  0  0  0  0  0
   -2.2045   -1.1637    0.3562 N   0  0  0  0  0  0  0  0  0  0  0  0
   -2.9595   -0.7907   -0.2008 H   0  0  0  0  0  0  0  0  0  0  0  0
   -0.9485   -0.4087    0.3482 C   0  0  1  0  0  0  0  0  0  0  0  0
   -0.1408   -1.0795    0.0507 H   0  0  0  0  0  0  0  0  0  0  0  0
   -1.0432    0.7243   -0.6879 C   0  0  0  0  0  0  0  0  0  0  0  0
   -1.4905    0.3327   -1.6027 H   0  0  0  0  0  0  0  0  0  0  0  0
   -1.7079    1.4998   -0.3044 H   0  0  0  0  0  0  0  0  0  0  0  0
    0.2942    1.3436   -1.0465 C   0  0  0  0  0  0  0  0  0  0  0  0
    1.0854    1.9555   -0.0557 C   0  0  0  0  0  0  0  0  0  0  0  0
    0.7330    2.0077    0.9647 H   0  0  0  0  0  0  0  0  0  0  0  0
    2.3433    2.4912   -0.3882 C   0  0  0  0  0  0  0  0  0  0  0  0
    2.9481    2.9629    0.3736 H   0  0  0  0  0  0  0  0  0  0  0  0
    2.8130    2.4146   -1.7104 C   0  0  0  0  0  0  0  0  0  0  0  0
    3.7784    2.8283   -1.9662 H   0  0  0  0  0  0  0  0  0  0  0  0
    2.0243    1.8052   -2.7031 C   0  0  0  0  0  0  0  0  0  0  0  0
    2.3828    1.7510   -3.7206 H   0  0  0  0  0  0  0  0  0  0  0  0
    0.7658    1.2728   -2.3712 C   0  0  0  0  0  0  0  0  0  0  0  0
    0.1585    0.8072   -3.1365 H   0  0  0  0  0  0  0  0  0  0  0  0
   -0.6196    0.1253    1.7539 C   0  0  0  0  0  0  0  0  0  0  0  0
    0.5216    0.0194    2.2054 O   0  0  0  0  0  0  0  0  0  0  0  0
   -1.6152    0.6924    2.4469 N   0  0  0  0  0  0  0  0  0  0  0  0
   -2.5345    0.6914    2.0318 H   0  0  0  0  0  0  0  0  0  0  0  0
   -1.4720    1.2390    3.7941 C   0  0  0  0  0  0  0  0  0  0  0  0
   -0.6345    1.9391    3.8219 H   0  0  0  0  0  0  0  0  0  0  0  0
   -2.3844    1.7580    4.0892 H   0  0  0  0  0  0  0  0  0  0  0  0
   -1.2733    0.4298    4.4995 H   0  0  0  0  0  0  0  0  0  0  0  0
  5  6  2  0  0  0  0
  5  7  1  0  0  0  0
  2  3  1  0  0  0  0
  2  4  1  0  0  0  0
  2  5  1  0  0  0  0
  1  2  1  0  0  0  0
 25 26  2  0  0  0  0
 25 27  1  0  0  0  0
 23 24  1  0  0  0  0
 21 22  1  0  0  0  0
 21 23  2  0  0  0  0
 19 20  1  0  0  0  0
 19 21  1  0  0  0  0
 17 18  1  0  0  0  0
 17 19  2  0  0  0  0
 15 16  1  0  0  0  0
 15 17  1  0  0  0  0
 14 15  2  0  0  0  0
 14 23  1  0  0  0  0
 11 12  1  0  0  0  0
 11 13  1  0  0  0  0
 11 14  1  0  0  0  0
  9 10  1  0  0  0  0
  9 11  1  0  0  0  0
  9 25  1  0  0  0  0
  7  8  1  0  0  0  0
  7  9  1  0  0  0  0
 29 30  1  0  0  0  0
 29 31  1  0  0  0  0
 29 32  1  0  0  0  0
 27 28  1  0  0  0  0
 27 29  1  0  0  0  0
M  END
$$$$
default_name
  -OEChem-02102213163D

 32 32  0     1  0  0  0  0  0999 V2000
   -3.8405   -3.7518    1.6252 H   0  0  0  0  0  0  0  0  0  0  0  0
   -3.7965   -2.8768    0.9782 C   0  0  0  0  0  0  0  0  0  0  0  0
   -4.5465   -2.1527    1.2902 H   0  0  0  0  0  0  0  0  0  0  0  0
   -3.9745   -3.1748   -0.0538 H   0  0  0  0  0  0  0  0  0  0  0  0
   -2.4245   -2.2537    1.0882 C   0  0  0  0  0  0  0  0  0  0  0  0
   -1.5805   -2.7478    1.8242 O   0  0  0  0  0  0  0  0  0  0  0  0
   -2.2045   -1.1637    0.3562 N   0  0  0  0  0  0  0  0  0  0  0  0
   -2.9595   -0.7907   -0.2008 H   0  0  0  0  0  0  0  0  0  0  0  0
   -0.9485   -0.4087    0.3482 C   0  0  1  0  0  0  0  0  0  0  0  0
   -0.1408   -1.0795    0.0507 H   0  0  0  0  0  0  0  0  0  0  0  0
   -1.0432    0.7243   -0.6879 C   0  0  0  0  0  0  0  0  0  0  0  0
   -1.4905    0.3327   -1.6027 H   0  0  0  0  0  0  0  0  0  0  0  0
   -1.7079    1.4998   -0.3044 H   0  0  0  0  0  0  0  0  0  0  0  0
    0.2942    1.3436   -1.0465 C   0  0  0  0  0  0  0  0  0  0  0  0
    1.2220    1.6701   -0.0392 C   0  0  0  0  0  0  0  0  0  0  0  0
    0.9767    1.5018    0.9999 H   0  0  0  0  0  0  0  0  0  0  0  0
    2.4770    2.2060   -0.3823 C   0  0  0  0  0  0  0  0  0  0  0  0
    3.1869    2.4584    0.3928 H   0  0  0  0  0  0  0  0  0  0  0  0
    2.8071    2.4147   -1.7322 C   0  0  0  0  0  0  0  0  0  0  0  0
    3.7704    2.8286   -1.9956 H   0  0  0  0  0  0  0  0  0  0  0  0
    1.8818    2.0909   -2.7411 C   0  0  0  0  0  0  0  0  0  0  0  0
    2.1333    2.2563   -3.7785 H   0  0  0  0  0  0  0  0  0  0  0  0
    0.6264    1.5584   -2.3977 C   0  0  0  0  0  0  0  0  0  0  0  0
   -0.0859    1.3129   -3.1747 H   0  0  0  0  0  0  0  0  0  0  0  0
   -0.6196    0.1253    1.7539 C   0  0  0  0  0  0  0  0  0  0  0  0
    0.5216    0.0194    2.2054 O   0  0  0  0  0  0  0  0  0  0  0  0
   -1.6152    0.6924    2.4469 N   0  0  0  0  0  0  0  0  0  0  0  0
   -2.5345    0.6914    2.0318 H   0  0  0  0  0  0  0  0  0  0  0  0
   -1.4720    1.2390    3.7941 C   0  0  0  0  0  0  0  0  0  0  0  0
   -0.6345    1.9391    3.8219 H   0  0  0  0  0  0  0  0  0  0  0  0
   -2.3844    1.7580    4.0892 H   0  0  0  0  0  0  0  0  0  0  0  0
   -1.2733    0.4298    4.4995 H   0  0  0  0  0  0  0  0  0  0  0  0
  5  6  2  0  0  0  0
  5  7  1  0  0  0  0
  2  3  1  0  0  0  0
  2  4  1  0  0  0  0
  2  5  1  0  0  0  0
  1  2  1  0  0  0  0
 25 26  2  0  0  0  0
 25 27  1  0  0  0  0
 23 24  1  0  0  0  0
 21 22  1  0  0  0  0
 21 23  2  0  0  0  0
 19 20  1  0  0  0  0
 19 21  1  0  0  0  0
 17 18  1  0  0  0  0
 17 19  2  0  0  0  0
 15 16  1  0  0  0  0
 15 17  1  0  0  0  0
 14 15  2  0  0  0  0
 14 23  1  0  0  0  0
 11 12  1  0  0  0  0
 11 13  1  0  0  0  0
 11 14  1  0  0  0  0
  9 10  1  0  0  0  0
  9 11  1  0  0  0  0
  9 25  1  0  0  0  0
  7  8  1  0  0  0  0
  7  9  1  0  0  0  0
 29 30  1  0  0  0  0
 29 31  1  0  0  0  0
 29 32  1  0  0  0  0
 27 28  1  0  0  0  0
 27 29  1  0  0  0  0
M  END
$$$$
default_name
  -OEChem-02102213163D

 32 32  0     1  0  0  0  0  0999 V2000
   -3.8405   -3.7518    1.6252 H   0  0  0  0  0  0  0  0  0  0  0  0
   -3.7965   -2.8768    0.9782 C   0  0  0  0  0  0  0  0  0  0  0  0
   -4.5465   -2.1527    1.2902 H   0  0  0  0  0  0  0  0  0  0  0  0
   -3.9745   -3.1748   -0.0538 H   0  0  0  0  0  0  0  0  0  0  0  0
   -2.4245   -2.2537    1.0882 C   0  0  0  0  0  0  0  0  0  0  0  0
   -1.5805   -2.7478    1.8242 O   0  0  0  0  0  0  0  0  0  0  0  0
   -2.2045   -1.1637    0.3562 N   0  0  0  0  0  0  0  0  0  0  0  0
   -2.9595   -0.7907   -0.2008 H   0  0  0  0  0  0  0  0  0  0  0  0
   -0.9485   -0.4087    0.3482 C   0  0  1  0  0  0  0  0  0  0  0  0
   -0.1408   -1.0795    0.0507 H   0  0  0  0  0  0  0  0  0  0  0  0
   -1.0432    0.7243   -0.6879 C   0  0  0  0  0  0  0  0  0  0  0  0
   -1.4905    0.3327   -1.6027 H   0  0  0  0  0  0  0  0  0  0  0  0
   -1.7079    1.4998   -0.3044 H   0  0  0  0  0  0  0  0  0  0  0  0
    0.2942    1.3436   -1.0465 C   0  0  0  0  0  0  0  0  0  0  0  0
    1.3383    1.3823   -0.1028 C   0  0  0  0  0  0  0  0  0  0  0  0
    1.1848    0.9902    0.8927 H   0  0  0  0  0  0  0  0  0  0  0  0
    2.5892    1.9211   -0.4559 C   0  0  0  0  0  0  0  0  0  0  0  0
    3.3887    1.9521    0.2710 H   0  0  0  0  0  0  0  0  0  0  0  0
    2.7991    2.4201   -1.7527 C   0  0  0  0  0  0  0  0  0  0  0  0
    3.7595    2.8362   -2.0231 H   0  0  0  0  0  0  0  0  0  0  0  0
    1.7575    2.3844   -2.6975 C   0  0  0  0  0  0  0  0  0  0  0  0
    1.9171    2.7729   -3.6927 H   0  0  0  0  0  0  0  0  0  0  0  0
    0.5065    1.8489   -2.3434 C   0  0  0  0  0  0  0  0  0  0  0  0
   -0.2951    1.8250   -3.0702 H   0  0  0  0  0  0  0  0  0  0  0  0
   -0.6196    0.1253    1.7539 C   0  0  0  0  0  0  0  0  0  0  0  0
    0.5216    0.0194    2.2054 O   0  0  0  0  0  0  0  0  0  0  0  0
   -1.6152    0.6924    2.4469 N   0  0  0  0  0  0  0  0  0  0  0  0
   -2.5345    0.6914    2.0318 H   0  0  0  0  0  0  0  0  0  0  0  0
   -1.4720    1.2390    3.7941 C   0  0  0  0  0  0  0  0  0  0  0  0
   -0.6345    1.9391    3.8219 H   0  0  0  0  0  0  0  0  0  0  0  0
   -2.3844    1.7580    4.0892 H   0  0  0  0  0  0  0  0  0  0  0  0
   -1.2733    0.4298    4.4995 H   0  0  0  0  0  0  0  0  0  0  0  0
  5  6  2  0  0  0  0
  5  7  1  0  0  0  0
  2  3  1  0  0  0  0
  2  4  1  0  0  0  0
  2  5  1  0  0  0  0
  1  2  1  0  0  0  0
 25 26  2  0  0  0  0
 25 27  1  0  0  0  0
 23 24  1  0  0  0  0
 21 22  1  0  0  0  0
 21 23  2  0  0  0  0
 19 20  1  0  0  0  0
 19 21  1  0  0  0  0
 17 18  1  0  0  0  0
 17 19  2  0  0  0  0
 15 16  1  0  0  0  0
 15 17  1  0  0  0  0
 14 15  2  0  0  0  0
 14 23  1  0  0  0  0
 11 12  1  0  0  0  0
 11 13  1  0  0  0  0
 11 14  1  0  0  0  0
  9 10  1  0  0  0  0
  9 11  1  0  0  0  0
  9 25  1  0  0  0  0
  7  8  1  0  0  0  0
  7  9  1  0  0  0  0
 29 30  1  0  0  0  0
 29 31  1  0  0  0  0
 29 32  1  0  0  0  0
 27 28  1  0  0  0  0
 27 29  1  0  0  0  0
M  END
$$$$
default_name
  -OEChem-02102213163D

 32 32  0     1  0  0  0  0  0999 V2000
   -3.8405   -3.7518    1.6252 H   0  0  0  0  0  0  0  0  0  0  0  0
   -3.7965   -2.8768    0.9782 C   0  0  0  0  0  0  0  0  0  0  0  0
   -4.5465   -2.1527    1.2902 H   0  0  0  0  0  0  0  0  0  0  0  0
   -3.9745   -3.1748   -0.0538 H   0  0  0  0  0  0  0  0  0  0  0  0
   -2.4245   -2.2537    1.0882 C   0  0  0  0  0  0  0  0  0  0  0  0
   -1.5805   -2.7478    1.8242 O   0  0  0  0  0  0  0  0  0  0  0  0
   -2.2045   -1.1637    0.3562 N   0  0  0  0  0  0  0  0  0  0  0  0
   -2.9595   -0.7907   -0.2008 H   0  0  0  0  0  0  0  0  0  0  0  0
   -0.9485   -0.4087    0.3482 C   0  0  1  0  0  0  0  0  0  0  0  0
   -0.1408   -1.0795    0.0507 H   0  0  0  0  0  0  0  0  0  0  0  0
   -1.0432    0.7243   -0.6879 C   0  0  0  0  0  0  0  0  0  0  0  0
   -1.4905    0.3327   -1.6027 H   0  0  0  0  0  0  0  0  0  0  0  0
   -1.7079    1.4998   -0.3044 H   0  0  0  0  0  0  0  0  0  0  0  0
    0.2942    1.3436   -1.0465 C   0  0  0  0  0  0  0  0  0  0  0  0
    1.4262    1.1117   -0.2422 C   0  0  0  0  0  0  0  0  0  0  0  0
    1.3433    0.5078    0.6504 H   0  0  0  0  0  0  0  0  0  0  0  0
    2.6724    1.6557   -0.6039 C   0  0  0  0  0  0  0  0  0  0  0  0
    3.5398    1.4785    0.0165 H   0  0  0  0  0  0  0  0  0  0  0  0
    2.7896    2.4305   -1.7703 C   0  0  0  0  0  0  0  0  0  0  0  0
    3.7466    2.8504   -2.0468 H   0  0  0  0  0  0  0  0  0  0  0  0
    1.6601    2.6655   -2.5754 C   0  0  0  0  0  0  0  0  0  0  0  0
    1.7489    3.2655   -3.4691 H   0  0  0  0  0  0  0  0  0  0  0  0
    0.4141    2.1244   -2.2120 C   0  0  0  0  0  0  0  0  0  0  0  0
   -0.4547    2.3087   -2.8304 H   0  0  0  0  0  0  0  0  0  0  0  0
   -0.6196    0.1253    1.7539 C   0  0  0  0  0  0  0  0  0  0  0  0
    0.5216    0.0194    2.2054 O   0  0  0  0  0  0  0  0  0  0  0  0
   -1.6152    0.6924    2.4469 N   0  0  0  0  0  0  0  0  0  0  0  0
   -2.5345    0.6914    2.0318 H   0  0  0  0  0  0  0  0  0  0  0  0
   -1.4720    1.2390    3.7941 C   0  0  0  0  0  0  0  0  0  0  0  0
   -0.6345    1.9391    3.8219 H   0  0  0  0  0  0  0  0  0  0  0  0
   -2.3844    1.7580    4.0892 H   0  0  0  0  0  0  0  0  0  0  0  0
   -1.2733    0.4298    4.4995 H   0  0  0  0  0  0  0  0  0  0  0  0
  5  6  2  0  0  0  0
  5  7  1  0  0  0  0
  2  3  1  0  0  0  0
  2  4  1  0  0  0  0
  2  5  1  0  0  0  0
  1  2  1  0  0  0  0
 25 26  2  0  0  0  0
 25 27  1  0  0  0  0
 23 24  1  0  0  0  0
 21 22  1  0  0  0  0
 21 23  2  0  0  0  0
 19 20  1  0  0  0  0
 19 21  1  0  0  0  0
 17 18  1  0  0  0  0
 17 19  2  0  0  0  0
 15 16  1  0  0  0  0
 15 17  1  0  0  0  0
 14 15  2  0  0  0  0
 14 23  1  0  0  0  0
 11 12  1  0  0  0  0
 11 13  1  0  0  0  0
 11 14  1  0  0  0  0
  9 10  1  0  0  0  0
  9 11  1  0  0  0  0
  9 25  1  0  0  0  0
  7  8  1  0  0  0  0
  7  9  1  0  0  0  0
 29 30  1  0  0  0  0
 29 31  1  0  0  0  0
 29 32  1  0  0  0  0
 27 28  1  0  0  0  0
 27 29  1  0  0  0  0
M  END
$$$$
default_name
  -OEChem-02102213163D

 32 32  0     1  0  0  0  0  0999 V2000
   -3.8405   -3.7518    1.6252 H   0  0  0  0  0  0  0  0  0  0  0  0
   -3.7965   -2.8768    0.9782 C   0  0  0  0  0  0  0  0  0  0  0  0
   -4.5465   -2.1527    1.2902 H   0  0  0  0  0  0  0  0  0  0  0  0
   -3.9745   -3.1748   -0.0538 H   0  0  0  0  0  0  0  0  0  0  0  0
   -2.4245   -2.2537    1.0882 C   0  0  0  0  0  0  0  0  0  0  0  0
   -1.5805   -2.7478    1.8242 O   0  0  0  0  0  0  0  0  0  0  0  0
   -2.2045   -1.1637    0.3562 N   0  0  0  0  0  0  0  0  0  0  0  0
   -2.9595   -0.7907   -0.2008 H   0  0  0  0  0  0  0  0  0  0  0  0
   -0.9485   -0.4087    0.3482 C   0  0  1  0  0  0  0  0  0  0  0  0
   -0.1408   -1.0795    0.0507 H   0  0  0  0  0  0  0  0  0  0  0  0
   -1.0432    0.7243   -0.6879 C   0  0  0  0  0  0  0  0  0  0  0  0
   -1.4905    0.3327   -1.6027 H   0  0  0  0  0  0  0  0  0  0  0  0
   -1.7079    1.4998   -0.3044 H   0  0  0  0  0  0  0  0  0  0  0  0
    0.2942    1.3436   -1.0465 C   0  0  0  0  0  0  0  0  0  0  0  0
    1.4798    0.8767   -0.4479 C   0  0  0  0  0  0  0  0  0  0  0  0
    1.4412    0.0874    0.2895 H   0  0  0  0  0  0  0  0  0  0  0  0
    2.7210    1.4281   -0.8161 C   0  0  0  0  0  0  0  0  0  0  0  0
    3.6299    1.0699   -0.3534 H   0  0  0  0  0  0  0  0  0  0  0  0
    2.7791    2.4452   -1.7840 C   0  0  0  0  0  0  0  0  0  0  0  0
    3.7324    2.8704   -2.0651 H   0  0  0  0  0  0  0  0  0  0  0  0
    1.5961    2.9151   -2.3829 C   0  0  0  0  0  0  0  0  0  0  0  0
    1.6402    3.7006   -3.1230 H   0  0  0  0  0  0  0  0  0  0  0  0
    0.3557    2.3662   -2.0124 C   0  0  0  0  0  0  0  0  0  0  0  0
   -0.5540    2.7309   -2.4715 H   0  0  0  0  0  0  0  0  0  0  0  0
   -0.6196    0.1253    1.7539 C   0  0  0  0  0  0  0  0  0  0  0  0
    0.5216    0.0194    2.2054 O   0  0  0  0  0  0  0  0  0  0  0  0
   -1.6152    0.6924    2.4469 N   0  0  0  0  0  0  0  0  0  0  0  0
   -2.5345    0.6914    2.0318 H   0  0  0  0  0  0  0  0  0  0  0  0
   -1.4720    1.2390    3.7941 C   0  0  0  0  0  0  0  0  0  0  0  0
   -0.6345    1.9391    3.8219 H   0  0  0  0  0  0  0  0  0  0  0  0
   -2.3844    1.7580    4.0892 H   0  0  0  0  0  0  0  0  0  0  0  0
   -1.2733    0.4298    4.4995 H   0  0  0  0  0  0  0  0  0  0  0  0
  5  6  2  0  0  0  0
  5  7  1  0  0  0  0
  2  3  1  0  0  0  0
  2  4  1  0  0  0  0
  2  5  1  0  0  0  0
  1  2  1  0  0  0  0
 25 26  2  0  0  0  0
 25 27  1  0  0  0  0
 23 24  1  0  0  0  0
 21 22  1  0  0  0  0
 21 23  2  0  0  0  0
 19 20  1  0  0  0  0
 19 21  1  0  0  0  0
 17 18  1  0  0  0  0
 17 19  2  0  0  0  0
 15 16  1  0  0  0  0
 15 17  1  0  0  0  0
 14 15  2  0  0  0  0
 14 23  1  0  0  0  0
 11 12  1  0  0  0  0
 11 13  1  0  0  0  0
 11 14  1  0  0  0  0
  9 10  1  0  0  0  0
  9 11  1  0  0  0  0
  9 25  1  0  0  0  0
  7  8  1  0  0  0  0
  7  9  1  0  0  0  0
 29 30  1  0  0  0  0
 29 31  1  0  0  0  0
 29 32  1  0  0  0  0
 27 28  1  0  0  0  0
 27 29  1  0  0  0  0
M  END
$$$$
default_name
  -OEChem-02102213163D

 32 32  0     1  0  0  0  0  0999 V2000
   -3.8405   -3.7518    1.6252 H   0  0  0  0  0  0  0  0  0  0  0  0
   -3.7965   -2.8768    0.9782 C   0  0  0  0  0  0  0  0  0  0  0  0
   -4.5465   -2.1527    1.2902 H   0  0  0  0  0  0  0  0  0  0  0  0
   -3.9745   -3.1748   -0.0538 H   0  0  0  0  0  0  0  0  0  0  0  0
   -2.4245   -2.2537    1.0882 C   0  0  0  0  0  0  0  0  0  0  0  0
   -1.5805   -2.7478    1.8242 O   0  0  0  0  0  0  0  0  0  0  0  0
   -2.2045   -1.1637    0.3562 N   0  0  0  0  0  0  0  0  0  0  0  0
   -2.9595   -0.7907   -0.2008 H   0  0  0  0  0  0  0  0  0  0  0  0
   -0.9485   -0.4087    0.3482 C   0  0  1  0  0  0  0  0  0  0  0  0
   -0.1408   -1.0795    0.0507 H   0  0  0  0  0  0  0  0  0  0  0  0
   -1.0432    0.7243   -0.6879 C   0  0  0  0  0  0  0  0  0  0  0  0
   -1.4905    0.3327   -1.6027 H   0  0  0  0  0  0  0  0  0  0  0  0
   -1.7079    1.4998   -0.3044 H   0  0  0  0  0  0  0  0  0  0  0  0
    0.2942    1.3436   -1.0465 C   0  0  0  0  0  0  0  0  0  0  0  0
    1.4956    0.6934   -0.7059 C   0  0  0  0  0  0  0  0  0  0  0  0
    1.4719   -0.2423   -0.1654 H   0  0  0  0  0  0  0  0  0  0  0  0
    2.7315    1.2537   -1.0782 C   0  0  0  0  0  0  0  0  0  0  0  0
    3.6528    0.7541   -0.8135 H   0  0  0  0  0  0  0  0  0  0  0  0
    2.7685    2.4631   -1.7928 C   0  0  0  0  0  0  0  0  0  0  0  0
    3.7181    2.8947   -2.0767 H   0  0  0  0  0  0  0  0  0  0  0  0
    1.5699    3.1162   -2.1333 C   0  0  0  0  0  0  0  0  0  0  0  0
    1.5984    4.0486   -2.6778 H   0  0  0  0  0  0  0  0  0  0  0  0
    0.3351    2.5577   -1.7583 C   0  0  0  0  0  0  0  0  0  0  0  0
   -0.5862    3.0628   -2.0180 H   0  0  0  0  0  0  0  0  0  0  0  0
   -0.6196    0.1253    1.7539 C   0  0  0  0  0  0  0  0  0  0  0  0
    0.5216    0.0194    2.2054 O   0  0  0  0  0  0  0  0  0  0  0  0
   -1.6152    0.6924    2.4469 N   0  0  0  0  0  0  0  0  0  0  0  0
   -2.5345    0.6914    2.0318 H   0  0  0  0  0  0  0  0  0  0  0  0
   -1.4720    1.2390    3.7941 C   0  0  0  0  0  0  0  0  0  0  0  0
   -0.6345    1.9391    3.8219 H   0  0  0  0  0  0  0  0  0  0  0  0
   -2.3844    1.7580    4.0892 H   0  0  0  0  0  0  0  0  0  0  0  0
   -1.2733    0.4298    4.4995 H   0  0  0  0  0  0  0  0  0  0  0  0
  5  6  2  0  0  0  0
  5  7  1  0  0  0  0
  2  3  1  0  0  0  0
  2  4  1  0  0  0  0
  2  5  1  0  0  0  0
  1  2  1  0  0  0  0
 25 26  2  0  0  0  0
 25 27  1  0  0  0  0
 23 24  1  0  0  0  0
 21 22  1  0  0  0  0
 21 23  2  0  0  0  0
 19 20  1  0  0  0  0
 19 21  1  0  0  0  0
 17 18  1  0  0  0  0
 17 19  2  0  0  0  0
 15 16  1  0  0  0  0
 15 17  1  0  0  0  0
 14 15  2  0  0  0  0
 14 23  1  0  0  0  0
 11 12  1  0  0  0  0
 11 13  1  0  0  0  0
 11 14  1  0  0  0  0
  9 10  1  0  0  0  0
  9 11  1  0  0  0  0
  9 25  1  0  0  0  0
  7  8  1  0  0  0  0
  7  9  1  0  0  0  0
 29 30  1  0  0  0  0
 29 31  1  0  0  0  0
 29 32  1  0  0  0  0
 27 28  1  0  0  0  0
 27 29  1  0  0  0  0
M  END
$$$$
default_name
  -OEChem-02102213163D

 32 32  0     1  0  0  0  0  0999 V2000
   -3.8405   -3.7518    1.6252 H   0  0  0  0  0  0  0  0  0  0  0  0
   -3.7965   -2.8768    0.9782 C   0  0  0  0  0  0  0  0  0  0  0  0
   -4.5465   -2.1527    1.2902 H   0  0  0  0  0  0  0  0  0  0  0  0
   -3.9745   -3.1748   -0.0538 H   0  0  0  0  0  0  0  0  0  0  0  0
   -2.4245   -2.2537    1.0882 C   0  0  0  0  0  0  0  0  0  0  0  0
   -1.5805   -2.7478    1.8242 O   0  0  0  0  0  0  0  0  0  0  0  0
   -2.2045   -1.1637    0.3562 N   0  0  0  0  0  0  0  0  0  0  0  0
   -2.9595   -0.7907   -0.2008 H   0  0  0  0  0  0  0  0  0  0  0  0
   -0.9485   -0.4087    0.3482 C   0  0  1  0  0  0  0  0  0  0  0  0
   -0.1408   -1.0795    0.0507 H   0  0  0  0  0  0  0  0  0  0  0  0
   -1.0432    0.7243   -0.6879 C   0  0  0  0  0  0  0  0  0  0  0  0
   -1.4905    0.3327   -1.6027 H   0  0  0  0  0  0  0  0  0  0  0  0
   -1.7079    1.4998   -0.3044 H   0  0  0  0  0  0  0  0  0  0  0  0
    0.2942    1.3436   -1.0465 C   0  0  0  0  0  0  0  0  0  0  0  0
    1.4723    0.5743   -0.9986 C   0  0  0  0  0  0  0  0  0  0  0  0
    1.4334   -0.4588   -0.6833 H   0  0  0  0  0  0  0  0  0  0  0  0
    2.7032    1.1444   -1.3723 C   0  0  0  0  0  0  0  0  0  0  0  0
    3.6070    0.5526   -1.3323 H   0  0  0  0  0  0  0  0  0  0  0  0
    2.7584    2.4831   -1.7960 C   0  0  0  0  0  0  0  0  0  0  0  0
    3.7045    2.9217   -2.0808 H   0  0  0  0  0  0  0  0  0  0  0  0
    1.5833    3.2550   -1.8436 C   0  0  0  0  0  0  0  0  0  0  0  0
    1.6263    4.2856   -2.1640 H   0  0  0  0  0  0  0  0  0  0  0  0
    0.3538    2.6860   -1.4669 C   0  0  0  0  0  0  0  0  0  0  0  0
   -0.5490    3.2820   -1.5007 H   0  0  0  0  0  0  0  0  0  0  0  0
   -0.6196    0.1253    1.7539 C   0  0  0  0  0  0  0  0  0  0  0  0
    0.5216    0.0194    2.2054 O   0  0  0  0  0  0  0  0  0  0  0  0
   -1.6152    0.6924    2.4469 N   0  0  0  0  0  0  0  0  0  0  0  0
   -2.5345    0.6914    2.0318 H   0  0  0  0  0  0  0  0  0  0  0  0
   -1.4720    1.2390    3.7941 C   0  0  0  0  0  0  0  0  0  0  0  0
   -0.6345    1.9391    3.8219 H   0  0  0  0  0  0  0  0  0  0  0  0
   -2.3844    1.7580    4.0892 H   0  0  0  0  0  0  0  0  0  0  0  0
   -1.2733    0.4298    4.4995 H   0  0  0  0  0  0  0  0  0  0  0  0
  5  6  2  0  0  0  0
  5  7  1  0  0  0  0
  2  3  1  0  0  0  0
  2  4  1  0  0  0  0
  2  5  1  0  0  0  0
  1  2  1  0  0  0  0
 25 26  2  0  0  0  0
 25 27  1  0  0  0  0
 23 24  1  0  0  0  0
 21 22  1  0  0  0  0
 21 23  2  0  0  0  0
 19 20  1  0  0  0  0
 19 21  1  0  0  0  0
 17 18  1  0  0  0  0
 17 19  2  0  0  0  0
 15 16  1  0  0  0  0
 15 17  1  0  0  0  0
 14 15  2  0  0  0  0
 14 23  1  0  0  0  0
 11 12  1  0  0  0  0
 11 13  1  0  0  0  0
 11 14  1  0  0  0  0
  9 10  1  0  0  0  0
  9 11  1  0  0  0  0
  9 25  1  0  0  0  0
  7  8  1  0  0  0  0
  7  9  1  0  0  0  0
 29 30  1  0  0  0  0
 29 31  1  0  0  0  0
 29 32  1  0  0  0  0
 27 28  1  0  0  0  0
 27 29  1  0  0  0  0
M  END
$$$$
default_name
  -OEChem-02102213163D

 32 32  0     1  0  0  0  0  0999 V2000
   -3.8405   -3.7518    1.6252 H   0  0  0  0  0  0  0  0  0  0  0  0
   -3.7965   -2.8768    0.9782 C   0  0  0  0  0  0  0  0  0  0  0  0
   -4.5465   -2.1527    1.2902 H   0  0  0  0  0  0  0  0  0  0  0  0
   -3.9745   -3.1748   -0.0538 H   0  0  0  0  0  0  0  0  0  0  0  0
   -2.4245   -2.2537    1.0882 C   0  0  0  0  0  0  0  0  0  0  0  0
   -1.5805   -2.7478    1.8242 O   0  0  0  0  0  0  0  0  0  0  0  0
   -2.2045   -1.1637    0.3562 N   0  0  0  0  0  0  0  0  0  0  0  0
   -2.9595   -0.7907   -0.2008 H   0  0  0  0  0  0  0  0  0  0  0  0
   -0.9485   -0.4087    0.3482 C   0  0  1  0  0  0  0  0  0  0  0  0
   -0.1408   -1.0795    0.0507 H   0  0  0  0  0  0  0  0  0  0  0  0
   -1.0432    0.7243   -0.6879 C   0  0  0  0  0  0  0  0  0  0  0  0
   -1.4905    0.3327   -1.6027 H   0  0  0  0  0  0  0  0  0  0  0  0
   -1.7079    1.4998   -0.3044 H   0  0  0  0  0  0  0  0  0  0  0  0
    0.2942    1.3436   -1.0465 C   0  0  0  0  0  0  0  0  0  0  0  0
    1.4116    0.5275   -1.3060 C   0  0  0  0  0  0  0  0  0  0  0  0
    1.3282   -0.5474   -1.2288 H   0  0  0  0  0  0  0  0  0  0  0  0
    2.6382    1.1076   -1.6783 C   0  0  0  0  0  0  0  0  0  0  0  0
    3.4956    0.4792   -1.8747 H   0  0  0  0  0  0  0  0  0  0  0  0
    2.7495    2.5037   -1.7935 C   0  0  0  0  0  0  0  0  0  0  0  0
    3.6925    2.9495   -2.0772 H   0  0  0  0  0  0  0  0  0  0  0  0
    1.6353    3.3222   -1.5334 C   0  0  0  0  0  0  0  0  0  0  0  0
    1.7221    4.3957   -1.6166 H   0  0  0  0  0  0  0  0  0  0  0  0
    0.4105    2.7423   -1.1582 C   0  0  0  0  0  0  0  0  0  0  0  0
   -0.4450    3.3733   -0.9551 H   0  0  0  0  0  0  0  0  0  0  0  0
   -0.6196    0.1253    1.7539 C   0  0  0  0  0  0  0  0  0  0  0  0
    0.5216    0.0194    2.2054 O   0  0  0  0  0  0  0  0  0  0  0  0
   -1.6152    0.6924    2.4469 N   0  0  0  0  0  0  0  0  0  0  0  0
   -2.5345    0.6914    2.0318 H   0  0  0  0  0  0  0  0  0  0  0  0
   -1.4720    1.2390    3.7941 C   0  0  0  0  0  0  0  0  0  0  0  0
   -0.6345    1.9391    3.8219 H   0  0  0  0  0  0  0  0  0  0  0  0
   -2.3844    1.7580    4.0892 H   0  0  0  0  0  0  0  0  0  0  0  0
   -1.2733    0.4298    4.4995 H   0  0  0  0  0  0  0  0  0  0  0  0
  5  6  2  0  0  0  0
  5  7  1  0  0  0  0
  2  3  1  0  0  0  0
  2  4  1  0  0  0  0
  2  5  1  0  0  0  0
  1  2  1  0  0  0  0
 25 26  2  0  0  0  0
 25 27  1  0  0  0  0
 23 24  1  0  0  0  0
 21 22  1  0  0  0  0
 21 23  2  0  0  0  0
 19 20  1  0  0  0  0
 19 21  1  0  0  0  0
 17 18  1  0  0  0  0
 17 19  2  0  0  0  0
 15 16  1  0  0  0  0
 15 17  1  0  0  0  0
 14 15  2  0  0  0  0
 14 23  1  0  0  0  0
 11 12  1  0  0  0  0
 11 13  1  0  0  0  0
 11 14  1  0  0  0  0
  9 10  1  0  0  0  0
  9 11  1  0  0  0  0
  9 25  1  0  0  0  0
  7  8  1  0  0  0  0
  7  9  1  0  0  0  0
 29 30  1  0  0  0  0
 29 31  1  0  0  0  0
 29 32  1  0  0  0  0
 27 28  1  0  0  0  0
 27 29  1  0  0  0  0
M  END
$$$$
default_name
  -OEChem-02102213163D

 32 32  0     1  0  0  0  0  0999 V2000
   -3.8405   -3.7518    1.6252 H   0  0  0  0  0  0  0  0  0  0  0  0
   -3.7965   -2.8768    0.9782 C   0  0  0  0  0  0  0  0  0  0  0  0
   -4.5465   -2.1527    1.2902 H   0  0  0  0  0  0  0  0  0  0  0  0
   -3.9745   -3.1748   -0.0538 H   0  0  0  0  0  0  0  0  0  0  0  0
   -2.4245   -2.2537    1.0882 C   0  0  0  0  0  0  0  0  0  0  0  0
   -1.5805   -2.7478    1.8242 O   0  0  0  0  0  0  0  0  0  0  0  0
   -2.2045   -1.1637    0.3562 N   0  0  0  0  0  0  0  0  0  0  0  0
   -2.9595   -0.7907   -0.2008 H   0  0  0  0  0  0  0  0  0  0  0  0
   -0.9485   -0.4087    0.3482 C   0  0  1  0  0  0  0  0  0  0  0  0
   -0.1408   -1.0795    0.0507 H   0  0  0  0  0  0  0  0  0  0  0  0
   -1.0432    0.7243   -0.6879 C   0  0  0  0  0  0  0  0  0  0  0  0
   -1.4905    0.3327   -1.6027 H   0  0  0  0  0  0  0  0  0  0  0  0
   -1.7079    1.4998   -0.3044 H   0  0  0  0  0  0  0  0  0  0  0  0
    0.2942    1.3436   -1.0465 C   0  0  0  0  0  0  0  0  0  0  0  0
    1.3176    0.5561   -1.6073 C   0  0  0  0  0  0  0  0  0  0  0  0
    1.1635   -0.5021   -1.7649 H   0  0  0  0  0  0  0  0  0  0  0  0
    2.5408    1.1460   -1.9754 C   0  0  0  0  0  0  0  0  0  0  0  0
    3.3262    0.5389   -2.4035 H   0  0  0  0  0  0  0  0  0  0  0  0
    2.7424    2.5236   -1.7855 C   0  0  0  0  0  0  0  0  0  0  0  0
    3.6831    2.9763   -2.0661 H   0  0  0  0  0  0  0  0  0  0  0  0
    1.7225    3.3132   -1.2240 C   0  0  0  0  0  0  0  0  0  0  0  0
    1.8792    4.3712   -1.0729 H   0  0  0  0  0  0  0  0  0  0  0  0
    0.5013    2.7228   -0.8531 C   0  0  0  0  0  0  0  0  0  0  0  0
   -0.2814    3.3307   -0.4181 H   0  0  0  0  0  0  0  0  0  0  0  0
   -0.6196    0.1253    1.7539 C   0  0  0  0  0  0  0  0  0  0  0  0
    0.5216    0.0194    2.2054 O   0  0  0  0  0  0  0  0  0  0  0  0
   -1.6152    0.6924    2.4469 N   0  0  0  0  0  0  0  0  0  0  0  0
   -2.5345    0.6914    2.0318 H   0  0  0  0  0  0  0  0  0  0  0  0
   -1.4720    1.2390    3.7941 C   0  0  0  0  0  0  0  0  0  0  0  0
   -0.6345    1.9391    3.8219 H   0  0  0  0  0  0  0  0  0  0  0  0
   -2.3844    1.7580    4.0892 H   0  0  0  0  0  0  0  0  0  0  0  0
   -1.2733    0.4298    4.4995 H   0  0  0  0  0  0  0  0  0  0  0  0
  5  6  2  0  0  0  0
  5  7  1  0  0  0  0
  2  3  1  0  0  0  0
  2  4  1  0  0  0  0
  2  5  1  0  0  0  0
  1  2  1  0  0  0  0
 25 26  2  0  0  0  0
 25 27  1  0  0  0  0
 23 24  1  0  0  0  0
 21 22  1  0  0  0  0
 21 23  2  0  0  0  0
 19 20  1  0  0  0  0
 19 21  1  0  0  0  0
 17 18  1  0  0  0  0
 17 19  2  0  0  0  0
 15 16  1  0  0  0  0
 15 17  1  0  0  0  0
 14 15  2  0  0  0  0
 14 23  1  0  0  0  0
 11 12  1  0  0  0  0
 11 13  1  0  0  0  0
 11 14  1  0  0  0  0
  9 10  1  0  0  0  0
  9 11  1  0  0  0  0
  9 25  1  0  0  0  0
  7  8  1  0  0  0  0
  7  9  1  0  0  0  0
 29 30  1  0  0  0  0
 29 31  1  0  0  0  0
 29 32  1  0  0  0  0
 27 28  1  0  0  0  0
 27 29  1  0  0  0  0
M  END
$$$$
default_name
  -OEChem-02102213163D

 32 32  0     1  0  0  0  0  0999 V2000
   -3.8405   -3.7518    1.6252 H   0  0  0  0  0  0  0  0  0  0  0  0
   -3.7965   -2.8768    0.9782 C   0  0  0  0  0  0  0  0  0  0  0  0
   -4.5465   -2.1527    1.2902 H   0  0  0  0  0  0  0  0  0  0  0  0
   -3.9745   -3.1748   -0.0538 H   0  0  0  0  0  0  0  0  0  0  0  0
   -2.4245   -2.2537    1.0882 C   0  0  0  0  0  0  0  0  0  0  0  0
   -1.5805   -2.7478    1.8242 O   0  0  0  0  0  0  0  0  0  0  0  0
   -2.2045   -1.1637    0.3562 N   0  0  0  0  0  0  0  0  0  0  0  0
   -2.9595   -0.7907   -0.2008 H   0  0  0  0  0  0  0  0  0  0  0  0
   -0.9485   -0.4087    0.3482 C   0  0  1  0  0  0  0  0  0  0  0  0
   -0.1408   -1.0795    0.0507 H   0  0  0  0  0  0  0  0  0  0  0  0
   -1.0432    0.7243   -0.6879 C   0  0  0  0  0  0  0  0  0  0  0  0
   -1.4905    0.3327   -1.6027 H   0  0  0  0  0  0  0  0  0  0  0  0
   -1.7079    1.4998   -0.3044 H   0  0  0  0  0  0  0  0  0  0  0  0
    0.2942    1.3436   -1.0465 C   0  0  0  0  0  0  0  0  0  0  0  0
    1.1967    0.6582   -1.8818 C   0  0  0  0  0  0  0  0  0  0  0  0
    0.9505   -0.3259   -2.2549 H   0  0  0  0  0  0  0  0  0  0  0  0
    2.4177    1.2568   -2.2434 C   0  0  0  0  0  0  0  0  0  0  0  0
    3.1103    0.7276   -2.8827 H   0  0  0  0  0  0  0  0  0  0  0  0
    2.7376    2.5415   -1.7724 C   0  0  0  0  0  0  0  0  0  0  0  0
    3.6768    3.0003   -2.0483 H   0  0  0  0  0  0  0  0  0  0  0  0
    1.8388    3.2285   -0.9363 C   0  0  0  0  0  0  0  0  0  0  0  0
    2.0870    4.2138   -0.5698 H   0  0  0  0  0  0  0  0  0  0  0  0
    0.6201    2.6287   -0.5725 C   0  0  0  0  0  0  0  0  0  0  0  0
   -0.0691    3.1570    0.0735 H   0  0  0  0  0  0  0  0  0  0  0  0
   -0.6196    0.1253    1.7539 C   0  0  0  0  0  0  0  0  0  0  0  0
    0.5216    0.0194    2.2054 O   0  0  0  0  0  0  0  0  0  0  0  0
   -1.6152    0.6924    2.4469 N   0  0  0  0  0  0  0  0  0  0  0  0
   -2.5345    0.6914    2.0318 H   0  0  0  0  0  0  0  0  0  0  0  0
   -1.4720    1.2390    3.7941 C   0  0  0  0  0  0  0  0  0  0  0  0
   -0.6345    1.9391    3.8219 H   0  0  0  0  0  0  0  0  0  0  0  0
   -2.3844    1.7580    4.0892 H   0  0  0  0  0  0  0  0  0  0  0  0
   -1.2733    0.4298    4.4995 H   0  0  0  0  0  0  0  0  0  0  0  0
  5  6  2  0  0  0  0
  5  7  1  0  0  0  0
  2  3  1  0  0  0  0
  2  4  1  0  0  0  0
  2  5  1  0  0  0  0
  1  2  1  0  0  0  0
 25 26  2  0  0  0  0
 25 27  1  0  0  0  0
 23 24  1  0  0  0  0
 21 22  1  0  0  0  0
 21 23  2  0  0  0  0
 19 20  1  0  0  0  0
 19 21  1  0  0  0  0
 17 18  1  0  0  0  0
 17 19  2  0  0  0  0
 15 16  1  0  0  0  0
 15 17  1  0  0  0  0
 14 15  2  0  0  0  0
 14 23  1  0  0  0  0
 11 12  1  0  0  0  0
 11 13  1  0  0  0  0
 11 14  1  0  0  0  0
  9 10  1  0  0  0  0
  9 11  1  0  0  0  0
  9 25  1  0  0  0  0
  7  8  1  0  0  0  0
  7  9  1  0  0  0  0
 29 30  1  0  0  0  0
 29 31  1  0  0  0  0
 29 32  1  0  0  0  0
 27 28  1  0  0  0  0
 27 29  1  0  0  0  0
M  END
$$$$
default_name
  -OEChem-02102213163D

 32 32  0     1  0  0  0  0  0999 V2000
   -3.8405   -3.7518    1.6252 H   0  0  0  0  0  0  0  0  0  0  0  0
   -3.7965   -2.8768    0.9782 C   0  0  0  0  0  0  0  0  0  0  0  0
   -4.5465   -2.1527    1.2902 H   0  0  0  0  0  0  0  0  0  0  0  0
   -3.9745   -3.1748   -0.0538 H   0  0  0  0  0  0  0  0  0  0  0  0
   -2.4245   -2.2537    1.0882 C   0  0  0  0  0  0  0  0  0  0  0  0
   -1.5805   -2.7478    1.8242 O   0  0  0  0  0  0  0  0  0  0  0  0
   -2.2045   -1.1637    0.3562 N   0  0  0  0  0  0  0  0  0  0  0  0
   -2.9595   -0.7907   -0.2008 H   0  0  0  0  0  0  0  0  0  0  0  0
   -0.9485   -0.4087    0.3482 C   0  0  1  0  0  0  0  0  0  0  0  0
   -0.1408   -1.0795    0.0507 H   0  0  0  0  0  0  0  0  0  0  0  0
   -1.0432    0.7243   -0.6879 C   0  0  0  0  0  0  0  0  0  0  0  0
   -1.4905    0.3327   -1.6027 H   0  0  0  0  0  0  0  0  0  0  0  0
   -1.7079    1.4998   -0.3044 H   0  0  0  0  0  0  0  0  0  0  0  0
    0.2942    1.3436   -1.0465 C   0  0  0  0  0  0  0  0  0  0  0  0
    1.0572    0.8269   -2.1108 C   0  0  0  0  0  0  0  0  0  0  0  0
    0.7038   -0.0308   -2.6656 H   0  0  0  0  0  0  0  0  0  0  0  0
    2.2772    1.4324   -2.4639 C   0  0  0  0  0  0  0  0  0  0  0  0
    2.8627    1.0325   -3.2798 H   0  0  0  0  0  0  0  0  0  0  0  0
    2.7355    2.5560   -1.7552 C   0  0  0  0  0  0  0  0  0  0  0  0
    3.6740    3.0197   -2.0249 H   0  0  0  0  0  0  0  0  0  0  0  0
    1.9763    3.0739   -0.6901 C   0  0  0  0  0  0  0  0  0  0  0  0
    2.3311    3.9343   -0.1418 H   0  0  0  0  0  0  0  0  0  0  0  0
    0.7587    2.4666   -0.3354 C   0  0  0  0  0  0  0  0  0  0  0  0
    0.1772    2.8640    0.4863 H   0  0  0  0  0  0  0  0  0  0  0  0
   -0.6196    0.1253    1.7539 C   0  0  0  0  0  0  0  0  0  0  0  0
    0.5216    0.0194    2.2054 O   0  0  0  0  0  0  0  0  0  0  0  0
   -1.6152    0.6924    2.4469 N   0  0  0  0  0  0  0  0  0  0  0  0
   -2.5345    0.6914    2.0318 H   0  0  0  0  0  0  0  0  0  0  0  0
   -1.4720    1.2390    3.7941 C   0  0  0  0  0  0  0  0  0  0  0  0
   -0.6345    1.9391    3.8219 H   0  0  0  0  0  0  0  0  0  0  0  0
   -2.3844    1.7580    4.0892 H   0  0  0  0  0  0  0  0  0  0  0  0
   -1.2733    0.4298    4.4995 H   0  0  0  0  0  0  0  0  0  0  0  0
  5  6  2  0  0  0  0
  5  7  1  0  0  0  0
  2  3  1  0  0  0  0
  2  4  1  0  0  0  0
  2  5  1  0  0  0  0
  1  2  1  0  0  0  0
 25 26  2  0  0  0  0
 25 27  1  0  0  0  0
 23 24  1  0  0  0  0
 21 22  1  0  0  0  0
 21 23  2  0  0  0  0
 19 20  1  0  0  0  0
 19 21  1  0  0  0  0
 17 18  1  0  0  0  0
 17 19  2  0  0  0  0
 15 16  1  0  0  0  0
 15 17  1  0  0  0  0
 14 15  2  0  0  0  0
 14 23  1  0  0  0  0
 11 12  1  0  0  0  0
 11 13  1  0  0  0  0
 11 14  1  0  0  0  0
  9 10  1  0  0  0  0
  9 11  1  0  0  0  0
  9 25  1  0  0  0  0
  7  8  1  0  0  0  0
  7  9  1  0  0  0  0
 29 30  1  0  0  0  0
 29 31  1  0  0  0  0
 29 32  1  0  0  0  0
 27 28  1  0  0  0  0
 27 29  1  0  0  0  0
M  END
$$$$
default_name
  -OEChem-02102213163D

 32 32  0     1  0  0  0  0  0999 V2000
   -3.8405   -3.7518    1.6252 H   0  0  0  0  0  0  0  0  0  0  0  0
   -3.7965   -2.8768    0.9782 C   0  0  0  0  0  0  0  0  0  0  0  0
   -4.5465   -2.1527    1.2902 H   0  0  0  0  0  0  0  0  0  0  0  0
   -3.9745   -3.1748   -0.0538 H   0  0  0  0  0  0  0  0  0  0  0  0
   -2.4245   -2.2537    1.0882 C   0  0  0  0  0  0  0  0  0  0  0  0
   -1.5805   -2.7478    1.8242 O   0  0  0  0  0  0  0  0  0  0  0  0
   -2.2045   -1.1637    0.3562 N   0  0  0  0  0  0  0  0  0  0  0  0
   -2.9595   -0.7907   -0.2008 H   0  0  0  0  0  0  0  0  0  0  0  0
   -0.9485   -0.4087    0.3482 C   0  0  1  0  0  0  0  0  0  0  0  0
   -0.1408   -1.0795    0.0507 H   0  0  0  0  0  0  0  0  0  0  0  0
   -1.0432    0.7243   -0.6879 C   0  0  0  0  0  0  0  0  0  0  0  0
   -1.4905    0.3327   -1.6027 H   0  0  0  0  0  0  0  0  0  0  0  0
   -1.7079    1.4998   -0.3044 H   0  0  0  0  0  0  0  0  0  0  0  0
    0.2942    1.3436   -1.0465 C   0  0  0  0  0  0  0  0  0  0  0  0
    0.9085    1.0507   -2.2789 C   0  0  0  0  0  0  0  0  0  0  0  0
    0.4401    0.3630   -2.9688 H   0  0  0  0  0  0  0  0  0  0  0  0
    2.1290    1.6610   -2.6219 C   0  0  0  0  0  0  0  0  0  0  0  0
    2.6002    1.4327   -3.5676 H   0  0  0  0  0  0  0  0  0  0  0  0
    2.7362    2.5662   -1.7350 C   0  0  0  0  0  0  0  0  0  0  0  0
    3.6750    3.0334   -1.9977 H   0  0  0  0  0  0  0  0  0  0  0  0
    2.1258    2.8601   -0.5021 C   0  0  0  0  0  0  0  0  0  0  0  0
    2.5951    3.5517    0.1821 H   0  0  0  0  0  0  0  0  0  0  0  0
    0.9077    2.2474   -0.1581 C   0  0  0  0  0  0  0  0  0  0  0  0
    0.4409    2.4717    0.7922 H   0  0  0  0  0  0  0  0  0  0  0  0
   -0.6196    0.1253    1.7539 C   0  0  0  0  0  0  0  0  0  0  0  0
    0.5216    0.0194    2.2054 O   0  0  0  0  0  0  0  0  0  0  0  0
   -1.6152    0.6924    2.4469 N   0  0  0  0  0  0  0  0  0  0  0  0
   -2.5345    0.6914    2.0318 H   0  0  0  0  0  0  0  0  0  0  0  0
   -1.4720    1.2390    3.7941 C   0  0  0  0  0  0  0  0  0  0  0  0
   -0.6345    1.9391    3.8219 H   0  0  0  0  0  0  0  0  0  0  0  0
   -2.3844    1.7580    4.0892 H   0  0  0  0  0  0  0  0  0  0  0  0
   -1.2733    0.4298    4.4995 H   0  0  0  0  0  0  0  0  0  0  0  0
  5  6  2  0  0  0  0
  5  7  1  0  0  0  0
  2  3  1  0  0  0  0
  2  4  1  0  0  0  0
  2  5  1  0  0  0  0
  1  2  1  0  0  0  0
 25 26  2  0  0  0  0
 25 27  1  0  0  0  0
 23 24  1  0  0  0  0
 21 22  1  0  0  0  0
 21 23  2  0  0  0  0
 19 20  1  0  0  0  0
 19 21  1  0  0  0  0
 17 18  1  0  0  0  0
 17 19  2  0  0  0  0
 15 16  1  0  0  0  0
 15 17  1  0  0  0  0
 14 15  2  0  0  0  0
 14 23  1  0  0  0  0
 11 12  1  0  0  0  0
 11 13  1  0  0  0  0
 11 14  1  0  0  0  0
  9 10  1  0  0  0  0
  9 11  1  0  0  0  0
  9 25  1  0  0  0  0
  7  8  1  0  0  0  0
  7  9  1  0  0  0  0
 29 30  1  0  0  0  0
 29 31  1  0  0  0  0
 29 32  1  0  0  0  0
 27 28  1  0  0  0  0
 27 29  1  0  0  0  0
M  END
$$$$
default_name
  -OEChem-02102213163D

 32 32  0     1  0  0  0  0  0999 V2000
   -3.8405   -3.7518    1.6252 H   0  0  0  0  0  0  0  0  0  0  0  0
   -3.7965   -2.8768    0.9782 C   0  0  0  0  0  0  0  0  0  0  0  0
   -4.5465   -2.1527    1.2902 H   0  0  0  0  0  0  0  0  0  0  0  0
   -3.9745   -3.1748   -0.0538 H   0  0  0  0  0  0  0  0  0  0  0  0
   -2.4245   -2.2537    1.0882 C   0  0  0  0  0  0  0  0  0  0  0  0
   -1.5805   -2.7478    1.8242 O   0  0  0  0  0  0  0  0  0  0  0  0
   -2.2045   -1.1637    0.3562 N   0  0  0  0  0  0  0  0  0  0  0  0
   -2.9595   -0.7907   -0.2008 H   0  0  0  0  0  0  0  0  0  0  0  0
   -0.9485   -0.4087    0.3482 C   0  0  1  0  0  0  0  0  0  0  0  0
   -0.1408   -1.0795    0.0507 H   0  0  0  0  0  0  0  0  0  0  0  0
   -1.0432    0.7243   -0.6879 C   0  0  0  0  0  0  0  0  0  0  0  0
   -1.4905    0.3327   -1.6027 H   0  0  0  0  0  0  0  0  0  0  0  0
   -1.7079    1.4998   -0.3044 H   0  0  0  0  0  0  0  0  0  0  0  0
    0.2942    1.3436   -1.0465 C   0  0  0  0  0  0  0  0  0  0  0  0
    0.7608    1.3142   -2.3744 C   0  0  0  0  0  0  0  0  0  0  0  0
    0.1775    0.8287   -3.1440 H   0  0  0  0  0  0  0  0  0  0  0  0
    1.9831    1.9270   -2.7068 C   0  0  0  0  0  0  0  0  0  0  0  0
    2.3408    1.9010   -3.7265 H   0  0  0  0  0  0  0  0  0  0  0  0
    2.7396    2.5715   -1.7133 C   0  0  0  0  0  0  0  0  0  0  0  0
    3.6797    3.0402   -1.9683 H   0  0  0  0  0  0  0  0  0  0  0  0
    2.2769    2.6014   -0.3851 C   0  0  0  0  0  0  0  0  0  0  0  0
    2.8609    3.0920    0.3797 H   0  0  0  0  0  0  0  0  0  0  0  0
    1.0570    1.9861   -0.0526 C   0  0  0  0  0  0  0  0  0  0  0  0
    0.7038    2.0069    0.9702 H   0  0  0  0  0  0  0  0  0  0  0  0
   -0.6196    0.1253    1.7539 C   0  0  0  0  0  0  0  0  0  0  0  0
    0.5216    0.0194    2.2054 O   0  0  0  0  0  0  0  0  0  0  0  0
   -1.6152    0.6924    2.4469 N   0  0  0  0  0  0  0  0  0  0  0  0
   -2.5345    0.6914    2.0318 H   0  0  0  0  0  0  0  0  0  0  0  0
   -1.4720    1.2390    3.7941 C   0  0  0  0  0  0  0  0  0  0  0  0
   -0.6345    1.9391    3.8219 H   0  0  0  0  0  0  0  0  0  0  0  0
   -2.3844    1.7580    4.0892 H   0  0  0  0  0  0  0  0  0  0  0  0
   -1.2733    0.4298    4.4995 H   0  0  0  0  0  0  0  0  0  0  0  0
  5  6  2  0  0  0  0
  5  7  1  0  0  0  0
  2  3  1  0  0  0  0
  2  4  1  0  0  0  0
  2  5  1  0  0  0  0
  1  2  1  0  0  0  0
 25 26  2  0  0  0  0
 25 27  1  0  0  0  0
 23 24  1  0  0  0  0
 21 22  1  0  0  0  0
 21 23  2  0  0  0  0
 19 20  1  0  0  0  0
 19 21  1  0  0  0  0
 17 18  1  0  0  0  0
 17 19  2  0  0  0  0
 15 16  1  0  0  0  0
 15 17  1  0  0  0  0
 14 15  2  0  0  0  0
 14 23  1  0  0  0  0
 11 12  1  0  0  0  0
 11 13  1  0  0  0  0
 11 14  1  0  0  0  0
  9 10  1  0  0  0  0
  9 11  1  0  0  0  0
  9 25  1  0  0  0  0
  7  8  1  0  0  0  0
  7  9  1  0  0  0  0
 29 30  1  0  0  0  0
 29 31  1  0  0  0  0
 29 32  1  0  0  0  0
 27 28  1  0  0  0  0
 27 29  1  0  0  0  0
M  END
$$$$
default_name
  -OEChem-02102213163D

 32 32  0     1  0  0  0  0  0999 V2000
   -3.8405   -3.7518    1.6252 H   0  0  0  0  0  0  0  0  0  0  0  0
   -3.7965   -2.8768    0.9782 C   0  0  0  0  0  0  0  0  0  0  0  0
   -4.5465   -2.1527    1.2902 H   0  0  0  0  0  0  0  0  0  0  0  0
   -3.9745   -3.1748   -0.0538 H   0  0  0  0  0  0  0  0  0  0  0  0
   -2.4245   -2.2537    1.0882 C   0  0  0  0  0  0  0  0  0  0  0  0
   -1.5805   -2.7478    1.8242 O   0  0  0  0  0  0  0  0  0  0  0  0
   -2.2045   -1.1637    0.3562 N   0  0  0  0  0  0  0  0  0  0  0  0
   -2.9595   -0.7907   -0.2008 H   0  0  0  0  0  0  0  0  0  0  0  0
   -0.9485   -0.4087    0.3482 C   0  0  1  0  0  0  0  0  0  0  0  0
   -0.1408   -1.0795    0.0507 H   0  0  0  0  0  0  0  0  0  0  0  0
   -1.0432    0.7243   -0.6879 C   0  0  0  0  0  0  0  0  0  0  0  0
   -1.4905    0.3327   -1.6027 H   0  0  0  0  0  0  0  0  0  0  0  0
   -1.7079    1.4998   -0.3044 H   0  0  0  0  0  0  0  0  0  0  0  0
    0.2942    1.3436   -1.0465 C   0  0  0  0  0  0  0  0  0  0  0  0
    0.6242    1.5996   -2.3909 C   0  0  0  0  0  0  0  0  0  0  0  0
   -0.0662    1.3346   -3.1792 H   0  0  0  0  0  0  0  0  0  0  0  0
    1.8494    2.2122   -2.7126 C   0  0  0  0  0  0  0  0  0  0  0  0
    2.1020    2.4055   -3.7458 H   0  0  0  0  0  0  0  0  0  0  0  0
    2.7455    2.5714   -1.6915 C   0  0  0  0  0  0  0  0  0  0  0  0
    3.6878    3.0399   -1.9388 H   0  0  0  0  0  0  0  0  0  0  0  0
    2.4195    2.3156   -0.3471 C   0  0  0  0  0  0  0  0  0  0  0  0
    3.1105    2.5867    0.4376 H   0  0  0  0  0  0  0  0  0  0  0  0
    1.1964    1.7004   -0.0261 C   0  0  0  0  0  0  0  0  0  0  0  0
    0.9482    1.5012    1.0083 H   0  0  0  0  0  0  0  0  0  0  0  0
   -0.6196    0.1253    1.7539 C   0  0  0  0  0  0  0  0  0  0  0  0
    0.5216    0.0194    2.2054 O   0  0  0  0  0  0  0  0  0  0  0  0
   -1.6152    0.6924    2.4469 N   0  0  0  0  0  0  0  0  0  0  0  0
   -2.5345    0.6914    2.0318 H   0  0  0  0  0  0  0  0  0  0  0  0
   -1.4720    1.2390    3.7941 C   0  0  0  0  0  0  0  0  0  0  0  0
   -0.6345    1.9391    3.8219 H   0  0  0  0  0  0  0  0  0  0  0  0
   -2.3844    1.7580    4.0892 H   0  0  0  0  0  0  0  0  0  0  0  0
   -1.2733    0.4298    4.4995 H   0  0  0  0  0  0  0  0  0  0  0  0
  5  6  2  0  0  0  0
  5  7  1  0  0  0  0
  2  3  1  0  0  0  0
  2  4  1  0  0  0  0
  2  5  1  0  0  0  0
  1  2  1  0  0  0  0
 25 26  2  0  0  0  0
 25 27  1  0  0  0  0
 23 24  1  0  0  0  0
 21 22  1  0  0  0  0
 21 23  2  0  0  0  0
 19 20  1  0  0  0  0
 19 21  1  0  0  0  0
 17 18  1  0  0  0  0
 17 19  2  0  0  0  0
 15 16  1  0  0  0  0
 15 17  1  0  0  0  0
 14 15  2  0  0  0  0
 14 23  1  0  0  0  0
 11 12  1  0  0  0  0
 11 13  1  0  0  0  0
 11 14  1  0  0  0  0
  9 10  1  0  0  0  0
  9 11  1  0  0  0  0
  9 25  1  0  0  0  0
  7  8  1  0  0  0  0
  7  9  1  0  0  0  0
 29 30  1  0  0  0  0
 29 31  1  0  0  0  0
 29 32  1  0  0  0  0
 27 28  1  0  0  0  0
 27 29  1  0  0  0  0
M  END
$$$$
default_name
  -OEChem-02102213163D

 32 32  0     1  0  0  0  0  0999 V2000
   -3.8405   -3.7518    1.6252 H   0  0  0  0  0  0  0  0  0  0  0  0
   -3.7965   -2.8768    0.9782 C   0  0  0  0  0  0  0  0  0  0  0  0
   -4.5465   -2.1527    1.2902 H   0  0  0  0  0  0  0  0  0  0  0  0
   -3.9745   -3.1748   -0.0538 H   0  0  0  0  0  0  0  0  0  0  0  0
   -2.4245   -2.2537    1.0882 C   0  0  0  0  0  0  0  0  0  0  0  0
   -1.5805   -2.7478    1.8242 O   0  0  0  0  0  0  0  0  0  0  0  0
   -2.2045   -1.1637    0.3562 N   0  0  0  0  0  0  0  0  0  0  0  0
   -2.9595   -0.7907   -0.2008 H   0  0  0  0  0  0  0  0  0  0  0  0
   -0.9485   -0.4087    0.3482 C   0  0  1  0  0  0  0  0  0  0  0  0
   -0.1408   -1.0795    0.0507 H   0  0  0  0  0  0  0  0  0  0  0  0
   -1.0432    0.7243   -0.6879 C   0  0  0  0  0  0  0  0  0  0  0  0
   -1.4905    0.3327   -1.6027 H   0  0  0  0  0  0  0  0  0  0  0  0
   -1.7079    1.4998   -0.3044 H   0  0  0  0  0  0  0  0  0  0  0  0
    0.2942    1.3436   -1.0465 C   0  0  0  0  0  0  0  0  0  0  0  0
    0.5080    1.8874   -2.3273 C   0  0  0  0  0  0  0  0  0  0  0  0
   -0.2743    1.8462   -3.0719 H   0  0  0  0  0  0  0  0  0  0  0  0
    1.7372    2.4972   -2.6391 C   0  0  0  0  0  0  0  0  0  0  0  0
    1.9002    2.9118   -3.6240 H   0  0  0  0  0  0  0  0  0  0  0  0
    2.7535    2.5660   -1.6710 C   0  0  0  0  0  0  0  0  0  0  0  0
    3.6987    3.0323   -1.9113 H   0  0  0  0  0  0  0  0  0  0  0  0
    2.5437    2.0222   -0.3907 C   0  0  0  0  0  0  0  0  0  0  0  0
    3.3267    2.0702    0.3518 H   0  0  0  0  0  0  0  0  0  0  0  0
    1.3163    1.4100   -0.0804 C   0  0  0  0  0  0  0  0  0  0  0  0
    1.1574    0.9891    0.9039 H   0  0  0  0  0  0  0  0  0  0  0  0
   -0.6196    0.1253    1.7539 C   0  0  0  0  0  0  0  0  0  0  0  0
    0.5216    0.0194    2.2054 O   0  0  0  0  0  0  0  0  0  0  0  0
   -1.6152    0.6924    2.4469 N   0  0  0  0  0  0  0  0  0  0  0  0
   -2.5345    0.6914    2.0318 H   0  0  0  0  0  0  0  0  0  0  0  0
   -1.4720    1.2390    3.7941 C   0  0  0  0  0  0  0  0  0  0  0  0
   -0.6345    1.9391    3.8219 H   0  0  0  0  0  0  0  0  0  0  0  0
   -2.3844    1.7580    4.0892 H   0  0  0  0  0  0  0  0  0  0  0  0
   -1.2733    0.4298    4.4995 H   0  0  0  0  0  0  0  0  0  0  0  0
  5  6  2  0  0  0  0
  5  7  1  0  0  0  0
  2  3  1  0  0  0  0
  2  4  1  0  0  0  0
  2  5  1  0  0  0  0
  1  2  1  0  0  0  0
 25 26  2  0  0  0  0
 25 27  1  0  0  0  0
 23 24  1  0  0  0  0
 21 22  1  0  0  0  0
 21 23  2  0  0  0  0
 19 20  1  0  0  0  0
 19 21  1  0  0  0  0
 17 18  1  0  0  0  0
 17 19  2  0  0  0  0
 15 16  1  0  0  0  0
 15 17  1  0  0  0  0
 14 15  2  0  0  0  0
 14 23  1  0  0  0  0
 11 12  1  0  0  0  0
 11 13  1  0  0  0  0
 11 14  1  0  0  0  0
  9 10  1  0  0  0  0
  9 11  1  0  0  0  0
  9 25  1  0  0  0  0
  7  8  1  0  0  0  0
  7  9  1  0  0  0  0
 29 30  1  0  0  0  0
 29 31  1  0  0  0  0
 29 32  1  0  0  0  0
 27 28  1  0  0  0  0
 27 29  1  0  0  0  0
M  END
$$$$
default_name
  -OEChem-02102213163D

 32 32  0     1  0  0  0  0  0999 V2000
   -3.8405   -3.7518    1.6252 H   0  0  0  0  0  0  0  0  0  0  0  0
   -3.7965   -2.8768    0.9782 C   0  0  0  0  0  0  0  0  0  0  0  0
   -4.5465   -2.1527    1.2902 H   0  0  0  0  0  0  0  0  0  0  0  0
   -3.9745   -3.1748   -0.0538 H   0  0  0  0  0  0  0  0  0  0  0  0
   -2.4245   -2.2537    1.0882 C   0  0  0  0  0  0  0  0  0  0  0  0
   -1.5805   -2.7478    1.8242 O   0  0  0  0  0  0  0  0  0  0  0  0
   -2.2045   -1.1637    0.3562 N   0  0  0  0  0  0  0  0  0  0  0  0
   -2.9595   -0.7907   -0.2008 H   0  0  0  0  0  0  0  0  0  0  0  0
   -0.9485   -0.4087    0.3482 C   0  0  1  0  0  0  0  0  0  0  0  0
   -0.1408   -1.0795    0.0507 H   0  0  0  0  0  0  0  0  0  0  0  0
   -1.0432    0.7243   -0.6879 C   0  0  0  0  0  0  0  0  0  0  0  0
   -1.4905    0.3327   -1.6027 H   0  0  0  0  0  0  0  0  0  0  0  0
   -1.7079    1.4998   -0.3044 H   0  0  0  0  0  0  0  0  0  0  0  0
    0.2942    1.3436   -1.0465 C   0  0  0  0  0  0  0  0  0  0  0  0
    0.4201    2.1581   -2.1879 C   0  0  0  0  0  0  0  0  0  0  0  0
   -0.4328    2.3286   -2.8296 H   0  0  0  0  0  0  0  0  0  0  0  0
    1.6540    2.7625   -2.4911 C   0  0  0  0  0  0  0  0  0  0  0  0
    1.7491    3.3854   -3.3694 H   0  0  0  0  0  0  0  0  0  0  0  0
    2.7630    2.5556   -1.6533 C   0  0  0  0  0  0  0  0  0  0  0  0
    3.7116    3.0181   -1.8877 H   0  0  0  0  0  0  0  0  0  0  0  0
    2.6411    1.7411   -0.5128 C   0  0  0  0  0  0  0  0  0  0  0  0
    3.4949    1.5775    0.1282 H   0  0  0  0  0  0  0  0  0  0  0  0
    1.4087    1.1345   -0.2119 C   0  0  0  0  0  0  0  0  0  0  0  0
    1.3171    0.5054    0.6640 H   0  0  0  0  0  0  0  0  0  0  0  0
   -0.6196    0.1253    1.7539 C   0  0  0  0  0  0  0  0  0  0  0  0
    0.5216    0.0194    2.2054 O   0  0  0  0  0  0  0  0  0  0  0  0
   -1.6152    0.6924    2.4469 N   0  0  0  0  0  0  0  0  0  0  0  0
   -2.5345    0.6914    2.0318 H   0  0  0  0  0  0  0  0  0  0  0  0
   -1.4720    1.2390    3.7941 C   0  0  0  0  0  0  0  0  0  0  0  0
   -0.6345    1.9391    3.8219 H   0  0  0  0  0  0  0  0  0  0  0  0
   -2.3844    1.7580    4.0892 H   0  0  0  0  0  0  0  0  0  0  0  0
   -1.2733    0.4298    4.4995 H   0  0  0  0  0  0  0  0  0  0  0  0
  5  6  2  0  0  0  0
  5  7  1  0  0  0  0
  2  3  1  0  0  0  0
  2  4  1  0  0  0  0
  2  5  1  0  0  0  0
  1  2  1  0  0  0  0
 25 26  2  0  0  0  0
 25 27  1  0  0  0  0
 23 24  1  0  0  0  0
 21 22  1  0  0  0  0
 21 23  2  0  0  0  0
 19 20  1  0  0  0  0
 19 21  1  0  0  0  0
 17 18  1  0  0  0  0
 17 19  2  0  0  0  0
 15 16  1  0  0  0  0
 15 17  1  0  0  0  0
 14 15  2  0  0  0  0
 14 23  1  0  0  0  0
 11 12  1  0  0  0  0
 11 13  1  0  0  0  0
 11 14  1  0  0  0  0
  9 10  1  0  0  0  0
  9 11  1  0  0  0  0
  9 25  1  0  0  0  0
  7  8  1  0  0  0  0
  7  9  1  0  0  0  0
 29 30  1  0  0  0  0
 29 31  1  0  0  0  0
 29 32  1  0  0  0  0
 27 28  1  0  0  0  0
 27 29  1  0  0  0  0
M  END
$$$$
default_name
  -OEChem-02102213163D

 32 32  0     1  0  0  0  0  0999 V2000
   -3.8405   -3.7518    1.6252 H   0  0  0  0  0  0  0  0  0  0  0  0
   -3.7965   -2.8768    0.9782 C   0  0  0  0  0  0  0  0  0  0  0  0
   -4.5465   -2.1527    1.2902 H   0  0  0  0  0  0  0  0  0  0  0  0
   -3.9745   -3.1748   -0.0538 H   0  0  0  0  0  0  0  0  0  0  0  0
   -2.4245   -2.2537    1.0882 C   0  0  0  0  0  0  0  0  0  0  0  0
   -1.5805   -2.7478    1.8242 O   0  0  0  0  0  0  0  0  0  0  0  0
   -2.2045   -1.1637    0.3562 N   0  0  0  0  0  0  0  0  0  0  0  0
   -2.9595   -0.7907   -0.2008 H   0  0  0  0  0  0  0  0  0  0  0  0
   -0.9485   -0.4087    0.3482 C   0  0  1  0  0  0  0  0  0  0  0  0
   -0.1408   -1.0795    0.0507 H   0  0  0  0  0  0  0  0  0  0  0  0
   -1.0432    0.7243   -0.6879 C   0  0  0  0  0  0  0  0  0  0  0  0
   -1.7186    0.4183   -1.4881 H   0  0  0  0  0  0  0  0  0  0  0  0
   -1.4776    1.6042   -0.2112 H   0  0  0  0  0  0  0  0  0  0  0  0
    0.2870    1.0991   -1.3132 C   0  0  0  0  0  0  0  0  0  0  0  0
    0.3583    2.1203   -2.2796 C   0  0  0  0  0  0  0  0  0  0  0  0
   -0.5403    2.6290   -2.5990 H   0  0  0  0  0  0  0  0  0  0  0  0
    1.6015    2.4906   -2.8248 C   0  0  0  0  0  0  0  0  0  0  0  0
    1.6538    3.2732   -3.5686 H   0  0  0  0  0  0  0  0  0  0  0  0
    2.7750    1.8422   -2.4038 C   0  0  0  0  0  0  0  0  0  0  0  0
    3.7299    2.1251   -2.8245 H   0  0  0  0  0  0  0  0  0  0  0  0
    2.7071    0.8203   -1.4394 C   0  0  0  0  0  0  0  0  0  0  0  0
    3.6084    0.3182   -1.1197 H   0  0  0  0  0  0  0  0  0  0  0  0
    1.4641    0.4483   -0.8971 C   0  0  0  0  0  0  0  0  0  0  0  0
    1.4128   -0.3403   -0.1577 H   0  0  0  0  0  0  0  0  0  0  0  0
   -0.6196    0.1253    1.7539 C   0  0  0  0  0  0  0  0  0  0  0  0
    0.5216    0.0194    2.2054 O   0  0  0  0  0  0  0  0  0  0  0  0
   -1.6152    0.6924    2.4469 N   0  0  0  0  0  0  0  0  0  0  0  0
   -2.5345    0.6914    2.0318 H   0  0  0  0  0  0  0  0  0  0  0  0
   -1.4720    1.2390    3.7941 C   0  0  0  0  0  0  0  0  0  0  0  0
   -0.6345    1.9391    3.8219 H   0  0  0  0  0  0  0  0  0  0  0  0
   -2.3844    1.7580    4.0892 H   0  0  0  0  0  0  0  0  0  0  0  0
   -1.2733    0.4298    4.4995 H   0  0  0  0  0  0  0  0  0  0  0  0
  5  6  2  0  0  0  0
  5  7  1  0  0  0  0
  2  3  1  0  0  0  0
  2  4  1  0  0  0  0
  2  5  1  0  0  0  0
  1  2  1  0  0  0  0
 25 26  2  0  0  0  0
 25 27  1  0  0  0  0
 23 24  1  0  0  0  0
 21 22  1  0  0  0  0
 21 23  2  0  0  0  0
 19 20  1  0  0  0  0
 19 21  1  0  0  0  0
 17 18  1  0  0  0  0
 17 19  2  0  0  0  0
 15 16  1  0  0  0  0
 15 17  1  0  0  0  0
 14 15  2  0  0  0  0
 14 23  1  0  0  0  0
 11 12  1  0  0  0  0
 11 13  1  0  0  0  0
 11 14  1  0  0  0  0
  9 10  1  0  0  0  0
  9 11  1  0  0  0  0
  9 25  1  0  0  0  0
  7  8  1  0  0  0  0
  7  9  1  0  0  0  0
 29 30  1  0  0  0  0
 29 31  1  0  0  0  0
 29 32  1  0  0  0  0
 27 28  1  0  0  0  0
 27 29  1  0  0  0  0
M  END
$$$$
default_name
  -OEChem-02102213163D

 32 32  0     1  0  0  0  0  0999 V2000
   -3.8405   -3.7518    1.6252 H   0  0  0  0  0  0  0  0  0  0  0  0
   -3.7965   -2.8768    0.9782 C   0  0  0  0  0  0  0  0  0  0  0  0
   -4.5465   -2.1527    1.2902 H   0  0  0  0  0  0  0  0  0  0  0  0
   -3.9745   -3.1748   -0.0538 H   0  0  0  0  0  0  0  0  0  0  0  0
   -2.4245   -2.2537    1.0882 C   0  0  0  0  0  0  0  0  0  0  0  0
   -1.5805   -2.7478    1.8242 O   0  0  0  0  0  0  0  0  0  0  0  0
   -2.2045   -1.1637    0.3562 N   0  0  0  0  0  0  0  0  0  0  0  0
   -2.9595   -0.7907   -0.2008 H   0  0  0  0  0  0  0  0  0  0  0  0
   -0.9485   -0.4087    0.3482 C   0  0  1  0  0  0  0  0  0  0  0  0
   -0.1408   -1.0795    0.0507 H   0  0  0  0  0  0  0  0  0  0  0  0
   -1.0432    0.7243   -0.6879 C   0  0  0  0  0  0  0  0  0  0  0  0
   -1.7186    0.4183   -1.4881 H   0  0  0  0  0  0  0  0  0  0  0  0
   -1.4776    1.6042   -0.2112 H   0  0  0  0  0  0  0  0  0  0  0  0
    0.2870    1.0991   -1.3132 C   0  0  0  0  0  0  0  0  0  0  0  0
    0.4244    2.3033   -2.0295 C   0  0  0  0  0  0  0  0  0  0  0  0
   -0.4256    2.9585   -2.1576 H   0  0  0  0  0  0  0  0  0  0  0  0
    1.6719    2.6638   -2.5713 C   0  0  0  0  0  0  0  0  0  0  0  0
    1.7745    3.5877   -3.1232 H   0  0  0  0  0  0  0  0  0  0  0  0
    2.7839    1.8227   -2.3966 C   0  0  0  0  0  0  0  0  0  0  0  0
    3.7418    2.0986   -2.8150 H   0  0  0  0  0  0  0  0  0  0  0  0
    2.6497    0.6180   -1.6827 C   0  0  0  0  0  0  0  0  0  0  0  0
    3.5031   -0.0313   -1.5530 H   0  0  0  0  0  0  0  0  0  0  0  0
    1.4021    0.2563   -1.1441 C   0  0  0  0  0  0  0  0  0  0  0  0
    1.2994   -0.6723   -0.5980 H   0  0  0  0  0  0  0  0  0  0  0  0
   -0.6196    0.1253    1.7539 C   0  0  0  0  0  0  0  0  0  0  0  0
    0.5216    0.0194    2.2054 O   0  0  0  0  0  0  0  0  0  0  0  0
   -1.6152    0.6924    2.4469 N   0  0  0  0  0  0  0  0  0  0  0  0
   -2.5345    0.6914    2.0318 H   0  0  0  0  0  0  0  0  0  0  0  0
   -1.4720    1.2390    3.7941 C   0  0  0  0  0  0  0  0  0  0  0  0
   -0.6345    1.9391    3.8219 H   0  0  0  0  0  0  0  0  0  0  0  0
   -2.3844    1.7580    4.0892 H   0  0  0  0  0  0  0  0  0  0  0  0
   -1.2733    0.4298    4.4995 H   0  0  0  0  0  0  0  0  0  0  0  0
  5  6  2  0  0  0  0
  5  7  1  0  0  0  0
  2  3  1  0  0  0  0
  2  4  1  0  0  0  0
  2  5  1  0  0  0  0
  1  2  1  0  0  0  0
 25 26  2  0  0  0  0
 25 27  1  0  0  0  0
 23 24  1  0  0  0  0
 21 22  1  0  0  0  0
 21 23  2  0  0  0  0
 19 20  1  0  0  0  0
 19 21  1  0  0  0  0
 17 18  1  0  0  0  0
 17 19  2  0  0  0  0
 15 16  1  0  0  0  0
 15 17  1  0  0  0  0
 14 15  2  0  0  0  0
 14 23  1  0  0  0  0
 11 12  1  0  0  0  0
 11 13  1  0  0  0  0
 11 14  1  0  0  0  0
  9 10  1  0  0  0  0
  9 11  1  0  0  0  0
  9 25  1  0  0  0  0
  7  8  1  0  0  0  0
  7  9  1  0  0  0  0
 29 30  1  0  0  0  0
 29 31  1  0  0  0  0
 29 32  1  0  0  0  0
 27 28  1  0  0  0  0
 27 29  1  0  0  0  0
M  END
$$$$
default_name
  -OEChem-02102213163D

 32 32  0     1  0  0  0  0  0999 V2000
   -3.8405   -3.7518    1.6252 H   0  0  0  0  0  0  0  0  0  0  0  0
   -3.7965   -2.8768    0.9782 C   0  0  0  0  0  0  0  0  0  0  0  0
   -4.5465   -2.1527    1.2902 H   0  0  0  0  0  0  0  0  0  0  0  0
   -3.9745   -3.1748   -0.0538 H   0  0  0  0  0  0  0  0  0  0  0  0
   -2.4245   -2.2537    1.0882 C   0  0  0  0  0  0  0  0  0  0  0  0
   -1.5805   -2.7478    1.8242 O   0  0  0  0  0  0  0  0  0  0  0  0
   -2.2045   -1.1637    0.3562 N   0  0  0  0  0  0  0  0  0  0  0  0
   -2.9595   -0.7907   -0.2008 H   0  0  0  0  0  0  0  0  0  0  0  0
   -0.9485   -0.4087    0.3482 C   0  0  1  0  0  0  0  0  0  0  0  0
   -0.1408   -1.0795    0.0507 H   0  0  0  0  0  0  0  0  0  0  0  0
   -1.0432    0.7243   -0.6879 C   0  0  0  0  0  0  0  0  0  0  0  0
   -1.7186    0.4183   -1.4881 H   0  0  0  0  0  0  0  0  0  0  0  0
   -1.4776    1.6042   -0.2112 H   0  0  0  0  0  0  0  0  0  0  0  0
    0.2870    1.0991   -1.3132 C   0  0  0  0  0  0  0  0  0  0  0  0
    0.5237    2.4162   -1.7506 C   0  0  0  0  0  0  0  0  0  0  0  0
   -0.2515    3.1644   -1.6638 H   0  0  0  0  0  0  0  0  0  0  0  0
    1.7745    2.7662   -2.2917 C   0  0  0  0  0  0  0  0  0  0  0  0
    1.9532    3.7774   -2.6293 H   0  0  0  0  0  0  0  0  0  0  0  0
    2.7909    1.8013   -2.3947 C   0  0  0  0  0  0  0  0  0  0  0  0
    3.7510    2.0697   -2.8126 H   0  0  0  0  0  0  0  0  0  0  0  0
    2.5572    0.4839   -1.9600 C   0  0  0  0  0  0  0  0  0  0  0  0
    3.3365   -0.2592   -2.0442 H   0  0  0  0  0  0  0  0  0  0  0  0
    1.3059    0.1336   -1.4223 C   0  0  0  0  0  0  0  0  0  0  0  0
    1.1263   -0.8810   -1.0913 H   0  0  0  0  0  0  0  0  0  0  0  0
   -0.6196    0.1253    1.7539 C   0  0  0  0  0  0  0  0  0  0  0  0
    0.5216    0.0194    2.2054 O   0  0  0  0  0  0  0  0  0  0  0  0
   -1.6152    0.6924    2.4469 N   0  0  0  0  0  0  0  0  0  0  0  0
   -2.5345    0.6914    2.0318 H   0  0  0  0  0  0  0  0  0  0  0  0
   -1.4720    1.2390    3.7941 C   0  0  0  0  0  0  0  0  0  0  0  0
   -0.6345    1.9391    3.8219 H   0  0  0  0  0  0  0  0  0  0  0  0
   -2.3844    1.7580    4.0892 H   0  0  0  0  0  0  0  0  0  0  0  0
   -1.2733    0.4298    4.4995 H   0  0  0  0  0  0  0  0  0  0  0  0
  5  6  2  0  0  0  0
  5  7  1  0  0  0  0
  2  3  1  0  0  0  0
  2  4  1  0  0  0  0
  2  5  1  0  0  0  0
  1  2  1  0  0  0  0
 25 26  2  0  0  0  0
 25 27  1  0  0  0  0
 23 24  1  0  0  0  0
 21 22  1  0  0  0  0
 21 23  2  0  0  0  0
 19 20  1  0  0  0  0
 19 21  1  0  0  0  0
 17 18  1  0  0  0  0
 17 19  2  0  0  0  0
 15 16  1  0  0  0  0
 15 17  1  0  0  0  0
 14 15  2  0  0  0  0
 14 23  1  0  0  0  0
 11 12  1  0  0  0  0
 11 13  1  0  0  0  0
 11 14  1  0  0  0  0
  9 10  1  0  0  0  0
  9 11  1  0  0  0  0
  9 25  1  0  0  0  0
  7  8  1  0  0  0  0
  7  9  1  0  0  0  0
 29 30  1  0  0  0  0
 29 31  1  0  0  0  0
 29 32  1  0  0  0  0
 27 28  1  0  0  0  0
 27 29  1  0  0  0  0
M  END
$$$$
default_name
  -OEChem-02102213163D

 32 32  0     1  0  0  0  0  0999 V2000
   -3.8405   -3.7518    1.6252 H   0  0  0  0  0  0  0  0  0  0  0  0
   -3.7965   -2.8768    0.9782 C   0  0  0  0  0  0  0  0  0  0  0  0
   -4.5465   -2.1527    1.2902 H   0  0  0  0  0  0  0  0  0  0  0  0
   -3.9745   -3.1748   -0.0538 H   0  0  0  0  0  0  0  0  0  0  0  0
   -2.4245   -2.2537    1.0882 C   0  0  0  0  0  0  0  0  0  0  0  0
   -1.5805   -2.7478    1.8242 O   0  0  0  0  0  0  0  0  0  0  0  0
   -2.2045   -1.1637    0.3562 N   0  0  0  0  0  0  0  0  0  0  0  0
   -2.9595   -0.7907   -0.2008 H   0  0  0  0  0  0  0  0  0  0  0  0
   -0.9485   -0.4087    0.3482 C   0  0  1  0  0  0  0  0  0  0  0  0
   -0.1408   -1.0795    0.0507 H   0  0  0  0  0  0  0  0  0  0  0  0
   -1.0432    0.7243   -0.6879 C   0  0  0  0  0  0  0  0  0  0  0  0
   -1.7186    0.4183   -1.4881 H   0  0  0  0  0  0  0  0  0  0  0  0
   -1.4776    1.6042   -0.2112 H   0  0  0  0  0  0  0  0  0  0  0  0
    0.2870    1.0991   -1.3132 C   0  0  0  0  0  0  0  0  0  0  0  0
    0.6495    2.4513   -1.4619 C   0  0  0  0  0  0  0  0  0  0  0  0
   -0.0298    3.2326   -1.1512 H   0  0  0  0  0  0  0  0  0  0  0  0
    1.9024    2.7906   -2.0049 C   0  0  0  0  0  0  0  0  0  0  0  0
    2.1777    3.8295   -2.1205 H   0  0  0  0  0  0  0  0  0  0  0  0
    2.7954    1.7794   -2.3982 C   0  0  0  0  0  0  0  0  0  0  0  0
    3.7571    2.0401   -2.8175 H   0  0  0  0  0  0  0  0  0  0  0  0
    2.4357    0.4272   -2.2524 C   0  0  0  0  0  0  0  0  0  0  0  0
    3.1198   -0.3502   -2.5596 H   0  0  0  0  0  0  0  0  0  0  0  0
    1.1822    0.0885   -1.7127 C   0  0  0  0  0  0  0  0  0  0  0  0
    0.9053   -0.9521   -1.6042 H   0  0  0  0  0  0  0  0  0  0  0  0
   -0.6196    0.1253    1.7539 C   0  0  0  0  0  0  0  0  0  0  0  0
    0.5216    0.0194    2.2054 O   0  0  0  0  0  0  0  0  0  0  0  0
   -1.6152    0.6924    2.4469 N   0  0  0  0  0  0  0  0  0  0  0  0
   -2.5345    0.6914    2.0318 H   0  0  0  0  0  0  0  0  0  0  0  0
   -1.4720    1.2390    3.7941 C   0  0  0  0  0  0  0  0  0  0  0  0
   -0.6345    1.9391    3.8219 H   0  0  0  0  0  0  0  0  0  0  0  0
   -2.3844    1.7580    4.0892 H   0  0  0  0  0  0  0  0  0  0  0  0
   -1.2733    0.4298    4.4995 H   0  0  0  0  0  0  0  0  0  0  0  0
  5  6  2  0  0  0  0
  5  7  1  0  0  0  0
  2  3  1  0  0  0  0
  2  4  1  0  0  0  0
  2  5  1  0  0  0  0
  1  2  1  0  0  0  0
 25 26  2  0  0  0  0
 25 27  1  0  0  0  0
 23 24  1  0  0  0  0
 21 22  1  0  0  0  0
 21 23  2  0  0  0  0
 19 20  1  0  0  0  0
 19 21  1  0  0  0  0
 17 18  1  0  0  0  0
 17 19  2  0  0  0  0
 15 16  1  0  0  0  0
 15 17  1  0  0  0  0
 14 15  2  0  0  0  0
 14 23  1  0  0  0  0
 11 12  1  0  0  0  0
 11 13  1  0  0  0  0
 11 14  1  0  0  0  0
  9 10  1  0  0  0  0
  9 11  1  0  0  0  0
  9 25  1  0  0  0  0
  7  8  1  0  0  0  0
  7  9  1  0  0  0  0
 29 30  1  0  0  0  0
 29 31  1  0  0  0  0
 29 32  1  0  0  0  0
 27 28  1  0  0  0  0
 27 29  1  0  0  0  0
M  END
$$$$
default_name
  -OEChem-02102213163D

 32 32  0     1  0  0  0  0  0999 V2000
   -3.8405   -3.7518    1.6252 H   0  0  0  0  0  0  0  0  0  0  0  0
   -3.7965   -2.8768    0.9782 C   0  0  0  0  0  0  0  0  0  0  0  0
   -4.5465   -2.1527    1.2902 H   0  0  0  0  0  0  0  0  0  0  0  0
   -3.9745   -3.1748   -0.0538 H   0  0  0  0  0  0  0  0  0  0  0  0
   -2.4245   -2.2537    1.0882 C   0  0  0  0  0  0  0  0  0  0  0  0
   -1.5805   -2.7478    1.8242 O   0  0  0  0  0  0  0  0  0  0  0  0
   -2.2045   -1.1637    0.3562 N   0  0  0  0  0  0  0  0  0  0  0  0
   -2.9595   -0.7907   -0.2008 H   0  0  0  0  0  0  0  0  0  0  0  0
   -0.9485   -0.4087    0.3482 C   0  0  1  0  0  0  0  0  0  0  0  0
   -0.1408   -1.0795    0.0507 H   0  0  0  0  0  0  0  0  0  0  0  0
   -1.0432    0.7243   -0.6879 C   0  0  0  0  0  0  0  0  0  0  0  0
   -1.7186    0.4183   -1.4881 H   0  0  0  0  0  0  0  0  0  0  0  0
   -1.4776    1.6042   -0.2112 H   0  0  0  0  0  0  0  0  0  0  0  0
    0.2870    1.0991   -1.3132 C   0  0  0  0  0  0  0  0  0  0  0  0
    0.7932    2.4063   -1.1831 C   0  0  0  0  0  0  0  0  0  0  0  0
    0.2244    3.1585   -0.6548 H   0  0  0  0  0  0  0  0  0  0  0  0
    2.0469    2.7354   -1.7305 C   0  0  0  0  0  0  0  0  0  0  0  0
    2.4326    3.7405   -1.6316 H   0  0  0  0  0  0  0  0  0  0  0  0
    2.7972    1.7585   -2.4067 C   0  0  0  0  0  0  0  0  0  0  0  0
    3.7594    2.0121   -2.8293 H   0  0  0  0  0  0  0  0  0  0  0  0
    2.2937    0.4517   -2.5398 C   0  0  0  0  0  0  0  0  0  0  0  0
    2.8678   -0.2979   -3.0644 H   0  0  0  0  0  0  0  0  0  0  0  0
    1.0392    0.1240   -1.9956 C   0  0  0  0  0  0  0  0  0  0  0  0
    0.6514   -0.8809   -2.1016 H   0  0  0  0  0  0  0  0  0  0  0  0
   -0.6196    0.1253    1.7539 C   0  0  0  0  0  0  0  0  0  0  0  0
    0.5216    0.0194    2.2054 O   0  0  0  0  0  0  0  0  0  0  0  0
   -1.6152    0.6924    2.4469 N   0  0  0  0  0  0  0  0  0  0  0  0
   -2.5345    0.6914    2.0318 H   0  0  0  0  0  0  0  0  0  0  0  0
   -1.4720    1.2390    3.7941 C   0  0  0  0  0  0  0  0  0  0  0  0
   -0.6345    1.9391    3.8219 H   0  0  0  0  0  0  0  0  0  0  0  0
   -2.3844    1.7580    4.0892 H   0  0  0  0  0  0  0  0  0  0  0  0
   -1.2733    0.4298    4.4995 H   0  0  0  0  0  0  0  0  0  0  0  0
  5  6  2  0  0  0  0
  5  7  1  0  0  0  0
  2  3  1  0  0  0  0
  2  4  1  0  0  0  0
  2  5  1  0  0  0  0
  1  2  1  0  0  0  0
 25 26  2  0  0  0  0
 25 27  1  0  0  0  0
 23 24  1  0  0  0  0
 21 22  1  0  0  0  0
 21 23  2  0  0  0  0
 19 20  1  0  0  0  0
 19 21  1  0  0  0  0
 17 18  1  0  0  0  0
 17 19  2  0  0  0  0
 15 16  1  0  0  0  0
 15 17  1  0  0  0  0
 14 15  2  0  0  0  0
 14 23  1  0  0  0  0
 11 12  1  0  0  0  0
 11 13  1  0  0  0  0
 11 14  1  0  0  0  0
  9 10  1  0  0  0  0
  9 11  1  0  0  0  0
  9 25  1  0  0  0  0
  7  8  1  0  0  0  0
  7  9  1  0  0  0  0
 29 30  1  0  0  0  0
 29 31  1  0  0  0  0
 29 32  1  0  0  0  0
 27 28  1  0  0  0  0
 27 29  1  0  0  0  0
M  END
$$$$
default_name
  -OEChem-02102213163D

 32 32  0     1  0  0  0  0  0999 V2000
   -3.8405   -3.7518    1.6252 H   0  0  0  0  0  0  0  0  0  0  0  0
   -3.7965   -2.8768    0.9782 C   0  0  0  0  0  0  0  0  0  0  0  0
   -4.5465   -2.1527    1.2902 H   0  0  0  0  0  0  0  0  0  0  0  0
   -3.9745   -3.1748   -0.0538 H   0  0  0  0  0  0  0  0  0  0  0  0
   -2.4245   -2.2537    1.0882 C   0  0  0  0  0  0  0  0  0  0  0  0
   -1.5805   -2.7478    1.8242 O   0  0  0  0  0  0  0  0  0  0  0  0
   -2.2045   -1.1637    0.3562 N   0  0  0  0  0  0  0  0  0  0  0  0
   -2.9595   -0.7907   -0.2008 H   0  0  0  0  0  0  0  0  0  0  0  0
   -0.9485   -0.4087    0.3482 C   0  0  1  0  0  0  0  0  0  0  0  0
   -0.1408   -1.0795    0.0507 H   0  0  0  0  0  0  0  0  0  0  0  0
   -1.0432    0.7243   -0.6879 C   0  0  0  0  0  0  0  0  0  0  0  0
   -1.7186    0.4183   -1.4881 H   0  0  0  0  0  0  0  0  0  0  0  0
   -1.4776    1.6042   -0.2112 H   0  0  0  0  0  0  0  0  0  0  0  0
    0.2870    1.0991   -1.3132 C   0  0  0  0  0  0  0  0  0  0  0  0
    0.9450    2.2842   -0.9332 C   0  0  0  0  0  0  0  0  0  0  0  0
    0.4938    2.9471   -0.2084 H   0  0  0  0  0  0  0  0  0  0  0  0
    2.1982    2.6045   -1.4872 C   0  0  0  0  0  0  0  0  0  0  0  0
    2.7006    3.5163   -1.1960 H   0  0  0  0  0  0  0  0  0  0  0  0
    2.7962    1.7402   -2.4199 C   0  0  0  0  0  0  0  0  0  0  0  0
    3.7580    1.9874   -2.8472 H   0  0  0  0  0  0  0  0  0  0  0  0
    2.1407    0.5559   -2.8029 C   0  0  0  0  0  0  0  0  0  0  0  0
    2.5978   -0.1059   -3.5239 H   0  0  0  0  0  0  0  0  0  0  0  0
    0.8868    0.2377   -2.2516 C   0  0  0  0  0  0  0  0  0  0  0  0
    0.3820   -0.6720   -2.5496 H   0  0  0  0  0  0  0  0  0  0  0  0
   -0.6196    0.1253    1.7539 C   0  0  0  0  0  0  0  0  0  0  0  0
    0.5216    0.0194    2.2054 O   0  0  0  0  0  0  0  0  0  0  0  0
   -1.6152    0.6924    2.4469 N   0  0  0  0  0  0  0  0  0  0  0  0
   -2.5345    0.6914    2.0318 H   0  0  0  0  0  0  0  0  0  0  0  0
   -1.4720    1.2390    3.7941 C   0  0  0  0  0  0  0  0  0  0  0  0
   -0.6345    1.9391    3.8219 H   0  0  0  0  0  0  0  0  0  0  0  0
   -2.3844    1.7580    4.0892 H   0  0  0  0  0  0  0  0  0  0  0  0
   -1.2733    0.4298    4.4995 H   0  0  0  0  0  0  0  0  0  0  0  0
  5  6  2  0  0  0  0
  5  7  1  0  0  0  0
  2  3  1  0  0  0  0
  2  4  1  0  0  0  0
  2  5  1  0  0  0  0
  1  2  1  0  0  0  0
 25 26  2  0  0  0  0
 25 27  1  0  0  0  0
 23 24  1  0  0  0  0
 21 22  1  0  0  0  0
 21 23  2  0  0  0  0
 19 20  1  0  0  0  0
 19 21  1  0  0  0  0
 17 18  1  0  0  0  0
 17 19  2  0  0  0  0
 15 16  1  0  0  0  0
 15 17  1  0  0  0  0
 14 15  2  0  0  0  0
 14 23  1  0  0  0  0
 11 12  1  0  0  0  0
 11 13  1  0  0  0  0
 11 14  1  0  0  0  0
  9 10  1  0  0  0  0
  9 11  1  0  0  0  0
  9 25  1  0  0  0  0
  7  8  1  0  0  0  0
  7  9  1  0  0  0  0
 29 30  1  0  0  0  0
 29 31  1  0  0  0  0
 29 32  1  0  0  0  0
 27 28  1  0  0  0  0
 27 29  1  0  0  0  0
M  END
$$$$
default_name
  -OEChem-02102213163D

 32 32  0     1  0  0  0  0  0999 V2000
   -3.8405   -3.7518    1.6252 H   0  0  0  0  0  0  0  0  0  0  0  0
   -3.7965   -2.8768    0.9782 C   0  0  0  0  0  0  0  0  0  0  0  0
   -4.5465   -2.1527    1.2902 H   0  0  0  0  0  0  0  0  0  0  0  0
   -3.9745   -3.1748   -0.0538 H   0  0  0  0  0  0  0  0  0  0  0  0
   -2.4245   -2.2537    1.0882 C   0  0  0  0  0  0  0  0  0  0  0  0
   -1.5805   -2.7478    1.8242 O   0  0  0  0  0  0  0  0  0  0  0  0
   -2.2045   -1.1637    0.3562 N   0  0  0  0  0  0  0  0  0  0  0  0
   -2.9595   -0.7907   -0.2008 H   0  0  0  0  0  0  0  0  0  0  0  0
   -0.9485   -0.4087    0.3482 C   0  0  1  0  0  0  0  0  0  0  0  0
   -0.1408   -1.0795    0.0507 H   0  0  0  0  0  0  0  0  0  0  0  0
   -1.0432    0.7243   -0.6879 C   0  0  0  0  0  0  0  0  0  0  0  0
   -1.7186    0.4183   -1.4881 H   0  0  0  0  0  0  0  0  0  0  0  0
   -1.4776    1.6042   -0.2112 H   0  0  0  0  0  0  0  0  0  0  0  0
    0.2870    1.0991   -1.3132 C   0  0  0  0  0  0  0  0  0  0  0  0
    1.0947    2.0934   -0.7293 C   0  0  0  0  0  0  0  0  0  0  0  0
    0.7601    2.6128    0.1576 H   0  0  0  0  0  0  0  0  0  0  0  0
    2.3459    2.4066   -1.2916 C   0  0  0  0  0  0  0  0  0  0  0  0
    2.9633    3.1722   -0.8431 H   0  0  0  0  0  0  0  0  0  0  0  0
    2.7925    1.7255   -2.4367 C   0  0  0  0  0  0  0  0  0  0  0  0
    3.7528    1.9678   -2.8700 H   0  0  0  0  0  0  0  0  0  0  0  0
    1.9872    0.7324   -3.0235 C   0  0  0  0  0  0  0  0  0  0  0  0
    2.3280    0.2126   -3.9069 H   0  0  0  0  0  0  0  0  0  0  0  0
    0.7354    0.4220   -2.4633 C   0  0  0  0  0  0  0  0  0  0  0  0
    0.1154   -0.3399   -2.9177 H   0  0  0  0  0  0  0  0  0  0  0  0
   -0.6196    0.1253    1.7539 C   0  0  0  0  0  0  0  0  0  0  0  0
    0.5216    0.0194    2.2054 O   0  0  0  0  0  0  0  0  0  0  0  0
   -1.6152    0.6924    2.4469 N   0  0  0  0  0  0  0  0  0  0  0  0
   -2.5345    0.6914    2.0318 H   0  0  0  0  0  0  0  0  0  0  0  0
   -1.4720    1.2390    3.7941 C   0  0  0  0  0  0  0  0  0  0  0  0
   -0.6345    1.9391    3.8219 H   0  0  0  0  0  0  0  0  0  0  0  0
   -2.3844    1.7580    4.0892 H   0  0  0  0  0  0  0  0  0  0  0  0
   -1.2733    0.4298    4.4995 H   0  0  0  0  0  0  0  0  0  0  0  0
  5  6  2  0  0  0  0
  5  7  1  0  0  0  0
  2  3  1  0  0  0  0
  2  4  1  0  0  0  0
  2  5  1  0  0  0  0
  1  2  1  0  0  0  0
 25 26  2  0  0  0  0
 25 27  1  0  0  0  0
 23 24  1  0  0  0  0
 21 22  1  0  0  0  0
 21 23  2  0  0  0  0
 19 20  1  0  0  0  0
 19 21  1  0  0  0  0
 17 18  1  0  0  0  0
 17 19  2  0  0  0  0
 15 16  1  0  0  0  0
 15 17  1  0  0  0  0
 14 15  2  0  0  0  0
 14 23  1  0  0  0  0
 11 12  1  0  0  0  0
 11 13  1  0  0  0  0
 11 14  1  0  0  0  0
  9 10  1  0  0  0  0
  9 11  1  0  0  0  0
  9 25  1  0  0  0  0
  7  8  1  0  0  0  0
  7  9  1  0  0  0  0
 29 30  1  0  0  0  0
 29 31  1  0  0  0  0
 29 32  1  0  0  0  0
 27 28  1  0  0  0  0
 27 29  1  0  0  0  0
M  END
$$$$
default_name
  -OEChem-02102213163D

 32 32  0     1  0  0  0  0  0999 V2000
   -3.8405   -3.7518    1.6252 H   0  0  0  0  0  0  0  0  0  0  0  0
   -3.7965   -2.8768    0.9782 C   0  0  0  0  0  0  0  0  0  0  0  0
   -4.5465   -2.1527    1.2902 H   0  0  0  0  0  0  0  0  0  0  0  0
   -3.9745   -3.1748   -0.0538 H   0  0  0  0  0  0  0  0  0  0  0  0
   -2.4245   -2.2537    1.0882 C   0  0  0  0  0  0  0  0  0  0  0  0
   -1.5805   -2.7478    1.8242 O   0  0  0  0  0  0  0  0  0  0  0  0
   -2.2045   -1.1637    0.3562 N   0  0  0  0  0  0  0  0  0  0  0  0
   -2.9595   -0.7907   -0.2008 H   0  0  0  0  0  0  0  0  0  0  0  0
   -0.9485   -0.4087    0.3482 C   0  0  1  0  0  0  0  0  0  0  0  0
   -0.1408   -1.0795    0.0507 H   0  0  0  0  0  0  0  0  0  0  0  0
   -1.0432    0.7243   -0.6879 C   0  0  0  0  0  0  0  0  0  0  0  0
   -1.7186    0.4183   -1.4881 H   0  0  0  0  0  0  0  0  0  0  0  0
   -1.4776    1.6042   -0.2112 H   0  0  0  0  0  0  0  0  0  0  0  0
    0.2870    1.0991   -1.3132 C   0  0  0  0  0  0  0  0  0  0  0  0
    1.2319    1.8468   -0.5852 C   0  0  0  0  0  0  0  0  0  0  0  0
    1.0050    2.1785    0.4182 H   0  0  0  0  0  0  0  0  0  0  0  0
    2.4800    2.1553   -1.1570 C   0  0  0  0  0  0  0  0  0  0  0  0
    3.2030    2.7318   -0.5972 H   0  0  0  0  0  0  0  0  0  0  0  0
    2.7862    1.7156   -2.4560 C   0  0  0  0  0  0  0  0  0  0  0  0
    3.7442    1.9546   -2.8962 H   0  0  0  0  0  0  0  0  0  0  0  0
    1.8437    0.9695   -3.1868 C   0  0  0  0  0  0  0  0  0  0  0  0
    2.0768    0.6360   -4.1874 H   0  0  0  0  0  0  0  0  0  0  0  0
    0.5952    0.6641   -2.6163 C   0  0  0  0  0  0  0  0  0  0  0  0
   -0.1303    0.0929   -3.1809 H   0  0  0  0  0  0  0  0  0  0  0  0
   -0.6196    0.1253    1.7539 C   0  0  0  0  0  0  0  0  0  0  0  0
    0.5216    0.0194    2.2054 O   0  0  0  0  0  0  0  0  0  0  0  0
   -1.6152    0.6924    2.4469 N   0  0  0  0  0  0  0  0  0  0  0  0
   -2.5345    0.6914    2.0318 H   0  0  0  0  0  0  0  0  0  0  0  0
   -1.4720    1.2390    3.7941 C   0  0  0  0  0  0  0  0  0  0  0  0
   -0.6345    1.9391    3.8219 H   0  0  0  0  0  0  0  0  0  0  0  0
   -2.3844    1.7580    4.0892 H   0  0  0  0  0  0  0  0  0  0  0  0
   -1.2733    0.4298    4.4995 H   0  0  0  0  0  0  0  0  0  0  0  0
  5  6  2  0  0  0  0
  5  7  1  0  0  0  0
  2  3  1  0  0  0  0
  2  4  1  0  0  0  0
  2  5  1  0  0  0  0
  1  2  1  0  0  0  0
 25 26  2  0  0  0  0
 25 27  1  0  0  0  0
 23 24  1  0  0  0  0
 21 22  1  0  0  0  0
 21 23  2  0  0  0  0
 19 20  1  0  0  0  0
 19 21  1  0  0  0  0
 17 18  1  0  0  0  0
 17 19  2  0  0  0  0
 15 16  1  0  0  0  0
 15 17  1  0  0  0  0
 14 15  2  0  0  0  0
 14 23  1  0  0  0  0
 11 12  1  0  0  0  0
 11 13  1  0  0  0  0
 11 14  1  0  0  0  0
  9 10  1  0  0  0  0
  9 11  1  0  0  0  0
  9 25  1  0  0  0  0
  7  8  1  0  0  0  0
  7  9  1  0  0  0  0
 29 30  1  0  0  0  0
 29 31  1  0  0  0  0
 29 32  1  0  0  0  0
 27 28  1  0  0  0  0
 27 29  1  0  0  0  0
M  END
$$$$
default_name
  -OEChem-02102213163D

 32 32  0     1  0  0  0  0  0999 V2000
   -3.8405   -3.7518    1.6252 H   0  0  0  0  0  0  0  0  0  0  0  0
   -3.7965   -2.8768    0.9782 C   0  0  0  0  0  0  0  0  0  0  0  0
   -4.5465   -2.1527    1.2902 H   0  0  0  0  0  0  0  0  0  0  0  0
   -3.9745   -3.1748   -0.0538 H   0  0  0  0  0  0  0  0  0  0  0  0
   -2.4245   -2.2537    1.0882 C   0  0  0  0  0  0  0  0  0  0  0  0
   -1.5805   -2.7478    1.8242 O   0  0  0  0  0  0  0  0  0  0  0  0
   -2.2045   -1.1637    0.3562 N   0  0  0  0  0  0  0  0  0  0  0  0
   -2.9595   -0.7907   -0.2008 H   0  0  0  0  0  0  0  0  0  0  0  0
   -0.9485   -0.4087    0.3482 C   0  0  1  0  0  0  0  0  0  0  0  0
   -0.1408   -1.0795    0.0507 H   0  0  0  0  0  0  0  0  0  0  0  0
   -1.0432    0.7243   -0.6879 C   0  0  0  0  0  0  0  0  0  0  0  0
   -1.7186    0.4183   -1.4881 H   0  0  0  0  0  0  0  0  0  0  0  0
   -1.4776    1.6042   -0.2112 H   0  0  0  0  0  0  0  0  0  0  0  0
    0.2870    1.0991   -1.3132 C   0  0  0  0  0  0  0  0  0  0  0  0
    1.3473    1.5613   -0.5107 C   0  0  0  0  0  0  0  0  0  0  0  0
    1.2118    1.6737    0.5557 H   0  0  0  0  0  0  0  0  0  0  0  0
    2.5913    1.8678   -1.0926 C   0  0  0  0  0  0  0  0  0  0  0  0
    3.4033    2.2250   -0.4750 H   0  0  0  0  0  0  0  0  0  0  0  0
    2.7778    1.7110   -2.4765 C   0  0  0  0  0  0  0  0  0  0  0  0
    3.7328    1.9487   -2.9239 H   0  0  0  0  0  0  0  0  0  0  0  0
    1.7199    1.2508   -3.2815 C   0  0  0  0  0  0  0  0  0  0  0  0
    1.8615    1.1354   -4.3461 H   0  0  0  0  0  0  0  0  0  0  0  0
    0.4759    0.9477   -2.7002 C   0  0  0  0  0  0  0  0  0  0  0  0
   -0.3382    0.5969   -3.3211 H   0  0  0  0  0  0  0  0  0  0  0  0
   -0.6196    0.1253    1.7539 C   0  0  0  0  0  0  0  0  0  0  0  0
    0.5216    0.0194    2.2054 O   0  0  0  0  0  0  0  0  0  0  0  0
   -1.6152    0.6924    2.4469 N   0  0  0  0  0  0  0  0  0  0  0  0
   -2.5345    0.6914    2.0318 H   0  0  0  0  0  0  0  0  0  0  0  0
   -1.4720    1.2390    3.7941 C   0  0  0  0  0  0  0  0  0  0  0  0
   -0.6345    1.9391    3.8219 H   0  0  0  0  0  0  0  0  0  0  0  0
   -2.3844    1.7580    4.0892 H   0  0  0  0  0  0  0  0  0  0  0  0
   -1.2733    0.4298    4.4995 H   0  0  0  0  0  0  0  0  0  0  0  0
  5  6  2  0  0  0  0
  5  7  1  0  0  0  0
  2  3  1  0  0  0  0
  2  4  1  0  0  0  0
  2  5  1  0  0  0  0
  1  2  1  0  0  0  0
 25 26  2  0  0  0  0
 25 27  1  0  0  0  0
 23 24  1  0  0  0  0
 21 22  1  0  0  0  0
 21 23  2  0  0  0  0
 19 20  1  0  0  0  0
 19 21  1  0  0  0  0
 17 18  1  0  0  0  0
 17 19  2  0  0  0  0
 15 16  1  0  0  0  0
 15 17  1  0  0  0  0
 14 15  2  0  0  0  0
 14 23  1  0  0  0  0
 11 12  1  0  0  0  0
 11 13  1  0  0  0  0
 11 14  1  0  0  0  0
  9 10  1  0  0  0  0
  9 11  1  0  0  0  0
  9 25  1  0  0  0  0
  7  8  1  0  0  0  0
  7  9  1  0  0  0  0
 29 30  1  0  0  0  0
 29 31  1  0  0  0  0
 29 32  1  0  0  0  0
 27 28  1  0  0  0  0
 27 29  1  0  0  0  0
M  END
$$$$
default_name
  -OEChem-02102213163D

 32 32  0     1  0  0  0  0  0999 V2000
   -3.8405   -3.7518    1.6252 H   0  0  0  0  0  0  0  0  0  0  0  0
   -3.7965   -2.8768    0.9782 C   0  0  0  0  0  0  0  0  0  0  0  0
   -4.5465   -2.1527    1.2902 H   0  0  0  0  0  0  0  0  0  0  0  0
   -3.9745   -3.1748   -0.0538 H   0  0  0  0  0  0  0  0  0  0  0  0
   -2.4245   -2.2537    1.0882 C   0  0  0  0  0  0  0  0  0  0  0  0
   -1.5805   -2.7478    1.8242 O   0  0  0  0  0  0  0  0  0  0  0  0
   -2.2045   -1.1637    0.3562 N   0  0  0  0  0  0  0  0  0  0  0  0
   -2.9595   -0.7907   -0.2008 H   0  0  0  0  0  0  0  0  0  0  0  0
   -0.9485   -0.4087    0.3482 C   0  0  1  0  0  0  0  0  0  0  0  0
   -0.1408   -1.0795    0.0507 H   0  0  0  0  0  0  0  0  0  0  0  0
   -1.0432    0.7243   -0.6879 C   0  0  0  0  0  0  0  0  0  0  0  0
   -1.7186    0.4183   -1.4881 H   0  0  0  0  0  0  0  0  0  0  0  0
   -1.4776    1.6042   -0.2112 H   0  0  0  0  0  0  0  0  0  0  0  0
    0.2870    1.0991   -1.3132 C   0  0  0  0  0  0  0  0  0  0  0  0
    1.4331    1.2563   -0.5110 C   0  0  0  0  0  0  0  0  0  0  0  0
    1.3666    1.1328    0.5607 H   0  0  0  0  0  0  0  0  0  0  0  0
    2.6722    1.5635   -1.1028 C   0  0  0  0  0  0  0  0  0  0  0  0
    3.5505    1.6863   -0.4847 H   0  0  0  0  0  0  0  0  0  0  0  0
    2.7680    1.7121   -2.4968 C   0  0  0  0  0  0  0  0  0  0  0  0
    3.7195    1.9505   -2.9512 H   0  0  0  0  0  0  0  0  0  0  0  0
    1.6243    1.5572   -3.3012 C   0  0  0  0  0  0  0  0  0  0  0  0
    1.6966    1.6768   -4.3723 H   0  0  0  0  0  0  0  0  0  0  0  0
    0.3855    1.2534   -2.7092 C   0  0  0  0  0  0  0  0  0  0  0  0
   -0.4943    1.1378   -3.3288 H   0  0  0  0  0  0  0  0  0  0  0  0
   -0.6196    0.1253    1.7539 C   0  0  0  0  0  0  0  0  0  0  0  0
    0.5216    0.0194    2.2054 O   0  0  0  0  0  0  0  0  0  0  0  0
   -1.6152    0.6924    2.4469 N   0  0  0  0  0  0  0  0  0  0  0  0
   -2.5345    0.6914    2.0318 H   0  0  0  0  0  0  0  0  0  0  0  0
   -1.4720    1.2390    3.7941 C   0  0  0  0  0  0  0  0  0  0  0  0
   -0.6345    1.9391    3.8219 H   0  0  0  0  0  0  0  0  0  0  0  0
   -2.3844    1.7580    4.0892 H   0  0  0  0  0  0  0  0  0  0  0  0
   -1.2733    0.4298    4.4995 H   0  0  0  0  0  0  0  0  0  0  0  0
  5  6  2  0  0  0  0
  5  7  1  0  0  0  0
  2  3  1  0  0  0  0
  2  4  1  0  0  0  0
  2  5  1  0  0  0  0
  1  2  1  0  0  0  0
 25 26  2  0  0  0  0
 25 27  1  0  0  0  0
 23 24  1  0  0  0  0
 21 22  1  0  0  0  0
 21 23  2  0  0  0  0
 19 20  1  0  0  0  0
 19 21  1  0  0  0  0
 17 18  1  0  0  0  0
 17 19  2  0  0  0  0
 15 16  1  0  0  0  0
 15 17  1  0  0  0  0
 14 15  2  0  0  0  0
 14 23  1  0  0  0  0
 11 12  1  0  0  0  0
 11 13  1  0  0  0  0
 11 14  1  0  0  0  0
  9 10  1  0  0  0  0
  9 11  1  0  0  0  0
  9 25  1  0  0  0  0
  7  8  1  0  0  0  0
  7  9  1  0  0  0  0
 29 30  1  0  0  0  0
 29 31  1  0  0  0  0
 29 32  1  0  0  0  0
 27 28  1  0  0  0  0
 27 29  1  0  0  0  0
M  END
$$$$
default_name
  -OEChem-02102213163D

 32 32  0     1  0  0  0  0  0999 V2000
   -3.8405   -3.7518    1.6252 H   0  0  0  0  0  0  0  0  0  0  0  0
   -3.7965   -2.8768    0.9782 C   0  0  0  0  0  0  0  0  0  0  0  0
   -4.5465   -2.1527    1.2902 H   0  0  0  0  0  0  0  0  0  0  0  0
   -3.9745   -3.1748   -0.0538 H   0  0  0  0  0  0  0  0  0  0  0  0
   -2.4245   -2.2537    1.0882 C   0  0  0  0  0  0  0  0  0  0  0  0
   -1.5805   -2.7478    1.8242 O   0  0  0  0  0  0  0  0  0  0  0  0
   -2.2045   -1.1637    0.3562 N   0  0  0  0  0  0  0  0  0  0  0  0
   -2.9595   -0.7907   -0.2008 H   0  0  0  0  0  0  0  0  0  0  0  0
   -0.9485   -0.4087    0.3482 C   0  0  1  0  0  0  0  0  0  0  0  0
   -0.1408   -1.0795    0.0507 H   0  0  0  0  0  0  0  0  0  0  0  0
   -1.0432    0.7243   -0.6879 C   0  0  0  0  0  0  0  0  0  0  0  0
   -1.7186    0.4183   -1.4881 H   0  0  0  0  0  0  0  0  0  0  0  0
   -1.4776    1.6042   -0.2112 H   0  0  0  0  0  0  0  0  0  0  0  0
    0.2870    1.0991   -1.3132 C   0  0  0  0  0  0  0  0  0  0  0  0
    1.4835    0.9526   -0.5860 C   0  0  0  0  0  0  0  0  0  0  0  0
    1.4587    0.5927    0.4329 H   0  0  0  0  0  0  0  0  0  0  0  0
    2.7173    1.2633   -1.1869 C   0  0  0  0  0  0  0  0  0  0  0  0
    3.6346    1.1526   -0.6258 H   0  0  0  0  0  0  0  0  0  0  0  0
    2.7572    1.7189   -2.5156 C   0  0  0  0  0  0  0  0  0  0  0  0
    3.7050    1.9599   -2.9764 H   0  0  0  0  0  0  0  0  0  0  0  0
    1.5634    1.8679   -3.2446 C   0  0  0  0  0  0  0  0  0  0  0  0
    1.5935    2.2232   -4.2642 H   0  0  0  0  0  0  0  0  0  0  0  0
    0.3303    1.5604   -2.6427 C   0  0  0  0  0  0  0  0  0  0  0  0
   -0.5878    1.6786   -3.2036 H   0  0  0  0  0  0  0  0  0  0  0  0
   -0.6196    0.1253    1.7539 C   0  0  0  0  0  0  0  0  0  0  0  0
    0.5216    0.0194    2.2054 O   0  0  0  0  0  0  0  0  0  0  0  0
   -1.6152    0.6924    2.4469 N   0  0  0  0  0  0  0  0  0  0  0  0
   -2.5345    0.6914    2.0318 H   0  0  0  0  0  0  0  0  0  0  0  0
   -1.4720    1.2390    3.7941 C   0  0  0  0  0  0  0  0  0  0  0  0
   -0.6345    1.9391    3.8219 H   0  0  0  0  0  0  0  0  0  0  0  0
   -2.3844    1.7580    4.0892 H   0  0  0  0  0  0  0  0  0  0  0  0
   -1.2733    0.4298    4.4995 H   0  0  0  0  0  0  0  0  0  0  0  0
  5  6  2  0  0  0  0
  5  7  1  0  0  0  0
  2  3  1  0  0  0  0
  2  4  1  0  0  0  0
  2  5  1  0  0  0  0
  1  2  1  0  0  0  0
 25 26  2  0  0  0  0
 25 27  1  0  0  0  0
 23 24  1  0  0  0  0
 21 22  1  0  0  0  0
 21 23  2  0  0  0  0
 19 20  1  0  0  0  0
 19 21  1  0  0  0  0
 17 18  1  0  0  0  0
 17 19  2  0  0  0  0
 15 16  1  0  0  0  0
 15 17  1  0  0  0  0
 14 15  2  0  0  0  0
 14 23  1  0  0  0  0
 11 12  1  0  0  0  0
 11 13  1  0  0  0  0
 11 14  1  0  0  0  0
  9 10  1  0  0  0  0
  9 11  1  0  0  0  0
  9 25  1  0  0  0  0
  7  8  1  0  0  0  0
  7  9  1  0  0  0  0
 29 30  1  0  0  0  0
 29 31  1  0  0  0  0
 29 32  1  0  0  0  0
 27 28  1  0  0  0  0
 27 29  1  0  0  0  0
M  END
$$$$
default_name
  -OEChem-02102213163D

 32 32  0     1  0  0  0  0  0999 V2000
   -3.8405   -3.7518    1.6252 H   0  0  0  0  0  0  0  0  0  0  0  0
   -3.7965   -2.8768    0.9782 C   0  0  0  0  0  0  0  0  0  0  0  0
   -4.5465   -2.1527    1.2902 H   0  0  0  0  0  0  0  0  0  0  0  0
   -3.9745   -3.1748   -0.0538 H   0  0  0  0  0  0  0  0  0  0  0  0
   -2.4245   -2.2537    1.0882 C   0  0  0  0  0  0  0  0  0  0  0  0
   -1.5805   -2.7478    1.8242 O   0  0  0  0  0  0  0  0  0  0  0  0
   -2.2045   -1.1637    0.3562 N   0  0  0  0  0  0  0  0  0  0  0  0
   -2.9595   -0.7907   -0.2008 H   0  0  0  0  0  0  0  0  0  0  0  0
   -0.9485   -0.4087    0.3482 C   0  0  1  0  0  0  0  0  0  0  0  0
   -0.1408   -1.0795    0.0507 H   0  0  0  0  0  0  0  0  0  0  0  0
   -1.0432    0.7243   -0.6879 C   0  0  0  0  0  0  0  0  0  0  0  0
   -1.7186    0.4183   -1.4881 H   0  0  0  0  0  0  0  0  0  0  0  0
   -1.4776    1.6042   -0.2112 H   0  0  0  0  0  0  0  0  0  0  0  0
    0.2870    1.0991   -1.3132 C   0  0  0  0  0  0  0  0  0  0  0  0
    1.4949    0.6709   -0.7305 C   0  0  0  0  0  0  0  0  0  0  0  0
    1.4819    0.0901    0.1810 H   0  0  0  0  0  0  0  0  0  0  0  0
    2.7234    0.9876   -1.3391 C   0  0  0  0  0  0  0  0  0  0  0  0
    3.6498    0.6600   -0.8886 H   0  0  0  0  0  0  0  0  0  0  0  0
    2.7464    1.7309   -2.5314 C   0  0  0  0  0  0  0  0  0  0  0  0
    3.6904    1.9762   -2.9977 H   0  0  0  0  0  0  0  0  0  0  0  0
    1.5413    2.1616   -3.1155 C   0  0  0  0  0  0  0  0  0  0  0  0
    1.5591    2.7376   -4.0291 H   0  0  0  0  0  0  0  0  0  0  0  0
    0.3139    1.8477   -2.5053 C   0  0  0  0  0  0  0  0  0  0  0  0
   -0.6124    2.1826   -2.9539 H   0  0  0  0  0  0  0  0  0  0  0  0
   -0.6196    0.1253    1.7539 C   0  0  0  0  0  0  0  0  0  0  0  0
    0.5216    0.0194    2.2054 O   0  0  0  0  0  0  0  0  0  0  0  0
   -1.6152    0.6924    2.4469 N   0  0  0  0  0  0  0  0  0  0  0  0
   -2.5345    0.6914    2.0318 H   0  0  0  0  0  0  0  0  0  0  0  0
   -1.4720    1.2390    3.7941 C   0  0  0  0  0  0  0  0  0  0  0  0
   -0.6345    1.9391    3.8219 H   0  0  0  0  0  0  0  0  0  0  0  0
   -2.3844    1.7580    4.0892 H   0  0  0  0  0  0  0  0  0  0  0  0
   -1.2733    0.4298    4.4995 H   0  0  0  0  0  0  0  0  0  0  0  0
  5  6  2  0  0  0  0
  5  7  1  0  0  0  0
  2  3  1  0  0  0  0
  2  4  1  0  0  0  0
  2  5  1  0  0  0  0
  1  2  1  0  0  0  0
 25 26  2  0  0  0  0
 25 27  1  0  0  0  0
 23 24  1  0  0  0  0
 21 22  1  0  0  0  0
 21 23  2  0  0  0  0
 19 20  1  0  0  0  0
 19 21  1  0  0  0  0
 17 18  1  0  0  0  0
 17 19  2  0  0  0  0
 15 16  1  0  0  0  0
 15 17  1  0  0  0  0
 14 15  2  0  0  0  0
 14 23  1  0  0  0  0
 11 12  1  0  0  0  0
 11 13  1  0  0  0  0
 11 14  1  0  0  0  0
  9 10  1  0  0  0  0
  9 11  1  0  0  0  0
  9 25  1  0  0  0  0
  7  8  1  0  0  0  0
  7  9  1  0  0  0  0
 29 30  1  0  0  0  0
 29 31  1  0  0  0  0
 29 32  1  0  0  0  0
 27 28  1  0  0  0  0
 27 29  1  0  0  0  0
M  END
$$$$
default_name
  -OEChem-02102213163D

 32 32  0     1  0  0  0  0  0999 V2000
   -3.8405   -3.7518    1.6252 H   0  0  0  0  0  0  0  0  0  0  0  0
   -3.7965   -2.8768    0.9782 C   0  0  0  0  0  0  0  0  0  0  0  0
   -4.5465   -2.1527    1.2902 H   0  0  0  0  0  0  0  0  0  0  0  0
   -3.9745   -3.1748   -0.0538 H   0  0  0  0  0  0  0  0  0  0  0  0
   -2.4245   -2.2537    1.0882 C   0  0  0  0  0  0  0  0  0  0  0  0
   -1.5805   -2.7478    1.8242 O   0  0  0  0  0  0  0  0  0  0  0  0
   -2.2045   -1.1637    0.3562 N   0  0  0  0  0  0  0  0  0  0  0  0
   -2.9595   -0.7907   -0.2008 H   0  0  0  0  0  0  0  0  0  0  0  0
   -0.9485   -0.4087    0.3482 C   0  0  1  0  0  0  0  0  0  0  0  0
   -0.1408   -1.0795    0.0507 H   0  0  0  0  0  0  0  0  0  0  0  0
   -1.0432    0.7243   -0.6879 C   0  0  0  0  0  0  0  0  0  0  0  0
   -1.7186    0.4183   -1.4881 H   0  0  0  0  0  0  0  0  0  0  0  0
   -1.4776    1.6042   -0.2112 H   0  0  0  0  0  0  0  0  0  0  0  0
    0.2870    1.0991   -1.3132 C   0  0  0  0  0  0  0  0  0  0  0  0
    1.4666    0.4304   -0.9348 C   0  0  0  0  0  0  0  0  0  0  0  0
    1.4345   -0.3406   -0.1779 H   0  0  0  0  0  0  0  0  0  0  0  0
    2.6902    0.7552   -1.5491 C   0  0  0  0  0  0  0  0  0  0  0  0
    3.5952    0.2423   -1.2553 H   0  0  0  0  0  0  0  0  0  0  0  0
    2.7362    1.7471   -2.5434 C   0  0  0  0  0  0  0  0  0  0  0  0
    3.6767    1.9983   -3.0136 H   0  0  0  0  0  0  0  0  0  0  0  0
    1.5596    2.4184   -2.9227 C   0  0  0  0  0  0  0  0  0  0  0  0
    1.5957    3.1847   -3.6831 H   0  0  0  0  0  0  0  0  0  0  0  0
    0.3375    2.0958   -2.3063 C   0  0  0  0  0  0  0  0  0  0  0  0
   -0.5664    2.6153   -2.5967 H   0  0  0  0  0  0  0  0  0  0  0  0
   -0.6196    0.1253    1.7539 C   0  0  0  0  0  0  0  0  0  0  0  0
    0.5216    0.0194    2.2054 O   0  0  0  0  0  0  0  0  0  0  0  0
   -1.6152    0.6924    2.4469 N   0  0  0  0  0  0  0  0  0  0  0  0
   -2.5345    0.6914    2.0318 H   0  0  0  0  0  0  0  0  0  0  0  0
   -1.4720    1.2390    3.7941 C   0  0  0  0  0  0  0  0  0  0  0  0
   -0.6345    1.9391    3.8219 H   0  0  0  0  0  0  0  0  0  0  0  0
   -2.3844    1.7580    4.0892 H   0  0  0  0  0  0  0  0  0  0  0  0
   -1.2733    0.4298    4.4995 H   0  0  0  0  0  0  0  0  0  0  0  0
  5  6  2  0  0  0  0
  5  7  1  0  0  0  0
  2  3  1  0  0  0  0
  2  4  1  0  0  0  0
  2  5  1  0  0  0  0
  1  2  1  0  0  0  0
 25 26  2  0  0  0  0
 25 27  1  0  0  0  0
 23 24  1  0  0  0  0
 21 22  1  0  0  0  0
 21 23  2  0  0  0  0
 19 20  1  0  0  0  0
 19 21  1  0  0  0  0
 17 18  1  0  0  0  0
 17 19  2  0  0  0  0
 15 16  1  0  0  0  0
 15 17  1  0  0  0  0
 14 15  2  0  0  0  0
 14 23  1  0  0  0  0
 11 12  1  0  0  0  0
 11 13  1  0  0  0  0
 11 14  1  0  0  0  0
  9 10  1  0  0  0  0
  9 11  1  0  0  0  0
  9 25  1  0  0  0  0
  7  8  1  0  0  0  0
  7  9  1  0  0  0  0
 29 30  1  0  0  0  0
 29 31  1  0  0  0  0
 29 32  1  0  0  0  0
 27 28  1  0  0  0  0
 27 29  1  0  0  0  0
M  END
$$$$
default_name
  -OEChem-02102213163D

 32 32  0     1  0  0  0  0  0999 V2000
   -3.8405   -3.7518    1.6252 H   0  0  0  0  0  0  0  0  0  0  0  0
   -3.7965   -2.8768    0.9782 C   0  0  0  0  0  0  0  0  0  0  0  0
   -4.5465   -2.1527    1.2902 H   0  0  0  0  0  0  0  0  0  0  0  0
   -3.9745   -3.1748   -0.0538 H   0  0  0  0  0  0  0  0  0  0  0  0
   -2.4245   -2.2537    1.0882 C   0  0  0  0  0  0  0  0  0  0  0  0
   -1.5805   -2.7478    1.8242 O   0  0  0  0  0  0  0  0  0  0  0  0
   -2.2045   -1.1637    0.3562 N   0  0  0  0  0  0  0  0  0  0  0  0
   -2.9595   -0.7907   -0.2008 H   0  0  0  0  0  0  0  0  0  0  0  0
   -0.9485   -0.4087    0.3482 C   0  0  1  0  0  0  0  0  0  0  0  0
   -0.1408   -1.0795    0.0507 H   0  0  0  0  0  0  0  0  0  0  0  0
   -1.0432    0.7243   -0.6879 C   0  0  0  0  0  0  0  0  0  0  0  0
   -1.7186    0.4183   -1.4881 H   0  0  0  0  0  0  0  0  0  0  0  0
   -1.4776    1.6042   -0.2112 H   0  0  0  0  0  0  0  0  0  0  0  0
    0.2870    1.0991   -1.3132 C   0  0  0  0  0  0  0  0  0  0  0  0
    1.4006    0.2474   -1.1850 C   0  0  0  0  0  0  0  0  0  0  0  0
    1.3199   -0.6701   -0.6193 H   0  0  0  0  0  0  0  0  0  0  0  0
    2.6198    0.5819   -1.8026 C   0  0  0  0  0  0  0  0  0  0  0  0
    3.4744   -0.0722   -1.7007 H   0  0  0  0  0  0  0  0  0  0  0  0
    2.7273    1.7667   -2.5505 C   0  0  0  0  0  0  0  0  0  0  0  0
    3.6648    2.0248   -3.0231 H   0  0  0  0  0  0  0  0  0  0  0  0
    1.6169    2.6207   -2.6794 C   0  0  0  0  0  0  0  0  0  0  0  0
    1.7009    3.5341   -3.2498 H   0  0  0  0  0  0  0  0  0  0  0  0
    0.3995    2.2878   -2.0593 C   0  0  0  0  0  0  0  0  0  0  0  0
   -0.4531    2.9473   -2.1565 H   0  0  0  0  0  0  0  0  0  0  0  0
   -0.6196    0.1253    1.7539 C   0  0  0  0  0  0  0  0  0  0  0  0
    0.5216    0.0194    2.2054 O   0  0  0  0  0  0  0  0  0  0  0  0
   -1.6152    0.6924    2.4469 N   0  0  0  0  0  0  0  0  0  0  0  0
   -2.5345    0.6914    2.0318 H   0  0  0  0  0  0  0  0  0  0  0  0
   -1.4720    1.2390    3.7941 C   0  0  0  0  0  0  0  0  0  0  0  0
   -0.6345    1.9391    3.8219 H   0  0  0  0  0  0  0  0  0  0  0  0
   -2.3844    1.7580    4.0892 H   0  0  0  0  0  0  0  0  0  0  0  0
   -1.2733    0.4298    4.4995 H   0  0  0  0  0  0  0  0  0  0  0  0
  5  6  2  0  0  0  0
  5  7  1  0  0  0  0
  2  3  1  0  0  0  0
  2  4  1  0  0  0  0
  2  5  1  0  0  0  0
  1  2  1  0  0  0  0
 25 26  2  0  0  0  0
 25 27  1  0  0  0  0
 23 24  1  0  0  0  0
 21 22  1  0  0  0  0
 21 23  2  0  0  0  0
 19 20  1  0  0  0  0
 19 21  1  0  0  0  0
 17 18  1  0  0  0  0
 17 19  2  0  0  0  0
 15 16  1  0  0  0  0
 15 17  1  0  0  0  0
 14 15  2  0  0  0  0
 14 23  1  0  0  0  0
 11 12  1  0  0  0  0
 11 13  1  0  0  0  0
 11 14  1  0  0  0  0
  9 10  1  0  0  0  0
  9 11  1  0  0  0  0
  9 25  1  0  0  0  0
  7  8  1  0  0  0  0
  7  9  1  0  0  0  0
 29 30  1  0  0  0  0
 29 31  1  0  0  0  0
 29 32  1  0  0  0  0
 27 28  1  0  0  0  0
 27 29  1  0  0  0  0
M  END
$$$$
default_name
  -OEChem-02102213163D

 32 32  0     1  0  0  0  0  0999 V2000
   -3.8405   -3.7518    1.6252 H   0  0  0  0  0  0  0  0  0  0  0  0
   -3.7965   -2.8768    0.9782 C   0  0  0  0  0  0  0  0  0  0  0  0
   -4.5465   -2.1527    1.2902 H   0  0  0  0  0  0  0  0  0  0  0  0
   -3.9745   -3.1748   -0.0538 H   0  0  0  0  0  0  0  0  0  0  0  0
   -2.4245   -2.2537    1.0882 C   0  0  0  0  0  0  0  0  0  0  0  0
   -1.5805   -2.7478    1.8242 O   0  0  0  0  0  0  0  0  0  0  0  0
   -2.2045   -1.1637    0.3562 N   0  0  0  0  0  0  0  0  0  0  0  0
   -2.9595   -0.7907   -0.2008 H   0  0  0  0  0  0  0  0  0  0  0  0
   -0.9485   -0.4087    0.3482 C   0  0  1  0  0  0  0  0  0  0  0  0
   -0.1408   -1.0795    0.0507 H   0  0  0  0  0  0  0  0  0  0  0  0
   -1.0432    0.7243   -0.6879 C   0  0  0  0  0  0  0  0  0  0  0  0
   -1.7186    0.4183   -1.4881 H   0  0  0  0  0  0  0  0  0  0  0  0
   -1.4776    1.6042   -0.2112 H   0  0  0  0  0  0  0  0  0  0  0  0
    0.2870    1.0991   -1.3132 C   0  0  0  0  0  0  0  0  0  0  0  0
    1.3013    0.1345   -1.4639 C   0  0  0  0  0  0  0  0  0  0  0  0
    1.1458   -0.8759   -1.1131 H   0  0  0  0  0  0  0  0  0  0  0  0
    2.5172    0.4796   -2.0823 C   0  0  0  0  0  0  0  0  0  0  0  0
    3.2957   -0.2619   -2.1946 H   0  0  0  0  0  0  0  0  0  0  0  0
    2.7204    1.7881   -2.5525 C   0  0  0  0  0  0  0  0  0  0  0  0
    3.6555    2.0538   -3.0254 H   0  0  0  0  0  0  0  0  0  0  0  0
    1.7095    2.7548   -2.4021 C   0  0  0  0  0  0  0  0  0  0  0  0
    1.8676    3.7621   -2.7586 H   0  0  0  0  0  0  0  0  0  0  0  0
    0.4957    2.4105   -1.7812 C   0  0  0  0  0  0  0  0  0  0  0  0
   -0.2799    3.1560   -1.6631 H   0  0  0  0  0  0  0  0  0  0  0  0
   -0.6196    0.1253    1.7539 C   0  0  0  0  0  0  0  0  0  0  0  0
    0.5216    0.0194    2.2054 O   0  0  0  0  0  0  0  0  0  0  0  0
   -1.6152    0.6924    2.4469 N   0  0  0  0  0  0  0  0  0  0  0  0
   -2.5345    0.6914    2.0318 H   0  0  0  0  0  0  0  0  0  0  0  0
   -1.4720    1.2390    3.7941 C   0  0  0  0  0  0  0  0  0  0  0  0
   -0.6345    1.9391    3.8219 H   0  0  0  0  0  0  0  0  0  0  0  0
   -2.3844    1.7580    4.0892 H   0  0  0  0  0  0  0  0  0  0  0  0
   -1.2733    0.4298    4.4995 H   0  0  0  0  0  0  0  0  0  0  0  0
  5  6  2  0  0  0  0
  5  7  1  0  0  0  0
  2  3  1  0  0  0  0
  2  4  1  0  0  0  0
  2  5  1  0  0  0  0
  1  2  1  0  0  0  0
 25 26  2  0  0  0  0
 25 27  1  0  0  0  0
 23 24  1  0  0  0  0
 21 22  1  0  0  0  0
 21 23  2  0  0  0  0
 19 20  1  0  0  0  0
 19 21  1  0  0  0  0
 17 18  1  0  0  0  0
 17 19  2  0  0  0  0
 15 16  1  0  0  0  0
 15 17  1  0  0  0  0
 14 15  2  0  0  0  0
 14 23  1  0  0  0  0
 11 12  1  0  0  0  0
 11 13  1  0  0  0  0
 11 14  1  0  0  0  0
  9 10  1  0  0  0  0
  9 11  1  0  0  0  0
  9 25  1  0  0  0  0
  7  8  1  0  0  0  0
  7  9  1  0  0  0  0
 29 30  1  0  0  0  0
 29 31  1  0  0  0  0
 29 32  1  0  0  0  0
 27 28  1  0  0  0  0
 27 29  1  0  0  0  0
M  END
$$$$
default_name
  -OEChem-02102213163D

 32 32  0     1  0  0  0  0  0999 V2000
   -3.8405   -3.7518    1.6252 H   0  0  0  0  0  0  0  0  0  0  0  0
   -3.7965   -2.8768    0.9782 C   0  0  0  0  0  0  0  0  0  0  0  0
   -4.5465   -2.1527    1.2902 H   0  0  0  0  0  0  0  0  0  0  0  0
   -3.9745   -3.1748   -0.0538 H   0  0  0  0  0  0  0  0  0  0  0  0
   -2.4245   -2.2537    1.0882 C   0  0  0  0  0  0  0  0  0  0  0  0
   -1.5805   -2.7478    1.8242 O   0  0  0  0  0  0  0  0  0  0  0  0
   -2.2045   -1.1637    0.3562 N   0  0  0  0  0  0  0  0  0  0  0  0
   -2.9595   -0.7907   -0.2008 H   0  0  0  0  0  0  0  0  0  0  0  0
   -0.9485   -0.4087    0.3482 C   0  0  1  0  0  0  0  0  0  0  0  0
   -0.1408   -1.0795    0.0507 H   0  0  0  0  0  0  0  0  0  0  0  0
   -1.0432    0.7243   -0.6879 C   0  0  0  0  0  0  0  0  0  0  0  0
   -1.7186    0.4183   -1.4881 H   0  0  0  0  0  0  0  0  0  0  0  0
   -1.4776    1.6042   -0.2112 H   0  0  0  0  0  0  0  0  0  0  0  0
    0.2870    1.0991   -1.3132 C   0  0  0  0  0  0  0  0  0  0  0  0
    1.1755    0.0994   -1.7526 C   0  0  0  0  0  0  0  0  0  0  0  0
    0.9241   -0.9441   -1.6257 H   0  0  0  0  0  0  0  0  0  0  0  0
    2.3893    0.4552   -2.3691 C   0  0  0  0  0  0  0  0  0  0  0  0
    3.0713   -0.3140   -2.7034 H   0  0  0  0  0  0  0  0  0  0  0  0
    2.7159    1.8100   -2.5490 C   0  0  0  0  0  0  0  0  0  0  0  0
    3.6495    2.0833   -3.0206 H   0  0  0  0  0  0  0  0  0  0  0  0
    1.8309    2.8115   -2.1098 C   0  0  0  0  0  0  0  0  0  0  0  0
    2.0843    3.8530   -2.2431 H   0  0  0  0  0  0  0  0  0  0  0  0
    0.6195    2.4557   -1.4907 C   0  0  0  0  0  0  0  0  0  0  0  0
   -0.0589    3.2271   -1.1503 H   0  0  0  0  0  0  0  0  0  0  0  0
   -0.6196    0.1253    1.7539 C   0  0  0  0  0  0  0  0  0  0  0  0
    0.5216    0.0194    2.2054 O   0  0  0  0  0  0  0  0  0  0  0  0
   -1.6152    0.6924    2.4469 N   0  0  0  0  0  0  0  0  0  0  0  0
   -2.5345    0.6914    2.0318 H   0  0  0  0  0  0  0  0  0  0  0  0
   -1.4720    1.2390    3.7941 C   0  0  0  0  0  0  0  0  0  0  0  0
   -0.6345    1.9391    3.8219 H   0  0  0  0  0  0  0  0  0  0  0  0
   -2.3844    1.7580    4.0892 H   0  0  0  0  0  0  0  0  0  0  0  0
   -1.2733    0.4298    4.4995 H   0  0  0  0  0  0  0  0  0  0  0  0
  5  6  2  0  0  0  0
  5  7  1  0  0  0  0
  2  3  1  0  0  0  0
  2  4  1  0  0  0  0
  2  5  1  0  0  0  0
  1  2  1  0  0  0  0
 25 26  2  0  0  0  0
 25 27  1  0  0  0  0
 23 24  1  0  0  0  0
 21 22  1  0  0  0  0
 21 23  2  0  0  0  0
 19 20  1  0  0  0  0
 19 21  1  0  0  0  0
 17 18  1  0  0  0  0
 17 19  2  0  0  0  0
 15 16  1  0  0  0  0
 15 17  1  0  0  0  0
 14 15  2  0  0  0  0
 14 23  1  0  0  0  0
 11 12  1  0  0  0  0
 11 13  1  0  0  0  0
 11 14  1  0  0  0  0
  9 10  1  0  0  0  0
  9 11  1  0  0  0  0
  9 25  1  0  0  0  0
  7  8  1  0  0  0  0
  7  9  1  0  0  0  0
 29 30  1  0  0  0  0
 29 31  1  0  0  0  0
 29 32  1  0  0  0  0
 27 28  1  0  0  0  0
 27 29  1  0  0  0  0
M  END
$$$$
default_name
  -OEChem-02102213163D

 32 32  0     1  0  0  0  0  0999 V2000
   -3.8405   -3.7518    1.6252 H   0  0  0  0  0  0  0  0  0  0  0  0
   -3.7965   -2.8768    0.9782 C   0  0  0  0  0  0  0  0  0  0  0  0
   -4.5465   -2.1527    1.2902 H   0  0  0  0  0  0  0  0  0  0  0  0
   -3.9745   -3.1748   -0.0538 H   0  0  0  0  0  0  0  0  0  0  0  0
   -2.4245   -2.2537    1.0882 C   0  0  0  0  0  0  0  0  0  0  0  0
   -1.5805   -2.7478    1.8242 O   0  0  0  0  0  0  0  0  0  0  0  0
   -2.2045   -1.1637    0.3562 N   0  0  0  0  0  0  0  0  0  0  0  0
   -2.9595   -0.7907   -0.2008 H   0  0  0  0  0  0  0  0  0  0  0  0
   -0.9485   -0.4087    0.3482 C   0  0  1  0  0  0  0  0  0  0  0  0
   -0.1408   -1.0795    0.0507 H   0  0  0  0  0  0  0  0  0  0  0  0
   -1.0432    0.7243   -0.6879 C   0  0  0  0  0  0  0  0  0  0  0  0
   -1.7186    0.4183   -1.4881 H   0  0  0  0  0  0  0  0  0  0  0  0
   -1.4776    1.6042   -0.2112 H   0  0  0  0  0  0  0  0  0  0  0  0
    0.2870    1.0991   -1.3132 C   0  0  0  0  0  0  0  0  0  0  0  0
    1.0318    0.1444   -2.0313 C   0  0  0  0  0  0  0  0  0  0  0  0
    0.6698   -0.8700   -2.1221 H   0  0  0  0  0  0  0  0  0  0  0  0
    2.2448    0.5103   -2.6435 C   0  0  0  0  0  0  0  0  0  0  0  0
    2.8164   -0.2250   -3.1922 H   0  0  0  0  0  0  0  0  0  0  0  0
    2.7140    1.8308   -2.5404 C   0  0  0  0  0  0  0  0  0  0  0  0
    3.6471    2.1113   -3.0088 H   0  0  0  0  0  0  0  0  0  0  0  0
    1.9730    2.7869   -1.8223 C   0  0  0  0  0  0  0  0  0  0  0  0
    2.3362    3.8007   -1.7384 H   0  0  0  0  0  0  0  0  0  0  0  0
    0.7625    2.4202   -1.2079 C   0  0  0  0  0  0  0  0  0  0  0  0
    0.1950    3.1558   -0.6529 H   0  0  0  0  0  0  0  0  0  0  0  0
   -0.6196    0.1253    1.7539 C   0  0  0  0  0  0  0  0  0  0  0  0
    0.5216    0.0194    2.2054 O   0  0  0  0  0  0  0  0  0  0  0  0
   -1.6152    0.6924    2.4469 N   0  0  0  0  0  0  0  0  0  0  0  0
   -2.5345    0.6914    2.0318 H   0  0  0  0  0  0  0  0  0  0  0  0
   -1.4720    1.2390    3.7941 C   0  0  0  0  0  0  0  0  0  0  0  0
   -0.6345    1.9391    3.8219 H   0  0  0  0  0  0  0  0  0  0  0  0
   -2.3844    1.7580    4.0892 H   0  0  0  0  0  0  0  0  0  0  0  0
   -1.2733    0.4298    4.4995 H   0  0  0  0  0  0  0  0  0  0  0  0
  5  6  2  0  0  0  0
  5  7  1  0  0  0  0
  2  3  1  0  0  0  0
  2  4  1  0  0  0  0
  2  5  1  0  0  0  0
  1  2  1  0  0  0  0
 25 26  2  0  0  0  0
 25 27  1  0  0  0  0
 23 24  1  0  0  0  0
 21 22  1  0  0  0  0
 21 23  2  0  0  0  0
 19 20  1  0  0  0  0
 19 21  1  0  0  0  0
 17 18  1  0  0  0  0
 17 19  2  0  0  0  0
 15 16  1  0  0  0  0
 15 17  1  0  0  0  0
 14 15  2  0  0  0  0
 14 23  1  0  0  0  0
 11 12  1  0  0  0  0
 11 13  1  0  0  0  0
 11 14  1  0  0  0  0
  9 10  1  0  0  0  0
  9 11  1  0  0  0  0
  9 25  1  0  0  0  0
  7  8  1  0  0  0  0
  7  9  1  0  0  0  0
 29 30  1  0  0  0  0
 29 31  1  0  0  0  0
 29 32  1  0  0  0  0
 27 28  1  0  0  0  0
 27 29  1  0  0  0  0
M  END
$$$$
default_name
  -OEChem-02102213163D

 32 32  0     1  0  0  0  0  0999 V2000
   -3.8405   -3.7518    1.6252 H   0  0  0  0  0  0  0  0  0  0  0  0
   -3.7965   -2.8768    0.9782 C   0  0  0  0  0  0  0  0  0  0  0  0
   -4.5465   -2.1527    1.2902 H   0  0  0  0  0  0  0  0  0  0  0  0
   -3.9745   -3.1748   -0.0538 H   0  0  0  0  0  0  0  0  0  0  0  0
   -2.4245   -2.2537    1.0882 C   0  0  0  0  0  0  0  0  0  0  0  0
   -1.5805   -2.7478    1.8242 O   0  0  0  0  0  0  0  0  0  0  0  0
   -2.2045   -1.1637    0.3562 N   0  0  0  0  0  0  0  0  0  0  0  0
   -2.9595   -0.7907   -0.2008 H   0  0  0  0  0  0  0  0  0  0  0  0
   -0.9485   -0.4087    0.3482 C   0  0  1  0  0  0  0  0  0  0  0  0
   -0.1408   -1.0795    0.0507 H   0  0  0  0  0  0  0  0  0  0  0  0
   -1.0432    0.7243   -0.6879 C   0  0  0  0  0  0  0  0  0  0  0  0
   -1.7186    0.4183   -1.4881 H   0  0  0  0  0  0  0  0  0  0  0  0
   -1.4776    1.6042   -0.2112 H   0  0  0  0  0  0  0  0  0  0  0  0
    0.2870    1.0991   -1.3132 C   0  0  0  0  0  0  0  0  0  0  0  0
    0.8800    0.2665   -2.2812 C   0  0  0  0  0  0  0  0  0  0  0  0
    0.4004   -0.6586   -2.5685 H   0  0  0  0  0  0  0  0  0  0  0  0
    2.0935    0.6413   -2.8868 C   0  0  0  0  0  0  0  0  0  0  0  0
    2.5484   -0.0008   -3.6279 H   0  0  0  0  0  0  0  0  0  0  0  0
    2.7150    1.8492   -2.5273 C   0  0  0  0  0  0  0  0  0  0  0  0
    3.6486    2.1360   -2.9908 H   0  0  0  0  0  0  0  0  0  0  0  0
    2.1259    2.6828   -1.5593 C   0  0  0  0  0  0  0  0  0  0  0  0
    2.6063    3.6088   -1.2789 H   0  0  0  0  0  0  0  0  0  0  0  0
    0.9148    2.3064   -0.9519 C   0  0  0  0  0  0  0  0  0  0  0  0
    0.4644    2.9470   -0.2049 H   0  0  0  0  0  0  0  0  0  0  0  0
   -0.6196    0.1253    1.7539 C   0  0  0  0  0  0  0  0  0  0  0  0
    0.5216    0.0194    2.2054 O   0  0  0  0  0  0  0  0  0  0  0  0
   -1.6152    0.6924    2.4469 N   0  0  0  0  0  0  0  0  0  0  0  0
   -2.5345    0.6914    2.0318 H   0  0  0  0  0  0  0  0  0  0  0  0
   -1.4720    1.2390    3.7941 C   0  0  0  0  0  0  0  0  0  0  0  0
   -0.6345    1.9391    3.8219 H   0  0  0  0  0  0  0  0  0  0  0  0
   -2.3844    1.7580    4.0892 H   0  0  0  0  0  0  0  0  0  0  0  0
   -1.2733    0.4298    4.4995 H   0  0  0  0  0  0  0  0  0  0  0  0
  5  6  2  0  0  0  0
  5  7  1  0  0  0  0
  2  3  1  0  0  0  0
  2  4  1  0  0  0  0
  2  5  1  0  0  0  0
  1  2  1  0  0  0  0
 25 26  2  0  0  0  0
 25 27  1  0  0  0  0
 23 24  1  0  0  0  0
 21 22  1  0  0  0  0
 21 23  2  0  0  0  0
 19 20  1  0  0  0  0
 19 21  1  0  0  0  0
 17 18  1  0  0  0  0
 17 19  2  0  0  0  0
 15 16  1  0  0  0  0
 15 17  1  0  0  0  0
 14 15  2  0  0  0  0
 14 23  1  0  0  0  0
 11 12  1  0  0  0  0
 11 13  1  0  0  0  0
 11 14  1  0  0  0  0
  9 10  1  0  0  0  0
  9 11  1  0  0  0  0
  9 25  1  0  0  0  0
  7  8  1  0  0  0  0
  7  9  1  0  0  0  0
 29 30  1  0  0  0  0
 29 31  1  0  0  0  0
 29 32  1  0  0  0  0
 27 28  1  0  0  0  0
 27 29  1  0  0  0  0
M  END
$$$$
default_name
  -OEChem-02102213163D

 32 32  0     1  0  0  0  0  0999 V2000
   -3.8405   -3.7518    1.6252 H   0  0  0  0  0  0  0  0  0  0  0  0
   -3.7965   -2.8768    0.9782 C   0  0  0  0  0  0  0  0  0  0  0  0
   -4.5465   -2.1527    1.2902 H   0  0  0  0  0  0  0  0  0  0  0  0
   -3.9745   -3.1748   -0.0538 H   0  0  0  0  0  0  0  0  0  0  0  0
   -2.4245   -2.2537    1.0882 C   0  0  0  0  0  0  0  0  0  0  0  0
   -1.5805   -2.7478    1.8242 O   0  0  0  0  0  0  0  0  0  0  0  0
   -2.2045   -1.1637    0.3562 N   0  0  0  0  0  0  0  0  0  0  0  0
   -2.9595   -0.7907   -0.2008 H   0  0  0  0  0  0  0  0  0  0  0  0
   -0.9485   -0.4087    0.3482 C   0  0  1  0  0  0  0  0  0  0  0  0
   -0.1408   -1.0795    0.0507 H   0  0  0  0  0  0  0  0  0  0  0  0
   -1.0432    0.7243   -0.6879 C   0  0  0  0  0  0  0  0  0  0  0  0
   -1.7186    0.4183   -1.4881 H   0  0  0  0  0  0  0  0  0  0  0  0
   -1.4776    1.6042   -0.2112 H   0  0  0  0  0  0  0  0  0  0  0  0
    0.2870    1.0991   -1.3132 C   0  0  0  0  0  0  0  0  0  0  0  0
    0.7303    0.4573   -2.4851 C   0  0  0  0  0  0  0  0  0  0  0  0
    0.1342   -0.3244   -2.9345 H   0  0  0  0  0  0  0  0  0  0  0  0
    1.9458    0.8391   -3.0824 C   0  0  0  0  0  0  0  0  0  0  0  0
    2.2856    0.3433   -3.9808 H   0  0  0  0  0  0  0  0  0  0  0  0
    2.7188    1.8639   -2.5105 C   0  0  0  0  0  0  0  0  0  0  0  0
    3.6538    2.1556   -2.9680 H   0  0  0  0  0  0  0  0  0  0  0  0
    2.2794    2.5063   -1.3386 C   0  0  0  0  0  0  0  0  0  0  0  0
    2.8761    3.2902   -0.8959 H   0  0  0  0  0  0  0  0  0  0  0  0
    1.0663    2.1222   -0.7402 C   0  0  0  0  0  0  0  0  0  0  0  0
    0.7310    2.6149    0.1633 H   0  0  0  0  0  0  0  0  0  0  0  0
   -0.6196    0.1253    1.7539 C   0  0  0  0  0  0  0  0  0  0  0  0
    0.5216    0.0194    2.2054 O   0  0  0  0  0  0  0  0  0  0  0  0
   -1.6152    0.6924    2.4469 N   0  0  0  0  0  0  0  0  0  0  0  0
   -2.5345    0.6914    2.0318 H   0  0  0  0  0  0  0  0  0  0  0  0
   -1.4720    1.2390    3.7941 C   0  0  0  0  0  0  0  0  0  0  0  0
   -0.6345    1.9391    3.8219 H   0  0  0  0  0  0  0  0  0  0  0  0
   -2.3844    1.7580    4.0892 H   0  0  0  0  0  0  0  0  0  0  0  0
   -1.2733    0.4298    4.4995 H   0  0  0  0  0  0  0  0  0  0  0  0
  5  6  2  0  0  0  0
  5  7  1  0  0  0  0
  2  3  1  0  0  0  0
  2  4  1  0  0  0  0
  2  5  1  0  0  0  0
  1  2  1  0  0  0  0
 25 26  2  0  0  0  0
 25 27  1  0  0  0  0
 23 24  1  0  0  0  0
 21 22  1  0  0  0  0
 21 23  2  0  0  0  0
 19 20  1  0  0  0  0
 19 21  1  0  0  0  0
 17 18  1  0  0  0  0
 17 19  2  0  0  0  0
 15 16  1  0  0  0  0
 15 17  1  0  0  0  0
 14 15  2  0  0  0  0
 14 23  1  0  0  0  0
 11 12  1  0  0  0  0
 11 13  1  0  0  0  0
 11 14  1  0  0  0  0
  9 10  1  0  0  0  0
  9 11  1  0  0  0  0
  9 25  1  0  0  0  0
  7  8  1  0  0  0  0
  7  9  1  0  0  0  0
 29 30  1  0  0  0  0
 29 31  1  0  0  0  0
 29 32  1  0  0  0  0
 27 28  1  0  0  0  0
 27 29  1  0  0  0  0
M  END
$$$$
default_name
  -OEChem-02102213163D

 32 32  0     1  0  0  0  0  0999 V2000
   -3.8405   -3.7518    1.6252 H   0  0  0  0  0  0  0  0  0  0  0  0
   -3.7965   -2.8768    0.9782 C   0  0  0  0  0  0  0  0  0  0  0  0
   -4.5465   -2.1527    1.2902 H   0  0  0  0  0  0  0  0  0  0  0  0
   -3.9745   -3.1748   -0.0538 H   0  0  0  0  0  0  0  0  0  0  0  0
   -2.4245   -2.2537    1.0882 C   0  0  0  0  0  0  0  0  0  0  0  0
   -1.5805   -2.7478    1.8242 O   0  0  0  0  0  0  0  0  0  0  0  0
   -2.2045   -1.1637    0.3562 N   0  0  0  0  0  0  0  0  0  0  0  0
   -2.9595   -0.7907   -0.2008 H   0  0  0  0  0  0  0  0  0  0  0  0
   -0.9485   -0.4087    0.3482 C   0  0  1  0  0  0  0  0  0  0  0  0
   -0.1408   -1.0795    0.0507 H   0  0  0  0  0  0  0  0  0  0  0  0
   -1.0432    0.7243   -0.6879 C   0  0  0  0  0  0  0  0  0  0  0  0
   -1.7186    0.4183   -1.4881 H   0  0  0  0  0  0  0  0  0  0  0  0
   -1.4776    1.6042   -0.2112 H   0  0  0  0  0  0  0  0  0  0  0  0
    0.2870    1.0991   -1.3132 C   0  0  0  0  0  0  0  0  0  0  0  0
    0.5931    0.7039   -2.6293 C   0  0  0  0  0  0  0  0  0  0  0  0
   -0.1107    0.1100   -3.1952 H   0  0  0  0  0  0  0  0  0  0  0  0
    1.8117    1.0904   -3.2169 C   0  0  0  0  0  0  0  0  0  0  0  0
    2.0459    0.7837   -4.2267 H   0  0  0  0  0  0  0  0  0  0  0  0
    2.7251    1.8738   -2.4912 C   0  0  0  0  0  0  0  0  0  0  0  0
    3.6623    2.1688   -2.9419 H   0  0  0  0  0  0  0  0  0  0  0  0
    2.4229    2.2692   -1.1754 C   0  0  0  0  0  0  0  0  0  0  0  0
    3.1272    2.8669   -0.6154 H   0  0  0  0  0  0  0  0  0  0  0  0
    1.2064    1.8800   -0.5871 C   0  0  0  0  0  0  0  0  0  0  0  0
    0.9767    2.1820    0.4264 H   0  0  0  0  0  0  0  0  0  0  0  0
   -0.6196    0.1253    1.7539 C   0  0  0  0  0  0  0  0  0  0  0  0
    0.5216    0.0194    2.2054 O   0  0  0  0  0  0  0  0  0  0  0  0
   -1.6152    0.6924    2.4469 N   0  0  0  0  0  0  0  0  0  0  0  0
   -2.5345    0.6914    2.0318 H   0  0  0  0  0  0  0  0  0  0  0  0
   -1.4720    1.2390    3.7941 C   0  0  0  0  0  0  0  0  0  0  0  0
   -0.6345    1.9391    3.8219 H   0  0  0  0  0  0  0  0  0  0  0  0
   -2.3844    1.7580    4.0892 H   0  0  0  0  0  0  0  0  0  0  0  0
   -1.2733    0.4298    4.4995 H   0  0  0  0  0  0  0  0  0  0  0  0
  5  6  2  0  0  0  0
  5  7  1  0  0  0  0
  2  3  1  0  0  0  0
  2  4  1  0  0  0  0
  2  5  1  0  0  0  0
  1  2  1  0  0  0  0
 25 26  2  0  0  0  0
 25 27  1  0  0  0  0
 23 24  1  0  0  0  0
 21 22  1  0  0  0  0
 21 23  2  0  0  0  0
 19 20  1  0  0  0  0
 19 21  1  0  0  0  0
 17 18  1  0  0  0  0
 17 19  2  0  0  0  0
 15 16  1  0  0  0  0
 15 17  1  0  0  0  0
 14 15  2  0  0  0  0
 14 23  1  0  0  0  0
 11 12  1  0  0  0  0
 11 13  1  0  0  0  0
 11 14  1  0  0  0  0
  9 10  1  0  0  0  0
  9 11  1  0  0  0  0
  9 25  1  0  0  0  0
  7  8  1  0  0  0  0
  7  9  1  0  0  0  0
 29 30  1  0  0  0  0
 29 31  1  0  0  0  0
 29 32  1  0  0  0  0
 27 28  1  0  0  0  0
 27 29  1  0  0  0  0
M  END
$$$$
default_name
  -OEChem-02102213163D

 32 32  0     1  0  0  0  0  0999 V2000
   -3.8405   -3.7518    1.6252 H   0  0  0  0  0  0  0  0  0  0  0  0
   -3.7965   -2.8768    0.9782 C   0  0  0  0  0  0  0  0  0  0  0  0
   -4.5465   -2.1527    1.2902 H   0  0  0  0  0  0  0  0  0  0  0  0
   -3.9745   -3.1748   -0.0538 H   0  0  0  0  0  0  0  0  0  0  0  0
   -2.4245   -2.2537    1.0882 C   0  0  0  0  0  0  0  0  0  0  0  0
   -1.5805   -2.7478    1.8242 O   0  0  0  0  0  0  0  0  0  0  0  0
   -2.2045   -1.1637    0.3562 N   0  0  0  0  0  0  0  0  0  0  0  0
   -2.9595   -0.7907   -0.2008 H   0  0  0  0  0  0  0  0  0  0  0  0
   -0.9485   -0.4087    0.3482 C   0  0  1  0  0  0  0  0  0  0  0  0
   -0.1408   -1.0795    0.0507 H   0  0  0  0  0  0  0  0  0  0  0  0
   -1.0432    0.7243   -0.6879 C   0  0  0  0  0  0  0  0  0  0  0  0
   -1.7186    0.4183   -1.4881 H   0  0  0  0  0  0  0  0  0  0  0  0
   -1.4776    1.6042   -0.2112 H   0  0  0  0  0  0  0  0  0  0  0  0
    0.2870    1.0991   -1.3132 C   0  0  0  0  0  0  0  0  0  0  0  0
    0.4777    0.9894   -2.7037 C   0  0  0  0  0  0  0  0  0  0  0  0
   -0.3176    0.6148   -3.3327 H   0  0  0  0  0  0  0  0  0  0  0  0
    1.7005    1.3780   -3.2813 C   0  0  0  0  0  0  0  0  0  0  0  0
    1.8457    1.2905   -4.3489 H   0  0  0  0  0  0  0  0  0  0  0  0
    2.7334    1.8784   -2.4707 C   0  0  0  0  0  0  0  0  0  0  0  0
    3.6737    2.1747   -2.9142 H   0  0  0  0  0  0  0  0  0  0  0  0
    2.5467    1.9879   -1.0806 C   0  0  0  0  0  0  0  0  0  0  0  0
    3.3426    2.3675   -0.4567 H   0  0  0  0  0  0  0  0  0  0  0  0
    1.3258    1.5964   -0.5033 C   0  0  0  0  0  0  0  0  0  0  0  0
    1.1846    1.6780    0.5666 H   0  0  0  0  0  0  0  0  0  0  0  0
   -0.6196    0.1253    1.7539 C   0  0  0  0  0  0  0  0  0  0  0  0
    0.5216    0.0194    2.2054 O   0  0  0  0  0  0  0  0  0  0  0  0
   -1.6152    0.6924    2.4469 N   0  0  0  0  0  0  0  0  0  0  0  0
   -2.5345    0.6914    2.0318 H   0  0  0  0  0  0  0  0  0  0  0  0
   -1.4720    1.2390    3.7941 C   0  0  0  0  0  0  0  0  0  0  0  0
   -0.6345    1.9391    3.8219 H   0  0  0  0  0  0  0  0  0  0  0  0
   -2.3844    1.7580    4.0892 H   0  0  0  0  0  0  0  0  0  0  0  0
   -1.2733    0.4298    4.4995 H   0  0  0  0  0  0  0  0  0  0  0  0
  5  6  2  0  0  0  0
  5  7  1  0  0  0  0
  2  3  1  0  0  0  0
  2  4  1  0  0  0  0
  2  5  1  0  0  0  0
  1  2  1  0  0  0  0
 25 26  2  0  0  0  0
 25 27  1  0  0  0  0
 23 24  1  0  0  0  0
 21 22  1  0  0  0  0
 21 23  2  0  0  0  0
 19 20  1  0  0  0  0
 19 21  1  0  0  0  0
 17 18  1  0  0  0  0
 17 19  2  0  0  0  0
 15 16  1  0  0  0  0
 15 17  1  0  0  0  0
 14 15  2  0  0  0  0
 14 23  1  0  0  0  0
 11 12  1  0  0  0  0
 11 13  1  0  0  0  0
 11 14  1  0  0  0  0
  9 10  1  0  0  0  0
  9 11  1  0  0  0  0
  9 25  1  0  0  0  0
  7  8  1  0  0  0  0
  7  9  1  0  0  0  0
 29 30  1  0  0  0  0
 29 31  1  0  0  0  0
 29 32  1  0  0  0  0
 27 28  1  0  0  0  0
 27 29  1  0  0  0  0
M  END
$$$$
default_name
  -OEChem-02102213163D

 32 32  0     1  0  0  0  0  0999 V2000
   -3.8405   -3.7518    1.6252 H   0  0  0  0  0  0  0  0  0  0  0  0
   -3.7965   -2.8768    0.9782 C   0  0  0  0  0  0  0  0  0  0  0  0
   -4.5465   -2.1527    1.2902 H   0  0  0  0  0  0  0  0  0  0  0  0
   -3.9745   -3.1748   -0.0538 H   0  0  0  0  0  0  0  0  0  0  0  0
   -2.4245   -2.2537    1.0882 C   0  0  0  0  0  0  0  0  0  0  0  0
   -1.5805   -2.7478    1.8242 O   0  0  0  0  0  0  0  0  0  0  0  0
   -2.2045   -1.1637    0.3562 N   0  0  0  0  0  0  0  0  0  0  0  0
   -2.9595   -0.7907   -0.2008 H   0  0  0  0  0  0  0  0  0  0  0  0
   -0.9485   -0.4087    0.3482 C   0  0  1  0  0  0  0  0  0  0  0  0
   -0.1408   -1.0795    0.0507 H   0  0  0  0  0  0  0  0  0  0  0  0
   -1.0432    0.7243   -0.6879 C   0  0  0  0  0  0  0  0  0  0  0  0
   -1.7186    0.4183   -1.4881 H   0  0  0  0  0  0  0  0  0  0  0  0
   -1.4776    1.6042   -0.2112 H   0  0  0  0  0  0  0  0  0  0  0  0
    0.2870    1.0991   -1.3132 C   0  0  0  0  0  0  0  0  0  0  0  0
    0.3918    1.2944   -2.7035 C   0  0  0  0  0  0  0  0  0  0  0  0
   -0.4723    1.1557   -3.3377 H   0  0  0  0  0  0  0  0  0  0  0  0
    1.6195    1.6822   -3.2711 C   0  0  0  0  0  0  0  0  0  0  0  0
    1.6985    1.8291   -4.3392 H   0  0  0  0  0  0  0  0  0  0  0  0
    2.7433    1.8772   -2.4503 C   0  0  0  0  0  0  0  0  0  0  0  0
    3.6871    2.1729   -2.8868 H   0  0  0  0  0  0  0  0  0  0  0  0
    2.6423    1.6815   -1.0609 C   0  0  0  0  0  0  0  0  0  0  0  0
    3.5074    1.8261   -0.4305 H   0  0  0  0  0  0  0  0  0  0  0  0
    1.4161    1.2907   -0.4943 C   0  0  0  0  0  0  0  0  0  0  0  0
    1.3406    1.1372    0.5744 H   0  0  0  0  0  0  0  0  0  0  0  0
   -0.6196    0.1253    1.7539 C   0  0  0  0  0  0  0  0  0  0  0  0
    0.5216    0.0194    2.2054 O   0  0  0  0  0  0  0  0  0  0  0  0
   -1.6152    0.6924    2.4469 N   0  0  0  0  0  0  0  0  0  0  0  0
   -2.5345    0.6914    2.0318 H   0  0  0  0  0  0  0  0  0  0  0  0
   -1.4720    1.2390    3.7941 C   0  0  0  0  0  0  0  0  0  0  0  0
   -0.6345    1.9391    3.8219 H   0  0  0  0  0  0  0  0  0  0  0  0
   -2.3844    1.7580    4.0892 H   0  0  0  0  0  0  0  0  0  0  0  0
   -1.2733    0.4298    4.4995 H   0  0  0  0  0  0  0  0  0  0  0  0
  5  6  2  0  0  0  0
  5  7  1  0  0  0  0
  2  3  1  0  0  0  0
  2  4  1  0  0  0  0
  2  5  1  0  0  0  0
  1  2  1  0  0  0  0
 25 26  2  0  0  0  0
 25 27  1  0  0  0  0
 23 24  1  0  0  0  0
 21 22  1  0  0  0  0
 21 23  2  0  0  0  0
 19 20  1  0  0  0  0
 19 21  1  0  0  0  0
 17 18  1  0  0  0  0
 17 19  2  0  0  0  0
 15 16  1  0  0  0  0
 15 17  1  0  0  0  0
 14 15  2  0  0  0  0
 14 23  1  0  0  0  0
 11 12  1  0  0  0  0
 11 13  1  0  0  0  0
 11 14  1  0  0  0  0
  9 10  1  0  0  0  0
  9 11  1  0  0  0  0
  9 25  1  0  0  0  0
  7  8  1  0  0  0  0
  7  9  1  0  0  0  0
 29 30  1  0  0  0  0
 29 31  1  0  0  0  0
 29 32  1  0  0  0  0
 27 28  1  0  0  0  0
 27 29  1  0  0  0  0
M  END
$$$$
default_name
  -OEChem-02102213163D

 32 32  0     1  0  0  0  0  0999 V2000
   -3.8405   -3.7518    1.6252 H   0  0  0  0  0  0  0  0  0  0  0  0
   -3.7965   -2.8768    0.9782 C   0  0  0  0  0  0  0  0  0  0  0  0
   -4.5465   -2.1527    1.2902 H   0  0  0  0  0  0  0  0  0  0  0  0
   -3.9745   -3.1748   -0.0538 H   0  0  0  0  0  0  0  0  0  0  0  0
   -2.4245   -2.2537    1.0882 C   0  0  0  0  0  0  0  0  0  0  0  0
   -1.5805   -2.7478    1.8242 O   0  0  0  0  0  0  0  0  0  0  0  0
   -2.2045   -1.1637    0.3562 N   0  0  0  0  0  0  0  0  0  0  0  0
   -2.9595   -0.7907   -0.2008 H   0  0  0  0  0  0  0  0  0  0  0  0
   -0.9485   -0.4087    0.3482 C   0  0  1  0  0  0  0  0  0  0  0  0
   -0.1408   -1.0795    0.0507 H   0  0  0  0  0  0  0  0  0  0  0  0
   -1.0432    0.7243   -0.6879 C   0  0  0  0  0  0  0  0  0  0  0  0
   -1.7186    0.4183   -1.4881 H   0  0  0  0  0  0  0  0  0  0  0  0
   -1.4776    1.6042   -0.2112 H   0  0  0  0  0  0  0  0  0  0  0  0
    0.2870    1.0991   -1.3132 C   0  0  0  0  0  0  0  0  0  0  0  0
    0.3415    1.5981   -2.6285 C   0  0  0  0  0  0  0  0  0  0  0  0
   -0.5644    1.6958   -3.2099 H   0  0  0  0  0  0  0  0  0  0  0  0
    1.5744    1.9824   -3.1871 C   0  0  0  0  0  0  0  0  0  0  0  0
    1.6144    2.3629   -4.1981 H   0  0  0  0  0  0  0  0  0  0  0  0
    2.7540    1.8705   -2.4316 C   0  0  0  0  0  0  0  0  0  0  0  0
    3.7015    2.1636   -2.8616 H   0  0  0  0  0  0  0  0  0  0  0  0
    2.7033    1.3708   -1.1175 C   0  0  0  0  0  0  0  0  0  0  0  0
    3.6106    1.2796   -0.5386 H   0  0  0  0  0  0  0  0  0  0  0  0
    1.4714    0.9837   -0.5607 C   0  0  0  0  0  0  0  0  0  0  0  0
    1.4342    0.5964    0.4491 H   0  0  0  0  0  0  0  0  0  0  0  0
   -0.6196    0.1253    1.7539 C   0  0  0  0  0  0  0  0  0  0  0  0
    0.5216    0.0194    2.2054 O   0  0  0  0  0  0  0  0  0  0  0  0
   -1.6152    0.6924    2.4469 N   0  0  0  0  0  0  0  0  0  0  0  0
   -2.5345    0.6914    2.0318 H   0  0  0  0  0  0  0  0  0  0  0  0
   -1.4720    1.2390    3.7941 C   0  0  0  0  0  0  0  0  0  0  0  0
   -0.6345    1.9391    3.8219 H   0  0  0  0  0  0  0  0  0  0  0  0
   -2.3844    1.7580    4.0892 H   0  0  0  0  0  0  0  0  0  0  0  0
   -1.2733    0.4298    4.4995 H   0  0  0  0  0  0  0  0  0  0  0  0
  5  6  2  0  0  0  0
  5  7  1  0  0  0  0
  2  3  1  0  0  0  0
  2  4  1  0  0  0  0
  2  5  1  0  0  0  0
  1  2  1  0  0  0  0
 25 26  2  0  0  0  0
 25 27  1  0  0  0  0
 23 24  1  0  0  0  0
 21 22  1  0  0  0  0
 21 23  2  0  0  0  0
 19 20  1  0  0  0  0
 19 21  1  0  0  0  0
 17 18  1  0  0  0  0
 17 19  2  0  0  0  0
 15 16  1  0  0  0  0
 15 17  1  0  0  0  0
 14 15  2  0  0  0  0
 14 23  1  0  0  0  0
 11 12  1  0  0  0  0
 11 13  1  0  0  0  0
 11 14  1  0  0  0  0
  9 10  1  0  0  0  0
  9 11  1  0  0  0  0
  9 25  1  0  0  0  0
  7  8  1  0  0  0  0
  7  9  1  0  0  0  0
 29 30  1  0  0  0  0
 29 31  1  0  0  0  0
 29 32  1  0  0  0  0
 27 28  1  0  0  0  0
 27 29  1  0  0  0  0
M  END
$$$$
default_name
  -OEChem-02102213163D

 32 32  0     1  0  0  0  0  0999 V2000
   -3.8405   -3.7518    1.6252 H   0  0  0  0  0  0  0  0  0  0  0  0
   -3.7965   -2.8768    0.9782 C   0  0  0  0  0  0  0  0  0  0  0  0
   -4.5465   -2.1527    1.2902 H   0  0  0  0  0  0  0  0  0  0  0  0
   -3.9745   -3.1748   -0.0538 H   0  0  0  0  0  0  0  0  0  0  0  0
   -2.4245   -2.2537    1.0882 C   0  0  0  0  0  0  0  0  0  0  0  0
   -1.5805   -2.7478    1.8242 O   0  0  0  0  0  0  0  0  0  0  0  0
   -2.2045   -1.1637    0.3562 N   0  0  0  0  0  0  0  0  0  0  0  0
   -2.9595   -0.7907   -0.2008 H   0  0  0  0  0  0  0  0  0  0  0  0
   -0.9485   -0.4087    0.3482 C   0  0  1  0  0  0  0  0  0  0  0  0
   -0.1408   -1.0795    0.0507 H   0  0  0  0  0  0  0  0  0  0  0  0
   -1.0432    0.7243   -0.6879 C   0  0  0  0  0  0  0  0  0  0  0  0
   -1.7186    0.4183   -1.4881 H   0  0  0  0  0  0  0  0  0  0  0  0
   -1.4776    1.6042   -0.2112 H   0  0  0  0  0  0  0  0  0  0  0  0
    0.2870    1.0991   -1.3132 C   0  0  0  0  0  0  0  0  0  0  0  0
    0.3301    1.8798   -2.4839 C   0  0  0  0  0  0  0  0  0  0  0  0
   -0.5876    2.1983   -2.9579 H   0  0  0  0  0  0  0  0  0  0  0  0
    1.5683    2.2581   -3.0348 C   0  0  0  0  0  0  0  0  0  0  0  0
    1.5991    2.8555   -3.9353 H   0  0  0  0  0  0  0  0  0  0  0  0
    2.7648    1.8585   -2.4157 C   0  0  0  0  0  0  0  0  0  0  0  0
    3.7161    2.1472   -2.8404 H   0  0  0  0  0  0  0  0  0  0  0  0
    2.7253    1.0771   -1.2466 C   0  0  0  0  0  0  0  0  0  0  0  0
    3.6450    0.7653   -0.7737 H   0  0  0  0  0  0  0  0  0  0  0  0
    1.4878    0.6964   -0.6981 C   0  0  0  0  0  0  0  0  0  0  0  0
    1.4588    0.0924    0.1994 H   0  0  0  0  0  0  0  0  0  0  0  0
   -0.6196    0.1253    1.7539 C   0  0  0  0  0  0  0  0  0  0  0  0
    0.5216    0.0194    2.2054 O   0  0  0  0  0  0  0  0  0  0  0  0
   -1.6152    0.6924    2.4469 N   0  0  0  0  0  0  0  0  0  0  0  0
   -2.5345    0.6914    2.0318 H   0  0  0  0  0  0  0  0  0  0  0  0
   -1.4720    1.2390    3.7941 C   0  0  0  0  0  0  0  0  0  0  0  0
   -0.6345    1.9391    3.8219 H   0  0  0  0  0  0  0  0  0  0  0  0
   -2.3844    1.7580    4.0892 H   0  0  0  0  0  0  0  0  0  0  0  0
   -1.2733    0.4298    4.4995 H   0  0  0  0  0  0  0  0  0  0  0  0
  5  6  2  0  0  0  0
  5  7  1  0  0  0  0
  2  3  1  0  0  0  0
  2  4  1  0  0  0  0
  2  5  1  0  0  0  0
  1  2  1  0  0  0  0
 25 26  2  0  0  0  0
 25 27  1  0  0  0  0
 23 24  1  0  0  0  0
 21 22  1  0  0  0  0
 21 23  2  0  0  0  0
 19 20  1  0  0  0  0
 19 21  1  0  0  0  0
 17 18  1  0  0  0  0
 17 19  2  0  0  0  0
 15 16  1  0  0  0  0
 15 17  1  0  0  0  0
 14 15  2  0  0  0  0
 14 23  1  0  0  0  0
 11 12  1  0  0  0  0
 11 13  1  0  0  0  0
 11 14  1  0  0  0  0
  9 10  1  0  0  0  0
  9 11  1  0  0  0  0
  9 25  1  0  0  0  0
  7  8  1  0  0  0  0
  7  9  1  0  0  0  0
 29 30  1  0  0  0  0
 29 31  1  0  0  0  0
 29 32  1  0  0  0  0
 27 28  1  0  0  0  0
 27 29  1  0  0  0  0
M  END
$$$$
default_name
  -OEChem-02102213163D

 32 32  0     1  0  0  0  0  0999 V2000
   -3.8405   -3.7518    1.6252 H   0  0  0  0  0  0  0  0  0  0  0  0
   -3.7965   -2.8768    0.9782 C   0  0  0  0  0  0  0  0  0  0  0  0
   -4.5465   -2.1527    1.2902 H   0  0  0  0  0  0  0  0  0  0  0  0
   -3.9745   -3.1748   -0.0538 H   0  0  0  0  0  0  0  0  0  0  0  0
   -2.4245   -2.2537    1.0882 C   0  0  0  0  0  0  0  0  0  0  0  0
   -1.5805   -2.7478    1.8242 O   0  0  0  0  0  0  0  0  0  0  0  0
   -2.2045   -1.1637    0.3562 N   0  0  0  0  0  0  0  0  0  0  0  0
   -2.9595   -0.7907   -0.2008 H   0  0  0  0  0  0  0  0  0  0  0  0
   -0.9485   -0.4087    0.3482 C   0  0  1  0  0  0  0  0  0  0  0  0
   -0.1408   -1.0795    0.0507 H   0  0  0  0  0  0  0  0  0  0  0  0
   -1.0432    0.7243   -0.6879 C   0  0  0  0  0  0  0  0  0  0  0  0
   -1.9022    0.5427   -1.3354 H   0  0  0  0  0  0  0  0  0  0  0  0
   -1.2193    1.6665   -0.1668 H   0  0  0  0  0  0  0  0  0  0  0  0
    0.1865    0.8599   -1.5656 C   0  0  0  0  0  0  0  0  0  0  0  0
    0.2463    1.8536   -2.5610 C   0  0  0  0  0  0  0  0  0  0  0  0
   -0.5952    2.5127   -2.7212 H   0  0  0  0  0  0  0  0  0  0  0  0
    1.4066    2.0000   -3.3435 C   0  0  0  0  0  0  0  0  0  0  0  0
    1.4494    2.7619   -4.1090 H   0  0  0  0  0  0  0  0  0  0  0  0
    2.5091    1.1550   -3.1311 C   0  0  0  0  0  0  0  0  0  0  0  0
    3.3996    1.2659   -3.7339 H   0  0  0  0  0  0  0  0  0  0  0  0
    2.4521    0.1600   -2.1382 C   0  0  0  0  0  0  0  0  0  0  0  0
    3.2974   -0.4932   -1.9785 H   0  0  0  0  0  0  0  0  0  0  0  0
    1.2912    0.0118   -1.3586 C   0  0  0  0  0  0  0  0  0  0  0  0
    1.2473   -0.7562   -0.5974 H   0  0  0  0  0  0  0  0  0  0  0  0
   -0.6196    0.1253    1.7539 C   0  0  0  0  0  0  0  0  0  0  0  0
    0.5216    0.0194    2.2054 O   0  0  0  0  0  0  0  0  0  0  0  0
   -1.6152    0.6924    2.4469 N   0  0  0  0  0  0  0  0  0  0  0  0
   -2.5345    0.6914    2.0318 H   0  0  0  0  0  0  0  0  0  0  0  0
   -1.4720    1.2390    3.7941 C   0  0  0  0  0  0  0  0  0  0  0  0
   -0.6345    1.9391    3.8219 H   0  0  0  0  0  0  0  0  0  0  0  0
   -2.3844    1.7580    4.0892 H   0  0  0  0  0  0  0  0  0  0  0  0
   -1.2733    0.4298    4.4995 H   0  0  0  0  0  0  0  0  0  0  0  0
  5  6  2  0  0  0  0
  5  7  1  0  0  0  0
  2  3  1  0  0  0  0
  2  4  1  0  0  0  0
  2  5  1  0  0  0  0
  1  2  1  0  0  0  0
 25 26  2  0  0  0  0
 25 27  1  0  0  0  0
 23 24  1  0  0  0  0
 21 22  1  0  0  0  0
 21 23  2  0  0  0  0
 19 20  1  0  0  0  0
 19 21  1  0  0  0  0
 17 18  1  0  0  0  0
 17 19  2  0  0  0  0
 15 16  1  0  0  0  0
 15 17  1  0  0  0  0
 14 15  2  0  0  0  0
 14 23  1  0  0  0  0
 11 12  1  0  0  0  0
 11 13  1  0  0  0  0
 11 14  1  0  0  0  0
  9 10  1  0  0  0  0
  9 11  1  0  0  0  0
  9 25  1  0  0  0  0
  7  8  1  0  0  0  0
  7  9  1  0  0  0  0
 29 30  1  0  0  0  0
 29 31  1  0  0  0  0
 29 32  1  0  0  0  0
 27 28  1  0  0  0  0
 27 29  1  0  0  0  0
M  END
$$$$
default_name
  -OEChem-02102213163D

 32 32  0     1  0  0  0  0  0999 V2000
   -3.8405   -3.7518    1.6252 H   0  0  0  0  0  0  0  0  0  0  0  0
   -3.7965   -2.8768    0.9782 C   0  0  0  0  0  0  0  0  0  0  0  0
   -4.5465   -2.1527    1.2902 H   0  0  0  0  0  0  0  0  0  0  0  0
   -3.9745   -3.1748   -0.0538 H   0  0  0  0  0  0  0  0  0  0  0  0
   -2.4245   -2.2537    1.0882 C   0  0  0  0  0  0  0  0  0  0  0  0
   -1.5805   -2.7478    1.8242 O   0  0  0  0  0  0  0  0  0  0  0  0
   -2.2045   -1.1637    0.3562 N   0  0  0  0  0  0  0  0  0  0  0  0
   -2.9595   -0.7907   -0.2008 H   0  0  0  0  0  0  0  0  0  0  0  0
   -0.9485   -0.4087    0.3482 C   0  0  1  0  0  0  0  0  0  0  0  0
   -0.1408   -1.0795    0.0507 H   0  0  0  0  0  0  0  0  0  0  0  0
   -1.0432    0.7243   -0.6879 C   0  0  0  0  0  0  0  0  0  0  0  0
   -1.9022    0.5427   -1.3354 H   0  0  0  0  0  0  0  0  0  0  0  0
   -1.2193    1.6665   -0.1668 H   0  0  0  0  0  0  0  0  0  0  0  0
    0.1865    0.8599   -1.5656 C   0  0  0  0  0  0  0  0  0  0  0  0
    0.3897    2.0219   -2.3340 C   0  0  0  0  0  0  0  0  0  0  0  0
   -0.3428    2.8165   -2.3205 H   0  0  0  0  0  0  0  0  0  0  0  0
    1.5531    2.1579   -3.1137 C   0  0  0  0  0  0  0  0  0  0  0  0
    1.7060    3.0498   -3.7051 H   0  0  0  0  0  0  0  0  0  0  0  0
    2.5156    1.1342   -3.1251 C   0  0  0  0  0  0  0  0  0  0  0  0
    3.4083    1.2377   -3.7259 H   0  0  0  0  0  0  0  0  0  0  0  0
    2.3150   -0.0289   -2.3595 C   0  0  0  0  0  0  0  0  0  0  0  0
    3.0521   -0.8182   -2.3724 H   0  0  0  0  0  0  0  0  0  0  0  0
    1.1507   -0.1660   -1.5830 C   0  0  0  0  0  0  0  0  0  0  0  0
    0.9959   -1.0627   -0.9971 H   0  0  0  0  0  0  0  0  0  0  0  0
   -0.6196    0.1253    1.7539 C   0  0  0  0  0  0  0  0  0  0  0  0
    0.5216    0.0194    2.2054 O   0  0  0  0  0  0  0  0  0  0  0  0
   -1.6152    0.6924    2.4469 N   0  0  0  0  0  0  0  0  0  0  0  0
   -2.5345    0.6914    2.0318 H   0  0  0  0  0  0  0  0  0  0  0  0
   -1.4720    1.2390    3.7941 C   0  0  0  0  0  0  0  0  0  0  0  0
   -0.6345    1.9391    3.8219 H   0  0  0  0  0  0  0  0  0  0  0  0
   -2.3844    1.7580    4.0892 H   0  0  0  0  0  0  0  0  0  0  0  0
   -1.2733    0.4298    4.4995 H   0  0  0  0  0  0  0  0  0  0  0  0
  5  6  2  0  0  0  0
  5  7  1  0  0  0  0
  2  3  1  0  0  0  0
  2  4  1  0  0  0  0
  2  5  1  0  0  0  0
  1  2  1  0  0  0  0
 25 26  2  0  0  0  0
 25 27  1  0  0  0  0
 23 24  1  0  0  0  0
 21 22  1  0  0  0  0
 21 23  2  0  0  0  0
 19 20  1  0  0  0  0
 19 21  1  0  0  0  0
 17 18  1  0  0  0  0
 17 19  2  0  0  0  0
 15 16  1  0  0  0  0
 15 17  1  0  0  0  0
 14 15  2  0  0  0  0
 14 23  1  0  0  0  0
 11 12  1  0  0  0  0
 11 13  1  0  0  0  0
 11 14  1  0  0  0  0
  9 10  1  0  0  0  0
  9 11  1  0  0  0  0
  9 25  1  0  0  0  0
  7  8  1  0  0  0  0
  7  9  1  0  0  0  0
 29 30  1  0  0  0  0
 29 31  1  0  0  0  0
 29 32  1  0  0  0  0
 27 28  1  0  0  0  0
 27 29  1  0  0  0  0
M  END
$$$$
default_name
  -OEChem-02102213163D

 32 32  0     1  0  0  0  0  0999 V2000
   -3.8405   -3.7518    1.6252 H   0  0  0  0  0  0  0  0  0  0  0  0
   -3.7965   -2.8768    0.9782 C   0  0  0  0  0  0  0  0  0  0  0  0
   -4.5465   -2.1527    1.2902 H   0  0  0  0  0  0  0  0  0  0  0  0
   -3.9745   -3.1748   -0.0538 H   0  0  0  0  0  0  0  0  0  0  0  0
   -2.4245   -2.2537    1.0882 C   0  0  0  0  0  0  0  0  0  0  0  0
   -1.5805   -2.7478    1.8242 O   0  0  0  0  0  0  0  0  0  0  0  0
   -2.2045   -1.1637    0.3562 N   0  0  0  0  0  0  0  0  0  0  0  0
   -2.9595   -0.7907   -0.2008 H   0  0  0  0  0  0  0  0  0  0  0  0
   -0.9485   -0.4087    0.3482 C   0  0  1  0  0  0  0  0  0  0  0  0
   -0.1408   -1.0795    0.0507 H   0  0  0  0  0  0  0  0  0  0  0  0
   -1.0432    0.7243   -0.6879 C   0  0  0  0  0  0  0  0  0  0  0  0
   -1.9022    0.5427   -1.3354 H   0  0  0  0  0  0  0  0  0  0  0  0
   -1.2193    1.6665   -0.1668 H   0  0  0  0  0  0  0  0  0  0  0  0
    0.1865    0.8599   -1.5656 C   0  0  0  0  0  0  0  0  0  0  0  0
    0.5587    2.1152   -2.0828 C   0  0  0  0  0  0  0  0  0  0  0  0
   -0.0442    2.9881   -1.8756 H   0  0  0  0  0  0  0  0  0  0  0  0
    1.7237    2.2403   -2.8620 C   0  0  0  0  0  0  0  0  0  0  0  0
    2.0062    3.2047   -3.2604 H   0  0  0  0  0  0  0  0  0  0  0  0
    2.5190    1.1118   -3.1238 C   0  0  0  0  0  0  0  0  0  0  0  0
    3.4127    1.2076   -3.7244 H   0  0  0  0  0  0  0  0  0  0  0  0
    2.1491   -0.1443   -2.6097 C   0  0  0  0  0  0  0  0  0  0  0  0
    2.7574   -1.0129   -2.8154 H   0  0  0  0  0  0  0  0  0  0  0  0
    0.9831   -0.2696   -1.8338 C   0  0  0  0  0  0  0  0  0  0  0  0
    0.6978   -1.2372   -1.4416 H   0  0  0  0  0  0  0  0  0  0  0  0
   -0.6196    0.1253    1.7539 C   0  0  0  0  0  0  0  0  0  0  0  0
    0.5216    0.0194    2.2054 O   0  0  0  0  0  0  0  0  0  0  0  0
   -1.6152    0.6924    2.4469 N   0  0  0  0  0  0  0  0  0  0  0  0
   -2.5345    0.6914    2.0318 H   0  0  0  0  0  0  0  0  0  0  0  0
   -1.4720    1.2390    3.7941 C   0  0  0  0  0  0  0  0  0  0  0  0
   -0.6345    1.9391    3.8219 H   0  0  0  0  0  0  0  0  0  0  0  0
   -2.3844    1.7580    4.0892 H   0  0  0  0  0  0  0  0  0  0  0  0
   -1.2733    0.4298    4.4995 H   0  0  0  0  0  0  0  0  0  0  0  0
  5  6  2  0  0  0  0
  5  7  1  0  0  0  0
  2  3  1  0  0  0  0
  2  4  1  0  0  0  0
  2  5  1  0  0  0  0
  1  2  1  0  0  0  0
 25 26  2  0  0  0  0
 25 27  1  0  0  0  0
 23 24  1  0  0  0  0
 21 22  1  0  0  0  0
 21 23  2  0  0  0  0
 19 20  1  0  0  0  0
 19 21  1  0  0  0  0
 17 18  1  0  0  0  0
 17 19  2  0  0  0  0
 15 16  1  0  0  0  0
 15 17  1  0  0  0  0
 14 15  2  0  0  0  0
 14 23  1  0  0  0  0
 11 12  1  0  0  0  0
 11 13  1  0  0  0  0
 11 14  1  0  0  0  0
  9 10  1  0  0  0  0
  9 11  1  0  0  0  0
  9 25  1  0  0  0  0
  7  8  1  0  0  0  0
  7  9  1  0  0  0  0
 29 30  1  0  0  0  0
 29 31  1  0  0  0  0
 29 32  1  0  0  0  0
 27 28  1  0  0  0  0
 27 29  1  0  0  0  0
M  END
$$$$
default_name
  -OEChem-02102213163D

 32 32  0     1  0  0  0  0  0999 V2000
   -3.8405   -3.7518    1.6252 H   0  0  0  0  0  0  0  0  0  0  0  0
   -3.7965   -2.8768    0.9782 C   0  0  0  0  0  0  0  0  0  0  0  0
   -4.5465   -2.1527    1.2902 H   0  0  0  0  0  0  0  0  0  0  0  0
   -3.9745   -3.1748   -0.0538 H   0  0  0  0  0  0  0  0  0  0  0  0
   -2.4245   -2.2537    1.0882 C   0  0  0  0  0  0  0  0  0  0  0  0
   -1.5805   -2.7478    1.8242 O   0  0  0  0  0  0  0  0  0  0  0  0
   -2.2045   -1.1637    0.3562 N   0  0  0  0  0  0  0  0  0  0  0  0
   -2.9595   -0.7907   -0.2008 H   0  0  0  0  0  0  0  0  0  0  0  0
   -0.9485   -0.4087    0.3482 C   0  0  1  0  0  0  0  0  0  0  0  0
   -0.1408   -1.0795    0.0507 H   0  0  0  0  0  0  0  0  0  0  0  0
   -1.0432    0.7243   -0.6879 C   0  0  0  0  0  0  0  0  0  0  0  0
   -1.9022    0.5427   -1.3354 H   0  0  0  0  0  0  0  0  0  0  0  0
   -1.2193    1.6665   -0.1668 H   0  0  0  0  0  0  0  0  0  0  0  0
    0.1865    0.8599   -1.5656 C   0  0  0  0  0  0  0  0  0  0  0  0
    0.7418    2.1274   -1.8245 C   0  0  0  0  0  0  0  0  0  0  0  0
    0.2802    3.0157   -1.4167 H   0  0  0  0  0  0  0  0  0  0  0  0
    1.9066    2.2416   -2.6056 C   0  0  0  0  0  0  0  0  0  0  0  0
    2.3298    3.2160   -2.8053 H   0  0  0  0  0  0  0  0  0  0  0  0
    2.5190    1.0895   -3.1273 C   0  0  0  0  0  0  0  0  0  0  0  0
    3.4125    1.1774   -3.7294 H   0  0  0  0  0  0  0  0  0  0  0  0
    1.9659   -0.1785   -2.8718 C   0  0  0  0  0  0  0  0  0  0  0  0
    2.4334   -1.0638   -3.2773 H   0  0  0  0  0  0  0  0  0  0  0  0
    0.7999   -0.2920   -2.0939 C   0  0  0  0  0  0  0  0  0  0  0  0
    0.3735   -1.2678   -1.9008 H   0  0  0  0  0  0  0  0  0  0  0  0
   -0.6196    0.1253    1.7539 C   0  0  0  0  0  0  0  0  0  0  0  0
    0.5216    0.0194    2.2054 O   0  0  0  0  0  0  0  0  0  0  0  0
   -1.6152    0.6924    2.4469 N   0  0  0  0  0  0  0  0  0  0  0  0
   -2.5345    0.6914    2.0318 H   0  0  0  0  0  0  0  0  0  0  0  0
   -1.4720    1.2390    3.7941 C   0  0  0  0  0  0  0  0  0  0  0  0
   -0.6345    1.9391    3.8219 H   0  0  0  0  0  0  0  0  0  0  0  0
   -2.3844    1.7580    4.0892 H   0  0  0  0  0  0  0  0  0  0  0  0
   -1.2733    0.4298    4.4995 H   0  0  0  0  0  0  0  0  0  0  0  0
  5  6  2  0  0  0  0
  5  7  1  0  0  0  0
  2  3  1  0  0  0  0
  2  4  1  0  0  0  0
  2  5  1  0  0  0  0
  1  2  1  0  0  0  0
 25 26  2  0  0  0  0
 25 27  1  0  0  0  0
 23 24  1  0  0  0  0
 21 22  1  0  0  0  0
 21 23  2  0  0  0  0
 19 20  1  0  0  0  0
 19 21  1  0  0  0  0
 17 18  1  0  0  0  0
 17 19  2  0  0  0  0
 15 16  1  0  0  0  0
 15 17  1  0  0  0  0
 14 15  2  0  0  0  0
 14 23  1  0  0  0  0
 11 12  1  0  0  0  0
 11 13  1  0  0  0  0
 11 14  1  0  0  0  0
  9 10  1  0  0  0  0
  9 11  1  0  0  0  0
  9 25  1  0  0  0  0
  7  8  1  0  0  0  0
  7  9  1  0  0  0  0
 29 30  1  0  0  0  0
 29 31  1  0  0  0  0
 29 32  1  0  0  0  0
 27 28  1  0  0  0  0
 27 29  1  0  0  0  0
M  END
$$$$
default_name
  -OEChem-02102213163D

 32 32  0     1  0  0  0  0  0999 V2000
   -3.8405   -3.7518    1.6252 H   0  0  0  0  0  0  0  0  0  0  0  0
   -3.7965   -2.8768    0.9782 C   0  0  0  0  0  0  0  0  0  0  0  0
   -4.5465   -2.1527    1.2902 H   0  0  0  0  0  0  0  0  0  0  0  0
   -3.9745   -3.1748   -0.0538 H   0  0  0  0  0  0  0  0  0  0  0  0
   -2.4245   -2.2537    1.0882 C   0  0  0  0  0  0  0  0  0  0  0  0
   -1.5805   -2.7478    1.8242 O   0  0  0  0  0  0  0  0  0  0  0  0
   -2.2045   -1.1637    0.3562 N   0  0  0  0  0  0  0  0  0  0  0  0
   -2.9595   -0.7907   -0.2008 H   0  0  0  0  0  0  0  0  0  0  0  0
   -0.9485   -0.4087    0.3482 C   0  0  1  0  0  0  0  0  0  0  0  0
   -0.1408   -1.0795    0.0507 H   0  0  0  0  0  0  0  0  0  0  0  0
   -1.0432    0.7243   -0.6879 C   0  0  0  0  0  0  0  0  0  0  0  0
   -1.9022    0.5427   -1.3354 H   0  0  0  0  0  0  0  0  0  0  0  0
   -1.2193    1.6665   -0.1668 H   0  0  0  0  0  0  0  0  0  0  0  0
    0.1865    0.8599   -1.5656 C   0  0  0  0  0  0  0  0  0  0  0  0
    0.9264    2.0576   -1.5766 C   0  0  0  0  0  0  0  0  0  0  0  0
    0.6084    2.8976   -0.9752 H   0  0  0  0  0  0  0  0  0  0  0  0
    2.0893    2.1616   -2.3618 C   0  0  0  0  0  0  0  0  0  0  0  0
    2.6545    3.0830   -2.3708 H   0  0  0  0  0  0  0  0  0  0  0  0
    2.5155    1.0687   -3.1354 C   0  0  0  0  0  0  0  0  0  0  0  0
    3.4077    1.1494   -3.7405 H   0  0  0  0  0  0  0  0  0  0  0  0
    1.7777   -0.1291   -3.1278 C   0  0  0  0  0  0  0  0  0  0  0  0
    2.1021   -0.9675   -3.7266 H   0  0  0  0  0  0  0  0  0  0  0  0
    0.6137   -0.2316   -2.3456 C   0  0  0  0  0  0  0  0  0  0  0  0
    0.0451   -1.1525   -2.3432 H   0  0  0  0  0  0  0  0  0  0  0  0
   -0.6196    0.1253    1.7539 C   0  0  0  0  0  0  0  0  0  0  0  0
    0.5216    0.0194    2.2054 O   0  0  0  0  0  0  0  0  0  0  0  0
   -1.6152    0.6924    2.4469 N   0  0  0  0  0  0  0  0  0  0  0  0
   -2.5345    0.6914    2.0318 H   0  0  0  0  0  0  0  0  0  0  0  0
   -1.4720    1.2390    3.7941 C   0  0  0  0  0  0  0  0  0  0  0  0
   -0.6345    1.9391    3.8219 H   0  0  0  0  0  0  0  0  0  0  0  0
   -2.3844    1.7580    4.0892 H   0  0  0  0  0  0  0  0  0  0  0  0
   -1.2733    0.4298    4.4995 H   0  0  0  0  0  0  0  0  0  0  0  0
  5  6  2  0  0  0  0
  5  7  1  0  0  0  0
  2  3  1  0  0  0  0
  2  4  1  0  0  0  0
  2  5  1  0  0  0  0
  1  2  1  0  0  0  0
 25 26  2  0  0  0  0
 25 27  1  0  0  0  0
 23 24  1  0  0  0  0
 21 22  1  0  0  0  0
 21 23  2  0  0  0  0
 19 20  1  0  0  0  0
 19 21  1  0  0  0  0
 17 18  1  0  0  0  0
 17 19  2  0  0  0  0
 15 16  1  0  0  0  0
 15 17  1  0  0  0  0
 14 15  2  0  0  0  0
 14 23  1  0  0  0  0
 11 12  1  0  0  0  0
 11 13  1  0  0  0  0
 11 14  1  0  0  0  0
  9 10  1  0  0  0  0
  9 11  1  0  0  0  0
  9 25  1  0  0  0  0
  7  8  1  0  0  0  0
  7  9  1  0  0  0  0
 29 30  1  0  0  0  0
 29 31  1  0  0  0  0
 29 32  1  0  0  0  0
 27 28  1  0  0  0  0
 27 29  1  0  0  0  0
M  END
$$$$
default_name
  -OEChem-02102213163D

 32 32  0     1  0  0  0  0  0999 V2000
   -3.8405   -3.7518    1.6252 H   0  0  0  0  0  0  0  0  0  0  0  0
   -3.7965   -2.8768    0.9782 C   0  0  0  0  0  0  0  0  0  0  0  0
   -4.5465   -2.1527    1.2902 H   0  0  0  0  0  0  0  0  0  0  0  0
   -3.9745   -3.1748   -0.0538 H   0  0  0  0  0  0  0  0  0  0  0  0
   -2.4245   -2.2537    1.0882 C   0  0  0  0  0  0  0  0  0  0  0  0
   -1.5805   -2.7478    1.8242 O   0  0  0  0  0  0  0  0  0  0  0  0
   -2.2045   -1.1637    0.3562 N   0  0  0  0  0  0  0  0  0  0  0  0
   -2.9595   -0.7907   -0.2008 H   0  0  0  0  0  0  0  0  0  0  0  0
   -0.9485   -0.4087    0.3482 C   0  0  1  0  0  0  0  0  0  0  0  0
   -0.1408   -1.0795    0.0507 H   0  0  0  0  0  0  0  0  0  0  0  0
   -1.0432    0.7243   -0.6879 C   0  0  0  0  0  0  0  0  0  0  0  0
   -1.9022    0.5427   -1.3354 H   0  0  0  0  0  0  0  0  0  0  0  0
   -1.2193    1.6665   -0.1668 H   0  0  0  0  0  0  0  0  0  0  0  0
    0.1865    0.8599   -1.5656 C   0  0  0  0  0  0  0  0  0  0  0  0
    1.1000    1.9105   -1.3561 C   0  0  0  0  0  0  0  0  0  0  0  0
    0.9178    2.6416   -0.5812 H   0  0  0  0  0  0  0  0  0  0  0  0
    2.2596    2.0059   -2.1474 C   0  0  0  0  0  0  0  0  0  0  0  0
    2.9583    2.8148   -1.9866 H   0  0  0  0  0  0  0  0  0  0  0  0
    2.5088    1.0508   -3.1475 C   0  0  0  0  0  0  0  0  0  0  0  0
    3.3985    1.1254   -3.7570 H   0  0  0  0  0  0  0  0  0  0  0  0
    1.5973    0.0006   -3.3604 C   0  0  0  0  0  0  0  0  0  0  0  0
    1.7861   -0.7306   -4.1328 H   0  0  0  0  0  0  0  0  0  0  0  0
    0.4369   -0.0926   -2.5717 C   0  0  0  0  0  0  0  0  0  0  0  0
   -0.2652   -0.8991   -2.7388 H   0  0  0  0  0  0  0  0  0  0  0  0
   -0.6196    0.1253    1.7539 C   0  0  0  0  0  0  0  0  0  0  0  0
    0.5216    0.0194    2.2054 O   0  0  0  0  0  0  0  0  0  0  0  0
   -1.6152    0.6924    2.4469 N   0  0  0  0  0  0  0  0  0  0  0  0
   -2.5345    0.6914    2.0318 H   0  0  0  0  0  0  0  0  0  0  0  0
   -1.4720    1.2390    3.7941 C   0  0  0  0  0  0  0  0  0  0  0  0
   -0.6345    1.9391    3.8219 H   0  0  0  0  0  0  0  0  0  0  0  0
   -2.3844    1.7580    4.0892 H   0  0  0  0  0  0  0  0  0  0  0  0
   -1.2733    0.4298    4.4995 H   0  0  0  0  0  0  0  0  0  0  0  0
  5  6  2  0  0  0  0
  5  7  1  0  0  0  0
  2  3  1  0  0  0  0
  2  4  1  0  0  0  0
  2  5  1  0  0  0  0
  1  2  1  0  0  0  0
 25 26  2  0  0  0  0
 25 27  1  0  0  0  0
 23 24  1  0  0  0  0
 21 22  1  0  0  0  0
 21 23  2  0  0  0  0
 19 20  1  0  0  0  0
 19 21  1  0  0  0  0
 17 18  1  0  0  0  0
 17 19  2  0  0  0  0
 15 16  1  0  0  0  0
 15 17  1  0  0  0  0
 14 15  2  0  0  0  0
 14 23  1  0  0  0  0
 11 12  1  0  0  0  0
 11 13  1  0  0  0  0
 11 14  1  0  0  0  0
  9 10  1  0  0  0  0
  9 11  1  0  0  0  0
  9 25  1  0  0  0  0
  7  8  1  0  0  0  0
  7  9  1  0  0  0  0
 29 30  1  0  0  0  0
 29 31  1  0  0  0  0
 29 32  1  0  0  0  0
 27 28  1  0  0  0  0
 27 29  1  0  0  0  0
M  END
$$$$
default_name
  -OEChem-02102213163D

 32 32  0     1  0  0  0  0  0999 V2000
   -3.8405   -3.7518    1.6252 H   0  0  0  0  0  0  0  0  0  0  0  0
   -3.7965   -2.8768    0.9782 C   0  0  0  0  0  0  0  0  0  0  0  0
   -4.5465   -2.1527    1.2902 H   0  0  0  0  0  0  0  0  0  0  0  0
   -3.9745   -3.1748   -0.0538 H   0  0  0  0  0  0  0  0  0  0  0  0
   -2.4245   -2.2537    1.0882 C   0  0  0  0  0  0  0  0  0  0  0  0
   -1.5805   -2.7478    1.8242 O   0  0  0  0  0  0  0  0  0  0  0  0
   -2.2045   -1.1637    0.3562 N   0  0  0  0  0  0  0  0  0  0  0  0
   -2.9595   -0.7907   -0.2008 H   0  0  0  0  0  0  0  0  0  0  0  0
   -0.9485   -0.4087    0.3482 C   0  0  1  0  0  0  0  0  0  0  0  0
   -0.1408   -1.0795    0.0507 H   0  0  0  0  0  0  0  0  0  0  0  0
   -1.0432    0.7243   -0.6879 C   0  0  0  0  0  0  0  0  0  0  0  0
   -1.9022    0.5427   -1.3354 H   0  0  0  0  0  0  0  0  0  0  0  0
   -1.2193    1.6665   -0.1668 H   0  0  0  0  0  0  0  0  0  0  0  0
    0.1865    0.8599   -1.5656 C   0  0  0  0  0  0  0  0  0  0  0  0
    1.2507    1.6961   -1.1780 C   0  0  0  0  0  0  0  0  0  0  0  0
    1.1875    2.2654   -0.2614 H   0  0  0  0  0  0  0  0  0  0  0  0
    2.4056    1.7849   -1.9769 C   0  0  0  0  0  0  0  0  0  0  0  0
    3.2205    2.4296   -1.6787 H   0  0  0  0  0  0  0  0  0  0  0  0
    2.4994    1.0370   -3.1628 C   0  0  0  0  0  0  0  0  0  0  0  0
    3.3858    1.1071   -3.7777 H   0  0  0  0  0  0  0  0  0  0  0  0
    1.4372    0.2016   -3.5538 C   0  0  0  0  0  0  0  0  0  0  0  0
    1.5069   -0.3692   -4.4681 H   0  0  0  0  0  0  0  0  0  0  0  0
    0.2818    0.1156   -2.7569 C   0  0  0  0  0  0  0  0  0  0  0  0
   -0.5361   -0.5249   -3.0605 H   0  0  0  0  0  0  0  0  0  0  0  0
   -0.6196    0.1253    1.7539 C   0  0  0  0  0  0  0  0  0  0  0  0
    0.5216    0.0194    2.2054 O   0  0  0  0  0  0  0  0  0  0  0  0
   -1.6152    0.6924    2.4469 N   0  0  0  0  0  0  0  0  0  0  0  0
   -2.5345    0.6914    2.0318 H   0  0  0  0  0  0  0  0  0  0  0  0
   -1.4720    1.2390    3.7941 C   0  0  0  0  0  0  0  0  0  0  0  0
   -0.6345    1.9391    3.8219 H   0  0  0  0  0  0  0  0  0  0  0  0
   -2.3844    1.7580    4.0892 H   0  0  0  0  0  0  0  0  0  0  0  0
   -1.2733    0.4298    4.4995 H   0  0  0  0  0  0  0  0  0  0  0  0
  5  6  2  0  0  0  0
  5  7  1  0  0  0  0
  2  3  1  0  0  0  0
  2  4  1  0  0  0  0
  2  5  1  0  0  0  0
  1  2  1  0  0  0  0
 25 26  2  0  0  0  0
 25 27  1  0  0  0  0
 23 24  1  0  0  0  0
 21 22  1  0  0  0  0
 21 23  2  0  0  0  0
 19 20  1  0  0  0  0
 19 21  1  0  0  0  0
 17 18  1  0  0  0  0
 17 19  2  0  0  0  0
 15 16  1  0  0  0  0
 15 17  1  0  0  0  0
 14 15  2  0  0  0  0
 14 23  1  0  0  0  0
 11 12  1  0  0  0  0
 11 13  1  0  0  0  0
 11 14  1  0  0  0  0
  9 10  1  0  0  0  0
  9 11  1  0  0  0  0
  9 25  1  0  0  0  0
  7  8  1  0  0  0  0
  7  9  1  0  0  0  0
 29 30  1  0  0  0  0
 29 31  1  0  0  0  0
 29 32  1  0  0  0  0
 27 28  1  0  0  0  0
 27 29  1  0  0  0  0
M  END
$$$$
default_name
  -OEChem-02102213163D

 32 32  0     1  0  0  0  0  0999 V2000
   -3.8405   -3.7518    1.6252 H   0  0  0  0  0  0  0  0  0  0  0  0
   -3.7965   -2.8768    0.9782 C   0  0  0  0  0  0  0  0  0  0  0  0
   -4.5465   -2.1527    1.2902 H   0  0  0  0  0  0  0  0  0  0  0  0
   -3.9745   -3.1748   -0.0538 H   0  0  0  0  0  0  0  0  0  0  0  0
   -2.4245   -2.2537    1.0882 C   0  0  0  0  0  0  0  0  0  0  0  0
   -1.5805   -2.7478    1.8242 O   0  0  0  0  0  0  0  0  0  0  0  0
   -2.2045   -1.1637    0.3562 N   0  0  0  0  0  0  0  0  0  0  0  0
   -2.9595   -0.7907   -0.2008 H   0  0  0  0  0  0  0  0  0  0  0  0
   -0.9485   -0.4087    0.3482 C   0  0  1  0  0  0  0  0  0  0  0  0
   -0.1408   -1.0795    0.0507 H   0  0  0  0  0  0  0  0  0  0  0  0
   -1.0432    0.7243   -0.6879 C   0  0  0  0  0  0  0  0  0  0  0  0
   -1.9022    0.5427   -1.3354 H   0  0  0  0  0  0  0  0  0  0  0  0
   -1.2193    1.6665   -0.1668 H   0  0  0  0  0  0  0  0  0  0  0  0
    0.1865    0.8599   -1.5656 C   0  0  0  0  0  0  0  0  0  0  0  0
    1.3683    1.4291   -1.0544 C   0  0  0  0  0  0  0  0  0  0  0  0
    1.3991    1.7945   -0.0377 H   0  0  0  0  0  0  0  0  0  0  0  0
    2.5176    1.5138   -1.8619 C   0  0  0  0  0  0  0  0  0  0  0  0
    3.4232    1.9536   -1.4683 H   0  0  0  0  0  0  0  0  0  0  0  0
    2.4879    1.0283   -3.1803 C   0  0  0  0  0  0  0  0  0  0  0  0
    3.3702    1.0956   -3.8013 H   0  0  0  0  0  0  0  0  0  0  0  0
    1.3082    0.4603   -3.6946 C   0  0  0  0  0  0  0  0  0  0  0  0
    1.2836    0.0920   -4.7097 H   0  0  0  0  0  0  0  0  0  0  0  0
    0.1589    0.3788   -2.8885 C   0  0  0  0  0  0  0  0  0  0  0  0
   -0.7491   -0.0554   -3.2865 H   0  0  0  0  0  0  0  0  0  0  0  0
   -0.6196    0.1253    1.7539 C   0  0  0  0  0  0  0  0  0  0  0  0
    0.5216    0.0194    2.2054 O   0  0  0  0  0  0  0  0  0  0  0  0
   -1.6152    0.6924    2.4469 N   0  0  0  0  0  0  0  0  0  0  0  0
   -2.5345    0.6914    2.0318 H   0  0  0  0  0  0  0  0  0  0  0  0
   -1.4720    1.2390    3.7941 C   0  0  0  0  0  0  0  0  0  0  0  0
   -0.6345    1.9391    3.8219 H   0  0  0  0  0  0  0  0  0  0  0  0
   -2.3844    1.7580    4.0892 H   0  0  0  0  0  0  0  0  0  0  0  0
   -1.2733    0.4298    4.4995 H   0  0  0  0  0  0  0  0  0  0  0  0
  5  6  2  0  0  0  0
  5  7  1  0  0  0  0
  2  3  1  0  0  0  0
  2  4  1  0  0  0  0
  2  5  1  0  0  0  0
  1  2  1  0  0  0  0
 25 26  2  0  0  0  0
 25 27  1  0  0  0  0
 23 24  1  0  0  0  0
 21 22  1  0  0  0  0
 21 23  2  0  0  0  0
 19 20  1  0  0  0  0
 19 21  1  0  0  0  0
 17 18  1  0  0  0  0
 17 19  2  0  0  0  0
 15 16  1  0  0  0  0
 15 17  1  0  0  0  0
 14 15  2  0  0  0  0
 14 23  1  0  0  0  0
 11 12  1  0  0  0  0
 11 13  1  0  0  0  0
 11 14  1  0  0  0  0
  9 10  1  0  0  0  0
  9 11  1  0  0  0  0
  9 25  1  0  0  0  0
  7  8  1  0  0  0  0
  7  9  1  0  0  0  0
 29 30  1  0  0  0  0
 29 31  1  0  0  0  0
 29 32  1  0  0  0  0
 27 28  1  0  0  0  0
 27 29  1  0  0  0  0
M  END
$$$$
default_name
  -OEChem-02102213163D

 32 32  0     1  0  0  0  0  0999 V2000
   -3.8405   -3.7518    1.6252 H   0  0  0  0  0  0  0  0  0  0  0  0
   -3.7965   -2.8768    0.9782 C   0  0  0  0  0  0  0  0  0  0  0  0
   -4.5465   -2.1527    1.2902 H   0  0  0  0  0  0  0  0  0  0  0  0
   -3.9745   -3.1748   -0.0538 H   0  0  0  0  0  0  0  0  0  0  0  0
   -2.4245   -2.2537    1.0882 C   0  0  0  0  0  0  0  0  0  0  0  0
   -1.5805   -2.7478    1.8242 O   0  0  0  0  0  0  0  0  0  0  0  0
   -2.2045   -1.1637    0.3562 N   0  0  0  0  0  0  0  0  0  0  0  0
   -2.9595   -0.7907   -0.2008 H   0  0  0  0  0  0  0  0  0  0  0  0
   -0.9485   -0.4087    0.3482 C   0  0  1  0  0  0  0  0  0  0  0  0
   -0.1408   -1.0795    0.0507 H   0  0  0  0  0  0  0  0  0  0  0  0
   -1.0432    0.7243   -0.6879 C   0  0  0  0  0  0  0  0  0  0  0  0
   -1.9022    0.5427   -1.3354 H   0  0  0  0  0  0  0  0  0  0  0  0
   -1.2193    1.6665   -0.1668 H   0  0  0  0  0  0  0  0  0  0  0  0
    0.1865    0.8599   -1.5656 C   0  0  0  0  0  0  0  0  0  0  0  0
    1.4448    1.1277   -0.9938 C   0  0  0  0  0  0  0  0  0  0  0  0
    1.5382    1.2611    0.0747 H   0  0  0  0  0  0  0  0  0  0  0  0
    2.5878    1.2111   -1.8103 C   0  0  0  0  0  0  0  0  0  0  0  0
    3.5526    1.4194   -1.3696 H   0  0  0  0  0  0  0  0  0  0  0  0
    2.4751    1.0253   -3.1987 C   0  0  0  0  0  0  0  0  0  0  0  0
    3.3529    1.0918   -3.8262 H   0  0  0  0  0  0  0  0  0  0  0  0
    1.2190    0.7591   -3.7734 C   0  0  0  0  0  0  0  0  0  0  0  0
    1.1314    0.6217   -4.8411 H   0  0  0  0  0  0  0  0  0  0  0  0
    0.0765    0.6790   -2.9575 C   0  0  0  0  0  0  0  0  0  0  0  0
   -0.8898    0.4775   -3.4013 H   0  0  0  0  0  0  0  0  0  0  0  0
   -0.6196    0.1253    1.7539 C   0  0  0  0  0  0  0  0  0  0  0  0
    0.5216    0.0194    2.2054 O   0  0  0  0  0  0  0  0  0  0  0  0
   -1.6152    0.6924    2.4469 N   0  0  0  0  0  0  0  0  0  0  0  0
   -2.5345    0.6914    2.0318 H   0  0  0  0  0  0  0  0  0  0  0  0
   -1.4720    1.2390    3.7941 C   0  0  0  0  0  0  0  0  0  0  0  0
   -0.6345    1.9391    3.8219 H   0  0  0  0  0  0  0  0  0  0  0  0
   -2.3844    1.7580    4.0892 H   0  0  0  0  0  0  0  0  0  0  0  0
   -1.2733    0.4298    4.4995 H   0  0  0  0  0  0  0  0  0  0  0  0
  5  6  2  0  0  0  0
  5  7  1  0  0  0  0
  2  3  1  0  0  0  0
  2  4  1  0  0  0  0
  2  5  1  0  0  0  0
  1  2  1  0  0  0  0
 25 26  2  0  0  0  0
 25 27  1  0  0  0  0
 23 24  1  0  0  0  0
 21 22  1  0  0  0  0
 21 23  2  0  0  0  0
 19 20  1  0  0  0  0
 19 21  1  0  0  0  0
 17 18  1  0  0  0  0
 17 19  2  0  0  0  0
 15 16  1  0  0  0  0
 15 17  1  0  0  0  0
 14 15  2  0  0  0  0
 14 23  1  0  0  0  0
 11 12  1  0  0  0  0
 11 13  1  0  0  0  0
 11 14  1  0  0  0  0
  9 10  1  0  0  0  0
  9 11  1  0  0  0  0
  9 25  1  0  0  0  0
  7  8  1  0  0  0  0
  7  9  1  0  0  0  0
 29 30  1  0  0  0  0
 29 31  1  0  0  0  0
 29 32  1  0  0  0  0
 27 28  1  0  0  0  0
 27 29  1  0  0  0  0
M  END
$$$$
default_name
  -OEChem-02102213163D

 32 32  0     1  0  0  0  0  0999 V2000
   -3.8405   -3.7518    1.6252 H   0  0  0  0  0  0  0  0  0  0  0  0
   -3.7965   -2.8768    0.9782 C   0  0  0  0  0  0  0  0  0  0  0  0
   -4.5465   -2.1527    1.2902 H   0  0  0  0  0  0  0  0  0  0  0  0
   -3.9745   -3.1748   -0.0538 H   0  0  0  0  0  0  0  0  0  0  0  0
   -2.4245   -2.2537    1.0882 C   0  0  0  0  0  0  0  0  0  0  0  0
   -1.5805   -2.7478    1.8242 O   0  0  0  0  0  0  0  0  0  0  0  0
   -2.2045   -1.1637    0.3562 N   0  0  0  0  0  0  0  0  0  0  0  0
   -2.9595   -0.7907   -0.2008 H   0  0  0  0  0  0  0  0  0  0  0  0
   -0.9485   -0.4087    0.3482 C   0  0  1  0  0  0  0  0  0  0  0  0
   -0.1408   -1.0795    0.0507 H   0  0  0  0  0  0  0  0  0  0  0  0
   -1.0432    0.7243   -0.6879 C   0  0  0  0  0  0  0  0  0  0  0  0
   -1.9022    0.5427   -1.3354 H   0  0  0  0  0  0  0  0  0  0  0  0
   -1.2193    1.6665   -0.1668 H   0  0  0  0  0  0  0  0  0  0  0  0
    0.1865    0.8599   -1.5656 C   0  0  0  0  0  0  0  0  0  0  0  0
    1.4750    0.8123   -1.0003 C   0  0  0  0  0  0  0  0  0  0  0  0
    1.5952    0.7014    0.0681 H   0  0  0  0  0  0  0  0  0  0  0  0
    2.6114    0.8974   -1.8257 C   0  0  0  0  0  0  0  0  0  0  0  0
    3.5998    0.8632   -1.3893 H   0  0  0  0  0  0  0  0  0  0  0  0
    2.4619    1.0282   -3.2168 C   0  0  0  0  0  0  0  0  0  0  0  0
    3.3350    1.0959   -3.8506 H   0  0  0  0  0  0  0  0  0  0  0  0
    1.1758    1.0776   -3.7847 C   0  0  0  0  0  0  0  0  0  0  0  0
    1.0606    1.1836   -4.8534 H   0  0  0  0  0  0  0  0  0  0  0  0
    0.0403    0.9959   -2.9593 C   0  0  0  0  0  0  0  0  0  0  0  0
   -0.9486    1.0374   -3.3971 H   0  0  0  0  0  0  0  0  0  0  0  0
   -0.6196    0.1253    1.7539 C   0  0  0  0  0  0  0  0  0  0  0  0
    0.5216    0.0194    2.2054 O   0  0  0  0  0  0  0  0  0  0  0  0
   -1.6152    0.6924    2.4469 N   0  0  0  0  0  0  0  0  0  0  0  0
   -2.5345    0.6914    2.0318 H   0  0  0  0  0  0  0  0  0  0  0  0
   -1.4720    1.2390    3.7941 C   0  0  0  0  0  0  0  0  0  0  0  0
   -0.6345    1.9391    3.8219 H   0  0  0  0  0  0  0  0  0  0  0  0
   -2.3844    1.7580    4.0892 H   0  0  0  0  0  0  0  0  0  0  0  0
   -1.2733    0.4298    4.4995 H   0  0  0  0  0  0  0  0  0  0  0  0
  5  6  2  0  0  0  0
  5  7  1  0  0  0  0
  2  3  1  0  0  0  0
  2  4  1  0  0  0  0
  2  5  1  0  0  0  0
  1  2  1  0  0  0  0
 25 26  2  0  0  0  0
 25 27  1  0  0  0  0
 23 24  1  0  0  0  0
 21 22  1  0  0  0  0
 21 23  2  0  0  0  0
 19 20  1  0  0  0  0
 19 21  1  0  0  0  0
 17 18  1  0  0  0  0
 17 19  2  0  0  0  0
 15 16  1  0  0  0  0
 15 17  1  0  0  0  0
 14 15  2  0  0  0  0
 14 23  1  0  0  0  0
 11 12  1  0  0  0  0
 11 13  1  0  0  0  0
 11 14  1  0  0  0  0
  9 10  1  0  0  0  0
  9 11  1  0  0  0  0
  9 25  1  0  0  0  0
  7  8  1  0  0  0  0
  7  9  1  0  0  0  0
 29 30  1  0  0  0  0
 29 31  1  0  0  0  0
 29 32  1  0  0  0  0
 27 28  1  0  0  0  0
 27 29  1  0  0  0  0
M  END
$$$$
default_name
  -OEChem-02102213163D

 32 32  0     1  0  0  0  0  0999 V2000
   -3.8405   -3.7518    1.6252 H   0  0  0  0  0  0  0  0  0  0  0  0
   -3.7965   -2.8768    0.9782 C   0  0  0  0  0  0  0  0  0  0  0  0
   -4.5465   -2.1527    1.2902 H   0  0  0  0  0  0  0  0  0  0  0  0
   -3.9745   -3.1748   -0.0538 H   0  0  0  0  0  0  0  0  0  0  0  0
   -2.4245   -2.2537    1.0882 C   0  0  0  0  0  0  0  0  0  0  0  0
   -1.5805   -2.7478    1.8242 O   0  0  0  0  0  0  0  0  0  0  0  0
   -2.2045   -1.1637    0.3562 N   0  0  0  0  0  0  0  0  0  0  0  0
   -2.9595   -0.7907   -0.2008 H   0  0  0  0  0  0  0  0  0  0  0  0
   -0.9485   -0.4087    0.3482 C   0  0  1  0  0  0  0  0  0  0  0  0
   -0.1408   -1.0795    0.0507 H   0  0  0  0  0  0  0  0  0  0  0  0
   -1.0432    0.7243   -0.6879 C   0  0  0  0  0  0  0  0  0  0  0  0
   -1.9022    0.5427   -1.3354 H   0  0  0  0  0  0  0  0  0  0  0  0
   -1.2193    1.6665   -0.1668 H   0  0  0  0  0  0  0  0  0  0  0  0
    0.1865    0.8599   -1.5656 C   0  0  0  0  0  0  0  0  0  0  0  0
    1.4567    0.5046   -1.0735 C   0  0  0  0  0  0  0  0  0  0  0  0
    1.5663    0.1536   -0.0570 H   0  0  0  0  0  0  0  0  0  0  0  0
    2.5869    0.5940   -1.9068 C   0  0  0  0  0  0  0  0  0  0  0  0
    3.5617    0.3231   -1.5262 H   0  0  0  0  0  0  0  0  0  0  0  0
    2.4491    1.0368   -3.2333 C   0  0  0  0  0  0  0  0  0  0  0  0
    3.3178    1.1077   -3.8729 H   0  0  0  0  0  0  0  0  0  0  0  0
    1.1815    1.3941   -3.7278 C   0  0  0  0  0  0  0  0  0  0  0  0
    1.0762    1.7396   -4.7457 H   0  0  0  0  0  0  0  0  0  0  0  0
    0.0527    1.3077   -2.8937 C   0  0  0  0  0  0  0  0  0  0  0  0
   -0.9215    1.5861   -3.2743 H   0  0  0  0  0  0  0  0  0  0  0  0
   -0.6196    0.1253    1.7539 C   0  0  0  0  0  0  0  0  0  0  0  0
    0.5216    0.0194    2.2054 O   0  0  0  0  0  0  0  0  0  0  0  0
   -1.6152    0.6924    2.4469 N   0  0  0  0  0  0  0  0  0  0  0  0
   -2.5345    0.6914    2.0318 H   0  0  0  0  0  0  0  0  0  0  0  0
   -1.4720    1.2390    3.7941 C   0  0  0  0  0  0  0  0  0  0  0  0
   -0.6345    1.9391    3.8219 H   0  0  0  0  0  0  0  0  0  0  0  0
   -2.3844    1.7580    4.0892 H   0  0  0  0  0  0  0  0  0  0  0  0
   -1.2733    0.4298    4.4995 H   0  0  0  0  0  0  0  0  0  0  0  0
  5  6  2  0  0  0  0
  5  7  1  0  0  0  0
  2  3  1  0  0  0  0
  2  4  1  0  0  0  0
  2  5  1  0  0  0  0
  1  2  1  0  0  0  0
 25 26  2  0  0  0  0
 25 27  1  0  0  0  0
 23 24  1  0  0  0  0
 21 22  1  0  0  0  0
 21 23  2  0  0  0  0
 19 20  1  0  0  0  0
 19 21  1  0  0  0  0
 17 18  1  0  0  0  0
 17 19  2  0  0  0  0
 15 16  1  0  0  0  0
 15 17  1  0  0  0  0
 14 15  2  0  0  0  0
 14 23  1  0  0  0  0
 11 12  1  0  0  0  0
 11 13  1  0  0  0  0
 11 14  1  0  0  0  0
  9 10  1  0  0  0  0
  9 11  1  0  0  0  0
  9 25  1  0  0  0  0
  7  8  1  0  0  0  0
  7  9  1  0  0  0  0
 29 30  1  0  0  0  0
 29 31  1  0  0  0  0
 29 32  1  0  0  0  0
 27 28  1  0  0  0  0
 27 29  1  0  0  0  0
M  END
$$$$
default_name
  -OEChem-02102213163D

 32 32  0     1  0  0  0  0  0999 V2000
   -3.8405   -3.7518    1.6252 H   0  0  0  0  0  0  0  0  0  0  0  0
   -3.7965   -2.8768    0.9782 C   0  0  0  0  0  0  0  0  0  0  0  0
   -4.5465   -2.1527    1.2902 H   0  0  0  0  0  0  0  0  0  0  0  0
   -3.9745   -3.1748   -0.0538 H   0  0  0  0  0  0  0  0  0  0  0  0
   -2.4245   -2.2537    1.0882 C   0  0  0  0  0  0  0  0  0  0  0  0
   -1.5805   -2.7478    1.8242 O   0  0  0  0  0  0  0  0  0  0  0  0
   -2.2045   -1.1637    0.3562 N   0  0  0  0  0  0  0  0  0  0  0  0
   -2.9595   -0.7907   -0.2008 H   0  0  0  0  0  0  0  0  0  0  0  0
   -0.9485   -0.4087    0.3482 C   0  0  1  0  0  0  0  0  0  0  0  0
   -0.1408   -1.0795    0.0507 H   0  0  0  0  0  0  0  0  0  0  0  0
   -1.0432    0.7243   -0.6879 C   0  0  0  0  0  0  0  0  0  0  0  0
   -1.9022    0.5427   -1.3354 H   0  0  0  0  0  0  0  0  0  0  0  0
   -1.2193    1.6665   -0.1668 H   0  0  0  0  0  0  0  0  0  0  0  0
    0.1865    0.8599   -1.5656 C   0  0  0  0  0  0  0  0  0  0  0  0
    1.3913    0.2254   -1.2082 C   0  0  0  0  0  0  0  0  0  0  0  0
    1.4535   -0.3449   -0.2922 H   0  0  0  0  0  0  0  0  0  0  0  0
    2.5160    0.3217   -2.0483 C   0  0  0  0  0  0  0  0  0  0  0  0
    3.4409   -0.1642   -1.7708 H   0  0  0  0  0  0  0  0  0  0  0  0
    2.4377    1.0505   -3.2473 C   0  0  0  0  0  0  0  0  0  0  0  0
    3.3024    1.1264   -3.8915 H   0  0  0  0  0  0  0  0  0  0  0  0
    1.2357    1.6870   -3.6066 C   0  0  0  0  0  0  0  0  0  0  0  0
    1.1769    2.2517   -4.5254 H   0  0  0  0  0  0  0  0  0  0  0  0
    0.1129    1.5933   -2.7652 C   0  0  0  0  0  0  0  0  0  0  0  0
   -0.8102    2.0863   -3.0411 H   0  0  0  0  0  0  0  0  0  0  0  0
   -0.6196    0.1253    1.7539 C   0  0  0  0  0  0  0  0  0  0  0  0
    0.5216    0.0194    2.2054 O   0  0  0  0  0  0  0  0  0  0  0  0
   -1.6152    0.6924    2.4469 N   0  0  0  0  0  0  0  0  0  0  0  0
   -2.5345    0.6914    2.0318 H   0  0  0  0  0  0  0  0  0  0  0  0
   -1.4720    1.2390    3.7941 C   0  0  0  0  0  0  0  0  0  0  0  0
   -0.6345    1.9391    3.8219 H   0  0  0  0  0  0  0  0  0  0  0  0
   -2.3844    1.7580    4.0892 H   0  0  0  0  0  0  0  0  0  0  0  0
   -1.2733    0.4298    4.4995 H   0  0  0  0  0  0  0  0  0  0  0  0
  5  6  2  0  0  0  0
  5  7  1  0  0  0  0
  2  3  1  0  0  0  0
  2  4  1  0  0  0  0
  2  5  1  0  0  0  0
  1  2  1  0  0  0  0
 25 26  2  0  0  0  0
 25 27  1  0  0  0  0
 23 24  1  0  0  0  0
 21 22  1  0  0  0  0
 21 23  2  0  0  0  0
 19 20  1  0  0  0  0
 19 21  1  0  0  0  0
 17 18  1  0  0  0  0
 17 19  2  0  0  0  0
 15 16  1  0  0  0  0
 15 17  1  0  0  0  0
 14 15  2  0  0  0  0
 14 23  1  0  0  0  0
 11 12  1  0  0  0  0
 11 13  1  0  0  0  0
 11 14  1  0  0  0  0
  9 10  1  0  0  0  0
  9 11  1  0  0  0  0
  9 25  1  0  0  0  0
  7  8  1  0  0  0  0
  7  9  1  0  0  0  0
 29 30  1  0  0  0  0
 29 31  1  0  0  0  0
 29 32  1  0  0  0  0
 27 28  1  0  0  0  0
 27 29  1  0  0  0  0
M  END
$$$$
default_name
  -OEChem-02102213163D

 32 32  0     1  0  0  0  0  0999 V2000
   -3.8405   -3.7518    1.6252 H   0  0  0  0  0  0  0  0  0  0  0  0
   -3.7965   -2.8768    0.9782 C   0  0  0  0  0  0  0  0  0  0  0  0
   -4.5465   -2.1527    1.2902 H   0  0  0  0  0  0  0  0  0  0  0  0
   -3.9745   -3.1748   -0.0538 H   0  0  0  0  0  0  0  0  0  0  0  0
   -2.4245   -2.2537    1.0882 C   0  0  0  0  0  0  0  0  0  0  0  0
   -1.5805   -2.7478    1.8242 O   0  0  0  0  0  0  0  0  0  0  0  0
   -2.2045   -1.1637    0.3562 N   0  0  0  0  0  0  0  0  0  0  0  0
   -2.9595   -0.7907   -0.2008 H   0  0  0  0  0  0  0  0  0  0  0  0
   -0.9485   -0.4087    0.3482 C   0  0  1  0  0  0  0  0  0  0  0  0
   -0.1408   -1.0795    0.0507 H   0  0  0  0  0  0  0  0  0  0  0  0
   -1.0432    0.7243   -0.6879 C   0  0  0  0  0  0  0  0  0  0  0  0
   -1.9022    0.5427   -1.3354 H   0  0  0  0  0  0  0  0  0  0  0  0
   -1.2193    1.6665   -0.1668 H   0  0  0  0  0  0  0  0  0  0  0  0
    0.1865    0.8599   -1.5656 C   0  0  0  0  0  0  0  0  0  0  0  0
    1.2832   -0.0062   -1.3955 C   0  0  0  0  0  0  0  0  0  0  0  0
    1.2644   -0.7602   -0.6213 H   0  0  0  0  0  0  0  0  0  0  0  0
    2.4034    0.0990   -2.2405 C   0  0  0  0  0  0  0  0  0  0  0  0
    3.2455   -0.5654   -2.1066 H   0  0  0  0  0  0  0  0  0  0  0  0
    2.4283    1.0683   -3.2576 C   0  0  0  0  0  0  0  0  0  0  0  0
    3.2899    1.1506   -3.9053 H   0  0  0  0  0  0  0  0  0  0  0  0
    1.3347    1.9364   -3.4293 C   0  0  0  0  0  0  0  0  0  0  0  0
    1.3560    2.6851   -4.2075 H   0  0  0  0  0  0  0  0  0  0  0  0
    0.2168    1.8332   -2.5825 C   0  0  0  0  0  0  0  0  0  0  0  0
   -0.6225    2.5038   -2.7135 H   0  0  0  0  0  0  0  0  0  0  0  0
   -0.6196    0.1253    1.7539 C   0  0  0  0  0  0  0  0  0  0  0  0
    0.5216    0.0194    2.2054 O   0  0  0  0  0  0  0  0  0  0  0  0
   -1.6152    0.6924    2.4469 N   0  0  0  0  0  0  0  0  0  0  0  0
   -2.5345    0.6914    2.0318 H   0  0  0  0  0  0  0  0  0  0  0  0
   -1.4720    1.2390    3.7941 C   0  0  0  0  0  0  0  0  0  0  0  0
   -0.6345    1.9391    3.8219 H   0  0  0  0  0  0  0  0  0  0  0  0
   -2.3844    1.7580    4.0892 H   0  0  0  0  0  0  0  0  0  0  0  0
   -1.2733    0.4298    4.4995 H   0  0  0  0  0  0  0  0  0  0  0  0
  5  6  2  0  0  0  0
  5  7  1  0  0  0  0
  2  3  1  0  0  0  0
  2  4  1  0  0  0  0
  2  5  1  0  0  0  0
  1  2  1  0  0  0  0
 25 26  2  0  0  0  0
 25 27  1  0  0  0  0
 23 24  1  0  0  0  0
 21 22  1  0  0  0  0
 21 23  2  0  0  0  0
 19 20  1  0  0  0  0
 19 21  1  0  0  0  0
 17 18  1  0  0  0  0
 17 19  2  0  0  0  0
 15 16  1  0  0  0  0
 15 17  1  0  0  0  0
 14 15  2  0  0  0  0
 14 23  1  0  0  0  0
 11 12  1  0  0  0  0
 11 13  1  0  0  0  0
 11 14  1  0  0  0  0
  9 10  1  0  0  0  0
  9 11  1  0  0  0  0
  9 25  1  0  0  0  0
  7  8  1  0  0  0  0
  7  9  1  0  0  0  0
 29 30  1  0  0  0  0
 29 31  1  0  0  0  0
 29 32  1  0  0  0  0
 27 28  1  0  0  0  0
 27 29  1  0  0  0  0
M  END
$$$$
default_name
  -OEChem-02102213163D

 32 32  0     1  0  0  0  0  0999 V2000
   -3.8405   -3.7518    1.6252 H   0  0  0  0  0  0  0  0  0  0  0  0
   -3.7965   -2.8768    0.9782 C   0  0  0  0  0  0  0  0  0  0  0  0
   -4.5465   -2.1527    1.2902 H   0  0  0  0  0  0  0  0  0  0  0  0
   -3.9745   -3.1748   -0.0538 H   0  0  0  0  0  0  0  0  0  0  0  0
   -2.4245   -2.2537    1.0882 C   0  0  0  0  0  0  0  0  0  0  0  0
   -1.5805   -2.7478    1.8242 O   0  0  0  0  0  0  0  0  0  0  0  0
   -2.2045   -1.1637    0.3562 N   0  0  0  0  0  0  0  0  0  0  0  0
   -2.9595   -0.7907   -0.2008 H   0  0  0  0  0  0  0  0  0  0  0  0
   -0.9485   -0.4087    0.3482 C   0  0  1  0  0  0  0  0  0  0  0  0
   -0.1408   -1.0795    0.0507 H   0  0  0  0  0  0  0  0  0  0  0  0
   -1.0432    0.7243   -0.6879 C   0  0  0  0  0  0  0  0  0  0  0  0
   -1.9022    0.5427   -1.3354 H   0  0  0  0  0  0  0  0  0  0  0  0
   -1.2193    1.6665   -0.1668 H   0  0  0  0  0  0  0  0  0  0  0  0
    0.1865    0.8599   -1.5656 C   0  0  0  0  0  0  0  0  0  0  0  0
    1.1398   -0.1745   -1.6225 C   0  0  0  0  0  0  0  0  0  0  0  0
    1.0119   -1.0640   -1.0220 H   0  0  0  0  0  0  0  0  0  0  0  0
    2.2568   -0.0590   -2.4703 C   0  0  0  0  0  0  0  0  0  0  0  0
    2.9889   -0.8533   -2.5105 H   0  0  0  0  0  0  0  0  0  0  0  0
    2.4218    1.0891   -3.2636 C   0  0  0  0  0  0  0  0  0  0  0  0
    3.2812    1.1788   -3.9132 H   0  0  0  0  0  0  0  0  0  0  0  0
    1.4718    2.1252   -3.2080 C   0  0  0  0  0  0  0  0  0  0  0  0
    1.6013    3.0102   -3.8136 H   0  0  0  0  0  0  0  0  0  0  0  0
    0.3573    2.0110   -2.3582 C   0  0  0  0  0  0  0  0  0  0  0  0
   -0.3710    2.8103   -2.3138 H   0  0  0  0  0  0  0  0  0  0  0  0
   -0.6196    0.1253    1.7539 C   0  0  0  0  0  0  0  0  0  0  0  0
    0.5216    0.0194    2.2054 O   0  0  0  0  0  0  0  0  0  0  0  0
   -1.6152    0.6924    2.4469 N   0  0  0  0  0  0  0  0  0  0  0  0
   -2.5345    0.6914    2.0318 H   0  0  0  0  0  0  0  0  0  0  0  0
   -1.4720    1.2390    3.7941 C   0  0  0  0  0  0  0  0  0  0  0  0
   -0.6345    1.9391    3.8219 H   0  0  0  0  0  0  0  0  0  0  0  0
   -2.3844    1.7580    4.0892 H   0  0  0  0  0  0  0  0  0  0  0  0
   -1.2733    0.4298    4.4995 H   0  0  0  0  0  0  0  0  0  0  0  0
  5  6  2  0  0  0  0
  5  7  1  0  0  0  0
  2  3  1  0  0  0  0
  2  4  1  0  0  0  0
  2  5  1  0  0  0  0
  1  2  1  0  0  0  0
 25 26  2  0  0  0  0
 25 27  1  0  0  0  0
 23 24  1  0  0  0  0
 21 22  1  0  0  0  0
 21 23  2  0  0  0  0
 19 20  1  0  0  0  0
 19 21  1  0  0  0  0
 17 18  1  0  0  0  0
 17 19  2  0  0  0  0
 15 16  1  0  0  0  0
 15 17  1  0  0  0  0
 14 15  2  0  0  0  0
 14 23  1  0  0  0  0
 11 12  1  0  0  0  0
 11 13  1  0  0  0  0
 11 14  1  0  0  0  0
  9 10  1  0  0  0  0
  9 11  1  0  0  0  0
  9 25  1  0  0  0  0
  7  8  1  0  0  0  0
  7  9  1  0  0  0  0
 29 30  1  0  0  0  0
 29 31  1  0  0  0  0
 29 32  1  0  0  0  0
 27 28  1  0  0  0  0
 27 29  1  0  0  0  0
M  END
$$$$
default_name
  -OEChem-02102213163D

 32 32  0     1  0  0  0  0  0999 V2000
   -3.8405   -3.7518    1.6252 H   0  0  0  0  0  0  0  0  0  0  0  0
   -3.7965   -2.8768    0.9782 C   0  0  0  0  0  0  0  0  0  0  0  0
   -4.5465   -2.1527    1.2902 H   0  0  0  0  0  0  0  0  0  0  0  0
   -3.9745   -3.1748   -0.0538 H   0  0  0  0  0  0  0  0  0  0  0  0
   -2.4245   -2.2537    1.0882 C   0  0  0  0  0  0  0  0  0  0  0  0
   -1.5805   -2.7478    1.8242 O   0  0  0  0  0  0  0  0  0  0  0  0
   -2.2045   -1.1637    0.3562 N   0  0  0  0  0  0  0  0  0  0  0  0
   -2.9595   -0.7907   -0.2008 H   0  0  0  0  0  0  0  0  0  0  0  0
   -0.9485   -0.4087    0.3482 C   0  0  1  0  0  0  0  0  0  0  0  0
   -0.1408   -1.0795    0.0507 H   0  0  0  0  0  0  0  0  0  0  0  0
   -1.0432    0.7243   -0.6879 C   0  0  0  0  0  0  0  0  0  0  0  0
   -1.9022    0.5427   -1.3354 H   0  0  0  0  0  0  0  0  0  0  0  0
   -1.2193    1.6665   -0.1668 H   0  0  0  0  0  0  0  0  0  0  0  0
    0.1865    0.8599   -1.5656 C   0  0  0  0  0  0  0  0  0  0  0  0
    0.9708   -0.2678   -1.8737 C   0  0  0  0  0  0  0  0  0  0  0  0
    0.7133   -1.2356   -1.4669 H   0  0  0  0  0  0  0  0  0  0  0  0
    2.0863   -0.1414   -2.7220 C   0  0  0  0  0  0  0  0  0  0  0  0
    2.6887   -1.0082   -2.9552 H   0  0  0  0  0  0  0  0  0  0  0  0
    2.4184    1.1114   -3.2649 C   0  0  0  0  0  0  0  0  0  0  0  0
    3.2768    1.2089   -3.9147 H   0  0  0  0  0  0  0  0  0  0  0  0
    1.6377    2.2407   -2.9578 C   0  0  0  0  0  0  0  0  0  0  0  0
    1.8960    3.2048   -3.3706 H   0  0  0  0  0  0  0  0  0  0  0  0
    0.5249    2.1146   -2.1074 C   0  0  0  0  0  0  0  0  0  0  0  0
   -0.0730    2.9848   -1.8692 H   0  0  0  0  0  0  0  0  0  0  0  0
   -0.6196    0.1253    1.7539 C   0  0  0  0  0  0  0  0  0  0  0  0
    0.5216    0.0194    2.2054 O   0  0  0  0  0  0  0  0  0  0  0  0
   -1.6152    0.6924    2.4469 N   0  0  0  0  0  0  0  0  0  0  0  0
   -2.5345    0.6914    2.0318 H   0  0  0  0  0  0  0  0  0  0  0  0
   -1.4720    1.2390    3.7941 C   0  0  0  0  0  0  0  0  0  0  0  0
   -0.6345    1.9391    3.8219 H   0  0  0  0  0  0  0  0  0  0  0  0
   -2.3844    1.7580    4.0892 H   0  0  0  0  0  0  0  0  0  0  0  0
   -1.2733    0.4298    4.4995 H   0  0  0  0  0  0  0  0  0  0  0  0
  5  6  2  0  0  0  0
  5  7  1  0  0  0  0
  2  3  1  0  0  0  0
  2  4  1  0  0  0  0
  2  5  1  0  0  0  0
  1  2  1  0  0  0  0
 25 26  2  0  0  0  0
 25 27  1  0  0  0  0
 23 24  1  0  0  0  0
 21 22  1  0  0  0  0
 21 23  2  0  0  0  0
 19 20  1  0  0  0  0
 19 21  1  0  0  0  0
 17 18  1  0  0  0  0
 17 19  2  0  0  0  0
 15 16  1  0  0  0  0
 15 17  1  0  0  0  0
 14 15  2  0  0  0  0
 14 23  1  0  0  0  0
 11 12  1  0  0  0  0
 11 13  1  0  0  0  0
 11 14  1  0  0  0  0
  9 10  1  0  0  0  0
  9 11  1  0  0  0  0
  9 25  1  0  0  0  0
  7  8  1  0  0  0  0
  7  9  1  0  0  0  0
 29 30  1  0  0  0  0
 29 31  1  0  0  0  0
 29 32  1  0  0  0  0
 27 28  1  0  0  0  0
 27 29  1  0  0  0  0
M  END
$$$$
default_name
  -OEChem-02102213163D

 32 32  0     1  0  0  0  0  0999 V2000
   -3.8405   -3.7518    1.6252 H   0  0  0  0  0  0  0  0  0  0  0  0
   -3.7965   -2.8768    0.9782 C   0  0  0  0  0  0  0  0  0  0  0  0
   -4.5465   -2.1527    1.2902 H   0  0  0  0  0  0  0  0  0  0  0  0
   -3.9745   -3.1748   -0.0538 H   0  0  0  0  0  0  0  0  0  0  0  0
   -2.4245   -2.2537    1.0882 C   0  0  0  0  0  0  0  0  0  0  0  0
   -1.5805   -2.7478    1.8242 O   0  0  0  0  0  0  0  0  0  0  0  0
   -2.2045   -1.1637    0.3562 N   0  0  0  0  0  0  0  0  0  0  0  0
   -2.9595   -0.7907   -0.2008 H   0  0  0  0  0  0  0  0  0  0  0  0
   -0.9485   -0.4087    0.3482 C   0  0  1  0  0  0  0  0  0  0  0  0
   -0.1408   -1.0795    0.0507 H   0  0  0  0  0  0  0  0  0  0  0  0
   -1.0432    0.7243   -0.6879 C   0  0  0  0  0  0  0  0  0  0  0  0
   -1.9022    0.5427   -1.3354 H   0  0  0  0  0  0  0  0  0  0  0  0
   -1.2193    1.6665   -0.1668 H   0  0  0  0  0  0  0  0  0  0  0  0
    0.1865    0.8599   -1.5656 C   0  0  0  0  0  0  0  0  0  0  0  0
    0.7878   -0.2800   -2.1321 C   0  0  0  0  0  0  0  0  0  0  0  0
    0.3889   -1.2632   -1.9257 H   0  0  0  0  0  0  0  0  0  0  0  0
    1.9034   -0.1427   -2.9784 C   0  0  0  0  0  0  0  0  0  0  0  0
    2.3651   -1.0195   -3.4103 H   0  0  0  0  0  0  0  0  0  0  0  0
    2.4184    1.1338   -3.2613 C   0  0  0  0  0  0  0  0  0  0  0  0
    3.2770    1.2390   -3.9097 H   0  0  0  0  0  0  0  0  0  0  0  0
    1.8209    2.2748   -2.6957 C   0  0  0  0  0  0  0  0  0  0  0  0
    2.2200    3.2557   -2.9087 H   0  0  0  0  0  0  0  0  0  0  0  0
    0.7080    2.1370   -1.8473 C   0  0  0  0  0  0  0  0  0  0  0  0
    0.2513    3.0154   -1.4101 H   0  0  0  0  0  0  0  0  0  0  0  0
   -0.6196    0.1253    1.7539 C   0  0  0  0  0  0  0  0  0  0  0  0
    0.5216    0.0194    2.2054 O   0  0  0  0  0  0  0  0  0  0  0  0
   -1.6152    0.6924    2.4469 N   0  0  0  0  0  0  0  0  0  0  0  0
   -2.5345    0.6914    2.0318 H   0  0  0  0  0  0  0  0  0  0  0  0
   -1.4720    1.2390    3.7941 C   0  0  0  0  0  0  0  0  0  0  0  0
   -0.6345    1.9391    3.8219 H   0  0  0  0  0  0  0  0  0  0  0  0
   -2.3844    1.7580    4.0892 H   0  0  0  0  0  0  0  0  0  0  0  0
   -1.2733    0.4298    4.4995 H   0  0  0  0  0  0  0  0  0  0  0  0
  5  6  2  0  0  0  0
  5  7  1  0  0  0  0
  2  3  1  0  0  0  0
  2  4  1  0  0  0  0
  2  5  1  0  0  0  0
  1  2  1  0  0  0  0
 25 26  2  0  0  0  0
 25 27  1  0  0  0  0
 23 24  1  0  0  0  0
 21 22  1  0  0  0  0
 21 23  2  0  0  0  0
 19 20  1  0  0  0  0
 19 21  1  0  0  0  0
 17 18  1  0  0  0  0
 17 19  2  0  0  0  0
 15 16  1  0  0  0  0
 15 17  1  0  0  0  0
 14 15  2  0  0  0  0
 14 23  1  0  0  0  0
 11 12  1  0  0  0  0
 11 13  1  0  0  0  0
 11 14  1  0  0  0  0
  9 10  1  0  0  0  0
  9 11  1  0  0  0  0
  9 25  1  0  0  0  0
  7  8  1  0  0  0  0
  7  9  1  0  0  0  0
 29 30  1  0  0  0  0
 29 31  1  0  0  0  0
 29 32  1  0  0  0  0
 27 28  1  0  0  0  0
 27 29  1  0  0  0  0
M  END
$$$$
default_name
  -OEChem-02102213163D

 32 32  0     1  0  0  0  0  0999 V2000
   -3.8405   -3.7518    1.6252 H   0  0  0  0  0  0  0  0  0  0  0  0
   -3.7965   -2.8768    0.9782 C   0  0  0  0  0  0  0  0  0  0  0  0
   -4.5465   -2.1527    1.2902 H   0  0  0  0  0  0  0  0  0  0  0  0
   -3.9745   -3.1748   -0.0538 H   0  0  0  0  0  0  0  0  0  0  0  0
   -2.4245   -2.2537    1.0882 C   0  0  0  0  0  0  0  0  0  0  0  0
   -1.5805   -2.7478    1.8242 O   0  0  0  0  0  0  0  0  0  0  0  0
   -2.2045   -1.1637    0.3562 N   0  0  0  0  0  0  0  0  0  0  0  0
   -2.9595   -0.7907   -0.2008 H   0  0  0  0  0  0  0  0  0  0  0  0
   -0.9485   -0.4087    0.3482 C   0  0  1  0  0  0  0  0  0  0  0  0
   -0.1408   -1.0795    0.0507 H   0  0  0  0  0  0  0  0  0  0  0  0
   -1.0432    0.7243   -0.6879 C   0  0  0  0  0  0  0  0  0  0  0  0
   -1.9022    0.5427   -1.3354 H   0  0  0  0  0  0  0  0  0  0  0  0
   -1.2193    1.6665   -0.1668 H   0  0  0  0  0  0  0  0  0  0  0  0
    0.1865    0.8599   -1.5656 C   0  0  0  0  0  0  0  0  0  0  0  0
    0.6032   -0.2102   -2.3799 C   0  0  0  0  0  0  0  0  0  0  0  0
    0.0608   -1.1451   -2.3672 H   0  0  0  0  0  0  0  0  0  0  0  0
    1.7206   -0.0627   -3.2222 C   0  0  0  0  0  0  0  0  0  0  0  0
    2.0404   -0.8865   -3.8448 H   0  0  0  0  0  0  0  0  0  0  0  0
    2.4219    1.1546   -3.2532 C   0  0  0  0  0  0  0  0  0  0  0  0
    3.2818    1.2671   -3.8986 H   0  0  0  0  0  0  0  0  0  0  0  0
    2.0091    2.2254   -2.4396 C   0  0  0  0  0  0  0  0  0  0  0  0
    2.5513    3.1594   -2.4594 H   0  0  0  0  0  0  0  0  0  0  0  0
    0.8943    2.0767   -1.5956 C   0  0  0  0  0  0  0  0  0  0  0  0
    0.5798    2.9001   -0.9677 H   0  0  0  0  0  0  0  0  0  0  0  0
   -0.6196    0.1253    1.7539 C   0  0  0  0  0  0  0  0  0  0  0  0
    0.5216    0.0194    2.2054 O   0  0  0  0  0  0  0  0  0  0  0  0
   -1.6152    0.6924    2.4469 N   0  0  0  0  0  0  0  0  0  0  0  0
   -2.5345    0.6914    2.0318 H   0  0  0  0  0  0  0  0  0  0  0  0
   -1.4720    1.2390    3.7941 C   0  0  0  0  0  0  0  0  0  0  0  0
   -0.6345    1.9391    3.8219 H   0  0  0  0  0  0  0  0  0  0  0  0
   -2.3844    1.7580    4.0892 H   0  0  0  0  0  0  0  0  0  0  0  0
   -1.2733    0.4298    4.4995 H   0  0  0  0  0  0  0  0  0  0  0  0
  5  6  2  0  0  0  0
  5  7  1  0  0  0  0
  2  3  1  0  0  0  0
  2  4  1  0  0  0  0
  2  5  1  0  0  0  0
  1  2  1  0  0  0  0
 25 26  2  0  0  0  0
 25 27  1  0  0  0  0
 23 24  1  0  0  0  0
 21 22  1  0  0  0  0
 21 23  2  0  0  0  0
 19 20  1  0  0  0  0
 19 21  1  0  0  0  0
 17 18  1  0  0  0  0
 17 19  2  0  0  0  0
 15 16  1  0  0  0  0
 15 17  1  0  0  0  0
 14 15  2  0  0  0  0
 14 23  1  0  0  0  0
 11 12  1  0  0  0  0
 11 13  1  0  0  0  0
 11 14  1  0  0  0  0
  9 10  1  0  0  0  0
  9 11  1  0  0  0  0
  9 25  1  0  0  0  0
  7  8  1  0  0  0  0
  7  9  1  0  0  0  0
 29 30  1  0  0  0  0
 29 31  1  0  0  0  0
 29 32  1  0  0  0  0
 27 28  1  0  0  0  0
 27 29  1  0  0  0  0
M  END
$$$$
default_name
  -OEChem-02102213163D

 32 32  0     1  0  0  0  0  0999 V2000
   -3.8405   -3.7518    1.6252 H   0  0  0  0  0  0  0  0  0  0  0  0
   -3.7965   -2.8768    0.9782 C   0  0  0  0  0  0  0  0  0  0  0  0
   -4.5465   -2.1527    1.2902 H   0  0  0  0  0  0  0  0  0  0  0  0
   -3.9745   -3.1748   -0.0538 H   0  0  0  0  0  0  0  0  0  0  0  0
   -2.4245   -2.2537    1.0882 C   0  0  0  0  0  0  0  0  0  0  0  0
   -1.5805   -2.7478    1.8242 O   0  0  0  0  0  0  0  0  0  0  0  0
   -2.2045   -1.1637    0.3562 N   0  0  0  0  0  0  0  0  0  0  0  0
   -2.9595   -0.7907   -0.2008 H   0  0  0  0  0  0  0  0  0  0  0  0
   -0.9485   -0.4087    0.3482 C   0  0  1  0  0  0  0  0  0  0  0  0
   -0.1408   -1.0795    0.0507 H   0  0  0  0  0  0  0  0  0  0  0  0
   -1.0432    0.7243   -0.6879 C   0  0  0  0  0  0  0  0  0  0  0  0
   -1.9022    0.5427   -1.3354 H   0  0  0  0  0  0  0  0  0  0  0  0
   -1.2193    1.6665   -0.1668 H   0  0  0  0  0  0  0  0  0  0  0  0
    0.1865    0.8599   -1.5656 C   0  0  0  0  0  0  0  0  0  0  0  0
    0.4296   -0.0631   -2.6004 C   0  0  0  0  0  0  0  0  0  0  0  0
   -0.2487   -0.8891   -2.7613 H   0  0  0  0  0  0  0  0  0  0  0  0
    1.5504    0.0930   -3.4366 C   0  0  0  0  0  0  0  0  0  0  0  0
    1.7366   -0.6183   -4.2290 H   0  0  0  0  0  0  0  0  0  0  0  0
    2.4286    1.1725   -3.2411 C   0  0  0  0  0  0  0  0  0  0  0  0
    3.2910    1.2911   -3.8821 H   0  0  0  0  0  0  0  0  0  0  0  0
    2.1894    2.0958   -2.2070 C   0  0  0  0  0  0  0  0  0  0  0  0
    2.8673    2.9225   -2.0532 H   0  0  0  0  0  0  0  0  0  0  0  0
    1.0711    1.9376   -1.3694 C   0  0  0  0  0  0  0  0  0  0  0  0
    0.8900    2.6467   -0.5721 H   0  0  0  0  0  0  0  0  0  0  0  0
   -0.6196    0.1253    1.7539 C   0  0  0  0  0  0  0  0  0  0  0  0
    0.5216    0.0194    2.2054 O   0  0  0  0  0  0  0  0  0  0  0  0
   -1.6152    0.6924    2.4469 N   0  0  0  0  0  0  0  0  0  0  0  0
   -2.5345    0.6914    2.0318 H   0  0  0  0  0  0  0  0  0  0  0  0
   -1.4720    1.2390    3.7941 C   0  0  0  0  0  0  0  0  0  0  0  0
   -0.6345    1.9391    3.8219 H   0  0  0  0  0  0  0  0  0  0  0  0
   -2.3844    1.7580    4.0892 H   0  0  0  0  0  0  0  0  0  0  0  0
   -1.2733    0.4298    4.4995 H   0  0  0  0  0  0  0  0  0  0  0  0
  5  6  2  0  0  0  0
  5  7  1  0  0  0  0
  2  3  1  0  0  0  0
  2  4  1  0  0  0  0
  2  5  1  0  0  0  0
  1  2  1  0  0  0  0
 25 26  2  0  0  0  0
 25 27  1  0  0  0  0
 23 24  1  0  0  0  0
 21 22  1  0  0  0  0
 21 23  2  0  0  0  0
 19 20  1  0  0  0  0
 19 21  1  0  0  0  0
 17 18  1  0  0  0  0
 17 19  2  0  0  0  0
 15 16  1  0  0  0  0
 15 17  1  0  0  0  0
 14 15  2  0  0  0  0
 14 23  1  0  0  0  0
 11 12  1  0  0  0  0
 11 13  1  0  0  0  0
 11 14  1  0  0  0  0
  9 10  1  0  0  0  0
  9 11  1  0  0  0  0
  9 25  1  0  0  0  0
  7  8  1  0  0  0  0
  7  9  1  0  0  0  0
 29 30  1  0  0  0  0
 29 31  1  0  0  0  0
 29 32  1  0  0  0  0
 27 28  1  0  0  0  0
 27 29  1  0  0  0  0
M  END
$$$$
default_name
  -OEChem-02102213163D

 32 32  0     1  0  0  0  0  0999 V2000
   -3.8405   -3.7518    1.6252 H   0  0  0  0  0  0  0  0  0  0  0  0
   -3.7965   -2.8768    0.9782 C   0  0  0  0  0  0  0  0  0  0  0  0
   -4.5465   -2.1527    1.2902 H   0  0  0  0  0  0  0  0  0  0  0  0
   -3.9745   -3.1748   -0.0538 H   0  0  0  0  0  0  0  0  0  0  0  0
   -2.4245   -2.2537    1.0882 C   0  0  0  0  0  0  0  0  0  0  0  0
   -1.5805   -2.7478    1.8242 O   0  0  0  0  0  0  0  0  0  0  0  0
   -2.2045   -1.1637    0.3562 N   0  0  0  0  0  0  0  0  0  0  0  0
   -2.9595   -0.7907   -0.2008 H   0  0  0  0  0  0  0  0  0  0  0  0
   -0.9485   -0.4087    0.3482 C   0  0  1  0  0  0  0  0  0  0  0  0
   -0.1408   -1.0795    0.0507 H   0  0  0  0  0  0  0  0  0  0  0  0
   -1.0432    0.7243   -0.6879 C   0  0  0  0  0  0  0  0  0  0  0  0
   -1.9022    0.5427   -1.3354 H   0  0  0  0  0  0  0  0  0  0  0  0
   -1.2193    1.6665   -0.1668 H   0  0  0  0  0  0  0  0  0  0  0  0
    0.1865    0.8599   -1.5656 C   0  0  0  0  0  0  0  0  0  0  0  0
    0.2788    0.1513   -2.7785 C   0  0  0  0  0  0  0  0  0  0  0  0
   -0.5184   -0.5129   -3.0811 H   0  0  0  0  0  0  0  0  0  0  0  0
    1.4043    0.3140   -3.6071 C   0  0  0  0  0  0  0  0  0  0  0  0
    1.4744   -0.2331   -4.5369 H   0  0  0  0  0  0  0  0  0  0  0  0
    2.4380    1.1863   -3.2258 C   0  0  0  0  0  0  0  0  0  0  0  0
    3.3037    1.3094   -3.8614 H   0  0  0  0  0  0  0  0  0  0  0  0
    2.3496    1.8947   -2.0137 C   0  0  0  0  0  0  0  0  0  0  0  0
    3.1465    2.5611   -1.7179 H   0  0  0  0  0  0  0  0  0  0  0  0
    1.2262    1.7294   -1.1842 C   0  0  0  0  0  0  0  0  0  0  0  0
    1.1609    2.2725   -0.2504 H   0  0  0  0  0  0  0  0  0  0  0  0
   -0.6196    0.1253    1.7539 C   0  0  0  0  0  0  0  0  0  0  0  0
    0.5216    0.0194    2.2054 O   0  0  0  0  0  0  0  0  0  0  0  0
   -1.6152    0.6924    2.4469 N   0  0  0  0  0  0  0  0  0  0  0  0
   -2.5345    0.6914    2.0318 H   0  0  0  0  0  0  0  0  0  0  0  0
   -1.4720    1.2390    3.7941 C   0  0  0  0  0  0  0  0  0  0  0  0
   -0.6345    1.9391    3.8219 H   0  0  0  0  0  0  0  0  0  0  0  0
   -2.3844    1.7580    4.0892 H   0  0  0  0  0  0  0  0  0  0  0  0
   -1.2733    0.4298    4.4995 H   0  0  0  0  0  0  0  0  0  0  0  0
  5  6  2  0  0  0  0
  5  7  1  0  0  0  0
  2  3  1  0  0  0  0
  2  4  1  0  0  0  0
  2  5  1  0  0  0  0
  1  2  1  0  0  0  0
 25 26  2  0  0  0  0
 25 27  1  0  0  0  0
 23 24  1  0  0  0  0
 21 22  1  0  0  0  0
 21 23  2  0  0  0  0
 19 20  1  0  0  0  0
 19 21  1  0  0  0  0
 17 18  1  0  0  0  0
 17 19  2  0  0  0  0
 15 16  1  0  0  0  0
 15 17  1  0  0  0  0
 14 15  2  0  0  0  0
 14 23  1  0  0  0  0
 11 12  1  0  0  0  0
 11 13  1  0  0  0  0
 11 14  1  0  0  0  0
  9 10  1  0  0  0  0
  9 11  1  0  0  0  0
  9 25  1  0  0  0  0
  7  8  1  0  0  0  0
  7  9  1  0  0  0  0
 29 30  1  0  0  0  0
 29 31  1  0  0  0  0
 29 32  1  0  0  0  0
 27 28  1  0  0  0  0
 27 29  1  0  0  0  0
M  END
$$$$
default_name
  -OEChem-02102213163D

 32 32  0     1  0  0  0  0  0999 V2000
   -3.8405   -3.7518    1.6252 H   0  0  0  0  0  0  0  0  0  0  0  0
   -3.7965   -2.8768    0.9782 C   0  0  0  0  0  0  0  0  0  0  0  0
   -4.5465   -2.1527    1.2902 H   0  0  0  0  0  0  0  0  0  0  0  0
   -3.9745   -3.1748   -0.0538 H   0  0  0  0  0  0  0  0  0  0  0  0
   -2.4245   -2.2537    1.0882 C   0  0  0  0  0  0  0  0  0  0  0  0
   -1.5805   -2.7478    1.8242 O   0  0  0  0  0  0  0  0  0  0  0  0
   -2.2045   -1.1637    0.3562 N   0  0  0  0  0  0  0  0  0  0  0  0
   -2.9595   -0.7907   -0.2008 H   0  0  0  0  0  0  0  0  0  0  0  0
   -0.9485   -0.4087    0.3482 C   0  0  1  0  0  0  0  0  0  0  0  0
   -0.1408   -1.0795    0.0507 H   0  0  0  0  0  0  0  0  0  0  0  0
   -1.0432    0.7243   -0.6879 C   0  0  0  0  0  0  0  0  0  0  0  0
   -1.9022    0.5427   -1.3354 H   0  0  0  0  0  0  0  0  0  0  0  0
   -1.2193    1.6665   -0.1668 H   0  0  0  0  0  0  0  0  0  0  0  0
    0.1865    0.8599   -1.5656 C   0  0  0  0  0  0  0  0  0  0  0  0
    0.1612    0.4183   -2.9021 C   0  0  0  0  0  0  0  0  0  0  0  0
   -0.7300   -0.0420   -3.3048 H   0  0  0  0  0  0  0  0  0  0  0  0
    1.2924    0.5851   -3.7221 C   0  0  0  0  0  0  0  0  0  0  0  0
    1.2717    0.2429   -4.7473 H   0  0  0  0  0  0  0  0  0  0  0  0
    2.4495    1.1949   -3.2084 C   0  0  0  0  0  0  0  0  0  0  0  0
    3.3193    1.3209   -3.8378 H   0  0  0  0  0  0  0  0  0  0  0  0
    2.4786    1.6360   -1.8729 C   0  0  0  0  0  0  0  0  0  0  0  0
    3.3698    2.0999   -1.4763 H   0  0  0  0  0  0  0  0  0  0  0  0
    1.3491    1.4662   -1.0527 C   0  0  0  0  0  0  0  0  0  0  0  0
    1.3740    1.8030   -0.0244 H   0  0  0  0  0  0  0  0  0  0  0  0
   -0.6196    0.1253    1.7539 C   0  0  0  0  0  0  0  0  0  0  0  0
    0.5216    0.0194    2.2054 O   0  0  0  0  0  0  0  0  0  0  0  0
   -1.6152    0.6924    2.4469 N   0  0  0  0  0  0  0  0  0  0  0  0
   -2.5345    0.6914    2.0318 H   0  0  0  0  0  0  0  0  0  0  0  0
   -1.4720    1.2390    3.7941 C   0  0  0  0  0  0  0  0  0  0  0  0
   -0.6345    1.9391    3.8219 H   0  0  0  0  0  0  0  0  0  0  0  0
   -2.3844    1.7580    4.0892 H   0  0  0  0  0  0  0  0  0  0  0  0
   -1.2733    0.4298    4.4995 H   0  0  0  0  0  0  0  0  0  0  0  0
  5  6  2  0  0  0  0
  5  7  1  0  0  0  0
  2  3  1  0  0  0  0
  2  4  1  0  0  0  0
  2  5  1  0  0  0  0
  1  2  1  0  0  0  0
 25 26  2  0  0  0  0
 25 27  1  0  0  0  0
 23 24  1  0  0  0  0
 21 22  1  0  0  0  0
 21 23  2  0  0  0  0
 19 20  1  0  0  0  0
 19 21  1  0  0  0  0
 17 18  1  0  0  0  0
 17 19  2  0  0  0  0
 15 16  1  0  0  0  0
 15 17  1  0  0  0  0
 14 15  2  0  0  0  0
 14 23  1  0  0  0  0
 11 12  1  0  0  0  0
 11 13  1  0  0  0  0
 11 14  1  0  0  0  0
  9 10  1  0  0  0  0
  9 11  1  0  0  0  0
  9 25  1  0  0  0  0
  7  8  1  0  0  0  0
  7  9  1  0  0  0  0
 29 30  1  0  0  0  0
 29 31  1  0  0  0  0
 29 32  1  0  0  0  0
 27 28  1  0  0  0  0
 27 29  1  0  0  0  0
M  END
$$$$
default_name
  -OEChem-02102213163D

 32 32  0     1  0  0  0  0  0999 V2000
   -3.8405   -3.7518    1.6252 H   0  0  0  0  0  0  0  0  0  0  0  0
   -3.7965   -2.8768    0.9782 C   0  0  0  0  0  0  0  0  0  0  0  0
   -4.5465   -2.1527    1.2902 H   0  0  0  0  0  0  0  0  0  0  0  0
   -3.9745   -3.1748   -0.0538 H   0  0  0  0  0  0  0  0  0  0  0  0
   -2.4245   -2.2537    1.0882 C   0  0  0  0  0  0  0  0  0  0  0  0
   -1.5805   -2.7478    1.8242 O   0  0  0  0  0  0  0  0  0  0  0  0
   -2.2045   -1.1637    0.3562 N   0  0  0  0  0  0  0  0  0  0  0  0
   -2.9595   -0.7907   -0.2008 H   0  0  0  0  0  0  0  0  0  0  0  0
   -0.9485   -0.4087    0.3482 C   0  0  1  0  0  0  0  0  0  0  0  0
   -0.1408   -1.0795    0.0507 H   0  0  0  0  0  0  0  0  0  0  0  0
   -1.0432    0.7243   -0.6879 C   0  0  0  0  0  0  0  0  0  0  0  0
   -1.9022    0.5427   -1.3354 H   0  0  0  0  0  0  0  0  0  0  0  0
   -1.2193    1.6665   -0.1668 H   0  0  0  0  0  0  0  0  0  0  0  0
    0.1865    0.8599   -1.5656 C   0  0  0  0  0  0  0  0  0  0  0  0
    0.0847    0.7197   -2.9627 C   0  0  0  0  0  0  0  0  0  0  0  0
   -0.8690    0.4914   -3.4172 H   0  0  0  0  0  0  0  0  0  0  0  0
    1.2222    0.8878   -3.7737 C   0  0  0  0  0  0  0  0  0  0  0  0
    1.1423    0.7771   -4.8460 H   0  0  0  0  0  0  0  0  0  0  0  0
    2.4623    1.1979   -3.1900 C   0  0  0  0  0  0  0  0  0  0  0  0
    3.3366    1.3247   -3.8129 H   0  0  0  0  0  0  0  0  0  0  0  0
    2.5678    1.3372   -1.7941 C   0  0  0  0  0  0  0  0  0  0  0  0
    3.5220    1.5703   -1.3448 H   0  0  0  0  0  0  0  0  0  0  0  0
    1.4315    1.1660   -0.9836 C   0  0  0  0  0  0  0  0  0  0  0  0
    1.5147    1.2701    0.0904 H   0  0  0  0  0  0  0  0  0  0  0  0
   -0.6196    0.1253    1.7539 C   0  0  0  0  0  0  0  0  0  0  0  0
    0.5216    0.0194    2.2054 O   0  0  0  0  0  0  0  0  0  0  0  0
   -1.6152    0.6924    2.4469 N   0  0  0  0  0  0  0  0  0  0  0  0
   -2.5345    0.6914    2.0318 H   0  0  0  0  0  0  0  0  0  0  0  0
   -1.4720    1.2390    3.7941 C   0  0  0  0  0  0  0  0  0  0  0  0
   -0.6345    1.9391    3.8219 H   0  0  0  0  0  0  0  0  0  0  0  0
   -2.3844    1.7580    4.0892 H   0  0  0  0  0  0  0  0  0  0  0  0
   -1.2733    0.4298    4.4995 H   0  0  0  0  0  0  0  0  0  0  0  0
  5  6  2  0  0  0  0
  5  7  1  0  0  0  0
  2  3  1  0  0  0  0
  2  4  1  0  0  0  0
  2  5  1  0  0  0  0
  1  2  1  0  0  0  0
 25 26  2  0  0  0  0
 25 27  1  0  0  0  0
 23 24  1  0  0  0  0
 21 22  1  0  0  0  0
 21 23  2  0  0  0  0
 19 20  1  0  0  0  0
 19 21  1  0  0  0  0
 17 18  1  0  0  0  0
 17 19  2  0  0  0  0
 15 16  1  0  0  0  0
 15 17  1  0  0  0  0
 14 15  2  0  0  0  0
 14 23  1  0  0  0  0
 11 12  1  0  0  0  0
 11 13  1  0  0  0  0
 11 14  1  0  0  0  0
  9 10  1  0  0  0  0
  9 11  1  0  0  0  0
  9 25  1  0  0  0  0
  7  8  1  0  0  0  0
  7  9  1  0  0  0  0
 29 30  1  0  0  0  0
 29 31  1  0  0  0  0
 29 32  1  0  0  0  0
 27 28  1  0  0  0  0
 27 29  1  0  0  0  0
M  END
$$$$
default_name
  -OEChem-02102213163D

 32 32  0     1  0  0  0  0  0999 V2000
   -3.8405   -3.7518    1.6252 H   0  0  0  0  0  0  0  0  0  0  0  0
   -3.7965   -2.8768    0.9782 C   0  0  0  0  0  0  0  0  0  0  0  0
   -4.5465   -2.1527    1.2902 H   0  0  0  0  0  0  0  0  0  0  0  0
   -3.9745   -3.1748   -0.0538 H   0  0  0  0  0  0  0  0  0  0  0  0
   -2.4245   -2.2537    1.0882 C   0  0  0  0  0  0  0  0  0  0  0  0
   -1.5805   -2.7478    1.8242 O   0  0  0  0  0  0  0  0  0  0  0  0
   -2.2045   -1.1637    0.3562 N   0  0  0  0  0  0  0  0  0  0  0  0
   -2.9595   -0.7907   -0.2008 H   0  0  0  0  0  0  0  0  0  0  0  0
   -0.9485   -0.4087    0.3482 C   0  0  1  0  0  0  0  0  0  0  0  0
   -0.1408   -1.0795    0.0507 H   0  0  0  0  0  0  0  0  0  0  0  0
   -1.0432    0.7243   -0.6879 C   0  0  0  0  0  0  0  0  0  0  0  0
   -1.9022    0.5427   -1.3354 H   0  0  0  0  0  0  0  0  0  0  0  0
   -1.2193    1.6665   -0.1668 H   0  0  0  0  0  0  0  0  0  0  0  0
    0.1865    0.8599   -1.5656 C   0  0  0  0  0  0  0  0  0  0  0  0
    0.0546    1.0351   -2.9562 C   0  0  0  0  0  0  0  0  0  0  0  0
   -0.9261    1.0511   -3.4106 H   0  0  0  0  0  0  0  0  0  0  0  0
    1.1985    1.2015   -3.7584 C   0  0  0  0  0  0  0  0  0  0  0  0
    1.0951    1.3333   -4.8263 H   0  0  0  0  0  0  0  0  0  0  0  0
    2.4755    1.1950   -3.1719 C   0  0  0  0  0  0  0  0  0  0  0  0
    3.3545    1.3205   -3.7885 H   0  0  0  0  0  0  0  0  0  0  0  0
    2.6110    1.0187   -1.7828 C   0  0  0  0  0  0  0  0  0  0  0  0
    3.5928    1.0083   -1.3326 H   0  0  0  0  0  0  0  0  0  0  0  0
    1.4677    0.8491   -0.9818 C   0  0  0  0  0  0  0  0  0  0  0  0
    1.5735    0.7103    0.0863 H   0  0  0  0  0  0  0  0  0  0  0  0
   -0.6196    0.1253    1.7539 C   0  0  0  0  0  0  0  0  0  0  0  0
    0.5216    0.0194    2.2054 O   0  0  0  0  0  0  0  0  0  0  0  0
   -1.6152    0.6924    2.4469 N   0  0  0  0  0  0  0  0  0  0  0  0
   -2.5345    0.6914    2.0318 H   0  0  0  0  0  0  0  0  0  0  0  0
   -1.4720    1.2390    3.7941 C   0  0  0  0  0  0  0  0  0  0  0  0
   -0.6345    1.9391    3.8219 H   0  0  0  0  0  0  0  0  0  0  0  0
   -2.3844    1.7580    4.0892 H   0  0  0  0  0  0  0  0  0  0  0  0
   -1.2733    0.4298    4.4995 H   0  0  0  0  0  0  0  0  0  0  0  0
  5  6  2  0  0  0  0
  5  7  1  0  0  0  0
  2  3  1  0  0  0  0
  2  4  1  0  0  0  0
  2  5  1  0  0  0  0
  1  2  1  0  0  0  0
 25 26  2  0  0  0  0
 25 27  1  0  0  0  0
 23 24  1  0  0  0  0
 21 22  1  0  0  0  0
 21 23  2  0  0  0  0
 19 20  1  0  0  0  0
 19 21  1  0  0  0  0
 17 18  1  0  0  0  0
 17 19  2  0  0  0  0
 15 16  1  0  0  0  0
 15 17  1  0  0  0  0
 14 15  2  0  0  0  0
 14 23  1  0  0  0  0
 11 12  1  0  0  0  0
 11 13  1  0  0  0  0
 11 14  1  0  0  0  0
  9 10  1  0  0  0  0
  9 11  1  0  0  0  0
  9 25  1  0  0  0  0
  7  8  1  0  0  0  0
  7  9  1  0  0  0  0
 29 30  1  0  0  0  0
 29 31  1  0  0  0  0
 29 32  1  0  0  0  0
 27 28  1  0  0  0  0
 27 29  1  0  0  0  0
M  END
$$$$
default_name
  -OEChem-02102213163D

 32 32  0     1  0  0  0  0  0999 V2000
   -3.8405   -3.7518    1.6252 H   0  0  0  0  0  0  0  0  0  0  0  0
   -3.7965   -2.8768    0.9782 C   0  0  0  0  0  0  0  0  0  0  0  0
   -4.5465   -2.1527    1.2902 H   0  0  0  0  0  0  0  0  0  0  0  0
   -3.9745   -3.1748   -0.0538 H   0  0  0  0  0  0  0  0  0  0  0  0
   -2.4245   -2.2537    1.0882 C   0  0  0  0  0  0  0  0  0  0  0  0
   -1.5805   -2.7478    1.8242 O   0  0  0  0  0  0  0  0  0  0  0  0
   -2.2045   -1.1637    0.3562 N   0  0  0  0  0  0  0  0  0  0  0  0
   -2.9595   -0.7907   -0.2008 H   0  0  0  0  0  0  0  0  0  0  0  0
   -0.9485   -0.4087    0.3482 C   0  0  1  0  0  0  0  0  0  0  0  0
   -0.1408   -1.0795    0.0507 H   0  0  0  0  0  0  0  0  0  0  0  0
   -1.0432    0.7243   -0.6879 C   0  0  0  0  0  0  0  0  0  0  0  0
   -1.9022    0.5427   -1.3354 H   0  0  0  0  0  0  0  0  0  0  0  0
   -1.2193    1.6665   -0.1668 H   0  0  0  0  0  0  0  0  0  0  0  0
    0.1865    0.8599   -1.5656 C   0  0  0  0  0  0  0  0  0  0  0  0
    0.0728    1.3428   -2.8831 C   0  0  0  0  0  0  0  0  0  0  0  0
   -0.8972    1.5989   -3.2854 H   0  0  0  0  0  0  0  0  0  0  0  0
    1.2230    1.5049   -3.6772 C   0  0  0  0  0  0  0  0  0  0  0  0
    1.1332    1.8734   -4.6894 H   0  0  0  0  0  0  0  0  0  0  0  0
    2.4883    1.1865   -3.1553 C   0  0  0  0  0  0  0  0  0  0  0  0
    3.3717    1.3087   -3.7662 H   0  0  0  0  0  0  0  0  0  0  0  0
    2.6053    0.7023   -1.8397 C   0  0  0  0  0  0  0  0  0  0  0  0
    3.5772    0.4523   -1.4402 H   0  0  0  0  0  0  0  0  0  0  0  0
    1.4553    0.5373   -1.0474 C   0  0  0  0  0  0  0  0  0  0  0  0
    1.5463    0.1615   -0.0366 H   0  0  0  0  0  0  0  0  0  0  0  0
   -0.6196    0.1253    1.7539 C   0  0  0  0  0  0  0  0  0  0  0  0
    0.5216    0.0194    2.2054 O   0  0  0  0  0  0  0  0  0  0  0  0
   -1.6152    0.6924    2.4469 N   0  0  0  0  0  0  0  0  0  0  0  0
   -2.5345    0.6914    2.0318 H   0  0  0  0  0  0  0  0  0  0  0  0
   -1.4720    1.2390    3.7941 C   0  0  0  0  0  0  0  0  0  0  0  0
   -0.6345    1.9391    3.8219 H   0  0  0  0  0  0  0  0  0  0  0  0
   -2.3844    1.7580    4.0892 H   0  0  0  0  0  0  0  0  0  0  0  0
   -1.2733    0.4298    4.4995 H   0  0  0  0  0  0  0  0  0  0  0  0
  5  6  2  0  0  0  0
  5  7  1  0  0  0  0
  2  3  1  0  0  0  0
  2  4  1  0  0  0  0
  2  5  1  0  0  0  0
  1  2  1  0  0  0  0
 25 26  2  0  0  0  0
 25 27  1  0  0  0  0
 23 24  1  0  0  0  0
 21 22  1  0  0  0  0
 21 23  2  0  0  0  0
 19 20  1  0  0  0  0
 19 21  1  0  0  0  0
 17 18  1  0  0  0  0
 17 19  2  0  0  0  0
 15 16  1  0  0  0  0
 15 17  1  0  0  0  0
 14 15  2  0  0  0  0
 14 23  1  0  0  0  0
 11 12  1  0  0  0  0
 11 13  1  0  0  0  0
 11 14  1  0  0  0  0
  9 10  1  0  0  0  0
  9 11  1  0  0  0  0
  9 25  1  0  0  0  0
  7  8  1  0  0  0  0
  7  9  1  0  0  0  0
 29 30  1  0  0  0  0
 29 31  1  0  0  0  0
 29 32  1  0  0  0  0
 27 28  1  0  0  0  0
 27 29  1  0  0  0  0
M  END
$$$$
default_name
  -OEChem-02102213163D

 32 32  0     1  0  0  0  0  0999 V2000
   -3.8405   -3.7518    1.6252 H   0  0  0  0  0  0  0  0  0  0  0  0
   -3.7965   -2.8768    0.9782 C   0  0  0  0  0  0  0  0  0  0  0  0
   -4.5465   -2.1527    1.2902 H   0  0  0  0  0  0  0  0  0  0  0  0
   -3.9745   -3.1748   -0.0538 H   0  0  0  0  0  0  0  0  0  0  0  0
   -2.4245   -2.2537    1.0882 C   0  0  0  0  0  0  0  0  0  0  0  0
   -1.5805   -2.7478    1.8242 O   0  0  0  0  0  0  0  0  0  0  0  0
   -2.2045   -1.1637    0.3562 N   0  0  0  0  0  0  0  0  0  0  0  0
   -2.9595   -0.7907   -0.2008 H   0  0  0  0  0  0  0  0  0  0  0  0
   -0.9485   -0.4087    0.3482 C   0  0  1  0  0  0  0  0  0  0  0  0
   -0.1408   -1.0795    0.0507 H   0  0  0  0  0  0  0  0  0  0  0  0
   -1.0432    0.7243   -0.6879 C   0  0  0  0  0  0  0  0  0  0  0  0
   -1.9022    0.5427   -1.3354 H   0  0  0  0  0  0  0  0  0  0  0  0
   -1.2193    1.6665   -0.1668 H   0  0  0  0  0  0  0  0  0  0  0  0
    0.1865    0.8599   -1.5656 C   0  0  0  0  0  0  0  0  0  0  0  0
    0.1382    1.6220   -2.7483 C   0  0  0  0  0  0  0  0  0  0  0  0
   -0.7843    2.0974   -3.0503 H   0  0  0  0  0  0  0  0  0  0  0  0
    1.2940    1.7772   -3.5357 C   0  0  0  0  0  0  0  0  0  0  0  0
    1.2540    2.3607   -4.4448 H   0  0  0  0  0  0  0  0  0  0  0  0
    2.4997    1.1728   -3.1414 C   0  0  0  0  0  0  0  0  0  0  0  0
    3.3871    1.2901   -3.7476 H   0  0  0  0  0  0  0  0  0  0  0  0
    2.5511    0.4093   -1.9609 C   0  0  0  0  0  0  0  0  0  0  0  0
    3.4765   -0.0598   -1.6605 H   0  0  0  0  0  0  0  0  0  0  0  0
    1.3951    0.2517   -1.1760 C   0  0  0  0  0  0  0  0  0  0  0  0
    1.4351   -0.3386   -0.2698 H   0  0  0  0  0  0  0  0  0  0  0  0
   -0.6196    0.1253    1.7539 C   0  0  0  0  0  0  0  0  0  0  0  0
    0.5216    0.0194    2.2054 O   0  0  0  0  0  0  0  0  0  0  0  0
   -1.6152    0.6924    2.4469 N   0  0  0  0  0  0  0  0  0  0  0  0
   -2.5345    0.6914    2.0318 H   0  0  0  0  0  0  0  0  0  0  0  0
   -1.4720    1.2390    3.7941 C   0  0  0  0  0  0  0  0  0  0  0  0
   -0.6345    1.9391    3.8219 H   0  0  0  0  0  0  0  0  0  0  0  0
   -2.3844    1.7580    4.0892 H   0  0  0  0  0  0  0  0  0  0  0  0
   -1.2733    0.4298    4.4995 H   0  0  0  0  0  0  0  0  0  0  0  0
  5  6  2  0  0  0  0
  5  7  1  0  0  0  0
  2  3  1  0  0  0  0
  2  4  1  0  0  0  0
  2  5  1  0  0  0  0
  1  2  1  0  0  0  0
 25 26  2  0  0  0  0
 25 27  1  0  0  0  0
 23 24  1  0  0  0  0
 21 22  1  0  0  0  0
 21 23  2  0  0  0  0
 19 20  1  0  0  0  0
 19 21  1  0  0  0  0
 17 18  1  0  0  0  0
 17 19  2  0  0  0  0
 15 16  1  0  0  0  0
 15 17  1  0  0  0  0
 14 15  2  0  0  0  0
 14 23  1  0  0  0  0
 11 12  1  0  0  0  0
 11 13  1  0  0  0  0
 11 14  1  0  0  0  0
  9 10  1  0  0  0  0
  9 11  1  0  0  0  0
  9 25  1  0  0  0  0
  7  8  1  0  0  0  0
  7  9  1  0  0  0  0
 29 30  1  0  0  0  0
 29 31  1  0  0  0  0
 29 32  1  0  0  0  0
 27 28  1  0  0  0  0
 27 29  1  0  0  0  0
M  END
$$$$
default_name
  -OEChem-02102213163D

 32 32  0     1  0  0  0  0  0999 V2000
   -3.8405   -3.7518    1.6252 H   0  0  0  0  0  0  0  0  0  0  0  0
   -3.7965   -2.8768    0.9782 C   0  0  0  0  0  0  0  0  0  0  0  0
   -4.5465   -2.1527    1.2902 H   0  0  0  0  0  0  0  0  0  0  0  0
   -3.9745   -3.1748   -0.0538 H   0  0  0  0  0  0  0  0  0  0  0  0
   -2.4245   -2.2537    1.0882 C   0  0  0  0  0  0  0  0  0  0  0  0
   -1.5805   -2.7478    1.8242 O   0  0  0  0  0  0  0  0  0  0  0  0
   -2.2045   -1.1637    0.3562 N   0  0  0  0  0  0  0  0  0  0  0  0
   -2.9595   -0.7907   -0.2008 H   0  0  0  0  0  0  0  0  0  0  0  0
   -0.9485   -0.4087    0.3482 C   0  0  1  0  0  0  0  0  0  0  0  0
   -0.1408   -1.0795    0.0507 H   0  0  0  0  0  0  0  0  0  0  0  0
   -1.0432    0.7243   -0.6879 C   0  0  0  0  0  0  0  0  0  0  0  0
   -2.0288    0.6972   -1.1548 H   0  0  0  0  0  0  0  0  0  0  0  0
   -0.9504    1.6822   -0.1741 H   0  0  0  0  0  0  0  0  0  0  0  0
   -0.0003    0.6424   -1.7864 C   0  0  0  0  0  0  0  0  0  0  0  0
    0.0379    1.6110   -2.8072 C   0  0  0  0  0  0  0  0  0  0  0  0
   -0.6919    2.4081   -2.8268 H   0  0  0  0  0  0  0  0  0  0  0  0
    1.0338    1.5518   -3.7995 C   0  0  0  0  0  0  0  0  0  0  0  0
    1.0598    2.2951   -4.5839 H   0  0  0  0  0  0  0  0  0  0  0  0
    1.9937    0.5259   -3.7719 C   0  0  0  0  0  0  0  0  0  0  0  0
    2.7574    0.4790   -4.5356 H   0  0  0  0  0  0  0  0  0  0  0  0
    1.9574   -0.4445   -2.7541 C   0  0  0  0  0  0  0  0  0  0  0  0
    2.6918   -1.2363   -2.7358 H   0  0  0  0  0  0  0  0  0  0  0  0
    0.9600   -0.3870   -1.7645 C   0  0  0  0  0  0  0  0  0  0  0  0
    0.9312   -1.1361   -0.9839 H   0  0  0  0  0  0  0  0  0  0  0  0
   -0.6196    0.1253    1.7539 C   0  0  0  0  0  0  0  0  0  0  0  0
    0.5216    0.0194    2.2054 O   0  0  0  0  0  0  0  0  0  0  0  0
   -1.6152    0.6924    2.4469 N   0  0  0  0  0  0  0  0  0  0  0  0
   -2.5345    0.6914    2.0318 H   0  0  0  0  0  0  0  0  0  0  0  0
   -1.4720    1.2390    3.7941 C   0  0  0  0  0  0  0  0  0  0  0  0
   -0.6345    1.9391    3.8219 H   0  0  0  0  0  0  0  0  0  0  0  0
   -2.3844    1.7580    4.0892 H   0  0  0  0  0  0  0  0  0  0  0  0
   -1.2733    0.4298    4.4995 H   0  0  0  0  0  0  0  0  0  0  0  0
  5  6  2  0  0  0  0
  5  7  1  0  0  0  0
  2  3  1  0  0  0  0
  2  4  1  0  0  0  0
  2  5  1  0  0  0  0
  1  2  1  0  0  0  0
 25 26  2  0  0  0  0
 25 27  1  0  0  0  0
 23 24  1  0  0  0  0
 21 22  1  0  0  0  0
 21 23  2  0  0  0  0
 19 20  1  0  0  0  0
 19 21  1  0  0  0  0
 17 18  1  0  0  0  0
 17 19  2  0  0  0  0
 15 16  1  0  0  0  0
 15 17  1  0  0  0  0
 14 15  2  0  0  0  0
 14 23  1  0  0  0  0
 11 12  1  0  0  0  0
 11 13  1  0  0  0  0
 11 14  1  0  0  0  0
  9 10  1  0  0  0  0
  9 11  1  0  0  0  0
  9 25  1  0  0  0  0
  7  8  1  0  0  0  0
  7  9  1  0  0  0  0
 29 30  1  0  0  0  0
 29 31  1  0  0  0  0
 29 32  1  0  0  0  0
 27 28  1  0  0  0  0
 27 29  1  0  0  0  0
M  END
$$$$
default_name
  -OEChem-02102213163D

 32 32  0     1  0  0  0  0  0999 V2000
   -3.8405   -3.7518    1.6252 H   0  0  0  0  0  0  0  0  0  0  0  0
   -3.7965   -2.8768    0.9782 C   0  0  0  0  0  0  0  0  0  0  0  0
   -4.5465   -2.1527    1.2902 H   0  0  0  0  0  0  0  0  0  0  0  0
   -3.9745   -3.1748   -0.0538 H   0  0  0  0  0  0  0  0  0  0  0  0
   -2.4245   -2.2537    1.0882 C   0  0  0  0  0  0  0  0  0  0  0  0
   -1.5805   -2.7478    1.8242 O   0  0  0  0  0  0  0  0  0  0  0  0
   -2.2045   -1.1637    0.3562 N   0  0  0  0  0  0  0  0  0  0  0  0
   -2.9595   -0.7907   -0.2008 H   0  0  0  0  0  0  0  0  0  0  0  0
   -0.9485   -0.4087    0.3482 C   0  0  1  0  0  0  0  0  0  0  0  0
   -0.1408   -1.0795    0.0507 H   0  0  0  0  0  0  0  0  0  0  0  0
   -1.0432    0.7243   -0.6879 C   0  0  0  0  0  0  0  0  0  0  0  0
   -2.0288    0.6972   -1.1548 H   0  0  0  0  0  0  0  0  0  0  0  0
   -0.9504    1.6822   -0.1741 H   0  0  0  0  0  0  0  0  0  0  0  0
   -0.0003    0.6424   -1.7864 C   0  0  0  0  0  0  0  0  0  0  0  0
    0.2492    1.7512   -2.6171 C   0  0  0  0  0  0  0  0  0  0  0  0
   -0.3186    2.6623   -2.4913 H   0  0  0  0  0  0  0  0  0  0  0  0
    1.2468    1.6813   -3.6069 C   0  0  0  0  0  0  0  0  0  0  0  0
    1.4350    2.5330   -4.2455 H   0  0  0  0  0  0  0  0  0  0  0  0
    1.9976    0.5042   -3.7666 C   0  0  0  0  0  0  0  0  0  0  0  0
    2.7625    0.4498   -4.5286 H   0  0  0  0  0  0  0  0  0  0  0  0
    1.7498   -0.6061   -2.9391 C   0  0  0  0  0  0  0  0  0  0  0  0
    2.3231   -1.5128   -3.0653 H   0  0  0  0  0  0  0  0  0  0  0  0
    0.7505   -0.5371   -1.9522 C   0  0  0  0  0  0  0  0  0  0  0  0
    0.5585   -1.3931   -1.3185 H   0  0  0  0  0  0  0  0  0  0  0  0
   -0.6196    0.1253    1.7539 C   0  0  0  0  0  0  0  0  0  0  0  0
    0.5216    0.0194    2.2054 O   0  0  0  0  0  0  0  0  0  0  0  0
   -1.6152    0.6924    2.4469 N   0  0  0  0  0  0  0  0  0  0  0  0
   -2.5345    0.6914    2.0318 H   0  0  0  0  0  0  0  0  0  0  0  0
   -1.4720    1.2390    3.7941 C   0  0  0  0  0  0  0  0  0  0  0  0
   -0.6345    1.9391    3.8219 H   0  0  0  0  0  0  0  0  0  0  0  0
   -2.3844    1.7580    4.0892 H   0  0  0  0  0  0  0  0  0  0  0  0
   -1.2733    0.4298    4.4995 H   0  0  0  0  0  0  0  0  0  0  0  0
  5  6  2  0  0  0  0
  5  7  1  0  0  0  0
  2  3  1  0  0  0  0
  2  4  1  0  0  0  0
  2  5  1  0  0  0  0
  1  2  1  0  0  0  0
 25 26  2  0  0  0  0
 25 27  1  0  0  0  0
 23 24  1  0  0  0  0
 21 22  1  0  0  0  0
 21 23  2  0  0  0  0
 19 20  1  0  0  0  0
 19 21  1  0  0  0  0
 17 18  1  0  0  0  0
 17 19  2  0  0  0  0
 15 16  1  0  0  0  0
 15 17  1  0  0  0  0
 14 15  2  0  0  0  0
 14 23  1  0  0  0  0
 11 12  1  0  0  0  0
 11 13  1  0  0  0  0
 11 14  1  0  0  0  0
  9 10  1  0  0  0  0
  9 11  1  0  0  0  0
  9 25  1  0  0  0  0
  7  8  1  0  0  0  0
  7  9  1  0  0  0  0
 29 30  1  0  0  0  0
 29 31  1  0  0  0  0
 29 32  1  0  0  0  0
 27 28  1  0  0  0  0
 27 29  1  0  0  0  0
M  END
$$$$
default_name
  -OEChem-02102213163D

 32 32  0     1  0  0  0  0  0999 V2000
   -3.8405   -3.7518    1.6252 H   0  0  0  0  0  0  0  0  0  0  0  0
   -3.7965   -2.8768    0.9782 C   0  0  0  0  0  0  0  0  0  0  0  0
   -4.5465   -2.1527    1.2902 H   0  0  0  0  0  0  0  0  0  0  0  0
   -3.9745   -3.1748   -0.0538 H   0  0  0  0  0  0  0  0  0  0  0  0
   -2.4245   -2.2537    1.0882 C   0  0  0  0  0  0  0  0  0  0  0  0
   -1.5805   -2.7478    1.8242 O   0  0  0  0  0  0  0  0  0  0  0  0
   -2.2045   -1.1637    0.3562 N   0  0  0  0  0  0  0  0  0  0  0  0
   -2.9595   -0.7907   -0.2008 H   0  0  0  0  0  0  0  0  0  0  0  0
   -0.9485   -0.4087    0.3482 C   0  0  1  0  0  0  0  0  0  0  0  0
   -0.1408   -1.0795    0.0507 H   0  0  0  0  0  0  0  0  0  0  0  0
   -1.0432    0.7243   -0.6879 C   0  0  0  0  0  0  0  0  0  0  0  0
   -2.0288    0.6972   -1.1548 H   0  0  0  0  0  0  0  0  0  0  0  0
   -0.9504    1.6822   -0.1741 H   0  0  0  0  0  0  0  0  0  0  0  0
   -0.0003    0.6424   -1.7864 C   0  0  0  0  0  0  0  0  0  0  0  0
    0.4768    1.8132   -2.4056 C   0  0  0  0  0  0  0  0  0  0  0  0
    0.0850    2.7782   -2.1168 H   0  0  0  0  0  0  0  0  0  0  0  0
    1.4742    1.7322   -3.3949 C   0  0  0  0  0  0  0  0  0  0  0  0
    1.8373    2.6322   -3.8710 H   0  0  0  0  0  0  0  0  0  0  0  0
    1.9973    0.4817   -3.7652 C   0  0  0  0  0  0  0  0  0  0  0  0
    2.7618    0.4193   -4.5269 H   0  0  0  0  0  0  0  0  0  0  0  0
    1.5216   -0.6904   -3.1495 C   0  0  0  0  0  0  0  0  0  0  0  0
    1.9197   -1.6521   -3.4379 H   0  0  0  0  0  0  0  0  0  0  0  0
    0.5225   -0.6094   -2.1632 C   0  0  0  0  0  0  0  0  0  0  0  0
    0.1551   -1.5121   -1.6926 H   0  0  0  0  0  0  0  0  0  0  0  0
   -0.6196    0.1253    1.7539 C   0  0  0  0  0  0  0  0  0  0  0  0
    0.5216    0.0194    2.2054 O   0  0  0  0  0  0  0  0  0  0  0  0
   -1.6152    0.6924    2.4469 N   0  0  0  0  0  0  0  0  0  0  0  0
   -2.5345    0.6914    2.0318 H   0  0  0  0  0  0  0  0  0  0  0  0
   -1.4720    1.2390    3.7941 C   0  0  0  0  0  0  0  0  0  0  0  0
   -0.6345    1.9391    3.8219 H   0  0  0  0  0  0  0  0  0  0  0  0
   -2.3844    1.7580    4.0892 H   0  0  0  0  0  0  0  0  0  0  0  0
   -1.2733    0.4298    4.4995 H   0  0  0  0  0  0  0  0  0  0  0  0
  5  6  2  0  0  0  0
  5  7  1  0  0  0  0
  2  3  1  0  0  0  0
  2  4  1  0  0  0  0
  2  5  1  0  0  0  0
  1  2  1  0  0  0  0
 25 26  2  0  0  0  0
 25 27  1  0  0  0  0
 23 24  1  0  0  0  0
 21 22  1  0  0  0  0
 21 23  2  0  0  0  0
 19 20  1  0  0  0  0
 19 21  1  0  0  0  0
 17 18  1  0  0  0  0
 17 19  2  0  0  0  0
 15 16  1  0  0  0  0
 15 17  1  0  0  0  0
 14 15  2  0  0  0  0
 14 23  1  0  0  0  0
 11 12  1  0  0  0  0
 11 13  1  0  0  0  0
 11 14  1  0  0  0  0
  9 10  1  0  0  0  0
  9 11  1  0  0  0  0
  9 25  1  0  0  0  0
  7  8  1  0  0  0  0
  7  9  1  0  0  0  0
 29 30  1  0  0  0  0
 29 31  1  0  0  0  0
 29 32  1  0  0  0  0
 27 28  1  0  0  0  0
 27 29  1  0  0  0  0
M  END
$$$$
default_name
  -OEChem-02102213163D

 32 32  0     1  0  0  0  0  0999 V2000
   -3.8405   -3.7518    1.6252 H   0  0  0  0  0  0  0  0  0  0  0  0
   -3.7965   -2.8768    0.9782 C   0  0  0  0  0  0  0  0  0  0  0  0
   -4.5465   -2.1527    1.2902 H   0  0  0  0  0  0  0  0  0  0  0  0
   -3.9745   -3.1748   -0.0538 H   0  0  0  0  0  0  0  0  0  0  0  0
   -2.4245   -2.2537    1.0882 C   0  0  0  0  0  0  0  0  0  0  0  0
   -1.5805   -2.7478    1.8242 O   0  0  0  0  0  0  0  0  0  0  0  0
   -2.2045   -1.1637    0.3562 N   0  0  0  0  0  0  0  0  0  0  0  0
   -2.9595   -0.7907   -0.2008 H   0  0  0  0  0  0  0  0  0  0  0  0
   -0.9485   -0.4087    0.3482 C   0  0  1  0  0  0  0  0  0  0  0  0
   -0.1408   -1.0795    0.0507 H   0  0  0  0  0  0  0  0  0  0  0  0
   -1.0432    0.7243   -0.6879 C   0  0  0  0  0  0  0  0  0  0  0  0
   -2.0288    0.6972   -1.1548 H   0  0  0  0  0  0  0  0  0  0  0  0
   -0.9504    1.6822   -0.1741 H   0  0  0  0  0  0  0  0  0  0  0  0
   -0.0003    0.6424   -1.7864 C   0  0  0  0  0  0  0  0  0  0  0  0
    0.7054    1.7927   -2.1871 C   0  0  0  0  0  0  0  0  0  0  0  0
    0.4913    2.7479   -1.7288 H   0  0  0  0  0  0  0  0  0  0  0  0
    1.7003    1.7010   -3.1779 C   0  0  0  0  0  0  0  0  0  0  0  0
    2.2392    2.5860   -3.4859 H   0  0  0  0  0  0  0  0  0  0  0  0
    1.9927    0.4597   -3.7679 C   0  0  0  0  0  0  0  0  0  0  0  0
    2.7554    0.3897   -4.5308 H   0  0  0  0  0  0  0  0  0  0  0  0
    1.2883   -0.6915   -3.3709 C   0  0  0  0  0  0  0  0  0  0  0  0
    1.5092   -1.6448   -3.8282 H   0  0  0  0  0  0  0  0  0  0  0  0
    0.2918   -0.5990   -2.3831 C   0  0  0  0  0  0  0  0  0  0  0  0
   -0.2517   -1.4848   -2.0809 H   0  0  0  0  0  0  0  0  0  0  0  0
   -0.6196    0.1253    1.7539 C   0  0  0  0  0  0  0  0  0  0  0  0
    0.5216    0.0194    2.2054 O   0  0  0  0  0  0  0  0  0  0  0  0
   -1.6152    0.6924    2.4469 N   0  0  0  0  0  0  0  0  0  0  0  0
   -2.5345    0.6914    2.0318 H   0  0  0  0  0  0  0  0  0  0  0  0
   -1.4720    1.2390    3.7941 C   0  0  0  0  0  0  0  0  0  0  0  0
   -0.6345    1.9391    3.8219 H   0  0  0  0  0  0  0  0  0  0  0  0
   -2.3844    1.7580    4.0892 H   0  0  0  0  0  0  0  0  0  0  0  0
   -1.2733    0.4298    4.4995 H   0  0  0  0  0  0  0  0  0  0  0  0
  5  6  2  0  0  0  0
  5  7  1  0  0  0  0
  2  3  1  0  0  0  0
  2  4  1  0  0  0  0
  2  5  1  0  0  0  0
  1  2  1  0  0  0  0
 25 26  2  0  0  0  0
 25 27  1  0  0  0  0
 23 24  1  0  0  0  0
 21 22  1  0  0  0  0
 21 23  2  0  0  0  0
 19 20  1  0  0  0  0
 19 21  1  0  0  0  0
 17 18  1  0  0  0  0
 17 19  2  0  0  0  0
 15 16  1  0  0  0  0
 15 17  1  0  0  0  0
 14 15  2  0  0  0  0
 14 23  1  0  0  0  0
 11 12  1  0  0  0  0
 11 13  1  0  0  0  0
 11 14  1  0  0  0  0
  9 10  1  0  0  0  0
  9 11  1  0  0  0  0
  9 25  1  0  0  0  0
  7  8  1  0  0  0  0
  7  9  1  0  0  0  0
 29 30  1  0  0  0  0
 29 31  1  0  0  0  0
 29 32  1  0  0  0  0
 27 28  1  0  0  0  0
 27 29  1  0  0  0  0
M  END
$$$$
default_name
  -OEChem-02102213163D

 32 32  0     1  0  0  0  0  0999 V2000
   -3.8405   -3.7518    1.6252 H   0  0  0  0  0  0  0  0  0  0  0  0
   -3.7965   -2.8768    0.9782 C   0  0  0  0  0  0  0  0  0  0  0  0
   -4.5465   -2.1527    1.2902 H   0  0  0  0  0  0  0  0  0  0  0  0
   -3.9745   -3.1748   -0.0538 H   0  0  0  0  0  0  0  0  0  0  0  0
   -2.4245   -2.2537    1.0882 C   0  0  0  0  0  0  0  0  0  0  0  0
   -1.5805   -2.7478    1.8242 O   0  0  0  0  0  0  0  0  0  0  0  0
   -2.2045   -1.1637    0.3562 N   0  0  0  0  0  0  0  0  0  0  0  0
   -2.9595   -0.7907   -0.2008 H   0  0  0  0  0  0  0  0  0  0  0  0
   -0.9485   -0.4087    0.3482 C   0  0  1  0  0  0  0  0  0  0  0  0
   -0.1408   -1.0795    0.0507 H   0  0  0  0  0  0  0  0  0  0  0  0
   -1.0432    0.7243   -0.6879 C   0  0  0  0  0  0  0  0  0  0  0  0
   -2.0288    0.6972   -1.1548 H   0  0  0  0  0  0  0  0  0  0  0  0
   -0.9504    1.6822   -0.1741 H   0  0  0  0  0  0  0  0  0  0  0  0
   -0.0003    0.6424   -1.7864 C   0  0  0  0  0  0  0  0  0  0  0  0
    0.9192    1.6913   -1.9765 C   0  0  0  0  0  0  0  0  0  0  0  0
    0.8726    2.5735   -1.3538 H   0  0  0  0  0  0  0  0  0  0  0  0
    1.9099    1.5899   -2.9706 C   0  0  0  0  0  0  0  0  0  0  0  0
    2.6134    2.3976   -3.1166 H   0  0  0  0  0  0  0  0  0  0  0  0
    1.9842    0.4398   -3.7745 C   0  0  0  0  0  0  0  0  0  0  0  0
    2.7438    0.3630   -4.5398 H   0  0  0  0  0  0  0  0  0  0  0  0
    1.0659   -0.6095   -3.5882 C   0  0  0  0  0  0  0  0  0  0  0  0
    1.1194   -1.4913   -4.2097 H   0  0  0  0  0  0  0  0  0  0  0  0
    0.0739   -0.5065   -2.5968 C   0  0  0  0  0  0  0  0  0  0  0  0
   -0.6341   -1.3130   -2.4567 H   0  0  0  0  0  0  0  0  0  0  0  0
   -0.6196    0.1253    1.7539 C   0  0  0  0  0  0  0  0  0  0  0  0
    0.5216    0.0194    2.2054 O   0  0  0  0  0  0  0  0  0  0  0  0
   -1.6152    0.6924    2.4469 N   0  0  0  0  0  0  0  0  0  0  0  0
   -2.5345    0.6914    2.0318 H   0  0  0  0  0  0  0  0  0  0  0  0
   -1.4720    1.2390    3.7941 C   0  0  0  0  0  0  0  0  0  0  0  0
   -0.6345    1.9391    3.8219 H   0  0  0  0  0  0  0  0  0  0  0  0
   -2.3844    1.7580    4.0892 H   0  0  0  0  0  0  0  0  0  0  0  0
   -1.2733    0.4298    4.4995 H   0  0  0  0  0  0  0  0  0  0  0  0
  5  6  2  0  0  0  0
  5  7  1  0  0  0  0
  2  3  1  0  0  0  0
  2  4  1  0  0  0  0
  2  5  1  0  0  0  0
  1  2  1  0  0  0  0
 25 26  2  0  0  0  0
 25 27  1  0  0  0  0
 23 24  1  0  0  0  0
 21 22  1  0  0  0  0
 21 23  2  0  0  0  0
 19 20  1  0  0  0  0
 19 21  1  0  0  0  0
 17 18  1  0  0  0  0
 17 19  2  0  0  0  0
 15 16  1  0  0  0  0
 15 17  1  0  0  0  0
 14 15  2  0  0  0  0
 14 23  1  0  0  0  0
 11 12  1  0  0  0  0
 11 13  1  0  0  0  0
 11 14  1  0  0  0  0
  9 10  1  0  0  0  0
  9 11  1  0  0  0  0
  9 25  1  0  0  0  0
  7  8  1  0  0  0  0
  7  9  1  0  0  0  0
 29 30  1  0  0  0  0
 29 31  1  0  0  0  0
 29 32  1  0  0  0  0
 27 28  1  0  0  0  0
 27 29  1  0  0  0  0
M  END
$$$$
default_name
  -OEChem-02102213163D

 32 32  0     1  0  0  0  0  0999 V2000
   -3.8405   -3.7518    1.6252 H   0  0  0  0  0  0  0  0  0  0  0  0
   -3.7965   -2.8768    0.9782 C   0  0  0  0  0  0  0  0  0  0  0  0
   -4.5465   -2.1527    1.2902 H   0  0  0  0  0  0  0  0  0  0  0  0
   -3.9745   -3.1748   -0.0538 H   0  0  0  0  0  0  0  0  0  0  0  0
   -2.4245   -2.2537    1.0882 C   0  0  0  0  0  0  0  0  0  0  0  0
   -1.5805   -2.7478    1.8242 O   0  0  0  0  0  0  0  0  0  0  0  0
   -2.2045   -1.1637    0.3562 N   0  0  0  0  0  0  0  0  0  0  0  0
   -2.9595   -0.7907   -0.2008 H   0  0  0  0  0  0  0  0  0  0  0  0
   -0.9485   -0.4087    0.3482 C   0  0  1  0  0  0  0  0  0  0  0  0
   -0.1408   -1.0795    0.0507 H   0  0  0  0  0  0  0  0  0  0  0  0
   -1.0432    0.7243   -0.6879 C   0  0  0  0  0  0  0  0  0  0  0  0
   -2.0288    0.6972   -1.1548 H   0  0  0  0  0  0  0  0  0  0  0  0
   -0.9504    1.6822   -0.1741 H   0  0  0  0  0  0  0  0  0  0  0  0
   -0.0003    0.6424   -1.7864 C   0  0  0  0  0  0  0  0  0  0  0  0
    1.1038    1.5157   -1.7882 C   0  0  0  0  0  0  0  0  0  0  0  0
    1.2031    2.2668   -1.0172 H   0  0  0  0  0  0  0  0  0  0  0  0
    2.0886    1.4064   -2.7873 C   0  0  0  0  0  0  0  0  0  0  0  0
    2.9343    2.0797   -2.7882 H   0  0  0  0  0  0  0  0  0  0  0  0
    1.9723    0.4233   -3.7846 C   0  0  0  0  0  0  0  0  0  0  0  0
    2.7277    0.3410   -4.5535 H   0  0  0  0  0  0  0  0  0  0  0  0
    0.8694   -0.4500   -3.7866 C   0  0  0  0  0  0  0  0  0  0  0  0
    0.7771   -1.2021   -4.5563 H   0  0  0  0  0  0  0  0  0  0  0  0
   -0.1162   -0.3384   -2.7899 C   0  0  0  0  0  0  0  0  0  0  0  0
   -0.9659   -1.0086   -2.7945 H   0  0  0  0  0  0  0  0  0  0  0  0
   -0.6196    0.1253    1.7539 C   0  0  0  0  0  0  0  0  0  0  0  0
    0.5216    0.0194    2.2054 O   0  0  0  0  0  0  0  0  0  0  0  0
   -1.6152    0.6924    2.4469 N   0  0  0  0  0  0  0  0  0  0  0  0
   -2.5345    0.6914    2.0318 H   0  0  0  0  0  0  0  0  0  0  0  0
   -1.4720    1.2390    3.7941 C   0  0  0  0  0  0  0  0  0  0  0  0
   -0.6345    1.9391    3.8219 H   0  0  0  0  0  0  0  0  0  0  0  0
   -2.3844    1.7580    4.0892 H   0  0  0  0  0  0  0  0  0  0  0  0
   -1.2733    0.4298    4.4995 H   0  0  0  0  0  0  0  0  0  0  0  0
  5  6  2  0  0  0  0
  5  7  1  0  0  0  0
  2  3  1  0  0  0  0
  2  4  1  0  0  0  0
  2  5  1  0  0  0  0
  1  2  1  0  0  0  0
 25 26  2  0  0  0  0
 25 27  1  0  0  0  0
 23 24  1  0  0  0  0
 21 22  1  0  0  0  0
 21 23  2  0  0  0  0
 19 20  1  0  0  0  0
 19 21  1  0  0  0  0
 17 18  1  0  0  0  0
 17 19  2  0  0  0  0
 15 16  1  0  0  0  0
 15 17  1  0  0  0  0
 14 15  2  0  0  0  0
 14 23  1  0  0  0  0
 11 12  1  0  0  0  0
 11 13  1  0  0  0  0
 11 14  1  0  0  0  0
  9 10  1  0  0  0  0
  9 11  1  0  0  0  0
  9 25  1  0  0  0  0
  7  8  1  0  0  0  0
  7  9  1  0  0  0  0
 29 30  1  0  0  0  0
 29 31  1  0  0  0  0
 29 32  1  0  0  0  0
 27 28  1  0  0  0  0
 27 29  1  0  0  0  0
M  END
$$$$
default_name
  -OEChem-02102213163D

 32 32  0     1  0  0  0  0  0999 V2000
   -3.8405   -3.7518    1.6252 H   0  0  0  0  0  0  0  0  0  0  0  0
   -3.7965   -2.8768    0.9782 C   0  0  0  0  0  0  0  0  0  0  0  0
   -4.5465   -2.1527    1.2902 H   0  0  0  0  0  0  0  0  0  0  0  0
   -3.9745   -3.1748   -0.0538 H   0  0  0  0  0  0  0  0  0  0  0  0
   -2.4245   -2.2537    1.0882 C   0  0  0  0  0  0  0  0  0  0  0  0
   -1.5805   -2.7478    1.8242 O   0  0  0  0  0  0  0  0  0  0  0  0
   -2.2045   -1.1637    0.3562 N   0  0  0  0  0  0  0  0  0  0  0  0
   -2.9595   -0.7907   -0.2008 H   0  0  0  0  0  0  0  0  0  0  0  0
   -0.9485   -0.4087    0.3482 C   0  0  1  0  0  0  0  0  0  0  0  0
   -0.1408   -1.0795    0.0507 H   0  0  0  0  0  0  0  0  0  0  0  0
   -1.0432    0.7243   -0.6879 C   0  0  0  0  0  0  0  0  0  0  0  0
   -2.0288    0.6972   -1.1548 H   0  0  0  0  0  0  0  0  0  0  0  0
   -0.9504    1.6822   -0.1741 H   0  0  0  0  0  0  0  0  0  0  0  0
   -0.0003    0.6424   -1.7864 C   0  0  0  0  0  0  0  0  0  0  0  0
    1.2466    1.2780   -1.6349 C   0  0  0  0  0  0  0  0  0  0  0  0
    1.4600    1.8487   -0.7420 H   0  0  0  0  0  0  0  0  0  0  0  0
    2.2243    1.1631   -2.6403 C   0  0  0  0  0  0  0  0  0  0  0  0
    3.1801    1.6541   -2.5231 H   0  0  0  0  0  0  0  0  0  0  0  0
    1.9579    0.4115   -3.7973 C   0  0  0  0  0  0  0  0  0  0  0  0
    2.7082    0.3252   -4.5708 H   0  0  0  0  0  0  0  0  0  0  0  0
    0.7123   -0.2237   -3.9526 C   0  0  0  0  0  0  0  0  0  0  0  0
    0.5054   -0.7970   -4.8444 H   0  0  0  0  0  0  0  0  0  0  0  0
   -0.2657   -0.1059   -2.9491 C   0  0  0  0  0  0  0  0  0  0  0  0
   -1.2248   -0.5923   -3.0713 H   0  0  0  0  0  0  0  0  0  0  0  0
   -0.6196    0.1253    1.7539 C   0  0  0  0  0  0  0  0  0  0  0  0
    0.5216    0.0194    2.2054 O   0  0  0  0  0  0  0  0  0  0  0  0
   -1.6152    0.6924    2.4469 N   0  0  0  0  0  0  0  0  0  0  0  0
   -2.5345    0.6914    2.0318 H   0  0  0  0  0  0  0  0  0  0  0  0
   -1.4720    1.2390    3.7941 C   0  0  0  0  0  0  0  0  0  0  0  0
   -0.6345    1.9391    3.8219 H   0  0  0  0  0  0  0  0  0  0  0  0
   -2.3844    1.7580    4.0892 H   0  0  0  0  0  0  0  0  0  0  0  0
   -1.2733    0.4298    4.4995 H   0  0  0  0  0  0  0  0  0  0  0  0
  5  6  2  0  0  0  0
  5  7  1  0  0  0  0
  2  3  1  0  0  0  0
  2  4  1  0  0  0  0
  2  5  1  0  0  0  0
  1  2  1  0  0  0  0
 25 26  2  0  0  0  0
 25 27  1  0  0  0  0
 23 24  1  0  0  0  0
 21 22  1  0  0  0  0
 21 23  2  0  0  0  0
 19 20  1  0  0  0  0
 19 21  1  0  0  0  0
 17 18  1  0  0  0  0
 17 19  2  0  0  0  0
 15 16  1  0  0  0  0
 15 17  1  0  0  0  0
 14 15  2  0  0  0  0
 14 23  1  0  0  0  0
 11 12  1  0  0  0  0
 11 13  1  0  0  0  0
 11 14  1  0  0  0  0
  9 10  1  0  0  0  0
  9 11  1  0  0  0  0
  9 25  1  0  0  0  0
  7  8  1  0  0  0  0
  7  9  1  0  0  0  0
 29 30  1  0  0  0  0
 29 31  1  0  0  0  0
 29 32  1  0  0  0  0
 27 28  1  0  0  0  0
 27 29  1  0  0  0  0
M  END
$$$$
default_name
  -OEChem-02102213163D

 32 32  0     1  0  0  0  0  0999 V2000
   -3.8405   -3.7518    1.6252 H   0  0  0  0  0  0  0  0  0  0  0  0
   -3.7965   -2.8768    0.9782 C   0  0  0  0  0  0  0  0  0  0  0  0
   -4.5465   -2.1527    1.2902 H   0  0  0  0  0  0  0  0  0  0  0  0
   -3.9745   -3.1748   -0.0538 H   0  0  0  0  0  0  0  0  0  0  0  0
   -2.4245   -2.2537    1.0882 C   0  0  0  0  0  0  0  0  0  0  0  0
   -1.5805   -2.7478    1.8242 O   0  0  0  0  0  0  0  0  0  0  0  0
   -2.2045   -1.1637    0.3562 N   0  0  0  0  0  0  0  0  0  0  0  0
   -2.9595   -0.7907   -0.2008 H   0  0  0  0  0  0  0  0  0  0  0  0
   -0.9485   -0.4087    0.3482 C   0  0  1  0  0  0  0  0  0  0  0  0
   -0.1408   -1.0795    0.0507 H   0  0  0  0  0  0  0  0  0  0  0  0
   -1.0432    0.7243   -0.6879 C   0  0  0  0  0  0  0  0  0  0  0  0
   -2.0288    0.6972   -1.1548 H   0  0  0  0  0  0  0  0  0  0  0  0
   -0.9504    1.6822   -0.1741 H   0  0  0  0  0  0  0  0  0  0  0  0
   -0.0003    0.6424   -1.7864 C   0  0  0  0  0  0  0  0  0  0  0  0
    1.3379    0.9944   -1.5271 C   0  0  0  0  0  0  0  0  0  0  0  0
    1.6260    1.3477   -0.5471 H   0  0  0  0  0  0  0  0  0  0  0  0
    2.3077    0.8764   -2.5398 C   0  0  0  0  0  0  0  0  0  0  0  0
    3.3341    1.1497   -2.3393 H   0  0  0  0  0  0  0  0  0  0  0  0
    1.9419    0.4050   -3.8120 C   0  0  0  0  0  0  0  0  0  0  0  0
    2.6866    0.3166   -4.5907 H   0  0  0  0  0  0  0  0  0  0  0  0
    0.6053    0.0538   -4.0749 C   0  0  0  0  0  0  0  0  0  0  0  0
    0.3230   -0.3034   -5.0544 H   0  0  0  0  0  0  0  0  0  0  0  0
   -0.3643    0.1749   -3.0636 C   0  0  0  0  0  0  0  0  0  0  0  0
   -1.3929   -0.0924   -3.2681 H   0  0  0  0  0  0  0  0  0  0  0  0
   -0.6196    0.1253    1.7539 C   0  0  0  0  0  0  0  0  0  0  0  0
    0.5216    0.0194    2.2054 O   0  0  0  0  0  0  0  0  0  0  0  0
   -1.6152    0.6924    2.4469 N   0  0  0  0  0  0  0  0  0  0  0  0
   -2.5345    0.6914    2.0318 H   0  0  0  0  0  0  0  0  0  0  0  0
   -1.4720    1.2390    3.7941 C   0  0  0  0  0  0  0  0  0  0  0  0
   -0.6345    1.9391    3.8219 H   0  0  0  0  0  0  0  0  0  0  0  0
   -2.3844    1.7580    4.0892 H   0  0  0  0  0  0  0  0  0  0  0  0
   -1.2733    0.4298    4.4995 H   0  0  0  0  0  0  0  0  0  0  0  0
  5  6  2  0  0  0  0
  5  7  1  0  0  0  0
  2  3  1  0  0  0  0
  2  4  1  0  0  0  0
  2  5  1  0  0  0  0
  1  2  1  0  0  0  0
 25 26  2  0  0  0  0
 25 27  1  0  0  0  0
 23 24  1  0  0  0  0
 21 22  1  0  0  0  0
 21 23  2  0  0  0  0
 19 20  1  0  0  0  0
 19 21  1  0  0  0  0
 17 18  1  0  0  0  0
 17 19  2  0  0  0  0
 15 16  1  0  0  0  0
 15 17  1  0  0  0  0
 14 15  2  0  0  0  0
 14 23  1  0  0  0  0
 11 12  1  0  0  0  0
 11 13  1  0  0  0  0
 11 14  1  0  0  0  0
  9 10  1  0  0  0  0
  9 11  1  0  0  0  0
  9 25  1  0  0  0  0
  7  8  1  0  0  0  0
  7  9  1  0  0  0  0
 29 30  1  0  0  0  0
 29 31  1  0  0  0  0
 29 32  1  0  0  0  0
 27 28  1  0  0  0  0
 27 29  1  0  0  0  0
M  END
$$$$
default_name
  -OEChem-02102213163D

 32 32  0     1  0  0  0  0  0999 V2000
   -3.8405   -3.7518    1.6252 H   0  0  0  0  0  0  0  0  0  0  0  0
   -3.7965   -2.8768    0.9782 C   0  0  0  0  0  0  0  0  0  0  0  0
   -4.5465   -2.1527    1.2902 H   0  0  0  0  0  0  0  0  0  0  0  0
   -3.9745   -3.1748   -0.0538 H   0  0  0  0  0  0  0  0  0  0  0  0
   -2.4245   -2.2537    1.0882 C   0  0  0  0  0  0  0  0  0  0  0  0
   -1.5805   -2.7478    1.8242 O   0  0  0  0  0  0  0  0  0  0  0  0
   -2.2045   -1.1637    0.3562 N   0  0  0  0  0  0  0  0  0  0  0  0
   -2.9595   -0.7907   -0.2008 H   0  0  0  0  0  0  0  0  0  0  0  0
   -0.9485   -0.4087    0.3482 C   0  0  1  0  0  0  0  0  0  0  0  0
   -0.1408   -1.0795    0.0507 H   0  0  0  0  0  0  0  0  0  0  0  0
   -1.0432    0.7243   -0.6879 C   0  0  0  0  0  0  0  0  0  0  0  0
   -2.0288    0.6972   -1.1548 H   0  0  0  0  0  0  0  0  0  0  0  0
   -0.9504    1.6822   -0.1741 H   0  0  0  0  0  0  0  0  0  0  0  0
   -0.0003    0.6424   -1.7864 C   0  0  0  0  0  0  0  0  0  0  0  0
    1.3713    0.6841   -1.4722 C   0  0  0  0  0  0  0  0  0  0  0  0
    1.6898    0.7980   -0.4456 H   0  0  0  0  0  0  0  0  0  0  0  0
    2.3331    0.5660   -2.4925 C   0  0  0  0  0  0  0  0  0  0  0  0
    3.3858    0.6009   -2.2493 H   0  0  0  0  0  0  0  0  0  0  0  0
    1.9255    0.4043   -3.8275 C   0  0  0  0  0  0  0  0  0  0  0  0
    2.6644    0.3160   -4.6117 H   0  0  0  0  0  0  0  0  0  0  0  0
    0.5557    0.3637   -4.1451 C   0  0  0  0  0  0  0  0  0  0  0  0
    0.2422    0.2448   -5.1719 H   0  0  0  0  0  0  0  0  0  0  0  0
   -0.4052    0.4850   -3.1257 C   0  0  0  0  0  0  0  0  0  0  0  0
   -1.4588    0.4570   -3.3717 H   0  0  0  0  0  0  0  0  0  0  0  0
   -0.6196    0.1253    1.7539 C   0  0  0  0  0  0  0  0  0  0  0  0
    0.5216    0.0194    2.2054 O   0  0  0  0  0  0  0  0  0  0  0  0
   -1.6152    0.6924    2.4469 N   0  0  0  0  0  0  0  0  0  0  0  0
   -2.5345    0.6914    2.0318 H   0  0  0  0  0  0  0  0  0  0  0  0
   -1.4720    1.2390    3.7941 C   0  0  0  0  0  0  0  0  0  0  0  0
   -0.6345    1.9391    3.8219 H   0  0  0  0  0  0  0  0  0  0  0  0
   -2.3844    1.7580    4.0892 H   0  0  0  0  0  0  0  0  0  0  0  0
   -1.2733    0.4298    4.4995 H   0  0  0  0  0  0  0  0  0  0  0  0
  5  6  2  0  0  0  0
  5  7  1  0  0  0  0
  2  3  1  0  0  0  0
  2  4  1  0  0  0  0
  2  5  1  0  0  0  0
  1  2  1  0  0  0  0
 25 26  2  0  0  0  0
 25 27  1  0  0  0  0
 23 24  1  0  0  0  0
 21 22  1  0  0  0  0
 21 23  2  0  0  0  0
 19 20  1  0  0  0  0
 19 21  1  0  0  0  0
 17 18  1  0  0  0  0
 17 19  2  0  0  0  0
 15 16  1  0  0  0  0
 15 17  1  0  0  0  0
 14 15  2  0  0  0  0
 14 23  1  0  0  0  0
 11 12  1  0  0  0  0
 11 13  1  0  0  0  0
 11 14  1  0  0  0  0
  9 10  1  0  0  0  0
  9 11  1  0  0  0  0
  9 25  1  0  0  0  0
  7  8  1  0  0  0  0
  7  9  1  0  0  0  0
 29 30  1  0  0  0  0
 29 31  1  0  0  0  0
 29 32  1  0  0  0  0
 27 28  1  0  0  0  0
 27 29  1  0  0  0  0
M  END
$$$$
default_name
  -OEChem-02102213163D

 32 32  0     1  0  0  0  0  0999 V2000
   -3.8405   -3.7518    1.6252 H   0  0  0  0  0  0  0  0  0  0  0  0
   -3.7965   -2.8768    0.9782 C   0  0  0  0  0  0  0  0  0  0  0  0
   -4.5465   -2.1527    1.2902 H   0  0  0  0  0  0  0  0  0  0  0  0
   -3.9745   -3.1748   -0.0538 H   0  0  0  0  0  0  0  0  0  0  0  0
   -2.4245   -2.2537    1.0882 C   0  0  0  0  0  0  0  0  0  0  0  0
   -1.5805   -2.7478    1.8242 O   0  0  0  0  0  0  0  0  0  0  0  0
   -2.2045   -1.1637    0.3562 N   0  0  0  0  0  0  0  0  0  0  0  0
   -2.9595   -0.7907   -0.2008 H   0  0  0  0  0  0  0  0  0  0  0  0
   -0.9485   -0.4087    0.3482 C   0  0  1  0  0  0  0  0  0  0  0  0
   -0.1408   -1.0795    0.0507 H   0  0  0  0  0  0  0  0  0  0  0  0
   -1.0432    0.7243   -0.6879 C   0  0  0  0  0  0  0  0  0  0  0  0
   -2.0288    0.6972   -1.1548 H   0  0  0  0  0  0  0  0  0  0  0  0
   -0.9504    1.6822   -0.1741 H   0  0  0  0  0  0  0  0  0  0  0  0
   -0.0003    0.6424   -1.7864 C   0  0  0  0  0  0  0  0  0  0  0  0
    1.3447    0.3684   -1.4739 C   0  0  0  0  0  0  0  0  0  0  0  0
    1.6469    0.2370   -0.4445 H   0  0  0  0  0  0  0  0  0  0  0  0
    2.2988    0.2531   -2.5017 C   0  0  0  0  0  0  0  0  0  0  0  0
    3.3315    0.0452   -2.2594 H   0  0  0  0  0  0  0  0  0  0  0  0
    1.9098    0.4095   -3.8429 C   0  0  0  0  0  0  0  0  0  0  0  0
    2.6432    0.3232   -4.6324 H   0  0  0  0  0  0  0  0  0  0  0  0
    0.5668    0.6849   -4.1585 C   0  0  0  0  0  0  0  0  0  0  0  0
    0.2686    0.8105   -5.1891 H   0  0  0  0  0  0  0  0  0  0  0  0
   -0.3858    0.8033   -3.1309 C   0  0  0  0  0  0  0  0  0  0  0  0
   -1.4180    1.0185   -3.3749 H   0  0  0  0  0  0  0  0  0  0  0  0
   -0.6196    0.1253    1.7539 C   0  0  0  0  0  0  0  0  0  0  0  0
    0.5216    0.0194    2.2054 O   0  0  0  0  0  0  0  0  0  0  0  0
   -1.6152    0.6924    2.4469 N   0  0  0  0  0  0  0  0  0  0  0  0
   -2.5345    0.6914    2.0318 H   0  0  0  0  0  0  0  0  0  0  0  0
   -1.4720    1.2390    3.7941 C   0  0  0  0  0  0  0  0  0  0  0  0
   -0.6345    1.9391    3.8219 H   0  0  0  0  0  0  0  0  0  0  0  0
   -2.3844    1.7580    4.0892 H   0  0  0  0  0  0  0  0  0  0  0  0
   -1.2733    0.4298    4.4995 H   0  0  0  0  0  0  0  0  0  0  0  0
  5  6  2  0  0  0  0
  5  7  1  0  0  0  0
  2  3  1  0  0  0  0
  2  4  1  0  0  0  0
  2  5  1  0  0  0  0
  1  2  1  0  0  0  0
 25 26  2  0  0  0  0
 25 27  1  0  0  0  0
 23 24  1  0  0  0  0
 21 22  1  0  0  0  0
 21 23  2  0  0  0  0
 19 20  1  0  0  0  0
 19 21  1  0  0  0  0
 17 18  1  0  0  0  0
 17 19  2  0  0  0  0
 15 16  1  0  0  0  0
 15 17  1  0  0  0  0
 14 15  2  0  0  0  0
 14 23  1  0  0  0  0
 11 12  1  0  0  0  0
 11 13  1  0  0  0  0
 11 14  1  0  0  0  0
  9 10  1  0  0  0  0
  9 11  1  0  0  0  0
  9 25  1  0  0  0  0
  7  8  1  0  0  0  0
  7  9  1  0  0  0  0
 29 30  1  0  0  0  0
 29 31  1  0  0  0  0
 29 32  1  0  0  0  0
 27 28  1  0  0  0  0
 27 29  1  0  0  0  0
M  END
$$$$
default_name
  -OEChem-02102213163D

 32 32  0     1  0  0  0  0  0999 V2000
   -3.8405   -3.7518    1.6252 H   0  0  0  0  0  0  0  0  0  0  0  0
   -3.7965   -2.8768    0.9782 C   0  0  0  0  0  0  0  0  0  0  0  0
   -4.5465   -2.1527    1.2902 H   0  0  0  0  0  0  0  0  0  0  0  0
   -3.9745   -3.1748   -0.0538 H   0  0  0  0  0  0  0  0  0  0  0  0
   -2.4245   -2.2537    1.0882 C   0  0  0  0  0  0  0  0  0  0  0  0
   -1.5805   -2.7478    1.8242 O   0  0  0  0  0  0  0  0  0  0  0  0
   -2.2045   -1.1637    0.3562 N   0  0  0  0  0  0  0  0  0  0  0  0
   -2.9595   -0.7907   -0.2008 H   0  0  0  0  0  0  0  0  0  0  0  0
   -0.9485   -0.4087    0.3482 C   0  0  1  0  0  0  0  0  0  0  0  0
   -0.1408   -1.0795    0.0507 H   0  0  0  0  0  0  0  0  0  0  0  0
   -1.0432    0.7243   -0.6879 C   0  0  0  0  0  0  0  0  0  0  0  0
   -2.0288    0.6972   -1.1548 H   0  0  0  0  0  0  0  0  0  0  0  0
   -0.9504    1.6822   -0.1741 H   0  0  0  0  0  0  0  0  0  0  0  0
   -0.0003    0.6424   -1.7864 C   0  0  0  0  0  0  0  0  0  0  0  0
    1.2599    0.0687   -1.5321 C   0  0  0  0  0  0  0  0  0  0  0  0
    1.5003   -0.2971   -0.5438 H   0  0  0  0  0  0  0  0  0  0  0  0
    2.2071   -0.0412   -2.5668 C   0  0  0  0  0  0  0  0  0  0  0  0
    3.1751   -0.4797   -2.3688 H   0  0  0  0  0  0  0  0  0  0  0  0
    1.8957    0.4202   -3.8570 C   0  0  0  0  0  0  0  0  0  0  0  0
    2.6244    0.3379   -4.6514 H   0  0  0  0  0  0  0  0  0  0  0  0
    0.6379    0.9953   -4.1142 C   0  0  0  0  0  0  0  0  0  0  0  0
    0.4004    1.3550   -5.1046 H   0  0  0  0  0  0  0  0  0  0  0  0
   -0.3073    1.1080   -3.0792 C   0  0  0  0  0  0  0  0  0  0  0  0
   -1.2734    1.5538   -3.2775 H   0  0  0  0  0  0  0  0  0  0  0  0
   -0.6196    0.1253    1.7539 C   0  0  0  0  0  0  0  0  0  0  0  0
    0.5216    0.0194    2.2054 O   0  0  0  0  0  0  0  0  0  0  0  0
   -1.6152    0.6924    2.4469 N   0  0  0  0  0  0  0  0  0  0  0  0
   -2.5345    0.6914    2.0318 H   0  0  0  0  0  0  0  0  0  0  0  0
   -1.4720    1.2390    3.7941 C   0  0  0  0  0  0  0  0  0  0  0  0
   -0.6345    1.9391    3.8219 H   0  0  0  0  0  0  0  0  0  0  0  0
   -2.3844    1.7580    4.0892 H   0  0  0  0  0  0  0  0  0  0  0  0
   -1.2733    0.4298    4.4995 H   0  0  0  0  0  0  0  0  0  0  0  0
  5  6  2  0  0  0  0
  5  7  1  0  0  0  0
  2  3  1  0  0  0  0
  2  4  1  0  0  0  0
  2  5  1  0  0  0  0
  1  2  1  0  0  0  0
 25 26  2  0  0  0  0
 25 27  1  0  0  0  0
 23 24  1  0  0  0  0
 21 22  1  0  0  0  0
 21 23  2  0  0  0  0
 19 20  1  0  0  0  0
 19 21  1  0  0  0  0
 17 18  1  0  0  0  0
 17 19  2  0  0  0  0
 15 16  1  0  0  0  0
 15 17  1  0  0  0  0
 14 15  2  0  0  0  0
 14 23  1  0  0  0  0
 11 12  1  0  0  0  0
 11 13  1  0  0  0  0
 11 14  1  0  0  0  0
  9 10  1  0  0  0  0
  9 11  1  0  0  0  0
  9 25  1  0  0  0  0
  7  8  1  0  0  0  0
  7  9  1  0  0  0  0
 29 30  1  0  0  0  0
 29 31  1  0  0  0  0
 29 32  1  0  0  0  0
 27 28  1  0  0  0  0
 27 29  1  0  0  0  0
M  END
$$$$
default_name
  -OEChem-02102213163D

 32 32  0     1  0  0  0  0  0999 V2000
   -3.8405   -3.7518    1.6252 H   0  0  0  0  0  0  0  0  0  0  0  0
   -3.7965   -2.8768    0.9782 C   0  0  0  0  0  0  0  0  0  0  0  0
   -4.5465   -2.1527    1.2902 H   0  0  0  0  0  0  0  0  0  0  0  0
   -3.9745   -3.1748   -0.0538 H   0  0  0  0  0  0  0  0  0  0  0  0
   -2.4245   -2.2537    1.0882 C   0  0  0  0  0  0  0  0  0  0  0  0
   -1.5805   -2.7478    1.8242 O   0  0  0  0  0  0  0  0  0  0  0  0
   -2.2045   -1.1637    0.3562 N   0  0  0  0  0  0  0  0  0  0  0  0
   -2.9595   -0.7907   -0.2008 H   0  0  0  0  0  0  0  0  0  0  0  0
   -0.9485   -0.4087    0.3482 C   0  0  1  0  0  0  0  0  0  0  0  0
   -0.1408   -1.0795    0.0507 H   0  0  0  0  0  0  0  0  0  0  0  0
   -1.0432    0.7243   -0.6879 C   0  0  0  0  0  0  0  0  0  0  0  0
   -2.0288    0.6972   -1.1548 H   0  0  0  0  0  0  0  0  0  0  0  0
   -0.9504    1.6822   -0.1741 H   0  0  0  0  0  0  0  0  0  0  0  0
   -0.0003    0.6424   -1.7864 C   0  0  0  0  0  0  0  0  0  0  0  0
    1.1226   -0.1945   -1.6428 C   0  0  0  0  0  0  0  0  0  0  0  0
    1.2600   -0.7678   -0.7369 H   0  0  0  0  0  0  0  0  0  0  0  0
    2.0643   -0.2967   -2.6833 C   0  0  0  0  0  0  0  0  0  0  0  0
    2.9272   -0.9379   -2.5700 H   0  0  0  0  0  0  0  0  0  0  0  0
    1.8843    0.4357   -3.8690 C   0  0  0  0  0  0  0  0  0  0  0  0
    2.6091    0.3590   -4.6674 H   0  0  0  0  0  0  0  0  0  0  0  0
    0.7642    1.2740   -4.0151 C   0  0  0  0  0  0  0  0  0  0  0  0
    0.6285    1.8412   -4.9243 H   0  0  0  0  0  0  0  0  0  0  0  0
   -0.1751    1.3785   -2.9738 C   0  0  0  0  0  0  0  0  0  0  0  0
   -1.0347    2.0264   -3.0861 H   0  0  0  0  0  0  0  0  0  0  0  0
   -0.6196    0.1253    1.7539 C   0  0  0  0  0  0  0  0  0  0  0  0
    0.5216    0.0194    2.2054 O   0  0  0  0  0  0  0  0  0  0  0  0
   -1.6152    0.6924    2.4469 N   0  0  0  0  0  0  0  0  0  0  0  0
   -2.5345    0.6914    2.0318 H   0  0  0  0  0  0  0  0  0  0  0  0
   -1.4720    1.2390    3.7941 C   0  0  0  0  0  0  0  0  0  0  0  0
   -0.6345    1.9391    3.8219 H   0  0  0  0  0  0  0  0  0  0  0  0
   -2.3844    1.7580    4.0892 H   0  0  0  0  0  0  0  0  0  0  0  0
   -1.2733    0.4298    4.4995 H   0  0  0  0  0  0  0  0  0  0  0  0
  5  6  2  0  0  0  0
  5  7  1  0  0  0  0
  2  3  1  0  0  0  0
  2  4  1  0  0  0  0
  2  5  1  0  0  0  0
  1  2  1  0  0  0  0
 25 26  2  0  0  0  0
 25 27  1  0  0  0  0
 23 24  1  0  0  0  0
 21 22  1  0  0  0  0
 21 23  2  0  0  0  0
 19 20  1  0  0  0  0
 19 21  1  0  0  0  0
 17 18  1  0  0  0  0
 17 19  2  0  0  0  0
 15 16  1  0  0  0  0
 15 17  1  0  0  0  0
 14 15  2  0  0  0  0
 14 23  1  0  0  0  0
 11 12  1  0  0  0  0
 11 13  1  0  0  0  0
 11 14  1  0  0  0  0
  9 10  1  0  0  0  0
  9 11  1  0  0  0  0
  9 25  1  0  0  0  0
  7  8  1  0  0  0  0
  7  9  1  0  0  0  0
 29 30  1  0  0  0  0
 29 31  1  0  0  0  0
 29 32  1  0  0  0  0
 27 28  1  0  0  0  0
 27 29  1  0  0  0  0
M  END
$$$$
default_name
  -OEChem-02102213163D

 32 32  0     1  0  0  0  0  0999 V2000
   -3.8405   -3.7518    1.6252 H   0  0  0  0  0  0  0  0  0  0  0  0
   -3.7965   -2.8768    0.9782 C   0  0  0  0  0  0  0  0  0  0  0  0
   -4.5465   -2.1527    1.2902 H   0  0  0  0  0  0  0  0  0  0  0  0
   -3.9745   -3.1748   -0.0538 H   0  0  0  0  0  0  0  0  0  0  0  0
   -2.4245   -2.2537    1.0882 C   0  0  0  0  0  0  0  0  0  0  0  0
   -1.5805   -2.7478    1.8242 O   0  0  0  0  0  0  0  0  0  0  0  0
   -2.2045   -1.1637    0.3562 N   0  0  0  0  0  0  0  0  0  0  0  0
   -2.9595   -0.7907   -0.2008 H   0  0  0  0  0  0  0  0  0  0  0  0
   -0.9485   -0.4087    0.3482 C   0  0  1  0  0  0  0  0  0  0  0  0
   -0.1408   -1.0795    0.0507 H   0  0  0  0  0  0  0  0  0  0  0  0
   -1.0432    0.7243   -0.6879 C   0  0  0  0  0  0  0  0  0  0  0  0
   -2.0288    0.6972   -1.1548 H   0  0  0  0  0  0  0  0  0  0  0  0
   -0.9504    1.6822   -0.1741 H   0  0  0  0  0  0  0  0  0  0  0  0
   -0.0003    0.6424   -1.7864 C   0  0  0  0  0  0  0  0  0  0  0  0
    0.9422   -0.4033   -1.7986 C   0  0  0  0  0  0  0  0  0  0  0  0
    0.9423   -1.1430   -1.0104 H   0  0  0  0  0  0  0  0  0  0  0  0
    1.8802   -0.4960   -2.8433 C   0  0  0  0  0  0  0  0  0  0  0  0
    2.6046   -1.2982   -2.8493 H   0  0  0  0  0  0  0  0  0  0  0  0
    1.8764    0.4549   -3.8779 C   0  0  0  0  0  0  0  0  0  0  0  0
    2.5986    0.3850   -4.6793 H   0  0  0  0  0  0  0  0  0  0  0  0
    0.9370    1.5019   -3.8680 C   0  0  0  0  0  0  0  0  0  0  0  0
    0.9375    2.2360   -4.6604 H   0  0  0  0  0  0  0  0  0  0  0  0
    0.0018    1.5961   -2.8221 C   0  0  0  0  0  0  0  0  0  0  0  0
   -0.7183    2.4041   -2.8138 H   0  0  0  0  0  0  0  0  0  0  0  0
   -0.6196    0.1253    1.7539 C   0  0  0  0  0  0  0  0  0  0  0  0
    0.5216    0.0194    2.2054 O   0  0  0  0  0  0  0  0  0  0  0  0
   -1.6152    0.6924    2.4469 N   0  0  0  0  0  0  0  0  0  0  0  0
   -2.5345    0.6914    2.0318 H   0  0  0  0  0  0  0  0  0  0  0  0
   -1.4720    1.2390    3.7941 C   0  0  0  0  0  0  0  0  0  0  0  0
   -0.6345    1.9391    3.8219 H   0  0  0  0  0  0  0  0  0  0  0  0
   -2.3844    1.7580    4.0892 H   0  0  0  0  0  0  0  0  0  0  0  0
   -1.2733    0.4298    4.4995 H   0  0  0  0  0  0  0  0  0  0  0  0
  5  6  2  0  0  0  0
  5  7  1  0  0  0  0
  2  3  1  0  0  0  0
  2  4  1  0  0  0  0
  2  5  1  0  0  0  0
  1  2  1  0  0  0  0
 25 26  2  0  0  0  0
 25 27  1  0  0  0  0
 23 24  1  0  0  0  0
 21 22  1  0  0  0  0
 21 23  2  0  0  0  0
 19 20  1  0  0  0  0
 19 21  1  0  0  0  0
 17 18  1  0  0  0  0
 17 19  2  0  0  0  0
 15 16  1  0  0  0  0
 15 17  1  0  0  0  0
 14 15  2  0  0  0  0
 14 23  1  0  0  0  0
 11 12  1  0  0  0  0
 11 13  1  0  0  0  0
 11 14  1  0  0  0  0
  9 10  1  0  0  0  0
  9 11  1  0  0  0  0
  9 25  1  0  0  0  0
  7  8  1  0  0  0  0
  7  9  1  0  0  0  0
 29 30  1  0  0  0  0
 29 31  1  0  0  0  0
 29 32  1  0  0  0  0
 27 28  1  0  0  0  0
 27 29  1  0  0  0  0
M  END
$$$$
default_name
  -OEChem-02102213163D

 32 32  0     1  0  0  0  0  0999 V2000
   -3.8405   -3.7518    1.6252 H   0  0  0  0  0  0  0  0  0  0  0  0
   -3.7965   -2.8768    0.9782 C   0  0  0  0  0  0  0  0  0  0  0  0
   -4.5465   -2.1527    1.2902 H   0  0  0  0  0  0  0  0  0  0  0  0
   -3.9745   -3.1748   -0.0538 H   0  0  0  0  0  0  0  0  0  0  0  0
   -2.4245   -2.2537    1.0882 C   0  0  0  0  0  0  0  0  0  0  0  0
   -1.5805   -2.7478    1.8242 O   0  0  0  0  0  0  0  0  0  0  0  0
   -2.2045   -1.1637    0.3562 N   0  0  0  0  0  0  0  0  0  0  0  0
   -2.9595   -0.7907   -0.2008 H   0  0  0  0  0  0  0  0  0  0  0  0
   -0.9485   -0.4087    0.3482 C   0  0  1  0  0  0  0  0  0  0  0  0
   -0.1408   -1.0795    0.0507 H   0  0  0  0  0  0  0  0  0  0  0  0
   -1.0432    0.7243   -0.6879 C   0  0  0  0  0  0  0  0  0  0  0  0
   -2.0288    0.6972   -1.1548 H   0  0  0  0  0  0  0  0  0  0  0  0
   -0.9504    1.6822   -0.1741 H   0  0  0  0  0  0  0  0  0  0  0  0
   -0.0003    0.6424   -1.7864 C   0  0  0  0  0  0  0  0  0  0  0  0
    0.7309   -0.5435   -1.9886 C   0  0  0  0  0  0  0  0  0  0  0  0
    0.5690   -1.3973   -1.3459 H   0  0  0  0  0  0  0  0  0  0  0  0
    1.6672   -0.6255   -3.0358 C   0  0  0  0  0  0  0  0  0  0  0  0
    2.2295   -1.5361   -3.1878 H   0  0  0  0  0  0  0  0  0  0  0  0
    1.8725    0.4765   -3.8833 C   0  0  0  0  0  0  0  0  0  0  0  0
    2.5935    0.4143   -4.6863 H   0  0  0  0  0  0  0  0  0  0  0  0
    1.1446    1.6635   -3.6830 C   0  0  0  0  0  0  0  0  0  0  0  0
    1.3062    2.5125   -4.3309 H   0  0  0  0  0  0  0  0  0  0  0  0
    0.2113    1.7463   -2.6343 C   0  0  0  0  0  0  0  0  0  0  0  0
   -0.3456    2.6611   -2.4792 H   0  0  0  0  0  0  0  0  0  0  0  0
   -0.6196    0.1253    1.7539 C   0  0  0  0  0  0  0  0  0  0  0  0
    0.5216    0.0194    2.2054 O   0  0  0  0  0  0  0  0  0  0  0  0
   -1.6152    0.6924    2.4469 N   0  0  0  0  0  0  0  0  0  0  0  0
   -2.5345    0.6914    2.0318 H   0  0  0  0  0  0  0  0  0  0  0  0
   -1.4720    1.2390    3.7941 C   0  0  0  0  0  0  0  0  0  0  0  0
   -0.6345    1.9391    3.8219 H   0  0  0  0  0  0  0  0  0  0  0  0
   -2.3844    1.7580    4.0892 H   0  0  0  0  0  0  0  0  0  0  0  0
   -1.2733    0.4298    4.4995 H   0  0  0  0  0  0  0  0  0  0  0  0
  5  6  2  0  0  0  0
  5  7  1  0  0  0  0
  2  3  1  0  0  0  0
  2  4  1  0  0  0  0
  2  5  1  0  0  0  0
  1  2  1  0  0  0  0
 25 26  2  0  0  0  0
 25 27  1  0  0  0  0
 23 24  1  0  0  0  0
 21 22  1  0  0  0  0
 21 23  2  0  0  0  0
 19 20  1  0  0  0  0
 19 21  1  0  0  0  0
 17 18  1  0  0  0  0
 17 19  2  0  0  0  0
 15 16  1  0  0  0  0
 15 17  1  0  0  0  0
 14 15  2  0  0  0  0
 14 23  1  0  0  0  0
 11 12  1  0  0  0  0
 11 13  1  0  0  0  0
 11 14  1  0  0  0  0
  9 10  1  0  0  0  0
  9 11  1  0  0  0  0
  9 25  1  0  0  0  0
  7  8  1  0  0  0  0
  7  9  1  0  0  0  0
 29 30  1  0  0  0  0
 29 31  1  0  0  0  0
 29 32  1  0  0  0  0
 27 28  1  0  0  0  0
 27 29  1  0  0  0  0
M  END
$$$$
default_name
  -OEChem-02102213163D

 32 32  0     1  0  0  0  0  0999 V2000
   -3.8405   -3.7518    1.6252 H   0  0  0  0  0  0  0  0  0  0  0  0
   -3.7965   -2.8768    0.9782 C   0  0  0  0  0  0  0  0  0  0  0  0
   -4.5465   -2.1527    1.2902 H   0  0  0  0  0  0  0  0  0  0  0  0
   -3.9745   -3.1748   -0.0538 H   0  0  0  0  0  0  0  0  0  0  0  0
   -2.4245   -2.2537    1.0882 C   0  0  0  0  0  0  0  0  0  0  0  0
   -1.5805   -2.7478    1.8242 O   0  0  0  0  0  0  0  0  0  0  0  0
   -2.2045   -1.1637    0.3562 N   0  0  0  0  0  0  0  0  0  0  0  0
   -2.9595   -0.7907   -0.2008 H   0  0  0  0  0  0  0  0  0  0  0  0
   -0.9485   -0.4087    0.3482 C   0  0  1  0  0  0  0  0  0  0  0  0
   -0.1408   -1.0795    0.0507 H   0  0  0  0  0  0  0  0  0  0  0  0
   -1.0432    0.7243   -0.6879 C   0  0  0  0  0  0  0  0  0  0  0  0
   -2.0288    0.6972   -1.1548 H   0  0  0  0  0  0  0  0  0  0  0  0
   -0.9504    1.6822   -0.1741 H   0  0  0  0  0  0  0  0  0  0  0  0
   -0.0003    0.6424   -1.7864 C   0  0  0  0  0  0  0  0  0  0  0  0
    0.5033   -0.6054   -2.2002 C   0  0  0  0  0  0  0  0  0  0  0  0
    0.1655   -1.5132   -1.7204 H   0  0  0  0  0  0  0  0  0  0  0  0
    1.4398   -0.6764   -3.2479 C   0  0  0  0  0  0  0  0  0  0  0  0
    1.8272   -1.6353   -3.5623 H   0  0  0  0  0  0  0  0  0  0  0  0
    1.8729    0.4991   -3.8846 C   0  0  0  0  0  0  0  0  0  0  0  0
    2.5942    0.4447   -4.6880 H   0  0  0  0  0  0  0  0  0  0  0  0
    1.3728    1.7477   -3.4726 C   0  0  0  0  0  0  0  0  0  0  0  0
    1.7096    2.6518   -3.9583 H   0  0  0  0  0  0  0  0  0  0  0  0
    0.4393    1.8186   -2.4233 C   0  0  0  0  0  0  0  0  0  0  0  0
    0.0578    2.7801   -2.1051 H   0  0  0  0  0  0  0  0  0  0  0  0
   -0.6196    0.1253    1.7539 C   0  0  0  0  0  0  0  0  0  0  0  0
    0.5216    0.0194    2.2054 O   0  0  0  0  0  0  0  0  0  0  0  0
   -1.6152    0.6924    2.4469 N   0  0  0  0  0  0  0  0  0  0  0  0
   -2.5345    0.6914    2.0318 H   0  0  0  0  0  0  0  0  0  0  0  0
   -1.4720    1.2390    3.7941 C   0  0  0  0  0  0  0  0  0  0  0  0
   -0.6345    1.9391    3.8219 H   0  0  0  0  0  0  0  0  0  0  0  0
   -2.3844    1.7580    4.0892 H   0  0  0  0  0  0  0  0  0  0  0  0
   -1.2733    0.4298    4.4995 H   0  0  0  0  0  0  0  0  0  0  0  0
  5  6  2  0  0  0  0
  5  7  1  0  0  0  0
  2  3  1  0  0  0  0
  2  4  1  0  0  0  0
  2  5  1  0  0  0  0
  1  2  1  0  0  0  0
 25 26  2  0  0  0  0
 25 27  1  0  0  0  0
 23 24  1  0  0  0  0
 21 22  1  0  0  0  0
 21 23  2  0  0  0  0
 19 20  1  0  0  0  0
 19 21  1  0  0  0  0
 17 18  1  0  0  0  0
 17 19  2  0  0  0  0
 15 16  1  0  0  0  0
 15 17  1  0  0  0  0
 14 15  2  0  0  0  0
 14 23  1  0  0  0  0
 11 12  1  0  0  0  0
 11 13  1  0  0  0  0
 11 14  1  0  0  0  0
  9 10  1  0  0  0  0
  9 11  1  0  0  0  0
  9 25  1  0  0  0  0
  7  8  1  0  0  0  0
  7  9  1  0  0  0  0
 29 30  1  0  0  0  0
 29 31  1  0  0  0  0
 29 32  1  0  0  0  0
 27 28  1  0  0  0  0
 27 29  1  0  0  0  0
M  END
$$$$
default_name
  -OEChem-02102213163D

 32 32  0     1  0  0  0  0  0999 V2000
   -3.8405   -3.7518    1.6252 H   0  0  0  0  0  0  0  0  0  0  0  0
   -3.7965   -2.8768    0.9782 C   0  0  0  0  0  0  0  0  0  0  0  0
   -4.5465   -2.1527    1.2902 H   0  0  0  0  0  0  0  0  0  0  0  0
   -3.9745   -3.1748   -0.0538 H   0  0  0  0  0  0  0  0  0  0  0  0
   -2.4245   -2.2537    1.0882 C   0  0  0  0  0  0  0  0  0  0  0  0
   -1.5805   -2.7478    1.8242 O   0  0  0  0  0  0  0  0  0  0  0  0
   -2.2045   -1.1637    0.3562 N   0  0  0  0  0  0  0  0  0  0  0  0
   -2.9595   -0.7907   -0.2008 H   0  0  0  0  0  0  0  0  0  0  0  0
   -0.9485   -0.4087    0.3482 C   0  0  1  0  0  0  0  0  0  0  0  0
   -0.1408   -1.0795    0.0507 H   0  0  0  0  0  0  0  0  0  0  0  0
   -1.0432    0.7243   -0.6879 C   0  0  0  0  0  0  0  0  0  0  0  0
   -2.0288    0.6972   -1.1548 H   0  0  0  0  0  0  0  0  0  0  0  0
   -0.9504    1.6822   -0.1741 H   0  0  0  0  0  0  0  0  0  0  0  0
   -0.0003    0.6424   -1.7864 C   0  0  0  0  0  0  0  0  0  0  0  0
    0.2747   -0.5850   -2.4187 C   0  0  0  0  0  0  0  0  0  0  0  0
   -0.2408   -1.4829   -2.1084 H   0  0  0  0  0  0  0  0  0  0  0  0
    1.2137   -0.6452   -3.4649 C   0  0  0  0  0  0  0  0  0  0  0  0
    1.4253   -1.5891   -3.9473 H   0  0  0  0  0  0  0  0  0  0  0  0
    1.8775    0.5211   -3.8819 C   0  0  0  0  0  0  0  0  0  0  0  0
    2.6006    0.4743   -4.6841 H   0  0  0  0  0  0  0  0  0  0  0  0
    1.6060    1.7489   -3.2512 C   0  0  0  0  0  0  0  0  0  0  0  0
    2.1201    2.6445   -3.5680 H   0  0  0  0  0  0  0  0  0  0  0  0
    0.6700    1.8081   -2.2034 C   0  0  0  0  0  0  0  0  0  0  0  0
    0.4646    2.7527   -1.7168 H   0  0  0  0  0  0  0  0  0  0  0  0
   -0.6196    0.1253    1.7539 C   0  0  0  0  0  0  0  0  0  0  0  0
    0.5216    0.0194    2.2054 O   0  0  0  0  0  0  0  0  0  0  0  0
   -1.6152    0.6924    2.4469 N   0  0  0  0  0  0  0  0  0  0  0  0
   -2.5345    0.6914    2.0318 H   0  0  0  0  0  0  0  0  0  0  0  0
   -1.4720    1.2390    3.7941 C   0  0  0  0  0  0  0  0  0  0  0  0
   -0.6345    1.9391    3.8219 H   0  0  0  0  0  0  0  0  0  0  0  0
   -2.3844    1.7580    4.0892 H   0  0  0  0  0  0  0  0  0  0  0  0
   -1.2733    0.4298    4.4995 H   0  0  0  0  0  0  0  0  0  0  0  0
  5  6  2  0  0  0  0
  5  7  1  0  0  0  0
  2  3  1  0  0  0  0
  2  4  1  0  0  0  0
  2  5  1  0  0  0  0
  1  2  1  0  0  0  0
 25 26  2  0  0  0  0
 25 27  1  0  0  0  0
 23 24  1  0  0  0  0
 21 22  1  0  0  0  0
 21 23  2  0  0  0  0
 19 20  1  0  0  0  0
 19 21  1  0  0  0  0
 17 18  1  0  0  0  0
 17 19  2  0  0  0  0
 15 16  1  0  0  0  0
 15 17  1  0  0  0  0
 14 15  2  0  0  0  0
 14 23  1  0  0  0  0
 11 12  1  0  0  0  0
 11 13  1  0  0  0  0
 11 14  1  0  0  0  0
  9 10  1  0  0  0  0
  9 11  1  0  0  0  0
  9 25  1  0  0  0  0
  7  8  1  0  0  0  0
  7  9  1  0  0  0  0
 29 30  1  0  0  0  0
 29 31  1  0  0  0  0
 29 32  1  0  0  0  0
 27 28  1  0  0  0  0
 27 29  1  0  0  0  0
M  END
$$$$
default_name
  -OEChem-02102213163D

 32 32  0     1  0  0  0  0  0999 V2000
   -3.8405   -3.7518    1.6252 H   0  0  0  0  0  0  0  0  0  0  0  0
   -3.7965   -2.8768    0.9782 C   0  0  0  0  0  0  0  0  0  0  0  0
   -4.5465   -2.1527    1.2902 H   0  0  0  0  0  0  0  0  0  0  0  0
   -3.9745   -3.1748   -0.0538 H   0  0  0  0  0  0  0  0  0  0  0  0
   -2.4245   -2.2537    1.0882 C   0  0  0  0  0  0  0  0  0  0  0  0
   -1.5805   -2.7478    1.8242 O   0  0  0  0  0  0  0  0  0  0  0  0
   -2.2045   -1.1637    0.3562 N   0  0  0  0  0  0  0  0  0  0  0  0
   -2.9595   -0.7907   -0.2008 H   0  0  0  0  0  0  0  0  0  0  0  0
   -0.9485   -0.4087    0.3482 C   0  0  1  0  0  0  0  0  0  0  0  0
   -0.1408   -1.0795    0.0507 H   0  0  0  0  0  0  0  0  0  0  0  0
   -1.0432    0.7243   -0.6879 C   0  0  0  0  0  0  0  0  0  0  0  0
   -2.0288    0.6972   -1.1548 H   0  0  0  0  0  0  0  0  0  0  0  0
   -0.9504    1.6822   -0.1741 H   0  0  0  0  0  0  0  0  0  0  0  0
   -0.0003    0.6424   -1.7864 C   0  0  0  0  0  0  0  0  0  0  0  0
    0.0609   -0.4835   -2.6293 C   0  0  0  0  0  0  0  0  0  0  0  0
   -0.6222   -1.3084   -2.4835 H   0  0  0  0  0  0  0  0  0  0  0  0
    1.0041   -0.5341   -3.6722 C   0  0  0  0  0  0  0  0  0  0  0  0
    1.0511   -1.4007   -4.3166 H   0  0  0  0  0  0  0  0  0  0  0  0
    1.8860    0.5410   -3.8753 C   0  0  0  0  0  0  0  0  0  0  0  0
    2.6122    0.5011   -4.6751 H   0  0  0  0  0  0  0  0  0  0  0  0
    1.8285    1.6669   -3.0339 C   0  0  0  0  0  0  0  0  0  0  0  0
    2.5099    2.4910   -3.1865 H   0  0  0  0  0  0  0  0  0  0  0  0
    0.8879    1.7157   -1.9897 C   0  0  0  0  0  0  0  0  0  0  0  0
    0.8469    2.5810   -1.3410 H   0  0  0  0  0  0  0  0  0  0  0  0
   -0.6196    0.1253    1.7539 C   0  0  0  0  0  0  0  0  0  0  0  0
    0.5216    0.0194    2.2054 O   0  0  0  0  0  0  0  0  0  0  0  0
   -1.6152    0.6924    2.4469 N   0  0  0  0  0  0  0  0  0  0  0  0
   -2.5345    0.6914    2.0318 H   0  0  0  0  0  0  0  0  0  0  0  0
   -1.4720    1.2390    3.7941 C   0  0  0  0  0  0  0  0  0  0  0  0
   -0.6345    1.9391    3.8219 H   0  0  0  0  0  0  0  0  0  0  0  0
   -2.3844    1.7580    4.0892 H   0  0  0  0  0  0  0  0  0  0  0  0
   -1.2733    0.4298    4.4995 H   0  0  0  0  0  0  0  0  0  0  0  0
  5  6  2  0  0  0  0
  5  7  1  0  0  0  0
  2  3  1  0  0  0  0
  2  4  1  0  0  0  0
  2  5  1  0  0  0  0
  1  2  1  0  0  0  0
 25 26  2  0  0  0  0
 25 27  1  0  0  0  0
 23 24  1  0  0  0  0
 21 22  1  0  0  0  0
 21 23  2  0  0  0  0
 19 20  1  0  0  0  0
 19 21  1  0  0  0  0
 17 18  1  0  0  0  0
 17 19  2  0  0  0  0
 15 16  1  0  0  0  0
 15 17  1  0  0  0  0
 14 15  2  0  0  0  0
 14 23  1  0  0  0  0
 11 12  1  0  0  0  0
 11 13  1  0  0  0  0
 11 14  1  0  0  0  0
  9 10  1  0  0  0  0
  9 11  1  0  0  0  0
  9 25  1  0  0  0  0
  7  8  1  0  0  0  0
  7  9  1  0  0  0  0
 29 30  1  0  0  0  0
 29 31  1  0  0  0  0
 29 32  1  0  0  0  0
 27 28  1  0  0  0  0
 27 29  1  0  0  0  0
M  END
$$$$
default_name
  -OEChem-02102213163D

 32 32  0     1  0  0  0  0  0999 V2000
   -3.8405   -3.7518    1.6252 H   0  0  0  0  0  0  0  0  0  0  0  0
   -3.7965   -2.8768    0.9782 C   0  0  0  0  0  0  0  0  0  0  0  0
   -4.5465   -2.1527    1.2902 H   0  0  0  0  0  0  0  0  0  0  0  0
   -3.9745   -3.1748   -0.0538 H   0  0  0  0  0  0  0  0  0  0  0  0
   -2.4245   -2.2537    1.0882 C   0  0  0  0  0  0  0  0  0  0  0  0
   -1.5805   -2.7478    1.8242 O   0  0  0  0  0  0  0  0  0  0  0  0
   -2.2045   -1.1637    0.3562 N   0  0  0  0  0  0  0  0  0  0  0  0
   -2.9595   -0.7907   -0.2008 H   0  0  0  0  0  0  0  0  0  0  0  0
   -0.9485   -0.4087    0.3482 C   0  0  1  0  0  0  0  0  0  0  0  0
   -0.1408   -1.0795    0.0507 H   0  0  0  0  0  0  0  0  0  0  0  0
   -1.0432    0.7243   -0.6879 C   0  0  0  0  0  0  0  0  0  0  0  0
   -2.0288    0.6972   -1.1548 H   0  0  0  0  0  0  0  0  0  0  0  0
   -0.9504    1.6822   -0.1741 H   0  0  0  0  0  0  0  0  0  0  0  0
   -0.0003    0.6424   -1.7864 C   0  0  0  0  0  0  0  0  0  0  0  0
   -0.1237   -0.3080   -2.8176 C   0  0  0  0  0  0  0  0  0  0  0  0
   -0.9526   -1.0017   -2.8201 H   0  0  0  0  0  0  0  0  0  0  0  0
    0.8254   -0.3506   -3.8555 C   0  0  0  0  0  0  0  0  0  0  0  0
    0.7302   -1.0828   -4.6450 H   0  0  0  0  0  0  0  0  0  0  0  0
    1.8978    0.5574   -3.8653 C   0  0  0  0  0  0  0  0  0  0  0  0
    2.6283    0.5231   -4.6614 H   0  0  0  0  0  0  0  0  0  0  0  0
    2.0249    1.5073   -2.8355 C   0  0  0  0  0  0  0  0  0  0  0  0
    2.8522    2.2018   -2.8399 H   0  0  0  0  0  0  0  0  0  0  0  0
    1.0781    1.5475   -1.7966 C   0  0  0  0  0  0  0  0  0  0  0  0
    1.1788    2.2766   -1.0032 H   0  0  0  0  0  0  0  0  0  0  0  0
   -0.6196    0.1253    1.7539 C   0  0  0  0  0  0  0  0  0  0  0  0
    0.5216    0.0194    2.2054 O   0  0  0  0  0  0  0  0  0  0  0  0
   -1.6152    0.6924    2.4469 N   0  0  0  0  0  0  0  0  0  0  0  0
   -2.5345    0.6914    2.0318 H   0  0  0  0  0  0  0  0  0  0  0  0
   -1.4720    1.2390    3.7941 C   0  0  0  0  0  0  0  0  0  0  0  0
   -0.6345    1.9391    3.8219 H   0  0  0  0  0  0  0  0  0  0  0  0
   -2.3844    1.7580    4.0892 H   0  0  0  0  0  0  0  0  0  0  0  0
   -1.2733    0.4298    4.4995 H   0  0  0  0  0  0  0  0  0  0  0  0
  5  6  2  0  0  0  0
  5  7  1  0  0  0  0
  2  3  1  0  0  0  0
  2  4  1  0  0  0  0
  2  5  1  0  0  0  0
  1  2  1  0  0  0  0
 25 26  2  0  0  0  0
 25 27  1  0  0  0  0
 23 24  1  0  0  0  0
 21 22  1  0  0  0  0
 21 23  2  0  0  0  0
 19 20  1  0  0  0  0
 19 21  1  0  0  0  0
 17 18  1  0  0  0  0
 17 19  2  0  0  0  0
 15 16  1  0  0  0  0
 15 17  1  0  0  0  0
 14 15  2  0  0  0  0
 14 23  1  0  0  0  0
 11 12  1  0  0  0  0
 11 13  1  0  0  0  0
 11 14  1  0  0  0  0
  9 10  1  0  0  0  0
  9 11  1  0  0  0  0
  9 25  1  0  0  0  0
  7  8  1  0  0  0  0
  7  9  1  0  0  0  0
 29 30  1  0  0  0  0
 29 31  1  0  0  0  0
 29 32  1  0  0  0  0
 27 28  1  0  0  0  0
 27 29  1  0  0  0  0
M  END
$$$$
default_name
  -OEChem-02102213163D

 32 32  0     1  0  0  0  0  0999 V2000
   -3.8405   -3.7518    1.6252 H   0  0  0  0  0  0  0  0  0  0  0  0
   -3.7965   -2.8768    0.9782 C   0  0  0  0  0  0  0  0  0  0  0  0
   -4.5465   -2.1527    1.2902 H   0  0  0  0  0  0  0  0  0  0  0  0
   -3.9745   -3.1748   -0.0538 H   0  0  0  0  0  0  0  0  0  0  0  0
   -2.4245   -2.2537    1.0882 C   0  0  0  0  0  0  0  0  0  0  0  0
   -1.5805   -2.7478    1.8242 O   0  0  0  0  0  0  0  0  0  0  0  0
   -2.2045   -1.1637    0.3562 N   0  0  0  0  0  0  0  0  0  0  0  0
   -2.9595   -0.7907   -0.2008 H   0  0  0  0  0  0  0  0  0  0  0  0
   -0.9485   -0.4087    0.3482 C   0  0  1  0  0  0  0  0  0  0  0  0
   -0.1408   -1.0795    0.0507 H   0  0  0  0  0  0  0  0  0  0  0  0
   -1.0432    0.7243   -0.6879 C   0  0  0  0  0  0  0  0  0  0  0  0
   -2.0288    0.6972   -1.1548 H   0  0  0  0  0  0  0  0  0  0  0  0
   -0.9504    1.6822   -0.1741 H   0  0  0  0  0  0  0  0  0  0  0  0
   -0.0003    0.6424   -1.7864 C   0  0  0  0  0  0  0  0  0  0  0  0
   -0.2665   -0.0703   -2.9709 C   0  0  0  0  0  0  0  0  0  0  0  0
   -1.2096   -0.5836   -3.0952 H   0  0  0  0  0  0  0  0  0  0  0  0
    0.6897   -0.1072   -4.0025 C   0  0  0  0  0  0  0  0  0  0  0  0
    0.4843   -0.6572   -4.9102 H   0  0  0  0  0  0  0  0  0  0  0  0
    1.9122    0.5693   -3.8525 C   0  0  0  0  0  0  0  0  0  0  0  0
    2.6478    0.5389   -4.6441 H   0  0  0  0  0  0  0  0  0  0  0  0
    2.1820    1.2811   -2.6695 C   0  0  0  0  0  0  0  0  0  0  0  0
    3.1239    1.7966   -2.5518 H   0  0  0  0  0  0  0  0  0  0  0  0
    1.2275    1.3151   -1.6374 C   0  0  0  0  0  0  0  0  0  0  0  0
    1.4377    1.8603   -0.7264 H   0  0  0  0  0  0  0  0  0  0  0  0
   -0.6196    0.1253    1.7539 C   0  0  0  0  0  0  0  0  0  0  0  0
    0.5216    0.0194    2.2054 O   0  0  0  0  0  0  0  0  0  0  0  0
   -1.6152    0.6924    2.4469 N   0  0  0  0  0  0  0  0  0  0  0  0
   -2.5345    0.6914    2.0318 H   0  0  0  0  0  0  0  0  0  0  0  0
   -1.4720    1.2390    3.7941 C   0  0  0  0  0  0  0  0  0  0  0  0
   -0.6345    1.9391    3.8219 H   0  0  0  0  0  0  0  0  0  0  0  0
   -2.3844    1.7580    4.0892 H   0  0  0  0  0  0  0  0  0  0  0  0
   -1.2733    0.4298    4.4995 H   0  0  0  0  0  0  0  0  0  0  0  0
  5  6  2  0  0  0  0
  5  7  1  0  0  0  0
  2  3  1  0  0  0  0
  2  4  1  0  0  0  0
  2  5  1  0  0  0  0
  1  2  1  0  0  0  0
 25 26  2  0  0  0  0
 25 27  1  0  0  0  0
 23 24  1  0  0  0  0
 21 22  1  0  0  0  0
 21 23  2  0  0  0  0
 19 20  1  0  0  0  0
 19 21  1  0  0  0  0
 17 18  1  0  0  0  0
 17 19  2  0  0  0  0
 15 16  1  0  0  0  0
 15 17  1  0  0  0  0
 14 15  2  0  0  0  0
 14 23  1  0  0  0  0
 11 12  1  0  0  0  0
 11 13  1  0  0  0  0
 11 14  1  0  0  0  0
  9 10  1  0  0  0  0
  9 11  1  0  0  0  0
  9 25  1  0  0  0  0
  7  8  1  0  0  0  0
  7  9  1  0  0  0  0
 29 30  1  0  0  0  0
 29 31  1  0  0  0  0
 29 32  1  0  0  0  0
 27 28  1  0  0  0  0
 27 29  1  0  0  0  0
M  END
$$$$
default_name
  -OEChem-02102213163D

 32 32  0     1  0  0  0  0  0999 V2000
   -3.8405   -3.7518    1.6252 H   0  0  0  0  0  0  0  0  0  0  0  0
   -3.7965   -2.8768    0.9782 C   0  0  0  0  0  0  0  0  0  0  0  0
   -4.5465   -2.1527    1.2902 H   0  0  0  0  0  0  0  0  0  0  0  0
   -3.9745   -3.1748   -0.0538 H   0  0  0  0  0  0  0  0  0  0  0  0
   -2.4245   -2.2537    1.0882 C   0  0  0  0  0  0  0  0  0  0  0  0
   -1.5805   -2.7478    1.8242 O   0  0  0  0  0  0  0  0  0  0  0  0
   -2.2045   -1.1637    0.3562 N   0  0  0  0  0  0  0  0  0  0  0  0
   -2.9595   -0.7907   -0.2008 H   0  0  0  0  0  0  0  0  0  0  0  0
   -0.9485   -0.4087    0.3482 C   0  0  1  0  0  0  0  0  0  0  0  0
   -0.1408   -1.0795    0.0507 H   0  0  0  0  0  0  0  0  0  0  0  0
   -1.0432    0.7243   -0.6879 C   0  0  0  0  0  0  0  0  0  0  0  0
   -2.0288    0.6972   -1.1548 H   0  0  0  0  0  0  0  0  0  0  0  0
   -0.9504    1.6822   -0.1741 H   0  0  0  0  0  0  0  0  0  0  0  0
   -0.0003    0.6424   -1.7864 C   0  0  0  0  0  0  0  0  0  0  0  0
   -0.3578    0.2134   -3.0787 C   0  0  0  0  0  0  0  0  0  0  0  0
   -1.3756   -0.0826   -3.2902 H   0  0  0  0  0  0  0  0  0  0  0  0
    0.6064    0.1794   -4.1030 C   0  0  0  0  0  0  0  0  0  0  0  0
    0.3304   -0.1528   -5.0940 H   0  0  0  0  0  0  0  0  0  0  0  0
    1.9282    0.5758   -3.8378 C   0  0  0  0  0  0  0  0  0  0  0  0
    2.6694    0.5474   -4.6242 H   0  0  0  0  0  0  0  0  0  0  0  0
    2.2890    1.0036   -2.5472 C   0  0  0  0  0  0  0  0  0  0  0  0
    3.3063    1.3031   -2.3418 H   0  0  0  0  0  0  0  0  0  0  0  0
    1.3261    1.0343   -1.5229 C   0  0  0  0  0  0  0  0  0  0  0  0
    1.6057    1.3604   -0.5296 H   0  0  0  0  0  0  0  0  0  0  0  0
   -0.6196    0.1253    1.7539 C   0  0  0  0  0  0  0  0  0  0  0  0
    0.5216    0.0194    2.2054 O   0  0  0  0  0  0  0  0  0  0  0  0
   -1.6152    0.6924    2.4469 N   0  0  0  0  0  0  0  0  0  0  0  0
   -2.5345    0.6914    2.0318 H   0  0  0  0  0  0  0  0  0  0  0  0
   -1.4720    1.2390    3.7941 C   0  0  0  0  0  0  0  0  0  0  0  0
   -0.6345    1.9391    3.8219 H   0  0  0  0  0  0  0  0  0  0  0  0
   -2.3844    1.7580    4.0892 H   0  0  0  0  0  0  0  0  0  0  0  0
   -1.2733    0.4298    4.4995 H   0  0  0  0  0  0  0  0  0  0  0  0
  5  6  2  0  0  0  0
  5  7  1  0  0  0  0
  2  3  1  0  0  0  0
  2  4  1  0  0  0  0
  2  5  1  0  0  0  0
  1  2  1  0  0  0  0
 25 26  2  0  0  0  0
 25 27  1  0  0  0  0
 23 24  1  0  0  0  0
 21 22  1  0  0  0  0
 21 23  2  0  0  0  0
 19 20  1  0  0  0  0
 19 21  1  0  0  0  0
 17 18  1  0  0  0  0
 17 19  2  0  0  0  0
 15 16  1  0  0  0  0
 15 17  1  0  0  0  0
 14 15  2  0  0  0  0
 14 23  1  0  0  0  0
 11 12  1  0  0  0  0
 11 13  1  0  0  0  0
 11 14  1  0  0  0  0
  9 10  1  0  0  0  0
  9 11  1  0  0  0  0
  9 25  1  0  0  0  0
  7  8  1  0  0  0  0
  7  9  1  0  0  0  0
 29 30  1  0  0  0  0
 29 31  1  0  0  0  0
 29 32  1  0  0  0  0
 27 28  1  0  0  0  0
 27 29  1  0  0  0  0
M  END
$$$$
default_name
  -OEChem-02102213163D

 32 32  0     1  0  0  0  0  0999 V2000
   -3.8405   -3.7518    1.6252 H   0  0  0  0  0  0  0  0  0  0  0  0
   -3.7965   -2.8768    0.9782 C   0  0  0  0  0  0  0  0  0  0  0  0
   -4.5465   -2.1527    1.2902 H   0  0  0  0  0  0  0  0  0  0  0  0
   -3.9745   -3.1748   -0.0538 H   0  0  0  0  0  0  0  0  0  0  0  0
   -2.4245   -2.2537    1.0882 C   0  0  0  0  0  0  0  0  0  0  0  0
   -1.5805   -2.7478    1.8242 O   0  0  0  0  0  0  0  0  0  0  0  0
   -2.2045   -1.1637    0.3562 N   0  0  0  0  0  0  0  0  0  0  0  0
   -2.9595   -0.7907   -0.2008 H   0  0  0  0  0  0  0  0  0  0  0  0
   -0.9485   -0.4087    0.3482 C   0  0  1  0  0  0  0  0  0  0  0  0
   -0.1408   -1.0795    0.0507 H   0  0  0  0  0  0  0  0  0  0  0  0
   -1.0432    0.7243   -0.6879 C   0  0  0  0  0  0  0  0  0  0  0  0
   -2.0288    0.6972   -1.1548 H   0  0  0  0  0  0  0  0  0  0  0  0
   -0.9504    1.6822   -0.1741 H   0  0  0  0  0  0  0  0  0  0  0  0
   -0.0003    0.6424   -1.7864 C   0  0  0  0  0  0  0  0  0  0  0  0
   -0.3912    0.5236   -3.1336 C   0  0  0  0  0  0  0  0  0  0  0  0
   -1.4393    0.4671   -3.3917 H   0  0  0  0  0  0  0  0  0  0  0  0
    0.5809    0.4898   -4.1503 C   0  0  0  0  0  0  0  0  0  0  0  0
    0.2787    0.3960   -5.1839 H   0  0  0  0  0  0  0  0  0  0  0  0
    1.9446    0.5764   -3.8223 C   0  0  0  0  0  0  0  0  0  0  0  0
    2.6916    0.5481   -4.6032 H   0  0  0  0  0  0  0  0  0  0  0  0
    2.3387    0.6937   -2.4769 C   0  0  0  0  0  0  0  0  0  0  0  0
    3.3871    0.7548   -2.2242 H   0  0  0  0  0  0  0  0  0  0  0  0
    1.3670    0.7241   -1.4609 C   0  0  0  0  0  0  0  0  0  0  0  0
    1.6717    0.8110   -0.4260 H   0  0  0  0  0  0  0  0  0  0  0  0
   -0.6196    0.1253    1.7539 C   0  0  0  0  0  0  0  0  0  0  0  0
    0.5216    0.0194    2.2054 O   0  0  0  0  0  0  0  0  0  0  0  0
   -1.6152    0.6924    2.4469 N   0  0  0  0  0  0  0  0  0  0  0  0
   -2.5345    0.6914    2.0318 H   0  0  0  0  0  0  0  0  0  0  0  0
   -1.4720    1.2390    3.7941 C   0  0  0  0  0  0  0  0  0  0  0  0
   -0.6345    1.9391    3.8219 H   0  0  0  0  0  0  0  0  0  0  0  0
   -2.3844    1.7580    4.0892 H   0  0  0  0  0  0  0  0  0  0  0  0
   -1.2733    0.4298    4.4995 H   0  0  0  0  0  0  0  0  0  0  0  0
  5  6  2  0  0  0  0
  5  7  1  0  0  0  0
  2  3  1  0  0  0  0
  2  4  1  0  0  0  0
  2  5  1  0  0  0  0
  1  2  1  0  0  0  0
 25 26  2  0  0  0  0
 25 27  1  0  0  0  0
 23 24  1  0  0  0  0
 21 22  1  0  0  0  0
 21 23  2  0  0  0  0
 19 20  1  0  0  0  0
 19 21  1  0  0  0  0
 17 18  1  0  0  0  0
 17 19  2  0  0  0  0
 15 16  1  0  0  0  0
 15 17  1  0  0  0  0
 14 15  2  0  0  0  0
 14 23  1  0  0  0  0
 11 12  1  0  0  0  0
 11 13  1  0  0  0  0
 11 14  1  0  0  0  0
  9 10  1  0  0  0  0
  9 11  1  0  0  0  0
  9 25  1  0  0  0  0
  7  8  1  0  0  0  0
  7  9  1  0  0  0  0
 29 30  1  0  0  0  0
 29 31  1  0  0  0  0
 29 32  1  0  0  0  0
 27 28  1  0  0  0  0
 27 29  1  0  0  0  0
M  END
$$$$
default_name
  -OEChem-02102213163D

 32 32  0     1  0  0  0  0  0999 V2000
   -3.8405   -3.7518    1.6252 H   0  0  0  0  0  0  0  0  0  0  0  0
   -3.7965   -2.8768    0.9782 C   0  0  0  0  0  0  0  0  0  0  0  0
   -4.5465   -2.1527    1.2902 H   0  0  0  0  0  0  0  0  0  0  0  0
   -3.9745   -3.1748   -0.0538 H   0  0  0  0  0  0  0  0  0  0  0  0
   -2.4245   -2.2537    1.0882 C   0  0  0  0  0  0  0  0  0  0  0  0
   -1.5805   -2.7478    1.8242 O   0  0  0  0  0  0  0  0  0  0  0  0
   -2.2045   -1.1637    0.3562 N   0  0  0  0  0  0  0  0  0  0  0  0
   -2.9595   -0.7907   -0.2008 H   0  0  0  0  0  0  0  0  0  0  0  0
   -0.9485   -0.4087    0.3482 C   0  0  1  0  0  0  0  0  0  0  0  0
   -0.1408   -1.0795    0.0507 H   0  0  0  0  0  0  0  0  0  0  0  0
   -1.0432    0.7243   -0.6879 C   0  0  0  0  0  0  0  0  0  0  0  0
   -2.0288    0.6972   -1.1548 H   0  0  0  0  0  0  0  0  0  0  0  0
   -0.9504    1.6822   -0.1741 H   0  0  0  0  0  0  0  0  0  0  0  0
   -0.0003    0.6424   -1.7864 C   0  0  0  0  0  0  0  0  0  0  0  0
   -0.3646    0.8394   -3.1319 C   0  0  0  0  0  0  0  0  0  0  0  0
   -1.3964    1.0281   -3.3928 H   0  0  0  0  0  0  0  0  0  0  0  0
    0.6152    0.8028   -4.1411 C   0  0  0  0  0  0  0  0  0  0  0  0
    0.3330    0.9517   -5.1738 H   0  0  0  0  0  0  0  0  0  0  0  0
    1.9604    0.5713   -3.8069 C   0  0  0  0  0  0  0  0  0  0  0  0
    2.7128    0.5408   -4.5825 H   0  0  0  0  0  0  0  0  0  0  0  0
    2.3276    0.3725   -2.4635 C   0  0  0  0  0  0  0  0  0  0  0  0
    3.3607    0.1891   -2.2071 H   0  0  0  0  0  0  0  0  0  0  0  0
    1.3476    0.4059   -1.4556 C   0  0  0  0  0  0  0  0  0  0  0  0
    1.6309    0.2495   -0.4228 H   0  0  0  0  0  0  0  0  0  0  0  0
   -0.6196    0.1253    1.7539 C   0  0  0  0  0  0  0  0  0  0  0  0
    0.5216    0.0194    2.2054 O   0  0  0  0  0  0  0  0  0  0  0  0
   -1.6152    0.6924    2.4469 N   0  0  0  0  0  0  0  0  0  0  0  0
   -2.5345    0.6914    2.0318 H   0  0  0  0  0  0  0  0  0  0  0  0
   -1.4720    1.2390    3.7941 C   0  0  0  0  0  0  0  0  0  0  0  0
   -0.6345    1.9391    3.8219 H   0  0  0  0  0  0  0  0  0  0  0  0
   -2.3844    1.7580    4.0892 H   0  0  0  0  0  0  0  0  0  0  0  0
   -1.2733    0.4298    4.4995 H   0  0  0  0  0  0  0  0  0  0  0  0
  5  6  2  0  0  0  0
  5  7  1  0  0  0  0
  2  3  1  0  0  0  0
  2  4  1  0  0  0  0
  2  5  1  0  0  0  0
  1  2  1  0  0  0  0
 25 26  2  0  0  0  0
 25 27  1  0  0  0  0
 23 24  1  0  0  0  0
 21 22  1  0  0  0  0
 21 23  2  0  0  0  0
 19 20  1  0  0  0  0
 19 21  1  0  0  0  0
 17 18  1  0  0  0  0
 17 19  2  0  0  0  0
 15 16  1  0  0  0  0
 15 17  1  0  0  0  0
 14 15  2  0  0  0  0
 14 23  1  0  0  0  0
 11 12  1  0  0  0  0
 11 13  1  0  0  0  0
 11 14  1  0  0  0  0
  9 10  1  0  0  0  0
  9 11  1  0  0  0  0
  9 25  1  0  0  0  0
  7  8  1  0  0  0  0
  7  9  1  0  0  0  0
 29 30  1  0  0  0  0
 29 31  1  0  0  0  0
 29 32  1  0  0  0  0
 27 28  1  0  0  0  0
 27 29  1  0  0  0  0
M  END
$$$$
default_name
  -OEChem-02102213163D

 32 32  0     1  0  0  0  0  0999 V2000
   -3.8405   -3.7518    1.6252 H   0  0  0  0  0  0  0  0  0  0  0  0
   -3.7965   -2.8768    0.9782 C   0  0  0  0  0  0  0  0  0  0  0  0
   -4.5465   -2.1527    1.2902 H   0  0  0  0  0  0  0  0  0  0  0  0
   -3.9745   -3.1748   -0.0538 H   0  0  0  0  0  0  0  0  0  0  0  0
   -2.4245   -2.2537    1.0882 C   0  0  0  0  0  0  0  0  0  0  0  0
   -1.5805   -2.7478    1.8242 O   0  0  0  0  0  0  0  0  0  0  0  0
   -2.2045   -1.1637    0.3562 N   0  0  0  0  0  0  0  0  0  0  0  0
   -2.9595   -0.7907   -0.2008 H   0  0  0  0  0  0  0  0  0  0  0  0
   -0.9485   -0.4087    0.3482 C   0  0  1  0  0  0  0  0  0  0  0  0
   -0.1408   -1.0795    0.0507 H   0  0  0  0  0  0  0  0  0  0  0  0
   -1.0432    0.7243   -0.6879 C   0  0  0  0  0  0  0  0  0  0  0  0
   -2.0288    0.6972   -1.1548 H   0  0  0  0  0  0  0  0  0  0  0  0
   -0.9504    1.6822   -0.1741 H   0  0  0  0  0  0  0  0  0  0  0  0
   -0.0003    0.6424   -1.7864 C   0  0  0  0  0  0  0  0  0  0  0  0
   -0.2798    1.1390   -3.0737 C   0  0  0  0  0  0  0  0  0  0  0  0
   -1.2498    1.5621   -3.2934 H   0  0  0  0  0  0  0  0  0  0  0  0
    0.7069    1.0970   -4.0760 C   0  0  0  0  0  0  0  0  0  0  0  0
    0.4894    1.4766   -5.0645 H   0  0  0  0  0  0  0  0  0  0  0  0
    1.9744    0.5606   -3.7928 C   0  0  0  0  0  0  0  0  0  0  0  0
    2.7317    0.5262   -4.5635 H   0  0  0  0  0  0  0  0  0  0  0  0
    2.2565    0.0620   -2.5079 C   0  0  0  0  0  0  0  0  0  0  0  0
    3.2289   -0.3553   -2.2916 H   0  0  0  0  0  0  0  0  0  0  0  0
    1.2691    0.1011   -1.5074 C   0  0  0  0  0  0  0  0  0  0  0  0
    1.4863   -0.2858   -0.5202 H   0  0  0  0  0  0  0  0  0  0  0  0
   -0.6196    0.1253    1.7539 C   0  0  0  0  0  0  0  0  0  0  0  0
    0.5216    0.0194    2.2054 O   0  0  0  0  0  0  0  0  0  0  0  0
   -1.6152    0.6924    2.4469 N   0  0  0  0  0  0  0  0  0  0  0  0
   -2.5345    0.6914    2.0318 H   0  0  0  0  0  0  0  0  0  0  0  0
   -1.4720    1.2390    3.7941 C   0  0  0  0  0  0  0  0  0  0  0  0
   -0.6345    1.9391    3.8219 H   0  0  0  0  0  0  0  0  0  0  0  0
   -2.3844    1.7580    4.0892 H   0  0  0  0  0  0  0  0  0  0  0  0
   -1.2733    0.4298    4.4995 H   0  0  0  0  0  0  0  0  0  0  0  0
  5  6  2  0  0  0  0
  5  7  1  0  0  0  0
  2  3  1  0  0  0  0
  2  4  1  0  0  0  0
  2  5  1  0  0  0  0
  1  2  1  0  0  0  0
 25 26  2  0  0  0  0
 25 27  1  0  0  0  0
 23 24  1  0  0  0  0
 21 22  1  0  0  0  0
 21 23  2  0  0  0  0
 19 20  1  0  0  0  0
 19 21  1  0  0  0  0
 17 18  1  0  0  0  0
 17 19  2  0  0  0  0
 15 16  1  0  0  0  0
 15 17  1  0  0  0  0
 14 15  2  0  0  0  0
 14 23  1  0  0  0  0
 11 12  1  0  0  0  0
 11 13  1  0  0  0  0
 11 14  1  0  0  0  0
  9 10  1  0  0  0  0
  9 11  1  0  0  0  0
  9 25  1  0  0  0  0
  7  8  1  0  0  0  0
  7  9  1  0  0  0  0
 29 30  1  0  0  0  0
 29 31  1  0  0  0  0
 29 32  1  0  0  0  0
 27 28  1  0  0  0  0
 27 29  1  0  0  0  0
M  END
$$$$
default_name
  -OEChem-02102213163D

 32 32  0     1  0  0  0  0  0999 V2000
   -3.8405   -3.7518    1.6252 H   0  0  0  0  0  0  0  0  0  0  0  0
   -3.7965   -2.8768    0.9782 C   0  0  0  0  0  0  0  0  0  0  0  0
   -4.5465   -2.1527    1.2902 H   0  0  0  0  0  0  0  0  0  0  0  0
   -3.9745   -3.1748   -0.0538 H   0  0  0  0  0  0  0  0  0  0  0  0
   -2.4245   -2.2537    1.0882 C   0  0  0  0  0  0  0  0  0  0  0  0
   -1.5805   -2.7478    1.8242 O   0  0  0  0  0  0  0  0  0  0  0  0
   -2.2045   -1.1637    0.3562 N   0  0  0  0  0  0  0  0  0  0  0  0
   -2.9595   -0.7907   -0.2008 H   0  0  0  0  0  0  0  0  0  0  0  0
   -0.9485   -0.4087    0.3482 C   0  0  1  0  0  0  0  0  0  0  0  0
   -0.1408   -1.0795    0.0507 H   0  0  0  0  0  0  0  0  0  0  0  0
   -1.0432    0.7243   -0.6879 C   0  0  0  0  0  0  0  0  0  0  0  0
   -2.0288    0.6972   -1.1548 H   0  0  0  0  0  0  0  0  0  0  0  0
   -0.9504    1.6822   -0.1741 H   0  0  0  0  0  0  0  0  0  0  0  0
   -0.0003    0.6424   -1.7864 C   0  0  0  0  0  0  0  0  0  0  0  0
   -0.1425    1.4023   -2.9630 C   0  0  0  0  0  0  0  0  0  0  0  0
   -1.0095    2.0328   -3.1004 H   0  0  0  0  0  0  0  0  0  0  0  0
    0.8497    1.3525   -3.9595 C   0  0  0  0  0  0  0  0  0  0  0  0
    0.7373    1.9348   -4.8633 H   0  0  0  0  0  0  0  0  0  0  0  0
    1.9858    0.5451   -3.7808 C   0  0  0  0  0  0  0  0  0  0  0  0
    2.7469    0.5051   -4.5475 H   0  0  0  0  0  0  0  0  0  0  0  0
    2.1302   -0.2166   -2.6070 C   0  0  0  0  0  0  0  0  0  0  0  0
    3.0008   -0.8416   -2.4719 H   0  0  0  0  0  0  0  0  0  0  0  0
    1.1369   -0.1693   -1.6127 C   0  0  0  0  0  0  0  0  0  0  0  0
    1.2476   -0.7584   -0.7116 H   0  0  0  0  0  0  0  0  0  0  0  0
   -0.6196    0.1253    1.7539 C   0  0  0  0  0  0  0  0  0  0  0  0
    0.5216    0.0194    2.2054 O   0  0  0  0  0  0  0  0  0  0  0  0
   -1.6152    0.6924    2.4469 N   0  0  0  0  0  0  0  0  0  0  0  0
   -2.5345    0.6914    2.0318 H   0  0  0  0  0  0  0  0  0  0  0  0
   -1.4720    1.2390    3.7941 C   0  0  0  0  0  0  0  0  0  0  0  0
   -0.6345    1.9391    3.8219 H   0  0  0  0  0  0  0  0  0  0  0  0
   -2.3844    1.7580    4.0892 H   0  0  0  0  0  0  0  0  0  0  0  0
   -1.2733    0.4298    4.4995 H   0  0  0  0  0  0  0  0  0  0  0  0
  5  6  2  0  0  0  0
  5  7  1  0  0  0  0
  2  3  1  0  0  0  0
  2  4  1  0  0  0  0
  2  5  1  0  0  0  0
  1  2  1  0  0  0  0
 25 26  2  0  0  0  0
 25 27  1  0  0  0  0
 23 24  1  0  0  0  0
 21 22  1  0  0  0  0
 21 23  2  0  0  0  0
 19 20  1  0  0  0  0
 19 21  1  0  0  0  0
 17 18  1  0  0  0  0
 17 19  2  0  0  0  0
 15 16  1  0  0  0  0
 15 17  1  0  0  0  0
 14 15  2  0  0  0  0
 14 23  1  0  0  0  0
 11 12  1  0  0  0  0
 11 13  1  0  0  0  0
 11 14  1  0  0  0  0
  9 10  1  0  0  0  0
  9 11  1  0  0  0  0
  9 25  1  0  0  0  0
  7  8  1  0  0  0  0
  7  9  1  0  0  0  0
 29 30  1  0  0  0  0
 29 31  1  0  0  0  0
 29 32  1  0  0  0  0
 27 28  1  0  0  0  0
 27 29  1  0  0  0  0
M  END
$$$$
default_name
  -OEChem-02102213163D

 32 32  0     1  0  0  0  0  0999 V2000
   -3.8405   -3.7518    1.6252 H   0  0  0  0  0  0  0  0  0  0  0  0
   -3.7965   -2.8768    0.9782 C   0  0  0  0  0  0  0  0  0  0  0  0
   -4.5465   -2.1527    1.2902 H   0  0  0  0  0  0  0  0  0  0  0  0
   -3.9745   -3.1748   -0.0538 H   0  0  0  0  0  0  0  0  0  0  0  0
   -2.4245   -2.2537    1.0882 C   0  0  0  0  0  0  0  0  0  0  0  0
   -1.5805   -2.7478    1.8242 O   0  0  0  0  0  0  0  0  0  0  0  0
   -2.2045   -1.1637    0.3562 N   0  0  0  0  0  0  0  0  0  0  0  0
   -2.9595   -0.7907   -0.2008 H   0  0  0  0  0  0  0  0  0  0  0  0
   -0.9485   -0.4087    0.3482 C   0  0  1  0  0  0  0  0  0  0  0  0
   -0.1408   -1.0795    0.0507 H   0  0  0  0  0  0  0  0  0  0  0  0
   -1.0432    0.7243   -0.6879 C   0  0  0  0  0  0  0  0  0  0  0  0
   -2.0897    0.8714   -0.9587 H   0  0  0  0  0  0  0  0  0  0  0  0
   -0.6894    1.6505   -0.2327 H   0  0  0  0  0  0  0  0  0  0  0  0
   -0.2608    0.4613   -1.9606 C   0  0  0  0  0  0  0  0  0  0  0  0
   -0.2525    1.4091   -3.0015 C   0  0  0  0  0  0  0  0  0  0  0  0
   -0.8237    2.3221   -2.9088 H   0  0  0  0  0  0  0  0  0  0  0  0
    0.5087    1.1766   -4.1618 C   0  0  0  0  0  0  0  0  0  0  0  0
    0.5117    1.9045   -4.9609 H   0  0  0  0  0  0  0  0  0  0  0  0
    1.2640   -0.0022   -4.2826 C   0  0  0  0  0  0  0  0  0  0  0  0
    1.8470   -0.1818   -5.1751 H   0  0  0  0  0  0  0  0  0  0  0  0
    1.2568   -0.9520   -3.2450 C   0  0  0  0  0  0  0  0  0  0  0  0
    1.8330   -1.8607   -3.3401 H   0  0  0  0  0  0  0  0  0  0  0  0
    0.4933   -0.7209   -2.0870 C   0  0  0  0  0  0  0  0  0  0  0  0
    0.4859   -1.4540   -1.2909 H   0  0  0  0  0  0  0  0  0  0  0  0
   -0.6196    0.1253    1.7539 C   0  0  0  0  0  0  0  0  0  0  0  0
    0.5216    0.0194    2.2054 O   0  0  0  0  0  0  0  0  0  0  0  0
   -1.6152    0.6924    2.4469 N   0  0  0  0  0  0  0  0  0  0  0  0
   -2.5345    0.6914    2.0318 H   0  0  0  0  0  0  0  0  0  0  0  0
   -1.4720    1.2390    3.7941 C   0  0  0  0  0  0  0  0  0  0  0  0
   -0.6345    1.9391    3.8219 H   0  0  0  0  0  0  0  0  0  0  0  0
   -2.3844    1.7580    4.0892 H   0  0  0  0  0  0  0  0  0  0  0  0
   -1.2733    0.4298    4.4995 H   0  0  0  0  0  0  0  0  0  0  0  0
  5  6  2  0  0  0  0
  5  7  1  0  0  0  0
  2  3  1  0  0  0  0
  2  4  1  0  0  0  0
  2  5  1  0  0  0  0
  1  2  1  0  0  0  0
 25 26  2  0  0  0  0
 25 27  1  0  0  0  0
 23 24  1  0  0  0  0
 21 22  1  0  0  0  0
 21 23  2  0  0  0  0
 19 20  1  0  0  0  0
 19 21  1  0  0  0  0
 17 18  1  0  0  0  0
 17 19  2  0  0  0  0
 15 16  1  0  0  0  0
 15 17  1  0  0  0  0
 14 15  2  0  0  0  0
 14 23  1  0  0  0  0
 11 12  1  0  0  0  0
 11 13  1  0  0  0  0
 11 14  1  0  0  0  0
  9 10  1  0  0  0  0
  9 11  1  0  0  0  0
  9 25  1  0  0  0  0
  7  8  1  0  0  0  0
  7  9  1  0  0  0  0
 29 30  1  0  0  0  0
 29 31  1  0  0  0  0
 29 32  1  0  0  0  0
 27 28  1  0  0  0  0
 27 29  1  0  0  0  0
M  END
$$$$
default_name
  -OEChem-02102213163D

 32 32  0     1  0  0  0  0  0999 V2000
   -3.8405   -3.7518    1.6252 H   0  0  0  0  0  0  0  0  0  0  0  0
   -3.7965   -2.8768    0.9782 C   0  0  0  0  0  0  0  0  0  0  0  0
   -4.5465   -2.1527    1.2902 H   0  0  0  0  0  0  0  0  0  0  0  0
   -3.9745   -3.1748   -0.0538 H   0  0  0  0  0  0  0  0  0  0  0  0
   -2.4245   -2.2537    1.0882 C   0  0  0  0  0  0  0  0  0  0  0  0
   -1.5805   -2.7478    1.8242 O   0  0  0  0  0  0  0  0  0  0  0  0
   -2.2045   -1.1637    0.3562 N   0  0  0  0  0  0  0  0  0  0  0  0
   -2.9595   -0.7907   -0.2008 H   0  0  0  0  0  0  0  0  0  0  0  0
   -0.9485   -0.4087    0.3482 C   0  0  1  0  0  0  0  0  0  0  0  0
   -0.1408   -1.0795    0.0507 H   0  0  0  0  0  0  0  0  0  0  0  0
   -1.0432    0.7243   -0.6879 C   0  0  0  0  0  0  0  0  0  0  0  0
   -2.0897    0.8714   -0.9587 H   0  0  0  0  0  0  0  0  0  0  0  0
   -0.6894    1.6505   -0.2327 H   0  0  0  0  0  0  0  0  0  0  0  0
   -0.2608    0.4613   -1.9606 C   0  0  0  0  0  0  0  0  0  0  0  0
    0.0122    1.5098   -2.8595 C   0  0  0  0  0  0  0  0  0  0  0  0
   -0.3547    2.5064   -2.6585 H   0  0  0  0  0  0  0  0  0  0  0  0
    0.7739    1.2665   -4.0173 C   0  0  0  0  0  0  0  0  0  0  0  0
    0.9802    2.0724   -4.7076 H   0  0  0  0  0  0  0  0  0  0  0  0
    1.2651   -0.0241   -4.2774 C   0  0  0  0  0  0  0  0  0  0  0  0
    1.8483   -0.2115   -5.1682 H   0  0  0  0  0  0  0  0  0  0  0  0
    0.9928   -1.0744   -3.3820 C   0  0  0  0  0  0  0  0  0  0  0  0
    1.3657   -2.0677   -3.5845 H   0  0  0  0  0  0  0  0  0  0  0  0
    0.2288   -0.8316   -2.2267 C   0  0  0  0  0  0  0  0  0  0  0  0
    0.0172   -1.6412   -1.5403 H   0  0  0  0  0  0  0  0  0  0  0  0
   -0.6196    0.1253    1.7539 C   0  0  0  0  0  0  0  0  0  0  0  0
    0.5216    0.0194    2.2054 O   0  0  0  0  0  0  0  0  0  0  0  0
   -1.6152    0.6924    2.4469 N   0  0  0  0  0  0  0  0  0  0  0  0
   -2.5345    0.6914    2.0318 H   0  0  0  0  0  0  0  0  0  0  0  0
   -1.4720    1.2390    3.7941 C   0  0  0  0  0  0  0  0  0  0  0  0
   -0.6345    1.9391    3.8219 H   0  0  0  0  0  0  0  0  0  0  0  0
   -2.3844    1.7580    4.0892 H   0  0  0  0  0  0  0  0  0  0  0  0
   -1.2733    0.4298    4.4995 H   0  0  0  0  0  0  0  0  0  0  0  0
  5  6  2  0  0  0  0
  5  7  1  0  0  0  0
  2  3  1  0  0  0  0
  2  4  1  0  0  0  0
  2  5  1  0  0  0  0
  1  2  1  0  0  0  0
 25 26  2  0  0  0  0
 25 27  1  0  0  0  0
 23 24  1  0  0  0  0
 21 22  1  0  0  0  0
 21 23  2  0  0  0  0
 19 20  1  0  0  0  0
 19 21  1  0  0  0  0
 17 18  1  0  0  0  0
 17 19  2  0  0  0  0
 15 16  1  0  0  0  0
 15 17  1  0  0  0  0
 14 15  2  0  0  0  0
 14 23  1  0  0  0  0
 11 12  1  0  0  0  0
 11 13  1  0  0  0  0
 11 14  1  0  0  0  0
  9 10  1  0  0  0  0
  9 11  1  0  0  0  0
  9 25  1  0  0  0  0
  7  8  1  0  0  0  0
  7  9  1  0  0  0  0
 29 30  1  0  0  0  0
 29 31  1  0  0  0  0
 29 32  1  0  0  0  0
 27 28  1  0  0  0  0
 27 29  1  0  0  0  0
M  END
$$$$
default_name
  -OEChem-02102213163D

 32 32  0     1  0  0  0  0  0999 V2000
   -3.8405   -3.7518    1.6252 H   0  0  0  0  0  0  0  0  0  0  0  0
   -3.7965   -2.8768    0.9782 C   0  0  0  0  0  0  0  0  0  0  0  0
   -4.5465   -2.1527    1.2902 H   0  0  0  0  0  0  0  0  0  0  0  0
   -3.9745   -3.1748   -0.0538 H   0  0  0  0  0  0  0  0  0  0  0  0
   -2.4245   -2.2537    1.0882 C   0  0  0  0  0  0  0  0  0  0  0  0
   -1.5805   -2.7478    1.8242 O   0  0  0  0  0  0  0  0  0  0  0  0
   -2.2045   -1.1637    0.3562 N   0  0  0  0  0  0  0  0  0  0  0  0
   -2.9595   -0.7907   -0.2008 H   0  0  0  0  0  0  0  0  0  0  0  0
   -0.9485   -0.4087    0.3482 C   0  0  1  0  0  0  0  0  0  0  0  0
   -0.1408   -1.0795    0.0507 H   0  0  0  0  0  0  0  0  0  0  0  0
   -1.0432    0.7243   -0.6879 C   0  0  0  0  0  0  0  0  0  0  0  0
   -2.0897    0.8714   -0.9587 H   0  0  0  0  0  0  0  0  0  0  0  0
   -0.6894    1.6505   -0.2327 H   0  0  0  0  0  0  0  0  0  0  0  0
   -0.2608    0.4613   -1.9606 C   0  0  0  0  0  0  0  0  0  0  0  0
    0.2835    1.5305   -2.6970 C   0  0  0  0  0  0  0  0  0  0  0  0
    0.1271    2.5492   -2.3712 H   0  0  0  0  0  0  0  0  0  0  0  0
    1.0430    1.2764   -3.8539 C   0  0  0  0  0  0  0  0  0  0  0  0
    1.4579    2.0990   -4.4194 H   0  0  0  0  0  0  0  0  0  0  0  0
    1.2611   -0.0463   -4.2753 C   0  0  0  0  0  0  0  0  0  0  0  0
    1.8427   -0.2414   -5.1654 H   0  0  0  0  0  0  0  0  0  0  0  0
    0.7174   -1.1170   -3.5425 C   0  0  0  0  0  0  0  0  0  0  0  0
    0.8804   -2.1335   -3.8693 H   0  0  0  0  0  0  0  0  0  0  0  0
   -0.0444   -0.8625   -2.3882 C   0  0  0  0  0  0  0  0  0  0  0  0
   -0.4650   -1.6870   -1.8273 H   0  0  0  0  0  0  0  0  0  0  0  0
   -0.6196    0.1253    1.7539 C   0  0  0  0  0  0  0  0  0  0  0  0
    0.5216    0.0194    2.2054 O   0  0  0  0  0  0  0  0  0  0  0  0
   -1.6152    0.6924    2.4469 N   0  0  0  0  0  0  0  0  0  0  0  0
   -2.5345    0.6914    2.0318 H   0  0  0  0  0  0  0  0  0  0  0  0
   -1.4720    1.2390    3.7941 C   0  0  0  0  0  0  0  0  0  0  0  0
   -0.6345    1.9391    3.8219 H   0  0  0  0  0  0  0  0  0  0  0  0
   -2.3844    1.7580    4.0892 H   0  0  0  0  0  0  0  0  0  0  0  0
   -1.2733    0.4298    4.4995 H   0  0  0  0  0  0  0  0  0  0  0  0
  5  6  2  0  0  0  0
  5  7  1  0  0  0  0
  2  3  1  0  0  0  0
  2  4  1  0  0  0  0
  2  5  1  0  0  0  0
  1  2  1  0  0  0  0
 25 26  2  0  0  0  0
 25 27  1  0  0  0  0
 23 24  1  0  0  0  0
 21 22  1  0  0  0  0
 21 23  2  0  0  0  0
 19 20  1  0  0  0  0
 19 21  1  0  0  0  0
 17 18  1  0  0  0  0
 17 19  2  0  0  0  0
 15 16  1  0  0  0  0
 15 17  1  0  0  0  0
 14 15  2  0  0  0  0
 14 23  1  0  0  0  0
 11 12  1  0  0  0  0
 11 13  1  0  0  0  0
 11 14  1  0  0  0  0
  9 10  1  0  0  0  0
  9 11  1  0  0  0  0
  9 25  1  0  0  0  0
  7  8  1  0  0  0  0
  7  9  1  0  0  0  0
 29 30  1  0  0  0  0
 29 31  1  0  0  0  0
 29 32  1  0  0  0  0
 27 28  1  0  0  0  0
 27 29  1  0  0  0  0
M  END
$$$$
default_name
  -OEChem-02102213163D

 32 32  0     1  0  0  0  0  0999 V2000
   -3.8405   -3.7518    1.6252 H   0  0  0  0  0  0  0  0  0  0  0  0
   -3.7965   -2.8768    0.9782 C   0  0  0  0  0  0  0  0  0  0  0  0
   -4.5465   -2.1527    1.2902 H   0  0  0  0  0  0  0  0  0  0  0  0
   -3.9745   -3.1748   -0.0538 H   0  0  0  0  0  0  0  0  0  0  0  0
   -2.4245   -2.2537    1.0882 C   0  0  0  0  0  0  0  0  0  0  0  0
   -1.5805   -2.7478    1.8242 O   0  0  0  0  0  0  0  0  0  0  0  0
   -2.2045   -1.1637    0.3562 N   0  0  0  0  0  0  0  0  0  0  0  0
   -2.9595   -0.7907   -0.2008 H   0  0  0  0  0  0  0  0  0  0  0  0
   -0.9485   -0.4087    0.3482 C   0  0  1  0  0  0  0  0  0  0  0  0
   -0.1408   -1.0795    0.0507 H   0  0  0  0  0  0  0  0  0  0  0  0
   -1.0432    0.7243   -0.6879 C   0  0  0  0  0  0  0  0  0  0  0  0
   -2.0897    0.8714   -0.9587 H   0  0  0  0  0  0  0  0  0  0  0  0
   -0.6894    1.6505   -0.2327 H   0  0  0  0  0  0  0  0  0  0  0  0
   -0.2608    0.4613   -1.9606 C   0  0  0  0  0  0  0  0  0  0  0  0
    0.5427    1.4700   -2.5252 C   0  0  0  0  0  0  0  0  0  0  0  0
    0.5889    2.4475   -2.0663 H   0  0  0  0  0  0  0  0  0  0  0  0
    1.2978    1.2057   -3.6827 C   0  0  0  0  0  0  0  0  0  0  0  0
    1.9121    1.9824   -4.1161 H   0  0  0  0  0  0  0  0  0  0  0  0
    1.2524   -0.0671   -4.2764 C   0  0  0  0  0  0  0  0  0  0  0  0
    1.8307   -0.2694   -5.1670 H   0  0  0  0  0  0  0  0  0  0  0  0
    0.4493   -1.0769   -3.7156 C   0  0  0  0  0  0  0  0  0  0  0  0
    0.4101   -2.0537   -4.1749 H   0  0  0  0  0  0  0  0  0  0  0  0
   -0.3077   -0.8115   -2.5607 C   0  0  0  0  0  0  0  0  0  0  0  0
   -0.9278   -1.5882   -2.1322 H   0  0  0  0  0  0  0  0  0  0  0  0
   -0.6196    0.1253    1.7539 C   0  0  0  0  0  0  0  0  0  0  0  0
    0.5216    0.0194    2.2054 O   0  0  0  0  0  0  0  0  0  0  0  0
   -1.6152    0.6924    2.4469 N   0  0  0  0  0  0  0  0  0  0  0  0
   -2.5345    0.6914    2.0318 H   0  0  0  0  0  0  0  0  0  0  0  0
   -1.4720    1.2390    3.7941 C   0  0  0  0  0  0  0  0  0  0  0  0
   -0.6345    1.9391    3.8219 H   0  0  0  0  0  0  0  0  0  0  0  0
   -2.3844    1.7580    4.0892 H   0  0  0  0  0  0  0  0  0  0  0  0
   -1.2733    0.4298    4.4995 H   0  0  0  0  0  0  0  0  0  0  0  0
  5  6  2  0  0  0  0
  5  7  1  0  0  0  0
  2  3  1  0  0  0  0
  2  4  1  0  0  0  0
  2  5  1  0  0  0  0
  1  2  1  0  0  0  0
 25 26  2  0  0  0  0
 25 27  1  0  0  0  0
 23 24  1  0  0  0  0
 21 22  1  0  0  0  0
 21 23  2  0  0  0  0
 19 20  1  0  0  0  0
 19 21  1  0  0  0  0
 17 18  1  0  0  0  0
 17 19  2  0  0  0  0
 15 16  1  0  0  0  0
 15 17  1  0  0  0  0
 14 15  2  0  0  0  0
 14 23  1  0  0  0  0
 11 12  1  0  0  0  0
 11 13  1  0  0  0  0
 11 14  1  0  0  0  0
  9 10  1  0  0  0  0
  9 11  1  0  0  0  0
  9 25  1  0  0  0  0
  7  8  1  0  0  0  0
  7  9  1  0  0  0  0
 29 30  1  0  0  0  0
 29 31  1  0  0  0  0
 29 32  1  0  0  0  0
 27 28  1  0  0  0  0
 27 29  1  0  0  0  0
M  END
$$$$
default_name
  -OEChem-02102213163D

 32 32  0     1  0  0  0  0  0999 V2000
   -3.8405   -3.7518    1.6252 H   0  0  0  0  0  0  0  0  0  0  0  0
   -3.7965   -2.8768    0.9782 C   0  0  0  0  0  0  0  0  0  0  0  0
   -4.5465   -2.1527    1.2902 H   0  0  0  0  0  0  0  0  0  0  0  0
   -3.9745   -3.1748   -0.0538 H   0  0  0  0  0  0  0  0  0  0  0  0
   -2.4245   -2.2537    1.0882 C   0  0  0  0  0  0  0  0  0  0  0  0
   -1.5805   -2.7478    1.8242 O   0  0  0  0  0  0  0  0  0  0  0  0
   -2.2045   -1.1637    0.3562 N   0  0  0  0  0  0  0  0  0  0  0  0
   -2.9595   -0.7907   -0.2008 H   0  0  0  0  0  0  0  0  0  0  0  0
   -0.9485   -0.4087    0.3482 C   0  0  1  0  0  0  0  0  0  0  0  0
   -0.1408   -1.0795    0.0507 H   0  0  0  0  0  0  0  0  0  0  0  0
   -1.0432    0.7243   -0.6879 C   0  0  0  0  0  0  0  0  0  0  0  0
   -2.0897    0.8714   -0.9587 H   0  0  0  0  0  0  0  0  0  0  0  0
   -0.6894    1.6505   -0.2327 H   0  0  0  0  0  0  0  0  0  0  0  0
   -0.2608    0.4613   -1.9606 C   0  0  0  0  0  0  0  0  0  0  0  0
    0.7722    1.3323   -2.3556 C   0  0  0  0  0  0  0  0  0  0  0  0
    0.9992    2.2084   -1.7646 H   0  0  0  0  0  0  0  0  0  0  0  0
    1.5208    1.0593   -3.5153 C   0  0  0  0  0  0  0  0  0  0  0  0
    2.3119    1.7308   -3.8183 H   0  0  0  0  0  0  0  0  0  0  0  0
    1.2395   -0.0852   -4.2806 C   0  0  0  0  0  0  0  0  0  0  0  0
    1.8131   -0.2937   -5.1728 H   0  0  0  0  0  0  0  0  0  0  0  0
    0.2068   -0.9568   -3.8895 C   0  0  0  0  0  0  0  0  0  0  0  0
   -0.0132   -1.8337   -4.4806 H   0  0  0  0  0  0  0  0  0  0  0  0
   -0.5433   -0.6820   -2.7323 C   0  0  0  0  0  0  0  0  0  0  0  0
   -1.3396   -1.3515   -2.4343 H   0  0  0  0  0  0  0  0  0  0  0  0
   -0.6196    0.1253    1.7539 C   0  0  0  0  0  0  0  0  0  0  0  0
    0.5216    0.0194    2.2054 O   0  0  0  0  0  0  0  0  0  0  0  0
   -1.6152    0.6924    2.4469 N   0  0  0  0  0  0  0  0  0  0  0  0
   -2.5345    0.6914    2.0318 H   0  0  0  0  0  0  0  0  0  0  0  0
   -1.4720    1.2390    3.7941 C   0  0  0  0  0  0  0  0  0  0  0  0
   -0.6345    1.9391    3.8219 H   0  0  0  0  0  0  0  0  0  0  0  0
   -2.3844    1.7580    4.0892 H   0  0  0  0  0  0  0  0  0  0  0  0
   -1.2733    0.4298    4.4995 H   0  0  0  0  0  0  0  0  0  0  0  0
  5  6  2  0  0  0  0
  5  7  1  0  0  0  0
  2  3  1  0  0  0  0
  2  4  1  0  0  0  0
  2  5  1  0  0  0  0
  1  2  1  0  0  0  0
 25 26  2  0  0  0  0
 25 27  1  0  0  0  0
 23 24  1  0  0  0  0
 21 22  1  0  0  0  0
 21 23  2  0  0  0  0
 19 20  1  0  0  0  0
 19 21  1  0  0  0  0
 17 18  1  0  0  0  0
 17 19  2  0  0  0  0
 15 16  1  0  0  0  0
 15 17  1  0  0  0  0
 14 15  2  0  0  0  0
 14 23  1  0  0  0  0
 11 12  1  0  0  0  0
 11 13  1  0  0  0  0
 11 14  1  0  0  0  0
  9 10  1  0  0  0  0
  9 11  1  0  0  0  0
  9 25  1  0  0  0  0
  7  8  1  0  0  0  0
  7  9  1  0  0  0  0
 29 30  1  0  0  0  0
 29 31  1  0  0  0  0
 29 32  1  0  0  0  0
 27 28  1  0  0  0  0
 27 29  1  0  0  0  0
M  END
$$$$
default_name
  -OEChem-02102213163D

 32 32  0     1  0  0  0  0  0999 V2000
   -3.8405   -3.7518    1.6252 H   0  0  0  0  0  0  0  0  0  0  0  0
   -3.7965   -2.8768    0.9782 C   0  0  0  0  0  0  0  0  0  0  0  0
   -4.5465   -2.1527    1.2902 H   0  0  0  0  0  0  0  0  0  0  0  0
   -3.9745   -3.1748   -0.0538 H   0  0  0  0  0  0  0  0  0  0  0  0
   -2.4245   -2.2537    1.0882 C   0  0  0  0  0  0  0  0  0  0  0  0
   -1.5805   -2.7478    1.8242 O   0  0  0  0  0  0  0  0  0  0  0  0
   -2.2045   -1.1637    0.3562 N   0  0  0  0  0  0  0  0  0  0  0  0
   -2.9595   -0.7907   -0.2008 H   0  0  0  0  0  0  0  0  0  0  0  0
   -0.9485   -0.4087    0.3482 C   0  0  1  0  0  0  0  0  0  0  0  0
   -0.1408   -1.0795    0.0507 H   0  0  0  0  0  0  0  0  0  0  0  0
   -1.0432    0.7243   -0.6879 C   0  0  0  0  0  0  0  0  0  0  0  0
   -2.0897    0.8714   -0.9587 H   0  0  0  0  0  0  0  0  0  0  0  0
   -0.6894    1.6505   -0.2327 H   0  0  0  0  0  0  0  0  0  0  0  0
   -0.2608    0.4613   -1.9606 C   0  0  0  0  0  0  0  0  0  0  0  0
    0.9564    1.1268   -2.1999 C   0  0  0  0  0  0  0  0  0  0  0  0
    1.3301    1.8480   -1.4868 H   0  0  0  0  0  0  0  0  0  0  0  0
    1.6970    0.8470   -3.3632 C   0  0  0  0  0  0  0  0  0  0  0  0
    2.6301    1.3611   -3.5463 H   0  0  0  0  0  0  0  0  0  0  0  0
    1.2232   -0.0993   -4.2876 C   0  0  0  0  0  0  0  0  0  0  0  0
    1.7911   -0.3125   -5.1825 H   0  0  0  0  0  0  0  0  0  0  0  0
    0.0065   -0.7650   -4.0523 C   0  0  0  0  0  0  0  0  0  0  0  0
   -0.3605   -1.4885   -4.7654 H   0  0  0  0  0  0  0  0  0  0  0  0
   -0.7350   -0.4828   -2.8913 C   0  0  0  0  0  0  0  0  0  0  0  0
   -1.6726   -0.9932   -2.7130 H   0  0  0  0  0  0  0  0  0  0  0  0
   -0.6196    0.1253    1.7539 C   0  0  0  0  0  0  0  0  0  0  0  0
    0.5216    0.0194    2.2054 O   0  0  0  0  0  0  0  0  0  0  0  0
   -1.6152    0.6924    2.4469 N   0  0  0  0  0  0  0  0  0  0  0  0
   -2.5345    0.6914    2.0318 H   0  0  0  0  0  0  0  0  0  0  0  0
   -1.4720    1.2390    3.7941 C   0  0  0  0  0  0  0  0  0  0  0  0
   -0.6345    1.9391    3.8219 H   0  0  0  0  0  0  0  0  0  0  0  0
   -2.3844    1.7580    4.0892 H   0  0  0  0  0  0  0  0  0  0  0  0
   -1.2733    0.4298    4.4995 H   0  0  0  0  0  0  0  0  0  0  0  0
  5  6  2  0  0  0  0
  5  7  1  0  0  0  0
  2  3  1  0  0  0  0
  2  4  1  0  0  0  0
  2  5  1  0  0  0  0
  1  2  1  0  0  0  0
 25 26  2  0  0  0  0
 25 27  1  0  0  0  0
 23 24  1  0  0  0  0
 21 22  1  0  0  0  0
 21 23  2  0  0  0  0
 19 20  1  0  0  0  0
 19 21  1  0  0  0  0
 17 18  1  0  0  0  0
 17 19  2  0  0  0  0
 15 16  1  0  0  0  0
 15 17  1  0  0  0  0
 14 15  2  0  0  0  0
 14 23  1  0  0  0  0
 11 12  1  0  0  0  0
 11 13  1  0  0  0  0
 11 14  1  0  0  0  0
  9 10  1  0  0  0  0
  9 11  1  0  0  0  0
  9 25  1  0  0  0  0
  7  8  1  0  0  0  0
  7  9  1  0  0  0  0
 29 30  1  0  0  0  0
 29 31  1  0  0  0  0
 29 32  1  0  0  0  0
 27 28  1  0  0  0  0
 27 29  1  0  0  0  0
M  END
$$$$
default_name
  -OEChem-02102213163D

 32 32  0     1  0  0  0  0  0999 V2000
   -3.8405   -3.7518    1.6252 H   0  0  0  0  0  0  0  0  0  0  0  0
   -3.7965   -2.8768    0.9782 C   0  0  0  0  0  0  0  0  0  0  0  0
   -4.5465   -2.1527    1.2902 H   0  0  0  0  0  0  0  0  0  0  0  0
   -3.9745   -3.1748   -0.0538 H   0  0  0  0  0  0  0  0  0  0  0  0
   -2.4245   -2.2537    1.0882 C   0  0  0  0  0  0  0  0  0  0  0  0
   -1.5805   -2.7478    1.8242 O   0  0  0  0  0  0  0  0  0  0  0  0
   -2.2045   -1.1637    0.3562 N   0  0  0  0  0  0  0  0  0  0  0  0
   -2.9595   -0.7907   -0.2008 H   0  0  0  0  0  0  0  0  0  0  0  0
   -0.9485   -0.4087    0.3482 C   0  0  1  0  0  0  0  0  0  0  0  0
   -0.1408   -1.0795    0.0507 H   0  0  0  0  0  0  0  0  0  0  0  0
   -1.0432    0.7243   -0.6879 C   0  0  0  0  0  0  0  0  0  0  0  0
   -2.0897    0.8714   -0.9587 H   0  0  0  0  0  0  0  0  0  0  0  0
   -0.6894    1.6505   -0.2327 H   0  0  0  0  0  0  0  0  0  0  0  0
   -0.2608    0.4613   -1.9606 C   0  0  0  0  0  0  0  0  0  0  0  0
    1.0827    0.8676   -2.0687 C   0  0  0  0  0  0  0  0  0  0  0  0
    1.5589    1.3909   -1.2516 H   0  0  0  0  0  0  0  0  0  0  0  0
    1.8142    0.5835   -3.2366 C   0  0  0  0  0  0  0  0  0  0  0  0
    2.8450    0.8986   -3.3186 H   0  0  0  0  0  0  0  0  0  0  0  0
    1.2048   -0.1085   -4.2971 C   0  0  0  0  0  0  0  0  0  0  0  0
    1.7661   -0.3246   -5.1953 H   0  0  0  0  0  0  0  0  0  0  0  0
   -0.1380   -0.5145   -4.1929 C   0  0  0  0  0  0  0  0  0  0  0  0
   -0.6082   -1.0416   -5.0101 H   0  0  0  0  0  0  0  0  0  0  0  0
   -0.8698   -0.2275   -3.0269 C   0  0  0  0  0  0  0  0  0  0  0  0
   -1.9038   -0.5375   -2.9493 H   0  0  0  0  0  0  0  0  0  0  0  0
   -0.6196    0.1253    1.7539 C   0  0  0  0  0  0  0  0  0  0  0  0
    0.5216    0.0194    2.2054 O   0  0  0  0  0  0  0  0  0  0  0  0
   -1.6152    0.6924    2.4469 N   0  0  0  0  0  0  0  0  0  0  0  0
   -2.5345    0.6914    2.0318 H   0  0  0  0  0  0  0  0  0  0  0  0
   -1.4720    1.2390    3.7941 C   0  0  0  0  0  0  0  0  0  0  0  0
   -0.6345    1.9391    3.8219 H   0  0  0  0  0  0  0  0  0  0  0  0
   -2.3844    1.7580    4.0892 H   0  0  0  0  0  0  0  0  0  0  0  0
   -1.2733    0.4298    4.4995 H   0  0  0  0  0  0  0  0  0  0  0  0
  5  6  2  0  0  0  0
  5  7  1  0  0  0  0
  2  3  1  0  0  0  0
  2  4  1  0  0  0  0
  2  5  1  0  0  0  0
  1  2  1  0  0  0  0
 25 26  2  0  0  0  0
 25 27  1  0  0  0  0
 23 24  1  0  0  0  0
 21 22  1  0  0  0  0
 21 23  2  0  0  0  0
 19 20  1  0  0  0  0
 19 21  1  0  0  0  0
 17 18  1  0  0  0  0
 17 19  2  0  0  0  0
 15 16  1  0  0  0  0
 15 17  1  0  0  0  0
 14 15  2  0  0  0  0
 14 23  1  0  0  0  0
 11 12  1  0  0  0  0
 11 13  1  0  0  0  0
 11 14  1  0  0  0  0
  9 10  1  0  0  0  0
  9 11  1  0  0  0  0
  9 25  1  0  0  0  0
  7  8  1  0  0  0  0
  7  9  1  0  0  0  0
 29 30  1  0  0  0  0
 29 31  1  0  0  0  0
 29 32  1  0  0  0  0
 27 28  1  0  0  0  0
 27 29  1  0  0  0  0
M  END
$$$$
default_name
  -OEChem-02102213163D

 32 32  0     1  0  0  0  0  0999 V2000
   -3.8405   -3.7518    1.6252 H   0  0  0  0  0  0  0  0  0  0  0  0
   -3.7965   -2.8768    0.9782 C   0  0  0  0  0  0  0  0  0  0  0  0
   -4.5465   -2.1527    1.2902 H   0  0  0  0  0  0  0  0  0  0  0  0
   -3.9745   -3.1748   -0.0538 H   0  0  0  0  0  0  0  0  0  0  0  0
   -2.4245   -2.2537    1.0882 C   0  0  0  0  0  0  0  0  0  0  0  0
   -1.5805   -2.7478    1.8242 O   0  0  0  0  0  0  0  0  0  0  0  0
   -2.2045   -1.1637    0.3562 N   0  0  0  0  0  0  0  0  0  0  0  0
   -2.9595   -0.7907   -0.2008 H   0  0  0  0  0  0  0  0  0  0  0  0
   -0.9485   -0.4087    0.3482 C   0  0  1  0  0  0  0  0  0  0  0  0
   -0.1408   -1.0795    0.0507 H   0  0  0  0  0  0  0  0  0  0  0  0
   -1.0432    0.7243   -0.6879 C   0  0  0  0  0  0  0  0  0  0  0  0
   -2.0897    0.8714   -0.9587 H   0  0  0  0  0  0  0  0  0  0  0  0
   -0.6894    1.6505   -0.2327 H   0  0  0  0  0  0  0  0  0  0  0  0
   -0.2608    0.4613   -1.9606 C   0  0  0  0  0  0  0  0  0  0  0  0
    1.1426    0.5722   -1.9709 C   0  0  0  0  0  0  0  0  0  0  0  0
    1.6702    0.8684   -1.0752 H   0  0  0  0  0  0  0  0  0  0  0  0
    1.8646    0.2865   -3.1443 C   0  0  0  0  0  0  0  0  0  0  0  0
    2.9419    0.3748   -3.1508 H   0  0  0  0  0  0  0  0  0  0  0  0
    1.1855   -0.1120   -4.3082 C   0  0  0  0  0  0  0  0  0  0  0  0
    1.7400   -0.3292   -5.2104 H   0  0  0  0  0  0  0  0  0  0  0  0
   -0.2170   -0.2224   -4.3018 C   0  0  0  0  0  0  0  0  0  0  0  0
   -0.7395   -0.5234   -5.1979 H   0  0  0  0  0  0  0  0  0  0  0  0
   -0.9385    0.0664   -3.1298 C   0  0  0  0  0  0  0  0  0  0  0  0
   -2.0176   -0.0157   -3.1271 H   0  0  0  0  0  0  0  0  0  0  0  0
   -0.6196    0.1253    1.7539 C   0  0  0  0  0  0  0  0  0  0  0  0
    0.5216    0.0194    2.2054 O   0  0  0  0  0  0  0  0  0  0  0  0
   -1.6152    0.6924    2.4469 N   0  0  0  0  0  0  0  0  0  0  0  0
   -2.5345    0.6914    2.0318 H   0  0  0  0  0  0  0  0  0  0  0  0
   -1.4720    1.2390    3.7941 C   0  0  0  0  0  0  0  0  0  0  0  0
   -0.6345    1.9391    3.8219 H   0  0  0  0  0  0  0  0  0  0  0  0
   -2.3844    1.7580    4.0892 H   0  0  0  0  0  0  0  0  0  0  0  0
   -1.2733    0.4298    4.4995 H   0  0  0  0  0  0  0  0  0  0  0  0
  5  6  2  0  0  0  0
  5  7  1  0  0  0  0
  2  3  1  0  0  0  0
  2  4  1  0  0  0  0
  2  5  1  0  0  0  0
  1  2  1  0  0  0  0
 25 26  2  0  0  0  0
 25 27  1  0  0  0  0
 23 24  1  0  0  0  0
 21 22  1  0  0  0  0
 21 23  2  0  0  0  0
 19 20  1  0  0  0  0
 19 21  1  0  0  0  0
 17 18  1  0  0  0  0
 17 19  2  0  0  0  0
 15 16  1  0  0  0  0
 15 17  1  0  0  0  0
 14 15  2  0  0  0  0
 14 23  1  0  0  0  0
 11 12  1  0  0  0  0
 11 13  1  0  0  0  0
 11 14  1  0  0  0  0
  9 10  1  0  0  0  0
  9 11  1  0  0  0  0
  9 25  1  0  0  0  0
  7  8  1  0  0  0  0
  7  9  1  0  0  0  0
 29 30  1  0  0  0  0
 29 31  1  0  0  0  0
 29 32  1  0  0  0  0
 27 28  1  0  0  0  0
 27 29  1  0  0  0  0
M  END
$$$$
default_name
  -OEChem-02102213163D

 32 32  0     1  0  0  0  0  0999 V2000
   -3.8405   -3.7518    1.6252 H   0  0  0  0  0  0  0  0  0  0  0  0
   -3.7965   -2.8768    0.9782 C   0  0  0  0  0  0  0  0  0  0  0  0
   -4.5465   -2.1527    1.2902 H   0  0  0  0  0  0  0  0  0  0  0  0
   -3.9745   -3.1748   -0.0538 H   0  0  0  0  0  0  0  0  0  0  0  0
   -2.4245   -2.2537    1.0882 C   0  0  0  0  0  0  0  0  0  0  0  0
   -1.5805   -2.7478    1.8242 O   0  0  0  0  0  0  0  0  0  0  0  0
   -2.2045   -1.1637    0.3562 N   0  0  0  0  0  0  0  0  0  0  0  0
   -2.9595   -0.7907   -0.2008 H   0  0  0  0  0  0  0  0  0  0  0  0
   -0.9485   -0.4087    0.3482 C   0  0  1  0  0  0  0  0  0  0  0  0
   -0.1408   -1.0795    0.0507 H   0  0  0  0  0  0  0  0  0  0  0  0
   -1.0432    0.7243   -0.6879 C   0  0  0  0  0  0  0  0  0  0  0  0
   -2.0897    0.8714   -0.9587 H   0  0  0  0  0  0  0  0  0  0  0  0
   -0.6894    1.6505   -0.2327 H   0  0  0  0  0  0  0  0  0  0  0  0
   -0.2608    0.4613   -1.9606 C   0  0  0  0  0  0  0  0  0  0  0  0
    1.1318    0.2608   -1.9132 C   0  0  0  0  0  0  0  0  0  0  0  0
    1.6563    0.3159   -0.9696 H   0  0  0  0  0  0  0  0  0  0  0  0
    1.8446   -0.0235   -3.0926 C   0  0  0  0  0  0  0  0  0  0  0  0
    2.9142   -0.1746   -3.0543 H   0  0  0  0  0  0  0  0  0  0  0  0
    1.1665   -0.1098   -4.3203 C   0  0  0  0  0  0  0  0  0  0  0  0
    1.7145   -0.3259   -5.2268 H   0  0  0  0  0  0  0  0  0  0  0  0
   -0.2249    0.0915   -4.3715 C   0  0  0  0  0  0  0  0  0  0  0  0
   -0.7454    0.0306   -5.3160 H   0  0  0  0  0  0  0  0  0  0  0  0
   -0.9364    0.3789   -3.1931 C   0  0  0  0  0  0  0  0  0  0  0  0
   -2.0063    0.5369   -3.2343 H   0  0  0  0  0  0  0  0  0  0  0  0
   -0.6196    0.1253    1.7539 C   0  0  0  0  0  0  0  0  0  0  0  0
    0.5216    0.0194    2.2054 O   0  0  0  0  0  0  0  0  0  0  0  0
   -1.6152    0.6924    2.4469 N   0  0  0  0  0  0  0  0  0  0  0  0
   -2.5345    0.6914    2.0318 H   0  0  0  0  0  0  0  0  0  0  0  0
   -1.4720    1.2390    3.7941 C   0  0  0  0  0  0  0  0  0  0  0  0
   -0.6345    1.9391    3.8219 H   0  0  0  0  0  0  0  0  0  0  0  0
   -2.3844    1.7580    4.0892 H   0  0  0  0  0  0  0  0  0  0  0  0
   -1.2733    0.4298    4.4995 H   0  0  0  0  0  0  0  0  0  0  0  0
  5  6  2  0  0  0  0
  5  7  1  0  0  0  0
  2  3  1  0  0  0  0
  2  4  1  0  0  0  0
  2  5  1  0  0  0  0
  1  2  1  0  0  0  0
 25 26  2  0  0  0  0
 25 27  1  0  0  0  0
 23 24  1  0  0  0  0
 21 22  1  0  0  0  0
 21 23  2  0  0  0  0
 19 20  1  0  0  0  0
 19 21  1  0  0  0  0
 17 18  1  0  0  0  0
 17 19  2  0  0  0  0
 15 16  1  0  0  0  0
 15 17  1  0  0  0  0
 14 15  2  0  0  0  0
 14 23  1  0  0  0  0
 11 12  1  0  0  0  0
 11 13  1  0  0  0  0
 11 14  1  0  0  0  0
  9 10  1  0  0  0  0
  9 11  1  0  0  0  0
  9 25  1  0  0  0  0
  7  8  1  0  0  0  0
  7  9  1  0  0  0  0
 29 30  1  0  0  0  0
 29 31  1  0  0  0  0
 29 32  1  0  0  0  0
 27 28  1  0  0  0  0
 27 29  1  0  0  0  0
M  END
$$$$
default_name
  -OEChem-02102213163D

 32 32  0     1  0  0  0  0  0999 V2000
   -3.8405   -3.7518    1.6252 H   0  0  0  0  0  0  0  0  0  0  0  0
   -3.7965   -2.8768    0.9782 C   0  0  0  0  0  0  0  0  0  0  0  0
   -4.5465   -2.1527    1.2902 H   0  0  0  0  0  0  0  0  0  0  0  0
   -3.9745   -3.1748   -0.0538 H   0  0  0  0  0  0  0  0  0  0  0  0
   -2.4245   -2.2537    1.0882 C   0  0  0  0  0  0  0  0  0  0  0  0
   -1.5805   -2.7478    1.8242 O   0  0  0  0  0  0  0  0  0  0  0  0
   -2.2045   -1.1637    0.3562 N   0  0  0  0  0  0  0  0  0  0  0  0
   -2.9595   -0.7907   -0.2008 H   0  0  0  0  0  0  0  0  0  0  0  0
   -0.9485   -0.4087    0.3482 C   0  0  1  0  0  0  0  0  0  0  0  0
   -0.1408   -1.0795    0.0507 H   0  0  0  0  0  0  0  0  0  0  0  0
   -1.0432    0.7243   -0.6879 C   0  0  0  0  0  0  0  0  0  0  0  0
   -2.0897    0.8714   -0.9587 H   0  0  0  0  0  0  0  0  0  0  0  0
   -0.6894    1.6505   -0.2327 H   0  0  0  0  0  0  0  0  0  0  0  0
   -0.2608    0.4613   -1.9606 C   0  0  0  0  0  0  0  0  0  0  0  0
    1.0512   -0.0453   -1.8994 C   0  0  0  0  0  0  0  0  0  0  0  0
    1.5181   -0.2288   -0.9420 H   0  0  0  0  0  0  0  0  0  0  0  0
    1.7556   -0.3256   -3.0848 C   0  0  0  0  0  0  0  0  0  0  0  0
    2.7639   -0.7121   -3.0356 H   0  0  0  0  0  0  0  0  0  0  0  0
    1.1492   -0.1019   -4.3326 C   0  0  0  0  0  0  0  0  0  0  0  0
    1.6913   -0.3150   -5.2433 H   0  0  0  0  0  0  0  0  0  0  0  0
   -0.1612    0.4057   -4.3973 C   0  0  0  0  0  0  0  0  0  0  0  0
   -0.6254    0.5828   -5.3563 H   0  0  0  0  0  0  0  0  0  0  0  0
   -0.8636    0.6888   -3.2125 C   0  0  0  0  0  0  0  0  0  0  0  0
   -1.8705    1.0824   -3.2636 H   0  0  0  0  0  0  0  0  0  0  0  0
   -0.6196    0.1253    1.7539 C   0  0  0  0  0  0  0  0  0  0  0  0
    0.5216    0.0194    2.2054 O   0  0  0  0  0  0  0  0  0  0  0  0
   -1.6152    0.6924    2.4469 N   0  0  0  0  0  0  0  0  0  0  0  0
   -2.5345    0.6914    2.0318 H   0  0  0  0  0  0  0  0  0  0  0  0
   -1.4720    1.2390    3.7941 C   0  0  0  0  0  0  0  0  0  0  0  0
   -0.6345    1.9391    3.8219 H   0  0  0  0  0  0  0  0  0  0  0  0
   -2.3844    1.7580    4.0892 H   0  0  0  0  0  0  0  0  0  0  0  0
   -1.2733    0.4298    4.4995 H   0  0  0  0  0  0  0  0  0  0  0  0
  5  6  2  0  0  0  0
  5  7  1  0  0  0  0
  2  3  1  0  0  0  0
  2  4  1  0  0  0  0
  2  5  1  0  0  0  0
  1  2  1  0  0  0  0
 25 26  2  0  0  0  0
 25 27  1  0  0  0  0
 23 24  1  0  0  0  0
 21 22  1  0  0  0  0
 21 23  2  0  0  0  0
 19 20  1  0  0  0  0
 19 21  1  0  0  0  0
 17 18  1  0  0  0  0
 17 19  2  0  0  0  0
 15 16  1  0  0  0  0
 15 17  1  0  0  0  0
 14 15  2  0  0  0  0
 14 23  1  0  0  0  0
 11 12  1  0  0  0  0
 11 13  1  0  0  0  0
 11 14  1  0  0  0  0
  9 10  1  0  0  0  0
  9 11  1  0  0  0  0
  9 25  1  0  0  0  0
  7  8  1  0  0  0  0
  7  9  1  0  0  0  0
 29 30  1  0  0  0  0
 29 31  1  0  0  0  0
 29 32  1  0  0  0  0
 27 28  1  0  0  0  0
 27 29  1  0  0  0  0
M  END
$$$$
default_name
  -OEChem-02102213163D

 32 32  0     1  0  0  0  0  0999 V2000
   -3.8405   -3.7518    1.6252 H   0  0  0  0  0  0  0  0  0  0  0  0
   -3.7965   -2.8768    0.9782 C   0  0  0  0  0  0  0  0  0  0  0  0
   -4.5465   -2.1527    1.2902 H   0  0  0  0  0  0  0  0  0  0  0  0
   -3.9745   -3.1748   -0.0538 H   0  0  0  0  0  0  0  0  0  0  0  0
   -2.4245   -2.2537    1.0882 C   0  0  0  0  0  0  0  0  0  0  0  0
   -1.5805   -2.7478    1.8242 O   0  0  0  0  0  0  0  0  0  0  0  0
   -2.2045   -1.1637    0.3562 N   0  0  0  0  0  0  0  0  0  0  0  0
   -2.9595   -0.7907   -0.2008 H   0  0  0  0  0  0  0  0  0  0  0  0
   -0.9485   -0.4087    0.3482 C   0  0  1  0  0  0  0  0  0  0  0  0
   -0.1408   -1.0795    0.0507 H   0  0  0  0  0  0  0  0  0  0  0  0
   -1.0432    0.7243   -0.6879 C   0  0  0  0  0  0  0  0  0  0  0  0
   -2.0897    0.8714   -0.9587 H   0  0  0  0  0  0  0  0  0  0  0  0
   -0.6894    1.6505   -0.2327 H   0  0  0  0  0  0  0  0  0  0  0  0
   -0.2608    0.4613   -1.9606 C   0  0  0  0  0  0  0  0  0  0  0  0
    0.9063   -0.3253   -1.9307 C   0  0  0  0  0  0  0  0  0  0  0  0
    1.2651   -0.7286   -0.9942 H   0  0  0  0  0  0  0  0  0  0  0  0
    1.6037   -0.5991   -3.1217 C   0  0  0  0  0  0  0  0  0  0  0  0
    2.5011   -1.2012   -3.0961 H   0  0  0  0  0  0  0  0  0  0  0  0
    1.1348   -0.0889   -4.3442 C   0  0  0  0  0  0  0  0  0  0  0  0
    1.6719   -0.2973   -5.2589 H   0  0  0  0  0  0  0  0  0  0  0  0
   -0.0303    0.6988   -4.3774 C   0  0  0  0  0  0  0  0  0  0  0  0
   -0.3879    1.0956   -5.3162 H   0  0  0  0  0  0  0  0  0  0  0  0
   -0.7252    0.9750   -3.1865 C   0  0  0  0  0  0  0  0  0  0  0  0
   -1.6196    1.5838   -3.2129 H   0  0  0  0  0  0  0  0  0  0  0  0
   -0.6196    0.1253    1.7539 C   0  0  0  0  0  0  0  0  0  0  0  0
    0.5216    0.0194    2.2054 O   0  0  0  0  0  0  0  0  0  0  0  0
   -1.6152    0.6924    2.4469 N   0  0  0  0  0  0  0  0  0  0  0  0
   -2.5345    0.6914    2.0318 H   0  0  0  0  0  0  0  0  0  0  0  0
   -1.4720    1.2390    3.7941 C   0  0  0  0  0  0  0  0  0  0  0  0
   -0.6345    1.9391    3.8219 H   0  0  0  0  0  0  0  0  0  0  0  0
   -2.3844    1.7580    4.0892 H   0  0  0  0  0  0  0  0  0  0  0  0
   -1.2733    0.4298    4.4995 H   0  0  0  0  0  0  0  0  0  0  0  0
  5  6  2  0  0  0  0
  5  7  1  0  0  0  0
  2  3  1  0  0  0  0
  2  4  1  0  0  0  0
  2  5  1  0  0  0  0
  1  2  1  0  0  0  0
 25 26  2  0  0  0  0
 25 27  1  0  0  0  0
 23 24  1  0  0  0  0
 21 22  1  0  0  0  0
 21 23  2  0  0  0  0
 19 20  1  0  0  0  0
 19 21  1  0  0  0  0
 17 18  1  0  0  0  0
 17 19  2  0  0  0  0
 15 16  1  0  0  0  0
 15 17  1  0  0  0  0
 14 15  2  0  0  0  0
 14 23  1  0  0  0  0
 11 12  1  0  0  0  0
 11 13  1  0  0  0  0
 11 14  1  0  0  0  0
  9 10  1  0  0  0  0
  9 11  1  0  0  0  0
  9 25  1  0  0  0  0
  7  8  1  0  0  0  0
  7  9  1  0  0  0  0
 29 30  1  0  0  0  0
 29 31  1  0  0  0  0
 29 32  1  0  0  0  0
 27 28  1  0  0  0  0
 27 29  1  0  0  0  0
M  END
$$$$
default_name
  -OEChem-02102213163D

 32 32  0     1  0  0  0  0  0999 V2000
   -3.8405   -3.7518    1.6252 H   0  0  0  0  0  0  0  0  0  0  0  0
   -3.7965   -2.8768    0.9782 C   0  0  0  0  0  0  0  0  0  0  0  0
   -4.5465   -2.1527    1.2902 H   0  0  0  0  0  0  0  0  0  0  0  0
   -3.9745   -3.1748   -0.0538 H   0  0  0  0  0  0  0  0  0  0  0  0
   -2.4245   -2.2537    1.0882 C   0  0  0  0  0  0  0  0  0  0  0  0
   -1.5805   -2.7478    1.8242 O   0  0  0  0  0  0  0  0  0  0  0  0
   -2.2045   -1.1637    0.3562 N   0  0  0  0  0  0  0  0  0  0  0  0
   -2.9595   -0.7907   -0.2008 H   0  0  0  0  0  0  0  0  0  0  0  0
   -0.9485   -0.4087    0.3482 C   0  0  1  0  0  0  0  0  0  0  0  0
   -0.1408   -1.0795    0.0507 H   0  0  0  0  0  0  0  0  0  0  0  0
   -1.0432    0.7243   -0.6879 C   0  0  0  0  0  0  0  0  0  0  0  0
   -2.0897    0.8714   -0.9587 H   0  0  0  0  0  0  0  0  0  0  0  0
   -0.6894    1.6505   -0.2327 H   0  0  0  0  0  0  0  0  0  0  0  0
   -0.2608    0.4613   -1.9606 C   0  0  0  0  0  0  0  0  0  0  0  0
    0.7069   -0.5602   -2.0047 C   0  0  0  0  0  0  0  0  0  0  0  0
    0.9146   -1.1495   -1.1228 H   0  0  0  0  0  0  0  0  0  0  0  0
    1.3992   -0.8254   -3.2006 C   0  0  0  0  0  0  0  0  0  0  0  0
    2.1438   -1.6085   -3.2316 H   0  0  0  0  0  0  0  0  0  0  0  0
    1.1242   -0.0716   -4.3543 C   0  0  0  0  0  0  0  0  0  0  0  0
    1.6578   -0.2738   -5.2724 H   0  0  0  0  0  0  0  0  0  0  0  0
    0.1588    0.9508   -4.3132 C   0  0  0  0  0  0  0  0  0  0  0  0
   -0.0488    1.5339   -5.1984 H   0  0  0  0  0  0  0  0  0  0  0  0
   -0.5306    1.2178   -3.1170 C   0  0  0  0  0  0  0  0  0  0  0  0
   -1.2706    2.0069   -3.0858 H   0  0  0  0  0  0  0  0  0  0  0  0
   -0.6196    0.1253    1.7539 C   0  0  0  0  0  0  0  0  0  0  0  0
    0.5216    0.0194    2.2054 O   0  0  0  0  0  0  0  0  0  0  0  0
   -1.6152    0.6924    2.4469 N   0  0  0  0  0  0  0  0  0  0  0  0
   -2.5345    0.6914    2.0318 H   0  0  0  0  0  0  0  0  0  0  0  0
   -1.4720    1.2390    3.7941 C   0  0  0  0  0  0  0  0  0  0  0  0
   -0.6345    1.9391    3.8219 H   0  0  0  0  0  0  0  0  0  0  0  0
   -2.3844    1.7580    4.0892 H   0  0  0  0  0  0  0  0  0  0  0  0
   -1.2733    0.4298    4.4995 H   0  0  0  0  0  0  0  0  0  0  0  0
  5  6  2  0  0  0  0
  5  7  1  0  0  0  0
  2  3  1  0  0  0  0
  2  4  1  0  0  0  0
  2  5  1  0  0  0  0
  1  2  1  0  0  0  0
 25 26  2  0  0  0  0
 25 27  1  0  0  0  0
 23 24  1  0  0  0  0
 21 22  1  0  0  0  0
 21 23  2  0  0  0  0
 19 20  1  0  0  0  0
 19 21  1  0  0  0  0
 17 18  1  0  0  0  0
 17 19  2  0  0  0  0
 15 16  1  0  0  0  0
 15 17  1  0  0  0  0
 14 15  2  0  0  0  0
 14 23  1  0  0  0  0
 11 12  1  0  0  0  0
 11 13  1  0  0  0  0
 11 14  1  0  0  0  0
  9 10  1  0  0  0  0
  9 11  1  0  0  0  0
  9 25  1  0  0  0  0
  7  8  1  0  0  0  0
  7  9  1  0  0  0  0
 29 30  1  0  0  0  0
 29 31  1  0  0  0  0
 29 32  1  0  0  0  0
 27 28  1  0  0  0  0
 27 29  1  0  0  0  0
M  END
$$$$
default_name
  -OEChem-02102213163D

 32 32  0     1  0  0  0  0  0999 V2000
   -3.8405   -3.7518    1.6252 H   0  0  0  0  0  0  0  0  0  0  0  0
   -3.7965   -2.8768    0.9782 C   0  0  0  0  0  0  0  0  0  0  0  0
   -4.5465   -2.1527    1.2902 H   0  0  0  0  0  0  0  0  0  0  0  0
   -3.9745   -3.1748   -0.0538 H   0  0  0  0  0  0  0  0  0  0  0  0
   -2.4245   -2.2537    1.0882 C   0  0  0  0  0  0  0  0  0  0  0  0
   -1.5805   -2.7478    1.8242 O   0  0  0  0  0  0  0  0  0  0  0  0
   -2.2045   -1.1637    0.3562 N   0  0  0  0  0  0  0  0  0  0  0  0
   -2.9595   -0.7907   -0.2008 H   0  0  0  0  0  0  0  0  0  0  0  0
   -0.9485   -0.4087    0.3482 C   0  0  1  0  0  0  0  0  0  0  0  0
   -0.1408   -1.0795    0.0507 H   0  0  0  0  0  0  0  0  0  0  0  0
   -1.0432    0.7243   -0.6879 C   0  0  0  0  0  0  0  0  0  0  0  0
   -2.0897    0.8714   -0.9587 H   0  0  0  0  0  0  0  0  0  0  0  0
   -0.6894    1.6505   -0.2327 H   0  0  0  0  0  0  0  0  0  0  0  0
   -0.2608    0.4613   -1.9606 C   0  0  0  0  0  0  0  0  0  0  0  0
    0.4666   -0.7338   -2.1165 C   0  0  0  0  0  0  0  0  0  0  0  0
    0.4904   -1.4628   -1.3188 H   0  0  0  0  0  0  0  0  0  0  0  0
    1.1562   -0.9890   -3.3162 C   0  0  0  0  0  0  0  0  0  0  0  0
    1.7163   -1.9062   -3.4329 H   0  0  0  0  0  0  0  0  0  0  0  0
    1.1181   -0.0513   -4.3622 C   0  0  0  0  0  0  0  0  0  0  0  0
    1.6499   -0.2463   -5.2830 H   0  0  0  0  0  0  0  0  0  0  0  0
    0.3934    1.1446   -4.2090 C   0  0  0  0  0  0  0  0  0  0  0  0
    0.3685    1.8680   -5.0108 H   0  0  0  0  0  0  0  0  0  0  0  0
   -0.2929    1.4008   -3.0087 C   0  0  0  0  0  0  0  0  0  0  0  0
   -0.8473    2.3228   -2.8909 H   0  0  0  0  0  0  0  0  0  0  0  0
   -0.6196    0.1253    1.7539 C   0  0  0  0  0  0  0  0  0  0  0  0
    0.5216    0.0194    2.2054 O   0  0  0  0  0  0  0  0  0  0  0  0
   -1.6152    0.6924    2.4469 N   0  0  0  0  0  0  0  0  0  0  0  0
   -2.5345    0.6914    2.0318 H   0  0  0  0  0  0  0  0  0  0  0  0
   -1.4720    1.2390    3.7941 C   0  0  0  0  0  0  0  0  0  0  0  0
   -0.6345    1.9391    3.8219 H   0  0  0  0  0  0  0  0  0  0  0  0
   -2.3844    1.7580    4.0892 H   0  0  0  0  0  0  0  0  0  0  0  0
   -1.2733    0.4298    4.4995 H   0  0  0  0  0  0  0  0  0  0  0  0
  5  6  2  0  0  0  0
  5  7  1  0  0  0  0
  2  3  1  0  0  0  0
  2  4  1  0  0  0  0
  2  5  1  0  0  0  0
  1  2  1  0  0  0  0
 25 26  2  0  0  0  0
 25 27  1  0  0  0  0
 23 24  1  0  0  0  0
 21 22  1  0  0  0  0
 21 23  2  0  0  0  0
 19 20  1  0  0  0  0
 19 21  1  0  0  0  0
 17 18  1  0  0  0  0
 17 19  2  0  0  0  0
 15 16  1  0  0  0  0
 15 17  1  0  0  0  0
 14 15  2  0  0  0  0
 14 23  1  0  0  0  0
 11 12  1  0  0  0  0
 11 13  1  0  0  0  0
 11 14  1  0  0  0  0
  9 10  1  0  0  0  0
  9 11  1  0  0  0  0
  9 25  1  0  0  0  0
  7  8  1  0  0  0  0
  7  9  1  0  0  0  0
 29 30  1  0  0  0  0
 29 31  1  0  0  0  0
 29 32  1  0  0  0  0
 27 28  1  0  0  0  0
 27 29  1  0  0  0  0
M  END
$$$$
default_name
  -OEChem-02102213163D

 32 32  0     1  0  0  0  0  0999 V2000
   -3.8405   -3.7518    1.6252 H   0  0  0  0  0  0  0  0  0  0  0  0
   -3.7965   -2.8768    0.9782 C   0  0  0  0  0  0  0  0  0  0  0  0
   -4.5465   -2.1527    1.2902 H   0  0  0  0  0  0  0  0  0  0  0  0
   -3.9745   -3.1748   -0.0538 H   0  0  0  0  0  0  0  0  0  0  0  0
   -2.4245   -2.2537    1.0882 C   0  0  0  0  0  0  0  0  0  0  0  0
   -1.5805   -2.7478    1.8242 O   0  0  0  0  0  0  0  0  0  0  0  0
   -2.2045   -1.1637    0.3562 N   0  0  0  0  0  0  0  0  0  0  0  0
   -2.9595   -0.7907   -0.2008 H   0  0  0  0  0  0  0  0  0  0  0  0
   -0.9485   -0.4087    0.3482 C   0  0  1  0  0  0  0  0  0  0  0  0
   -0.1408   -1.0795    0.0507 H   0  0  0  0  0  0  0  0  0  0  0  0
   -1.0432    0.7243   -0.6879 C   0  0  0  0  0  0  0  0  0  0  0  0
   -2.0897    0.8714   -0.9587 H   0  0  0  0  0  0  0  0  0  0  0  0
   -0.6894    1.6505   -0.2327 H   0  0  0  0  0  0  0  0  0  0  0  0
   -0.2608    0.4613   -1.9606 C   0  0  0  0  0  0  0  0  0  0  0  0
    0.2019   -0.8345   -2.2585 C   0  0  0  0  0  0  0  0  0  0  0  0
    0.0214   -1.6471   -1.5691 H   0  0  0  0  0  0  0  0  0  0  0  0
    0.8910   -1.0788   -3.4607 C   0  0  0  0  0  0  0  0  0  0  0  0
    1.2477   -2.0740   -3.6863 H   0  0  0  0  0  0  0  0  0  0  0  0
    1.1171   -0.0293   -4.3674 C   0  0  0  0  0  0  0  0  0  0  0  0
    1.6486   -0.2166   -5.2899 H   0  0  0  0  0  0  0  0  0  0  0  0
    0.6574    1.2670   -4.0720 C   0  0  0  0  0  0  0  0  0  0  0  0
    0.8358    2.0750   -4.7664 H   0  0  0  0  0  0  0  0  0  0  0  0
   -0.0285    1.5116   -2.8690 C   0  0  0  0  0  0  0  0  0  0  0  0
   -0.3787    2.5100   -2.6415 H   0  0  0  0  0  0  0  0  0  0  0  0
   -0.6196    0.1253    1.7539 C   0  0  0  0  0  0  0  0  0  0  0  0
    0.5216    0.0194    2.2054 O   0  0  0  0  0  0  0  0  0  0  0  0
   -1.6152    0.6924    2.4469 N   0  0  0  0  0  0  0  0  0  0  0  0
   -2.5345    0.6914    2.0318 H   0  0  0  0  0  0  0  0  0  0  0  0
   -1.4720    1.2390    3.7941 C   0  0  0  0  0  0  0  0  0  0  0  0
   -0.6345    1.9391    3.8219 H   0  0  0  0  0  0  0  0  0  0  0  0
   -2.3844    1.7580    4.0892 H   0  0  0  0  0  0  0  0  0  0  0  0
   -1.2733    0.4298    4.4995 H   0  0  0  0  0  0  0  0  0  0  0  0
  5  6  2  0  0  0  0
  5  7  1  0  0  0  0
  2  3  1  0  0  0  0
  2  4  1  0  0  0  0
  2  5  1  0  0  0  0
  1  2  1  0  0  0  0
 25 26  2  0  0  0  0
 25 27  1  0  0  0  0
 23 24  1  0  0  0  0
 21 22  1  0  0  0  0
 21 23  2  0  0  0  0
 19 20  1  0  0  0  0
 19 21  1  0  0  0  0
 17 18  1  0  0  0  0
 17 19  2  0  0  0  0
 15 16  1  0  0  0  0
 15 17  1  0  0  0  0
 14 15  2  0  0  0  0
 14 23  1  0  0  0  0
 11 12  1  0  0  0  0
 11 13  1  0  0  0  0
 11 14  1  0  0  0  0
  9 10  1  0  0  0  0
  9 11  1  0  0  0  0
  9 25  1  0  0  0  0
  7  8  1  0  0  0  0
  7  9  1  0  0  0  0
 29 30  1  0  0  0  0
 29 31  1  0  0  0  0
 29 32  1  0  0  0  0
 27 28  1  0  0  0  0
 27 29  1  0  0  0  0
M  END
$$$$
default_name
  -OEChem-02102213163D

 32 32  0     1  0  0  0  0  0999 V2000
   -3.8405   -3.7518    1.6252 H   0  0  0  0  0  0  0  0  0  0  0  0
   -3.7965   -2.8768    0.9782 C   0  0  0  0  0  0  0  0  0  0  0  0
   -4.5465   -2.1527    1.2902 H   0  0  0  0  0  0  0  0  0  0  0  0
   -3.9745   -3.1748   -0.0538 H   0  0  0  0  0  0  0  0  0  0  0  0
   -2.4245   -2.2537    1.0882 C   0  0  0  0  0  0  0  0  0  0  0  0
   -1.5805   -2.7478    1.8242 O   0  0  0  0  0  0  0  0  0  0  0  0
   -2.2045   -1.1637    0.3562 N   0  0  0  0  0  0  0  0  0  0  0  0
   -2.9595   -0.7907   -0.2008 H   0  0  0  0  0  0  0  0  0  0  0  0
   -0.9485   -0.4087    0.3482 C   0  0  1  0  0  0  0  0  0  0  0  0
   -0.1408   -1.0795    0.0507 H   0  0  0  0  0  0  0  0  0  0  0  0
   -1.0432    0.7243   -0.6879 C   0  0  0  0  0  0  0  0  0  0  0  0
   -2.0897    0.8714   -0.9587 H   0  0  0  0  0  0  0  0  0  0  0  0
   -0.6894    1.6505   -0.2327 H   0  0  0  0  0  0  0  0  0  0  0  0
   -0.2608    0.4613   -1.9606 C   0  0  0  0  0  0  0  0  0  0  0  0
   -0.0694   -0.8552   -2.4210 C   0  0  0  0  0  0  0  0  0  0  0  0
   -0.4604   -1.6899   -1.8564 H   0  0  0  0  0  0  0  0  0  0  0  0
    0.6219   -1.0887   -3.6241 C   0  0  0  0  0  0  0  0  0  0  0  0
    0.7701   -2.1006   -3.9744 H   0  0  0  0  0  0  0  0  0  0  0  0
    1.1211   -0.0072   -4.3695 C   0  0  0  0  0  0  0  0  0  0  0  0
    1.6542   -0.1867   -5.2926 H   0  0  0  0  0  0  0  0  0  0  0  0
    0.9328    1.3096   -3.9115 C   0  0  0  0  0  0  0  0  0  0  0  0
    1.3211    2.1408   -4.4816 H   0  0  0  0  0  0  0  0  0  0  0  0
    0.2448    1.5425   -2.7075 C   0  0  0  0  0  0  0  0  0  0  0  0
    0.1035    2.5558   -2.3545 H   0  0  0  0  0  0  0  0  0  0  0  0
   -0.6196    0.1253    1.7539 C   0  0  0  0  0  0  0  0  0  0  0  0
    0.5216    0.0194    2.2054 O   0  0  0  0  0  0  0  0  0  0  0  0
   -1.6152    0.6924    2.4469 N   0  0  0  0  0  0  0  0  0  0  0  0
   -2.5345    0.6914    2.0318 H   0  0  0  0  0  0  0  0  0  0  0  0
   -1.4720    1.2390    3.7941 C   0  0  0  0  0  0  0  0  0  0  0  0
   -0.6345    1.9391    3.8219 H   0  0  0  0  0  0  0  0  0  0  0  0
   -2.3844    1.7580    4.0892 H   0  0  0  0  0  0  0  0  0  0  0  0
   -1.2733    0.4298    4.4995 H   0  0  0  0  0  0  0  0  0  0  0  0
  5  6  2  0  0  0  0
  5  7  1  0  0  0  0
  2  3  1  0  0  0  0
  2  4  1  0  0  0  0
  2  5  1  0  0  0  0
  1  2  1  0  0  0  0
 25 26  2  0  0  0  0
 25 27  1  0  0  0  0
 23 24  1  0  0  0  0
 21 22  1  0  0  0  0
 21 23  2  0  0  0  0
 19 20  1  0  0  0  0
 19 21  1  0  0  0  0
 17 18  1  0  0  0  0
 17 19  2  0  0  0  0
 15 16  1  0  0  0  0
 15 17  1  0  0  0  0
 14 15  2  0  0  0  0
 14 23  1  0  0  0  0
 11 12  1  0  0  0  0
 11 13  1  0  0  0  0
 11 14  1  0  0  0  0
  9 10  1  0  0  0  0
  9 11  1  0  0  0  0
  9 25  1  0  0  0  0
  7  8  1  0  0  0  0
  7  9  1  0  0  0  0
 29 30  1  0  0  0  0
 29 31  1  0  0  0  0
 29 32  1  0  0  0  0
 27 28  1  0  0  0  0
 27 29  1  0  0  0  0
M  END
$$$$
default_name
  -OEChem-02102213163D

 32 32  0     1  0  0  0  0  0999 V2000
   -3.8405   -3.7518    1.6252 H   0  0  0  0  0  0  0  0  0  0  0  0
   -3.7965   -2.8768    0.9782 C   0  0  0  0  0  0  0  0  0  0  0  0
   -4.5465   -2.1527    1.2902 H   0  0  0  0  0  0  0  0  0  0  0  0
   -3.9745   -3.1748   -0.0538 H   0  0  0  0  0  0  0  0  0  0  0  0
   -2.4245   -2.2537    1.0882 C   0  0  0  0  0  0  0  0  0  0  0  0
   -1.5805   -2.7478    1.8242 O   0  0  0  0  0  0  0  0  0  0  0  0
   -2.2045   -1.1637    0.3562 N   0  0  0  0  0  0  0  0  0  0  0  0
   -2.9595   -0.7907   -0.2008 H   0  0  0  0  0  0  0  0  0  0  0  0
   -0.9485   -0.4087    0.3482 C   0  0  1  0  0  0  0  0  0  0  0  0
   -0.1408   -1.0795    0.0507 H   0  0  0  0  0  0  0  0  0  0  0  0
   -1.0432    0.7243   -0.6879 C   0  0  0  0  0  0  0  0  0  0  0  0
   -2.0897    0.8714   -0.9587 H   0  0  0  0  0  0  0  0  0  0  0  0
   -0.6894    1.6505   -0.2327 H   0  0  0  0  0  0  0  0  0  0  0  0
   -0.2608    0.4613   -1.9606 C   0  0  0  0  0  0  0  0  0  0  0  0
   -0.3286   -0.7947   -2.5928 C   0  0  0  0  0  0  0  0  0  0  0  0
   -0.9222   -1.5882   -2.1613 H   0  0  0  0  0  0  0  0  0  0  0  0
    0.3671   -1.0181   -3.7953 C   0  0  0  0  0  0  0  0  0  0  0  0
    0.3158   -1.9841   -4.2778 H   0  0  0  0  0  0  0  0  0  0  0  0
    1.1298    0.0137   -4.3684 C   0  0  0  0  0  0  0  0  0  0  0  0
    1.6662   -0.1587   -5.2910 H   0  0  0  0  0  0  0  0  0  0  0  0
    1.2009    1.2695   -3.7384 C   0  0  0  0  0  0  0  0  0  0  0  0
    1.7914    2.0610   -4.1760 H   0  0  0  0  0  0  0  0  0  0  0  0
    0.5081    1.4914   -2.5350 C   0  0  0  0  0  0  0  0  0  0  0  0
    0.5663    2.4569   -2.0496 H   0  0  0  0  0  0  0  0  0  0  0  0
   -0.6196    0.1253    1.7539 C   0  0  0  0  0  0  0  0  0  0  0  0
    0.5216    0.0194    2.2054 O   0  0  0  0  0  0  0  0  0  0  0  0
   -1.6152    0.6924    2.4469 N   0  0  0  0  0  0  0  0  0  0  0  0
   -2.5345    0.6914    2.0318 H   0  0  0  0  0  0  0  0  0  0  0  0
   -1.4720    1.2390    3.7941 C   0  0  0  0  0  0  0  0  0  0  0  0
   -0.6345    1.9391    3.8219 H   0  0  0  0  0  0  0  0  0  0  0  0
   -2.3844    1.7580    4.0892 H   0  0  0  0  0  0  0  0  0  0  0  0
   -1.2733    0.4298    4.4995 H   0  0  0  0  0  0  0  0  0  0  0  0
  5  6  2  0  0  0  0
  5  7  1  0  0  0  0
  2  3  1  0  0  0  0
  2  4  1  0  0  0  0
  2  5  1  0  0  0  0
  1  2  1  0  0  0  0
 25 26  2  0  0  0  0
 25 27  1  0  0  0  0
 23 24  1  0  0  0  0
 21 22  1  0  0  0  0
 21 23  2  0  0  0  0
 19 20  1  0  0  0  0
 19 21  1  0  0  0  0
 17 18  1  0  0  0  0
 17 19  2  0  0  0  0
 15 16  1  0  0  0  0
 15 17  1  0  0  0  0
 14 15  2  0  0  0  0
 14 23  1  0  0  0  0
 11 12  1  0  0  0  0
 11 13  1  0  0  0  0
 11 14  1  0  0  0  0
  9 10  1  0  0  0  0
  9 11  1  0  0  0  0
  9 25  1  0  0  0  0
  7  8  1  0  0  0  0
  7  9  1  0  0  0  0
 29 30  1  0  0  0  0
 29 31  1  0  0  0  0
 29 32  1  0  0  0  0
 27 28  1  0  0  0  0
 27 29  1  0  0  0  0
M  END
$$$$
default_name
  -OEChem-02102213163D

 32 32  0     1  0  0  0  0  0999 V2000
   -3.8405   -3.7518    1.6252 H   0  0  0  0  0  0  0  0  0  0  0  0
   -3.7965   -2.8768    0.9782 C   0  0  0  0  0  0  0  0  0  0  0  0
   -4.5465   -2.1527    1.2902 H   0  0  0  0  0  0  0  0  0  0  0  0
   -3.9745   -3.1748   -0.0538 H   0  0  0  0  0  0  0  0  0  0  0  0
   -2.4245   -2.2537    1.0882 C   0  0  0  0  0  0  0  0  0  0  0  0
   -1.5805   -2.7478    1.8242 O   0  0  0  0  0  0  0  0  0  0  0  0
   -2.2045   -1.1637    0.3562 N   0  0  0  0  0  0  0  0  0  0  0  0
   -2.9595   -0.7907   -0.2008 H   0  0  0  0  0  0  0  0  0  0  0  0
   -0.9485   -0.4087    0.3482 C   0  0  1  0  0  0  0  0  0  0  0  0
   -0.1408   -1.0795    0.0507 H   0  0  0  0  0  0  0  0  0  0  0  0
   -1.0432    0.7243   -0.6879 C   0  0  0  0  0  0  0  0  0  0  0  0
   -2.0897    0.8714   -0.9587 H   0  0  0  0  0  0  0  0  0  0  0  0
   -0.6894    1.6505   -0.2327 H   0  0  0  0  0  0  0  0  0  0  0  0
   -0.2608    0.4613   -1.9606 C   0  0  0  0  0  0  0  0  0  0  0  0
   -0.5581   -0.6570   -2.7624 C   0  0  0  0  0  0  0  0  0  0  0  0
   -1.3325   -1.3490   -2.4630 H   0  0  0  0  0  0  0  0  0  0  0  0
    0.1441   -0.8716   -3.9627 C   0  0  0  0  0  0  0  0  0  0  0  0
   -0.0840   -1.7324   -4.5756 H   0  0  0  0  0  0  0  0  0  0  0  0
    1.1427    0.0317   -4.3642 C   0  0  0  0  0  0  0  0  0  0  0  0
    1.6838   -0.1345   -5.2852 H   0  0  0  0  0  0  0  0  0  0  0  0
    1.4433    1.1494   -3.5646 C   0  0  0  0  0  0  0  0  0  0  0  0
    2.2147    1.8410   -3.8703 H   0  0  0  0  0  0  0  0  0  0  0  0
    0.7437    1.3619   -2.3634 C   0  0  0  0  0  0  0  0  0  0  0  0
    0.9782    2.2203   -1.7475 H   0  0  0  0  0  0  0  0  0  0  0  0
   -0.6196    0.1253    1.7539 C   0  0  0  0  0  0  0  0  0  0  0  0
    0.5216    0.0194    2.2054 O   0  0  0  0  0  0  0  0  0  0  0  0
   -1.6152    0.6924    2.4469 N   0  0  0  0  0  0  0  0  0  0  0  0
   -2.5345    0.6914    2.0318 H   0  0  0  0  0  0  0  0  0  0  0  0
   -1.4720    1.2390    3.7941 C   0  0  0  0  0  0  0  0  0  0  0  0
   -0.6345    1.9391    3.8219 H   0  0  0  0  0  0  0  0  0  0  0  0
   -2.3844    1.7580    4.0892 H   0  0  0  0  0  0  0  0  0  0  0  0
   -1.2733    0.4298    4.4995 H   0  0  0  0  0  0  0  0  0  0  0  0
  5  6  2  0  0  0  0
  5  7  1  0  0  0  0
  2  3  1  0  0  0  0
  2  4  1  0  0  0  0
  2  5  1  0  0  0  0
  1  2  1  0  0  0  0
 25 26  2  0  0  0  0
 25 27  1  0  0  0  0
 23 24  1  0  0  0  0
 21 22  1  0  0  0  0
 21 23  2  0  0  0  0
 19 20  1  0  0  0  0
 19 21  1  0  0  0  0
 17 18  1  0  0  0  0
 17 19  2  0  0  0  0
 15 16  1  0  0  0  0
 15 17  1  0  0  0  0
 14 15  2  0  0  0  0
 14 23  1  0  0  0  0
 11 12  1  0  0  0  0
 11 13  1  0  0  0  0
 11 14  1  0  0  0  0
  9 10  1  0  0  0  0
  9 11  1  0  0  0  0
  9 25  1  0  0  0  0
  7  8  1  0  0  0  0
  7  9  1  0  0  0  0
 29 30  1  0  0  0  0
 29 31  1  0  0  0  0
 29 32  1  0  0  0  0
 27 28  1  0  0  0  0
 27 29  1  0  0  0  0
M  END
$$$$
default_name
  -OEChem-02102213163D

 32 32  0     1  0  0  0  0  0999 V2000
   -3.8405   -3.7518    1.6252 H   0  0  0  0  0  0  0  0  0  0  0  0
   -3.7965   -2.8768    0.9782 C   0  0  0  0  0  0  0  0  0  0  0  0
   -4.5465   -2.1527    1.2902 H   0  0  0  0  0  0  0  0  0  0  0  0
   -3.9745   -3.1748   -0.0538 H   0  0  0  0  0  0  0  0  0  0  0  0
   -2.4245   -2.2537    1.0882 C   0  0  0  0  0  0  0  0  0  0  0  0
   -1.5805   -2.7478    1.8242 O   0  0  0  0  0  0  0  0  0  0  0  0
   -2.2045   -1.1637    0.3562 N   0  0  0  0  0  0  0  0  0  0  0  0
   -2.9595   -0.7907   -0.2008 H   0  0  0  0  0  0  0  0  0  0  0  0
   -0.9485   -0.4087    0.3482 C   0  0  1  0  0  0  0  0  0  0  0  0
   -0.1408   -1.0795    0.0507 H   0  0  0  0  0  0  0  0  0  0  0  0
   -1.0432    0.7243   -0.6879 C   0  0  0  0  0  0  0  0  0  0  0  0
   -2.0897    0.8714   -0.9587 H   0  0  0  0  0  0  0  0  0  0  0  0
   -0.6894    1.6505   -0.2327 H   0  0  0  0  0  0  0  0  0  0  0  0
   -0.2608    0.4613   -1.9606 C   0  0  0  0  0  0  0  0  0  0  0  0
   -0.7423   -0.4515   -2.9181 C   0  0  0  0  0  0  0  0  0  0  0  0
   -1.6634   -0.9887   -2.7408 H   0  0  0  0  0  0  0  0  0  0  0  0
   -0.0321   -0.6594   -4.1148 C   0  0  0  0  0  0  0  0  0  0  0  0
   -0.4022   -1.3627   -4.8476 H   0  0  0  0  0  0  0  0  0  0  0  0
    1.1590    0.0458   -4.3571 C   0  0  0  0  0  0  0  0  0  0  0  0
    1.7058   -0.1157   -5.2756 H   0  0  0  0  0  0  0  0  0  0  0  0
    1.6437    0.9576   -3.4018 C   0  0  0  0  0  0  0  0  0  0  0  0
    2.5620    1.4958   -3.5855 H   0  0  0  0  0  0  0  0  0  0  0  0
    0.9354    1.1627   -2.2044 C   0  0  0  0  0  0  0  0  0  0  0  0
    1.3111    1.8619   -1.4688 H   0  0  0  0  0  0  0  0  0  0  0  0
   -0.6196    0.1253    1.7539 C   0  0  0  0  0  0  0  0  0  0  0  0
    0.5216    0.0194    2.2054 O   0  0  0  0  0  0  0  0  0  0  0  0
   -1.6152    0.6924    2.4469 N   0  0  0  0  0  0  0  0  0  0  0  0
   -2.5345    0.6914    2.0318 H   0  0  0  0  0  0  0  0  0  0  0  0
   -1.4720    1.2390    3.7941 C   0  0  0  0  0  0  0  0  0  0  0  0
   -0.6345    1.9391    3.8219 H   0  0  0  0  0  0  0  0  0  0  0  0
   -2.3844    1.7580    4.0892 H   0  0  0  0  0  0  0  0  0  0  0  0
   -1.2733    0.4298    4.4995 H   0  0  0  0  0  0  0  0  0  0  0  0
  5  6  2  0  0  0  0
  5  7  1  0  0  0  0
  2  3  1  0  0  0  0
  2  4  1  0  0  0  0
  2  5  1  0  0  0  0
  1  2  1  0  0  0  0
 25 26  2  0  0  0  0
 25 27  1  0  0  0  0
 23 24  1  0  0  0  0
 21 22  1  0  0  0  0
 21 23  2  0  0  0  0
 19 20  1  0  0  0  0
 19 21  1  0  0  0  0
 17 18  1  0  0  0  0
 17 19  2  0  0  0  0
 15 16  1  0  0  0  0
 15 17  1  0  0  0  0
 14 15  2  0  0  0  0
 14 23  1  0  0  0  0
 11 12  1  0  0  0  0
 11 13  1  0  0  0  0
 11 14  1  0  0  0  0
  9 10  1  0  0  0  0
  9 11  1  0  0  0  0
  9 25  1  0  0  0  0
  7  8  1  0  0  0  0
  7  9  1  0  0  0  0
 29 30  1  0  0  0  0
 29 31  1  0  0  0  0
 29 32  1  0  0  0  0
 27 28  1  0  0  0  0
 27 29  1  0  0  0  0
M  END
$$$$
default_name
  -OEChem-02102213163D

 32 32  0     1  0  0  0  0  0999 V2000
   -3.8405   -3.7518    1.6252 H   0  0  0  0  0  0  0  0  0  0  0  0
   -3.7965   -2.8768    0.9782 C   0  0  0  0  0  0  0  0  0  0  0  0
   -4.5465   -2.1527    1.2902 H   0  0  0  0  0  0  0  0  0  0  0  0
   -3.9745   -3.1748   -0.0538 H   0  0  0  0  0  0  0  0  0  0  0  0
   -2.4245   -2.2537    1.0882 C   0  0  0  0  0  0  0  0  0  0  0  0
   -1.5805   -2.7478    1.8242 O   0  0  0  0  0  0  0  0  0  0  0  0
   -2.2045   -1.1637    0.3562 N   0  0  0  0  0  0  0  0  0  0  0  0
   -2.9595   -0.7907   -0.2008 H   0  0  0  0  0  0  0  0  0  0  0  0
   -0.9485   -0.4087    0.3482 C   0  0  1  0  0  0  0  0  0  0  0  0
   -0.1408   -1.0795    0.0507 H   0  0  0  0  0  0  0  0  0  0  0  0
   -1.0432    0.7243   -0.6879 C   0  0  0  0  0  0  0  0  0  0  0  0
   -2.0897    0.8714   -0.9587 H   0  0  0  0  0  0  0  0  0  0  0  0
   -0.6894    1.6505   -0.2327 H   0  0  0  0  0  0  0  0  0  0  0  0
   -0.2608    0.4613   -1.9606 C   0  0  0  0  0  0  0  0  0  0  0  0
   -0.8686   -0.1923   -3.0493 C   0  0  0  0  0  0  0  0  0  0  0  0
   -1.8922   -0.5316   -2.9760 H   0  0  0  0  0  0  0  0  0  0  0  0
   -0.1493   -0.3958   -4.2414 C   0  0  0  0  0  0  0  0  0  0  0  0
   -0.6171   -0.9002   -5.0752 H   0  0  0  0  0  0  0  0  0  0  0  0
    1.1774    0.0550   -4.3477 C   0  0  0  0  0  0  0  0  0  0  0  0
    1.7307   -0.1035   -5.2627 H   0  0  0  0  0  0  0  0  0  0  0  0
    1.7882    0.7071   -3.2611 C   0  0  0  0  0  0  0  0  0  0  0  0
    2.8098    1.0488   -3.3408 H   0  0  0  0  0  0  0  0  0  0  0  0
    1.0702    0.9075   -2.0688 C   0  0  0  0  0  0  0  0  0  0  0  0
    1.5423    1.4063   -1.2325 H   0  0  0  0  0  0  0  0  0  0  0  0
   -0.6196    0.1253    1.7539 C   0  0  0  0  0  0  0  0  0  0  0  0
    0.5216    0.0194    2.2054 O   0  0  0  0  0  0  0  0  0  0  0  0
   -1.6152    0.6924    2.4469 N   0  0  0  0  0  0  0  0  0  0  0  0
   -2.5345    0.6914    2.0318 H   0  0  0  0  0  0  0  0  0  0  0  0
   -1.4720    1.2390    3.7941 C   0  0  0  0  0  0  0  0  0  0  0  0
   -0.6345    1.9391    3.8219 H   0  0  0  0  0  0  0  0  0  0  0  0
   -2.3844    1.7580    4.0892 H   0  0  0  0  0  0  0  0  0  0  0  0
   -1.2733    0.4298    4.4995 H   0  0  0  0  0  0  0  0  0  0  0  0
  5  6  2  0  0  0  0
  5  7  1  0  0  0  0
  2  3  1  0  0  0  0
  2  4  1  0  0  0  0
  2  5  1  0  0  0  0
  1  2  1  0  0  0  0
 25 26  2  0  0  0  0
 25 27  1  0  0  0  0
 23 24  1  0  0  0  0
 21 22  1  0  0  0  0
 21 23  2  0  0  0  0
 19 20  1  0  0  0  0
 19 21  1  0  0  0  0
 17 18  1  0  0  0  0
 17 19  2  0  0  0  0
 15 16  1  0  0  0  0
 15 17  1  0  0  0  0
 14 15  2  0  0  0  0
 14 23  1  0  0  0  0
 11 12  1  0  0  0  0
 11 13  1  0  0  0  0
 11 14  1  0  0  0  0
  9 10  1  0  0  0  0
  9 11  1  0  0  0  0
  9 25  1  0  0  0  0
  7  8  1  0  0  0  0
  7  9  1  0  0  0  0
 29 30  1  0  0  0  0
 29 31  1  0  0  0  0
 29 32  1  0  0  0  0
 27 28  1  0  0  0  0
 27 29  1  0  0  0  0
M  END
$$$$
default_name
  -OEChem-02102213163D

 32 32  0     1  0  0  0  0  0999 V2000
   -3.8405   -3.7518    1.6252 H   0  0  0  0  0  0  0  0  0  0  0  0
   -3.7965   -2.8768    0.9782 C   0  0  0  0  0  0  0  0  0  0  0  0
   -4.5465   -2.1527    1.2902 H   0  0  0  0  0  0  0  0  0  0  0  0
   -3.9745   -3.1748   -0.0538 H   0  0  0  0  0  0  0  0  0  0  0  0
   -2.4245   -2.2537    1.0882 C   0  0  0  0  0  0  0  0  0  0  0  0
   -1.5805   -2.7478    1.8242 O   0  0  0  0  0  0  0  0  0  0  0  0
   -2.2045   -1.1637    0.3562 N   0  0  0  0  0  0  0  0  0  0  0  0
   -2.9595   -0.7907   -0.2008 H   0  0  0  0  0  0  0  0  0  0  0  0
   -0.9485   -0.4087    0.3482 C   0  0  1  0  0  0  0  0  0  0  0  0
   -0.1408   -1.0795    0.0507 H   0  0  0  0  0  0  0  0  0  0  0  0
   -1.0432    0.7243   -0.6879 C   0  0  0  0  0  0  0  0  0  0  0  0
   -2.0897    0.8714   -0.9587 H   0  0  0  0  0  0  0  0  0  0  0  0
   -0.6894    1.6505   -0.2327 H   0  0  0  0  0  0  0  0  0  0  0  0
   -0.2608    0.4613   -1.9606 C   0  0  0  0  0  0  0  0  0  0  0  0
   -0.9285    0.1031   -3.1471 C   0  0  0  0  0  0  0  0  0  0  0  0
   -2.0035   -0.0091   -3.1523 H   0  0  0  0  0  0  0  0  0  0  0  0
   -0.1996   -0.0989   -4.3337 C   0  0  0  0  0  0  0  0  0  0  0  0
   -0.7140   -0.3764   -5.2430 H   0  0  0  0  0  0  0  0  0  0  0  0
    1.1967    0.0586   -4.3366 C   0  0  0  0  0  0  0  0  0  0  0  0
    1.7569   -0.0990   -5.2476 H   0  0  0  0  0  0  0  0  0  0  0  0
    1.8671    0.4150   -3.1523 C   0  0  0  0  0  0  0  0  0  0  0  0
    2.9410    0.5307   -3.1531 H   0  0  0  0  0  0  0  0  0  0  0  0
    1.1389    0.6136   -1.9659 C   0  0  0  0  0  0  0  0  0  0  0  0
    1.6562    0.8844   -1.0546 H   0  0  0  0  0  0  0  0  0  0  0  0
   -0.6196    0.1253    1.7539 C   0  0  0  0  0  0  0  0  0  0  0  0
    0.5216    0.0194    2.2054 O   0  0  0  0  0  0  0  0  0  0  0  0
   -1.6152    0.6924    2.4469 N   0  0  0  0  0  0  0  0  0  0  0  0
   -2.5345    0.6914    2.0318 H   0  0  0  0  0  0  0  0  0  0  0  0
   -1.4720    1.2390    3.7941 C   0  0  0  0  0  0  0  0  0  0  0  0
   -0.6345    1.9391    3.8219 H   0  0  0  0  0  0  0  0  0  0  0  0
   -2.3844    1.7580    4.0892 H   0  0  0  0  0  0  0  0  0  0  0  0
   -1.2733    0.4298    4.4995 H   0  0  0  0  0  0  0  0  0  0  0  0
  5  6  2  0  0  0  0
  5  7  1  0  0  0  0
  2  3  1  0  0  0  0
  2  4  1  0  0  0  0
  2  5  1  0  0  0  0
  1  2  1  0  0  0  0
 25 26  2  0  0  0  0
 25 27  1  0  0  0  0
 23 24  1  0  0  0  0
 21 22  1  0  0  0  0
 21 23  2  0  0  0  0
 19 20  1  0  0  0  0
 19 21  1  0  0  0  0
 17 18  1  0  0  0  0
 17 19  2  0  0  0  0
 15 16  1  0  0  0  0
 15 17  1  0  0  0  0
 14 15  2  0  0  0  0
 14 23  1  0  0  0  0
 11 12  1  0  0  0  0
 11 13  1  0  0  0  0
 11 14  1  0  0  0  0
  9 10  1  0  0  0  0
  9 11  1  0  0  0  0
  9 25  1  0  0  0  0
  7  8  1  0  0  0  0
  7  9  1  0  0  0  0
 29 30  1  0  0  0  0
 29 31  1  0  0  0  0
 29 32  1  0  0  0  0
 27 28  1  0  0  0  0
 27 29  1  0  0  0  0
M  END
$$$$
default_name
  -OEChem-02102213163D

 32 32  0     1  0  0  0  0  0999 V2000
   -3.8405   -3.7518    1.6252 H   0  0  0  0  0  0  0  0  0  0  0  0
   -3.7965   -2.8768    0.9782 C   0  0  0  0  0  0  0  0  0  0  0  0
   -4.5465   -2.1527    1.2902 H   0  0  0  0  0  0  0  0  0  0  0  0
   -3.9745   -3.1748   -0.0538 H   0  0  0  0  0  0  0  0  0  0  0  0
   -2.4245   -2.2537    1.0882 C   0  0  0  0  0  0  0  0  0  0  0  0
   -1.5805   -2.7478    1.8242 O   0  0  0  0  0  0  0  0  0  0  0  0
   -2.2045   -1.1637    0.3562 N   0  0  0  0  0  0  0  0  0  0  0  0
   -2.9595   -0.7907   -0.2008 H   0  0  0  0  0  0  0  0  0  0  0  0
   -0.9485   -0.4087    0.3482 C   0  0  1  0  0  0  0  0  0  0  0  0
   -0.1408   -1.0795    0.0507 H   0  0  0  0  0  0  0  0  0  0  0  0
   -1.0432    0.7243   -0.6879 C   0  0  0  0  0  0  0  0  0  0  0  0
   -2.0897    0.8714   -0.9587 H   0  0  0  0  0  0  0  0  0  0  0  0
   -0.6894    1.6505   -0.2327 H   0  0  0  0  0  0  0  0  0  0  0  0
   -0.2608    0.4613   -1.9606 C   0  0  0  0  0  0  0  0  0  0  0  0
   -0.9177    0.4145   -3.2049 C   0  0  0  0  0  0  0  0  0  0  0  0
   -1.9896    0.5434   -3.2579 H   0  0  0  0  0  0  0  0  0  0  0  0
   -0.1796    0.2112   -4.3854 C   0  0  0  0  0  0  0  0  0  0  0  0
   -0.6863    0.1730   -5.3396 H   0  0  0  0  0  0  0  0  0  0  0  0
    1.2157    0.0563   -4.3244 C   0  0  0  0  0  0  0  0  0  0  0  0
    1.7824   -0.1022   -5.2313 H   0  0  0  0  0  0  0  0  0  0  0  0
    1.8750    0.1011   -3.0826 C   0  0  0  0  0  0  0  0  0  0  0  0
    2.9469   -0.0234   -3.0350 H   0  0  0  0  0  0  0  0  0  0  0  0
    1.1368    0.3010   -1.9026 C   0  0  0  0  0  0  0  0  0  0  0  0
    1.6448    0.3319   -0.9475 H   0  0  0  0  0  0  0  0  0  0  0  0
   -0.6196    0.1253    1.7539 C   0  0  0  0  0  0  0  0  0  0  0  0
    0.5216    0.0194    2.2054 O   0  0  0  0  0  0  0  0  0  0  0  0
   -1.6152    0.6924    2.4469 N   0  0  0  0  0  0  0  0  0  0  0  0
   -2.5345    0.6914    2.0318 H   0  0  0  0  0  0  0  0  0  0  0  0
   -1.4720    1.2390    3.7941 C   0  0  0  0  0  0  0  0  0  0  0  0
   -0.6345    1.9391    3.8219 H   0  0  0  0  0  0  0  0  0  0  0  0
   -2.3844    1.7580    4.0892 H   0  0  0  0  0  0  0  0  0  0  0  0
   -1.2733    0.4298    4.4995 H   0  0  0  0  0  0  0  0  0  0  0  0
  5  6  2  0  0  0  0
  5  7  1  0  0  0  0
  2  3  1  0  0  0  0
  2  4  1  0  0  0  0
  2  5  1  0  0  0  0
  1  2  1  0  0  0  0
 25 26  2  0  0  0  0
 25 27  1  0  0  0  0
 23 24  1  0  0  0  0
 21 22  1  0  0  0  0
 21 23  2  0  0  0  0
 19 20  1  0  0  0  0
 19 21  1  0  0  0  0
 17 18  1  0  0  0  0
 17 19  2  0  0  0  0
 15 16  1  0  0  0  0
 15 17  1  0  0  0  0
 14 15  2  0  0  0  0
 14 23  1  0  0  0  0
 11 12  1  0  0  0  0
 11 13  1  0  0  0  0
 11 14  1  0  0  0  0
  9 10  1  0  0  0  0
  9 11  1  0  0  0  0
  9 25  1  0  0  0  0
  7  8  1  0  0  0  0
  7  9  1  0  0  0  0
 29 30  1  0  0  0  0
 29 31  1  0  0  0  0
 29 32  1  0  0  0  0
 27 28  1  0  0  0  0
 27 29  1  0  0  0  0
M  END
$$$$
default_name
  -OEChem-02102213163D

 32 32  0     1  0  0  0  0  0999 V2000
   -3.8405   -3.7518    1.6252 H   0  0  0  0  0  0  0  0  0  0  0  0
   -3.7965   -2.8768    0.9782 C   0  0  0  0  0  0  0  0  0  0  0  0
   -4.5465   -2.1527    1.2902 H   0  0  0  0  0  0  0  0  0  0  0  0
   -3.9745   -3.1748   -0.0538 H   0  0  0  0  0  0  0  0  0  0  0  0
   -2.4245   -2.2537    1.0882 C   0  0  0  0  0  0  0  0  0  0  0  0
   -1.5805   -2.7478    1.8242 O   0  0  0  0  0  0  0  0  0  0  0  0
   -2.2045   -1.1637    0.3562 N   0  0  0  0  0  0  0  0  0  0  0  0
   -2.9595   -0.7907   -0.2008 H   0  0  0  0  0  0  0  0  0  0  0  0
   -0.9485   -0.4087    0.3482 C   0  0  1  0  0  0  0  0  0  0  0  0
   -0.1408   -1.0795    0.0507 H   0  0  0  0  0  0  0  0  0  0  0  0
   -1.0432    0.7243   -0.6879 C   0  0  0  0  0  0  0  0  0  0  0  0
   -2.0897    0.8714   -0.9587 H   0  0  0  0  0  0  0  0  0  0  0  0
   -0.6894    1.6505   -0.2327 H   0  0  0  0  0  0  0  0  0  0  0  0
   -0.2608    0.4613   -1.9606 C   0  0  0  0  0  0  0  0  0  0  0  0
   -0.8371    0.7206   -3.2186 C   0  0  0  0  0  0  0  0  0  0  0  0
   -1.8514    1.0881   -3.2856 H   0  0  0  0  0  0  0  0  0  0  0  0
   -0.0907    0.5132   -4.3932 C   0  0  0  0  0  0  0  0  0  0  0  0
   -0.5360    0.7105   -5.3582 H   0  0  0  0  0  0  0  0  0  0  0  0
    1.2330    0.0484   -4.3122 C   0  0  0  0  0  0  0  0  0  0  0  0
    1.8056   -0.1131   -5.2147 H   0  0  0  0  0  0  0  0  0  0  0  0
    1.8114   -0.2131   -3.0568 C   0  0  0  0  0  0  0  0  0  0  0  0
    2.8270   -0.5756   -2.9946 H   0  0  0  0  0  0  0  0  0  0  0  0
    1.0640   -0.0089   -1.8832 C   0  0  0  0  0  0  0  0  0  0  0  0
    1.5090   -0.2137   -0.9182 H   0  0  0  0  0  0  0  0  0  0  0  0
   -0.6196    0.1253    1.7539 C   0  0  0  0  0  0  0  0  0  0  0  0
    0.5216    0.0194    2.2054 O   0  0  0  0  0  0  0  0  0  0  0  0
   -1.6152    0.6924    2.4469 N   0  0  0  0  0  0  0  0  0  0  0  0
   -2.5345    0.6914    2.0318 H   0  0  0  0  0  0  0  0  0  0  0  0
   -1.4720    1.2390    3.7941 C   0  0  0  0  0  0  0  0  0  0  0  0
   -0.6345    1.9391    3.8219 H   0  0  0  0  0  0  0  0  0  0  0  0
   -2.3844    1.7580    4.0892 H   0  0  0  0  0  0  0  0  0  0  0  0
   -1.2733    0.4298    4.4995 H   0  0  0  0  0  0  0  0  0  0  0  0
  5  6  2  0  0  0  0
  5  7  1  0  0  0  0
  2  3  1  0  0  0  0
  2  4  1  0  0  0  0
  2  5  1  0  0  0  0
  1  2  1  0  0  0  0
 25 26  2  0  0  0  0
 25 27  1  0  0  0  0
 23 24  1  0  0  0  0
 21 22  1  0  0  0  0
 21 23  2  0  0  0  0
 19 20  1  0  0  0  0
 19 21  1  0  0  0  0
 17 18  1  0  0  0  0
 17 19  2  0  0  0  0
 15 16  1  0  0  0  0
 15 17  1  0  0  0  0
 14 15  2  0  0  0  0
 14 23  1  0  0  0  0
 11 12  1  0  0  0  0
 11 13  1  0  0  0  0
 11 14  1  0  0  0  0
  9 10  1  0  0  0  0
  9 11  1  0  0  0  0
  9 25  1  0  0  0  0
  7  8  1  0  0  0  0
  7  9  1  0  0  0  0
 29 30  1  0  0  0  0
 29 31  1  0  0  0  0
 29 32  1  0  0  0  0
 27 28  1  0  0  0  0
 27 29  1  0  0  0  0
M  END
$$$$
default_name
  -OEChem-02102213163D

 32 32  0     1  0  0  0  0  0999 V2000
   -3.8405   -3.7518    1.6252 H   0  0  0  0  0  0  0  0  0  0  0  0
   -3.7965   -2.8768    0.9782 C   0  0  0  0  0  0  0  0  0  0  0  0
   -4.5465   -2.1527    1.2902 H   0  0  0  0  0  0  0  0  0  0  0  0
   -3.9745   -3.1748   -0.0538 H   0  0  0  0  0  0  0  0  0  0  0  0
   -2.4245   -2.2537    1.0882 C   0  0  0  0  0  0  0  0  0  0  0  0
   -1.5805   -2.7478    1.8242 O   0  0  0  0  0  0  0  0  0  0  0  0
   -2.2045   -1.1637    0.3562 N   0  0  0  0  0  0  0  0  0  0  0  0
   -2.9595   -0.7907   -0.2008 H   0  0  0  0  0  0  0  0  0  0  0  0
   -0.9485   -0.4087    0.3482 C   0  0  1  0  0  0  0  0  0  0  0  0
   -0.1408   -1.0795    0.0507 H   0  0  0  0  0  0  0  0  0  0  0  0
   -1.0432    0.7243   -0.6879 C   0  0  0  0  0  0  0  0  0  0  0  0
   -2.0897    0.8714   -0.9587 H   0  0  0  0  0  0  0  0  0  0  0  0
   -0.6894    1.6505   -0.2327 H   0  0  0  0  0  0  0  0  0  0  0  0
   -0.2608    0.4613   -1.9606 C   0  0  0  0  0  0  0  0  0  0  0  0
   -0.6922    1.0006   -3.1874 C   0  0  0  0  0  0  0  0  0  0  0  0
   -1.5984    1.5879   -3.2333 H   0  0  0  0  0  0  0  0  0  0  0  0
    0.0612    0.7867   -4.3563 C   0  0  0  0  0  0  0  0  0  0  0  0
   -0.2732    1.1996   -5.2977 H   0  0  0  0  0  0  0  0  0  0  0  0
    1.2474    0.0354   -4.3006 C   0  0  0  0  0  0  0  0  0  0  0  0
    1.8250   -0.1309   -5.1992 H   0  0  0  0  0  0  0  0  0  0  0  0
    1.6805   -0.5062   -3.0766 C   0  0  0  0  0  0  0  0  0  0  0  0
    2.5894   -1.0883   -3.0347 H   0  0  0  0  0  0  0  0  0  0  0  0
    0.9256   -0.2950   -1.9092 C   0  0  0  0  0  0  0  0  0  0  0  0
    1.2581   -0.7151   -0.9688 H   0  0  0  0  0  0  0  0  0  0  0  0
   -0.6196    0.1253    1.7539 C   0  0  0  0  0  0  0  0  0  0  0  0
    0.5216    0.0194    2.2054 O   0  0  0  0  0  0  0  0  0  0  0  0
   -1.6152    0.6924    2.4469 N   0  0  0  0  0  0  0  0  0  0  0  0
   -2.5345    0.6914    2.0318 H   0  0  0  0  0  0  0  0  0  0  0  0
   -1.4720    1.2390    3.7941 C   0  0  0  0  0  0  0  0  0  0  0  0
   -0.6345    1.9391    3.8219 H   0  0  0  0  0  0  0  0  0  0  0  0
   -2.3844    1.7580    4.0892 H   0  0  0  0  0  0  0  0  0  0  0  0
   -1.2733    0.4298    4.4995 H   0  0  0  0  0  0  0  0  0  0  0  0
  5  6  2  0  0  0  0
  5  7  1  0  0  0  0
  2  3  1  0  0  0  0
  2  4  1  0  0  0  0
  2  5  1  0  0  0  0
  1  2  1  0  0  0  0
 25 26  2  0  0  0  0
 25 27  1  0  0  0  0
 23 24  1  0  0  0  0
 21 22  1  0  0  0  0
 21 23  2  0  0  0  0
 19 20  1  0  0  0  0
 19 21  1  0  0  0  0
 17 18  1  0  0  0  0
 17 19  2  0  0  0  0
 15 16  1  0  0  0  0
 15 17  1  0  0  0  0
 14 15  2  0  0  0  0
 14 23  1  0  0  0  0
 11 12  1  0  0  0  0
 11 13  1  0  0  0  0
 11 14  1  0  0  0  0
  9 10  1  0  0  0  0
  9 11  1  0  0  0  0
  9 25  1  0  0  0  0
  7  8  1  0  0  0  0
  7  9  1  0  0  0  0
 29 30  1  0  0  0  0
 29 31  1  0  0  0  0
 29 32  1  0  0  0  0
 27 28  1  0  0  0  0
 27 29  1  0  0  0  0
M  END
$$$$
default_name
  -OEChem-02102213163D

 32 32  0     1  0  0  0  0  0999 V2000
   -3.8405   -3.7518    1.6252 H   0  0  0  0  0  0  0  0  0  0  0  0
   -3.7965   -2.8768    0.9782 C   0  0  0  0  0  0  0  0  0  0  0  0
   -4.5465   -2.1527    1.2902 H   0  0  0  0  0  0  0  0  0  0  0  0
   -3.9745   -3.1748   -0.0538 H   0  0  0  0  0  0  0  0  0  0  0  0
   -2.4245   -2.2537    1.0882 C   0  0  0  0  0  0  0  0  0  0  0  0
   -1.5805   -2.7478    1.8242 O   0  0  0  0  0  0  0  0  0  0  0  0
   -2.2045   -1.1637    0.3562 N   0  0  0  0  0  0  0  0  0  0  0  0
   -2.9595   -0.7907   -0.2008 H   0  0  0  0  0  0  0  0  0  0  0  0
   -0.9485   -0.4087    0.3482 C   0  0  1  0  0  0  0  0  0  0  0  0
   -0.1408   -1.0795    0.0507 H   0  0  0  0  0  0  0  0  0  0  0  0
   -1.0432    0.7243   -0.6879 C   0  0  0  0  0  0  0  0  0  0  0  0
   -2.0897    0.8714   -0.9587 H   0  0  0  0  0  0  0  0  0  0  0  0
   -0.6894    1.6505   -0.2327 H   0  0  0  0  0  0  0  0  0  0  0  0
   -0.2608    0.4613   -1.9606 C   0  0  0  0  0  0  0  0  0  0  0  0
   -0.4928    1.2355   -3.1133 C   0  0  0  0  0  0  0  0  0  0  0  0
   -1.2479    2.0088   -3.1048 H   0  0  0  0  0  0  0  0  0  0  0  0
    0.2657    1.0130   -4.2774 C   0  0  0  0  0  0  0  0  0  0  0  0
    0.0842    1.6068   -5.1622 H   0  0  0  0  0  0  0  0  0  0  0  0
    1.2580    0.0182   -4.2905 C   0  0  0  0  0  0  0  0  0  0  0  0
    1.8391   -0.1543   -5.1856 H   0  0  0  0  0  0  0  0  0  0  0  0
    1.4913   -0.7582   -3.1409 C   0  0  0  0  0  0  0  0  0  0  0  0
    2.2504   -1.5266   -3.1525 H   0  0  0  0  0  0  0  0  0  0  0  0
    0.7309   -0.5379   -1.9787 C   0  0  0  0  0  0  0  0  0  0  0  0
    0.9091   -1.1381   -1.0959 H   0  0  0  0  0  0  0  0  0  0  0  0
   -0.6196    0.1253    1.7539 C   0  0  0  0  0  0  0  0  0  0  0  0
    0.5216    0.0194    2.2054 O   0  0  0  0  0  0  0  0  0  0  0  0
   -1.6152    0.6924    2.4469 N   0  0  0  0  0  0  0  0  0  0  0  0
   -2.5345    0.6914    2.0318 H   0  0  0  0  0  0  0  0  0  0  0  0
   -1.4720    1.2390    3.7941 C   0  0  0  0  0  0  0  0  0  0  0  0
   -0.6345    1.9391    3.8219 H   0  0  0  0  0  0  0  0  0  0  0  0
   -2.3844    1.7580    4.0892 H   0  0  0  0  0  0  0  0  0  0  0  0
   -1.2733    0.4298    4.4995 H   0  0  0  0  0  0  0  0  0  0  0  0
  5  6  2  0  0  0  0
  5  7  1  0  0  0  0
  2  3  1  0  0  0  0
  2  4  1  0  0  0  0
  2  5  1  0  0  0  0
  1  2  1  0  0  0  0
 25 26  2  0  0  0  0
 25 27  1  0  0  0  0
 23 24  1  0  0  0  0
 21 22  1  0  0  0  0
 21 23  2  0  0  0  0
 19 20  1  0  0  0  0
 19 21  1  0  0  0  0
 17 18  1  0  0  0  0
 17 19  2  0  0  0  0
 15 16  1  0  0  0  0
 15 17  1  0  0  0  0
 14 15  2  0  0  0  0
 14 23  1  0  0  0  0
 11 12  1  0  0  0  0
 11 13  1  0  0  0  0
 11 14  1  0  0  0  0
  9 10  1  0  0  0  0
  9 11  1  0  0  0  0
  9 25  1  0  0  0  0
  7  8  1  0  0  0  0
  7  9  1  0  0  0  0
 29 30  1  0  0  0  0
 29 31  1  0  0  0  0
 29 32  1  0  0  0  0
 27 28  1  0  0  0  0
 27 29  1  0  0  0  0
M  END
$$$$
default_name
  -OEChem-02102213163D

 32 32  0     1  0  0  0  0  0999 V2000
   -3.8405   -3.7518    1.6252 H   0  0  0  0  0  0  0  0  0  0  0  0
   -3.7965   -2.8768    0.9782 C   0  0  0  0  0  0  0  0  0  0  0  0
   -4.5465   -2.1527    1.2902 H   0  0  0  0  0  0  0  0  0  0  0  0
   -3.9745   -3.1748   -0.0538 H   0  0  0  0  0  0  0  0  0  0  0  0
   -2.4245   -2.2537    1.0882 C   0  0  0  0  0  0  0  0  0  0  0  0
   -1.5805   -2.7478    1.8242 O   0  0  0  0  0  0  0  0  0  0  0  0
   -2.2045   -1.1637    0.3562 N   0  0  0  0  0  0  0  0  0  0  0  0
   -2.9595   -0.7907   -0.2008 H   0  0  0  0  0  0  0  0  0  0  0  0
   -0.9485   -0.4087    0.3482 C   0  0  1  0  0  0  0  0  0  0  0  0
   -0.1408   -1.0795    0.0507 H   0  0  0  0  0  0  0  0  0  0  0  0
   -1.0432    0.7243   -0.6879 C   0  0  0  0  0  0  0  0  0  0  0  0
   -2.0807    1.0535   -0.7605 H   0  0  0  0  0  0  0  0  0  0  0  0
   -0.4539    1.5734   -0.3385 H   0  0  0  0  0  0  0  0  0  0  0  0
   -0.5772    0.3291   -2.0763 C   0  0  0  0  0  0  0  0  0  0  0  0
   -0.6054    1.2617   -3.1305 C   0  0  0  0  0  0  0  0  0  0  0  0
   -0.9815    2.2608   -2.9614 H   0  0  0  0  0  0  0  0  0  0  0  0
   -0.1329    0.9000   -4.4056 C   0  0  0  0  0  0  0  0  0  0  0  0
   -0.1578    1.6168   -5.2143 H   0  0  0  0  0  0  0  0  0  0  0  0
    0.3699   -0.3931   -4.6284 C   0  0  0  0  0  0  0  0  0  0  0  0
    0.7306   -0.6717   -5.6087 H   0  0  0  0  0  0  0  0  0  0  0  0
    0.3980   -1.3279   -3.5776 C   0  0  0  0  0  0  0  0  0  0  0  0
    0.7794   -2.3237   -3.7501 H   0  0  0  0  0  0  0  0  0  0  0  0
   -0.0773   -0.9673   -2.3042 C   0  0  0  0  0  0  0  0  0  0  0  0
   -0.0582   -1.6884   -1.4974 H   0  0  0  0  0  0  0  0  0  0  0  0
   -0.6196    0.1253    1.7539 C   0  0  0  0  0  0  0  0  0  0  0  0
    0.5216    0.0194    2.2054 O   0  0  0  0  0  0  0  0  0  0  0  0
   -1.6152    0.6924    2.4469 N   0  0  0  0  0  0  0  0  0  0  0  0
   -2.5345    0.6914    2.0318 H   0  0  0  0  0  0  0  0  0  0  0  0
   -1.4720    1.2390    3.7941 C   0  0  0  0  0  0  0  0  0  0  0  0
   -0.6345    1.9391    3.8219 H   0  0  0  0  0  0  0  0  0  0  0  0
   -2.3844    1.7580    4.0892 H   0  0  0  0  0  0  0  0  0  0  0  0
   -1.2733    0.4298    4.4995 H   0  0  0  0  0  0  0  0  0  0  0  0
  5  6  2  0  0  0  0
  5  7  1  0  0  0  0
  2  3  1  0  0  0  0
  2  4  1  0  0  0  0
  2  5  1  0  0  0  0
  1  2  1  0  0  0  0
 25 26  2  0  0  0  0
 25 27  1  0  0  0  0
 23 24  1  0  0  0  0
 21 22  1  0  0  0  0
 21 23  2  0  0  0  0
 19 20  1  0  0  0  0
 19 21  1  0  0  0  0
 17 18  1  0  0  0  0
 17 19  2  0  0  0  0
 15 16  1  0  0  0  0
 15 17  1  0  0  0  0
 14 15  2  0  0  0  0
 14 23  1  0  0  0  0
 11 12  1  0  0  0  0
 11 13  1  0  0  0  0
 11 14  1  0  0  0  0
  9 10  1  0  0  0  0
  9 11  1  0  0  0  0
  9 25  1  0  0  0  0
  7  8  1  0  0  0  0
  7  9  1  0  0  0  0
 29 30  1  0  0  0  0
 29 31  1  0  0  0  0
 29 32  1  0  0  0  0
 27 28  1  0  0  0  0
 27 29  1  0  0  0  0
M  END
$$$$
default_name
  -OEChem-02102213163D

 32 32  0     1  0  0  0  0  0999 V2000
   -3.8405   -3.7518    1.6252 H   0  0  0  0  0  0  0  0  0  0  0  0
   -3.7965   -2.8768    0.9782 C   0  0  0  0  0  0  0  0  0  0  0  0
   -4.5465   -2.1527    1.2902 H   0  0  0  0  0  0  0  0  0  0  0  0
   -3.9745   -3.1748   -0.0538 H   0  0  0  0  0  0  0  0  0  0  0  0
   -2.4245   -2.2537    1.0882 C   0  0  0  0  0  0  0  0  0  0  0  0
   -1.5805   -2.7478    1.8242 O   0  0  0  0  0  0  0  0  0  0  0  0
   -2.2045   -1.1637    0.3562 N   0  0  0  0  0  0  0  0  0  0  0  0
   -2.9595   -0.7907   -0.2008 H   0  0  0  0  0  0  0  0  0  0  0  0
   -0.9485   -0.4087    0.3482 C   0  0  1  0  0  0  0  0  0  0  0  0
   -0.1408   -1.0795    0.0507 H   0  0  0  0  0  0  0  0  0  0  0  0
   -1.0432    0.7243   -0.6879 C   0  0  0  0  0  0  0  0  0  0  0  0
   -2.0807    1.0535   -0.7605 H   0  0  0  0  0  0  0  0  0  0  0  0
   -0.4539    1.5734   -0.3385 H   0  0  0  0  0  0  0  0  0  0  0  0
   -0.5772    0.3291   -2.0763 C   0  0  0  0  0  0  0  0  0  0  0  0
   -0.3049    1.3140   -3.0446 C   0  0  0  0  0  0  0  0  0  0  0  0
   -0.4486    2.3595   -2.8106 H   0  0  0  0  0  0  0  0  0  0  0  0
    0.1665    0.9417   -4.3170 C   0  0  0  0  0  0  0  0  0  0  0  0
    0.3725    1.6994   -5.0599 H   0  0  0  0  0  0  0  0  0  0  0  0
    0.3681   -0.4150   -4.6228 C   0  0  0  0  0  0  0  0  0  0  0  0
    0.7280   -0.7011   -5.6012 H   0  0  0  0  0  0  0  0  0  0  0  0
    0.0955   -1.4018   -3.6580 C   0  0  0  0  0  0  0  0  0  0  0  0
    0.2452   -2.4450   -3.8948 H   0  0  0  0  0  0  0  0  0  0  0  0
   -0.3787   -1.0296   -2.3876 C   0  0  0  0  0  0  0  0  0  0  0  0
   -0.5912   -1.7900   -1.6474 H   0  0  0  0  0  0  0  0  0  0  0  0
   -0.6196    0.1253    1.7539 C   0  0  0  0  0  0  0  0  0  0  0  0
    0.5216    0.0194    2.2054 O   0  0  0  0  0  0  0  0  0  0  0  0
   -1.6152    0.6924    2.4469 N   0  0  0  0  0  0  0  0  0  0  0  0
   -2.5345    0.6914    2.0318 H   0  0  0  0  0  0  0  0  0  0  0  0
   -1.4720    1.2390    3.7941 C   0  0  0  0  0  0  0  0  0  0  0  0
   -0.6345    1.9391    3.8219 H   0  0  0  0  0  0  0  0  0  0  0  0
   -2.3844    1.7580    4.0892 H   0  0  0  0  0  0  0  0  0  0  0  0
   -1.2733    0.4298    4.4995 H   0  0  0  0  0  0  0  0  0  0  0  0
  5  6  2  0  0  0  0
  5  7  1  0  0  0  0
  2  3  1  0  0  0  0
  2  4  1  0  0  0  0
  2  5  1  0  0  0  0
  1  2  1  0  0  0  0
 25 26  2  0  0  0  0
 25 27  1  0  0  0  0
 23 24  1  0  0  0  0
 21 22  1  0  0  0  0
 21 23  2  0  0  0  0
 19 20  1  0  0  0  0
 19 21  1  0  0  0  0
 17 18  1  0  0  0  0
 17 19  2  0  0  0  0
 15 16  1  0  0  0  0
 15 17  1  0  0  0  0
 14 15  2  0  0  0  0
 14 23  1  0  0  0  0
 11 12  1  0  0  0  0
 11 13  1  0  0  0  0
 11 14  1  0  0  0  0
  9 10  1  0  0  0  0
  9 11  1  0  0  0  0
  9 25  1  0  0  0  0
  7  8  1  0  0  0  0
  7  9  1  0  0  0  0
 29 30  1  0  0  0  0
 29 31  1  0  0  0  0
 29 32  1  0  0  0  0
 27 28  1  0  0  0  0
 27 29  1  0  0  0  0
M  END
$$$$
default_name
  -OEChem-02102213163D

 32 32  0     1  0  0  0  0  0999 V2000
   -3.8405   -3.7518    1.6252 H   0  0  0  0  0  0  0  0  0  0  0  0
   -3.7965   -2.8768    0.9782 C   0  0  0  0  0  0  0  0  0  0  0  0
   -4.5465   -2.1527    1.2902 H   0  0  0  0  0  0  0  0  0  0  0  0
   -3.9745   -3.1748   -0.0538 H   0  0  0  0  0  0  0  0  0  0  0  0
   -2.4245   -2.2537    1.0882 C   0  0  0  0  0  0  0  0  0  0  0  0
   -1.5805   -2.7478    1.8242 O   0  0  0  0  0  0  0  0  0  0  0  0
   -2.2045   -1.1637    0.3562 N   0  0  0  0  0  0  0  0  0  0  0  0
   -2.9595   -0.7907   -0.2008 H   0  0  0  0  0  0  0  0  0  0  0  0
   -0.9485   -0.4087    0.3482 C   0  0  1  0  0  0  0  0  0  0  0  0
   -0.1408   -1.0795    0.0507 H   0  0  0  0  0  0  0  0  0  0  0  0
   -1.0432    0.7243   -0.6879 C   0  0  0  0  0  0  0  0  0  0  0  0
   -2.0807    1.0535   -0.7605 H   0  0  0  0  0  0  0  0  0  0  0  0
   -0.4539    1.5734   -0.3385 H   0  0  0  0  0  0  0  0  0  0  0  0
   -0.5772    0.3291   -2.0763 C   0  0  0  0  0  0  0  0  0  0  0  0
   -0.0081    1.2866   -2.9372 C   0  0  0  0  0  0  0  0  0  0  0  0
    0.0795    2.3166   -2.6212 H   0  0  0  0  0  0  0  0  0  0  0  0
    0.4595    0.9039   -4.2079 C   0  0  0  0  0  0  0  0  0  0  0  0
    0.8939    1.6413   -4.8683 H   0  0  0  0  0  0  0  0  0  0  0  0
    0.3608   -0.4361   -4.6192 C   0  0  0  0  0  0  0  0  0  0  0  0
    0.7180   -0.7296   -5.5965 H   0  0  0  0  0  0  0  0  0  0  0  0
   -0.2088   -1.3952   -3.7621 C   0  0  0  0  0  0  0  0  0  0  0  0
   -0.2897   -2.4242   -4.0802 H   0  0  0  0  0  0  0  0  0  0  0  0
   -0.6790   -1.0118   -2.4935 C   0  0  0  0  0  0  0  0  0  0  0  0
   -1.1200   -1.7500   -1.8363 H   0  0  0  0  0  0  0  0  0  0  0  0
   -0.6196    0.1253    1.7539 C   0  0  0  0  0  0  0  0  0  0  0  0
    0.5216    0.0194    2.2054 O   0  0  0  0  0  0  0  0  0  0  0  0
   -1.6152    0.6924    2.4469 N   0  0  0  0  0  0  0  0  0  0  0  0
   -2.5345    0.6914    2.0318 H   0  0  0  0  0  0  0  0  0  0  0  0
   -1.4720    1.2390    3.7941 C   0  0  0  0  0  0  0  0  0  0  0  0
   -0.6345    1.9391    3.8219 H   0  0  0  0  0  0  0  0  0  0  0  0
   -2.3844    1.7580    4.0892 H   0  0  0  0  0  0  0  0  0  0  0  0
   -1.2733    0.4298    4.4995 H   0  0  0  0  0  0  0  0  0  0  0  0
  5  6  2  0  0  0  0
  5  7  1  0  0  0  0
  2  3  1  0  0  0  0
  2  4  1  0  0  0  0
  2  5  1  0  0  0  0
  1  2  1  0  0  0  0
 25 26  2  0  0  0  0
 25 27  1  0  0  0  0
 23 24  1  0  0  0  0
 21 22  1  0  0  0  0
 21 23  2  0  0  0  0
 19 20  1  0  0  0  0
 19 21  1  0  0  0  0
 17 18  1  0  0  0  0
 17 19  2  0  0  0  0
 15 16  1  0  0  0  0
 15 17  1  0  0  0  0
 14 15  2  0  0  0  0
 14 23  1  0  0  0  0
 11 12  1  0  0  0  0
 11 13  1  0  0  0  0
 11 14  1  0  0  0  0
  9 10  1  0  0  0  0
  9 11  1  0  0  0  0
  9 25  1  0  0  0  0
  7  8  1  0  0  0  0
  7  9  1  0  0  0  0
 29 30  1  0  0  0  0
 29 31  1  0  0  0  0
 29 32  1  0  0  0  0
 27 28  1  0  0  0  0
 27 29  1  0  0  0  0
M  END
$$$$
default_name
  -OEChem-02102213163D

 32 32  0     1  0  0  0  0  0999 V2000
   -3.8405   -3.7518    1.6252 H   0  0  0  0  0  0  0  0  0  0  0  0
   -3.7965   -2.8768    0.9782 C   0  0  0  0  0  0  0  0  0  0  0  0
   -4.5465   -2.1527    1.2902 H   0  0  0  0  0  0  0  0  0  0  0  0
   -3.9745   -3.1748   -0.0538 H   0  0  0  0  0  0  0  0  0  0  0  0
   -2.4245   -2.2537    1.0882 C   0  0  0  0  0  0  0  0  0  0  0  0
   -1.5805   -2.7478    1.8242 O   0  0  0  0  0  0  0  0  0  0  0  0
   -2.2045   -1.1637    0.3562 N   0  0  0  0  0  0  0  0  0  0  0  0
   -2.9595   -0.7907   -0.2008 H   0  0  0  0  0  0  0  0  0  0  0  0
   -0.9485   -0.4087    0.3482 C   0  0  1  0  0  0  0  0  0  0  0  0
   -0.1408   -1.0795    0.0507 H   0  0  0  0  0  0  0  0  0  0  0  0
   -1.0432    0.7243   -0.6879 C   0  0  0  0  0  0  0  0  0  0  0  0
   -2.0807    1.0535   -0.7605 H   0  0  0  0  0  0  0  0  0  0  0  0
   -0.4539    1.5734   -0.3385 H   0  0  0  0  0  0  0  0  0  0  0  0
   -0.5772    0.3291   -2.0763 C   0  0  0  0  0  0  0  0  0  0  0  0
    0.2649    1.1813   -2.8156 C   0  0  0  0  0  0  0  0  0  0  0  0
    0.5666    2.1350   -2.4060 H   0  0  0  0  0  0  0  0  0  0  0  0
    0.7263    0.7894   -4.0857 C   0  0  0  0  0  0  0  0  0  0  0  0
    1.3708    1.4464   -4.6528 H   0  0  0  0  0  0  0  0  0  0  0  0
    0.3486   -0.4550   -4.6180 C   0  0  0  0  0  0  0  0  0  0  0  0
    0.7012   -0.7550   -5.5948 H   0  0  0  0  0  0  0  0  0  0  0  0
   -0.4940   -1.3084   -3.8825 C   0  0  0  0  0  0  0  0  0  0  0  0
   -0.7889   -2.2626   -4.2938 H   0  0  0  0  0  0  0  0  0  0  0  0
   -0.9577   -0.9151   -2.6146 C   0  0  0  0  0  0  0  0  0  0  0  0
   -1.6086   -1.5710   -2.0512 H   0  0  0  0  0  0  0  0  0  0  0  0
   -0.6196    0.1253    1.7539 C   0  0  0  0  0  0  0  0  0  0  0  0
    0.5216    0.0194    2.2054 O   0  0  0  0  0  0  0  0  0  0  0  0
   -1.6152    0.6924    2.4469 N   0  0  0  0  0  0  0  0  0  0  0  0
   -2.5345    0.6914    2.0318 H   0  0  0  0  0  0  0  0  0  0  0  0
   -1.4720    1.2390    3.7941 C   0  0  0  0  0  0  0  0  0  0  0  0
   -0.6345    1.9391    3.8219 H   0  0  0  0  0  0  0  0  0  0  0  0
   -2.3844    1.7580    4.0892 H   0  0  0  0  0  0  0  0  0  0  0  0
   -1.2733    0.4298    4.4995 H   0  0  0  0  0  0  0  0  0  0  0  0
  5  6  2  0  0  0  0
  5  7  1  0  0  0  0
  2  3  1  0  0  0  0
  2  4  1  0  0  0  0
  2  5  1  0  0  0  0
  1  2  1  0  0  0  0
 25 26  2  0  0  0  0
 25 27  1  0  0  0  0
 23 24  1  0  0  0  0
 21 22  1  0  0  0  0
 21 23  2  0  0  0  0
 19 20  1  0  0  0  0
 19 21  1  0  0  0  0
 17 18  1  0  0  0  0
 17 19  2  0  0  0  0
 15 16  1  0  0  0  0
 15 17  1  0  0  0  0
 14 15  2  0  0  0  0
 14 23  1  0  0  0  0
 11 12  1  0  0  0  0
 11 13  1  0  0  0  0
 11 14  1  0  0  0  0
  9 10  1  0  0  0  0
  9 11  1  0  0  0  0
  9 25  1  0  0  0  0
  7  8  1  0  0  0  0
  7  9  1  0  0  0  0
 29 30  1  0  0  0  0
 29 31  1  0  0  0  0
 29 32  1  0  0  0  0
 27 28  1  0  0  0  0
 27 29  1  0  0  0  0
M  END
$$$$
default_name
  -OEChem-02102213163D

 32 32  0     1  0  0  0  0  0999 V2000
   -3.8405   -3.7518    1.6252 H   0  0  0  0  0  0  0  0  0  0  0  0
   -3.7965   -2.8768    0.9782 C   0  0  0  0  0  0  0  0  0  0  0  0
   -4.5465   -2.1527    1.2902 H   0  0  0  0  0  0  0  0  0  0  0  0
   -3.9745   -3.1748   -0.0538 H   0  0  0  0  0  0  0  0  0  0  0  0
   -2.4245   -2.2537    1.0882 C   0  0  0  0  0  0  0  0  0  0  0  0
   -1.5805   -2.7478    1.8242 O   0  0  0  0  0  0  0  0  0  0  0  0
   -2.2045   -1.1637    0.3562 N   0  0  0  0  0  0  0  0  0  0  0  0
   -2.9595   -0.7907   -0.2008 H   0  0  0  0  0  0  0  0  0  0  0  0
   -0.9485   -0.4087    0.3482 C   0  0  1  0  0  0  0  0  0  0  0  0
   -0.1408   -1.0795    0.0507 H   0  0  0  0  0  0  0  0  0  0  0  0
   -1.0432    0.7243   -0.6879 C   0  0  0  0  0  0  0  0  0  0  0  0
   -2.0807    1.0535   -0.7605 H   0  0  0  0  0  0  0  0  0  0  0  0
   -0.4539    1.5734   -0.3385 H   0  0  0  0  0  0  0  0  0  0  0  0
   -0.5772    0.3291   -2.0763 C   0  0  0  0  0  0  0  0  0  0  0  0
    0.4954    1.0052   -2.6881 C   0  0  0  0  0  0  0  0  0  0  0  0
    0.9796    1.8271   -2.1798 H   0  0  0  0  0  0  0  0  0  0  0  0
    0.9487    0.6059   -3.9589 C   0  0  0  0  0  0  0  0  0  0  0  0
    1.7708    1.1280   -4.4279 H   0  0  0  0  0  0  0  0  0  0  0  0
    0.3321   -0.4706   -4.6191 C   0  0  0  0  0  0  0  0  0  0  0  0
    0.6789   -0.7758   -5.5964 H   0  0  0  0  0  0  0  0  0  0  0  0
   -0.7409   -1.1474   -4.0112 C   0  0  0  0  0  0  0  0  0  0  0  0
   -1.2185   -1.9713   -4.5209 H   0  0  0  0  0  0  0  0  0  0  0  0
   -1.1959   -0.7460   -2.7426 C   0  0  0  0  0  0  0  0  0  0  0  0
   -2.0236   -1.2653   -2.2775 H   0  0  0  0  0  0  0  0  0  0  0  0
   -0.6196    0.1253    1.7539 C   0  0  0  0  0  0  0  0  0  0  0  0
    0.5216    0.0194    2.2054 O   0  0  0  0  0  0  0  0  0  0  0  0
   -1.6152    0.6924    2.4469 N   0  0  0  0  0  0  0  0  0  0  0  0
   -2.5345    0.6914    2.0318 H   0  0  0  0  0  0  0  0  0  0  0  0
   -1.4720    1.2390    3.7941 C   0  0  0  0  0  0  0  0  0  0  0  0
   -0.6345    1.9391    3.8219 H   0  0  0  0  0  0  0  0  0  0  0  0
   -2.3844    1.7580    4.0892 H   0  0  0  0  0  0  0  0  0  0  0  0
   -1.2733    0.4298    4.4995 H   0  0  0  0  0  0  0  0  0  0  0  0
  5  6  2  0  0  0  0
  5  7  1  0  0  0  0
  2  3  1  0  0  0  0
  2  4  1  0  0  0  0
  2  5  1  0  0  0  0
  1  2  1  0  0  0  0
 25 26  2  0  0  0  0
 25 27  1  0  0  0  0
 23 24  1  0  0  0  0
 21 22  1  0  0  0  0
 21 23  2  0  0  0  0
 19 20  1  0  0  0  0
 19 21  1  0  0  0  0
 17 18  1  0  0  0  0
 17 19  2  0  0  0  0
 15 16  1  0  0  0  0
 15 17  1  0  0  0  0
 14 15  2  0  0  0  0
 14 23  1  0  0  0  0
 11 12  1  0  0  0  0
 11 13  1  0  0  0  0
 11 14  1  0  0  0  0
  9 10  1  0  0  0  0
  9 11  1  0  0  0  0
  9 25  1  0  0  0  0
  7  8  1  0  0  0  0
  7  9  1  0  0  0  0
 29 30  1  0  0  0  0
 29 31  1  0  0  0  0
 29 32  1  0  0  0  0
 27 28  1  0  0  0  0
 27 29  1  0  0  0  0
M  END
$$$$
default_name
  -OEChem-02102213163D

 32 32  0     1  0  0  0  0  0999 V2000
   -3.8405   -3.7518    1.6252 H   0  0  0  0  0  0  0  0  0  0  0  0
   -3.7965   -2.8768    0.9782 C   0  0  0  0  0  0  0  0  0  0  0  0
   -4.5465   -2.1527    1.2902 H   0  0  0  0  0  0  0  0  0  0  0  0
   -3.9745   -3.1748   -0.0538 H   0  0  0  0  0  0  0  0  0  0  0  0
   -2.4245   -2.2537    1.0882 C   0  0  0  0  0  0  0  0  0  0  0  0
   -1.5805   -2.7478    1.8242 O   0  0  0  0  0  0  0  0  0  0  0  0
   -2.2045   -1.1637    0.3562 N   0  0  0  0  0  0  0  0  0  0  0  0
   -2.9595   -0.7907   -0.2008 H   0  0  0  0  0  0  0  0  0  0  0  0
   -0.9485   -0.4087    0.3482 C   0  0  1  0  0  0  0  0  0  0  0  0
   -0.1408   -1.0795    0.0507 H   0  0  0  0  0  0  0  0  0  0  0  0
   -1.0432    0.7243   -0.6879 C   0  0  0  0  0  0  0  0  0  0  0  0
   -2.0807    1.0535   -0.7605 H   0  0  0  0  0  0  0  0  0  0  0  0
   -0.4539    1.5734   -0.3385 H   0  0  0  0  0  0  0  0  0  0  0  0
   -0.5772    0.3291   -2.0763 C   0  0  0  0  0  0  0  0  0  0  0  0
    0.6677    0.7703   -2.5634 C   0  0  0  0  0  0  0  0  0  0  0  0
    1.2903    1.4138   -1.9579 H   0  0  0  0  0  0  0  0  0  0  0  0
    1.1114    0.3658   -3.8359 C   0  0  0  0  0  0  0  0  0  0  0  0
    2.0665    0.7079   -4.2091 H   0  0  0  0  0  0  0  0  0  0  0  0
    0.3127   -0.4816   -4.6224 C   0  0  0  0  0  0  0  0  0  0  0  0
    0.6525   -0.7904   -5.6011 H   0  0  0  0  0  0  0  0  0  0  0  0
   -0.9326   -0.9231   -4.1394 C   0  0  0  0  0  0  0  0  0  0  0  0
   -1.5491   -1.5701   -4.7460 H   0  0  0  0  0  0  0  0  0  0  0  0
   -1.3772   -0.5160   -2.8689 C   0  0  0  0  0  0  0  0  0  0  0  0
   -2.3369   -0.8537   -2.4998 H   0  0  0  0  0  0  0  0  0  0  0  0
   -0.6196    0.1253    1.7539 C   0  0  0  0  0  0  0  0  0  0  0  0
    0.5216    0.0194    2.2054 O   0  0  0  0  0  0  0  0  0  0  0  0
   -1.6152    0.6924    2.4469 N   0  0  0  0  0  0  0  0  0  0  0  0
   -2.5345    0.6914    2.0318 H   0  0  0  0  0  0  0  0  0  0  0  0
   -1.4720    1.2390    3.7941 C   0  0  0  0  0  0  0  0  0  0  0  0
   -0.6345    1.9391    3.8219 H   0  0  0  0  0  0  0  0  0  0  0  0
   -2.3844    1.7580    4.0892 H   0  0  0  0  0  0  0  0  0  0  0  0
   -1.2733    0.4298    4.4995 H   0  0  0  0  0  0  0  0  0  0  0  0
  5  6  2  0  0  0  0
  5  7  1  0  0  0  0
  2  3  1  0  0  0  0
  2  4  1  0  0  0  0
  2  5  1  0  0  0  0
  1  2  1  0  0  0  0
 25 26  2  0  0  0  0
 25 27  1  0  0  0  0
 23 24  1  0  0  0  0
 21 22  1  0  0  0  0
 21 23  2  0  0  0  0
 19 20  1  0  0  0  0
 19 21  1  0  0  0  0
 17 18  1  0  0  0  0
 17 19  2  0  0  0  0
 15 16  1  0  0  0  0
 15 17  1  0  0  0  0
 14 15  2  0  0  0  0
 14 23  1  0  0  0  0
 11 12  1  0  0  0  0
 11 13  1  0  0  0  0
 11 14  1  0  0  0  0
  9 10  1  0  0  0  0
  9 11  1  0  0  0  0
  9 25  1  0  0  0  0
  7  8  1  0  0  0  0
  7  9  1  0  0  0  0
 29 30  1  0  0  0  0
 29 31  1  0  0  0  0
 29 32  1  0  0  0  0
 27 28  1  0  0  0  0
 27 29  1  0  0  0  0
M  END
$$$$
default_name
  -OEChem-02102213163D

 32 32  0     1  0  0  0  0  0999 V2000
   -3.8405   -3.7518    1.6252 H   0  0  0  0  0  0  0  0  0  0  0  0
   -3.7965   -2.8768    0.9782 C   0  0  0  0  0  0  0  0  0  0  0  0
   -4.5465   -2.1527    1.2902 H   0  0  0  0  0  0  0  0  0  0  0  0
   -3.9745   -3.1748   -0.0538 H   0  0  0  0  0  0  0  0  0  0  0  0
   -2.4245   -2.2537    1.0882 C   0  0  0  0  0  0  0  0  0  0  0  0
   -1.5805   -2.7478    1.8242 O   0  0  0  0  0  0  0  0  0  0  0  0
   -2.2045   -1.1637    0.3562 N   0  0  0  0  0  0  0  0  0  0  0  0
   -2.9595   -0.7907   -0.2008 H   0  0  0  0  0  0  0  0  0  0  0  0
   -0.9485   -0.4087    0.3482 C   0  0  1  0  0  0  0  0  0  0  0  0
   -0.1408   -1.0795    0.0507 H   0  0  0  0  0  0  0  0  0  0  0  0
   -1.0432    0.7243   -0.6879 C   0  0  0  0  0  0  0  0  0  0  0  0
   -2.0807    1.0535   -0.7605 H   0  0  0  0  0  0  0  0  0  0  0  0
   -0.4539    1.5734   -0.3385 H   0  0  0  0  0  0  0  0  0  0  0  0
   -0.5772    0.3291   -2.0763 C   0  0  0  0  0  0  0  0  0  0  0  0
    0.7702    0.4928   -2.4500 C   0  0  0  0  0  0  0  0  0  0  0  0
    1.4775    0.9234   -1.7554 H   0  0  0  0  0  0  0  0  0  0  0  0
    1.2034    0.0856   -3.7253 C   0  0  0  0  0  0  0  0  0  0  0  0
    2.2379    0.2146   -4.0111 H   0  0  0  0  0  0  0  0  0  0  0  0
    0.2915   -0.4873   -4.6279 C   0  0  0  0  0  0  0  0  0  0  0  0
    0.6239   -0.7980   -5.6085 H   0  0  0  0  0  0  0  0  0  0  0  0
   -1.0559   -0.6510   -4.2582 C   0  0  0  0  0  0  0  0  0  0  0  0
   -1.7582   -1.0863   -4.9539 H   0  0  0  0  0  0  0  0  0  0  0  0
   -1.4893   -0.2409   -2.9849 C   0  0  0  0  0  0  0  0  0  0  0  0
   -2.5269   -0.3643   -2.7029 H   0  0  0  0  0  0  0  0  0  0  0  0
   -0.6196    0.1253    1.7539 C   0  0  0  0  0  0  0  0  0  0  0  0
    0.5216    0.0194    2.2054 O   0  0  0  0  0  0  0  0  0  0  0  0
   -1.6152    0.6924    2.4469 N   0  0  0  0  0  0  0  0  0  0  0  0
   -2.5345    0.6914    2.0318 H   0  0  0  0  0  0  0  0  0  0  0  0
   -1.4720    1.2390    3.7941 C   0  0  0  0  0  0  0  0  0  0  0  0
   -0.6345    1.9391    3.8219 H   0  0  0  0  0  0  0  0  0  0  0  0
   -2.3844    1.7580    4.0892 H   0  0  0  0  0  0  0  0  0  0  0  0
   -1.2733    0.4298    4.4995 H   0  0  0  0  0  0  0  0  0  0  0  0
  5  6  2  0  0  0  0
  5  7  1  0  0  0  0
  2  3  1  0  0  0  0
  2  4  1  0  0  0  0
  2  5  1  0  0  0  0
  1  2  1  0  0  0  0
 25 26  2  0  0  0  0
 25 27  1  0  0  0  0
 23 24  1  0  0  0  0
 21 22  1  0  0  0  0
 21 23  2  0  0  0  0
 19 20  1  0  0  0  0
 19 21  1  0  0  0  0
 17 18  1  0  0  0  0
 17 19  2  0  0  0  0
 15 16  1  0  0  0  0
 15 17  1  0  0  0  0
 14 15  2  0  0  0  0
 14 23  1  0  0  0  0
 11 12  1  0  0  0  0
 11 13  1  0  0  0  0
 11 14  1  0  0  0  0
  9 10  1  0  0  0  0
  9 11  1  0  0  0  0
  9 25  1  0  0  0  0
  7  8  1  0  0  0  0
  7  9  1  0  0  0  0
 29 30  1  0  0  0  0
 29 31  1  0  0  0  0
 29 32  1  0  0  0  0
 27 28  1  0  0  0  0
 27 29  1  0  0  0  0
M  END
$$$$
default_name
  -OEChem-02102213163D

 32 32  0     1  0  0  0  0  0999 V2000
   -3.8405   -3.7518    1.6252 H   0  0  0  0  0  0  0  0  0  0  0  0
   -3.7965   -2.8768    0.9782 C   0  0  0  0  0  0  0  0  0  0  0  0
   -4.5465   -2.1527    1.2902 H   0  0  0  0  0  0  0  0  0  0  0  0
   -3.9745   -3.1748   -0.0538 H   0  0  0  0  0  0  0  0  0  0  0  0
   -2.4245   -2.2537    1.0882 C   0  0  0  0  0  0  0  0  0  0  0  0
   -1.5805   -2.7478    1.8242 O   0  0  0  0  0  0  0  0  0  0  0  0
   -2.2045   -1.1637    0.3562 N   0  0  0  0  0  0  0  0  0  0  0  0
   -2.9595   -0.7907   -0.2008 H   0  0  0  0  0  0  0  0  0  0  0  0
   -0.9485   -0.4087    0.3482 C   0  0  1  0  0  0  0  0  0  0  0  0
   -0.1408   -1.0795    0.0507 H   0  0  0  0  0  0  0  0  0  0  0  0
   -1.0432    0.7243   -0.6879 C   0  0  0  0  0  0  0  0  0  0  0  0
   -2.0807    1.0535   -0.7605 H   0  0  0  0  0  0  0  0  0  0  0  0
   -0.4539    1.5734   -0.3385 H   0  0  0  0  0  0  0  0  0  0  0  0
   -0.5772    0.3291   -2.0763 C   0  0  0  0  0  0  0  0  0  0  0  0
    0.7957    0.1914   -2.3556 C   0  0  0  0  0  0  0  0  0  0  0  0
    1.5286    0.3893   -1.5862 H   0  0  0  0  0  0  0  0  0  0  0  0
    1.2185   -0.2157   -3.6345 C   0  0  0  0  0  0  0  0  0  0  0  0
    2.2733   -0.3183   -3.8476 H   0  0  0  0  0  0  0  0  0  0  0  0
    0.2700   -0.4874   -4.6351 C   0  0  0  0  0  0  0  0  0  0  0  0
    0.5950   -0.7979   -5.6183 H   0  0  0  0  0  0  0  0  0  0  0  0
   -1.1026   -0.3494   -4.3597 C   0  0  0  0  0  0  0  0  0  0  0  0
   -1.8315   -0.5530   -5.1304 H   0  0  0  0  0  0  0  0  0  0  0  0
   -1.5247    0.0606   -3.0826 C   0  0  0  0  0  0  0  0  0  0  0  0
   -2.5808    0.1696   -2.8730 H   0  0  0  0  0  0  0  0  0  0  0  0
   -0.6196    0.1253    1.7539 C   0  0  0  0  0  0  0  0  0  0  0  0
    0.5216    0.0194    2.2054 O   0  0  0  0  0  0  0  0  0  0  0  0
   -1.6152    0.6924    2.4469 N   0  0  0  0  0  0  0  0  0  0  0  0
   -2.5345    0.6914    2.0318 H   0  0  0  0  0  0  0  0  0  0  0  0
   -1.4720    1.2390    3.7941 C   0  0  0  0  0  0  0  0  0  0  0  0
   -0.6345    1.9391    3.8219 H   0  0  0  0  0  0  0  0  0  0  0  0
   -2.3844    1.7580    4.0892 H   0  0  0  0  0  0  0  0  0  0  0  0
   -1.2733    0.4298    4.4995 H   0  0  0  0  0  0  0  0  0  0  0  0
  5  6  2  0  0  0  0
  5  7  1  0  0  0  0
  2  3  1  0  0  0  0
  2  4  1  0  0  0  0
  2  5  1  0  0  0  0
  1  2  1  0  0  0  0
 25 26  2  0  0  0  0
 25 27  1  0  0  0  0
 23 24  1  0  0  0  0
 21 22  1  0  0  0  0
 21 23  2  0  0  0  0
 19 20  1  0  0  0  0
 19 21  1  0  0  0  0
 17 18  1  0  0  0  0
 17 19  2  0  0  0  0
 15 16  1  0  0  0  0
 15 17  1  0  0  0  0
 14 15  2  0  0  0  0
 14 23  1  0  0  0  0
 11 12  1  0  0  0  0
 11 13  1  0  0  0  0
 11 14  1  0  0  0  0
  9 10  1  0  0  0  0
  9 11  1  0  0  0  0
  9 25  1  0  0  0  0
  7  8  1  0  0  0  0
  7  9  1  0  0  0  0
 29 30  1  0  0  0  0
 29 31  1  0  0  0  0
 29 32  1  0  0  0  0
 27 28  1  0  0  0  0
 27 29  1  0  0  0  0
M  END
$$$$
default_name
  -OEChem-02102213163D

 32 32  0     1  0  0  0  0  0999 V2000
   -3.8405   -3.7518    1.6252 H   0  0  0  0  0  0  0  0  0  0  0  0
   -3.7965   -2.8768    0.9782 C   0  0  0  0  0  0  0  0  0  0  0  0
   -4.5465   -2.1527    1.2902 H   0  0  0  0  0  0  0  0  0  0  0  0
   -3.9745   -3.1748   -0.0538 H   0  0  0  0  0  0  0  0  0  0  0  0
   -2.4245   -2.2537    1.0882 C   0  0  0  0  0  0  0  0  0  0  0  0
   -1.5805   -2.7478    1.8242 O   0  0  0  0  0  0  0  0  0  0  0  0
   -2.2045   -1.1637    0.3562 N   0  0  0  0  0  0  0  0  0  0  0  0
   -2.9595   -0.7907   -0.2008 H   0  0  0  0  0  0  0  0  0  0  0  0
   -0.9485   -0.4087    0.3482 C   0  0  1  0  0  0  0  0  0  0  0  0
   -0.1408   -1.0795    0.0507 H   0  0  0  0  0  0  0  0  0  0  0  0
   -1.0432    0.7243   -0.6879 C   0  0  0  0  0  0  0  0  0  0  0  0
   -2.0807    1.0535   -0.7605 H   0  0  0  0  0  0  0  0  0  0  0  0
   -0.4539    1.5734   -0.3385 H   0  0  0  0  0  0  0  0  0  0  0  0
   -0.5772    0.3291   -2.0763 C   0  0  0  0  0  0  0  0  0  0  0  0
    0.7426   -0.1133   -2.2867 C   0  0  0  0  0  0  0  0  0  0  0  0
    1.4400   -0.1522   -1.4618 H   0  0  0  0  0  0  0  0  0  0  0  0
    1.1555   -0.5174   -3.5697 C   0  0  0  0  0  0  0  0  0  0  0  0
    2.1701   -0.8543   -3.7296 H   0  0  0  0  0  0  0  0  0  0  0  0
    0.2498   -0.4819   -4.6435 C   0  0  0  0  0  0  0  0  0  0  0  0
    0.5677   -0.7902   -5.6296 H   0  0  0  0  0  0  0  0  0  0  0  0
   -1.0694   -0.0390   -4.4370 C   0  0  0  0  0  0  0  0  0  0  0  0
   -1.7642   -0.0064   -5.2634 H   0  0  0  0  0  0  0  0  0  0  0  0
   -1.4808    0.3680   -3.1554 C   0  0  0  0  0  0  0  0  0  0  0  0
   -2.4950    0.7117   -2.9985 H   0  0  0  0  0  0  0  0  0  0  0  0
   -0.6196    0.1253    1.7539 C   0  0  0  0  0  0  0  0  0  0  0  0
    0.5216    0.0194    2.2054 O   0  0  0  0  0  0  0  0  0  0  0  0
   -1.6152    0.6924    2.4469 N   0  0  0  0  0  0  0  0  0  0  0  0
   -2.5345    0.6914    2.0318 H   0  0  0  0  0  0  0  0  0  0  0  0
   -1.4720    1.2390    3.7941 C   0  0  0  0  0  0  0  0  0  0  0  0
   -0.6345    1.9391    3.8219 H   0  0  0  0  0  0  0  0  0  0  0  0
   -2.3844    1.7580    4.0892 H   0  0  0  0  0  0  0  0  0  0  0  0
   -1.2733    0.4298    4.4995 H   0  0  0  0  0  0  0  0  0  0  0  0
  5  6  2  0  0  0  0
  5  7  1  0  0  0  0
  2  3  1  0  0  0  0
  2  4  1  0  0  0  0
  2  5  1  0  0  0  0
  1  2  1  0  0  0  0
 25 26  2  0  0  0  0
 25 27  1  0  0  0  0
 23 24  1  0  0  0  0
 21 22  1  0  0  0  0
 21 23  2  0  0  0  0
 19 20  1  0  0  0  0
 19 21  1  0  0  0  0
 17 18  1  0  0  0  0
 17 19  2  0  0  0  0
 15 16  1  0  0  0  0
 15 17  1  0  0  0  0
 14 15  2  0  0  0  0
 14 23  1  0  0  0  0
 11 12  1  0  0  0  0
 11 13  1  0  0  0  0
 11 14  1  0  0  0  0
  9 10  1  0  0  0  0
  9 11  1  0  0  0  0
  9 25  1  0  0  0  0
  7  8  1  0  0  0  0
  7  9  1  0  0  0  0
 29 30  1  0  0  0  0
 29 31  1  0  0  0  0
 29 32  1  0  0  0  0
 27 28  1  0  0  0  0
 27 29  1  0  0  0  0
M  END
$$$$
default_name
  -OEChem-02102213163D

 32 32  0     1  0  0  0  0  0999 V2000
   -3.8405   -3.7518    1.6252 H   0  0  0  0  0  0  0  0  0  0  0  0
   -3.7965   -2.8768    0.9782 C   0  0  0  0  0  0  0  0  0  0  0  0
   -4.5465   -2.1527    1.2902 H   0  0  0  0  0  0  0  0  0  0  0  0
   -3.9745   -3.1748   -0.0538 H   0  0  0  0  0  0  0  0  0  0  0  0
   -2.4245   -2.2537    1.0882 C   0  0  0  0  0  0  0  0  0  0  0  0
   -1.5805   -2.7478    1.8242 O   0  0  0  0  0  0  0  0  0  0  0  0
   -2.2045   -1.1637    0.3562 N   0  0  0  0  0  0  0  0  0  0  0  0
   -2.9595   -0.7907   -0.2008 H   0  0  0  0  0  0  0  0  0  0  0  0
   -0.9485   -0.4087    0.3482 C   0  0  1  0  0  0  0  0  0  0  0  0
   -0.1408   -1.0795    0.0507 H   0  0  0  0  0  0  0  0  0  0  0  0
   -1.0432    0.7243   -0.6879 C   0  0  0  0  0  0  0  0  0  0  0  0
   -2.0807    1.0535   -0.7605 H   0  0  0  0  0  0  0  0  0  0  0  0
   -0.4539    1.5734   -0.3385 H   0  0  0  0  0  0  0  0  0  0  0  0
   -0.5772    0.3291   -2.0763 C   0  0  0  0  0  0  0  0  0  0  0  0
    0.6145   -0.4005   -2.2479 C   0  0  0  0  0  0  0  0  0  0  0  0
    1.2177   -0.6642   -1.3907 H   0  0  0  0  0  0  0  0  0  0  0  0
    1.0188   -0.7991   -3.5353 C   0  0  0  0  0  0  0  0  0  0  0  0
    1.9356   -1.3570   -3.6652 H   0  0  0  0  0  0  0  0  0  0  0  0
    0.2321   -0.4711   -4.6525 C   0  0  0  0  0  0  0  0  0  0  0  0
    0.5440   -0.7753   -5.6418 H   0  0  0  0  0  0  0  0  0  0  0  0
   -0.9586    0.2591   -4.4847 C   0  0  0  0  0  0  0  0  0  0  0  0
   -1.5606    0.5161   -5.3438 H   0  0  0  0  0  0  0  0  0  0  0  0
   -1.3607    0.6603   -3.1983 C   0  0  0  0  0  0  0  0  0  0  0  0
   -2.2752    1.2249   -3.0709 H   0  0  0  0  0  0  0  0  0  0  0  0
   -0.6196    0.1253    1.7539 C   0  0  0  0  0  0  0  0  0  0  0  0
    0.5216    0.0194    2.2054 O   0  0  0  0  0  0  0  0  0  0  0  0
   -1.6152    0.6924    2.4469 N   0  0  0  0  0  0  0  0  0  0  0  0
   -2.5345    0.6914    2.0318 H   0  0  0  0  0  0  0  0  0  0  0  0
   -1.4720    1.2390    3.7941 C   0  0  0  0  0  0  0  0  0  0  0  0
   -0.6345    1.9391    3.8219 H   0  0  0  0  0  0  0  0  0  0  0  0
   -2.3844    1.7580    4.0892 H   0  0  0  0  0  0  0  0  0  0  0  0
   -1.2733    0.4298    4.4995 H   0  0  0  0  0  0  0  0  0  0  0  0
  5  6  2  0  0  0  0
  5  7  1  0  0  0  0
  2  3  1  0  0  0  0
  2  4  1  0  0  0  0
  2  5  1  0  0  0  0
  1  2  1  0  0  0  0
 25 26  2  0  0  0  0
 25 27  1  0  0  0  0
 23 24  1  0  0  0  0
 21 22  1  0  0  0  0
 21 23  2  0  0  0  0
 19 20  1  0  0  0  0
 19 21  1  0  0  0  0
 17 18  1  0  0  0  0
 17 19  2  0  0  0  0
 15 16  1  0  0  0  0
 15 17  1  0  0  0  0
 14 15  2  0  0  0  0
 14 23  1  0  0  0  0
 11 12  1  0  0  0  0
 11 13  1  0  0  0  0
 11 14  1  0  0  0  0
  9 10  1  0  0  0  0
  9 11  1  0  0  0  0
  9 25  1  0  0  0  0
  7  8  1  0  0  0  0
  7  9  1  0  0  0  0
 29 30  1  0  0  0  0
 29 31  1  0  0  0  0
 29 32  1  0  0  0  0
 27 28  1  0  0  0  0
 27 29  1  0  0  0  0
M  END
$$$$
default_name
  -OEChem-02102213163D

 32 32  0     1  0  0  0  0  0999 V2000
   -3.8405   -3.7518    1.6252 H   0  0  0  0  0  0  0  0  0  0  0  0
   -3.7965   -2.8768    0.9782 C   0  0  0  0  0  0  0  0  0  0  0  0
   -4.5465   -2.1527    1.2902 H   0  0  0  0  0  0  0  0  0  0  0  0
   -3.9745   -3.1748   -0.0538 H   0  0  0  0  0  0  0  0  0  0  0  0
   -2.4245   -2.2537    1.0882 C   0  0  0  0  0  0  0  0  0  0  0  0
   -1.5805   -2.7478    1.8242 O   0  0  0  0  0  0  0  0  0  0  0  0
   -2.2045   -1.1637    0.3562 N   0  0  0  0  0  0  0  0  0  0  0  0
   -2.9595   -0.7907   -0.2008 H   0  0  0  0  0  0  0  0  0  0  0  0
   -0.9485   -0.4087    0.3482 C   0  0  1  0  0  0  0  0  0  0  0  0
   -0.1408   -1.0795    0.0507 H   0  0  0  0  0  0  0  0  0  0  0  0
   -1.0432    0.7243   -0.6879 C   0  0  0  0  0  0  0  0  0  0  0  0
   -2.0807    1.0535   -0.7605 H   0  0  0  0  0  0  0  0  0  0  0  0
   -0.4539    1.5734   -0.3385 H   0  0  0  0  0  0  0  0  0  0  0  0
   -0.5772    0.3291   -2.0763 C   0  0  0  0  0  0  0  0  0  0  0  0
    0.4201   -0.6506   -2.2420 C   0  0  0  0  0  0  0  0  0  0  0  0
    0.8769   -1.1117   -1.3776 H   0  0  0  0  0  0  0  0  0  0  0  0
    0.8178   -1.0416   -3.5338 C   0  0  0  0  0  0  0  0  0  0  0  0
    1.5856   -1.7922   -3.6587 H   0  0  0  0  0  0  0  0  0  0  0  0
    0.2182   -0.4557   -4.6615 C   0  0  0  0  0  0  0  0  0  0  0  0
    0.5254   -0.7544   -5.6540 H   0  0  0  0  0  0  0  0  0  0  0  0
   -0.7777    0.5246   -4.4995 C   0  0  0  0  0  0  0  0  0  0  0  0
   -1.2348    0.9790   -5.3663 H   0  0  0  0  0  0  0  0  0  0  0  0
   -1.1725    0.9176   -3.2084 C   0  0  0  0  0  0  0  0  0  0  0  0
   -1.9364    1.6743   -3.0851 H   0  0  0  0  0  0  0  0  0  0  0  0
   -0.6196    0.1253    1.7539 C   0  0  0  0  0  0  0  0  0  0  0  0
    0.5216    0.0194    2.2054 O   0  0  0  0  0  0  0  0  0  0  0  0
   -1.6152    0.6924    2.4469 N   0  0  0  0  0  0  0  0  0  0  0  0
   -2.5345    0.6914    2.0318 H   0  0  0  0  0  0  0  0  0  0  0  0
   -1.4720    1.2390    3.7941 C   0  0  0  0  0  0  0  0  0  0  0  0
   -0.6345    1.9391    3.8219 H   0  0  0  0  0  0  0  0  0  0  0  0
   -2.3844    1.7580    4.0892 H   0  0  0  0  0  0  0  0  0  0  0  0
   -1.2733    0.4298    4.4995 H   0  0  0  0  0  0  0  0  0  0  0  0
  5  6  2  0  0  0  0
  5  7  1  0  0  0  0
  2  3  1  0  0  0  0
  2  4  1  0  0  0  0
  2  5  1  0  0  0  0
  1  2  1  0  0  0  0
 25 26  2  0  0  0  0
 25 27  1  0  0  0  0
 23 24  1  0  0  0  0
 21 22  1  0  0  0  0
 21 23  2  0  0  0  0
 19 20  1  0  0  0  0
 19 21  1  0  0  0  0
 17 18  1  0  0  0  0
 17 19  2  0  0  0  0
 15 16  1  0  0  0  0
 15 17  1  0  0  0  0
 14 15  2  0  0  0  0
 14 23  1  0  0  0  0
 11 12  1  0  0  0  0
 11 13  1  0  0  0  0
 11 14  1  0  0  0  0
  9 10  1  0  0  0  0
  9 11  1  0  0  0  0
  9 25  1  0  0  0  0
  7  8  1  0  0  0  0
  7  9  1  0  0  0  0
 29 30  1  0  0  0  0
 29 31  1  0  0  0  0
 29 32  1  0  0  0  0
 27 28  1  0  0  0  0
 27 29  1  0  0  0  0
M  END
$$$$
default_name
  -OEChem-02102213163D

 32 32  0     1  0  0  0  0  0999 V2000
   -3.8405   -3.7518    1.6252 H   0  0  0  0  0  0  0  0  0  0  0  0
   -3.7965   -2.8768    0.9782 C   0  0  0  0  0  0  0  0  0  0  0  0
   -4.5465   -2.1527    1.2902 H   0  0  0  0  0  0  0  0  0  0  0  0
   -3.9745   -3.1748   -0.0538 H   0  0  0  0  0  0  0  0  0  0  0  0
   -2.4245   -2.2537    1.0882 C   0  0  0  0  0  0  0  0  0  0  0  0
   -1.5805   -2.7478    1.8242 O   0  0  0  0  0  0  0  0  0  0  0  0
   -2.2045   -1.1637    0.3562 N   0  0  0  0  0  0  0  0  0  0  0  0
   -2.9595   -0.7907   -0.2008 H   0  0  0  0  0  0  0  0  0  0  0  0
   -0.9485   -0.4087    0.3482 C   0  0  1  0  0  0  0  0  0  0  0  0
   -0.1408   -1.0795    0.0507 H   0  0  0  0  0  0  0  0  0  0  0  0
   -1.0432    0.7243   -0.6879 C   0  0  0  0  0  0  0  0  0  0  0  0
   -2.0807    1.0535   -0.7605 H   0  0  0  0  0  0  0  0  0  0  0  0
   -0.4539    1.5734   -0.3385 H   0  0  0  0  0  0  0  0  0  0  0  0
   -0.5772    0.3291   -2.0763 C   0  0  0  0  0  0  0  0  0  0  0  0
    0.1727   -0.8467   -2.2692 C   0  0  0  0  0  0  0  0  0  0  0  0
    0.4409   -1.4642   -1.4236 H   0  0  0  0  0  0  0  0  0  0  0  0
    0.5660   -1.2283   -3.5651 C   0  0  0  0  0  0  0  0  0  0  0  0
    1.1440   -2.1301   -3.7107 H   0  0  0  0  0  0  0  0  0  0  0  0
    0.2090   -0.4368   -4.6700 C   0  0  0  0  0  0  0  0  0  0  0  0
    0.5132   -0.7289   -5.6654 H   0  0  0  0  0  0  0  0  0  0  0  0
   -0.5391    0.7394   -4.4806 C   0  0  0  0  0  0  0  0  0  0  0  0
   -0.8089    1.3508   -5.3292 H   0  0  0  0  0  0  0  0  0  0  0  0
   -0.9292    1.1223   -3.1850 C   0  0  0  0  0  0  0  0  0  0  0  0
   -1.5018    2.0292   -3.0403 H   0  0  0  0  0  0  0  0  0  0  0  0
   -0.6196    0.1253    1.7539 C   0  0  0  0  0  0  0  0  0  0  0  0
    0.5216    0.0194    2.2054 O   0  0  0  0  0  0  0  0  0  0  0  0
   -1.6152    0.6924    2.4469 N   0  0  0  0  0  0  0  0  0  0  0  0
   -2.5345    0.6914    2.0318 H   0  0  0  0  0  0  0  0  0  0  0  0
   -1.4720    1.2390    3.7941 C   0  0  0  0  0  0  0  0  0  0  0  0
   -0.6345    1.9391    3.8219 H   0  0  0  0  0  0  0  0  0  0  0  0
   -2.3844    1.7580    4.0892 H   0  0  0  0  0  0  0  0  0  0  0  0
   -1.2733    0.4298    4.4995 H   0  0  0  0  0  0  0  0  0  0  0  0
  5  6  2  0  0  0  0
  5  7  1  0  0  0  0
  2  3  1  0  0  0  0
  2  4  1  0  0  0  0
  2  5  1  0  0  0  0
  1  2  1  0  0  0  0
 25 26  2  0  0  0  0
 25 27  1  0  0  0  0
 23 24  1  0  0  0  0
 21 22  1  0  0  0  0
 21 23  2  0  0  0  0
 19 20  1  0  0  0  0
 19 21  1  0  0  0  0
 17 18  1  0  0  0  0
 17 19  2  0  0  0  0
 15 16  1  0  0  0  0
 15 17  1  0  0  0  0
 14 15  2  0  0  0  0
 14 23  1  0  0  0  0
 11 12  1  0  0  0  0
 11 13  1  0  0  0  0
 11 14  1  0  0  0  0
  9 10  1  0  0  0  0
  9 11  1  0  0  0  0
  9 25  1  0  0  0  0
  7  8  1  0  0  0  0
  7  9  1  0  0  0  0
 29 30  1  0  0  0  0
 29 31  1  0  0  0  0
 29 32  1  0  0  0  0
 27 28  1  0  0  0  0
 27 29  1  0  0  0  0
M  END
$$$$
default_name
  -OEChem-02102213163D

 32 32  0     1  0  0  0  0  0999 V2000
   -3.8405   -3.7518    1.6252 H   0  0  0  0  0  0  0  0  0  0  0  0
   -3.7965   -2.8768    0.9782 C   0  0  0  0  0  0  0  0  0  0  0  0
   -4.5465   -2.1527    1.2902 H   0  0  0  0  0  0  0  0  0  0  0  0
   -3.9745   -3.1748   -0.0538 H   0  0  0  0  0  0  0  0  0  0  0  0
   -2.4245   -2.2537    1.0882 C   0  0  0  0  0  0  0  0  0  0  0  0
   -1.5805   -2.7478    1.8242 O   0  0  0  0  0  0  0  0  0  0  0  0
   -2.2045   -1.1637    0.3562 N   0  0  0  0  0  0  0  0  0  0  0  0
   -2.9595   -0.7907   -0.2008 H   0  0  0  0  0  0  0  0  0  0  0  0
   -0.9485   -0.4087    0.3482 C   0  0  1  0  0  0  0  0  0  0  0  0
   -0.1408   -1.0795    0.0507 H   0  0  0  0  0  0  0  0  0  0  0  0
   -1.0432    0.7243   -0.6879 C   0  0  0  0  0  0  0  0  0  0  0  0
   -2.0807    1.0535   -0.7605 H   0  0  0  0  0  0  0  0  0  0  0  0
   -0.4539    1.5734   -0.3385 H   0  0  0  0  0  0  0  0  0  0  0  0
   -0.5772    0.3291   -2.0763 C   0  0  0  0  0  0  0  0  0  0  0  0
   -0.1109   -0.9753   -2.3278 C   0  0  0  0  0  0  0  0  0  0  0  0
   -0.0607   -1.6978   -1.5255 H   0  0  0  0  0  0  0  0  0  0  0  0
    0.2807   -1.3465   -3.6272 C   0  0  0  0  0  0  0  0  0  0  0  0
    0.6409   -2.3478   -3.8176 H   0  0  0  0  0  0  0  0  0  0  0  0
    0.2051   -0.4158   -4.6773 C   0  0  0  0  0  0  0  0  0  0  0  0
    0.5083   -0.7004   -5.6751 H   0  0  0  0  0  0  0  0  0  0  0  0
   -0.2590    0.8889   -4.4291 C   0  0  0  0  0  0  0  0  0  0  0  0
   -0.3120    1.6060   -5.2351 H   0  0  0  0  0  0  0  0  0  0  0  0
   -0.6472    1.2606   -3.1297 C   0  0  0  0  0  0  0  0  0  0  0  0
   -1.0009    2.2656   -2.9394 H   0  0  0  0  0  0  0  0  0  0  0  0
   -0.6196    0.1253    1.7539 C   0  0  0  0  0  0  0  0  0  0  0  0
    0.5216    0.0194    2.2054 O   0  0  0  0  0  0  0  0  0  0  0  0
   -1.6152    0.6924    2.4469 N   0  0  0  0  0  0  0  0  0  0  0  0
   -2.5345    0.6914    2.0318 H   0  0  0  0  0  0  0  0  0  0  0  0
   -1.4720    1.2390    3.7941 C   0  0  0  0  0  0  0  0  0  0  0  0
   -0.6345    1.9391    3.8219 H   0  0  0  0  0  0  0  0  0  0  0  0
   -2.3844    1.7580    4.0892 H   0  0  0  0  0  0  0  0  0  0  0  0
   -1.2733    0.4298    4.4995 H   0  0  0  0  0  0  0  0  0  0  0  0
  5  6  2  0  0  0  0
  5  7  1  0  0  0  0
  2  3  1  0  0  0  0
  2  4  1  0  0  0  0
  2  5  1  0  0  0  0
  1  2  1  0  0  0  0
 25 26  2  0  0  0  0
 25 27  1  0  0  0  0
 23 24  1  0  0  0  0
 21 22  1  0  0  0  0
 21 23  2  0  0  0  0
 19 20  1  0  0  0  0
 19 21  1  0  0  0  0
 17 18  1  0  0  0  0
 17 19  2  0  0  0  0
 15 16  1  0  0  0  0
 15 17  1  0  0  0  0
 14 15  2  0  0  0  0
 14 23  1  0  0  0  0
 11 12  1  0  0  0  0
 11 13  1  0  0  0  0
 11 14  1  0  0  0  0
  9 10  1  0  0  0  0
  9 11  1  0  0  0  0
  9 25  1  0  0  0  0
  7  8  1  0  0  0  0
  7  9  1  0  0  0  0
 29 30  1  0  0  0  0
 29 31  1  0  0  0  0
 29 32  1  0  0  0  0
 27 28  1  0  0  0  0
 27 29  1  0  0  0  0
M  END
$$$$
default_name
  -OEChem-02102213163D

 32 32  0     1  0  0  0  0  0999 V2000
   -3.8405   -3.7518    1.6252 H   0  0  0  0  0  0  0  0  0  0  0  0
   -3.7965   -2.8768    0.9782 C   0  0  0  0  0  0  0  0  0  0  0  0
   -4.5465   -2.1527    1.2902 H   0  0  0  0  0  0  0  0  0  0  0  0
   -3.9745   -3.1748   -0.0538 H   0  0  0  0  0  0  0  0  0  0  0  0
   -2.4245   -2.2537    1.0882 C   0  0  0  0  0  0  0  0  0  0  0  0
   -1.5805   -2.7478    1.8242 O   0  0  0  0  0  0  0  0  0  0  0  0
   -2.2045   -1.1637    0.3562 N   0  0  0  0  0  0  0  0  0  0  0  0
   -2.9595   -0.7907   -0.2008 H   0  0  0  0  0  0  0  0  0  0  0  0
   -0.9485   -0.4087    0.3482 C   0  0  1  0  0  0  0  0  0  0  0  0
   -0.1408   -1.0795    0.0507 H   0  0  0  0  0  0  0  0  0  0  0  0
   -1.0432    0.7243   -0.6879 C   0  0  0  0  0  0  0  0  0  0  0  0
   -2.0807    1.0535   -0.7605 H   0  0  0  0  0  0  0  0  0  0  0  0
   -0.4539    1.5734   -0.3385 H   0  0  0  0  0  0  0  0  0  0  0  0
   -0.5772    0.3291   -2.0763 C   0  0  0  0  0  0  0  0  0  0  0  0
   -0.4114   -1.0276   -2.4137 C   0  0  0  0  0  0  0  0  0  0  0  0
   -0.5937   -1.7965   -1.6762 H   0  0  0  0  0  0  0  0  0  0  0  0
   -0.0187   -1.3882   -3.7159 C   0  0  0  0  0  0  0  0  0  0  0  0
    0.1106   -2.4304   -3.9721 H   0  0  0  0  0  0  0  0  0  0  0  0
    0.2069   -0.3939   -4.6829 C   0  0  0  0  0  0  0  0  0  0  0  0
    0.5109   -0.6709   -5.6827 H   0  0  0  0  0  0  0  0  0  0  0  0
    0.0435    0.9627   -4.3486 C   0  0  0  0  0  0  0  0  0  0  0  0
    0.2221    1.7274   -5.0903 H   0  0  0  0  0  0  0  0  0  0  0  0
   -0.3457    1.3230   -3.0463 C   0  0  0  0  0  0  0  0  0  0  0  0
   -0.4679    2.3672   -2.7895 H   0  0  0  0  0  0  0  0  0  0  0  0
   -0.6196    0.1253    1.7539 C   0  0  0  0  0  0  0  0  0  0  0  0
    0.5216    0.0194    2.2054 O   0  0  0  0  0  0  0  0  0  0  0  0
   -1.6152    0.6924    2.4469 N   0  0  0  0  0  0  0  0  0  0  0  0
   -2.5345    0.6914    2.0318 H   0  0  0  0  0  0  0  0  0  0  0  0
   -1.4720    1.2390    3.7941 C   0  0  0  0  0  0  0  0  0  0  0  0
   -0.6345    1.9391    3.8219 H   0  0  0  0  0  0  0  0  0  0  0  0
   -2.3844    1.7580    4.0892 H   0  0  0  0  0  0  0  0  0  0  0  0
   -1.2733    0.4298    4.4995 H   0  0  0  0  0  0  0  0  0  0  0  0
  5  6  2  0  0  0  0
  5  7  1  0  0  0  0
  2  3  1  0  0  0  0
  2  4  1  0  0  0  0
  2  5  1  0  0  0  0
  1  2  1  0  0  0  0
 25 26  2  0  0  0  0
 25 27  1  0  0  0  0
 23 24  1  0  0  0  0
 21 22  1  0  0  0  0
 21 23  2  0  0  0  0
 19 20  1  0  0  0  0
 19 21  1  0  0  0  0
 17 18  1  0  0  0  0
 17 19  2  0  0  0  0
 15 16  1  0  0  0  0
 15 17  1  0  0  0  0
 14 15  2  0  0  0  0
 14 23  1  0  0  0  0
 11 12  1  0  0  0  0
 11 13  1  0  0  0  0
 11 14  1  0  0  0  0
  9 10  1  0  0  0  0
  9 11  1  0  0  0  0
  9 25  1  0  0  0  0
  7  8  1  0  0  0  0
  7  9  1  0  0  0  0
 29 30  1  0  0  0  0
 29 31  1  0  0  0  0
 29 32  1  0  0  0  0
 27 28  1  0  0  0  0
 27 29  1  0  0  0  0
M  END
$$$$
default_name
  -OEChem-02102213163D

 32 32  0     1  0  0  0  0  0999 V2000
   -3.8405   -3.7518    1.6252 H   0  0  0  0  0  0  0  0  0  0  0  0
   -3.7965   -2.8768    0.9782 C   0  0  0  0  0  0  0  0  0  0  0  0
   -4.5465   -2.1527    1.2902 H   0  0  0  0  0  0  0  0  0  0  0  0
   -3.9745   -3.1748   -0.0538 H   0  0  0  0  0  0  0  0  0  0  0  0
   -2.4245   -2.2537    1.0882 C   0  0  0  0  0  0  0  0  0  0  0  0
   -1.5805   -2.7478    1.8242 O   0  0  0  0  0  0  0  0  0  0  0  0
   -2.2045   -1.1637    0.3562 N   0  0  0  0  0  0  0  0  0  0  0  0
   -2.9595   -0.7907   -0.2008 H   0  0  0  0  0  0  0  0  0  0  0  0
   -0.9485   -0.4087    0.3482 C   0  0  1  0  0  0  0  0  0  0  0  0
   -0.1408   -1.0795    0.0507 H   0  0  0  0  0  0  0  0  0  0  0  0
   -1.0432    0.7243   -0.6879 C   0  0  0  0  0  0  0  0  0  0  0  0
   -2.0807    1.0535   -0.7605 H   0  0  0  0  0  0  0  0  0  0  0  0
   -0.4539    1.5734   -0.3385 H   0  0  0  0  0  0  0  0  0  0  0  0
   -0.5772    0.3291   -2.0763 C   0  0  0  0  0  0  0  0  0  0  0  0
   -0.7082   -1.0002   -2.5211 C   0  0  0  0  0  0  0  0  0  0  0  0
   -1.1218   -1.7536   -1.8657 H   0  0  0  0  0  0  0  0  0  0  0  0
   -0.3118   -1.3505   -3.8250 C   0  0  0  0  0  0  0  0  0  0  0  0
   -0.4108   -2.3723   -4.1636 H   0  0  0  0  0  0  0  0  0  0  0  0
    0.2142   -0.3728   -4.6865 C   0  0  0  0  0  0  0  0  0  0  0  0
    0.5209   -0.6425   -5.6874 H   0  0  0  0  0  0  0  0  0  0  0  0
    0.3478    0.9561   -4.2446 C   0  0  0  0  0  0  0  0  0  0  0  0
    0.7571    1.7066   -4.9049 H   0  0  0  0  0  0  0  0  0  0  0  0
   -0.0454    1.3052   -2.9404 C   0  0  0  0  0  0  0  0  0  0  0  0
    0.0610    2.3272   -2.6006 H   0  0  0  0  0  0  0  0  0  0  0  0
   -0.6196    0.1253    1.7539 C   0  0  0  0  0  0  0  0  0  0  0  0
    0.5216    0.0194    2.2054 O   0  0  0  0  0  0  0  0  0  0  0  0
   -1.6152    0.6924    2.4469 N   0  0  0  0  0  0  0  0  0  0  0  0
   -2.5345    0.6914    2.0318 H   0  0  0  0  0  0  0  0  0  0  0  0
   -1.4720    1.2390    3.7941 C   0  0  0  0  0  0  0  0  0  0  0  0
   -0.6345    1.9391    3.8219 H   0  0  0  0  0  0  0  0  0  0  0  0
   -2.3844    1.7580    4.0892 H   0  0  0  0  0  0  0  0  0  0  0  0
   -1.2733    0.4298    4.4995 H   0  0  0  0  0  0  0  0  0  0  0  0
  5  6  2  0  0  0  0
  5  7  1  0  0  0  0
  2  3  1  0  0  0  0
  2  4  1  0  0  0  0
  2  5  1  0  0  0  0
  1  2  1  0  0  0  0
 25 26  2  0  0  0  0
 25 27  1  0  0  0  0
 23 24  1  0  0  0  0
 21 22  1  0  0  0  0
 21 23  2  0  0  0  0
 19 20  1  0  0  0  0
 19 21  1  0  0  0  0
 17 18  1  0  0  0  0
 17 19  2  0  0  0  0
 15 16  1  0  0  0  0
 15 17  1  0  0  0  0
 14 15  2  0  0  0  0
 14 23  1  0  0  0  0
 11 12  1  0  0  0  0
 11 13  1  0  0  0  0
 11 14  1  0  0  0  0
  9 10  1  0  0  0  0
  9 11  1  0  0  0  0
  9 25  1  0  0  0  0
  7  8  1  0  0  0  0
  7  9  1  0  0  0  0
 29 30  1  0  0  0  0
 29 31  1  0  0  0  0
 29 32  1  0  0  0  0
 27 28  1  0  0  0  0
 27 29  1  0  0  0  0
M  END
$$$$
default_name
  -OEChem-02102213163D

 32 32  0     1  0  0  0  0  0999 V2000
   -3.8405   -3.7518    1.6252 H   0  0  0  0  0  0  0  0  0  0  0  0
   -3.7965   -2.8768    0.9782 C   0  0  0  0  0  0  0  0  0  0  0  0
   -4.5465   -2.1527    1.2902 H   0  0  0  0  0  0  0  0  0  0  0  0
   -3.9745   -3.1748   -0.0538 H   0  0  0  0  0  0  0  0  0  0  0  0
   -2.4245   -2.2537    1.0882 C   0  0  0  0  0  0  0  0  0  0  0  0
   -1.5805   -2.7478    1.8242 O   0  0  0  0  0  0  0  0  0  0  0  0
   -2.2045   -1.1637    0.3562 N   0  0  0  0  0  0  0  0  0  0  0  0
   -2.9595   -0.7907   -0.2008 H   0  0  0  0  0  0  0  0  0  0  0  0
   -0.9485   -0.4087    0.3482 C   0  0  1  0  0  0  0  0  0  0  0  0
   -0.1408   -1.0795    0.0507 H   0  0  0  0  0  0  0  0  0  0  0  0
   -1.0432    0.7243   -0.6879 C   0  0  0  0  0  0  0  0  0  0  0  0
   -2.0807    1.0535   -0.7605 H   0  0  0  0  0  0  0  0  0  0  0  0
   -0.4539    1.5734   -0.3385 H   0  0  0  0  0  0  0  0  0  0  0  0
   -0.5772    0.3291   -2.0763 C   0  0  0  0  0  0  0  0  0  0  0  0
   -0.9812   -0.8948   -2.6427 C   0  0  0  0  0  0  0  0  0  0  0  0
   -1.6089   -1.5720   -2.0808 H   0  0  0  0  0  0  0  0  0  0  0  0
   -0.5786   -1.2359   -3.9471 C   0  0  0  0  0  0  0  0  0  0  0  0
   -0.8877   -2.1774   -4.3792 H   0  0  0  0  0  0  0  0  0  0  0  0
    0.2264   -0.3538   -4.6878 C   0  0  0  0  0  0  0  0  0  0  0  0
    0.5377   -0.6170   -5.6890 H   0  0  0  0  0  0  0  0  0  0  0  0
    0.6330    0.8693   -4.1242 C   0  0  0  0  0  0  0  0  0  0  0  0
    1.2563    1.5450   -4.6913 H   0  0  0  0  0  0  0  0  0  0  0  0
    0.2333    1.2084   -2.8194 C   0  0  0  0  0  0  0  0  0  0  0  0
    0.5495    2.1482   -2.3857 H   0  0  0  0  0  0  0  0  0  0  0  0
   -0.6196    0.1253    1.7539 C   0  0  0  0  0  0  0  0  0  0  0  0
    0.5216    0.0194    2.2054 O   0  0  0  0  0  0  0  0  0  0  0  0
   -1.6152    0.6924    2.4469 N   0  0  0  0  0  0  0  0  0  0  0  0
   -2.5345    0.6914    2.0318 H   0  0  0  0  0  0  0  0  0  0  0  0
   -1.4720    1.2390    3.7941 C   0  0  0  0  0  0  0  0  0  0  0  0
   -0.6345    1.9391    3.8219 H   0  0  0  0  0  0  0  0  0  0  0  0
   -2.3844    1.7580    4.0892 H   0  0  0  0  0  0  0  0  0  0  0  0
   -1.2733    0.4298    4.4995 H   0  0  0  0  0  0  0  0  0  0  0  0
  5  6  2  0  0  0  0
  5  7  1  0  0  0  0
  2  3  1  0  0  0  0
  2  4  1  0  0  0  0
  2  5  1  0  0  0  0
  1  2  1  0  0  0  0
 25 26  2  0  0  0  0
 25 27  1  0  0  0  0
 23 24  1  0  0  0  0
 21 22  1  0  0  0  0
 21 23  2  0  0  0  0
 19 20  1  0  0  0  0
 19 21  1  0  0  0  0
 17 18  1  0  0  0  0
 17 19  2  0  0  0  0
 15 16  1  0  0  0  0
 15 17  1  0  0  0  0
 14 15  2  0  0  0  0
 14 23  1  0  0  0  0
 11 12  1  0  0  0  0
 11 13  1  0  0  0  0
 11 14  1  0  0  0  0
  9 10  1  0  0  0  0
  9 11  1  0  0  0  0
  9 25  1  0  0  0  0
  7  8  1  0  0  0  0
  7  9  1  0  0  0  0
 29 30  1  0  0  0  0
 29 31  1  0  0  0  0
 29 32  1  0  0  0  0
 27 28  1  0  0  0  0
 27 29  1  0  0  0  0
M  END
$$$$
default_name
  -OEChem-02102213163D

 32 32  0     1  0  0  0  0  0999 V2000
   -3.8405   -3.7518    1.6252 H   0  0  0  0  0  0  0  0  0  0  0  0
   -3.7965   -2.8768    0.9782 C   0  0  0  0  0  0  0  0  0  0  0  0
   -4.5465   -2.1527    1.2902 H   0  0  0  0  0  0  0  0  0  0  0  0
   -3.9745   -3.1748   -0.0538 H   0  0  0  0  0  0  0  0  0  0  0  0
   -2.4245   -2.2537    1.0882 C   0  0  0  0  0  0  0  0  0  0  0  0
   -1.5805   -2.7478    1.8242 O   0  0  0  0  0  0  0  0  0  0  0  0
   -2.2045   -1.1637    0.3562 N   0  0  0  0  0  0  0  0  0  0  0  0
   -2.9595   -0.7907   -0.2008 H   0  0  0  0  0  0  0  0  0  0  0  0
   -0.9485   -0.4087    0.3482 C   0  0  1  0  0  0  0  0  0  0  0  0
   -0.1408   -1.0795    0.0507 H   0  0  0  0  0  0  0  0  0  0  0  0
   -1.0432    0.7243   -0.6879 C   0  0  0  0  0  0  0  0  0  0  0  0
   -2.0807    1.0535   -0.7605 H   0  0  0  0  0  0  0  0  0  0  0  0
   -0.4539    1.5734   -0.3385 H   0  0  0  0  0  0  0  0  0  0  0  0
   -0.5772    0.3291   -2.0763 C   0  0  0  0  0  0  0  0  0  0  0  0
   -1.2117   -0.7188   -2.7702 C   0  0  0  0  0  0  0  0  0  0  0  0
   -2.0219   -1.2641   -2.3071 H   0  0  0  0  0  0  0  0  0  0  0  0
   -0.8009   -1.0524   -4.0740 C   0  0  0  0  0  0  0  0  0  0  0  0
   -1.2877   -1.8590   -4.6040 H   0  0  0  0  0  0  0  0  0  0  0  0
    0.2428   -0.3383   -4.6867 C   0  0  0  0  0  0  0  0  0  0  0  0
    0.5600   -0.5962   -5.6874 H   0  0  0  0  0  0  0  0  0  0  0  0
    0.8799    0.7083   -3.9955 C   0  0  0  0  0  0  0  0  0  0  0  0
    1.6859    1.2537   -4.4642 H   0  0  0  0  0  0  0  0  0  0  0  0
    0.4714    1.0393   -2.6913 C   0  0  0  0  0  0  0  0  0  0  0  0
    0.9646    1.8425   -2.1594 H   0  0  0  0  0  0  0  0  0  0  0  0
   -0.6196    0.1253    1.7539 C   0  0  0  0  0  0  0  0  0  0  0  0
    0.5216    0.0194    2.2054 O   0  0  0  0  0  0  0  0  0  0  0  0
   -1.6152    0.6924    2.4469 N   0  0  0  0  0  0  0  0  0  0  0  0
   -2.5345    0.6914    2.0318 H   0  0  0  0  0  0  0  0  0  0  0  0
   -1.4720    1.2390    3.7941 C   0  0  0  0  0  0  0  0  0  0  0  0
   -0.6345    1.9391    3.8219 H   0  0  0  0  0  0  0  0  0  0  0  0
   -2.3844    1.7580    4.0892 H   0  0  0  0  0  0  0  0  0  0  0  0
   -1.2733    0.4298    4.4995 H   0  0  0  0  0  0  0  0  0  0  0  0
  5  6  2  0  0  0  0
  5  7  1  0  0  0  0
  2  3  1  0  0  0  0
  2  4  1  0  0  0  0
  2  5  1  0  0  0  0
  1  2  1  0  0  0  0
 25 26  2  0  0  0  0
 25 27  1  0  0  0  0
 23 24  1  0  0  0  0
 21 22  1  0  0  0  0
 21 23  2  0  0  0  0
 19 20  1  0  0  0  0
 19 21  1  0  0  0  0
 17 18  1  0  0  0  0
 17 19  2  0  0  0  0
 15 16  1  0  0  0  0
 15 17  1  0  0  0  0
 14 15  2  0  0  0  0
 14 23  1  0  0  0  0
 11 12  1  0  0  0  0
 11 13  1  0  0  0  0
 11 14  1  0  0  0  0
  9 10  1  0  0  0  0
  9 11  1  0  0  0  0
  9 25  1  0  0  0  0
  7  8  1  0  0  0  0
  7  9  1  0  0  0  0
 29 30  1  0  0  0  0
 29 31  1  0  0  0  0
 29 32  1  0  0  0  0
 27 28  1  0  0  0  0
 27 29  1  0  0  0  0
M  END
$$$$
default_name
  -OEChem-02102213163D

 32 32  0     1  0  0  0  0  0999 V2000
   -3.8405   -3.7518    1.6252 H   0  0  0  0  0  0  0  0  0  0  0  0
   -3.7965   -2.8768    0.9782 C   0  0  0  0  0  0  0  0  0  0  0  0
   -4.5465   -2.1527    1.2902 H   0  0  0  0  0  0  0  0  0  0  0  0
   -3.9745   -3.1748   -0.0538 H   0  0  0  0  0  0  0  0  0  0  0  0
   -2.4245   -2.2537    1.0882 C   0  0  0  0  0  0  0  0  0  0  0  0
   -1.5805   -2.7478    1.8242 O   0  0  0  0  0  0  0  0  0  0  0  0
   -2.2045   -1.1637    0.3562 N   0  0  0  0  0  0  0  0  0  0  0  0
   -2.9595   -0.7907   -0.2008 H   0  0  0  0  0  0  0  0  0  0  0  0
   -0.9485   -0.4087    0.3482 C   0  0  1  0  0  0  0  0  0  0  0  0
   -0.1408   -1.0795    0.0507 H   0  0  0  0  0  0  0  0  0  0  0  0
   -1.0432    0.7243   -0.6879 C   0  0  0  0  0  0  0  0  0  0  0  0
   -2.0807    1.0535   -0.7605 H   0  0  0  0  0  0  0  0  0  0  0  0
   -0.4539    1.5734   -0.3385 H   0  0  0  0  0  0  0  0  0  0  0  0
   -0.5772    0.3291   -2.0763 C   0  0  0  0  0  0  0  0  0  0  0  0
   -1.3840   -0.4839   -2.8949 C   0  0  0  0  0  0  0  0  0  0  0  0
   -2.3326   -0.8509   -2.5290 H   0  0  0  0  0  0  0  0  0  0  0  0
   -0.9636   -0.8123   -4.1969 C   0  0  0  0  0  0  0  0  0  0  0  0
   -1.5834   -1.4388   -4.8229 H   0  0  0  0  0  0  0  0  0  0  0  0
    0.2623   -0.3273   -4.6833 C   0  0  0  0  0  0  0  0  0  0  0  0
    0.5863   -0.5816   -5.6828 H   0  0  0  0  0  0  0  0  0  0  0  0
    1.0716    0.4841   -3.8673 C   0  0  0  0  0  0  0  0  0  0  0  0
    2.0165    0.8525   -4.2391 H   0  0  0  0  0  0  0  0  0  0  0  0
    0.6527    0.8094   -2.5650 C   0  0  0  0  0  0  0  0  0  0  0  0
    1.2778    1.4309   -1.9371 H   0  0  0  0  0  0  0  0  0  0  0  0
   -0.6196    0.1253    1.7539 C   0  0  0  0  0  0  0  0  0  0  0  0
    0.5216    0.0194    2.2054 O   0  0  0  0  0  0  0  0  0  0  0  0
   -1.6152    0.6924    2.4469 N   0  0  0  0  0  0  0  0  0  0  0  0
   -2.5345    0.6914    2.0318 H   0  0  0  0  0  0  0  0  0  0  0  0
   -1.4720    1.2390    3.7941 C   0  0  0  0  0  0  0  0  0  0  0  0
   -0.6345    1.9391    3.8219 H   0  0  0  0  0  0  0  0  0  0  0  0
   -2.3844    1.7580    4.0892 H   0  0  0  0  0  0  0  0  0  0  0  0
   -1.2733    0.4298    4.4995 H   0  0  0  0  0  0  0  0  0  0  0  0
  5  6  2  0  0  0  0
  5  7  1  0  0  0  0
  2  3  1  0  0  0  0
  2  4  1  0  0  0  0
  2  5  1  0  0  0  0
  1  2  1  0  0  0  0
 25 26  2  0  0  0  0
 25 27  1  0  0  0  0
 23 24  1  0  0  0  0
 21 22  1  0  0  0  0
 21 23  2  0  0  0  0
 19 20  1  0  0  0  0
 19 21  1  0  0  0  0
 17 18  1  0  0  0  0
 17 19  2  0  0  0  0
 15 16  1  0  0  0  0
 15 17  1  0  0  0  0
 14 15  2  0  0  0  0
 14 23  1  0  0  0  0
 11 12  1  0  0  0  0
 11 13  1  0  0  0  0
 11 14  1  0  0  0  0
  9 10  1  0  0  0  0
  9 11  1  0  0  0  0
  9 25  1  0  0  0  0
  7  8  1  0  0  0  0
  7  9  1  0  0  0  0
 29 30  1  0  0  0  0
 29 31  1  0  0  0  0
 29 32  1  0  0  0  0
 27 28  1  0  0  0  0
 27 29  1  0  0  0  0
M  END
$$$$
default_name
  -OEChem-02102213163D

 32 32  0     1  0  0  0  0  0999 V2000
   -3.8405   -3.7518    1.6252 H   0  0  0  0  0  0  0  0  0  0  0  0
   -3.7965   -2.8768    0.9782 C   0  0  0  0  0  0  0  0  0  0  0  0
   -4.5465   -2.1527    1.2902 H   0  0  0  0  0  0  0  0  0  0  0  0
   -3.9745   -3.1748   -0.0538 H   0  0  0  0  0  0  0  0  0  0  0  0
   -2.4245   -2.2537    1.0882 C   0  0  0  0  0  0  0  0  0  0  0  0
   -1.5805   -2.7478    1.8242 O   0  0  0  0  0  0  0  0  0  0  0  0
   -2.2045   -1.1637    0.3562 N   0  0  0  0  0  0  0  0  0  0  0  0
   -2.9595   -0.7907   -0.2008 H   0  0  0  0  0  0  0  0  0  0  0  0
   -0.9485   -0.4087    0.3482 C   0  0  1  0  0  0  0  0  0  0  0  0
   -0.1408   -1.0795    0.0507 H   0  0  0  0  0  0  0  0  0  0  0  0
   -1.0432    0.7243   -0.6879 C   0  0  0  0  0  0  0  0  0  0  0  0
   -2.0807    1.0535   -0.7605 H   0  0  0  0  0  0  0  0  0  0  0  0
   -0.4539    1.5734   -0.3385 H   0  0  0  0  0  0  0  0  0  0  0  0
   -0.5772    0.3291   -2.0763 C   0  0  0  0  0  0  0  0  0  0  0  0
   -1.4864   -0.2064   -3.0083 C   0  0  0  0  0  0  0  0  0  0  0  0
   -2.5198   -0.3605   -2.7315 H   0  0  0  0  0  0  0  0  0  0  0  0
   -1.0556   -0.5321   -4.3076 C   0  0  0  0  0  0  0  0  0  0  0  0
   -1.7548   -0.9455   -5.0209 H   0  0  0  0  0  0  0  0  0  0  0  0
    0.2835   -0.3216   -4.6778 C   0  0  0  0  0  0  0  0  0  0  0  0
    0.6150   -0.5741   -5.6753 H   0  0  0  0  0  0  0  0  0  0  0  0
    1.1949    0.2119   -3.7484 C   0  0  0  0  0  0  0  0  0  0  0  0
    2.2256    0.3687   -4.0312 H   0  0  0  0  0  0  0  0  0  0  0  0
    0.7649    0.5343   -2.4490 C   0  0  0  0  0  0  0  0  0  0  0  0
    1.4678    0.9415   -1.7340 H   0  0  0  0  0  0  0  0  0  0  0  0
   -0.6196    0.1253    1.7539 C   0  0  0  0  0  0  0  0  0  0  0  0
    0.5216    0.0194    2.2054 O   0  0  0  0  0  0  0  0  0  0  0  0
   -1.6152    0.6924    2.4469 N   0  0  0  0  0  0  0  0  0  0  0  0
   -2.5345    0.6914    2.0318 H   0  0  0  0  0  0  0  0  0  0  0  0
   -1.4720    1.2390    3.7941 C   0  0  0  0  0  0  0  0  0  0  0  0
   -0.6345    1.9391    3.8219 H   0  0  0  0  0  0  0  0  0  0  0  0
   -2.3844    1.7580    4.0892 H   0  0  0  0  0  0  0  0  0  0  0  0
   -1.2733    0.4298    4.4995 H   0  0  0  0  0  0  0  0  0  0  0  0
  5  6  2  0  0  0  0
  5  7  1  0  0  0  0
  2  3  1  0  0  0  0
  2  4  1  0  0  0  0
  2  5  1  0  0  0  0
  1  2  1  0  0  0  0
 25 26  2  0  0  0  0
 25 27  1  0  0  0  0
 23 24  1  0  0  0  0
 21 22  1  0  0  0  0
 21 23  2  0  0  0  0
 19 20  1  0  0  0  0
 19 21  1  0  0  0  0
 17 18  1  0  0  0  0
 17 19  2  0  0  0  0
 15 16  1  0  0  0  0
 15 17  1  0  0  0  0
 14 15  2  0  0  0  0
 14 23  1  0  0  0  0
 11 12  1  0  0  0  0
 11 13  1  0  0  0  0
 11 14  1  0  0  0  0
  9 10  1  0  0  0  0
  9 11  1  0  0  0  0
  9 25  1  0  0  0  0
  7  8  1  0  0  0  0
  7  9  1  0  0  0  0
 29 30  1  0  0  0  0
 29 31  1  0  0  0  0
 29 32  1  0  0  0  0
 27 28  1  0  0  0  0
 27 29  1  0  0  0  0
M  END
$$$$
default_name
  -OEChem-02102213163D

 32 32  0     1  0  0  0  0  0999 V2000
   -3.8405   -3.7518    1.6252 H   0  0  0  0  0  0  0  0  0  0  0  0
   -3.7965   -2.8768    0.9782 C   0  0  0  0  0  0  0  0  0  0  0  0
   -4.5465   -2.1527    1.2902 H   0  0  0  0  0  0  0  0  0  0  0  0
   -3.9745   -3.1748   -0.0538 H   0  0  0  0  0  0  0  0  0  0  0  0
   -2.4245   -2.2537    1.0882 C   0  0  0  0  0  0  0  0  0  0  0  0
   -1.5805   -2.7478    1.8242 O   0  0  0  0  0  0  0  0  0  0  0  0
   -2.2045   -1.1637    0.3562 N   0  0  0  0  0  0  0  0  0  0  0  0
   -2.9595   -0.7907   -0.2008 H   0  0  0  0  0  0  0  0  0  0  0  0
   -0.9485   -0.4087    0.3482 C   0  0  1  0  0  0  0  0  0  0  0  0
   -0.1408   -1.0795    0.0507 H   0  0  0  0  0  0  0  0  0  0  0  0
   -1.0432    0.7243   -0.6879 C   0  0  0  0  0  0  0  0  0  0  0  0
   -2.0807    1.0535   -0.7605 H   0  0  0  0  0  0  0  0  0  0  0  0
   -0.4539    1.5734   -0.3385 H   0  0  0  0  0  0  0  0  0  0  0  0
   -0.5772    0.3291   -2.0763 C   0  0  0  0  0  0  0  0  0  0  0  0
   -1.5120    0.0950   -3.1027 C   0  0  0  0  0  0  0  0  0  0  0  0
   -2.5709    0.1737   -2.9007 H   0  0  0  0  0  0  0  0  0  0  0  0
   -1.0707   -0.2309   -4.3984 C   0  0  0  0  0  0  0  0  0  0  0  0
   -1.7901   -0.4127   -5.1844 H   0  0  0  0  0  0  0  0  0  0  0  0
    0.3049   -0.3215   -4.6706 C   0  0  0  0  0  0  0  0  0  0  0  0
    0.6439   -0.5742   -5.6656 H   0  0  0  0  0  0  0  0  0  0  0  0
    1.2416   -0.0897   -3.6469 C   0  0  0  0  0  0  0  0  0  0  0  0
    2.2989   -0.1646   -3.8547 H   0  0  0  0  0  0  0  0  0  0  0  0
    0.8002    0.2328   -2.3513 C   0  0  0  0  0  0  0  0  0  0  0  0
    1.5218    0.4075   -1.5639 H   0  0  0  0  0  0  0  0  0  0  0  0
   -0.6196    0.1253    1.7539 C   0  0  0  0  0  0  0  0  0  0  0  0
    0.5216    0.0194    2.2054 O   0  0  0  0  0  0  0  0  0  0  0  0
   -1.6152    0.6924    2.4469 N   0  0  0  0  0  0  0  0  0  0  0  0
   -2.5345    0.6914    2.0318 H   0  0  0  0  0  0  0  0  0  0  0  0
   -1.4720    1.2390    3.7941 C   0  0  0  0  0  0  0  0  0  0  0  0
   -0.6345    1.9391    3.8219 H   0  0  0  0  0  0  0  0  0  0  0  0
   -2.3844    1.7580    4.0892 H   0  0  0  0  0  0  0  0  0  0  0  0
   -1.2733    0.4298    4.4995 H   0  0  0  0  0  0  0  0  0  0  0  0
  5  6  2  0  0  0  0
  5  7  1  0  0  0  0
  2  3  1  0  0  0  0
  2  4  1  0  0  0  0
  2  5  1  0  0  0  0
  1  2  1  0  0  0  0
 25 26  2  0  0  0  0
 25 27  1  0  0  0  0
 23 24  1  0  0  0  0
 21 22  1  0  0  0  0
 21 23  2  0  0  0  0
 19 20  1  0  0  0  0
 19 21  1  0  0  0  0
 17 18  1  0  0  0  0
 17 19  2  0  0  0  0
 15 16  1  0  0  0  0
 15 17  1  0  0  0  0
 14 15  2  0  0  0  0
 14 23  1  0  0  0  0
 11 12  1  0  0  0  0
 11 13  1  0  0  0  0
 11 14  1  0  0  0  0
  9 10  1  0  0  0  0
  9 11  1  0  0  0  0
  9 25  1  0  0  0  0
  7  8  1  0  0  0  0
  7  9  1  0  0  0  0
 29 30  1  0  0  0  0
 29 31  1  0  0  0  0
 29 32  1  0  0  0  0
 27 28  1  0  0  0  0
 27 29  1  0  0  0  0
M  END
$$$$
default_name
  -OEChem-02102213163D

 32 32  0     1  0  0  0  0  0999 V2000
   -3.8405   -3.7518    1.6252 H   0  0  0  0  0  0  0  0  0  0  0  0
   -3.7965   -2.8768    0.9782 C   0  0  0  0  0  0  0  0  0  0  0  0
   -4.5465   -2.1527    1.2902 H   0  0  0  0  0  0  0  0  0  0  0  0
   -3.9745   -3.1748   -0.0538 H   0  0  0  0  0  0  0  0  0  0  0  0
   -2.4245   -2.2537    1.0882 C   0  0  0  0  0  0  0  0  0  0  0  0
   -1.5805   -2.7478    1.8242 O   0  0  0  0  0  0  0  0  0  0  0  0
   -2.2045   -1.1637    0.3562 N   0  0  0  0  0  0  0  0  0  0  0  0
   -2.9595   -0.7907   -0.2008 H   0  0  0  0  0  0  0  0  0  0  0  0
   -0.9485   -0.4087    0.3482 C   0  0  1  0  0  0  0  0  0  0  0  0
   -0.1408   -1.0795    0.0507 H   0  0  0  0  0  0  0  0  0  0  0  0
   -1.0432    0.7243   -0.6879 C   0  0  0  0  0  0  0  0  0  0  0  0
   -2.0807    1.0535   -0.7605 H   0  0  0  0  0  0  0  0  0  0  0  0
   -0.4539    1.5734   -0.3385 H   0  0  0  0  0  0  0  0  0  0  0  0
   -0.5772    0.3291   -2.0763 C   0  0  0  0  0  0  0  0  0  0  0  0
   -1.4589    0.3997   -3.1716 C   0  0  0  0  0  0  0  0  0  0  0  0
   -2.4823    0.7152   -3.0251 H   0  0  0  0  0  0  0  0  0  0  0  0
   -1.0077    0.0709   -4.4632 C   0  0  0  0  0  0  0  0  0  0  0  0
   -1.6870    0.1233   -5.3024 H   0  0  0  0  0  0  0  0  0  0  0  0
    0.3252   -0.3270   -4.6622 C   0  0  0  0  0  0  0  0  0  0  0  0
    0.6711   -0.5819   -5.6542 H   0  0  0  0  0  0  0  0  0  0  0  0
    1.2084   -0.4001   -3.5697 C   0  0  0  0  0  0  0  0  0  0  0  0
    2.2315   -0.7112   -3.7217 H   0  0  0  0  0  0  0  0  0  0  0  0
    0.7564   -0.0746   -2.2786 C   0  0  0  0  0  0  0  0  0  0  0  0
    1.4359   -0.1345   -1.4384 H   0  0  0  0  0  0  0  0  0  0  0  0
   -0.6196    0.1253    1.7539 C   0  0  0  0  0  0  0  0  0  0  0  0
    0.5216    0.0194    2.2054 O   0  0  0  0  0  0  0  0  0  0  0  0
   -1.6152    0.6924    2.4469 N   0  0  0  0  0  0  0  0  0  0  0  0
   -2.5345    0.6914    2.0318 H   0  0  0  0  0  0  0  0  0  0  0  0
   -1.4720    1.2390    3.7941 C   0  0  0  0  0  0  0  0  0  0  0  0
   -0.6345    1.9391    3.8219 H   0  0  0  0  0  0  0  0  0  0  0  0
   -2.3844    1.7580    4.0892 H   0  0  0  0  0  0  0  0  0  0  0  0
   -1.2733    0.4298    4.4995 H   0  0  0  0  0  0  0  0  0  0  0  0
  5  6  2  0  0  0  0
  5  7  1  0  0  0  0
  2  3  1  0  0  0  0
  2  4  1  0  0  0  0
  2  5  1  0  0  0  0
  1  2  1  0  0  0  0
 25 26  2  0  0  0  0
 25 27  1  0  0  0  0
 23 24  1  0  0  0  0
 21 22  1  0  0  0  0
 21 23  2  0  0  0  0
 19 20  1  0  0  0  0
 19 21  1  0  0  0  0
 17 18  1  0  0  0  0
 17 19  2  0  0  0  0
 15 16  1  0  0  0  0
 15 17  1  0  0  0  0
 14 15  2  0  0  0  0
 14 23  1  0  0  0  0
 11 12  1  0  0  0  0
 11 13  1  0  0  0  0
 11 14  1  0  0  0  0
  9 10  1  0  0  0  0
  9 11  1  0  0  0  0
  9 25  1  0  0  0  0
  7  8  1  0  0  0  0
  7  9  1  0  0  0  0
 29 30  1  0  0  0  0
 29 31  1  0  0  0  0
 29 32  1  0  0  0  0
 27 28  1  0  0  0  0
 27 29  1  0  0  0  0
M  END
$$$$
default_name
  -OEChem-02102213163D

 32 32  0     1  0  0  0  0  0999 V2000
   -3.8405   -3.7518    1.6252 H   0  0  0  0  0  0  0  0  0  0  0  0
   -3.7965   -2.8768    0.9782 C   0  0  0  0  0  0  0  0  0  0  0  0
   -4.5465   -2.1527    1.2902 H   0  0  0  0  0  0  0  0  0  0  0  0
   -3.9745   -3.1748   -0.0538 H   0  0  0  0  0  0  0  0  0  0  0  0
   -2.4245   -2.2537    1.0882 C   0  0  0  0  0  0  0  0  0  0  0  0
   -1.5805   -2.7478    1.8242 O   0  0  0  0  0  0  0  0  0  0  0  0
   -2.2045   -1.1637    0.3562 N   0  0  0  0  0  0  0  0  0  0  0  0
   -2.9595   -0.7907   -0.2008 H   0  0  0  0  0  0  0  0  0  0  0  0
   -0.9485   -0.4087    0.3482 C   0  0  1  0  0  0  0  0  0  0  0  0
   -0.1408   -1.0795    0.0507 H   0  0  0  0  0  0  0  0  0  0  0  0
   -1.0432    0.7243   -0.6879 C   0  0  0  0  0  0  0  0  0  0  0  0
   -2.0807    1.0535   -0.7605 H   0  0  0  0  0  0  0  0  0  0  0  0
   -0.4539    1.5734   -0.3385 H   0  0  0  0  0  0  0  0  0  0  0  0
   -0.5772    0.3291   -2.0763 C   0  0  0  0  0  0  0  0  0  0  0  0
   -1.3308    0.6869   -3.2103 C   0  0  0  0  0  0  0  0  0  0  0  0
   -2.2600    1.2271   -3.0962 H   0  0  0  0  0  0  0  0  0  0  0  0
   -0.8710    0.3526   -4.4975 C   0  0  0  0  0  0  0  0  0  0  0  0
   -1.4525    0.6261   -5.3668 H   0  0  0  0  0  0  0  0  0  0  0  0
    0.3429   -0.3378   -4.6532 C   0  0  0  0  0  0  0  0  0  0  0  0
    0.6949   -0.5967   -5.6420 H   0  0  0  0  0  0  0  0  0  0  0  0
    1.0976   -0.6982   -3.5220 C   0  0  0  0  0  0  0  0  0  0  0  0
    2.0280   -1.2337   -3.6413 H   0  0  0  0  0  0  0  0  0  0  0  0
    0.6362   -0.3669   -2.2356 C   0  0  0  0  0  0  0  0  0  0  0  0
    1.2161   -0.6477   -1.3660 H   0  0  0  0  0  0  0  0  0  0  0  0
   -0.6196    0.1253    1.7539 C   0  0  0  0  0  0  0  0  0  0  0  0
    0.5216    0.0194    2.2054 O   0  0  0  0  0  0  0  0  0  0  0  0
   -1.6152    0.6924    2.4469 N   0  0  0  0  0  0  0  0  0  0  0  0
   -2.5345    0.6914    2.0318 H   0  0  0  0  0  0  0  0  0  0  0  0
   -1.4720    1.2390    3.7941 C   0  0  0  0  0  0  0  0  0  0  0  0
   -0.6345    1.9391    3.8219 H   0  0  0  0  0  0  0  0  0  0  0  0
   -2.3844    1.7580    4.0892 H   0  0  0  0  0  0  0  0  0  0  0  0
   -1.2733    0.4298    4.4995 H   0  0  0  0  0  0  0  0  0  0  0  0
  5  6  2  0  0  0  0
  5  7  1  0  0  0  0
  2  3  1  0  0  0  0
  2  4  1  0  0  0  0
  2  5  1  0  0  0  0
  1  2  1  0  0  0  0
 25 26  2  0  0  0  0
 25 27  1  0  0  0  0
 23 24  1  0  0  0  0
 21 22  1  0  0  0  0
 21 23  2  0  0  0  0
 19 20  1  0  0  0  0
 19 21  1  0  0  0  0
 17 18  1  0  0  0  0
 17 19  2  0  0  0  0
 15 16  1  0  0  0  0
 15 17  1  0  0  0  0
 14 15  2  0  0  0  0
 14 23  1  0  0  0  0
 11 12  1  0  0  0  0
 11 13  1  0  0  0  0
 11 14  1  0  0  0  0
  9 10  1  0  0  0  0
  9 11  1  0  0  0  0
  9 25  1  0  0  0  0
  7  8  1  0  0  0  0
  7  9  1  0  0  0  0
 29 30  1  0  0  0  0
 29 31  1  0  0  0  0
 29 32  1  0  0  0  0
 27 28  1  0  0  0  0
 27 29  1  0  0  0  0
M  END
$$$$
default_name
  -OEChem-02102213163D

 32 32  0     1  0  0  0  0  0999 V2000
   -3.8405   -3.7518    1.6252 H   0  0  0  0  0  0  0  0  0  0  0  0
   -3.7965   -2.8768    0.9782 C   0  0  0  0  0  0  0  0  0  0  0  0
   -4.5465   -2.1527    1.2902 H   0  0  0  0  0  0  0  0  0  0  0  0
   -3.9745   -3.1748   -0.0538 H   0  0  0  0  0  0  0  0  0  0  0  0
   -2.4245   -2.2537    1.0882 C   0  0  0  0  0  0  0  0  0  0  0  0
   -1.5805   -2.7478    1.8242 O   0  0  0  0  0  0  0  0  0  0  0  0
   -2.2045   -1.1637    0.3562 N   0  0  0  0  0  0  0  0  0  0  0  0
   -2.9595   -0.7907   -0.2008 H   0  0  0  0  0  0  0  0  0  0  0  0
   -0.9485   -0.4087    0.3482 C   0  0  1  0  0  0  0  0  0  0  0  0
   -0.1408   -1.0795    0.0507 H   0  0  0  0  0  0  0  0  0  0  0  0
   -1.0432    0.7243   -0.6879 C   0  0  0  0  0  0  0  0  0  0  0  0
   -2.0807    1.0535   -0.7605 H   0  0  0  0  0  0  0  0  0  0  0  0
   -0.4539    1.5734   -0.3385 H   0  0  0  0  0  0  0  0  0  0  0  0
   -0.5772    0.3291   -2.0763 C   0  0  0  0  0  0  0  0  0  0  0  0
   -1.1364    0.9370   -3.2163 C   0  0  0  0  0  0  0  0  0  0  0  0
   -1.9192    1.6746   -3.1092 H   0  0  0  0  0  0  0  0  0  0  0  0
   -0.6700    0.5951   -4.4991 C   0  0  0  0  0  0  0  0  0  0  0  0
   -1.1025    1.0612   -5.3732 H   0  0  0  0  0  0  0  0  0  0  0  0
    0.3568   -0.3532   -4.6442 C   0  0  0  0  0  0  0  0  0  0  0  0
    0.7135   -0.6176   -5.6298 H   0  0  0  0  0  0  0  0  0  0  0  0
    0.9167   -0.9637   -3.5072 C   0  0  0  0  0  0  0  0  0  0  0  0
    1.7022   -1.6967   -3.6188 H   0  0  0  0  0  0  0  0  0  0  0  0
    0.4481   -0.6242   -2.2255 C   0  0  0  0  0  0  0  0  0  0  0  0
    0.8773   -1.0971   -1.3518 H   0  0  0  0  0  0  0  0  0  0  0  0
   -0.6196    0.1253    1.7539 C   0  0  0  0  0  0  0  0  0  0  0  0
    0.5216    0.0194    2.2054 O   0  0  0  0  0  0  0  0  0  0  0  0
   -1.6152    0.6924    2.4469 N   0  0  0  0  0  0  0  0  0  0  0  0
   -2.5345    0.6914    2.0318 H   0  0  0  0  0  0  0  0  0  0  0  0
   -1.4720    1.2390    3.7941 C   0  0  0  0  0  0  0  0  0  0  0  0
   -0.6345    1.9391    3.8219 H   0  0  0  0  0  0  0  0  0  0  0  0
   -2.3844    1.7580    4.0892 H   0  0  0  0  0  0  0  0  0  0  0  0
   -1.2733    0.4298    4.4995 H   0  0  0  0  0  0  0  0  0  0  0  0
  5  6  2  0  0  0  0
  5  7  1  0  0  0  0
  2  3  1  0  0  0  0
  2  4  1  0  0  0  0
  2  5  1  0  0  0  0
  1  2  1  0  0  0  0
 25 26  2  0  0  0  0
 25 27  1  0  0  0  0
 23 24  1  0  0  0  0
 21 22  1  0  0  0  0
 21 23  2  0  0  0  0
 19 20  1  0  0  0  0
 19 21  1  0  0  0  0
 17 18  1  0  0  0  0
 17 19  2  0  0  0  0
 15 16  1  0  0  0  0
 15 17  1  0  0  0  0
 14 15  2  0  0  0  0
 14 23  1  0  0  0  0
 11 12  1  0  0  0  0
 11 13  1  0  0  0  0
 11 14  1  0  0  0  0
  9 10  1  0  0  0  0
  9 11  1  0  0  0  0
  9 25  1  0  0  0  0
  7  8  1  0  0  0  0
  7  9  1  0  0  0  0
 29 30  1  0  0  0  0
 29 31  1  0  0  0  0
 29 32  1  0  0  0  0
 27 28  1  0  0  0  0
 27 29  1  0  0  0  0
M  END
$$$$
default_name
  -OEChem-02102213163D

 32 32  0     1  0  0  0  0  0999 V2000
   -3.8405   -3.7518    1.6252 H   0  0  0  0  0  0  0  0  0  0  0  0
   -3.7965   -2.8768    0.9782 C   0  0  0  0  0  0  0  0  0  0  0  0
   -4.5465   -2.1527    1.2902 H   0  0  0  0  0  0  0  0  0  0  0  0
   -3.9745   -3.1748   -0.0538 H   0  0  0  0  0  0  0  0  0  0  0  0
   -2.4245   -2.2537    1.0882 C   0  0  0  0  0  0  0  0  0  0  0  0
   -1.5805   -2.7478    1.8242 O   0  0  0  0  0  0  0  0  0  0  0  0
   -2.2045   -1.1637    0.3562 N   0  0  0  0  0  0  0  0  0  0  0  0
   -2.9595   -0.7907   -0.2008 H   0  0  0  0  0  0  0  0  0  0  0  0
   -0.9485   -0.4087    0.3482 C   0  0  1  0  0  0  0  0  0  0  0  0
   -0.1408   -1.0795    0.0507 H   0  0  0  0  0  0  0  0  0  0  0  0
   -1.0432    0.7243   -0.6879 C   0  0  0  0  0  0  0  0  0  0  0  0
   -2.0807    1.0535   -0.7605 H   0  0  0  0  0  0  0  0  0  0  0  0
   -0.4539    1.5734   -0.3385 H   0  0  0  0  0  0  0  0  0  0  0  0
   -0.5772    0.3291   -2.0763 C   0  0  0  0  0  0  0  0  0  0  0  0
   -0.8890    1.1331   -3.1891 C   0  0  0  0  0  0  0  0  0  0  0  0
   -1.4832    2.0272   -3.0633 H   0  0  0  0  0  0  0  0  0  0  0  0
   -0.4182    0.7818   -4.4677 C   0  0  0  0  0  0  0  0  0  0  0  0
   -0.6609    1.3992   -5.3212 H   0  0  0  0  0  0  0  0  0  0  0  0
    0.3660   -0.3721   -4.6357 C   0  0  0  0  0  0  0  0  0  0  0  0
    0.7257   -0.6432   -5.6185 H   0  0  0  0  0  0  0  0  0  0  0  0
    0.6781   -1.1785   -3.5261 C   0  0  0  0  0  0  0  0  0  0  0  0
    1.2763   -2.0684   -3.6559 H   0  0  0  0  0  0  0  0  0  0  0  0
    0.2047   -0.8290   -2.2489 C   0  0  0  0  0  0  0  0  0  0  0  0
    0.4427   -1.4521   -1.3966 H   0  0  0  0  0  0  0  0  0  0  0  0
   -0.6196    0.1253    1.7539 C   0  0  0  0  0  0  0  0  0  0  0  0
    0.5216    0.0194    2.2054 O   0  0  0  0  0  0  0  0  0  0  0  0
   -1.6152    0.6924    2.4469 N   0  0  0  0  0  0  0  0  0  0  0  0
   -2.5345    0.6914    2.0318 H   0  0  0  0  0  0  0  0  0  0  0  0
   -1.4720    1.2390    3.7941 C   0  0  0  0  0  0  0  0  0  0  0  0
   -0.6345    1.9391    3.8219 H   0  0  0  0  0  0  0  0  0  0  0  0
   -2.3844    1.7580    4.0892 H   0  0  0  0  0  0  0  0  0  0  0  0
   -1.2733    0.4298    4.4995 H   0  0  0  0  0  0  0  0  0  0  0  0
  5  6  2  0  0  0  0
  5  7  1  0  0  0  0
  2  3  1  0  0  0  0
  2  4  1  0  0  0  0
  2  5  1  0  0  0  0
  1  2  1  0  0  0  0
 25 26  2  0  0  0  0
 25 27  1  0  0  0  0
 23 24  1  0  0  0  0
 21 22  1  0  0  0  0
 21 23  2  0  0  0  0
 19 20  1  0  0  0  0
 19 21  1  0  0  0  0
 17 18  1  0  0  0  0
 17 19  2  0  0  0  0
 15 16  1  0  0  0  0
 15 17  1  0  0  0  0
 14 15  2  0  0  0  0
 14 23  1  0  0  0  0
 11 12  1  0  0  0  0
 11 13  1  0  0  0  0
 11 14  1  0  0  0  0
  9 10  1  0  0  0  0
  9 11  1  0  0  0  0
  9 25  1  0  0  0  0
  7  8  1  0  0  0  0
  7  9  1  0  0  0  0
 29 30  1  0  0  0  0
 29 31  1  0  0  0  0
 29 32  1  0  0  0  0
 27 28  1  0  0  0  0
 27 29  1  0  0  0  0
M  END
$$$$
default_name
  -OEChem-02102213163D

 32 32  0     1  0  0  0  0  0999 V2000
   -3.8405   -3.7518    1.6252 H   0  0  0  0  0  0  0  0  0  0  0  0
   -3.7965   -2.8768    0.9782 C   0  0  0  0  0  0  0  0  0  0  0  0
   -4.5465   -2.1527    1.2902 H   0  0  0  0  0  0  0  0  0  0  0  0
   -3.9745   -3.1748   -0.0538 H   0  0  0  0  0  0  0  0  0  0  0  0
   -2.4245   -2.2537    1.0882 C   0  0  0  0  0  0  0  0  0  0  0  0
   -1.5805   -2.7478    1.8242 O   0  0  0  0  0  0  0  0  0  0  0  0
   -2.2045   -1.1637    0.3562 N   0  0  0  0  0  0  0  0  0  0  0  0
   -2.9595   -0.7907   -0.2008 H   0  0  0  0  0  0  0  0  0  0  0  0
   -0.9485   -0.4087    0.3482 C   0  0  1  0  0  0  0  0  0  0  0  0
   -0.1408   -1.0795    0.0507 H   0  0  0  0  0  0  0  0  0  0  0  0
   -1.0432    0.7243   -0.6879 C   0  0  0  0  0  0  0  0  0  0  0  0
   -2.0026    1.2309   -0.5736 H   0  0  0  0  0  0  0  0  0  0  0  0
   -0.2601    1.4562   -0.4844 H   0  0  0  0  0  0  0  0  0  0  0  0
   -0.9280    0.2546   -2.1256 C   0  0  0  0  0  0  0  0  0  0  0  0
   -0.9965    1.1787   -3.1855 C   0  0  0  0  0  0  0  0  0  0  0  0
   -1.1548    2.2282   -2.9812 H   0  0  0  0  0  0  0  0  0  0  0  0
   -0.8474    0.7408   -4.5144 C   0  0  0  0  0  0  0  0  0  0  0  0
   -0.9029    1.4516   -5.3269 H   0  0  0  0  0  0  0  0  0  0  0  0
   -0.6280   -0.6204   -4.7858 C   0  0  0  0  0  0  0  0  0  0  0  0
   -0.5158   -0.9571   -5.8069 H   0  0  0  0  0  0  0  0  0  0  0  0
   -0.5605   -1.5466   -3.7291 C   0  0  0  0  0  0  0  0  0  0  0  0
   -0.3972   -2.5937   -3.9378 H   0  0  0  0  0  0  0  0  0  0  0  0
   -0.7127   -1.1092   -2.4014 C   0  0  0  0  0  0  0  0  0  0  0  0
   -0.6640   -1.8232   -1.5895 H   0  0  0  0  0  0  0  0  0  0  0  0
   -0.6196    0.1253    1.7539 C   0  0  0  0  0  0  0  0  0  0  0  0
    0.5216    0.0194    2.2054 O   0  0  0  0  0  0  0  0  0  0  0  0
   -1.6152    0.6924    2.4469 N   0  0  0  0  0  0  0  0  0  0  0  0
   -2.5345    0.6914    2.0318 H   0  0  0  0  0  0  0  0  0  0  0  0
   -1.4720    1.2390    3.7941 C   0  0  0  0  0  0  0  0  0  0  0  0
   -0.6345    1.9391    3.8219 H   0  0  0  0  0  0  0  0  0  0  0  0
   -2.3844    1.7580    4.0892 H   0  0  0  0  0  0  0  0  0  0  0  0
   -1.2733    0.4298    4.4995 H   0  0  0  0  0  0  0  0  0  0  0  0
  5  6  2  0  0  0  0
  5  7  1  0  0  0  0
  2  3  1  0  0  0  0
  2  4  1  0  0  0  0
  2  5  1  0  0  0  0
  1  2  1  0  0  0  0
 25 26  2  0  0  0  0
 25 27  1  0  0  0  0
 23 24  1  0  0  0  0
 21 22  1  0  0  0  0
 21 23  2  0  0  0  0
 19 20  1  0  0  0  0
 19 21  1  0  0  0  0
 17 18  1  0  0  0  0
 17 19  2  0  0  0  0
 15 16  1  0  0  0  0
 15 17  1  0  0  0  0
 14 15  2  0  0  0  0
 14 23  1  0  0  0  0
 11 12  1  0  0  0  0
 11 13  1  0  0  0  0
 11 14  1  0  0  0  0
  9 10  1  0  0  0  0
  9 11  1  0  0  0  0
  9 25  1  0  0  0  0
  7  8  1  0  0  0  0
  7  9  1  0  0  0  0
 29 30  1  0  0  0  0
 29 31  1  0  0  0  0
 29 32  1  0  0  0  0
 27 28  1  0  0  0  0
 27 29  1  0  0  0  0
M  END
$$$$
default_name
  -OEChem-02102213163D

 32 32  0     1  0  0  0  0  0999 V2000
   -3.8405   -3.7518    1.6252 H   0  0  0  0  0  0  0  0  0  0  0  0
   -3.7965   -2.8768    0.9782 C   0  0  0  0  0  0  0  0  0  0  0  0
   -4.5465   -2.1527    1.2902 H   0  0  0  0  0  0  0  0  0  0  0  0
   -3.9745   -3.1748   -0.0538 H   0  0  0  0  0  0  0  0  0  0  0  0
   -2.4245   -2.2537    1.0882 C   0  0  0  0  0  0  0  0  0  0  0  0
   -1.5805   -2.7478    1.8242 O   0  0  0  0  0  0  0  0  0  0  0  0
   -2.2045   -1.1637    0.3562 N   0  0  0  0  0  0  0  0  0  0  0  0
   -2.9595   -0.7907   -0.2008 H   0  0  0  0  0  0  0  0  0  0  0  0
   -0.9485   -0.4087    0.3482 C   0  0  1  0  0  0  0  0  0  0  0  0
   -0.1408   -1.0795    0.0507 H   0  0  0  0  0  0  0  0  0  0  0  0
   -1.0432    0.7243   -0.6879 C   0  0  0  0  0  0  0  0  0  0  0  0
   -2.0026    1.2309   -0.5736 H   0  0  0  0  0  0  0  0  0  0  0  0
   -0.2601    1.4562   -0.4844 H   0  0  0  0  0  0  0  0  0  0  0  0
   -0.9280    0.2546   -2.1256 C   0  0  0  0  0  0  0  0  0  0  0  0
   -0.6807    1.1773   -3.1598 C   0  0  0  0  0  0  0  0  0  0  0  0
   -0.5939    2.2315   -2.9373 H   0  0  0  0  0  0  0  0  0  0  0  0
   -0.5340    0.7291   -4.4855 C   0  0  0  0  0  0  0  0  0  0  0  0
   -0.3467    1.4395   -5.2784 H   0  0  0  0  0  0  0  0  0  0  0  0
   -0.6324   -0.6416   -4.7792 C   0  0  0  0  0  0  0  0  0  0  0  0
   -0.5220   -0.9856   -5.7981 H   0  0  0  0  0  0  0  0  0  0  0  0
   -0.8809   -1.5661   -3.7484 C   0  0  0  0  0  0  0  0  0  0  0  0
   -0.9620   -2.6191   -3.9748 H   0  0  0  0  0  0  0  0  0  0  0  0
   -1.0307   -1.1175   -2.4241 C   0  0  0  0  0  0  0  0  0  0  0  0
   -1.2253   -1.8294   -1.6325 H   0  0  0  0  0  0  0  0  0  0  0  0
   -0.6196    0.1253    1.7539 C   0  0  0  0  0  0  0  0  0  0  0  0
    0.5216    0.0194    2.2054 O   0  0  0  0  0  0  0  0  0  0  0  0
   -1.6152    0.6924    2.4469 N   0  0  0  0  0  0  0  0  0  0  0  0
   -2.5345    0.6914    2.0318 H   0  0  0  0  0  0  0  0  0  0  0  0
   -1.4720    1.2390    3.7941 C   0  0  0  0  0  0  0  0  0  0  0  0
   -0.6345    1.9391    3.8219 H   0  0  0  0  0  0  0  0  0  0  0  0
   -2.3844    1.7580    4.0892 H   0  0  0  0  0  0  0  0  0  0  0  0
   -1.2733    0.4298    4.4995 H   0  0  0  0  0  0  0  0  0  0  0  0
  5  6  2  0  0  0  0
  5  7  1  0  0  0  0
  2  3  1  0  0  0  0
  2  4  1  0  0  0  0
  2  5  1  0  0  0  0
  1  2  1  0  0  0  0
 25 26  2  0  0  0  0
 25 27  1  0  0  0  0
 23 24  1  0  0  0  0
 21 22  1  0  0  0  0
 21 23  2  0  0  0  0
 19 20  1  0  0  0  0
 19 21  1  0  0  0  0
 17 18  1  0  0  0  0
 17 19  2  0  0  0  0
 15 16  1  0  0  0  0
 15 17  1  0  0  0  0
 14 15  2  0  0  0  0
 14 23  1  0  0  0  0
 11 12  1  0  0  0  0
 11 13  1  0  0  0  0
 11 14  1  0  0  0  0
  9 10  1  0  0  0  0
  9 11  1  0  0  0  0
  9 25  1  0  0  0  0
  7  8  1  0  0  0  0
  7  9  1  0  0  0  0
 29 30  1  0  0  0  0
 29 31  1  0  0  0  0
 29 32  1  0  0  0  0
 27 28  1  0  0  0  0
 27 29  1  0  0  0  0
M  END
$$$$
default_name
  -OEChem-02102213163D

 32 32  0     1  0  0  0  0  0999 V2000
   -3.8405   -3.7518    1.6252 H   0  0  0  0  0  0  0  0  0  0  0  0
   -3.7965   -2.8768    0.9782 C   0  0  0  0  0  0  0  0  0  0  0  0
   -4.5465   -2.1527    1.2902 H   0  0  0  0  0  0  0  0  0  0  0  0
   -3.9745   -3.1748   -0.0538 H   0  0  0  0  0  0  0  0  0  0  0  0
   -2.4245   -2.2537    1.0882 C   0  0  0  0  0  0  0  0  0  0  0  0
   -1.5805   -2.7478    1.8242 O   0  0  0  0  0  0  0  0  0  0  0  0
   -2.2045   -1.1637    0.3562 N   0  0  0  0  0  0  0  0  0  0  0  0
   -2.9595   -0.7907   -0.2008 H   0  0  0  0  0  0  0  0  0  0  0  0
   -0.9485   -0.4087    0.3482 C   0  0  1  0  0  0  0  0  0  0  0  0
   -0.1408   -1.0795    0.0507 H   0  0  0  0  0  0  0  0  0  0  0  0
   -1.0432    0.7243   -0.6879 C   0  0  0  0  0  0  0  0  0  0  0  0
   -2.0026    1.2309   -0.5736 H   0  0  0  0  0  0  0  0  0  0  0  0
   -0.2601    1.4562   -0.4844 H   0  0  0  0  0  0  0  0  0  0  0  0
   -0.9280    0.2546   -2.1256 C   0  0  0  0  0  0  0  0  0  0  0  0
   -0.3780    1.0980   -3.1096 C   0  0  0  0  0  0  0  0  0  0  0  0
   -0.0548    2.0962   -2.8499 H   0  0  0  0  0  0  0  0  0  0  0  0
   -0.2364    0.6403   -4.4326 C   0  0  0  0  0  0  0  0  0  0  0  0
    0.1837    1.2904   -5.1872 H   0  0  0  0  0  0  0  0  0  0  0  0
   -0.6423   -0.6611   -4.7736 C   0  0  0  0  0  0  0  0  0  0  0  0
   -0.5357   -1.0119   -5.7906 H   0  0  0  0  0  0  0  0  0  0  0  0
   -1.1937   -1.5059   -3.7931 C   0  0  0  0  0  0  0  0  0  0  0  0
   -1.5107   -2.5043   -4.0563 H   0  0  0  0  0  0  0  0  0  0  0  0
   -1.3381   -1.0470   -2.4718 C   0  0  0  0  0  0  0  0  0  0  0  0
   -1.7655   -1.6968   -1.7191 H   0  0  0  0  0  0  0  0  0  0  0  0
   -0.6196    0.1253    1.7539 C   0  0  0  0  0  0  0  0  0  0  0  0
    0.5216    0.0194    2.2054 O   0  0  0  0  0  0  0  0  0  0  0  0
   -1.6152    0.6924    2.4469 N   0  0  0  0  0  0  0  0  0  0  0  0
   -2.5345    0.6914    2.0318 H   0  0  0  0  0  0  0  0  0  0  0  0
   -1.4720    1.2390    3.7941 C   0  0  0  0  0  0  0  0  0  0  0  0
   -0.6345    1.9391    3.8219 H   0  0  0  0  0  0  0  0  0  0  0  0
   -2.3844    1.7580    4.0892 H   0  0  0  0  0  0  0  0  0  0  0  0
   -1.2733    0.4298    4.4995 H   0  0  0  0  0  0  0  0  0  0  0  0
  5  6  2  0  0  0  0
  5  7  1  0  0  0  0
  2  3  1  0  0  0  0
  2  4  1  0  0  0  0
  2  5  1  0  0  0  0
  1  2  1  0  0  0  0
 25 26  2  0  0  0  0
 25 27  1  0  0  0  0
 23 24  1  0  0  0  0
 21 22  1  0  0  0  0
 21 23  2  0  0  0  0
 19 20  1  0  0  0  0
 19 21  1  0  0  0  0
 17 18  1  0  0  0  0
 17 19  2  0  0  0  0
 15 16  1  0  0  0  0
 15 17  1  0  0  0  0
 14 15  2  0  0  0  0
 14 23  1  0  0  0  0
 11 12  1  0  0  0  0
 11 13  1  0  0  0  0
 11 14  1  0  0  0  0
  9 10  1  0  0  0  0
  9 11  1  0  0  0  0
  9 25  1  0  0  0  0
  7  8  1  0  0  0  0
  7  9  1  0  0  0  0
 29 30  1  0  0  0  0
 29 31  1  0  0  0  0
 29 32  1  0  0  0  0
 27 28  1  0  0  0  0
 27 29  1  0  0  0  0
M  END
$$$$
default_name
  -OEChem-02102213163D

 32 32  0     1  0  0  0  0  0999 V2000
   -3.8405   -3.7518    1.6252 H   0  0  0  0  0  0  0  0  0  0  0  0
   -3.7965   -2.8768    0.9782 C   0  0  0  0  0  0  0  0  0  0  0  0
   -4.5465   -2.1527    1.2902 H   0  0  0  0  0  0  0  0  0  0  0  0
   -3.9745   -3.1748   -0.0538 H   0  0  0  0  0  0  0  0  0  0  0  0
   -2.4245   -2.2537    1.0882 C   0  0  0  0  0  0  0  0  0  0  0  0
   -1.5805   -2.7478    1.8242 O   0  0  0  0  0  0  0  0  0  0  0  0
   -2.2045   -1.1637    0.3562 N   0  0  0  0  0  0  0  0  0  0  0  0
   -2.9595   -0.7907   -0.2008 H   0  0  0  0  0  0  0  0  0  0  0  0
   -0.9485   -0.4087    0.3482 C   0  0  1  0  0  0  0  0  0  0  0  0
   -0.1408   -1.0795    0.0507 H   0  0  0  0  0  0  0  0  0  0  0  0
   -1.0432    0.7243   -0.6879 C   0  0  0  0  0  0  0  0  0  0  0  0
   -2.0026    1.2309   -0.5736 H   0  0  0  0  0  0  0  0  0  0  0  0
   -0.2601    1.4562   -0.4844 H   0  0  0  0  0  0  0  0  0  0  0  0
   -0.9280    0.2546   -2.1256 C   0  0  0  0  0  0  0  0  0  0  0  0
   -0.1092    0.9461   -3.0385 C   0  0  0  0  0  0  0  0  0  0  0  0
    0.4257    1.8315   -2.7250 H   0  0  0  0  0  0  0  0  0  0  0  0
    0.0250    0.4805   -4.3595 C   0  0  0  0  0  0  0  0  0  0  0  0
    0.6522    1.0144   -5.0595 H   0  0  0  0  0  0  0  0  0  0  0  0
   -0.6572   -0.6776   -4.7694 C   0  0  0  0  0  0  0  0  0  0  0  0
   -0.5560   -1.0340   -5.7850 H   0  0  0  0  0  0  0  0  0  0  0  0
   -1.4774   -1.3701   -3.8602 C   0  0  0  0  0  0  0  0  0  0  0  0
   -2.0061   -2.2573   -4.1767 H   0  0  0  0  0  0  0  0  0  0  0  0
   -1.6139   -0.9027   -2.5410 C   0  0  0  0  0  0  0  0  0  0  0  0
   -2.2478   -1.4345   -1.8435 H   0  0  0  0  0  0  0  0  0  0  0  0
   -0.6196    0.1253    1.7539 C   0  0  0  0  0  0  0  0  0  0  0  0
    0.5216    0.0194    2.2054 O   0  0  0  0  0  0  0  0  0  0  0  0
   -1.6152    0.6924    2.4469 N   0  0  0  0  0  0  0  0  0  0  0  0
   -2.5345    0.6914    2.0318 H   0  0  0  0  0  0  0  0  0  0  0  0
   -1.4720    1.2390    3.7941 C   0  0  0  0  0  0  0  0  0  0  0  0
   -0.6345    1.9391    3.8219 H   0  0  0  0  0  0  0  0  0  0  0  0
   -2.3844    1.7580    4.0892 H   0  0  0  0  0  0  0  0  0  0  0  0
   -1.2733    0.4298    4.4995 H   0  0  0  0  0  0  0  0  0  0  0  0
  5  6  2  0  0  0  0
  5  7  1  0  0  0  0
  2  3  1  0  0  0  0
  2  4  1  0  0  0  0
  2  5  1  0  0  0  0
  1  2  1  0  0  0  0
 25 26  2  0  0  0  0
 25 27  1  0  0  0  0
 23 24  1  0  0  0  0
 21 22  1  0  0  0  0
 21 23  2  0  0  0  0
 19 20  1  0  0  0  0
 19 21  1  0  0  0  0
 17 18  1  0  0  0  0
 17 19  2  0  0  0  0
 15 16  1  0  0  0  0
 15 17  1  0  0  0  0
 14 15  2  0  0  0  0
 14 23  1  0  0  0  0
 11 12  1  0  0  0  0
 11 13  1  0  0  0  0
 11 14  1  0  0  0  0
  9 10  1  0  0  0  0
  9 11  1  0  0  0  0
  9 25  1  0  0  0  0
  7  8  1  0  0  0  0
  7  9  1  0  0  0  0
 29 30  1  0  0  0  0
 29 31  1  0  0  0  0
 29 32  1  0  0  0  0
 27 28  1  0  0  0  0
 27 29  1  0  0  0  0
M  END
$$$$
default_name
  -OEChem-02102213163D

 32 32  0     1  0  0  0  0  0999 V2000
   -3.8405   -3.7518    1.6252 H   0  0  0  0  0  0  0  0  0  0  0  0
   -3.7965   -2.8768    0.9782 C   0  0  0  0  0  0  0  0  0  0  0  0
   -4.5465   -2.1527    1.2902 H   0  0  0  0  0  0  0  0  0  0  0  0
   -3.9745   -3.1748   -0.0538 H   0  0  0  0  0  0  0  0  0  0  0  0
   -2.4245   -2.2537    1.0882 C   0  0  0  0  0  0  0  0  0  0  0  0
   -1.5805   -2.7478    1.8242 O   0  0  0  0  0  0  0  0  0  0  0  0
   -2.2045   -1.1637    0.3562 N   0  0  0  0  0  0  0  0  0  0  0  0
   -2.9595   -0.7907   -0.2008 H   0  0  0  0  0  0  0  0  0  0  0  0
   -0.9485   -0.4087    0.3482 C   0  0  1  0  0  0  0  0  0  0  0  0
   -0.1408   -1.0795    0.0507 H   0  0  0  0  0  0  0  0  0  0  0  0
   -1.0432    0.7243   -0.6879 C   0  0  0  0  0  0  0  0  0  0  0  0
   -2.0026    1.2309   -0.5736 H   0  0  0  0  0  0  0  0  0  0  0  0
   -0.2601    1.4562   -0.4844 H   0  0  0  0  0  0  0  0  0  0  0  0
   -0.9280    0.2546   -2.1256 C   0  0  0  0  0  0  0  0  0  0  0  0
    0.1076    0.7321   -2.9512 C   0  0  0  0  0  0  0  0  0  0  0  0
    0.8149    1.4556   -2.5710 H   0  0  0  0  0  0  0  0  0  0  0  0
    0.2324    0.2606   -4.2710 C   0  0  0  0  0  0  0  0  0  0  0  0
    1.0268    0.6305   -4.9040 H   0  0  0  0  0  0  0  0  0  0  0  0
   -0.6760   -0.6900   -4.7669 C   0  0  0  0  0  0  0  0  0  0  0  0
   -0.5814   -1.0505   -5.7816 H   0  0  0  0  0  0  0  0  0  0  0  0
   -1.7128   -1.1681   -3.9451 C   0  0  0  0  0  0  0  0  0  0  0  0
   -2.4144   -1.8947   -4.3278 H   0  0  0  0  0  0  0  0  0  0  0  0
   -1.8393   -0.6942   -2.6272 C   0  0  0  0  0  0  0  0  0  0  0  0
   -2.6394   -1.0603   -1.9971 H   0  0  0  0  0  0  0  0  0  0  0  0
   -0.6196    0.1253    1.7539 C   0  0  0  0  0  0  0  0  0  0  0  0
    0.5216    0.0194    2.2054 O   0  0  0  0  0  0  0  0  0  0  0  0
   -1.6152    0.6924    2.4469 N   0  0  0  0  0  0  0  0  0  0  0  0
   -2.5345    0.6914    2.0318 H   0  0  0  0  0  0  0  0  0  0  0  0
   -1.4720    1.2390    3.7941 C   0  0  0  0  0  0  0  0  0  0  0  0
   -0.6345    1.9391    3.8219 H   0  0  0  0  0  0  0  0  0  0  0  0
   -2.3844    1.7580    4.0892 H   0  0  0  0  0  0  0  0  0  0  0  0
   -1.2733    0.4298    4.4995 H   0  0  0  0  0  0  0  0  0  0  0  0
  5  6  2  0  0  0  0
  5  7  1  0  0  0  0
  2  3  1  0  0  0  0
  2  4  1  0  0  0  0
  2  5  1  0  0  0  0
  1  2  1  0  0  0  0
 25 26  2  0  0  0  0
 25 27  1  0  0  0  0
 23 24  1  0  0  0  0
 21 22  1  0  0  0  0
 21 23  2  0  0  0  0
 19 20  1  0  0  0  0
 19 21  1  0  0  0  0
 17 18  1  0  0  0  0
 17 19  2  0  0  0  0
 15 16  1  0  0  0  0
 15 17  1  0  0  0  0
 14 15  2  0  0  0  0
 14 23  1  0  0  0  0
 11 12  1  0  0  0  0
 11 13  1  0  0  0  0
 11 14  1  0  0  0  0
  9 10  1  0  0  0  0
  9 11  1  0  0  0  0
  9 25  1  0  0  0  0
  7  8  1  0  0  0  0
  7  9  1  0  0  0  0
 29 30  1  0  0  0  0
 29 31  1  0  0  0  0
 29 32  1  0  0  0  0
 27 28  1  0  0  0  0
 27 29  1  0  0  0  0
M  END
$$$$
default_name
  -OEChem-02102213163D

 32 32  0     1  0  0  0  0  0999 V2000
   -3.8405   -3.7518    1.6252 H   0  0  0  0  0  0  0  0  0  0  0  0
   -3.7965   -2.8768    0.9782 C   0  0  0  0  0  0  0  0  0  0  0  0
   -4.5465   -2.1527    1.2902 H   0  0  0  0  0  0  0  0  0  0  0  0
   -3.9745   -3.1748   -0.0538 H   0  0  0  0  0  0  0  0  0  0  0  0
   -2.4245   -2.2537    1.0882 C   0  0  0  0  0  0  0  0  0  0  0  0
   -1.5805   -2.7478    1.8242 O   0  0  0  0  0  0  0  0  0  0  0  0
   -2.2045   -1.1637    0.3562 N   0  0  0  0  0  0  0  0  0  0  0  0
   -2.9595   -0.7907   -0.2008 H   0  0  0  0  0  0  0  0  0  0  0  0
   -0.9485   -0.4087    0.3482 C   0  0  1  0  0  0  0  0  0  0  0  0
   -0.1408   -1.0795    0.0507 H   0  0  0  0  0  0  0  0  0  0  0  0
   -1.0432    0.7243   -0.6879 C   0  0  0  0  0  0  0  0  0  0  0  0
   -2.0026    1.2309   -0.5736 H   0  0  0  0  0  0  0  0  0  0  0  0
   -0.2601    1.4562   -0.4844 H   0  0  0  0  0  0  0  0  0  0  0  0
   -0.9280    0.2546   -2.1256 C   0  0  0  0  0  0  0  0  0  0  0  0
    0.2574    0.4705   -2.8537 C   0  0  0  0  0  0  0  0  0  0  0  0
    1.0863    0.9939   -2.3984 H   0  0  0  0  0  0  0  0  0  0  0  0
    0.3718   -0.0045   -4.1732 C   0  0  0  0  0  0  0  0  0  0  0  0
    1.2819    0.1646   -4.7314 H   0  0  0  0  0  0  0  0  0  0  0  0
   -0.6973   -0.6974   -4.7662 C   0  0  0  0  0  0  0  0  0  0  0  0
   -0.6103   -1.0603   -5.7808 H   0  0  0  0  0  0  0  0  0  0  0  0
   -1.8838   -0.9136   -4.0419 C   0  0  0  0  0  0  0  0  0  0  0  0
   -2.7077   -1.4414   -4.4994 H   0  0  0  0  0  0  0  0  0  0  0  0
   -1.9990   -0.4358   -2.7244 C   0  0  0  0  0  0  0  0  0  0  0  0
   -2.9136   -0.5998   -2.1695 H   0  0  0  0  0  0  0  0  0  0  0  0
   -0.6196    0.1253    1.7539 C   0  0  0  0  0  0  0  0  0  0  0  0
    0.5216    0.0194    2.2054 O   0  0  0  0  0  0  0  0  0  0  0  0
   -1.6152    0.6924    2.4469 N   0  0  0  0  0  0  0  0  0  0  0  0
   -2.5345    0.6914    2.0318 H   0  0  0  0  0  0  0  0  0  0  0  0
   -1.4720    1.2390    3.7941 C   0  0  0  0  0  0  0  0  0  0  0  0
   -0.6345    1.9391    3.8219 H   0  0  0  0  0  0  0  0  0  0  0  0
   -2.3844    1.7580    4.0892 H   0  0  0  0  0  0  0  0  0  0  0  0
   -1.2733    0.4298    4.4995 H   0  0  0  0  0  0  0  0  0  0  0  0
  5  6  2  0  0  0  0
  5  7  1  0  0  0  0
  2  3  1  0  0  0  0
  2  4  1  0  0  0  0
  2  5  1  0  0  0  0
  1  2  1  0  0  0  0
 25 26  2  0  0  0  0
 25 27  1  0  0  0  0
 23 24  1  0  0  0  0
 21 22  1  0  0  0  0
 21 23  2  0  0  0  0
 19 20  1  0  0  0  0
 19 21  1  0  0  0  0
 17 18  1  0  0  0  0
 17 19  2  0  0  0  0
 15 16  1  0  0  0  0
 15 17  1  0  0  0  0
 14 15  2  0  0  0  0
 14 23  1  0  0  0  0
 11 12  1  0  0  0  0
 11 13  1  0  0  0  0
 11 14  1  0  0  0  0
  9 10  1  0  0  0  0
  9 11  1  0  0  0  0
  9 25  1  0  0  0  0
  7  8  1  0  0  0  0
  7  9  1  0  0  0  0
 29 30  1  0  0  0  0
 29 31  1  0  0  0  0
 29 32  1  0  0  0  0
 27 28  1  0  0  0  0
 27 29  1  0  0  0  0
M  END
$$$$
default_name
  -OEChem-02102213163D

 32 32  0     1  0  0  0  0  0999 V2000
   -3.8405   -3.7518    1.6252 H   0  0  0  0  0  0  0  0  0  0  0  0
   -3.7965   -2.8768    0.9782 C   0  0  0  0  0  0  0  0  0  0  0  0
   -4.5465   -2.1527    1.2902 H   0  0  0  0  0  0  0  0  0  0  0  0
   -3.9745   -3.1748   -0.0538 H   0  0  0  0  0  0  0  0  0  0  0  0
   -2.4245   -2.2537    1.0882 C   0  0  0  0  0  0  0  0  0  0  0  0
   -1.5805   -2.7478    1.8242 O   0  0  0  0  0  0  0  0  0  0  0  0
   -2.2045   -1.1637    0.3562 N   0  0  0  0  0  0  0  0  0  0  0  0
   -2.9595   -0.7907   -0.2008 H   0  0  0  0  0  0  0  0  0  0  0  0
   -0.9485   -0.4087    0.3482 C   0  0  1  0  0  0  0  0  0  0  0  0
   -0.1408   -1.0795    0.0507 H   0  0  0  0  0  0  0  0  0  0  0  0
   -1.0432    0.7243   -0.6879 C   0  0  0  0  0  0  0  0  0  0  0  0
   -2.0026    1.2309   -0.5736 H   0  0  0  0  0  0  0  0  0  0  0  0
   -0.2601    1.4562   -0.4844 H   0  0  0  0  0  0  0  0  0  0  0  0
   -0.9280    0.2546   -2.1256 C   0  0  0  0  0  0  0  0  0  0  0  0
    0.3302    0.1792   -2.7527 C   0  0  0  0  0  0  0  0  0  0  0  0
    1.2214    0.4780   -2.2190 H   0  0  0  0  0  0  0  0  0  0  0  0
    0.4335   -0.2966   -4.0729 C   0  0  0  0  0  0  0  0  0  0  0  0
    1.4003   -0.3513   -4.5534 H   0  0  0  0  0  0  0  0  0  0  0  0
   -0.7198   -0.6993   -4.7673 C   0  0  0  0  0  0  0  0  0  0  0  0
   -0.6407   -1.0627   -5.7824 H   0  0  0  0  0  0  0  0  0  0  0  0
   -1.9788   -0.6238   -4.1442 C   0  0  0  0  0  0  0  0  0  0  0  0
   -2.8660   -0.9282   -4.6798 H   0  0  0  0  0  0  0  0  0  0  0  0
   -2.0821   -0.1452   -2.8260 C   0  0  0  0  0  0  0  0  0  0  0  0
   -3.0516   -0.0844   -2.3489 H   0  0  0  0  0  0  0  0  0  0  0  0
   -0.6196    0.1253    1.7539 C   0  0  0  0  0  0  0  0  0  0  0  0
    0.5216    0.0194    2.2054 O   0  0  0  0  0  0  0  0  0  0  0  0
   -1.6152    0.6924    2.4469 N   0  0  0  0  0  0  0  0  0  0  0  0
   -2.5345    0.6914    2.0318 H   0  0  0  0  0  0  0  0  0  0  0  0
   -1.4720    1.2390    3.7941 C   0  0  0  0  0  0  0  0  0  0  0  0
   -0.6345    1.9391    3.8219 H   0  0  0  0  0  0  0  0  0  0  0  0
   -2.3844    1.7580    4.0892 H   0  0  0  0  0  0  0  0  0  0  0  0
   -1.2733    0.4298    4.4995 H   0  0  0  0  0  0  0  0  0  0  0  0
  5  6  2  0  0  0  0
  5  7  1  0  0  0  0
  2  3  1  0  0  0  0
  2  4  1  0  0  0  0
  2  5  1  0  0  0  0
  1  2  1  0  0  0  0
 25 26  2  0  0  0  0
 25 27  1  0  0  0  0
 23 24  1  0  0  0  0
 21 22  1  0  0  0  0
 21 23  2  0  0  0  0
 19 20  1  0  0  0  0
 19 21  1  0  0  0  0
 17 18  1  0  0  0  0
 17 19  2  0  0  0  0
 15 16  1  0  0  0  0
 15 17  1  0  0  0  0
 14 15  2  0  0  0  0
 14 23  1  0  0  0  0
 11 12  1  0  0  0  0
 11 13  1  0  0  0  0
 11 14  1  0  0  0  0
  9 10  1  0  0  0  0
  9 11  1  0  0  0  0
  9 25  1  0  0  0  0
  7  8  1  0  0  0  0
  7  9  1  0  0  0  0
 29 30  1  0  0  0  0
 29 31  1  0  0  0  0
 29 32  1  0  0  0  0
 27 28  1  0  0  0  0
 27 29  1  0  0  0  0
M  END
$$$$
default_name
  -OEChem-02102213163D

 32 32  0     1  0  0  0  0  0999 V2000
   -3.8405   -3.7518    1.6252 H   0  0  0  0  0  0  0  0  0  0  0  0
   -3.7965   -2.8768    0.9782 C   0  0  0  0  0  0  0  0  0  0  0  0
   -4.5465   -2.1527    1.2902 H   0  0  0  0  0  0  0  0  0  0  0  0
   -3.9745   -3.1748   -0.0538 H   0  0  0  0  0  0  0  0  0  0  0  0
   -2.4245   -2.2537    1.0882 C   0  0  0  0  0  0  0  0  0  0  0  0
   -1.5805   -2.7478    1.8242 O   0  0  0  0  0  0  0  0  0  0  0  0
   -2.2045   -1.1637    0.3562 N   0  0  0  0  0  0  0  0  0  0  0  0
   -2.9595   -0.7907   -0.2008 H   0  0  0  0  0  0  0  0  0  0  0  0
   -0.9485   -0.4087    0.3482 C   0  0  1  0  0  0  0  0  0  0  0  0
   -0.1408   -1.0795    0.0507 H   0  0  0  0  0  0  0  0  0  0  0  0
   -1.0432    0.7243   -0.6879 C   0  0  0  0  0  0  0  0  0  0  0  0
   -2.0026    1.2309   -0.5736 H   0  0  0  0  0  0  0  0  0  0  0  0
   -0.2601    1.4562   -0.4844 H   0  0  0  0  0  0  0  0  0  0  0  0
   -0.9280    0.2546   -2.1256 C   0  0  0  0  0  0  0  0  0  0  0  0
    0.3209   -0.1221   -2.6550 C   0  0  0  0  0  0  0  0  0  0  0  0
    1.2109   -0.0569   -2.0451 H   0  0  0  0  0  0  0  0  0  0  0  0
    0.4134   -0.5959   -3.9767 C   0  0  0  0  0  0  0  0  0  0  0  0
    1.3737   -0.8822   -4.3821 H   0  0  0  0  0  0  0  0  0  0  0  0
   -0.7419   -0.6957   -4.7703 C   0  0  0  0  0  0  0  0  0  0  0  0
   -0.6705   -1.0575   -5.7865 H   0  0  0  0  0  0  0  0  0  0  0  0
   -1.9913   -0.3186   -4.2449 C   0  0  0  0  0  0  0  0  0  0  0  0
   -2.8786   -0.3901   -4.8566 H   0  0  0  0  0  0  0  0  0  0  0  0
   -2.0829    0.1579   -2.9251 C   0  0  0  0  0  0  0  0  0  0  0  0
   -3.0441    0.4508   -2.5232 H   0  0  0  0  0  0  0  0  0  0  0  0
   -0.6196    0.1253    1.7539 C   0  0  0  0  0  0  0  0  0  0  0  0
    0.5216    0.0194    2.2054 O   0  0  0  0  0  0  0  0  0  0  0  0
   -1.6152    0.6924    2.4469 N   0  0  0  0  0  0  0  0  0  0  0  0
   -2.5345    0.6914    2.0318 H   0  0  0  0  0  0  0  0  0  0  0  0
   -1.4720    1.2390    3.7941 C   0  0  0  0  0  0  0  0  0  0  0  0
   -0.6345    1.9391    3.8219 H   0  0  0  0  0  0  0  0  0  0  0  0
   -2.3844    1.7580    4.0892 H   0  0  0  0  0  0  0  0  0  0  0  0
   -1.2733    0.4298    4.4995 H   0  0  0  0  0  0  0  0  0  0  0  0
  5  6  2  0  0  0  0
  5  7  1  0  0  0  0
  2  3  1  0  0  0  0
  2  4  1  0  0  0  0
  2  5  1  0  0  0  0
  1  2  1  0  0  0  0
 25 26  2  0  0  0  0
 25 27  1  0  0  0  0
 23 24  1  0  0  0  0
 21 22  1  0  0  0  0
 21 23  2  0  0  0  0
 19 20  1  0  0  0  0
 19 21  1  0  0  0  0
 17 18  1  0  0  0  0
 17 19  2  0  0  0  0
 15 16  1  0  0  0  0
 15 17  1  0  0  0  0
 14 15  2  0  0  0  0
 14 23  1  0  0  0  0
 11 12  1  0  0  0  0
 11 13  1  0  0  0  0
 11 14  1  0  0  0  0
  9 10  1  0  0  0  0
  9 11  1  0  0  0  0
  9 25  1  0  0  0  0
  7  8  1  0  0  0  0
  7  9  1  0  0  0  0
 29 30  1  0  0  0  0
 29 31  1  0  0  0  0
 29 32  1  0  0  0  0
 27 28  1  0  0  0  0
 27 29  1  0  0  0  0
M  END
$$$$
default_name
  -OEChem-02102213163D

 32 32  0     1  0  0  0  0  0999 V2000
   -3.8405   -3.7518    1.6252 H   0  0  0  0  0  0  0  0  0  0  0  0
   -3.7965   -2.8768    0.9782 C   0  0  0  0  0  0  0  0  0  0  0  0
   -4.5465   -2.1527    1.2902 H   0  0  0  0  0  0  0  0  0  0  0  0
   -3.9745   -3.1748   -0.0538 H   0  0  0  0  0  0  0  0  0  0  0  0
   -2.4245   -2.2537    1.0882 C   0  0  0  0  0  0  0  0  0  0  0  0
   -1.5805   -2.7478    1.8242 O   0  0  0  0  0  0  0  0  0  0  0  0
   -2.2045   -1.1637    0.3562 N   0  0  0  0  0  0  0  0  0  0  0  0
   -2.9595   -0.7907   -0.2008 H   0  0  0  0  0  0  0  0  0  0  0  0
   -0.9485   -0.4087    0.3482 C   0  0  1  0  0  0  0  0  0  0  0  0
   -0.1408   -1.0795    0.0507 H   0  0  0  0  0  0  0  0  0  0  0  0
   -1.0432    0.7243   -0.6879 C   0  0  0  0  0  0  0  0  0  0  0  0
   -2.0026    1.2309   -0.5736 H   0  0  0  0  0  0  0  0  0  0  0  0
   -0.2601    1.4562   -0.4844 H   0  0  0  0  0  0  0  0  0  0  0  0
   -0.9280    0.2546   -2.1256 C   0  0  0  0  0  0  0  0  0  0  0  0
    0.2302   -0.4128   -2.5673 C   0  0  0  0  0  0  0  0  0  0  0  0
    1.0556   -0.5745   -1.8885 H   0  0  0  0  0  0  0  0  0  0  0  0
    0.3129   -0.8820   -3.8913 C   0  0  0  0  0  0  0  0  0  0  0  0
    1.2042   -1.3919   -4.2291 H   0  0  0  0  0  0  0  0  0  0  0  0
   -0.7622   -0.6866   -4.7749 C   0  0  0  0  0  0  0  0  0  0  0  0
   -0.6977   -1.0451   -5.7927 H   0  0  0  0  0  0  0  0  0  0  0  0
   -1.9204   -0.0188   -4.3372 C   0  0  0  0  0  0  0  0  0  0  0  0
   -2.7447    0.1362   -5.0178 H   0  0  0  0  0  0  0  0  0  0  0  0
   -2.0014    0.4529   -3.0149 C   0  0  0  0  0  0  0  0  0  0  0  0
   -2.8916    0.9694   -2.6804 H   0  0  0  0  0  0  0  0  0  0  0  0
   -0.6196    0.1253    1.7539 C   0  0  0  0  0  0  0  0  0  0  0  0
    0.5216    0.0194    2.2054 O   0  0  0  0  0  0  0  0  0  0  0  0
   -1.6152    0.6924    2.4469 N   0  0  0  0  0  0  0  0  0  0  0  0
   -2.5345    0.6914    2.0318 H   0  0  0  0  0  0  0  0  0  0  0  0
   -1.4720    1.2390    3.7941 C   0  0  0  0  0  0  0  0  0  0  0  0
   -0.6345    1.9391    3.8219 H   0  0  0  0  0  0  0  0  0  0  0  0
   -2.3844    1.7580    4.0892 H   0  0  0  0  0  0  0  0  0  0  0  0
   -1.2733    0.4298    4.4995 H   0  0  0  0  0  0  0  0  0  0  0  0
  5  6  2  0  0  0  0
  5  7  1  0  0  0  0
  2  3  1  0  0  0  0
  2  4  1  0  0  0  0
  2  5  1  0  0  0  0
  1  2  1  0  0  0  0
 25 26  2  0  0  0  0
 25 27  1  0  0  0  0
 23 24  1  0  0  0  0
 21 22  1  0  0  0  0
 21 23  2  0  0  0  0
 19 20  1  0  0  0  0
 19 21  1  0  0  0  0
 17 18  1  0  0  0  0
 17 19  2  0  0  0  0
 15 16  1  0  0  0  0
 15 17  1  0  0  0  0
 14 15  2  0  0  0  0
 14 23  1  0  0  0  0
 11 12  1  0  0  0  0
 11 13  1  0  0  0  0
 11 14  1  0  0  0  0
  9 10  1  0  0  0  0
  9 11  1  0  0  0  0
  9 25  1  0  0  0  0
  7  8  1  0  0  0  0
  7  9  1  0  0  0  0
 29 30  1  0  0  0  0
 29 31  1  0  0  0  0
 29 32  1  0  0  0  0
 27 28  1  0  0  0  0
 27 29  1  0  0  0  0
M  END
$$$$
default_name
  -OEChem-02102213163D

 32 32  0     1  0  0  0  0  0999 V2000
   -3.8405   -3.7518    1.6252 H   0  0  0  0  0  0  0  0  0  0  0  0
   -3.7965   -2.8768    0.9782 C   0  0  0  0  0  0  0  0  0  0  0  0
   -4.5465   -2.1527    1.2902 H   0  0  0  0  0  0  0  0  0  0  0  0
   -3.9745   -3.1748   -0.0538 H   0  0  0  0  0  0  0  0  0  0  0  0
   -2.4245   -2.2537    1.0882 C   0  0  0  0  0  0  0  0  0  0  0  0
   -1.5805   -2.7478    1.8242 O   0  0  0  0  0  0  0  0  0  0  0  0
   -2.2045   -1.1637    0.3562 N   0  0  0  0  0  0  0  0  0  0  0  0
   -2.9595   -0.7907   -0.2008 H   0  0  0  0  0  0  0  0  0  0  0  0
   -0.9485   -0.4087    0.3482 C   0  0  1  0  0  0  0  0  0  0  0  0
   -0.1408   -1.0795    0.0507 H   0  0  0  0  0  0  0  0  0  0  0  0
   -1.0432    0.7243   -0.6879 C   0  0  0  0  0  0  0  0  0  0  0  0
   -2.0026    1.2309   -0.5736 H   0  0  0  0  0  0  0  0  0  0  0  0
   -0.2601    1.4562   -0.4844 H   0  0  0  0  0  0  0  0  0  0  0  0
   -0.9280    0.2546   -2.1256 C   0  0  0  0  0  0  0  0  0  0  0  0
    0.0643   -0.6730   -2.4956 C   0  0  0  0  0  0  0  0  0  0  0  0
    0.7661   -1.0395   -1.7598 H   0  0  0  0  0  0  0  0  0  0  0  0
    0.1388   -1.1353   -3.8225 C   0  0  0  0  0  0  0  0  0  0  0  0
    0.9031   -1.8456   -4.1050 H   0  0  0  0  0  0  0  0  0  0  0  0
   -0.7791   -0.6729   -4.7807 C   0  0  0  0  0  0  0  0  0  0  0  0
   -0.7204   -1.0263   -5.8007 H   0  0  0  0  0  0  0  0  0  0  0  0
   -1.7710    0.2552   -4.4147 C   0  0  0  0  0  0  0  0  0  0  0  0
   -2.4732    0.6149   -5.1524 H   0  0  0  0  0  0  0  0  0  0  0  0
   -1.8431    0.7195   -3.0894 C   0  0  0  0  0  0  0  0  0  0  0  0
   -2.6045    1.4361   -2.8098 H   0  0  0  0  0  0  0  0  0  0  0  0
   -0.6196    0.1253    1.7539 C   0  0  0  0  0  0  0  0  0  0  0  0
    0.5216    0.0194    2.2054 O   0  0  0  0  0  0  0  0  0  0  0  0
   -1.6152    0.6924    2.4469 N   0  0  0  0  0  0  0  0  0  0  0  0
   -2.5345    0.6914    2.0318 H   0  0  0  0  0  0  0  0  0  0  0  0
   -1.4720    1.2390    3.7941 C   0  0  0  0  0  0  0  0  0  0  0  0
   -0.6345    1.9391    3.8219 H   0  0  0  0  0  0  0  0  0  0  0  0
   -2.3844    1.7580    4.0892 H   0  0  0  0  0  0  0  0  0  0  0  0
   -1.2733    0.4298    4.4995 H   0  0  0  0  0  0  0  0  0  0  0  0
  5  6  2  0  0  0  0
  5  7  1  0  0  0  0
  2  3  1  0  0  0  0
  2  4  1  0  0  0  0
  2  5  1  0  0  0  0
  1  2  1  0  0  0  0
 25 26  2  0  0  0  0
 25 27  1  0  0  0  0
 23 24  1  0  0  0  0
 21 22  1  0  0  0  0
 21 23  2  0  0  0  0
 19 20  1  0  0  0  0
 19 21  1  0  0  0  0
 17 18  1  0  0  0  0
 17 19  2  0  0  0  0
 15 16  1  0  0  0  0
 15 17  1  0  0  0  0
 14 15  2  0  0  0  0
 14 23  1  0  0  0  0
 11 12  1  0  0  0  0
 11 13  1  0  0  0  0
 11 14  1  0  0  0  0
  9 10  1  0  0  0  0
  9 11  1  0  0  0  0
  9 25  1  0  0  0  0
  7  8  1  0  0  0  0
  7  9  1  0  0  0  0
 29 30  1  0  0  0  0
 29 31  1  0  0  0  0
 29 32  1  0  0  0  0
 27 28  1  0  0  0  0
 27 29  1  0  0  0  0
M  END
$$$$
default_name
  -OEChem-02102213163D

 32 32  0     1  0  0  0  0  0999 V2000
   -3.8405   -3.7518    1.6252 H   0  0  0  0  0  0  0  0  0  0  0  0
   -3.7965   -2.8768    0.9782 C   0  0  0  0  0  0  0  0  0  0  0  0
   -4.5465   -2.1527    1.2902 H   0  0  0  0  0  0  0  0  0  0  0  0
   -3.9745   -3.1748   -0.0538 H   0  0  0  0  0  0  0  0  0  0  0  0
   -2.4245   -2.2537    1.0882 C   0  0  0  0  0  0  0  0  0  0  0  0
   -1.5805   -2.7478    1.8242 O   0  0  0  0  0  0  0  0  0  0  0  0
   -2.2045   -1.1637    0.3562 N   0  0  0  0  0  0  0  0  0  0  0  0
   -2.9595   -0.7907   -0.2008 H   0  0  0  0  0  0  0  0  0  0  0  0
   -0.9485   -0.4087    0.3482 C   0  0  1  0  0  0  0  0  0  0  0  0
   -0.1408   -1.0795    0.0507 H   0  0  0  0  0  0  0  0  0  0  0  0
   -1.0432    0.7243   -0.6879 C   0  0  0  0  0  0  0  0  0  0  0  0
   -2.0026    1.2309   -0.5736 H   0  0  0  0  0  0  0  0  0  0  0  0
   -0.2601    1.4562   -0.4844 H   0  0  0  0  0  0  0  0  0  0  0  0
   -0.9280    0.2546   -2.1256 C   0  0  0  0  0  0  0  0  0  0  0  0
   -0.1656   -0.8850   -2.4448 C   0  0  0  0  0  0  0  0  0  0  0  0
    0.3621   -1.4201   -1.6678 H   0  0  0  0  0  0  0  0  0  0  0  0
   -0.0971   -1.3386   -3.7750 C   0  0  0  0  0  0  0  0  0  0  0  0
    0.4910   -2.2124   -4.0182 H   0  0  0  0  0  0  0  0  0  0  0  0
   -0.7917   -0.6553   -4.7875 C   0  0  0  0  0  0  0  0  0  0  0  0
   -0.7371   -1.0024   -5.8098 H   0  0  0  0  0  0  0  0  0  0  0  0
   -1.5532    0.4848   -4.4723 C   0  0  0  0  0  0  0  0  0  0  0  0
   -2.0828    1.0133   -5.2513 H   0  0  0  0  0  0  0  0  0  0  0  0
   -1.6188    0.9397   -3.1433 C   0  0  0  0  0  0  0  0  0  0  0  0
   -2.2023    1.8189   -2.9026 H   0  0  0  0  0  0  0  0  0  0  0  0
   -0.6196    0.1253    1.7539 C   0  0  0  0  0  0  0  0  0  0  0  0
    0.5216    0.0194    2.2054 O   0  0  0  0  0  0  0  0  0  0  0  0
   -1.6152    0.6924    2.4469 N   0  0  0  0  0  0  0  0  0  0  0  0
   -2.5345    0.6914    2.0318 H   0  0  0  0  0  0  0  0  0  0  0  0
   -1.4720    1.2390    3.7941 C   0  0  0  0  0  0  0  0  0  0  0  0
   -0.6345    1.9391    3.8219 H   0  0  0  0  0  0  0  0  0  0  0  0
   -2.3844    1.7580    4.0892 H   0  0  0  0  0  0  0  0  0  0  0  0
   -1.2733    0.4298    4.4995 H   0  0  0  0  0  0  0  0  0  0  0  0
  5  6  2  0  0  0  0
  5  7  1  0  0  0  0
  2  3  1  0  0  0  0
  2  4  1  0  0  0  0
  2  5  1  0  0  0  0
  1  2  1  0  0  0  0
 25 26  2  0  0  0  0
 25 27  1  0  0  0  0
 23 24  1  0  0  0  0
 21 22  1  0  0  0  0
 21 23  2  0  0  0  0
 19 20  1  0  0  0  0
 19 21  1  0  0  0  0
 17 18  1  0  0  0  0
 17 19  2  0  0  0  0
 15 16  1  0  0  0  0
 15 17  1  0  0  0  0
 14 15  2  0  0  0  0
 14 23  1  0  0  0  0
 11 12  1  0  0  0  0
 11 13  1  0  0  0  0
 11 14  1  0  0  0  0
  9 10  1  0  0  0  0
  9 11  1  0  0  0  0
  9 25  1  0  0  0  0
  7  8  1  0  0  0  0
  7  9  1  0  0  0  0
 29 30  1  0  0  0  0
 29 31  1  0  0  0  0
 29 32  1  0  0  0  0
 27 28  1  0  0  0  0
 27 29  1  0  0  0  0
M  END
$$$$
default_name
  -OEChem-02102213163D

 32 32  0     1  0  0  0  0  0999 V2000
   -3.8405   -3.7518    1.6252 H   0  0  0  0  0  0  0  0  0  0  0  0
   -3.7965   -2.8768    0.9782 C   0  0  0  0  0  0  0  0  0  0  0  0
   -4.5465   -2.1527    1.2902 H   0  0  0  0  0  0  0  0  0  0  0  0
   -3.9745   -3.1748   -0.0538 H   0  0  0  0  0  0  0  0  0  0  0  0
   -2.4245   -2.2537    1.0882 C   0  0  0  0  0  0  0  0  0  0  0  0
   -1.5805   -2.7478    1.8242 O   0  0  0  0  0  0  0  0  0  0  0  0
   -2.2045   -1.1637    0.3562 N   0  0  0  0  0  0  0  0  0  0  0  0
   -2.9595   -0.7907   -0.2008 H   0  0  0  0  0  0  0  0  0  0  0  0
   -0.9485   -0.4087    0.3482 C   0  0  1  0  0  0  0  0  0  0  0  0
   -0.1408   -1.0795    0.0507 H   0  0  0  0  0  0  0  0  0  0  0  0
   -1.0432    0.7243   -0.6879 C   0  0  0  0  0  0  0  0  0  0  0  0
   -2.0026    1.2309   -0.5736 H   0  0  0  0  0  0  0  0  0  0  0  0
   -0.2601    1.4562   -0.4844 H   0  0  0  0  0  0  0  0  0  0  0  0
   -0.9280    0.2546   -2.1256 C   0  0  0  0  0  0  0  0  0  0  0  0
   -0.4437   -1.0345   -2.4182 C   0  0  0  0  0  0  0  0  0  0  0  0
   -0.1289   -1.6904   -1.6189 H   0  0  0  0  0  0  0  0  0  0  0  0
   -0.3786   -1.4781   -3.7520 C   0  0  0  0  0  0  0  0  0  0  0  0
   -0.0040   -2.4674   -3.9746 H   0  0  0  0  0  0  0  0  0  0  0  0
   -0.7989   -0.6351   -4.7947 C   0  0  0  0  0  0  0  0  0  0  0  0
   -0.7466   -0.9751   -5.8195 H   0  0  0  0  0  0  0  0  0  0  0  0
   -1.2819    0.6542   -4.5059 C   0  0  0  0  0  0  0  0  0  0  0  0
   -1.6000    1.3043   -5.3077 H   0  0  0  0  0  0  0  0  0  0  0  0
   -1.3438    1.0985   -3.1732 C   0  0  0  0  0  0  0  0  0  0  0  0
   -1.7125    2.0918   -2.9526 H   0  0  0  0  0  0  0  0  0  0  0  0
   -0.6196    0.1253    1.7539 C   0  0  0  0  0  0  0  0  0  0  0  0
    0.5216    0.0194    2.2054 O   0  0  0  0  0  0  0  0  0  0  0  0
   -1.6152    0.6924    2.4469 N   0  0  0  0  0  0  0  0  0  0  0  0
   -2.5345    0.6914    2.0318 H   0  0  0  0  0  0  0  0  0  0  0  0
   -1.4720    1.2390    3.7941 C   0  0  0  0  0  0  0  0  0  0  0  0
   -0.6345    1.9391    3.8219 H   0  0  0  0  0  0  0  0  0  0  0  0
   -2.3844    1.7580    4.0892 H   0  0  0  0  0  0  0  0  0  0  0  0
   -1.2733    0.4298    4.4995 H   0  0  0  0  0  0  0  0  0  0  0  0
  5  6  2  0  0  0  0
  5  7  1  0  0  0  0
  2  3  1  0  0  0  0
  2  4  1  0  0  0  0
  2  5  1  0  0  0  0
  1  2  1  0  0  0  0
 25 26  2  0  0  0  0
 25 27  1  0  0  0  0
 23 24  1  0  0  0  0
 21 22  1  0  0  0  0
 21 23  2  0  0  0  0
 19 20  1  0  0  0  0
 19 21  1  0  0  0  0
 17 18  1  0  0  0  0
 17 19  2  0  0  0  0
 15 16  1  0  0  0  0
 15 17  1  0  0  0  0
 14 15  2  0  0  0  0
 14 23  1  0  0  0  0
 11 12  1  0  0  0  0
 11 13  1  0  0  0  0
 11 14  1  0  0  0  0
  9 10  1  0  0  0  0
  9 11  1  0  0  0  0
  9 25  1  0  0  0  0
  7  8  1  0  0  0  0
  7  9  1  0  0  0  0
 29 30  1  0  0  0  0
 29 31  1  0  0  0  0
 29 32  1  0  0  0  0
 27 28  1  0  0  0  0
 27 29  1  0  0  0  0
M  END
$$$$
default_name
  -OEChem-02102213163D

 32 32  0     1  0  0  0  0  0999 V2000
   -3.8405   -3.7518    1.6252 H   0  0  0  0  0  0  0  0  0  0  0  0
   -3.7965   -2.8768    0.9782 C   0  0  0  0  0  0  0  0  0  0  0  0
   -4.5465   -2.1527    1.2902 H   0  0  0  0  0  0  0  0  0  0  0  0
   -3.9745   -3.1748   -0.0538 H   0  0  0  0  0  0  0  0  0  0  0  0
   -2.4245   -2.2537    1.0882 C   0  0  0  0  0  0  0  0  0  0  0  0
   -1.5805   -2.7478    1.8242 O   0  0  0  0  0  0  0  0  0  0  0  0
   -2.2045   -1.1637    0.3562 N   0  0  0  0  0  0  0  0  0  0  0  0
   -2.9595   -0.7907   -0.2008 H   0  0  0  0  0  0  0  0  0  0  0  0
   -0.9485   -0.4087    0.3482 C   0  0  1  0  0  0  0  0  0  0  0  0
   -0.1408   -1.0795    0.0507 H   0  0  0  0  0  0  0  0  0  0  0  0
   -1.0432    0.7243   -0.6879 C   0  0  0  0  0  0  0  0  0  0  0  0
   -2.0026    1.2309   -0.5736 H   0  0  0  0  0  0  0  0  0  0  0  0
   -0.2601    1.4562   -0.4844 H   0  0  0  0  0  0  0  0  0  0  0  0
   -0.9280    0.2546   -2.1256 C   0  0  0  0  0  0  0  0  0  0  0  0
   -0.7511   -1.1111   -2.4178 C   0  0  0  0  0  0  0  0  0  0  0  0
   -0.6734   -1.8320   -1.6162 H   0  0  0  0  0  0  0  0  0  0  0  0
   -0.6865   -1.5442   -3.7550 C   0  0  0  0  0  0  0  0  0  0  0  0
   -0.5481   -2.5931   -3.9771 H   0  0  0  0  0  0  0  0  0  0  0  0
   -0.8004   -0.6137   -4.8018 C   0  0  0  0  0  0  0  0  0  0  0  0
   -0.7483   -0.9462   -5.8291 H   0  0  0  0  0  0  0  0  0  0  0  0
   -0.9756    0.7520   -4.5133 C   0  0  0  0  0  0  0  0  0  0  0  0
   -1.0577    1.4681   -5.3177 H   0  0  0  0  0  0  0  0  0  0  0  0
   -1.0369    1.1850   -3.1768 C   0  0  0  0  0  0  0  0  0  0  0  0
   -1.1684    2.2363   -2.9562 H   0  0  0  0  0  0  0  0  0  0  0  0
   -0.6196    0.1253    1.7539 C   0  0  0  0  0  0  0  0  0  0  0  0
    0.5216    0.0194    2.2054 O   0  0  0  0  0  0  0  0  0  0  0  0
   -1.6152    0.6924    2.4469 N   0  0  0  0  0  0  0  0  0  0  0  0
   -2.5345    0.6914    2.0318 H   0  0  0  0  0  0  0  0  0  0  0  0
   -1.4720    1.2390    3.7941 C   0  0  0  0  0  0  0  0  0  0  0  0
   -0.6345    1.9391    3.8219 H   0  0  0  0  0  0  0  0  0  0  0  0
   -2.3844    1.7580    4.0892 H   0  0  0  0  0  0  0  0  0  0  0  0
   -1.2733    0.4298    4.4995 H   0  0  0  0  0  0  0  0  0  0  0  0
  5  6  2  0  0  0  0
  5  7  1  0  0  0  0
  2  3  1  0  0  0  0
  2  4  1  0  0  0  0
  2  5  1  0  0  0  0
  1  2  1  0  0  0  0
 25 26  2  0  0  0  0
 25 27  1  0  0  0  0
 23 24  1  0  0  0  0
 21 22  1  0  0  0  0
 21 23  2  0  0  0  0
 19 20  1  0  0  0  0
 19 21  1  0  0  0  0
 17 18  1  0  0  0  0
 17 19  2  0  0  0  0
 15 16  1  0  0  0  0
 15 17  1  0  0  0  0
 14 15  2  0  0  0  0
 14 23  1  0  0  0  0
 11 12  1  0  0  0  0
 11 13  1  0  0  0  0
 11 14  1  0  0  0  0
  9 10  1  0  0  0  0
  9 11  1  0  0  0  0
  9 25  1  0  0  0  0
  7  8  1  0  0  0  0
  7  9  1  0  0  0  0
 29 30  1  0  0  0  0
 29 31  1  0  0  0  0
 29 32  1  0  0  0  0
 27 28  1  0  0  0  0
 27 29  1  0  0  0  0
M  END
$$$$
default_name
  -OEChem-02102213163D

 32 32  0     1  0  0  0  0  0999 V2000
   -3.8405   -3.7518    1.6252 H   0  0  0  0  0  0  0  0  0  0  0  0
   -3.7965   -2.8768    0.9782 C   0  0  0  0  0  0  0  0  0  0  0  0
   -4.5465   -2.1527    1.2902 H   0  0  0  0  0  0  0  0  0  0  0  0
   -3.9745   -3.1748   -0.0538 H   0  0  0  0  0  0  0  0  0  0  0  0
   -2.4245   -2.2537    1.0882 C   0  0  0  0  0  0  0  0  0  0  0  0
   -1.5805   -2.7478    1.8242 O   0  0  0  0  0  0  0  0  0  0  0  0
   -2.2045   -1.1637    0.3562 N   0  0  0  0  0  0  0  0  0  0  0  0
   -2.9595   -0.7907   -0.2008 H   0  0  0  0  0  0  0  0  0  0  0  0
   -0.9485   -0.4087    0.3482 C   0  0  1  0  0  0  0  0  0  0  0  0
   -0.1408   -1.0795    0.0507 H   0  0  0  0  0  0  0  0  0  0  0  0
   -1.0432    0.7243   -0.6879 C   0  0  0  0  0  0  0  0  0  0  0  0
   -2.0026    1.2309   -0.5736 H   0  0  0  0  0  0  0  0  0  0  0  0
   -0.2601    1.4562   -0.4844 H   0  0  0  0  0  0  0  0  0  0  0  0
   -0.9280    0.2546   -2.1256 C   0  0  0  0  0  0  0  0  0  0  0  0
   -1.0669   -1.1098   -2.4436 C   0  0  0  0  0  0  0  0  0  0  0  0
   -1.2343   -1.8353   -1.6601 H   0  0  0  0  0  0  0  0  0  0  0  0
   -1.0000   -1.5325   -3.7840 C   0  0  0  0  0  0  0  0  0  0  0  0
   -1.1044   -2.5809   -4.0257 H   0  0  0  0  0  0  0  0  0  0  0  0
   -0.7960   -0.5925   -4.8084 C   0  0  0  0  0  0  0  0  0  0  0  0
   -0.7422   -0.9176   -5.8379 H   0  0  0  0  0  0  0  0  0  0  0  0
   -0.6552    0.7715   -4.4940 C   0  0  0  0  0  0  0  0  0  0  0  0
   -0.4930    1.4935   -5.2808 H   0  0  0  0  0  0  0  0  0  0  0  0
   -0.7189    1.1933   -3.1540 C   0  0  0  0  0  0  0  0  0  0  0  0
   -0.6071    2.2424   -2.9132 H   0  0  0  0  0  0  0  0  0  0  0  0
   -0.6196    0.1253    1.7539 C   0  0  0  0  0  0  0  0  0  0  0  0
    0.5216    0.0194    2.2054 O   0  0  0  0  0  0  0  0  0  0  0  0
   -1.6152    0.6924    2.4469 N   0  0  0  0  0  0  0  0  0  0  0  0
   -2.5345    0.6914    2.0318 H   0  0  0  0  0  0  0  0  0  0  0  0
   -1.4720    1.2390    3.7941 C   0  0  0  0  0  0  0  0  0  0  0  0
   -0.6345    1.9391    3.8219 H   0  0  0  0  0  0  0  0  0  0  0  0
   -2.3844    1.7580    4.0892 H   0  0  0  0  0  0  0  0  0  0  0  0
   -1.2733    0.4298    4.4995 H   0  0  0  0  0  0  0  0  0  0  0  0
  5  6  2  0  0  0  0
  5  7  1  0  0  0  0
  2  3  1  0  0  0  0
  2  4  1  0  0  0  0
  2  5  1  0  0  0  0
  1  2  1  0  0  0  0
 25 26  2  0  0  0  0
 25 27  1  0  0  0  0
 23 24  1  0  0  0  0
 21 22  1  0  0  0  0
 21 23  2  0  0  0  0
 19 20  1  0  0  0  0
 19 21  1  0  0  0  0
 17 18  1  0  0  0  0
 17 19  2  0  0  0  0
 15 16  1  0  0  0  0
 15 17  1  0  0  0  0
 14 15  2  0  0  0  0
 14 23  1  0  0  0  0
 11 12  1  0  0  0  0
 11 13  1  0  0  0  0
 11 14  1  0  0  0  0
  9 10  1  0  0  0  0
  9 11  1  0  0  0  0
  9 25  1  0  0  0  0
  7  8  1  0  0  0  0
  7  9  1  0  0  0  0
 29 30  1  0  0  0  0
 29 31  1  0  0  0  0
 29 32  1  0  0  0  0
 27 28  1  0  0  0  0
 27 29  1  0  0  0  0
M  END
$$$$
default_name
  -OEChem-02102213163D

 32 32  0     1  0  0  0  0  0999 V2000
   -3.8405   -3.7518    1.6252 H   0  0  0  0  0  0  0  0  0  0  0  0
   -3.7965   -2.8768    0.9782 C   0  0  0  0  0  0  0  0  0  0  0  0
   -4.5465   -2.1527    1.2902 H   0  0  0  0  0  0  0  0  0  0  0  0
   -3.9745   -3.1748   -0.0538 H   0  0  0  0  0  0  0  0  0  0  0  0
   -2.4245   -2.2537    1.0882 C   0  0  0  0  0  0  0  0  0  0  0  0
   -1.5805   -2.7478    1.8242 O   0  0  0  0  0  0  0  0  0  0  0  0
   -2.2045   -1.1637    0.3562 N   0  0  0  0  0  0  0  0  0  0  0  0
   -2.9595   -0.7907   -0.2008 H   0  0  0  0  0  0  0  0  0  0  0  0
   -0.9485   -0.4087    0.3482 C   0  0  1  0  0  0  0  0  0  0  0  0
   -0.1408   -1.0795    0.0507 H   0  0  0  0  0  0  0  0  0  0  0  0
   -1.0432    0.7243   -0.6879 C   0  0  0  0  0  0  0  0  0  0  0  0
   -2.0026    1.2309   -0.5736 H   0  0  0  0  0  0  0  0  0  0  0  0
   -0.2601    1.4562   -0.4844 H   0  0  0  0  0  0  0  0  0  0  0  0
   -0.9280    0.2546   -2.1256 C   0  0  0  0  0  0  0  0  0  0  0  0
   -1.3696   -1.0304   -2.4937 C   0  0  0  0  0  0  0  0  0  0  0  0
   -1.7734   -1.7000   -1.7475 H   0  0  0  0  0  0  0  0  0  0  0  0
   -1.2975   -1.4437   -3.8368 C   0  0  0  0  0  0  0  0  0  0  0  0
   -1.6348   -2.4318   -4.1169 H   0  0  0  0  0  0  0  0  0  0  0  0
   -0.7860   -0.5730   -4.8139 C   0  0  0  0  0  0  0  0  0  0  0  0
   -0.7285   -0.8914   -5.8454 H   0  0  0  0  0  0  0  0  0  0  0  0
   -0.3425    0.7113   -4.4492 C   0  0  0  0  0  0  0  0  0  0  0  0
    0.0558    1.3787   -5.1993 H   0  0  0  0  0  0  0  0  0  0  0  0
   -0.4115    1.1228   -3.1064 C   0  0  0  0  0  0  0  0  0  0  0  0
   -0.0669    2.1098   -2.8266 H   0  0  0  0  0  0  0  0  0  0  0  0
   -0.6196    0.1253    1.7539 C   0  0  0  0  0  0  0  0  0  0  0  0
    0.5216    0.0194    2.2054 O   0  0  0  0  0  0  0  0  0  0  0  0
   -1.6152    0.6924    2.4469 N   0  0  0  0  0  0  0  0  0  0  0  0
   -2.5345    0.6914    2.0318 H   0  0  0  0  0  0  0  0  0  0  0  0
   -1.4720    1.2390    3.7941 C   0  0  0  0  0  0  0  0  0  0  0  0
   -0.6345    1.9391    3.8219 H   0  0  0  0  0  0  0  0  0  0  0  0
   -2.3844    1.7580    4.0892 H   0  0  0  0  0  0  0  0  0  0  0  0
   -1.2733    0.4298    4.4995 H   0  0  0  0  0  0  0  0  0  0  0  0
  5  6  2  0  0  0  0
  5  7  1  0  0  0  0
  2  3  1  0  0  0  0
  2  4  1  0  0  0  0
  2  5  1  0  0  0  0
  1  2  1  0  0  0  0
 25 26  2  0  0  0  0
 25 27  1  0  0  0  0
 23 24  1  0  0  0  0
 21 22  1  0  0  0  0
 21 23  2  0  0  0  0
 19 20  1  0  0  0  0
 19 21  1  0  0  0  0
 17 18  1  0  0  0  0
 17 19  2  0  0  0  0
 15 16  1  0  0  0  0
 15 17  1  0  0  0  0
 14 15  2  0  0  0  0
 14 23  1  0  0  0  0
 11 12  1  0  0  0  0
 11 13  1  0  0  0  0
 11 14  1  0  0  0  0
  9 10  1  0  0  0  0
  9 11  1  0  0  0  0
  9 25  1  0  0  0  0
  7  8  1  0  0  0  0
  7  9  1  0  0  0  0
 29 30  1  0  0  0  0
 29 31  1  0  0  0  0
 29 32  1  0  0  0  0
 27 28  1  0  0  0  0
 27 29  1  0  0  0  0
M  END
$$$$
default_name
  -OEChem-02102213163D

 32 32  0     1  0  0  0  0  0999 V2000
   -3.8405   -3.7518    1.6252 H   0  0  0  0  0  0  0  0  0  0  0  0
   -3.7965   -2.8768    0.9782 C   0  0  0  0  0  0  0  0  0  0  0  0
   -4.5465   -2.1527    1.2902 H   0  0  0  0  0  0  0  0  0  0  0  0
   -3.9745   -3.1748   -0.0538 H   0  0  0  0  0  0  0  0  0  0  0  0
   -2.4245   -2.2537    1.0882 C   0  0  0  0  0  0  0  0  0  0  0  0
   -1.5805   -2.7478    1.8242 O   0  0  0  0  0  0  0  0  0  0  0  0
   -2.2045   -1.1637    0.3562 N   0  0  0  0  0  0  0  0  0  0  0  0
   -2.9595   -0.7907   -0.2008 H   0  0  0  0  0  0  0  0  0  0  0  0
   -0.9485   -0.4087    0.3482 C   0  0  1  0  0  0  0  0  0  0  0  0
   -0.1408   -1.0795    0.0507 H   0  0  0  0  0  0  0  0  0  0  0  0
   -1.0432    0.7243   -0.6879 C   0  0  0  0  0  0  0  0  0  0  0  0
   -2.0026    1.2309   -0.5736 H   0  0  0  0  0  0  0  0  0  0  0  0
   -0.2601    1.4562   -0.4844 H   0  0  0  0  0  0  0  0  0  0  0  0
   -0.9280    0.2546   -2.1256 C   0  0  0  0  0  0  0  0  0  0  0  0
   -1.6384   -0.8786   -2.5649 C   0  0  0  0  0  0  0  0  0  0  0  0
   -2.2539   -1.4354   -1.8725 H   0  0  0  0  0  0  0  0  0  0  0  0
   -1.5589   -1.2839   -3.9100 C   0  0  0  0  0  0  0  0  0  0  0  0
   -2.1032   -2.1559   -4.2446 H   0  0  0  0  0  0  0  0  0  0  0  0
   -0.7711   -0.5564   -4.8181 C   0  0  0  0  0  0  0  0  0  0  0  0
   -0.7082   -0.8693   -5.8510 H   0  0  0  0  0  0  0  0  0  0  0  0
   -0.0587    0.5756   -4.3822 C   0  0  0  0  0  0  0  0  0  0  0  0
    0.5512    1.1317   -5.0789 H   0  0  0  0  0  0  0  0  0  0  0  0
   -0.1357    0.9784   -3.0371 C   0  0  0  0  0  0  0  0  0  0  0  0
    0.4155    1.8475   -2.7022 H   0  0  0  0  0  0  0  0  0  0  0  0
   -0.6196    0.1253    1.7539 C   0  0  0  0  0  0  0  0  0  0  0  0
    0.5216    0.0194    2.2054 O   0  0  0  0  0  0  0  0  0  0  0  0
   -1.6152    0.6924    2.4469 N   0  0  0  0  0  0  0  0  0  0  0  0
   -2.5345    0.6914    2.0318 H   0  0  0  0  0  0  0  0  0  0  0  0
   -1.4720    1.2390    3.7941 C   0  0  0  0  0  0  0  0  0  0  0  0
   -0.6345    1.9391    3.8219 H   0  0  0  0  0  0  0  0  0  0  0  0
   -2.3844    1.7580    4.0892 H   0  0  0  0  0  0  0  0  0  0  0  0
   -1.2733    0.4298    4.4995 H   0  0  0  0  0  0  0  0  0  0  0  0
  5  6  2  0  0  0  0
  5  7  1  0  0  0  0
  2  3  1  0  0  0  0
  2  4  1  0  0  0  0
  2  5  1  0  0  0  0
  1  2  1  0  0  0  0
 25 26  2  0  0  0  0
 25 27  1  0  0  0  0
 23 24  1  0  0  0  0
 21 22  1  0  0  0  0
 21 23  2  0  0  0  0
 19 20  1  0  0  0  0
 19 21  1  0  0  0  0
 17 18  1  0  0  0  0
 17 19  2  0  0  0  0
 15 16  1  0  0  0  0
 15 17  1  0  0  0  0
 14 15  2  0  0  0  0
 14 23  1  0  0  0  0
 11 12  1  0  0  0  0
 11 13  1  0  0  0  0
 11 14  1  0  0  0  0
  9 10  1  0  0  0  0
  9 11  1  0  0  0  0
  9 25  1  0  0  0  0
  7  8  1  0  0  0  0
  7  9  1  0  0  0  0
 29 30  1  0  0  0  0
 29 31  1  0  0  0  0
 29 32  1  0  0  0  0
 27 28  1  0  0  0  0
 27 29  1  0  0  0  0
M  END
$$$$
default_name
  -OEChem-02102213163D

 32 32  0     1  0  0  0  0  0999 V2000
   -3.8405   -3.7518    1.6252 H   0  0  0  0  0  0  0  0  0  0  0  0
   -3.7965   -2.8768    0.9782 C   0  0  0  0  0  0  0  0  0  0  0  0
   -4.5465   -2.1527    1.2902 H   0  0  0  0  0  0  0  0  0  0  0  0
   -3.9745   -3.1748   -0.0538 H   0  0  0  0  0  0  0  0  0  0  0  0
   -2.4245   -2.2537    1.0882 C   0  0  0  0  0  0  0  0  0  0  0  0
   -1.5805   -2.7478    1.8242 O   0  0  0  0  0  0  0  0  0  0  0  0
   -2.2045   -1.1637    0.3562 N   0  0  0  0  0  0  0  0  0  0  0  0
   -2.9595   -0.7907   -0.2008 H   0  0  0  0  0  0  0  0  0  0  0  0
   -0.9485   -0.4087    0.3482 C   0  0  1  0  0  0  0  0  0  0  0  0
   -0.1408   -1.0795    0.0507 H   0  0  0  0  0  0  0  0  0  0  0  0
   -1.0432    0.7243   -0.6879 C   0  0  0  0  0  0  0  0  0  0  0  0
   -2.0026    1.2309   -0.5736 H   0  0  0  0  0  0  0  0  0  0  0  0
   -0.2601    1.4562   -0.4844 H   0  0  0  0  0  0  0  0  0  0  0  0
   -0.9280    0.2546   -2.1256 C   0  0  0  0  0  0  0  0  0  0  0  0
   -1.8552   -0.6646   -2.6522 C   0  0  0  0  0  0  0  0  0  0  0  0
   -2.6432   -1.0594   -2.0265 H   0  0  0  0  0  0  0  0  0  0  0  0
   -1.7664   -1.0640   -3.9985 C   0  0  0  0  0  0  0  0  0  0  0  0
   -2.4778   -1.7719   -4.4000 H   0  0  0  0  0  0  0  0  0  0  0  0
   -0.7524   -0.5441   -4.8207 C   0  0  0  0  0  0  0  0  0  0  0  0
   -0.6828   -0.8527   -5.8544 H   0  0  0  0  0  0  0  0  0  0  0  0
    0.1767    0.3735   -4.2973 C   0  0  0  0  0  0  0  0  0  0  0  0
    0.9595    0.7691   -4.9277 H   0  0  0  0  0  0  0  0  0  0  0  0
    0.0897    0.7700   -2.9509 C   0  0  0  0  0  0  0  0  0  0  0  0
    0.8070    1.4734   -2.5486 H   0  0  0  0  0  0  0  0  0  0  0  0
   -0.6196    0.1253    1.7539 C   0  0  0  0  0  0  0  0  0  0  0  0
    0.5216    0.0194    2.2054 O   0  0  0  0  0  0  0  0  0  0  0  0
   -1.6152    0.6924    2.4469 N   0  0  0  0  0  0  0  0  0  0  0  0
   -2.5345    0.6914    2.0318 H   0  0  0  0  0  0  0  0  0  0  0  0
   -1.4720    1.2390    3.7941 C   0  0  0  0  0  0  0  0  0  0  0  0
   -0.6345    1.9391    3.8219 H   0  0  0  0  0  0  0  0  0  0  0  0
   -2.3844    1.7580    4.0892 H   0  0  0  0  0  0  0  0  0  0  0  0
   -1.2733    0.4298    4.4995 H   0  0  0  0  0  0  0  0  0  0  0  0
  5  6  2  0  0  0  0
  5  7  1  0  0  0  0
  2  3  1  0  0  0  0
  2  4  1  0  0  0  0
  2  5  1  0  0  0  0
  1  2  1  0  0  0  0
 25 26  2  0  0  0  0
 25 27  1  0  0  0  0
 23 24  1  0  0  0  0
 21 22  1  0  0  0  0
 21 23  2  0  0  0  0
 19 20  1  0  0  0  0
 19 21  1  0  0  0  0
 17 18  1  0  0  0  0
 17 19  2  0  0  0  0
 15 16  1  0  0  0  0
 15 17  1  0  0  0  0
 14 15  2  0  0  0  0
 14 23  1  0  0  0  0
 11 12  1  0  0  0  0
 11 13  1  0  0  0  0
 11 14  1  0  0  0  0
  9 10  1  0  0  0  0
  9 11  1  0  0  0  0
  9 25  1  0  0  0  0
  7  8  1  0  0  0  0
  7  9  1  0  0  0  0
 29 30  1  0  0  0  0
 29 31  1  0  0  0  0
 29 32  1  0  0  0  0
 27 28  1  0  0  0  0
 27 29  1  0  0  0  0
M  END
$$$$
default_name
  -OEChem-02102213163D

 32 32  0     1  0  0  0  0  0999 V2000
   -3.8405   -3.7518    1.6252 H   0  0  0  0  0  0  0  0  0  0  0  0
   -3.7965   -2.8768    0.9782 C   0  0  0  0  0  0  0  0  0  0  0  0
   -4.5465   -2.1527    1.2902 H   0  0  0  0  0  0  0  0  0  0  0  0
   -3.9745   -3.1748   -0.0538 H   0  0  0  0  0  0  0  0  0  0  0  0
   -2.4245   -2.2537    1.0882 C   0  0  0  0  0  0  0  0  0  0  0  0
   -1.5805   -2.7478    1.8242 O   0  0  0  0  0  0  0  0  0  0  0  0
   -2.2045   -1.1637    0.3562 N   0  0  0  0  0  0  0  0  0  0  0  0
   -2.9595   -0.7907   -0.2008 H   0  0  0  0  0  0  0  0  0  0  0  0
   -0.9485   -0.4087    0.3482 C   0  0  1  0  0  0  0  0  0  0  0  0
   -0.1408   -1.0795    0.0507 H   0  0  0  0  0  0  0  0  0  0  0  0
   -1.0432    0.7243   -0.6879 C   0  0  0  0  0  0  0  0  0  0  0  0
   -2.0026    1.2309   -0.5736 H   0  0  0  0  0  0  0  0  0  0  0  0
   -0.2601    1.4562   -0.4844 H   0  0  0  0  0  0  0  0  0  0  0  0
   -0.9280    0.2546   -2.1256 C   0  0  0  0  0  0  0  0  0  0  0  0
   -2.0050   -0.4030   -2.7496 C   0  0  0  0  0  0  0  0  0  0  0  0
   -2.9145   -0.5978   -2.1990 H   0  0  0  0  0  0  0  0  0  0  0  0
   -1.9057   -0.7990   -4.0962 C   0  0  0  0  0  0  0  0  0  0  0  0
   -2.7330   -1.3061   -4.5727 H   0  0  0  0  0  0  0  0  0  0  0  0
   -0.7310   -0.5366   -4.8214 C   0  0  0  0  0  0  0  0  0  0  0  0
   -0.6539   -0.8430   -5.8552 H   0  0  0  0  0  0  0  0  0  0  0  0
    0.3477    0.1190   -4.2004 C   0  0  0  0  0  0  0  0  0  0  0  0
    1.2528    0.3158   -4.7561 H   0  0  0  0  0  0  0  0  0  0  0  0
    0.2494    0.5116   -2.8537 C   0  0  0  0  0  0  0  0  0  0  0  0
    1.0812    1.0129   -2.3762 H   0  0  0  0  0  0  0  0  0  0  0  0
   -0.6196    0.1253    1.7539 C   0  0  0  0  0  0  0  0  0  0  0  0
    0.5216    0.0194    2.2054 O   0  0  0  0  0  0  0  0  0  0  0  0
   -1.6152    0.6924    2.4469 N   0  0  0  0  0  0  0  0  0  0  0  0
   -2.5345    0.6914    2.0318 H   0  0  0  0  0  0  0  0  0  0  0  0
   -1.4720    1.2390    3.7941 C   0  0  0  0  0  0  0  0  0  0  0  0
   -0.6345    1.9391    3.8219 H   0  0  0  0  0  0  0  0  0  0  0  0
   -2.3844    1.7580    4.0892 H   0  0  0  0  0  0  0  0  0  0  0  0
   -1.2733    0.4298    4.4995 H   0  0  0  0  0  0  0  0  0  0  0  0
  5  6  2  0  0  0  0
  5  7  1  0  0  0  0
  2  3  1  0  0  0  0
  2  4  1  0  0  0  0
  2  5  1  0  0  0  0
  1  2  1  0  0  0  0
 25 26  2  0  0  0  0
 25 27  1  0  0  0  0
 23 24  1  0  0  0  0
 21 22  1  0  0  0  0
 21 23  2  0  0  0  0
 19 20  1  0  0  0  0
 19 21  1  0  0  0  0
 17 18  1  0  0  0  0
 17 19  2  0  0  0  0
 15 16  1  0  0  0  0
 15 17  1  0  0  0  0
 14 15  2  0  0  0  0
 14 23  1  0  0  0  0
 11 12  1  0  0  0  0
 11 13  1  0  0  0  0
 11 14  1  0  0  0  0
  9 10  1  0  0  0  0
  9 11  1  0  0  0  0
  9 25  1  0  0  0  0
  7  8  1  0  0  0  0
  7  9  1  0  0  0  0
 29 30  1  0  0  0  0
 29 31  1  0  0  0  0
 29 32  1  0  0  0  0
 27 28  1  0  0  0  0
 27 29  1  0  0  0  0
M  END
$$$$
default_name
  -OEChem-02102213163D

 32 32  0     1  0  0  0  0  0999 V2000
   -3.8405   -3.7518    1.6252 H   0  0  0  0  0  0  0  0  0  0  0  0
   -3.7965   -2.8768    0.9782 C   0  0  0  0  0  0  0  0  0  0  0  0
   -4.5465   -2.1527    1.2902 H   0  0  0  0  0  0  0  0  0  0  0  0
   -3.9745   -3.1748   -0.0538 H   0  0  0  0  0  0  0  0  0  0  0  0
   -2.4245   -2.2537    1.0882 C   0  0  0  0  0  0  0  0  0  0  0  0
   -1.5805   -2.7478    1.8242 O   0  0  0  0  0  0  0  0  0  0  0  0
   -2.2045   -1.1637    0.3562 N   0  0  0  0  0  0  0  0  0  0  0  0
   -2.9595   -0.7907   -0.2008 H   0  0  0  0  0  0  0  0  0  0  0  0
   -0.9485   -0.4087    0.3482 C   0  0  1  0  0  0  0  0  0  0  0  0
   -0.1408   -1.0795    0.0507 H   0  0  0  0  0  0  0  0  0  0  0  0
   -1.0432    0.7243   -0.6879 C   0  0  0  0  0  0  0  0  0  0  0  0
   -2.0026    1.2309   -0.5736 H   0  0  0  0  0  0  0  0  0  0  0  0
   -0.2601    1.4562   -0.4844 H   0  0  0  0  0  0  0  0  0  0  0  0
   -0.9280    0.2546   -2.1256 C   0  0  0  0  0  0  0  0  0  0  0  0
   -2.0778   -0.1116   -2.8507 C   0  0  0  0  0  0  0  0  0  0  0  0
   -3.0496   -0.0819   -2.3784 H   0  0  0  0  0  0  0  0  0  0  0  0
   -1.9674   -0.5068   -4.1966 C   0  0  0  0  0  0  0  0  0  0  0  0
   -2.8513   -0.7901   -4.7507 H   0  0  0  0  0  0  0  0  0  0  0  0
   -0.7085   -0.5347   -4.8202 C   0  0  0  0  0  0  0  0  0  0  0  0
   -0.6235   -0.8406   -5.8536 H   0  0  0  0  0  0  0  0  0  0  0  0
    0.4427   -0.1708   -4.0982 C   0  0  0  0  0  0  0  0  0  0  0  0
    1.4111   -0.1974   -4.5758 H   0  0  0  0  0  0  0  0  0  0  0  0
    0.3325    0.2209   -2.7521 C   0  0  0  0  0  0  0  0  0  0  0  0
    1.2192    0.4975   -2.1968 H   0  0  0  0  0  0  0  0  0  0  0  0
   -0.6196    0.1253    1.7539 C   0  0  0  0  0  0  0  0  0  0  0  0
    0.5216    0.0194    2.2054 O   0  0  0  0  0  0  0  0  0  0  0  0
   -1.6152    0.6924    2.4469 N   0  0  0  0  0  0  0  0  0  0  0  0
   -2.5345    0.6914    2.0318 H   0  0  0  0  0  0  0  0  0  0  0  0
   -1.4720    1.2390    3.7941 C   0  0  0  0  0  0  0  0  0  0  0  0
   -0.6345    1.9391    3.8219 H   0  0  0  0  0  0  0  0  0  0  0  0
   -2.3844    1.7580    4.0892 H   0  0  0  0  0  0  0  0  0  0  0  0
   -1.2733    0.4298    4.4995 H   0  0  0  0  0  0  0  0  0  0  0  0
  5  6  2  0  0  0  0
  5  7  1  0  0  0  0
  2  3  1  0  0  0  0
  2  4  1  0  0  0  0
  2  5  1  0  0  0  0
  1  2  1  0  0  0  0
 25 26  2  0  0  0  0
 25 27  1  0  0  0  0
 23 24  1  0  0  0  0
 21 22  1  0  0  0  0
 21 23  2  0  0  0  0
 19 20  1  0  0  0  0
 19 21  1  0  0  0  0
 17 18  1  0  0  0  0
 17 19  2  0  0  0  0
 15 16  1  0  0  0  0
 15 17  1  0  0  0  0
 14 15  2  0  0  0  0
 14 23  1  0  0  0  0
 11 12  1  0  0  0  0
 11 13  1  0  0  0  0
 11 14  1  0  0  0  0
  9 10  1  0  0  0  0
  9 11  1  0  0  0  0
  9 25  1  0  0  0  0
  7  8  1  0  0  0  0
  7  9  1  0  0  0  0
 29 30  1  0  0  0  0
 29 31  1  0  0  0  0
 29 32  1  0  0  0  0
 27 28  1  0  0  0  0
 27 29  1  0  0  0  0
M  END
$$$$
default_name
  -OEChem-02102213163D

 32 32  0     1  0  0  0  0  0999 V2000
   -3.8405   -3.7518    1.6252 H   0  0  0  0  0  0  0  0  0  0  0  0
   -3.7965   -2.8768    0.9782 C   0  0  0  0  0  0  0  0  0  0  0  0
   -4.5465   -2.1527    1.2902 H   0  0  0  0  0  0  0  0  0  0  0  0
   -3.9745   -3.1748   -0.0538 H   0  0  0  0  0  0  0  0  0  0  0  0
   -2.4245   -2.2537    1.0882 C   0  0  0  0  0  0  0  0  0  0  0  0
   -1.5805   -2.7478    1.8242 O   0  0  0  0  0  0  0  0  0  0  0  0
   -2.2045   -1.1637    0.3562 N   0  0  0  0  0  0  0  0  0  0  0  0
   -2.9595   -0.7907   -0.2008 H   0  0  0  0  0  0  0  0  0  0  0  0
   -0.9485   -0.4087    0.3482 C   0  0  1  0  0  0  0  0  0  0  0  0
   -0.1408   -1.0795    0.0507 H   0  0  0  0  0  0  0  0  0  0  0  0
   -1.0432    0.7243   -0.6879 C   0  0  0  0  0  0  0  0  0  0  0  0
   -2.0026    1.2309   -0.5736 H   0  0  0  0  0  0  0  0  0  0  0  0
   -0.2601    1.4562   -0.4844 H   0  0  0  0  0  0  0  0  0  0  0  0
   -0.9280    0.2546   -2.1256 C   0  0  0  0  0  0  0  0  0  0  0  0
   -2.0685    0.1896   -2.9483 C   0  0  0  0  0  0  0  0  0  0  0  0
   -3.0391    0.4531   -2.5523 H   0  0  0  0  0  0  0  0  0  0  0  0
   -1.9474   -0.2075   -4.2928 C   0  0  0  0  0  0  0  0  0  0  0  0
   -2.8248   -0.2592   -4.9220 H   0  0  0  0  0  0  0  0  0  0  0  0
   -0.6864   -0.5384   -4.8172 C   0  0  0  0  0  0  0  0  0  0  0  0
   -0.5937   -0.8458   -5.8495 H   0  0  0  0  0  0  0  0  0  0  0  0
    0.4551   -0.4760   -3.9975 C   0  0  0  0  0  0  0  0  0  0  0  0
    1.4237   -0.7355   -4.3990 H   0  0  0  0  0  0  0  0  0  0  0  0
    0.3333   -0.0822   -2.6530 C   0  0  0  0  0  0  0  0  0  0  0  0
    1.2118   -0.0378   -2.0225 H   0  0  0  0  0  0  0  0  0  0  0  0
   -0.6196    0.1253    1.7539 C   0  0  0  0  0  0  0  0  0  0  0  0
    0.5216    0.0194    2.2054 O   0  0  0  0  0  0  0  0  0  0  0  0
   -1.6152    0.6924    2.4469 N   0  0  0  0  0  0  0  0  0  0  0  0
   -2.5345    0.6914    2.0318 H   0  0  0  0  0  0  0  0  0  0  0  0
   -1.4720    1.2390    3.7941 C   0  0  0  0  0  0  0  0  0  0  0  0
   -0.6345    1.9391    3.8219 H   0  0  0  0  0  0  0  0  0  0  0  0
   -2.3844    1.7580    4.0892 H   0  0  0  0  0  0  0  0  0  0  0  0
   -1.2733    0.4298    4.4995 H   0  0  0  0  0  0  0  0  0  0  0  0
  5  6  2  0  0  0  0
  5  7  1  0  0  0  0
  2  3  1  0  0  0  0
  2  4  1  0  0  0  0
  2  5  1  0  0  0  0
  1  2  1  0  0  0  0
 25 26  2  0  0  0  0
 25 27  1  0  0  0  0
 23 24  1  0  0  0  0
 21 22  1  0  0  0  0
 21 23  2  0  0  0  0
 19 20  1  0  0  0  0
 19 21  1  0  0  0  0
 17 18  1  0  0  0  0
 17 19  2  0  0  0  0
 15 16  1  0  0  0  0
 15 17  1  0  0  0  0
 14 15  2  0  0  0  0
 14 23  1  0  0  0  0
 11 12  1  0  0  0  0
 11 13  1  0  0  0  0
 11 14  1  0  0  0  0
  9 10  1  0  0  0  0
  9 11  1  0  0  0  0
  9 25  1  0  0  0  0
  7  8  1  0  0  0  0
  7  9  1  0  0  0  0
 29 30  1  0  0  0  0
 29 31  1  0  0  0  0
 29 32  1  0  0  0  0
 27 28  1  0  0  0  0
 27 29  1  0  0  0  0
M  END
$$$$
default_name
  -OEChem-02102213163D

 32 32  0     1  0  0  0  0  0999 V2000
   -3.8405   -3.7518    1.6252 H   0  0  0  0  0  0  0  0  0  0  0  0
   -3.7965   -2.8768    0.9782 C   0  0  0  0  0  0  0  0  0  0  0  0
   -4.5465   -2.1527    1.2902 H   0  0  0  0  0  0  0  0  0  0  0  0
   -3.9745   -3.1748   -0.0538 H   0  0  0  0  0  0  0  0  0  0  0  0
   -2.4245   -2.2537    1.0882 C   0  0  0  0  0  0  0  0  0  0  0  0
   -1.5805   -2.7478    1.8242 O   0  0  0  0  0  0  0  0  0  0  0  0
   -2.2045   -1.1637    0.3562 N   0  0  0  0  0  0  0  0  0  0  0  0
   -2.9595   -0.7907   -0.2008 H   0  0  0  0  0  0  0  0  0  0  0  0
   -0.9485   -0.4087    0.3482 C   0  0  1  0  0  0  0  0  0  0  0  0
   -0.1408   -1.0795    0.0507 H   0  0  0  0  0  0  0  0  0  0  0  0
   -1.0432    0.7243   -0.6879 C   0  0  0  0  0  0  0  0  0  0  0  0
   -2.0026    1.2309   -0.5736 H   0  0  0  0  0  0  0  0  0  0  0  0
   -0.2601    1.4562   -0.4844 H   0  0  0  0  0  0  0  0  0  0  0  0
   -0.9280    0.2546   -2.1256 C   0  0  0  0  0  0  0  0  0  0  0  0
   -1.9778    0.4803   -3.0360 C   0  0  0  0  0  0  0  0  0  0  0  0
   -2.8838    0.9707   -2.7090 H   0  0  0  0  0  0  0  0  0  0  0  0
   -1.8468    0.0785   -4.3782 C   0  0  0  0  0  0  0  0  0  0  0  0
   -2.6552    0.2504   -5.0749 H   0  0  0  0  0  0  0  0  0  0  0  0
   -0.6662   -0.5474   -4.8127 C   0  0  0  0  0  0  0  0  0  0  0  0
   -0.5665   -0.8582   -5.8433 H   0  0  0  0  0  0  0  0  0  0  0  0
    0.3842   -0.7758   -3.9052 C   0  0  0  0  0  0  0  0  0  0  0  0
    1.2897   -1.2618   -4.2378 H   0  0  0  0  0  0  0  0  0  0  0  0
    0.2517   -0.3771   -2.5632 C   0  0  0  0  0  0  0  0  0  0  0  0
    1.0593   -0.5564   -1.8653 H   0  0  0  0  0  0  0  0  0  0  0  0
   -0.6196    0.1253    1.7539 C   0  0  0  0  0  0  0  0  0  0  0  0
    0.5216    0.0194    2.2054 O   0  0  0  0  0  0  0  0  0  0  0  0
   -1.6152    0.6924    2.4469 N   0  0  0  0  0  0  0  0  0  0  0  0
   -2.5345    0.6914    2.0318 H   0  0  0  0  0  0  0  0  0  0  0  0
   -1.4720    1.2390    3.7941 C   0  0  0  0  0  0  0  0  0  0  0  0
   -0.6345    1.9391    3.8219 H   0  0  0  0  0  0  0  0  0  0  0  0
   -2.3844    1.7580    4.0892 H   0  0  0  0  0  0  0  0  0  0  0  0
   -1.2733    0.4298    4.4995 H   0  0  0  0  0  0  0  0  0  0  0  0
  5  6  2  0  0  0  0
  5  7  1  0  0  0  0
  2  3  1  0  0  0  0
  2  4  1  0  0  0  0
  2  5  1  0  0  0  0
  1  2  1  0  0  0  0
 25 26  2  0  0  0  0
 25 27  1  0  0  0  0
 23 24  1  0  0  0  0
 21 22  1  0  0  0  0
 21 23  2  0  0  0  0
 19 20  1  0  0  0  0
 19 21  1  0  0  0  0
 17 18  1  0  0  0  0
 17 19  2  0  0  0  0
 15 16  1  0  0  0  0
 15 17  1  0  0  0  0
 14 15  2  0  0  0  0
 14 23  1  0  0  0  0
 11 12  1  0  0  0  0
 11 13  1  0  0  0  0
 11 14  1  0  0  0  0
  9 10  1  0  0  0  0
  9 11  1  0  0  0  0
  9 25  1  0  0  0  0
  7  8  1  0  0  0  0
  7  9  1  0  0  0  0
 29 30  1  0  0  0  0
 29 31  1  0  0  0  0
 29 32  1  0  0  0  0
 27 28  1  0  0  0  0
 27 29  1  0  0  0  0
M  END
$$$$
default_name
  -OEChem-02102213163D

 32 32  0     1  0  0  0  0  0999 V2000
   -3.8405   -3.7518    1.6252 H   0  0  0  0  0  0  0  0  0  0  0  0
   -3.7965   -2.8768    0.9782 C   0  0  0  0  0  0  0  0  0  0  0  0
   -4.5465   -2.1527    1.2902 H   0  0  0  0  0  0  0  0  0  0  0  0
   -3.9745   -3.1748   -0.0538 H   0  0  0  0  0  0  0  0  0  0  0  0
   -2.4245   -2.2537    1.0882 C   0  0  0  0  0  0  0  0  0  0  0  0
   -1.5805   -2.7478    1.8242 O   0  0  0  0  0  0  0  0  0  0  0  0
   -2.2045   -1.1637    0.3562 N   0  0  0  0  0  0  0  0  0  0  0  0
   -2.9595   -0.7907   -0.2008 H   0  0  0  0  0  0  0  0  0  0  0  0
   -0.9485   -0.4087    0.3482 C   0  0  1  0  0  0  0  0  0  0  0  0
   -0.1408   -1.0795    0.0507 H   0  0  0  0  0  0  0  0  0  0  0  0
   -1.0432    0.7243   -0.6879 C   0  0  0  0  0  0  0  0  0  0  0  0
   -2.0026    1.2309   -0.5736 H   0  0  0  0  0  0  0  0  0  0  0  0
   -0.2601    1.4562   -0.4844 H   0  0  0  0  0  0  0  0  0  0  0  0
   -0.9280    0.2546   -2.1256 C   0  0  0  0  0  0  0  0  0  0  0  0
   -1.8119    0.7405   -3.1077 C   0  0  0  0  0  0  0  0  0  0  0  0
   -2.5943    1.4356   -2.8377 H   0  0  0  0  0  0  0  0  0  0  0  0
   -1.6727    0.3318   -4.4470 C   0  0  0  0  0  0  0  0  0  0  0  0
   -2.3541    0.7041   -5.1990 H   0  0  0  0  0  0  0  0  0  0  0  0
   -0.6492   -0.5612   -4.8068 C   0  0  0  0  0  0  0  0  0  0  0  0
   -0.5438   -0.8770   -5.8353 H   0  0  0  0  0  0  0  0  0  0  0  0
    0.2348   -1.0498   -3.8276 C   0  0  0  0  0  0  0  0  0  0  0  0
    1.0183   -1.7405   -4.1032 H   0  0  0  0  0  0  0  0  0  0  0  0
    0.0935   -0.6438   -2.4888 C   0  0  0  0  0  0  0  0  0  0  0  0
    0.7721   -1.0230   -1.7359 H   0  0  0  0  0  0  0  0  0  0  0  0
   -0.6196    0.1253    1.7539 C   0  0  0  0  0  0  0  0  0  0  0  0
    0.5216    0.0194    2.2054 O   0  0  0  0  0  0  0  0  0  0  0  0
   -1.6152    0.6924    2.4469 N   0  0  0  0  0  0  0  0  0  0  0  0
   -2.5345    0.6914    2.0318 H   0  0  0  0  0  0  0  0  0  0  0  0
   -1.4720    1.2390    3.7941 C   0  0  0  0  0  0  0  0  0  0  0  0
   -0.6345    1.9391    3.8219 H   0  0  0  0  0  0  0  0  0  0  0  0
   -2.3844    1.7580    4.0892 H   0  0  0  0  0  0  0  0  0  0  0  0
   -1.2733    0.4298    4.4995 H   0  0  0  0  0  0  0  0  0  0  0  0
  5  6  2  0  0  0  0
  5  7  1  0  0  0  0
  2  3  1  0  0  0  0
  2  4  1  0  0  0  0
  2  5  1  0  0  0  0
  1  2  1  0  0  0  0
 25 26  2  0  0  0  0
 25 27  1  0  0  0  0
 23 24  1  0  0  0  0
 21 22  1  0  0  0  0
 21 23  2  0  0  0  0
 19 20  1  0  0  0  0
 19 21  1  0  0  0  0
 17 18  1  0  0  0  0
 17 19  2  0  0  0  0
 15 16  1  0  0  0  0
 15 17  1  0  0  0  0
 14 15  2  0  0  0  0
 14 23  1  0  0  0  0
 11 12  1  0  0  0  0
 11 13  1  0  0  0  0
 11 14  1  0  0  0  0
  9 10  1  0  0  0  0
  9 11  1  0  0  0  0
  9 25  1  0  0  0  0
  7  8  1  0  0  0  0
  7  9  1  0  0  0  0
 29 30  1  0  0  0  0
 29 31  1  0  0  0  0
 29 32  1  0  0  0  0
 27 28  1  0  0  0  0
 27 29  1  0  0  0  0
M  END
$$$$
default_name
  -OEChem-02102213163D

 32 32  0     1  0  0  0  0  0999 V2000
   -3.8405   -3.7518    1.6252 H   0  0  0  0  0  0  0  0  0  0  0  0
   -3.7965   -2.8768    0.9782 C   0  0  0  0  0  0  0  0  0  0  0  0
   -4.5465   -2.1527    1.2902 H   0  0  0  0  0  0  0  0  0  0  0  0
   -3.9745   -3.1748   -0.0538 H   0  0  0  0  0  0  0  0  0  0  0  0
   -2.4245   -2.2537    1.0882 C   0  0  0  0  0  0  0  0  0  0  0  0
   -1.5805   -2.7478    1.8242 O   0  0  0  0  0  0  0  0  0  0  0  0
   -2.2045   -1.1637    0.3562 N   0  0  0  0  0  0  0  0  0  0  0  0
   -2.9595   -0.7907   -0.2008 H   0  0  0  0  0  0  0  0  0  0  0  0
   -0.9485   -0.4087    0.3482 C   0  0  1  0  0  0  0  0  0  0  0  0
   -0.1408   -1.0795    0.0507 H   0  0  0  0  0  0  0  0  0  0  0  0
   -1.0432    0.7243   -0.6879 C   0  0  0  0  0  0  0  0  0  0  0  0
   -2.0026    1.2309   -0.5736 H   0  0  0  0  0  0  0  0  0  0  0  0
   -0.2601    1.4562   -0.4844 H   0  0  0  0  0  0  0  0  0  0  0  0
   -0.9280    0.2546   -2.1256 C   0  0  0  0  0  0  0  0  0  0  0  0
   -1.5820    0.9526   -3.1586 C   0  0  0  0  0  0  0  0  0  0  0  0
   -2.1903    1.8162   -2.9296 H   0  0  0  0  0  0  0  0  0  0  0  0
   -1.4369    0.5352   -4.4945 C   0  0  0  0  0  0  0  0  0  0  0  0
   -1.9421    1.0710   -5.2858 H   0  0  0  0  0  0  0  0  0  0  0  0
   -0.6367   -0.5788   -4.8001 C   0  0  0  0  0  0  0  0  0  0  0  0
   -0.5271   -0.9008   -5.8262 H   0  0  0  0  0  0  0  0  0  0  0  0
    0.0171   -1.2794   -3.7701 C   0  0  0  0  0  0  0  0  0  0  0  0
    0.6278   -2.1389   -4.0043 H   0  0  0  0  0  0  0  0  0  0  0  0
   -0.1308   -0.8640   -2.4348 C   0  0  0  0  0  0  0  0  0  0  0  0
    0.3700   -1.4058   -1.6430 H   0  0  0  0  0  0  0  0  0  0  0  0
   -0.6196    0.1253    1.7539 C   0  0  0  0  0  0  0  0  0  0  0  0
    0.5216    0.0194    2.2054 O   0  0  0  0  0  0  0  0  0  0  0  0
   -1.6152    0.6924    2.4469 N   0  0  0  0  0  0  0  0  0  0  0  0
   -2.5345    0.6914    2.0318 H   0  0  0  0  0  0  0  0  0  0  0  0
   -1.4720    1.2390    3.7941 C   0  0  0  0  0  0  0  0  0  0  0  0
   -0.6345    1.9391    3.8219 H   0  0  0  0  0  0  0  0  0  0  0  0
   -2.3844    1.7580    4.0892 H   0  0  0  0  0  0  0  0  0  0  0  0
   -1.2733    0.4298    4.4995 H   0  0  0  0  0  0  0  0  0  0  0  0
  5  6  2  0  0  0  0
  5  7  1  0  0  0  0
  2  3  1  0  0  0  0
  2  4  1  0  0  0  0
  2  5  1  0  0  0  0
  1  2  1  0  0  0  0
 25 26  2  0  0  0  0
 25 27  1  0  0  0  0
 23 24  1  0  0  0  0
 21 22  1  0  0  0  0
 21 23  2  0  0  0  0
 19 20  1  0  0  0  0
 19 21  1  0  0  0  0
 17 18  1  0  0  0  0
 17 19  2  0  0  0  0
 15 16  1  0  0  0  0
 15 17  1  0  0  0  0
 14 15  2  0  0  0  0
 14 23  1  0  0  0  0
 11 12  1  0  0  0  0
 11 13  1  0  0  0  0
 11 14  1  0  0  0  0
  9 10  1  0  0  0  0
  9 11  1  0  0  0  0
  9 25  1  0  0  0  0
  7  8  1  0  0  0  0
  7  9  1  0  0  0  0
 29 30  1  0  0  0  0
 29 31  1  0  0  0  0
 29 32  1  0  0  0  0
 27 28  1  0  0  0  0
 27 29  1  0  0  0  0
M  END
$$$$
default_name
  -OEChem-02102213163D

 32 32  0     1  0  0  0  0  0999 V2000
   -3.8405   -3.7518    1.6252 H   0  0  0  0  0  0  0  0  0  0  0  0
   -3.7965   -2.8768    0.9782 C   0  0  0  0  0  0  0  0  0  0  0  0
   -4.5465   -2.1527    1.2902 H   0  0  0  0  0  0  0  0  0  0  0  0
   -3.9745   -3.1748   -0.0538 H   0  0  0  0  0  0  0  0  0  0  0  0
   -2.4245   -2.2537    1.0882 C   0  0  0  0  0  0  0  0  0  0  0  0
   -1.5805   -2.7478    1.8242 O   0  0  0  0  0  0  0  0  0  0  0  0
   -2.2045   -1.1637    0.3562 N   0  0  0  0  0  0  0  0  0  0  0  0
   -2.9595   -0.7907   -0.2008 H   0  0  0  0  0  0  0  0  0  0  0  0
   -0.9485   -0.4087    0.3482 C   0  0  1  0  0  0  0  0  0  0  0  0
   -0.1408   -1.0795    0.0507 H   0  0  0  0  0  0  0  0  0  0  0  0
   -1.0432    0.7243   -0.6879 C   0  0  0  0  0  0  0  0  0  0  0  0
   -2.0026    1.2309   -0.5736 H   0  0  0  0  0  0  0  0  0  0  0  0
   -0.2601    1.4562   -0.4844 H   0  0  0  0  0  0  0  0  0  0  0  0
   -0.9280    0.2546   -2.1256 C   0  0  0  0  0  0  0  0  0  0  0  0
   -1.3039    1.1020   -3.1851 C   0  0  0  0  0  0  0  0  0  0  0  0
   -1.6993    2.0865   -2.9786 H   0  0  0  0  0  0  0  0  0  0  0  0
   -1.1554    0.6747   -4.5175 C   0  0  0  0  0  0  0  0  0  0  0  0
   -1.4471    1.3259   -5.3295 H   0  0  0  0  0  0  0  0  0  0  0  0
   -0.6294   -0.5990   -4.7929 C   0  0  0  0  0  0  0  0  0  0  0  0
   -0.5176   -0.9282   -5.8165 H   0  0  0  0  0  0  0  0  0  0  0  0
   -0.2542   -1.4488   -3.7365 C   0  0  0  0  0  0  0  0  0  0  0  0
    0.1450   -2.4299   -3.9479 H   0  0  0  0  0  0  0  0  0  0  0  0
   -0.4058   -1.0227   -2.4050 C   0  0  0  0  0  0  0  0  0  0  0  0
   -0.1199   -1.6788   -1.5931 H   0  0  0  0  0  0  0  0  0  0  0  0
   -0.6196    0.1253    1.7539 C   0  0  0  0  0  0  0  0  0  0  0  0
    0.5216    0.0194    2.2054 O   0  0  0  0  0  0  0  0  0  0  0  0
   -1.6152    0.6924    2.4469 N   0  0  0  0  0  0  0  0  0  0  0  0
   -2.5345    0.6914    2.0318 H   0  0  0  0  0  0  0  0  0  0  0  0
   -1.4720    1.2390    3.7941 C   0  0  0  0  0  0  0  0  0  0  0  0
   -0.6345    1.9391    3.8219 H   0  0  0  0  0  0  0  0  0  0  0  0
   -2.3844    1.7580    4.0892 H   0  0  0  0  0  0  0  0  0  0  0  0
   -1.2733    0.4298    4.4995 H   0  0  0  0  0  0  0  0  0  0  0  0
  5  6  2  0  0  0  0
  5  7  1  0  0  0  0
  2  3  1  0  0  0  0
  2  4  1  0  0  0  0
  2  5  1  0  0  0  0
  1  2  1  0  0  0  0
 25 26  2  0  0  0  0
 25 27  1  0  0  0  0
 23 24  1  0  0  0  0
 21 22  1  0  0  0  0
 21 23  2  0  0  0  0
 19 20  1  0  0  0  0
 19 21  1  0  0  0  0
 17 18  1  0  0  0  0
 17 19  2  0  0  0  0
 15 16  1  0  0  0  0
 15 17  1  0  0  0  0
 14 15  2  0  0  0  0
 14 23  1  0  0  0  0
 11 12  1  0  0  0  0
 11 13  1  0  0  0  0
 11 14  1  0  0  0  0
  9 10  1  0  0  0  0
  9 11  1  0  0  0  0
  9 25  1  0  0  0  0
  7  8  1  0  0  0  0
  7  9  1  0  0  0  0
 29 30  1  0  0  0  0
 29 31  1  0  0  0  0
 29 32  1  0  0  0  0
 27 28  1  0  0  0  0
 27 29  1  0  0  0  0
M  END
$$$$
default_name
  -OEChem-02102213163D

 32 32  0     1  0  0  0  0  0999 V2000
   -3.8405   -3.7518    1.6252 H   0  0  0  0  0  0  0  0  0  0  0  0
   -3.7965   -2.8768    0.9782 C   0  0  0  0  0  0  0  0  0  0  0  0
   -4.5465   -2.1527    1.2902 H   0  0  0  0  0  0  0  0  0  0  0  0
   -3.9745   -3.1748   -0.0538 H   0  0  0  0  0  0  0  0  0  0  0  0
   -2.4245   -2.2537    1.0882 C   0  0  0  0  0  0  0  0  0  0  0  0
   -1.5805   -2.7478    1.8242 O   0  0  0  0  0  0  0  0  0  0  0  0
   -2.2045   -1.1637    0.3562 N   0  0  0  0  0  0  0  0  0  0  0  0
   -2.9595   -0.7907   -0.2008 H   0  0  0  0  0  0  0  0  0  0  0  0
   -0.9485   -0.4087    0.3482 C   0  0  1  0  0  0  0  0  0  0  0  0
   -0.1408   -1.0795    0.0507 H   0  0  0  0  0  0  0  0  0  0  0  0
   -1.0432    0.7243   -0.6879 C   0  0  0  0  0  0  0  0  0  0  0  0
   -1.8605    1.3916   -0.4109 H   0  0  0  0  0  0  0  0  0  0  0  0
   -0.1211    1.3068   -0.6604 H   0  0  0  0  0  0  0  0  0  0  0  0
   -1.2892    0.2431   -2.1053 C   0  0  0  0  0  0  0  0  0  0  0  0
   -1.3992    1.1658   -3.1628 C   0  0  0  0  0  0  0  0  0  0  0  0
   -1.3316    2.2266   -2.9668 H   0  0  0  0  0  0  0  0  0  0  0  0
   -1.5861    0.7098   -4.4808 C   0  0  0  0  0  0  0  0  0  0  0  0
   -1.6729    1.4201   -5.2910 H   0  0  0  0  0  0  0  0  0  0  0  0
   -1.6614   -0.6685   -4.7439 C   0  0  0  0  0  0  0  0  0  0  0  0
   -1.8073   -1.0186   -5.7562 H   0  0  0  0  0  0  0  0  0  0  0  0
   -1.5533   -1.5931   -3.6892 C   0  0  0  0  0  0  0  0  0  0  0  0
   -1.6166   -2.6525   -3.8906 H   0  0  0  0  0  0  0  0  0  0  0  0
   -1.3698   -1.1371   -2.3718 C   0  0  0  0  0  0  0  0  0  0  0  0
   -1.2902   -1.8493   -1.5609 H   0  0  0  0  0  0  0  0  0  0  0  0
   -0.6196    0.1253    1.7539 C   0  0  0  0  0  0  0  0  0  0  0  0
    0.5216    0.0194    2.2054 O   0  0  0  0  0  0  0  0  0  0  0  0
   -1.6152    0.6924    2.4469 N   0  0  0  0  0  0  0  0  0  0  0  0
   -2.5345    0.6914    2.0318 H   0  0  0  0  0  0  0  0  0  0  0  0
   -1.4720    1.2390    3.7941 C   0  0  0  0  0  0  0  0  0  0  0  0
   -0.6345    1.9391    3.8219 H   0  0  0  0  0  0  0  0  0  0  0  0
   -2.3844    1.7580    4.0892 H   0  0  0  0  0  0  0  0  0  0  0  0
   -1.2733    0.4298    4.4995 H   0  0  0  0  0  0  0  0  0  0  0  0
  5  6  2  0  0  0  0
  5  7  1  0  0  0  0
  2  3  1  0  0  0  0
  2  4  1  0  0  0  0
  2  5  1  0  0  0  0
  1  2  1  0  0  0  0
 25 26  2  0  0  0  0
 25 27  1  0  0  0  0
 23 24  1  0  0  0  0
 21 22  1  0  0  0  0
 21 23  2  0  0  0  0
 19 20  1  0  0  0  0
 19 21  1  0  0  0  0
 17 18  1  0  0  0  0
 17 19  2  0  0  0  0
 15 16  1  0  0  0  0
 15 17  1  0  0  0  0
 14 15  2  0  0  0  0
 14 23  1  0  0  0  0
 11 12  1  0  0  0  0
 11 13  1  0  0  0  0
 11 14  1  0  0  0  0
  9 10  1  0  0  0  0
  9 11  1  0  0  0  0
  9 25  1  0  0  0  0
  7  8  1  0  0  0  0
  7  9  1  0  0  0  0
 29 30  1  0  0  0  0
 29 31  1  0  0  0  0
 29 32  1  0  0  0  0
 27 28  1  0  0  0  0
 27 29  1  0  0  0  0
M  END
$$$$
default_name
  -OEChem-02102213163D

 32 32  0     1  0  0  0  0  0999 V2000
   -3.8405   -3.7518    1.6252 H   0  0  0  0  0  0  0  0  0  0  0  0
   -3.7965   -2.8768    0.9782 C   0  0  0  0  0  0  0  0  0  0  0  0
   -4.5465   -2.1527    1.2902 H   0  0  0  0  0  0  0  0  0  0  0  0
   -3.9745   -3.1748   -0.0538 H   0  0  0  0  0  0  0  0  0  0  0  0
   -2.4245   -2.2537    1.0882 C   0  0  0  0  0  0  0  0  0  0  0  0
   -1.5805   -2.7478    1.8242 O   0  0  0  0  0  0  0  0  0  0  0  0
   -2.2045   -1.1637    0.3562 N   0  0  0  0  0  0  0  0  0  0  0  0
   -2.9595   -0.7907   -0.2008 H   0  0  0  0  0  0  0  0  0  0  0  0
   -0.9485   -0.4087    0.3482 C   0  0  1  0  0  0  0  0  0  0  0  0
   -0.1408   -1.0795    0.0507 H   0  0  0  0  0  0  0  0  0  0  0  0
   -1.0432    0.7243   -0.6879 C   0  0  0  0  0  0  0  0  0  0  0  0
   -1.8605    1.3916   -0.4109 H   0  0  0  0  0  0  0  0  0  0  0  0
   -0.1211    1.3068   -0.6604 H   0  0  0  0  0  0  0  0  0  0  0  0
   -1.2892    0.2431   -2.1053 C   0  0  0  0  0  0  0  0  0  0  0  0
   -1.0894    1.1089   -3.1972 C   0  0  0  0  0  0  0  0  0  0  0  0
   -0.7807    2.1311   -3.0300 H   0  0  0  0  0  0  0  0  0  0  0  0
   -1.2798    0.6431   -4.5113 C   0  0  0  0  0  0  0  0  0  0  0  0
   -1.1284    1.3103   -5.3482 H   0  0  0  0  0  0  0  0  0  0  0  0
   -1.6680   -0.6886   -4.7359 C   0  0  0  0  0  0  0  0  0  0  0  0
   -1.8166   -1.0457   -5.7454 H   0  0  0  0  0  0  0  0  0  0  0  0
   -1.8699   -1.5559   -3.6469 C   0  0  0  0  0  0  0  0  0  0  0  0
   -2.1737   -2.5781   -3.8192 H   0  0  0  0  0  0  0  0  0  0  0  0
   -1.6828   -1.0893   -2.3337 C   0  0  0  0  0  0  0  0  0  0  0  0
   -1.8417   -1.7566   -1.4966 H   0  0  0  0  0  0  0  0  0  0  0  0
   -0.6196    0.1253    1.7539 C   0  0  0  0  0  0  0  0  0  0  0  0
    0.5216    0.0194    2.2054 O   0  0  0  0  0  0  0  0  0  0  0  0
   -1.6152    0.6924    2.4469 N   0  0  0  0  0  0  0  0  0  0  0  0
   -2.5345    0.6914    2.0318 H   0  0  0  0  0  0  0  0  0  0  0  0
   -1.4720    1.2390    3.7941 C   0  0  0  0  0  0  0  0  0  0  0  0
   -0.6345    1.9391    3.8219 H   0  0  0  0  0  0  0  0  0  0  0  0
   -2.3844    1.7580    4.0892 H   0  0  0  0  0  0  0  0  0  0  0  0
   -1.2733    0.4298    4.4995 H   0  0  0  0  0  0  0  0  0  0  0  0
  5  6  2  0  0  0  0
  5  7  1  0  0  0  0
  2  3  1  0  0  0  0
  2  4  1  0  0  0  0
  2  5  1  0  0  0  0
  1  2  1  0  0  0  0
 25 26  2  0  0  0  0
 25 27  1  0  0  0  0
 23 24  1  0  0  0  0
 21 22  1  0  0  0  0
 21 23  2  0  0  0  0
 19 20  1  0  0  0  0
 19 21  1  0  0  0  0
 17 18  1  0  0  0  0
 17 19  2  0  0  0  0
 15 16  1  0  0  0  0
 15 17  1  0  0  0  0
 14 15  2  0  0  0  0
 14 23  1  0  0  0  0
 11 12  1  0  0  0  0
 11 13  1  0  0  0  0
 11 14  1  0  0  0  0
  9 10  1  0  0  0  0
  9 11  1  0  0  0  0
  9 25  1  0  0  0  0
  7  8  1  0  0  0  0
  7  9  1  0  0  0  0
 29 30  1  0  0  0  0
 29 31  1  0  0  0  0
 29 32  1  0  0  0  0
 27 28  1  0  0  0  0
 27 29  1  0  0  0  0
M  END
$$$$
default_name
  -OEChem-02102213163D

 32 32  0     1  0  0  0  0  0999 V2000
   -3.8405   -3.7518    1.6252 H   0  0  0  0  0  0  0  0  0  0  0  0
   -3.7965   -2.8768    0.9782 C   0  0  0  0  0  0  0  0  0  0  0  0
   -4.5465   -2.1527    1.2902 H   0  0  0  0  0  0  0  0  0  0  0  0
   -3.9745   -3.1748   -0.0538 H   0  0  0  0  0  0  0  0  0  0  0  0
   -2.4245   -2.2537    1.0882 C   0  0  0  0  0  0  0  0  0  0  0  0
   -1.5805   -2.7478    1.8242 O   0  0  0  0  0  0  0  0  0  0  0  0
   -2.2045   -1.1637    0.3562 N   0  0  0  0  0  0  0  0  0  0  0  0
   -2.9595   -0.7907   -0.2008 H   0  0  0  0  0  0  0  0  0  0  0  0
   -0.9485   -0.4087    0.3482 C   0  0  1  0  0  0  0  0  0  0  0  0
   -0.1408   -1.0795    0.0507 H   0  0  0  0  0  0  0  0  0  0  0  0
   -1.0432    0.7243   -0.6879 C   0  0  0  0  0  0  0  0  0  0  0  0
   -1.8605    1.3916   -0.4109 H   0  0  0  0  0  0  0  0  0  0  0  0
   -0.1211    1.3068   -0.6604 H   0  0  0  0  0  0  0  0  0  0  0  0
   -1.2892    0.2431   -2.1053 C   0  0  0  0  0  0  0  0  0  0  0  0
   -0.8011    0.9775   -3.2027 C   0  0  0  0  0  0  0  0  0  0  0  0
   -0.2665    1.9031   -3.0418 H   0  0  0  0  0  0  0  0  0  0  0  0
   -0.9975    0.5033   -4.5128 C   0  0  0  0  0  0  0  0  0  0  0  0
   -0.6242    1.0702   -5.3542 H   0  0  0  0  0  0  0  0  0  0  0  0
   -1.6800   -0.7060   -4.7279 C   0  0  0  0  0  0  0  0  0  0  0  0
   -1.8329   -1.0691   -5.7346 H   0  0  0  0  0  0  0  0  0  0  0  0
   -2.1702   -1.4416   -3.6336 C   0  0  0  0  0  0  0  0  0  0  0  0
   -2.6996   -2.3685   -3.7991 H   0  0  0  0  0  0  0  0  0  0  0  0
   -1.9767   -0.9658   -2.3246 C   0  0  0  0  0  0  0  0  0  0  0  0
   -2.3573   -1.5310   -1.4837 H   0  0  0  0  0  0  0  0  0  0  0  0
   -0.6196    0.1253    1.7539 C   0  0  0  0  0  0  0  0  0  0  0  0
    0.5216    0.0194    2.2054 O   0  0  0  0  0  0  0  0  0  0  0  0
   -1.6152    0.6924    2.4469 N   0  0  0  0  0  0  0  0  0  0  0  0
   -2.5345    0.6914    2.0318 H   0  0  0  0  0  0  0  0  0  0  0  0
   -1.4720    1.2390    3.7941 C   0  0  0  0  0  0  0  0  0  0  0  0
   -0.6345    1.9391    3.8219 H   0  0  0  0  0  0  0  0  0  0  0  0
   -2.3844    1.7580    4.0892 H   0  0  0  0  0  0  0  0  0  0  0  0
   -1.2733    0.4298    4.4995 H   0  0  0  0  0  0  0  0  0  0  0  0
  5  6  2  0  0  0  0
  5  7  1  0  0  0  0
  2  3  1  0  0  0  0
  2  4  1  0  0  0  0
  2  5  1  0  0  0  0
  1  2  1  0  0  0  0
 25 26  2  0  0  0  0
 25 27  1  0  0  0  0
 23 24  1  0  0  0  0
 21 22  1  0  0  0  0
 21 23  2  0  0  0  0
 19 20  1  0  0  0  0
 19 21  1  0  0  0  0
 17 18  1  0  0  0  0
 17 19  2  0  0  0  0
 15 16  1  0  0  0  0
 15 17  1  0  0  0  0
 14 15  2  0  0  0  0
 14 23  1  0  0  0  0
 11 12  1  0  0  0  0
 11 13  1  0  0  0  0
 11 14  1  0  0  0  0
  9 10  1  0  0  0  0
  9 11  1  0  0  0  0
  9 25  1  0  0  0  0
  7  8  1  0  0  0  0
  7  9  1  0  0  0  0
 29 30  1  0  0  0  0
 29 31  1  0  0  0  0
 29 32  1  0  0  0  0
 27 28  1  0  0  0  0
 27 29  1  0  0  0  0
M  END
$$$$
default_name
  -OEChem-02102213163D

 32 32  0     1  0  0  0  0  0999 V2000
   -3.8405   -3.7518    1.6252 H   0  0  0  0  0  0  0  0  0  0  0  0
   -3.7965   -2.8768    0.9782 C   0  0  0  0  0  0  0  0  0  0  0  0
   -4.5465   -2.1527    1.2902 H   0  0  0  0  0  0  0  0  0  0  0  0
   -3.9745   -3.1748   -0.0538 H   0  0  0  0  0  0  0  0  0  0  0  0
   -2.4245   -2.2537    1.0882 C   0  0  0  0  0  0  0  0  0  0  0  0
   -1.5805   -2.7478    1.8242 O   0  0  0  0  0  0  0  0  0  0  0  0
   -2.2045   -1.1637    0.3562 N   0  0  0  0  0  0  0  0  0  0  0  0
   -2.9595   -0.7907   -0.2008 H   0  0  0  0  0  0  0  0  0  0  0  0
   -0.9485   -0.4087    0.3482 C   0  0  1  0  0  0  0  0  0  0  0  0
   -0.1408   -1.0795    0.0507 H   0  0  0  0  0  0  0  0  0  0  0  0
   -1.0432    0.7243   -0.6879 C   0  0  0  0  0  0  0  0  0  0  0  0
   -1.8605    1.3916   -0.4109 H   0  0  0  0  0  0  0  0  0  0  0  0
   -0.1211    1.3068   -0.6604 H   0  0  0  0  0  0  0  0  0  0  0  0
   -1.2892    0.2431   -2.1053 C   0  0  0  0  0  0  0  0  0  0  0  0
   -0.5540    0.7807   -3.1787 C   0  0  0  0  0  0  0  0  0  0  0  0
    0.1760    1.5579   -3.0014 H   0  0  0  0  0  0  0  0  0  0  0  0
   -0.7585    0.3000   -4.4852 C   0  0  0  0  0  0  0  0  0  0  0  0
   -0.1948    0.7160   -5.3084 H   0  0  0  0  0  0  0  0  0  0  0  0
   -1.6964   -0.7197   -4.7205 C   0  0  0  0  0  0  0  0  0  0  0  0
   -1.8552   -1.0873   -5.7246 H   0  0  0  0  0  0  0  0  0  0  0  0
   -2.4338   -1.2580   -3.6502 C   0  0  0  0  0  0  0  0  0  0  0  0
   -3.1586   -2.0380   -3.8316 H   0  0  0  0  0  0  0  0  0  0  0  0
   -2.2315   -0.7751   -2.3451 C   0  0  0  0  0  0  0  0  0  0  0  0
   -2.8018   -1.1878   -1.5231 H   0  0  0  0  0  0  0  0  0  0  0  0
   -0.6196    0.1253    1.7539 C   0  0  0  0  0  0  0  0  0  0  0  0
    0.5216    0.0194    2.2054 O   0  0  0  0  0  0  0  0  0  0  0  0
   -1.6152    0.6924    2.4469 N   0  0  0  0  0  0  0  0  0  0  0  0
   -2.5345    0.6914    2.0318 H   0  0  0  0  0  0  0  0  0  0  0  0
   -1.4720    1.2390    3.7941 C   0  0  0  0  0  0  0  0  0  0  0  0
   -0.6345    1.9391    3.8219 H   0  0  0  0  0  0  0  0  0  0  0  0
   -2.3844    1.7580    4.0892 H   0  0  0  0  0  0  0  0  0  0  0  0
   -1.2733    0.4298    4.4995 H   0  0  0  0  0  0  0  0  0  0  0  0
  5  6  2  0  0  0  0
  5  7  1  0  0  0  0
  2  3  1  0  0  0  0
  2  4  1  0  0  0  0
  2  5  1  0  0  0  0
  1  2  1  0  0  0  0
 25 26  2  0  0  0  0
 25 27  1  0  0  0  0
 23 24  1  0  0  0  0
 21 22  1  0  0  0  0
 21 23  2  0  0  0  0
 19 20  1  0  0  0  0
 19 21  1  0  0  0  0
 17 18  1  0  0  0  0
 17 19  2  0  0  0  0
 15 16  1  0  0  0  0
 15 17  1  0  0  0  0
 14 15  2  0  0  0  0
 14 23  1  0  0  0  0
 11 12  1  0  0  0  0
 11 13  1  0  0  0  0
 11 14  1  0  0  0  0
  9 10  1  0  0  0  0
  9 11  1  0  0  0  0
  9 25  1  0  0  0  0
  7  8  1  0  0  0  0
  7  9  1  0  0  0  0
 29 30  1  0  0  0  0
 29 31  1  0  0  0  0
 29 32  1  0  0  0  0
 27 28  1  0  0  0  0
 27 29  1  0  0  0  0
M  END
$$$$
default_name
  -OEChem-02102213163D

 32 32  0     1  0  0  0  0  0999 V2000
   -3.8405   -3.7518    1.6252 H   0  0  0  0  0  0  0  0  0  0  0  0
   -3.7965   -2.8768    0.9782 C   0  0  0  0  0  0  0  0  0  0  0  0
   -4.5465   -2.1527    1.2902 H   0  0  0  0  0  0  0  0  0  0  0  0
   -3.9745   -3.1748   -0.0538 H   0  0  0  0  0  0  0  0  0  0  0  0
   -2.4245   -2.2537    1.0882 C   0  0  0  0  0  0  0  0  0  0  0  0
   -1.5805   -2.7478    1.8242 O   0  0  0  0  0  0  0  0  0  0  0  0
   -2.2045   -1.1637    0.3562 N   0  0  0  0  0  0  0  0  0  0  0  0
   -2.9595   -0.7907   -0.2008 H   0  0  0  0  0  0  0  0  0  0  0  0
   -0.9485   -0.4087    0.3482 C   0  0  1  0  0  0  0  0  0  0  0  0
   -0.1408   -1.0795    0.0507 H   0  0  0  0  0  0  0  0  0  0  0  0
   -1.0432    0.7243   -0.6879 C   0  0  0  0  0  0  0  0  0  0  0  0
   -1.8605    1.3916   -0.4109 H   0  0  0  0  0  0  0  0  0  0  0  0
   -0.1211    1.3068   -0.6604 H   0  0  0  0  0  0  0  0  0  0  0  0
   -1.2892    0.2431   -2.1053 C   0  0  0  0  0  0  0  0  0  0  0  0
   -0.3648    0.5318   -3.1271 C   0  0  0  0  0  0  0  0  0  0  0  0
    0.5166    1.1192   -2.9115 H   0  0  0  0  0  0  0  0  0  0  0  0
   -0.5791    0.0469   -4.4304 C   0  0  0  0  0  0  0  0  0  0  0  0
    0.1306    0.2720   -5.2141 H   0  0  0  0  0  0  0  0  0  0  0  0
   -1.7162   -0.7286   -4.7140 C   0  0  0  0  0  0  0  0  0  0  0  0
   -1.8820   -1.0991   -5.7159 H   0  0  0  0  0  0  0  0  0  0  0  0
   -2.6426   -1.0177   -3.6956 C   0  0  0  0  0  0  0  0  0  0  0  0
   -3.5194   -1.6092   -3.9146 H   0  0  0  0  0  0  0  0  0  0  0  0
   -2.4298   -0.5302   -2.3939 C   0  0  0  0  0  0  0  0  0  0  0  0
   -3.1450   -0.7505   -1.6121 H   0  0  0  0  0  0  0  0  0  0  0  0
   -0.6196    0.1253    1.7539 C   0  0  0  0  0  0  0  0  0  0  0  0
    0.5216    0.0194    2.2054 O   0  0  0  0  0  0  0  0  0  0  0  0
   -1.6152    0.6924    2.4469 N   0  0  0  0  0  0  0  0  0  0  0  0
   -2.5345    0.6914    2.0318 H   0  0  0  0  0  0  0  0  0  0  0  0
   -1.4720    1.2390    3.7941 C   0  0  0  0  0  0  0  0  0  0  0  0
   -0.6345    1.9391    3.8219 H   0  0  0  0  0  0  0  0  0  0  0  0
   -2.3844    1.7580    4.0892 H   0  0  0  0  0  0  0  0  0  0  0  0
   -1.2733    0.4298    4.4995 H   0  0  0  0  0  0  0  0  0  0  0  0
  5  6  2  0  0  0  0
  5  7  1  0  0  0  0
  2  3  1  0  0  0  0
  2  4  1  0  0  0  0
  2  5  1  0  0  0  0
  1  2  1  0  0  0  0
 25 26  2  0  0  0  0
 25 27  1  0  0  0  0
 23 24  1  0  0  0  0
 21 22  1  0  0  0  0
 21 23  2  0  0  0  0
 19 20  1  0  0  0  0
 19 21  1  0  0  0  0
 17 18  1  0  0  0  0
 17 19  2  0  0  0  0
 15 16  1  0  0  0  0
 15 17  1  0  0  0  0
 14 15  2  0  0  0  0
 14 23  1  0  0  0  0
 11 12  1  0  0  0  0
 11 13  1  0  0  0  0
 11 14  1  0  0  0  0
  9 10  1  0  0  0  0
  9 11  1  0  0  0  0
  9 25  1  0  0  0  0
  7  8  1  0  0  0  0
  7  9  1  0  0  0  0
 29 30  1  0  0  0  0
 29 31  1  0  0  0  0
 29 32  1  0  0  0  0
 27 28  1  0  0  0  0
 27 29  1  0  0  0  0
M  END
$$$$
default_name
  -OEChem-02102213163D

 32 32  0     1  0  0  0  0  0999 V2000
   -3.8405   -3.7518    1.6252 H   0  0  0  0  0  0  0  0  0  0  0  0
   -3.7965   -2.8768    0.9782 C   0  0  0  0  0  0  0  0  0  0  0  0
   -4.5465   -2.1527    1.2902 H   0  0  0  0  0  0  0  0  0  0  0  0
   -3.9745   -3.1748   -0.0538 H   0  0  0  0  0  0  0  0  0  0  0  0
   -2.4245   -2.2537    1.0882 C   0  0  0  0  0  0  0  0  0  0  0  0
   -1.5805   -2.7478    1.8242 O   0  0  0  0  0  0  0  0  0  0  0  0
   -2.2045   -1.1637    0.3562 N   0  0  0  0  0  0  0  0  0  0  0  0
   -2.9595   -0.7907   -0.2008 H   0  0  0  0  0  0  0  0  0  0  0  0
   -0.9485   -0.4087    0.3482 C   0  0  1  0  0  0  0  0  0  0  0  0
   -0.1408   -1.0795    0.0507 H   0  0  0  0  0  0  0  0  0  0  0  0
   -1.0432    0.7243   -0.6879 C   0  0  0  0  0  0  0  0  0  0  0  0
   -1.8605    1.3916   -0.4109 H   0  0  0  0  0  0  0  0  0  0  0  0
   -0.1211    1.3068   -0.6604 H   0  0  0  0  0  0  0  0  0  0  0  0
   -1.2892    0.2431   -2.1053 C   0  0  0  0  0  0  0  0  0  0  0  0
   -0.2465    0.2479   -3.0512 C   0  0  0  0  0  0  0  0  0  0  0  0
    0.7321    0.6168   -2.7784 H   0  0  0  0  0  0  0  0  0  0  0  0
   -0.4715   -0.2386   -4.3522 C   0  0  0  0  0  0  0  0  0  0  0  0
    0.3297   -0.2316   -5.0777 H   0  0  0  0  0  0  0  0  0  0  0  0
   -1.7379   -0.7321   -4.7090 C   0  0  0  0  0  0  0  0  0  0  0  0
   -1.9114   -1.1037   -5.7093 H   0  0  0  0  0  0  0  0  0  0  0  0
   -2.7824   -0.7369   -3.7667 C   0  0  0  0  0  0  0  0  0  0  0  0
   -3.7574   -1.1112   -4.0424 H   0  0  0  0  0  0  0  0  0  0  0  0
   -2.5581   -0.2477   -2.4675 C   0  0  0  0  0  0  0  0  0  0  0  0
   -3.3634   -0.2488   -1.7445 H   0  0  0  0  0  0  0  0  0  0  0  0
   -0.6196    0.1253    1.7539 C   0  0  0  0  0  0  0  0  0  0  0  0
    0.5216    0.0194    2.2054 O   0  0  0  0  0  0  0  0  0  0  0  0
   -1.6152    0.6924    2.4469 N   0  0  0  0  0  0  0  0  0  0  0  0
   -2.5345    0.6914    2.0318 H   0  0  0  0  0  0  0  0  0  0  0  0
   -1.4720    1.2390    3.7941 C   0  0  0  0  0  0  0  0  0  0  0  0
   -0.6345    1.9391    3.8219 H   0  0  0  0  0  0  0  0  0  0  0  0
   -2.3844    1.7580    4.0892 H   0  0  0  0  0  0  0  0  0  0  0  0
   -1.2733    0.4298    4.4995 H   0  0  0  0  0  0  0  0  0  0  0  0
  5  6  2  0  0  0  0
  5  7  1  0  0  0  0
  2  3  1  0  0  0  0
  2  4  1  0  0  0  0
  2  5  1  0  0  0  0
  1  2  1  0  0  0  0
 25 26  2  0  0  0  0
 25 27  1  0  0  0  0
 23 24  1  0  0  0  0
 21 22  1  0  0  0  0
 21 23  2  0  0  0  0
 19 20  1  0  0  0  0
 19 21  1  0  0  0  0
 17 18  1  0  0  0  0
 17 19  2  0  0  0  0
 15 16  1  0  0  0  0
 15 17  1  0  0  0  0
 14 15  2  0  0  0  0
 14 23  1  0  0  0  0
 11 12  1  0  0  0  0
 11 13  1  0  0  0  0
 11 14  1  0  0  0  0
  9 10  1  0  0  0  0
  9 11  1  0  0  0  0
  9 25  1  0  0  0  0
  7  8  1  0  0  0  0
  7  9  1  0  0  0  0
 29 30  1  0  0  0  0
 29 31  1  0  0  0  0
 29 32  1  0  0  0  0
 27 28  1  0  0  0  0
 27 29  1  0  0  0  0
M  END
$$$$
default_name
  -OEChem-02102213163D

 32 32  0     1  0  0  0  0  0999 V2000
   -3.8405   -3.7518    1.6252 H   0  0  0  0  0  0  0  0  0  0  0  0
   -3.7965   -2.8768    0.9782 C   0  0  0  0  0  0  0  0  0  0  0  0
   -4.5465   -2.1527    1.2902 H   0  0  0  0  0  0  0  0  0  0  0  0
   -3.9745   -3.1748   -0.0538 H   0  0  0  0  0  0  0  0  0  0  0  0
   -2.4245   -2.2537    1.0882 C   0  0  0  0  0  0  0  0  0  0  0  0
   -1.5805   -2.7478    1.8242 O   0  0  0  0  0  0  0  0  0  0  0  0
   -2.2045   -1.1637    0.3562 N   0  0  0  0  0  0  0  0  0  0  0  0
   -2.9595   -0.7907   -0.2008 H   0  0  0  0  0  0  0  0  0  0  0  0
   -0.9485   -0.4087    0.3482 C   0  0  1  0  0  0  0  0  0  0  0  0
   -0.1408   -1.0795    0.0507 H   0  0  0  0  0  0  0  0  0  0  0  0
   -1.0432    0.7243   -0.6879 C   0  0  0  0  0  0  0  0  0  0  0  0
   -1.8605    1.3916   -0.4109 H   0  0  0  0  0  0  0  0  0  0  0  0
   -0.1211    1.3068   -0.6604 H   0  0  0  0  0  0  0  0  0  0  0  0
   -1.2892    0.2431   -2.1053 C   0  0  0  0  0  0  0  0  0  0  0  0
   -0.2071   -0.0519   -2.9562 C   0  0  0  0  0  0  0  0  0  0  0  0
    0.8079    0.0851   -2.6110 H   0  0  0  0  0  0  0  0  0  0  0  0
   -0.4431   -0.5371   -4.2557 C   0  0  0  0  0  0  0  0  0  0  0  0
    0.3891   -0.7605   -4.9084 H   0  0  0  0  0  0  0  0  0  0  0  0
   -1.7602   -0.7301   -4.7058 C   0  0  0  0  0  0  0  0  0  0  0  0
   -1.9415   -1.1006   -5.7051 H   0  0  0  0  0  0  0  0  0  0  0  0
   -2.8437   -0.4349   -3.8586 C   0  0  0  0  0  0  0  0  0  0  0  0
   -3.8563   -0.5780   -4.2063 H   0  0  0  0  0  0  0  0  0  0  0  0
   -2.6077    0.0532   -2.5611 C   0  0  0  0  0  0  0  0  0  0  0  0
   -3.4422    0.2830   -1.9114 H   0  0  0  0  0  0  0  0  0  0  0  0
   -0.6196    0.1253    1.7539 C   0  0  0  0  0  0  0  0  0  0  0  0
    0.5216    0.0194    2.2054 O   0  0  0  0  0  0  0  0  0  0  0  0
   -1.6152    0.6924    2.4469 N   0  0  0  0  0  0  0  0  0  0  0  0
   -2.5345    0.6914    2.0318 H   0  0  0  0  0  0  0  0  0  0  0  0
   -1.4720    1.2390    3.7941 C   0  0  0  0  0  0  0  0  0  0  0  0
   -0.6345    1.9391    3.8219 H   0  0  0  0  0  0  0  0  0  0  0  0
   -2.3844    1.7580    4.0892 H   0  0  0  0  0  0  0  0  0  0  0  0
   -1.2733    0.4298    4.4995 H   0  0  0  0  0  0  0  0  0  0  0  0
  5  6  2  0  0  0  0
  5  7  1  0  0  0  0
  2  3  1  0  0  0  0
  2  4  1  0  0  0  0
  2  5  1  0  0  0  0
  1  2  1  0  0  0  0
 25 26  2  0  0  0  0
 25 27  1  0  0  0  0
 23 24  1  0  0  0  0
 21 22  1  0  0  0  0
 21 23  2  0  0  0  0
 19 20  1  0  0  0  0
 19 21  1  0  0  0  0
 17 18  1  0  0  0  0
 17 19  2  0  0  0  0
 15 16  1  0  0  0  0
 15 17  1  0  0  0  0
 14 15  2  0  0  0  0
 14 23  1  0  0  0  0
 11 12  1  0  0  0  0
 11 13  1  0  0  0  0
 11 14  1  0  0  0  0
  9 10  1  0  0  0  0
  9 11  1  0  0  0  0
  9 25  1  0  0  0  0
  7  8  1  0  0  0  0
  7  9  1  0  0  0  0
 29 30  1  0  0  0  0
 29 31  1  0  0  0  0
 29 32  1  0  0  0  0
 27 28  1  0  0  0  0
 27 29  1  0  0  0  0
M  END
$$$$
default_name
  -OEChem-02102213163D

 32 32  0     1  0  0  0  0  0999 V2000
   -3.8405   -3.7518    1.6252 H   0  0  0  0  0  0  0  0  0  0  0  0
   -3.7965   -2.8768    0.9782 C   0  0  0  0  0  0  0  0  0  0  0  0
   -4.5465   -2.1527    1.2902 H   0  0  0  0  0  0  0  0  0  0  0  0
   -3.9745   -3.1748   -0.0538 H   0  0  0  0  0  0  0  0  0  0  0  0
   -2.4245   -2.2537    1.0882 C   0  0  0  0  0  0  0  0  0  0  0  0
   -1.5805   -2.7478    1.8242 O   0  0  0  0  0  0  0  0  0  0  0  0
   -2.2045   -1.1637    0.3562 N   0  0  0  0  0  0  0  0  0  0  0  0
   -2.9595   -0.7907   -0.2008 H   0  0  0  0  0  0  0  0  0  0  0  0
   -0.9485   -0.4087    0.3482 C   0  0  1  0  0  0  0  0  0  0  0  0
   -0.1408   -1.0795    0.0507 H   0  0  0  0  0  0  0  0  0  0  0  0
   -1.0432    0.7243   -0.6879 C   0  0  0  0  0  0  0  0  0  0  0  0
   -1.8605    1.3916   -0.4109 H   0  0  0  0  0  0  0  0  0  0  0  0
   -0.1211    1.3068   -0.6604 H   0  0  0  0  0  0  0  0  0  0  0  0
   -1.2892    0.2431   -2.1053 C   0  0  0  0  0  0  0  0  0  0  0  0
   -0.2494   -0.3469   -2.8487 C   0  0  0  0  0  0  0  0  0  0  0  0
    0.7388   -0.4399   -2.4207 H   0  0  0  0  0  0  0  0  0  0  0  0
   -0.4957   -0.8283   -4.1477 C   0  0  0  0  0  0  0  0  0  0  0  0
    0.3047   -1.2787   -4.7179 H   0  0  0  0  0  0  0  0  0  0  0  0
   -1.7815   -0.7225   -4.7047 C   0  0  0  0  0  0  0  0  0  0  0  0
   -1.9702   -1.0903   -5.7036 H   0  0  0  0  0  0  0  0  0  0  0  0
   -2.8224   -0.1322   -3.9650 C   0  0  0  0  0  0  0  0  0  0  0  0
   -3.8095   -0.0459   -4.3951 H   0  0  0  0  0  0  0  0  0  0  0  0
   -2.5751    0.3518   -2.6681 C   0  0  0  0  0  0  0  0  0  0  0  0
   -3.3759    0.8088   -2.1014 H   0  0  0  0  0  0  0  0  0  0  0  0
   -0.6196    0.1253    1.7539 C   0  0  0  0  0  0  0  0  0  0  0  0
    0.5216    0.0194    2.2054 O   0  0  0  0  0  0  0  0  0  0  0  0
   -1.6152    0.6924    2.4469 N   0  0  0  0  0  0  0  0  0  0  0  0
   -2.5345    0.6914    2.0318 H   0  0  0  0  0  0  0  0  0  0  0  0
   -1.4720    1.2390    3.7941 C   0  0  0  0  0  0  0  0  0  0  0  0
   -0.6345    1.9391    3.8219 H   0  0  0  0  0  0  0  0  0  0  0  0
   -2.3844    1.7580    4.0892 H   0  0  0  0  0  0  0  0  0  0  0  0
   -1.2733    0.4298    4.4995 H   0  0  0  0  0  0  0  0  0  0  0  0
  5  6  2  0  0  0  0
  5  7  1  0  0  0  0
  2  3  1  0  0  0  0
  2  4  1  0  0  0  0
  2  5  1  0  0  0  0
  1  2  1  0  0  0  0
 25 26  2  0  0  0  0
 25 27  1  0  0  0  0
 23 24  1  0  0  0  0
 21 22  1  0  0  0  0
 21 23  2  0  0  0  0
 19 20  1  0  0  0  0
 19 21  1  0  0  0  0
 17 18  1  0  0  0  0
 17 19  2  0  0  0  0
 15 16  1  0  0  0  0
 15 17  1  0  0  0  0
 14 15  2  0  0  0  0
 14 23  1  0  0  0  0
 11 12  1  0  0  0  0
 11 13  1  0  0  0  0
 11 14  1  0  0  0  0
  9 10  1  0  0  0  0
  9 11  1  0  0  0  0
  9 25  1  0  0  0  0
  7  8  1  0  0  0  0
  7  9  1  0  0  0  0
 29 30  1  0  0  0  0
 29 31  1  0  0  0  0
 29 32  1  0  0  0  0
 27 28  1  0  0  0  0
 27 29  1  0  0  0  0
M  END
$$$$
default_name
  -OEChem-02102213163D

 32 32  0     1  0  0  0  0  0999 V2000
   -3.8405   -3.7518    1.6252 H   0  0  0  0  0  0  0  0  0  0  0  0
   -3.7965   -2.8768    0.9782 C   0  0  0  0  0  0  0  0  0  0  0  0
   -4.5465   -2.1527    1.2902 H   0  0  0  0  0  0  0  0  0  0  0  0
   -3.9745   -3.1748   -0.0538 H   0  0  0  0  0  0  0  0  0  0  0  0
   -2.4245   -2.2537    1.0882 C   0  0  0  0  0  0  0  0  0  0  0  0
   -1.5805   -2.7478    1.8242 O   0  0  0  0  0  0  0  0  0  0  0  0
   -2.2045   -1.1637    0.3562 N   0  0  0  0  0  0  0  0  0  0  0  0
   -2.9595   -0.7907   -0.2008 H   0  0  0  0  0  0  0  0  0  0  0  0
   -0.9485   -0.4087    0.3482 C   0  0  1  0  0  0  0  0  0  0  0  0
   -0.1408   -1.0795    0.0507 H   0  0  0  0  0  0  0  0  0  0  0  0
   -1.0432    0.7243   -0.6879 C   0  0  0  0  0  0  0  0  0  0  0  0
   -1.8605    1.3916   -0.4109 H   0  0  0  0  0  0  0  0  0  0  0  0
   -0.1211    1.3068   -0.6604 H   0  0  0  0  0  0  0  0  0  0  0  0
   -1.2892    0.2431   -2.1053 C   0  0  0  0  0  0  0  0  0  0  0  0
   -0.3704   -0.6172   -2.7360 C   0  0  0  0  0  0  0  0  0  0  0  0
    0.5294   -0.9222   -2.2206 H   0  0  0  0  0  0  0  0  0  0  0  0
   -0.6259   -1.0923   -4.0355 C   0  0  0  0  0  0  0  0  0  0  0  0
    0.0821   -1.7507   -4.5190 H   0  0  0  0  0  0  0  0  0  0  0  0
   -1.8004   -0.7101   -4.7057 C   0  0  0  0  0  0  0  0  0  0  0  0
   -1.9955   -1.0733   -5.7050 H   0  0  0  0  0  0  0  0  0  0  0  0
   -2.7198    0.1506   -4.0789 C   0  0  0  0  0  0  0  0  0  0  0  0
   -3.6201    0.4488   -4.5959 H   0  0  0  0  0  0  0  0  0  0  0  0
   -2.4626    0.6279   -2.7814 C   0  0  0  0  0  0  0  0  0  0  0  0
   -3.1692    1.2927   -2.3016 H   0  0  0  0  0  0  0  0  0  0  0  0
   -0.6196    0.1253    1.7539 C   0  0  0  0  0  0  0  0  0  0  0  0
    0.5216    0.0194    2.2054 O   0  0  0  0  0  0  0  0  0  0  0  0
   -1.6152    0.6924    2.4469 N   0  0  0  0  0  0  0  0  0  0  0  0
   -2.5345    0.6914    2.0318 H   0  0  0  0  0  0  0  0  0  0  0  0
   -1.4720    1.2390    3.7941 C   0  0  0  0  0  0  0  0  0  0  0  0
   -0.6345    1.9391    3.8219 H   0  0  0  0  0  0  0  0  0  0  0  0
   -2.3844    1.7580    4.0892 H   0  0  0  0  0  0  0  0  0  0  0  0
   -1.2733    0.4298    4.4995 H   0  0  0  0  0  0  0  0  0  0  0  0
  5  6  2  0  0  0  0
  5  7  1  0  0  0  0
  2  3  1  0  0  0  0
  2  4  1  0  0  0  0
  2  5  1  0  0  0  0
  1  2  1  0  0  0  0
 25 26  2  0  0  0  0
 25 27  1  0  0  0  0
 23 24  1  0  0  0  0
 21 22  1  0  0  0  0
 21 23  2  0  0  0  0
 19 20  1  0  0  0  0
 19 21  1  0  0  0  0
 17 18  1  0  0  0  0
 17 19  2  0  0  0  0
 15 16  1  0  0  0  0
 15 17  1  0  0  0  0
 14 15  2  0  0  0  0
 14 23  1  0  0  0  0
 11 12  1  0  0  0  0
 11 13  1  0  0  0  0
 11 14  1  0  0  0  0
  9 10  1  0  0  0  0
  9 11  1  0  0  0  0
  9 25  1  0  0  0  0
  7  8  1  0  0  0  0
  7  9  1  0  0  0  0
 29 30  1  0  0  0  0
 29 31  1  0  0  0  0
 29 32  1  0  0  0  0
 27 28  1  0  0  0  0
 27 29  1  0  0  0  0
M  END
$$$$
default_name
  -OEChem-02102213163D

 32 32  0     1  0  0  0  0  0999 V2000
   -3.8405   -3.7518    1.6252 H   0  0  0  0  0  0  0  0  0  0  0  0
   -3.7965   -2.8768    0.9782 C   0  0  0  0  0  0  0  0  0  0  0  0
   -4.5465   -2.1527    1.2902 H   0  0  0  0  0  0  0  0  0  0  0  0
   -3.9745   -3.1748   -0.0538 H   0  0  0  0  0  0  0  0  0  0  0  0
   -2.4245   -2.2537    1.0882 C   0  0  0  0  0  0  0  0  0  0  0  0
   -1.5805   -2.7478    1.8242 O   0  0  0  0  0  0  0  0  0  0  0  0
   -2.2045   -1.1637    0.3562 N   0  0  0  0  0  0  0  0  0  0  0  0
   -2.9595   -0.7907   -0.2008 H   0  0  0  0  0  0  0  0  0  0  0  0
   -0.9485   -0.4087    0.3482 C   0  0  1  0  0  0  0  0  0  0  0  0
   -0.1408   -1.0795    0.0507 H   0  0  0  0  0  0  0  0  0  0  0  0
   -1.0432    0.7243   -0.6879 C   0  0  0  0  0  0  0  0  0  0  0  0
   -1.8605    1.3916   -0.4109 H   0  0  0  0  0  0  0  0  0  0  0  0
   -0.1211    1.3068   -0.6604 H   0  0  0  0  0  0  0  0  0  0  0  0
   -1.2892    0.2431   -2.1053 C   0  0  0  0  0  0  0  0  0  0  0  0
   -0.5619   -0.8442   -2.6257 C   0  0  0  0  0  0  0  0  0  0  0  0
    0.1941   -1.3291   -2.0243 H   0  0  0  0  0  0  0  0  0  0  0  0
   -0.8246   -1.3111   -3.9267 C   0  0  0  0  0  0  0  0  0  0  0  0
   -0.2633   -2.1445   -4.3253 H   0  0  0  0  0  0  0  0  0  0  0  0
   -1.8155   -0.6935   -4.7087 C   0  0  0  0  0  0  0  0  0  0  0  0
   -2.0157   -1.0508   -5.7091 H   0  0  0  0  0  0  0  0  0  0  0  0
   -2.5430    0.3941   -4.1922 C   0  0  0  0  0  0  0  0  0  0  0  0
   -3.3010    0.8724   -4.7951 H   0  0  0  0  0  0  0  0  0  0  0  0
   -2.2779    0.8626   -2.8931 C   0  0  0  0  0  0  0  0  0  0  0  0
   -2.8360    1.7016   -2.4982 H   0  0  0  0  0  0  0  0  0  0  0  0
   -0.6196    0.1253    1.7539 C   0  0  0  0  0  0  0  0  0  0  0  0
    0.5216    0.0194    2.2054 O   0  0  0  0  0  0  0  0  0  0  0  0
   -1.6152    0.6924    2.4469 N   0  0  0  0  0  0  0  0  0  0  0  0
   -2.5345    0.6914    2.0318 H   0  0  0  0  0  0  0  0  0  0  0  0
   -1.4720    1.2390    3.7941 C   0  0  0  0  0  0  0  0  0  0  0  0
   -0.6345    1.9391    3.8219 H   0  0  0  0  0  0  0  0  0  0  0  0
   -2.3844    1.7580    4.0892 H   0  0  0  0  0  0  0  0  0  0  0  0
   -1.2733    0.4298    4.4995 H   0  0  0  0  0  0  0  0  0  0  0  0
  5  6  2  0  0  0  0
  5  7  1  0  0  0  0
  2  3  1  0  0  0  0
  2  4  1  0  0  0  0
  2  5  1  0  0  0  0
  1  2  1  0  0  0  0
 25 26  2  0  0  0  0
 25 27  1  0  0  0  0
 23 24  1  0  0  0  0
 21 22  1  0  0  0  0
 21 23  2  0  0  0  0
 19 20  1  0  0  0  0
 19 21  1  0  0  0  0
 17 18  1  0  0  0  0
 17 19  2  0  0  0  0
 15 16  1  0  0  0  0
 15 17  1  0  0  0  0
 14 15  2  0  0  0  0
 14 23  1  0  0  0  0
 11 12  1  0  0  0  0
 11 13  1  0  0  0  0
 11 14  1  0  0  0  0
  9 10  1  0  0  0  0
  9 11  1  0  0  0  0
  9 25  1  0  0  0  0
  7  8  1  0  0  0  0
  7  9  1  0  0  0  0
 29 30  1  0  0  0  0
 29 31  1  0  0  0  0
 29 32  1  0  0  0  0
 27 28  1  0  0  0  0
 27 29  1  0  0  0  0
M  END
$$$$
default_name
  -OEChem-02102213163D

 32 32  0     1  0  0  0  0  0999 V2000
   -3.8405   -3.7518    1.6252 H   0  0  0  0  0  0  0  0  0  0  0  0
   -3.7965   -2.8768    0.9782 C   0  0  0  0  0  0  0  0  0  0  0  0
   -4.5465   -2.1527    1.2902 H   0  0  0  0  0  0  0  0  0  0  0  0
   -3.9745   -3.1748   -0.0538 H   0  0  0  0  0  0  0  0  0  0  0  0
   -2.4245   -2.2537    1.0882 C   0  0  0  0  0  0  0  0  0  0  0  0
   -1.5805   -2.7478    1.8242 O   0  0  0  0  0  0  0  0  0  0  0  0
   -2.2045   -1.1637    0.3562 N   0  0  0  0  0  0  0  0  0  0  0  0
   -2.9595   -0.7907   -0.2008 H   0  0  0  0  0  0  0  0  0  0  0  0
   -0.9485   -0.4087    0.3482 C   0  0  1  0  0  0  0  0  0  0  0  0
   -0.1408   -1.0795    0.0507 H   0  0  0  0  0  0  0  0  0  0  0  0
   -1.0432    0.7243   -0.6879 C   0  0  0  0  0  0  0  0  0  0  0  0
   -1.8605    1.3916   -0.4109 H   0  0  0  0  0  0  0  0  0  0  0  0
   -0.1211    1.3068   -0.6604 H   0  0  0  0  0  0  0  0  0  0  0  0
   -1.2892    0.2431   -2.1053 C   0  0  0  0  0  0  0  0  0  0  0  0
   -0.8108   -1.0126   -2.5253 C   0  0  0  0  0  0  0  0  0  0  0  0
   -0.2443   -1.6328   -1.8451 H   0  0  0  0  0  0  0  0  0  0  0  0
   -1.0785   -1.4699   -3.8288 C   0  0  0  0  0  0  0  0  0  0  0  0
   -0.7081   -2.4332   -4.1501 H   0  0  0  0  0  0  0  0  0  0  0  0
   -1.8259   -0.6740   -4.7135 C   0  0  0  0  0  0  0  0  0  0  0  0
   -2.0295   -1.0244   -5.7157 H   0  0  0  0  0  0  0  0  0  0  0  0
   -2.3040    0.5819   -4.2974 C   0  0  0  0  0  0  0  0  0  0  0  0
   -2.8739    1.1961   -4.9791 H   0  0  0  0  0  0  0  0  0  0  0  0
   -2.0336    1.0400   -2.9958 C   0  0  0  0  0  0  0  0  0  0  0  0
   -2.3992    2.0078   -2.6780 H   0  0  0  0  0  0  0  0  0  0  0  0
   -0.6196    0.1253    1.7539 C   0  0  0  0  0  0  0  0  0  0  0  0
    0.5216    0.0194    2.2054 O   0  0  0  0  0  0  0  0  0  0  0  0
   -1.6152    0.6924    2.4469 N   0  0  0  0  0  0  0  0  0  0  0  0
   -2.5345    0.6914    2.0318 H   0  0  0  0  0  0  0  0  0  0  0  0
   -1.4720    1.2390    3.7941 C   0  0  0  0  0  0  0  0  0  0  0  0
   -0.6345    1.9391    3.8219 H   0  0  0  0  0  0  0  0  0  0  0  0
   -2.3844    1.7580    4.0892 H   0  0  0  0  0  0  0  0  0  0  0  0
   -1.2733    0.4298    4.4995 H   0  0  0  0  0  0  0  0  0  0  0  0
  5  6  2  0  0  0  0
  5  7  1  0  0  0  0
  2  3  1  0  0  0  0
  2  4  1  0  0  0  0
  2  5  1  0  0  0  0
  1  2  1  0  0  0  0
 25 26  2  0  0  0  0
 25 27  1  0  0  0  0
 23 24  1  0  0  0  0
 21 22  1  0  0  0  0
 21 23  2  0  0  0  0
 19 20  1  0  0  0  0
 19 21  1  0  0  0  0
 17 18  1  0  0  0  0
 17 19  2  0  0  0  0
 15 16  1  0  0  0  0
 15 17  1  0  0  0  0
 14 15  2  0  0  0  0
 14 23  1  0  0  0  0
 11 12  1  0  0  0  0
 11 13  1  0  0  0  0
 11 14  1  0  0  0  0
  9 10  1  0  0  0  0
  9 11  1  0  0  0  0
  9 25  1  0  0  0  0
  7  8  1  0  0  0  0
  7  9  1  0  0  0  0
 29 30  1  0  0  0  0
 29 31  1  0  0  0  0
 29 32  1  0  0  0  0
 27 28  1  0  0  0  0
 27 29  1  0  0  0  0
M  END
$$$$
default_name
  -OEChem-02102213163D

 32 32  0     1  0  0  0  0  0999 V2000
   -3.8405   -3.7518    1.6252 H   0  0  0  0  0  0  0  0  0  0  0  0
   -3.7965   -2.8768    0.9782 C   0  0  0  0  0  0  0  0  0  0  0  0
   -4.5465   -2.1527    1.2902 H   0  0  0  0  0  0  0  0  0  0  0  0
   -3.9745   -3.1748   -0.0538 H   0  0  0  0  0  0  0  0  0  0  0  0
   -2.4245   -2.2537    1.0882 C   0  0  0  0  0  0  0  0  0  0  0  0
   -1.5805   -2.7478    1.8242 O   0  0  0  0  0  0  0  0  0  0  0  0
   -2.2045   -1.1637    0.3562 N   0  0  0  0  0  0  0  0  0  0  0  0
   -2.9595   -0.7907   -0.2008 H   0  0  0  0  0  0  0  0  0  0  0  0
   -0.9485   -0.4087    0.3482 C   0  0  1  0  0  0  0  0  0  0  0  0
   -0.1408   -1.0795    0.0507 H   0  0  0  0  0  0  0  0  0  0  0  0
   -1.0432    0.7243   -0.6879 C   0  0  0  0  0  0  0  0  0  0  0  0
   -1.8605    1.3916   -0.4109 H   0  0  0  0  0  0  0  0  0  0  0  0
   -0.1211    1.3068   -0.6604 H   0  0  0  0  0  0  0  0  0  0  0  0
   -1.2892    0.2431   -2.1053 C   0  0  0  0  0  0  0  0  0  0  0  0
   -1.1002   -1.1108   -2.4417 C   0  0  0  0  0  0  0  0  0  0  0  0
   -0.7560   -1.8126   -1.6952 H   0  0  0  0  0  0  0  0  0  0  0  0
   -1.3701   -1.5577   -3.7484 C   0  0  0  0  0  0  0  0  0  0  0  0
   -1.2219   -2.5972   -4.0053 H   0  0  0  0  0  0  0  0  0  0  0  0
   -1.8308   -0.6529   -4.7198 C   0  0  0  0  0  0  0  0  0  0  0  0
   -2.0358   -0.9958   -5.7243 H   0  0  0  0  0  0  0  0  0  0  0  0
   -2.0192    0.7010   -4.3873 C   0  0  0  0  0  0  0  0  0  0  0  0
   -2.3681    1.3977   -5.1354 H   0  0  0  0  0  0  0  0  0  0  0  0
   -1.7462    1.1480   -3.0823 C   0  0  0  0  0  0  0  0  0  0  0  0
   -1.8884    2.1904   -2.8287 H   0  0  0  0  0  0  0  0  0  0  0  0
   -0.6196    0.1253    1.7539 C   0  0  0  0  0  0  0  0  0  0  0  0
    0.5216    0.0194    2.2054 O   0  0  0  0  0  0  0  0  0  0  0  0
   -1.6152    0.6924    2.4469 N   0  0  0  0  0  0  0  0  0  0  0  0
   -2.5345    0.6914    2.0318 H   0  0  0  0  0  0  0  0  0  0  0  0
   -1.4720    1.2390    3.7941 C   0  0  0  0  0  0  0  0  0  0  0  0
   -0.6345    1.9391    3.8219 H   0  0  0  0  0  0  0  0  0  0  0  0
   -2.3844    1.7580    4.0892 H   0  0  0  0  0  0  0  0  0  0  0  0
   -1.2733    0.4298    4.4995 H   0  0  0  0  0  0  0  0  0  0  0  0
  5  6  2  0  0  0  0
  5  7  1  0  0  0  0
  2  3  1  0  0  0  0
  2  4  1  0  0  0  0
  2  5  1  0  0  0  0
  1  2  1  0  0  0  0
 25 26  2  0  0  0  0
 25 27  1  0  0  0  0
 23 24  1  0  0  0  0
 21 22  1  0  0  0  0
 21 23  2  0  0  0  0
 19 20  1  0  0  0  0
 19 21  1  0  0  0  0
 17 18  1  0  0  0  0
 17 19  2  0  0  0  0
 15 16  1  0  0  0  0
 15 17  1  0  0  0  0
 14 15  2  0  0  0  0
 14 23  1  0  0  0  0
 11 12  1  0  0  0  0
 11 13  1  0  0  0  0
 11 14  1  0  0  0  0
  9 10  1  0  0  0  0
  9 11  1  0  0  0  0
  9 25  1  0  0  0  0
  7  8  1  0  0  0  0
  7  9  1  0  0  0  0
 29 30  1  0  0  0  0
 29 31  1  0  0  0  0
 29 32  1  0  0  0  0
 27 28  1  0  0  0  0
 27 29  1  0  0  0  0
M  END
$$$$
default_name
  -OEChem-02102213163D

 32 32  0     1  0  0  0  0  0999 V2000
   -3.8405   -3.7518    1.6252 H   0  0  0  0  0  0  0  0  0  0  0  0
   -3.7965   -2.8768    0.9782 C   0  0  0  0  0  0  0  0  0  0  0  0
   -4.5465   -2.1527    1.2902 H   0  0  0  0  0  0  0  0  0  0  0  0
   -3.9745   -3.1748   -0.0538 H   0  0  0  0  0  0  0  0  0  0  0  0
   -2.4245   -2.2537    1.0882 C   0  0  0  0  0  0  0  0  0  0  0  0
   -1.5805   -2.7478    1.8242 O   0  0  0  0  0  0  0  0  0  0  0  0
   -2.2045   -1.1637    0.3562 N   0  0  0  0  0  0  0  0  0  0  0  0
   -2.9595   -0.7907   -0.2008 H   0  0  0  0  0  0  0  0  0  0  0  0
   -0.9485   -0.4087    0.3482 C   0  0  1  0  0  0  0  0  0  0  0  0
   -0.1408   -1.0795    0.0507 H   0  0  0  0  0  0  0  0  0  0  0  0
   -1.0432    0.7243   -0.6879 C   0  0  0  0  0  0  0  0  0  0  0  0
   -1.8605    1.3916   -0.4109 H   0  0  0  0  0  0  0  0  0  0  0  0
   -0.1211    1.3068   -0.6604 H   0  0  0  0  0  0  0  0  0  0  0  0
   -1.2892    0.2431   -2.1053 C   0  0  0  0  0  0  0  0  0  0  0  0
   -1.4104   -1.1322   -2.3806 C   0  0  0  0  0  0  0  0  0  0  0  0
   -1.3060   -1.8563   -1.5850 H   0  0  0  0  0  0  0  0  0  0  0  0
   -1.6796   -1.5686   -3.6909 C   0  0  0  0  0  0  0  0  0  0  0  0
   -1.7698   -2.6252   -3.9007 H   0  0  0  0  0  0  0  0  0  0  0  0
   -1.8299   -0.6315   -4.7272 C   0  0  0  0  0  0  0  0  0  0  0  0
   -2.0343   -0.9670   -5.7343 H   0  0  0  0  0  0  0  0  0  0  0  0
   -1.7078    0.7434   -4.4558 C   0  0  0  0  0  0  0  0  0  0  0  0
   -1.8178    1.4636   -5.2532 H   0  0  0  0  0  0  0  0  0  0  0  0
   -1.4355    1.1791   -3.1468 C   0  0  0  0  0  0  0  0  0  0  0  0
   -1.3385    2.2370   -2.9399 H   0  0  0  0  0  0  0  0  0  0  0  0
   -0.6196    0.1253    1.7539 C   0  0  0  0  0  0  0  0  0  0  0  0
    0.5216    0.0194    2.2054 O   0  0  0  0  0  0  0  0  0  0  0  0
   -1.6152    0.6924    2.4469 N   0  0  0  0  0  0  0  0  0  0  0  0
   -2.5345    0.6914    2.0318 H   0  0  0  0  0  0  0  0  0  0  0  0
   -1.4720    1.2390    3.7941 C   0  0  0  0  0  0  0  0  0  0  0  0
   -0.6345    1.9391    3.8219 H   0  0  0  0  0  0  0  0  0  0  0  0
   -2.3844    1.7580    4.0892 H   0  0  0  0  0  0  0  0  0  0  0  0
   -1.2733    0.4298    4.4995 H   0  0  0  0  0  0  0  0  0  0  0  0
  5  6  2  0  0  0  0
  5  7  1  0  0  0  0
  2  3  1  0  0  0  0
  2  4  1  0  0  0  0
  2  5  1  0  0  0  0
  1  2  1  0  0  0  0
 25 26  2  0  0  0  0
 25 27  1  0  0  0  0
 23 24  1  0  0  0  0
 21 22  1  0  0  0  0
 21 23  2  0  0  0  0
 19 20  1  0  0  0  0
 19 21  1  0  0  0  0
 17 18  1  0  0  0  0
 17 19  2  0  0  0  0
 15 16  1  0  0  0  0
 15 17  1  0  0  0  0
 14 15  2  0  0  0  0
 14 23  1  0  0  0  0
 11 12  1  0  0  0  0
 11 13  1  0  0  0  0
 11 14  1  0  0  0  0
  9 10  1  0  0  0  0
  9 11  1  0  0  0  0
  9 25  1  0  0  0  0
  7  8  1  0  0  0  0
  7  9  1  0  0  0  0
 29 30  1  0  0  0  0
 29 31  1  0  0  0  0
 29 32  1  0  0  0  0
 27 28  1  0  0  0  0
 27 29  1  0  0  0  0
M  END
$$$$
default_name
  -OEChem-02102213163D

 32 32  0     1  0  0  0  0  0999 V2000
   -3.8405   -3.7518    1.6252 H   0  0  0  0  0  0  0  0  0  0  0  0
   -3.7965   -2.8768    0.9782 C   0  0  0  0  0  0  0  0  0  0  0  0
   -4.5465   -2.1527    1.2902 H   0  0  0  0  0  0  0  0  0  0  0  0
   -3.9745   -3.1748   -0.0538 H   0  0  0  0  0  0  0  0  0  0  0  0
   -2.4245   -2.2537    1.0882 C   0  0  0  0  0  0  0  0  0  0  0  0
   -1.5805   -2.7478    1.8242 O   0  0  0  0  0  0  0  0  0  0  0  0
   -2.2045   -1.1637    0.3562 N   0  0  0  0  0  0  0  0  0  0  0  0
   -2.9595   -0.7907   -0.2008 H   0  0  0  0  0  0  0  0  0  0  0  0
   -0.9485   -0.4087    0.3482 C   0  0  1  0  0  0  0  0  0  0  0  0
   -0.1408   -1.0795    0.0507 H   0  0  0  0  0  0  0  0  0  0  0  0
   -1.0432    0.7243   -0.6879 C   0  0  0  0  0  0  0  0  0  0  0  0
   -1.8605    1.3916   -0.4109 H   0  0  0  0  0  0  0  0  0  0  0  0
   -0.1211    1.3068   -0.6604 H   0  0  0  0  0  0  0  0  0  0  0  0
   -1.2892    0.2431   -2.1053 C   0  0  0  0  0  0  0  0  0  0  0  0
   -1.7202   -1.0753   -2.3462 C   0  0  0  0  0  0  0  0  0  0  0  0
   -1.8568   -1.7608   -1.5218 H   0  0  0  0  0  0  0  0  0  0  0  0
   -1.9860   -1.5019   -3.6604 C   0  0  0  0  0  0  0  0  0  0  0  0
   -2.3144   -2.5154   -3.8434 H   0  0  0  0  0  0  0  0  0  0  0  0
   -1.8232   -0.6114   -4.7352 C   0  0  0  0  0  0  0  0  0  0  0  0
   -2.0251   -0.9400   -5.7451 H   0  0  0  0  0  0  0  0  0  0  0  0
   -1.3912    0.7062   -4.4981 C   0  0  0  0  0  0  0  0  0  0  0  0
   -1.2608    1.3892   -5.3246 H   0  0  0  0  0  0  0  0  0  0  0  0
   -1.1225    1.1313   -3.1849 C   0  0  0  0  0  0  0  0  0  0  0  0
   -0.7870    2.1442   -3.0041 H   0  0  0  0  0  0  0  0  0  0  0  0
   -0.6196    0.1253    1.7539 C   0  0  0  0  0  0  0  0  0  0  0  0
    0.5216    0.0194    2.2054 O   0  0  0  0  0  0  0  0  0  0  0  0
   -1.6152    0.6924    2.4469 N   0  0  0  0  0  0  0  0  0  0  0  0
   -2.5345    0.6914    2.0318 H   0  0  0  0  0  0  0  0  0  0  0  0
   -1.4720    1.2390    3.7941 C   0  0  0  0  0  0  0  0  0  0  0  0
   -0.6345    1.9391    3.8219 H   0  0  0  0  0  0  0  0  0  0  0  0
   -2.3844    1.7580    4.0892 H   0  0  0  0  0  0  0  0  0  0  0  0
   -1.2733    0.4298    4.4995 H   0  0  0  0  0  0  0  0  0  0  0  0
  5  6  2  0  0  0  0
  5  7  1  0  0  0  0
  2  3  1  0  0  0  0
  2  4  1  0  0  0  0
  2  5  1  0  0  0  0
  1  2  1  0  0  0  0
 25 26  2  0  0  0  0
 25 27  1  0  0  0  0
 23 24  1  0  0  0  0
 21 22  1  0  0  0  0
 21 23  2  0  0  0  0
 19 20  1  0  0  0  0
 19 21  1  0  0  0  0
 17 18  1  0  0  0  0
 17 19  2  0  0  0  0
 15 16  1  0  0  0  0
 15 17  1  0  0  0  0
 14 15  2  0  0  0  0
 14 23  1  0  0  0  0
 11 12  1  0  0  0  0
 11 13  1  0  0  0  0
 11 14  1  0  0  0  0
  9 10  1  0  0  0  0
  9 11  1  0  0  0  0
  9 25  1  0  0  0  0
  7  8  1  0  0  0  0
  7  9  1  0  0  0  0
 29 30  1  0  0  0  0
 29 31  1  0  0  0  0
 29 32  1  0  0  0  0
 27 28  1  0  0  0  0
 27 29  1  0  0  0  0
M  END
$$$$
default_name
  -OEChem-02102213163D

 32 32  0     1  0  0  0  0  0999 V2000
   -3.8405   -3.7518    1.6252 H   0  0  0  0  0  0  0  0  0  0  0  0
   -3.7965   -2.8768    0.9782 C   0  0  0  0  0  0  0  0  0  0  0  0
   -4.5465   -2.1527    1.2902 H   0  0  0  0  0  0  0  0  0  0  0  0
   -3.9745   -3.1748   -0.0538 H   0  0  0  0  0  0  0  0  0  0  0  0
   -2.4245   -2.2537    1.0882 C   0  0  0  0  0  0  0  0  0  0  0  0
   -1.5805   -2.7478    1.8242 O   0  0  0  0  0  0  0  0  0  0  0  0
   -2.2045   -1.1637    0.3562 N   0  0  0  0  0  0  0  0  0  0  0  0
   -2.9595   -0.7907   -0.2008 H   0  0  0  0  0  0  0  0  0  0  0  0
   -0.9485   -0.4087    0.3482 C   0  0  1  0  0  0  0  0  0  0  0  0
   -0.1408   -1.0795    0.0507 H   0  0  0  0  0  0  0  0  0  0  0  0
   -1.0432    0.7243   -0.6879 C   0  0  0  0  0  0  0  0  0  0  0  0
   -1.8605    1.3916   -0.4109 H   0  0  0  0  0  0  0  0  0  0  0  0
   -0.1211    1.3068   -0.6604 H   0  0  0  0  0  0  0  0  0  0  0  0
   -1.2892    0.2431   -2.1053 C   0  0  0  0  0  0  0  0  0  0  0  0
   -2.0085   -0.9439   -2.3408 C   0  0  0  0  0  0  0  0  0  0  0  0
   -2.3710   -1.5328   -1.5100 H   0  0  0  0  0  0  0  0  0  0  0  0
   -2.2682   -1.3621   -3.6589 C   0  0  0  0  0  0  0  0  0  0  0  0
   -2.8186   -2.2752   -3.8375 H   0  0  0  0  0  0  0  0  0  0  0  0
   -1.8113   -0.5940   -4.7432 C   0  0  0  0  0  0  0  0  0  0  0  0
   -2.0088   -0.9165   -5.7559 H   0  0  0  0  0  0  0  0  0  0  0  0
   -1.0908    0.5919   -4.5114 C   0  0  0  0  0  0  0  0  0  0  0  0
   -0.7348    1.1796   -5.3448 H   0  0  0  0  0  0  0  0  0  0  0  0
   -0.8286    1.0079   -3.1940 C   0  0  0  0  0  0  0  0  0  0  0  0
   -0.2713    1.9186   -3.0170 H   0  0  0  0  0  0  0  0  0  0  0  0
   -0.6196    0.1253    1.7539 C   0  0  0  0  0  0  0  0  0  0  0  0
    0.5216    0.0194    2.2054 O   0  0  0  0  0  0  0  0  0  0  0  0
   -1.6152    0.6924    2.4469 N   0  0  0  0  0  0  0  0  0  0  0  0
   -2.5345    0.6914    2.0318 H   0  0  0  0  0  0  0  0  0  0  0  0
   -1.4720    1.2390    3.7941 C   0  0  0  0  0  0  0  0  0  0  0  0
   -0.6345    1.9391    3.8219 H   0  0  0  0  0  0  0  0  0  0  0  0
   -2.3844    1.7580    4.0892 H   0  0  0  0  0  0  0  0  0  0  0  0
   -1.2733    0.4298    4.4995 H   0  0  0  0  0  0  0  0  0  0  0  0
  5  6  2  0  0  0  0
  5  7  1  0  0  0  0
  2  3  1  0  0  0  0
  2  4  1  0  0  0  0
  2  5  1  0  0  0  0
  1  2  1  0  0  0  0
 25 26  2  0  0  0  0
 25 27  1  0  0  0  0
 23 24  1  0  0  0  0
 21 22  1  0  0  0  0
 21 23  2  0  0  0  0
 19 20  1  0  0  0  0
 19 21  1  0  0  0  0
 17 18  1  0  0  0  0
 17 19  2  0  0  0  0
 15 16  1  0  0  0  0
 15 17  1  0  0  0  0
 14 15  2  0  0  0  0
 14 23  1  0  0  0  0
 11 12  1  0  0  0  0
 11 13  1  0  0  0  0
 11 14  1  0  0  0  0
  9 10  1  0  0  0  0
  9 11  1  0  0  0  0
  9 25  1  0  0  0  0
  7  8  1  0  0  0  0
  7  9  1  0  0  0  0
 29 30  1  0  0  0  0
 29 31  1  0  0  0  0
 29 32  1  0  0  0  0
 27 28  1  0  0  0  0
 27 29  1  0  0  0  0
M  END
$$$$
default_name
  -OEChem-02102213163D

 32 32  0     1  0  0  0  0  0999 V2000
   -3.8405   -3.7518    1.6252 H   0  0  0  0  0  0  0  0  0  0  0  0
   -3.7965   -2.8768    0.9782 C   0  0  0  0  0  0  0  0  0  0  0  0
   -4.5465   -2.1527    1.2902 H   0  0  0  0  0  0  0  0  0  0  0  0
   -3.9745   -3.1748   -0.0538 H   0  0  0  0  0  0  0  0  0  0  0  0
   -2.4245   -2.2537    1.0882 C   0  0  0  0  0  0  0  0  0  0  0  0
   -1.5805   -2.7478    1.8242 O   0  0  0  0  0  0  0  0  0  0  0  0
   -2.2045   -1.1637    0.3562 N   0  0  0  0  0  0  0  0  0  0  0  0
   -2.9595   -0.7907   -0.2008 H   0  0  0  0  0  0  0  0  0  0  0  0
   -0.9485   -0.4087    0.3482 C   0  0  1  0  0  0  0  0  0  0  0  0
   -0.1408   -1.0795    0.0507 H   0  0  0  0  0  0  0  0  0  0  0  0
   -1.0432    0.7243   -0.6879 C   0  0  0  0  0  0  0  0  0  0  0  0
   -1.8605    1.3916   -0.4109 H   0  0  0  0  0  0  0  0  0  0  0  0
   -0.1211    1.3068   -0.6604 H   0  0  0  0  0  0  0  0  0  0  0  0
   -1.2892    0.2431   -2.1053 C   0  0  0  0  0  0  0  0  0  0  0  0
   -2.2557   -0.7471   -2.3647 C   0  0  0  0  0  0  0  0  0  0  0  0
   -2.8135   -1.1876   -1.5504 H   0  0  0  0  0  0  0  0  0  0  0  0
   -2.5072   -1.1588   -3.6865 C   0  0  0  0  0  0  0  0  0  0  0  0
   -3.2480   -1.9211   -3.8832 H   0  0  0  0  0  0  0  0  0  0  0  0
   -1.7948   -0.5803   -4.7507 C   0  0  0  0  0  0  0  0  0  0  0  0
   -1.9865   -0.8983   -5.7660 H   0  0  0  0  0  0  0  0  0  0  0  0
   -0.8273    0.4083   -4.4948 C   0  0  0  0  0  0  0  0  0  0  0  0
   -0.2758    0.8492   -5.3122 H   0  0  0  0  0  0  0  0  0  0  0  0
   -0.5738    0.8172   -3.1734 C   0  0  0  0  0  0  0  0  0  0  0  0
    0.1732    1.5754   -2.9776 H   0  0  0  0  0  0  0  0  0  0  0  0
   -0.6196    0.1253    1.7539 C   0  0  0  0  0  0  0  0  0  0  0  0
    0.5216    0.0194    2.2054 O   0  0  0  0  0  0  0  0  0  0  0  0
   -1.6152    0.6924    2.4469 N   0  0  0  0  0  0  0  0  0  0  0  0
   -2.5345    0.6914    2.0318 H   0  0  0  0  0  0  0  0  0  0  0  0
   -1.4720    1.2390    3.7941 C   0  0  0  0  0  0  0  0  0  0  0  0
   -0.6345    1.9391    3.8219 H   0  0  0  0  0  0  0  0  0  0  0  0
   -2.3844    1.7580    4.0892 H   0  0  0  0  0  0  0  0  0  0  0  0
   -1.2733    0.4298    4.4995 H   0  0  0  0  0  0  0  0  0  0  0  0
  5  6  2  0  0  0  0
  5  7  1  0  0  0  0
  2  3  1  0  0  0  0
  2  4  1  0  0  0  0
  2  5  1  0  0  0  0
  1  2  1  0  0  0  0
 25 26  2  0  0  0  0
 25 27  1  0  0  0  0
 23 24  1  0  0  0  0
 21 22  1  0  0  0  0
 21 23  2  0  0  0  0
 19 20  1  0  0  0  0
 19 21  1  0  0  0  0
 17 18  1  0  0  0  0
 17 19  2  0  0  0  0
 15 16  1  0  0  0  0
 15 17  1  0  0  0  0
 14 15  2  0  0  0  0
 14 23  1  0  0  0  0
 11 12  1  0  0  0  0
 11 13  1  0  0  0  0
 11 14  1  0  0  0  0
  9 10  1  0  0  0  0
  9 11  1  0  0  0  0
  9 25  1  0  0  0  0
  7  8  1  0  0  0  0
  7  9  1  0  0  0  0
 29 30  1  0  0  0  0
 29 31  1  0  0  0  0
 29 32  1  0  0  0  0
 27 28  1  0  0  0  0
 27 29  1  0  0  0  0
M  END
$$$$
default_name
  -OEChem-02102213163D

 32 32  0     1  0  0  0  0  0999 V2000
   -3.8405   -3.7518    1.6252 H   0  0  0  0  0  0  0  0  0  0  0  0
   -3.7965   -2.8768    0.9782 C   0  0  0  0  0  0  0  0  0  0  0  0
   -4.5465   -2.1527    1.2902 H   0  0  0  0  0  0  0  0  0  0  0  0
   -3.9745   -3.1748   -0.0538 H   0  0  0  0  0  0  0  0  0  0  0  0
   -2.4245   -2.2537    1.0882 C   0  0  0  0  0  0  0  0  0  0  0  0
   -1.5805   -2.7478    1.8242 O   0  0  0  0  0  0  0  0  0  0  0  0
   -2.2045   -1.1637    0.3562 N   0  0  0  0  0  0  0  0  0  0  0  0
   -2.9595   -0.7907   -0.2008 H   0  0  0  0  0  0  0  0  0  0  0  0
   -0.9485   -0.4087    0.3482 C   0  0  1  0  0  0  0  0  0  0  0  0
   -0.1408   -1.0795    0.0507 H   0  0  0  0  0  0  0  0  0  0  0  0
   -1.0432    0.7243   -0.6879 C   0  0  0  0  0  0  0  0  0  0  0  0
   -1.8605    1.3916   -0.4109 H   0  0  0  0  0  0  0  0  0  0  0  0
   -0.1211    1.3068   -0.6604 H   0  0  0  0  0  0  0  0  0  0  0  0
   -1.2892    0.2431   -2.1053 C   0  0  0  0  0  0  0  0  0  0  0  0
   -2.4448   -0.4982   -2.4164 C   0  0  0  0  0  0  0  0  0  0  0  0
   -3.1541   -0.7489   -1.6402 H   0  0  0  0  0  0  0  0  0  0  0  0
   -2.6866   -0.9057   -3.7413 C   0  0  0  0  0  0  0  0  0  0  0  0
   -3.5733   -1.4771   -3.9775 H   0  0  0  0  0  0  0  0  0  0  0  0
   -1.7751   -0.5714   -4.7571 C   0  0  0  0  0  0  0  0  0  0  0  0
   -1.9597   -0.8865   -5.7746 H   0  0  0  0  0  0  0  0  0  0  0  0
   -0.6185    0.1680   -4.4494 C   0  0  0  0  0  0  0  0  0  0  0  0
    0.0850    0.4203   -5.2292 H   0  0  0  0  0  0  0  0  0  0  0  0
   -0.3755    0.5722   -3.1247 C   0  0  0  0  0  0  0  0  0  0  0  0
    0.5163    1.1381   -2.8887 H   0  0  0  0  0  0  0  0  0  0  0  0
   -0.6196    0.1253    1.7539 C   0  0  0  0  0  0  0  0  0  0  0  0
    0.5216    0.0194    2.2054 O   0  0  0  0  0  0  0  0  0  0  0  0
   -1.6152    0.6924    2.4469 N   0  0  0  0  0  0  0  0  0  0  0  0
   -2.5345    0.6914    2.0318 H   0  0  0  0  0  0  0  0  0  0  0  0
   -1.4720    1.2390    3.7941 C   0  0  0  0  0  0  0  0  0  0  0  0
   -0.6345    1.9391    3.8219 H   0  0  0  0  0  0  0  0  0  0  0  0
   -2.3844    1.7580    4.0892 H   0  0  0  0  0  0  0  0  0  0  0  0
   -1.2733    0.4298    4.4995 H   0  0  0  0  0  0  0  0  0  0  0  0
  5  6  2  0  0  0  0
  5  7  1  0  0  0  0
  2  3  1  0  0  0  0
  2  4  1  0  0  0  0
  2  5  1  0  0  0  0
  1  2  1  0  0  0  0
 25 26  2  0  0  0  0
 25 27  1  0  0  0  0
 23 24  1  0  0  0  0
 21 22  1  0  0  0  0
 21 23  2  0  0  0  0
 19 20  1  0  0  0  0
 19 21  1  0  0  0  0
 17 18  1  0  0  0  0
 17 19  2  0  0  0  0
 15 16  1  0  0  0  0
 15 17  1  0  0  0  0
 14 15  2  0  0  0  0
 14 23  1  0  0  0  0
 11 12  1  0  0  0  0
 11 13  1  0  0  0  0
 11 14  1  0  0  0  0
  9 10  1  0  0  0  0
  9 11  1  0  0  0  0
  9 25  1  0  0  0  0
  7  8  1  0  0  0  0
  7  9  1  0  0  0  0
 29 30  1  0  0  0  0
 29 31  1  0  0  0  0
 29 32  1  0  0  0  0
 27 28  1  0  0  0  0
 27 29  1  0  0  0  0
M  END
$$$$
default_name
  -OEChem-02102213163D

 32 32  0     1  0  0  0  0  0999 V2000
   -3.8405   -3.7518    1.6252 H   0  0  0  0  0  0  0  0  0  0  0  0
   -3.7965   -2.8768    0.9782 C   0  0  0  0  0  0  0  0  0  0  0  0
   -4.5465   -2.1527    1.2902 H   0  0  0  0  0  0  0  0  0  0  0  0
   -3.9745   -3.1748   -0.0538 H   0  0  0  0  0  0  0  0  0  0  0  0
   -2.4245   -2.2537    1.0882 C   0  0  0  0  0  0  0  0  0  0  0  0
   -1.5805   -2.7478    1.8242 O   0  0  0  0  0  0  0  0  0  0  0  0
   -2.2045   -1.1637    0.3562 N   0  0  0  0  0  0  0  0  0  0  0  0
   -2.9595   -0.7907   -0.2008 H   0  0  0  0  0  0  0  0  0  0  0  0
   -0.9485   -0.4087    0.3482 C   0  0  1  0  0  0  0  0  0  0  0  0
   -0.1408   -1.0795    0.0507 H   0  0  0  0  0  0  0  0  0  0  0  0
   -1.0432    0.7243   -0.6879 C   0  0  0  0  0  0  0  0  0  0  0  0
   -1.8605    1.3916   -0.4109 H   0  0  0  0  0  0  0  0  0  0  0  0
   -0.1211    1.3068   -0.6604 H   0  0  0  0  0  0  0  0  0  0  0  0
   -1.2892    0.2431   -2.1053 C   0  0  0  0  0  0  0  0  0  0  0  0
   -2.5631   -0.2143   -2.4922 C   0  0  0  0  0  0  0  0  0  0  0  0
   -3.3697   -0.2466   -1.7734 H   0  0  0  0  0  0  0  0  0  0  0  0
   -2.7942   -0.6202   -3.8195 C   0  0  0  0  0  0  0  0  0  0  0  0
   -3.7725   -0.9735   -4.1139 H   0  0  0  0  0  0  0  0  0  0  0  0
   -1.7533   -0.5679   -4.7621 C   0  0  0  0  0  0  0  0  0  0  0  0
   -1.9303   -0.8820   -5.7813 H   0  0  0  0  0  0  0  0  0  0  0  0
   -0.4787   -0.1128   -4.3784 C   0  0  0  0  0  0  0  0  0  0  0  0
    0.3230   -0.0777   -5.1014 H   0  0  0  0  0  0  0  0  0  0  0  0
   -0.2472    0.2897   -3.0510 C   0  0  0  0  0  0  0  0  0  0  0  0
    0.7347    0.6364   -2.7562 H   0  0  0  0  0  0  0  0  0  0  0  0
   -0.6196    0.1253    1.7539 C   0  0  0  0  0  0  0  0  0  0  0  0
    0.5216    0.0194    2.2054 O   0  0  0  0  0  0  0  0  0  0  0  0
   -1.6152    0.6924    2.4469 N   0  0  0  0  0  0  0  0  0  0  0  0
   -2.5345    0.6914    2.0318 H   0  0  0  0  0  0  0  0  0  0  0  0
   -1.4720    1.2390    3.7941 C   0  0  0  0  0  0  0  0  0  0  0  0
   -0.6345    1.9391    3.8219 H   0  0  0  0  0  0  0  0  0  0  0  0
   -2.3844    1.7580    4.0892 H   0  0  0  0  0  0  0  0  0  0  0  0
   -1.2733    0.4298    4.4995 H   0  0  0  0  0  0  0  0  0  0  0  0
  5  6  2  0  0  0  0
  5  7  1  0  0  0  0
  2  3  1  0  0  0  0
  2  4  1  0  0  0  0
  2  5  1  0  0  0  0
  1  2  1  0  0  0  0
 25 26  2  0  0  0  0
 25 27  1  0  0  0  0
 23 24  1  0  0  0  0
 21 22  1  0  0  0  0
 21 23  2  0  0  0  0
 19 20  1  0  0  0  0
 19 21  1  0  0  0  0
 17 18  1  0  0  0  0
 17 19  2  0  0  0  0
 15 16  1  0  0  0  0
 15 17  1  0  0  0  0
 14 15  2  0  0  0  0
 14 23  1  0  0  0  0
 11 12  1  0  0  0  0
 11 13  1  0  0  0  0
 11 14  1  0  0  0  0
  9 10  1  0  0  0  0
  9 11  1  0  0  0  0
  9 25  1  0  0  0  0
  7  8  1  0  0  0  0
  7  9  1  0  0  0  0
 29 30  1  0  0  0  0
 29 31  1  0  0  0  0
 29 32  1  0  0  0  0
 27 28  1  0  0  0  0
 27 29  1  0  0  0  0
M  END
$$$$
default_name
  -OEChem-02102213163D

 32 32  0     1  0  0  0  0  0999 V2000
   -3.8405   -3.7518    1.6252 H   0  0  0  0  0  0  0  0  0  0  0  0
   -3.7965   -2.8768    0.9782 C   0  0  0  0  0  0  0  0  0  0  0  0
   -4.5465   -2.1527    1.2902 H   0  0  0  0  0  0  0  0  0  0  0  0
   -3.9745   -3.1748   -0.0538 H   0  0  0  0  0  0  0  0  0  0  0  0
   -2.4245   -2.2537    1.0882 C   0  0  0  0  0  0  0  0  0  0  0  0
   -1.5805   -2.7478    1.8242 O   0  0  0  0  0  0  0  0  0  0  0  0
   -2.2045   -1.1637    0.3562 N   0  0  0  0  0  0  0  0  0  0  0  0
   -2.9595   -0.7907   -0.2008 H   0  0  0  0  0  0  0  0  0  0  0  0
   -0.9485   -0.4087    0.3482 C   0  0  1  0  0  0  0  0  0  0  0  0
   -0.1408   -1.0795    0.0507 H   0  0  0  0  0  0  0  0  0  0  0  0
   -1.0432    0.7243   -0.6879 C   0  0  0  0  0  0  0  0  0  0  0  0
   -1.8605    1.3916   -0.4109 H   0  0  0  0  0  0  0  0  0  0  0  0
   -0.1211    1.3068   -0.6604 H   0  0  0  0  0  0  0  0  0  0  0  0
   -1.2892    0.2431   -2.1053 C   0  0  0  0  0  0  0  0  0  0  0  0
   -2.6025    0.0855   -2.5872 C   0  0  0  0  0  0  0  0  0  0  0  0
   -3.4454    0.2852   -1.9408 H   0  0  0  0  0  0  0  0  0  0  0  0
   -2.8226   -0.3217   -3.9160 C   0  0  0  0  0  0  0  0  0  0  0  0
   -3.8318   -0.4446   -4.2832 H   0  0  0  0  0  0  0  0  0  0  0  0
   -1.7310   -0.5699   -4.7653 C   0  0  0  0  0  0  0  0  0  0  0  0
   -1.9002   -0.8850   -5.7855 H   0  0  0  0  0  0  0  0  0  0  0  0
   -0.4174   -0.4148   -4.2864 C   0  0  0  0  0  0  0  0  0  0  0  0
    0.4219   -0.6109   -4.9376 H   0  0  0  0  0  0  0  0  0  0  0  0
   -0.1976   -0.0111   -2.9575 C   0  0  0  0  0  0  0  0  0  0  0  0
    0.8135    0.1046   -2.5893 H   0  0  0  0  0  0  0  0  0  0  0  0
   -0.6196    0.1253    1.7539 C   0  0  0  0  0  0  0  0  0  0  0  0
    0.5216    0.0194    2.2054 O   0  0  0  0  0  0  0  0  0  0  0  0
   -1.6152    0.6924    2.4469 N   0  0  0  0  0  0  0  0  0  0  0  0
   -2.5345    0.6914    2.0318 H   0  0  0  0  0  0  0  0  0  0  0  0
   -1.4720    1.2390    3.7941 C   0  0  0  0  0  0  0  0  0  0  0  0
   -0.6345    1.9391    3.8219 H   0  0  0  0  0  0  0  0  0  0  0  0
   -2.3844    1.7580    4.0892 H   0  0  0  0  0  0  0  0  0  0  0  0
   -1.2733    0.4298    4.4995 H   0  0  0  0  0  0  0  0  0  0  0  0
  5  6  2  0  0  0  0
  5  7  1  0  0  0  0
  2  3  1  0  0  0  0
  2  4  1  0  0  0  0
  2  5  1  0  0  0  0
  1  2  1  0  0  0  0
 25 26  2  0  0  0  0
 25 27  1  0  0  0  0
 23 24  1  0  0  0  0
 21 22  1  0  0  0  0
 21 23  2  0  0  0  0
 19 20  1  0  0  0  0
 19 21  1  0  0  0  0
 17 18  1  0  0  0  0
 17 19  2  0  0  0  0
 15 16  1  0  0  0  0
 15 17  1  0  0  0  0
 14 15  2  0  0  0  0
 14 23  1  0  0  0  0
 11 12  1  0  0  0  0
 11 13  1  0  0  0  0
 11 14  1  0  0  0  0
  9 10  1  0  0  0  0
  9 11  1  0  0  0  0
  9 25  1  0  0  0  0
  7  8  1  0  0  0  0
  7  9  1  0  0  0  0
 29 30  1  0  0  0  0
 29 31  1  0  0  0  0
 29 32  1  0  0  0  0
 27 28  1  0  0  0  0
 27 29  1  0  0  0  0
M  END
$$$$
default_name
  -OEChem-02102213163D

 32 32  0     1  0  0  0  0  0999 V2000
   -3.8405   -3.7518    1.6252 H   0  0  0  0  0  0  0  0  0  0  0  0
   -3.7965   -2.8768    0.9782 C   0  0  0  0  0  0  0  0  0  0  0  0
   -4.5465   -2.1527    1.2902 H   0  0  0  0  0  0  0  0  0  0  0  0
   -3.9745   -3.1748   -0.0538 H   0  0  0  0  0  0  0  0  0  0  0  0
   -2.4245   -2.2537    1.0882 C   0  0  0  0  0  0  0  0  0  0  0  0
   -1.5805   -2.7478    1.8242 O   0  0  0  0  0  0  0  0  0  0  0  0
   -2.2045   -1.1637    0.3562 N   0  0  0  0  0  0  0  0  0  0  0  0
   -2.9595   -0.7907   -0.2008 H   0  0  0  0  0  0  0  0  0  0  0  0
   -0.9485   -0.4087    0.3482 C   0  0  1  0  0  0  0  0  0  0  0  0
   -0.1408   -1.0795    0.0507 H   0  0  0  0  0  0  0  0  0  0  0  0
   -1.0432    0.7243   -0.6879 C   0  0  0  0  0  0  0  0  0  0  0  0
   -1.8605    1.3916   -0.4109 H   0  0  0  0  0  0  0  0  0  0  0  0
   -0.1211    1.3068   -0.6604 H   0  0  0  0  0  0  0  0  0  0  0  0
   -1.2892    0.2431   -2.1053 C   0  0  0  0  0  0  0  0  0  0  0  0
   -2.5602    0.3805   -2.6947 C   0  0  0  0  0  0  0  0  0  0  0  0
   -3.3763    0.8102   -2.1310 H   0  0  0  0  0  0  0  0  0  0  0  0
   -2.7700   -0.0305   -4.0240 C   0  0  0  0  0  0  0  0  0  0  0  0
   -3.7474    0.0736   -4.4738 H   0  0  0  0  0  0  0  0  0  0  0  0
   -1.7097   -0.5774   -4.7664 C   0  0  0  0  0  0  0  0  0  0  0  0
   -1.8715   -0.8954   -5.7869 H   0  0  0  0  0  0  0  0  0  0  0  0
   -0.4387   -0.7175   -4.1800 C   0  0  0  0  0  0  0  0  0  0  0  0
    0.3750   -1.1430   -4.7488 H   0  0  0  0  0  0  0  0  0  0  0  0
   -0.2302   -0.3098   -2.8504 C   0  0  0  0  0  0  0  0  0  0  0  0
    0.7472   -0.4212   -2.3993 H   0  0  0  0  0  0  0  0  0  0  0  0
   -0.6196    0.1253    1.7539 C   0  0  0  0  0  0  0  0  0  0  0  0
    0.5216    0.0194    2.2054 O   0  0  0  0  0  0  0  0  0  0  0  0
   -1.6152    0.6924    2.4469 N   0  0  0  0  0  0  0  0  0  0  0  0
   -2.5345    0.6914    2.0318 H   0  0  0  0  0  0  0  0  0  0  0  0
   -1.4720    1.2390    3.7941 C   0  0  0  0  0  0  0  0  0  0  0  0
   -0.6345    1.9391    3.8219 H   0  0  0  0  0  0  0  0  0  0  0  0
   -2.3844    1.7580    4.0892 H   0  0  0  0  0  0  0  0  0  0  0  0
   -1.2733    0.4298    4.4995 H   0  0  0  0  0  0  0  0  0  0  0  0
  5  6  2  0  0  0  0
  5  7  1  0  0  0  0
  2  3  1  0  0  0  0
  2  4  1  0  0  0  0
  2  5  1  0  0  0  0
  1  2  1  0  0  0  0
 25 26  2  0  0  0  0
 25 27  1  0  0  0  0
 23 24  1  0  0  0  0
 21 22  1  0  0  0  0
 21 23  2  0  0  0  0
 19 20  1  0  0  0  0
 19 21  1  0  0  0  0
 17 18  1  0  0  0  0
 17 19  2  0  0  0  0
 15 16  1  0  0  0  0
 15 17  1  0  0  0  0
 14 15  2  0  0  0  0
 14 23  1  0  0  0  0
 11 12  1  0  0  0  0
 11 13  1  0  0  0  0
 11 14  1  0  0  0  0
  9 10  1  0  0  0  0
  9 11  1  0  0  0  0
  9 25  1  0  0  0  0
  7  8  1  0  0  0  0
  7  9  1  0  0  0  0
 29 30  1  0  0  0  0
 29 31  1  0  0  0  0
 29 32  1  0  0  0  0
 27 28  1  0  0  0  0
 27 29  1  0  0  0  0
M  END
$$$$
default_name
  -OEChem-02102213163D

 32 32  0     1  0  0  0  0  0999 V2000
   -3.8405   -3.7518    1.6252 H   0  0  0  0  0  0  0  0  0  0  0  0
   -3.7965   -2.8768    0.9782 C   0  0  0  0  0  0  0  0  0  0  0  0
   -4.5465   -2.1527    1.2902 H   0  0  0  0  0  0  0  0  0  0  0  0
   -3.9745   -3.1748   -0.0538 H   0  0  0  0  0  0  0  0  0  0  0  0
   -2.4245   -2.2537    1.0882 C   0  0  0  0  0  0  0  0  0  0  0  0
   -1.5805   -2.7478    1.8242 O   0  0  0  0  0  0  0  0  0  0  0  0
   -2.2045   -1.1637    0.3562 N   0  0  0  0  0  0  0  0  0  0  0  0
   -2.9595   -0.7907   -0.2008 H   0  0  0  0  0  0  0  0  0  0  0  0
   -0.9485   -0.4087    0.3482 C   0  0  1  0  0  0  0  0  0  0  0  0
   -0.1408   -1.0795    0.0507 H   0  0  0  0  0  0  0  0  0  0  0  0
   -1.0432    0.7243   -0.6879 C   0  0  0  0  0  0  0  0  0  0  0  0
   -1.8605    1.3916   -0.4109 H   0  0  0  0  0  0  0  0  0  0  0  0
   -0.1211    1.3068   -0.6604 H   0  0  0  0  0  0  0  0  0  0  0  0
   -1.2892    0.2431   -2.1053 C   0  0  0  0  0  0  0  0  0  0  0  0
   -2.4392    0.6508   -2.8074 C   0  0  0  0  0  0  0  0  0  0  0  0
   -3.1669    1.2925   -2.3311 H   0  0  0  0  0  0  0  0  0  0  0  0
   -2.6398    0.2335   -4.1362 C   0  0  0  0  0  0  0  0  0  0  0  0
   -3.5249    0.5456   -4.6727 H   0  0  0  0  0  0  0  0  0  0  0  0
   -1.6908   -0.5899   -4.7655 C   0  0  0  0  0  0  0  0  0  0  0  0
   -1.8462   -0.9124   -5.7855 H   0  0  0  0  0  0  0  0  0  0  0  0
   -0.5413   -1.0003   -4.0662 C   0  0  0  0  0  0  0  0  0  0  0  0
    0.1856   -1.6377   -4.5479 H   0  0  0  0  0  0  0  0  0  0  0  0
   -0.3427   -0.5859   -2.7372 C   0  0  0  0  0  0  0  0  0  0  0  0
    0.5405   -0.9050   -2.1992 H   0  0  0  0  0  0  0  0  0  0  0  0
   -0.6196    0.1253    1.7539 C   0  0  0  0  0  0  0  0  0  0  0  0
    0.5216    0.0194    2.2054 O   0  0  0  0  0  0  0  0  0  0  0  0
   -1.6152    0.6924    2.4469 N   0  0  0  0  0  0  0  0  0  0  0  0
   -2.5345    0.6914    2.0318 H   0  0  0  0  0  0  0  0  0  0  0  0
   -1.4720    1.2390    3.7941 C   0  0  0  0  0  0  0  0  0  0  0  0
   -0.6345    1.9391    3.8219 H   0  0  0  0  0  0  0  0  0  0  0  0
   -2.3844    1.7580    4.0892 H   0  0  0  0  0  0  0  0  0  0  0  0
   -1.2733    0.4298    4.4995 H   0  0  0  0  0  0  0  0  0  0  0  0
  5  6  2  0  0  0  0
  5  7  1  0  0  0  0
  2  3  1  0  0  0  0
  2  4  1  0  0  0  0
  2  5  1  0  0  0  0
  1  2  1  0  0  0  0
 25 26  2  0  0  0  0
 25 27  1  0  0  0  0
 23 24  1  0  0  0  0
 21 22  1  0  0  0  0
 21 23  2  0  0  0  0
 19 20  1  0  0  0  0
 19 21  1  0  0  0  0
 17 18  1  0  0  0  0
 17 19  2  0  0  0  0
 15 16  1  0  0  0  0
 15 17  1  0  0  0  0
 14 15  2  0  0  0  0
 14 23  1  0  0  0  0
 11 12  1  0  0  0  0
 11 13  1  0  0  0  0
 11 14  1  0  0  0  0
  9 10  1  0  0  0  0
  9 11  1  0  0  0  0
  9 25  1  0  0  0  0
  7  8  1  0  0  0  0
  7  9  1  0  0  0  0
 29 30  1  0  0  0  0
 29 31  1  0  0  0  0
 29 32  1  0  0  0  0
 27 28  1  0  0  0  0
 27 29  1  0  0  0  0
M  END
$$$$
default_name
  -OEChem-02102213163D

 32 32  0     1  0  0  0  0  0999 V2000
   -3.8405   -3.7518    1.6252 H   0  0  0  0  0  0  0  0  0  0  0  0
   -3.7965   -2.8768    0.9782 C   0  0  0  0  0  0  0  0  0  0  0  0
   -4.5465   -2.1527    1.2902 H   0  0  0  0  0  0  0  0  0  0  0  0
   -3.9745   -3.1748   -0.0538 H   0  0  0  0  0  0  0  0  0  0  0  0
   -2.4245   -2.2537    1.0882 C   0  0  0  0  0  0  0  0  0  0  0  0
   -1.5805   -2.7478    1.8242 O   0  0  0  0  0  0  0  0  0  0  0  0
   -2.2045   -1.1637    0.3562 N   0  0  0  0  0  0  0  0  0  0  0  0
   -2.9595   -0.7907   -0.2008 H   0  0  0  0  0  0  0  0  0  0  0  0
   -0.9485   -0.4087    0.3482 C   0  0  1  0  0  0  0  0  0  0  0  0
   -0.1408   -1.0795    0.0507 H   0  0  0  0  0  0  0  0  0  0  0  0
   -1.0432    0.7243   -0.6879 C   0  0  0  0  0  0  0  0  0  0  0  0
   -1.8605    1.3916   -0.4109 H   0  0  0  0  0  0  0  0  0  0  0  0
   -0.1211    1.3068   -0.6604 H   0  0  0  0  0  0  0  0  0  0  0  0
   -1.2892    0.2431   -2.1053 C   0  0  0  0  0  0  0  0  0  0  0  0
   -2.2477    0.8778   -2.9178 C   0  0  0  0  0  0  0  0  0  0  0  0
   -2.8316    1.6994   -2.5275 H   0  0  0  0  0  0  0  0  0  0  0  0
   -2.4411    0.4523   -4.2450 C   0  0  0  0  0  0  0  0  0  0  0  0
   -3.1795    0.9394   -4.8663 H   0  0  0  0  0  0  0  0  0  0  0  0
   -1.6757   -0.6064   -4.7625 C   0  0  0  0  0  0  0  0  0  0  0  0
   -1.8260   -0.9348   -5.7814 H   0  0  0  0  0  0  0  0  0  0  0  0
   -0.7181   -1.2439   -3.9528 C   0  0  0  0  0  0  0  0  0  0  0  0
   -0.1335   -2.0613   -4.3487 H   0  0  0  0  0  0  0  0  0  0  0  0
   -0.5274   -0.8206   -2.6254 C   0  0  0  0  0  0  0  0  0  0  0  0
    0.2073   -1.3140   -2.0025 H   0  0  0  0  0  0  0  0  0  0  0  0
   -0.6196    0.1253    1.7539 C   0  0  0  0  0  0  0  0  0  0  0  0
    0.5216    0.0194    2.2054 O   0  0  0  0  0  0  0  0  0  0  0  0
   -1.6152    0.6924    2.4469 N   0  0  0  0  0  0  0  0  0  0  0  0
   -2.5345    0.6914    2.0318 H   0  0  0  0  0  0  0  0  0  0  0  0
   -1.4720    1.2390    3.7941 C   0  0  0  0  0  0  0  0  0  0  0  0
   -0.6345    1.9391    3.8219 H   0  0  0  0  0  0  0  0  0  0  0  0
   -2.3844    1.7580    4.0892 H   0  0  0  0  0  0  0  0  0  0  0  0
   -1.2733    0.4298    4.4995 H   0  0  0  0  0  0  0  0  0  0  0  0
  5  6  2  0  0  0  0
  5  7  1  0  0  0  0
  2  3  1  0  0  0  0
  2  4  1  0  0  0  0
  2  5  1  0  0  0  0
  1  2  1  0  0  0  0
 25 26  2  0  0  0  0
 25 27  1  0  0  0  0
 23 24  1  0  0  0  0
 21 22  1  0  0  0  0
 21 23  2  0  0  0  0
 19 20  1  0  0  0  0
 19 21  1  0  0  0  0
 17 18  1  0  0  0  0
 17 19  2  0  0  0  0
 15 16  1  0  0  0  0
 15 17  1  0  0  0  0
 14 15  2  0  0  0  0
 14 23  1  0  0  0  0
 11 12  1  0  0  0  0
 11 13  1  0  0  0  0
 11 14  1  0  0  0  0
  9 10  1  0  0  0  0
  9 11  1  0  0  0  0
  9 25  1  0  0  0  0
  7  8  1  0  0  0  0
  7  9  1  0  0  0  0
 29 30  1  0  0  0  0
 29 31  1  0  0  0  0
 29 32  1  0  0  0  0
 27 28  1  0  0  0  0
 27 29  1  0  0  0  0
M  END
$$$$
default_name
  -OEChem-02102213163D

 32 32  0     1  0  0  0  0  0999 V2000
   -3.8405   -3.7518    1.6252 H   0  0  0  0  0  0  0  0  0  0  0  0
   -3.7965   -2.8768    0.9782 C   0  0  0  0  0  0  0  0  0  0  0  0
   -4.5465   -2.1527    1.2902 H   0  0  0  0  0  0  0  0  0  0  0  0
   -3.9745   -3.1748   -0.0538 H   0  0  0  0  0  0  0  0  0  0  0  0
   -2.4245   -2.2537    1.0882 C   0  0  0  0  0  0  0  0  0  0  0  0
   -1.5805   -2.7478    1.8242 O   0  0  0  0  0  0  0  0  0  0  0  0
   -2.2045   -1.1637    0.3562 N   0  0  0  0  0  0  0  0  0  0  0  0
   -2.9595   -0.7907   -0.2008 H   0  0  0  0  0  0  0  0  0  0  0  0
   -0.9485   -0.4087    0.3482 C   0  0  1  0  0  0  0  0  0  0  0  0
   -0.1408   -1.0795    0.0507 H   0  0  0  0  0  0  0  0  0  0  0  0
   -1.0432    0.7243   -0.6879 C   0  0  0  0  0  0  0  0  0  0  0  0
   -1.8605    1.3916   -0.4109 H   0  0  0  0  0  0  0  0  0  0  0  0
   -0.1211    1.3068   -0.6604 H   0  0  0  0  0  0  0  0  0  0  0  0
   -1.2892    0.2431   -2.1053 C   0  0  0  0  0  0  0  0  0  0  0  0
   -1.9988    1.0462   -3.0181 C   0  0  0  0  0  0  0  0  0  0  0  0
   -2.3932    2.0031   -2.7067 H   0  0  0  0  0  0  0  0  0  0  0  0
   -2.1872    0.6111   -4.3429 C   0  0  0  0  0  0  0  0  0  0  0  0
   -2.7347    1.2281   -5.0416 H   0  0  0  0  0  0  0  0  0  0  0  0
   -1.6654   -0.6260   -4.7577 C   0  0  0  0  0  0  0  0  0  0  0  0
   -1.8122   -0.9613   -5.7748 H   0  0  0  0  0  0  0  0  0  0  0  0
   -0.9571   -1.4316   -3.8476 C   0  0  0  0  0  0  0  0  0  0  0  0
   -0.5605   -2.3850   -4.1647 H   0  0  0  0  0  0  0  0  0  0  0  0
   -0.7717   -0.9980   -2.5228 C   0  0  0  0  0  0  0  0  0  0  0  0
   -0.2295   -1.6202   -1.8227 H   0  0  0  0  0  0  0  0  0  0  0  0
   -0.6196    0.1253    1.7539 C   0  0  0  0  0  0  0  0  0  0  0  0
    0.5216    0.0194    2.2054 O   0  0  0  0  0  0  0  0  0  0  0  0
   -1.6152    0.6924    2.4469 N   0  0  0  0  0  0  0  0  0  0  0  0
   -2.5345    0.6914    2.0318 H   0  0  0  0  0  0  0  0  0  0  0  0
   -1.4720    1.2390    3.7941 C   0  0  0  0  0  0  0  0  0  0  0  0
   -0.6345    1.9391    3.8219 H   0  0  0  0  0  0  0  0  0  0  0  0
   -2.3844    1.7580    4.0892 H   0  0  0  0  0  0  0  0  0  0  0  0
   -1.2733    0.4298    4.4995 H   0  0  0  0  0  0  0  0  0  0  0  0
  5  6  2  0  0  0  0
  5  7  1  0  0  0  0
  2  3  1  0  0  0  0
  2  4  1  0  0  0  0
  2  5  1  0  0  0  0
  1  2  1  0  0  0  0
 25 26  2  0  0  0  0
 25 27  1  0  0  0  0
 23 24  1  0  0  0  0
 21 22  1  0  0  0  0
 21 23  2  0  0  0  0
 19 20  1  0  0  0  0
 19 21  1  0  0  0  0
 17 18  1  0  0  0  0
 17 19  2  0  0  0  0
 15 16  1  0  0  0  0
 15 17  1  0  0  0  0
 14 15  2  0  0  0  0
 14 23  1  0  0  0  0
 11 12  1  0  0  0  0
 11 13  1  0  0  0  0
 11 14  1  0  0  0  0
  9 10  1  0  0  0  0
  9 11  1  0  0  0  0
  9 25  1  0  0  0  0
  7  8  1  0  0  0  0
  7  9  1  0  0  0  0
 29 30  1  0  0  0  0
 29 31  1  0  0  0  0
 29 32  1  0  0  0  0
 27 28  1  0  0  0  0
 27 29  1  0  0  0  0
M  END
$$$$
default_name
  -OEChem-02102213163D

 32 32  0     1  0  0  0  0  0999 V2000
   -3.8405   -3.7518    1.6252 H   0  0  0  0  0  0  0  0  0  0  0  0
   -3.7965   -2.8768    0.9782 C   0  0  0  0  0  0  0  0  0  0  0  0
   -4.5465   -2.1527    1.2902 H   0  0  0  0  0  0  0  0  0  0  0  0
   -3.9745   -3.1748   -0.0538 H   0  0  0  0  0  0  0  0  0  0  0  0
   -2.4245   -2.2537    1.0882 C   0  0  0  0  0  0  0  0  0  0  0  0
   -1.5805   -2.7478    1.8242 O   0  0  0  0  0  0  0  0  0  0  0  0
   -2.2045   -1.1637    0.3562 N   0  0  0  0  0  0  0  0  0  0  0  0
   -2.9595   -0.7907   -0.2008 H   0  0  0  0  0  0  0  0  0  0  0  0
   -0.9485   -0.4087    0.3482 C   0  0  1  0  0  0  0  0  0  0  0  0
   -0.1408   -1.0795    0.0507 H   0  0  0  0  0  0  0  0  0  0  0  0
   -1.0432    0.7243   -0.6879 C   0  0  0  0  0  0  0  0  0  0  0  0
   -1.8605    1.3916   -0.4109 H   0  0  0  0  0  0  0  0  0  0  0  0
   -0.1211    1.3068   -0.6604 H   0  0  0  0  0  0  0  0  0  0  0  0
   -1.2892    0.2431   -2.1053 C   0  0  0  0  0  0  0  0  0  0  0  0
   -1.7094    1.1444   -3.1017 C   0  0  0  0  0  0  0  0  0  0  0  0
   -1.8815    2.1829   -2.8565 H   0  0  0  0  0  0  0  0  0  0  0  0
   -1.8956    0.6989   -4.4233 C   0  0  0  0  0  0  0  0  0  0  0  0
   -2.2208    1.3921   -5.1864 H   0  0  0  0  0  0  0  0  0  0  0  0
   -1.6605   -0.6471   -4.7513 C   0  0  0  0  0  0  0  0  0  0  0  0
   -1.8059   -0.9899   -5.7662 H   0  0  0  0  0  0  0  0  0  0  0  0
   -1.2419   -1.5507   -3.7577 C   0  0  0  0  0  0  0  0  0  0  0  0
   -1.0664   -2.5866   -4.0085 H   0  0  0  0  0  0  0  0  0  0  0  0
   -1.0591   -1.1059   -2.4363 C   0  0  0  0  0  0  0  0  0  0  0  0
   -0.7403   -1.8028   -1.6721 H   0  0  0  0  0  0  0  0  0  0  0  0
   -0.6196    0.1253    1.7539 C   0  0  0  0  0  0  0  0  0  0  0  0
    0.5216    0.0194    2.2054 O   0  0  0  0  0  0  0  0  0  0  0  0
   -1.6152    0.6924    2.4469 N   0  0  0  0  0  0  0  0  0  0  0  0
   -2.5345    0.6914    2.0318 H   0  0  0  0  0  0  0  0  0  0  0  0
   -1.4720    1.2390    3.7941 C   0  0  0  0  0  0  0  0  0  0  0  0
   -0.6345    1.9391    3.8219 H   0  0  0  0  0  0  0  0  0  0  0  0
   -2.3844    1.7580    4.0892 H   0  0  0  0  0  0  0  0  0  0  0  0
   -1.2733    0.4298    4.4995 H   0  0  0  0  0  0  0  0  0  0  0  0
  5  6  2  0  0  0  0
  5  7  1  0  0  0  0
  2  3  1  0  0  0  0
  2  4  1  0  0  0  0
  2  5  1  0  0  0  0
  1  2  1  0  0  0  0
 25 26  2  0  0  0  0
 25 27  1  0  0  0  0
 23 24  1  0  0  0  0
 21 22  1  0  0  0  0
 21 23  2  0  0  0  0
 19 20  1  0  0  0  0
 19 21  1  0  0  0  0
 17 18  1  0  0  0  0
 17 19  2  0  0  0  0
 15 16  1  0  0  0  0
 15 17  1  0  0  0  0
 14 15  2  0  0  0  0
 14 23  1  0  0  0  0
 11 12  1  0  0  0  0
 11 13  1  0  0  0  0
 11 14  1  0  0  0  0
  9 10  1  0  0  0  0
  9 11  1  0  0  0  0
  9 25  1  0  0  0  0
  7  8  1  0  0  0  0
  7  9  1  0  0  0  0
 29 30  1  0  0  0  0
 29 31  1  0  0  0  0
 29 32  1  0  0  0  0
 27 28  1  0  0  0  0
 27 29  1  0  0  0  0
M  END
$$$$
default_name
  -OEChem-02102213163D

 32 32  0     1  0  0  0  0  0999 V2000
   -3.8405   -3.7518    1.6252 H   0  0  0  0  0  0  0  0  0  0  0  0
   -3.7965   -2.8768    0.9782 C   0  0  0  0  0  0  0  0  0  0  0  0
   -4.5465   -2.1527    1.2902 H   0  0  0  0  0  0  0  0  0  0  0  0
   -3.9745   -3.1748   -0.0538 H   0  0  0  0  0  0  0  0  0  0  0  0
   -2.4245   -2.2537    1.0882 C   0  0  0  0  0  0  0  0  0  0  0  0
   -1.5805   -2.7478    1.8242 O   0  0  0  0  0  0  0  0  0  0  0  0
   -2.2045   -1.1637    0.3562 N   0  0  0  0  0  0  0  0  0  0  0  0
   -2.9595   -0.7907   -0.2008 H   0  0  0  0  0  0  0  0  0  0  0  0
   -0.9485   -0.4087    0.3482 C   0  0  1  0  0  0  0  0  0  0  0  0
   -0.1408   -1.0795    0.0507 H   0  0  0  0  0  0  0  0  0  0  0  0
   -1.0432    0.7243   -0.6879 C   0  0  0  0  0  0  0  0  0  0  0  0
   -1.6643    1.5247   -0.2833 H   0  0  0  0  0  0  0  0  0  0  0  0
   -0.0465    1.1356   -0.8545 H   0  0  0  0  0  0  0  0  0  0  0  0
   -1.6361    0.2952   -2.0165 C   0  0  0  0  0  0  0  0  0  0  0  0
   -1.7861    1.2239   -3.0639 C   0  0  0  0  0  0  0  0  0  0  0  0
   -1.4998    2.2561   -2.9191 H   0  0  0  0  0  0  0  0  0  0  0  0
   -2.2986    0.8092   -4.3070 C   0  0  0  0  0  0  0  0  0  0  0  0
   -2.4153    1.5245   -5.1090 H   0  0  0  0  0  0  0  0  0  0  0  0
   -2.6600   -0.5341   -4.5057 C   0  0  0  0  0  0  0  0  0  0  0  0
   -3.0559   -0.8521   -5.4600 H   0  0  0  0  0  0  0  0  0  0  0  0
   -2.5128   -1.4644   -3.4608 C   0  0  0  0  0  0  0  0  0  0  0  0
   -2.7956   -2.4959   -3.6116 H   0  0  0  0  0  0  0  0  0  0  0  0
   -2.0037   -1.0490   -2.2175 C   0  0  0  0  0  0  0  0  0  0  0  0
   -1.8941   -1.7649   -1.4134 H   0  0  0  0  0  0  0  0  0  0  0  0
   -0.6196    0.1253    1.7539 C   0  0  0  0  0  0  0  0  0  0  0  0
    0.5216    0.0194    2.2054 O   0  0  0  0  0  0  0  0  0  0  0  0
   -1.6152    0.6924    2.4469 N   0  0  0  0  0  0  0  0  0  0  0  0
   -2.5345    0.6914    2.0318 H   0  0  0  0  0  0  0  0  0  0  0  0
   -1.4720    1.2390    3.7941 C   0  0  0  0  0  0  0  0  0  0  0  0
   -0.6345    1.9391    3.8219 H   0  0  0  0  0  0  0  0  0  0  0  0
   -2.3844    1.7580    4.0892 H   0  0  0  0  0  0  0  0  0  0  0  0
   -1.2733    0.4298    4.4995 H   0  0  0  0  0  0  0  0  0  0  0  0
  5  6  2  0  0  0  0
  5  7  1  0  0  0  0
  2  3  1  0  0  0  0
  2  4  1  0  0  0  0
  2  5  1  0  0  0  0
  1  2  1  0  0  0  0
 25 26  2  0  0  0  0
 25 27  1  0  0  0  0
 23 24  1  0  0  0  0
 21 22  1  0  0  0  0
 21 23  2  0  0  0  0
 19 20  1  0  0  0  0
 19 21  1  0  0  0  0
 17 18  1  0  0  0  0
 17 19  2  0  0  0  0
 15 16  1  0  0  0  0
 15 17  1  0  0  0  0
 14 15  2  0  0  0  0
 14 23  1  0  0  0  0
 11 12  1  0  0  0  0
 11 13  1  0  0  0  0
 11 14  1  0  0  0  0
  9 10  1  0  0  0  0
  9 11  1  0  0  0  0
  9 25  1  0  0  0  0
  7  8  1  0  0  0  0
  7  9  1  0  0  0  0
 29 30  1  0  0  0  0
 29 31  1  0  0  0  0
 29 32  1  0  0  0  0
 27 28  1  0  0  0  0
 27 29  1  0  0  0  0
M  END
$$$$
default_name
  -OEChem-02102213163D

 32 32  0     1  0  0  0  0  0999 V2000
   -3.8405   -3.7518    1.6252 H   0  0  0  0  0  0  0  0  0  0  0  0
   -3.7965   -2.8768    0.9782 C   0  0  0  0  0  0  0  0  0  0  0  0
   -4.5465   -2.1527    1.2902 H   0  0  0  0  0  0  0  0  0  0  0  0
   -3.9745   -3.1748   -0.0538 H   0  0  0  0  0  0  0  0  0  0  0  0
   -2.4245   -2.2537    1.0882 C   0  0  0  0  0  0  0  0  0  0  0  0
   -1.5805   -2.7478    1.8242 O   0  0  0  0  0  0  0  0  0  0  0  0
   -2.2045   -1.1637    0.3562 N   0  0  0  0  0  0  0  0  0  0  0  0
   -2.9595   -0.7907   -0.2008 H   0  0  0  0  0  0  0  0  0  0  0  0
   -0.9485   -0.4087    0.3482 C   0  0  1  0  0  0  0  0  0  0  0  0
   -0.1408   -1.0795    0.0507 H   0  0  0  0  0  0  0  0  0  0  0  0
   -1.0432    0.7243   -0.6879 C   0  0  0  0  0  0  0  0  0  0  0  0
   -1.6643    1.5247   -0.2833 H   0  0  0  0  0  0  0  0  0  0  0  0
   -0.0465    1.1356   -0.8545 H   0  0  0  0  0  0  0  0  0  0  0  0
   -1.6361    0.2952   -2.0165 C   0  0  0  0  0  0  0  0  0  0  0  0
   -1.5033    1.1134   -3.1544 C   0  0  0  0  0  0  0  0  0  0  0  0
   -0.9963    2.0653   -3.0822 H   0  0  0  0  0  0  0  0  0  0  0  0
   -2.0200    0.6897   -4.3927 C   0  0  0  0  0  0  0  0  0  0  0  0
   -1.9192    1.3207   -5.2646 H   0  0  0  0  0  0  0  0  0  0  0  0
   -2.6684   -0.5527   -4.4960 C   0  0  0  0  0  0  0  0  0  0  0  0
   -3.0674   -0.8771   -5.4468 H   0  0  0  0  0  0  0  0  0  0  0  0
   -2.8041   -1.3721   -3.3605 C   0  0  0  0  0  0  0  0  0  0  0  0
   -3.3072   -2.3247   -3.4386 H   0  0  0  0  0  0  0  0  0  0  0  0
   -2.2905   -0.9469   -2.1225 C   0  0  0  0  0  0  0  0  0  0  0  0
   -2.3986   -1.5767   -1.2490 H   0  0  0  0  0  0  0  0  0  0  0  0
   -0.6196    0.1253    1.7539 C   0  0  0  0  0  0  0  0  0  0  0  0
    0.5216    0.0194    2.2054 O   0  0  0  0  0  0  0  0  0  0  0  0
   -1.6152    0.6924    2.4469 N   0  0  0  0  0  0  0  0  0  0  0  0
   -2.5345    0.6914    2.0318 H   0  0  0  0  0  0  0  0  0  0  0  0
   -1.4720    1.2390    3.7941 C   0  0  0  0  0  0  0  0  0  0  0  0
   -0.6345    1.9391    3.8219 H   0  0  0  0  0  0  0  0  0  0  0  0
   -2.3844    1.7580    4.0892 H   0  0  0  0  0  0  0  0  0  0  0  0
   -1.2733    0.4298    4.4995 H   0  0  0  0  0  0  0  0  0  0  0  0
  5  6  2  0  0  0  0
  5  7  1  0  0  0  0
  2  3  1  0  0  0  0
  2  4  1  0  0  0  0
  2  5  1  0  0  0  0
  1  2  1  0  0  0  0
 25 26  2  0  0  0  0
 25 27  1  0  0  0  0
 23 24  1  0  0  0  0
 21 22  1  0  0  0  0
 21 23  2  0  0  0  0
 19 20  1  0  0  0  0
 19 21  1  0  0  0  0
 17 18  1  0  0  0  0
 17 19  2  0  0  0  0
 15 16  1  0  0  0  0
 15 17  1  0  0  0  0
 14 15  2  0  0  0  0
 14 23  1  0  0  0  0
 11 12  1  0  0  0  0
 11 13  1  0  0  0  0
 11 14  1  0  0  0  0
  9 10  1  0  0  0  0
  9 11  1  0  0  0  0
  9 25  1  0  0  0  0
  7  8  1  0  0  0  0
  7  9  1  0  0  0  0
 29 30  1  0  0  0  0
 29 31  1  0  0  0  0
 29 32  1  0  0  0  0
 27 28  1  0  0  0  0
 27 29  1  0  0  0  0
M  END
$$$$
default_name
  -OEChem-02102213163D

 32 32  0     1  0  0  0  0  0999 V2000
   -3.8405   -3.7518    1.6252 H   0  0  0  0  0  0  0  0  0  0  0  0
   -3.7965   -2.8768    0.9782 C   0  0  0  0  0  0  0  0  0  0  0  0
   -4.5465   -2.1527    1.2902 H   0  0  0  0  0  0  0  0  0  0  0  0
   -3.9745   -3.1748   -0.0538 H   0  0  0  0  0  0  0  0  0  0  0  0
   -2.4245   -2.2537    1.0882 C   0  0  0  0  0  0  0  0  0  0  0  0
   -1.5805   -2.7478    1.8242 O   0  0  0  0  0  0  0  0  0  0  0  0
   -2.2045   -1.1637    0.3562 N   0  0  0  0  0  0  0  0  0  0  0  0
   -2.9595   -0.7907   -0.2008 H   0  0  0  0  0  0  0  0  0  0  0  0
   -0.9485   -0.4087    0.3482 C   0  0  1  0  0  0  0  0  0  0  0  0
   -0.1408   -1.0795    0.0507 H   0  0  0  0  0  0  0  0  0  0  0  0
   -1.0432    0.7243   -0.6879 C   0  0  0  0  0  0  0  0  0  0  0  0
   -1.6643    1.5247   -0.2833 H   0  0  0  0  0  0  0  0  0  0  0  0
   -0.0465    1.1356   -0.8545 H   0  0  0  0  0  0  0  0  0  0  0  0
   -1.6361    0.2952   -2.0165 C   0  0  0  0  0  0  0  0  0  0  0  0
   -1.2485    0.9334   -3.2100 C   0  0  0  0  0  0  0  0  0  0  0  0
   -0.5413    1.7504   -3.1836 H   0  0  0  0  0  0  0  0  0  0  0  0
   -1.7718    0.5025   -4.4430 C   0  0  0  0  0  0  0  0  0  0  0  0
   -1.4748    0.9956   -5.3580 H   0  0  0  0  0  0  0  0  0  0  0  0
   -2.6814   -0.5678   -4.4853 C   0  0  0  0  0  0  0  0  0  0  0  0
   -3.0852   -0.8973   -5.4324 H   0  0  0  0  0  0  0  0  0  0  0  0
   -3.0719   -1.2068   -3.2944 C   0  0  0  0  0  0  0  0  0  0  0  0
   -3.7753   -2.0259   -3.3262 H   0  0  0  0  0  0  0  0  0  0  0  0
   -2.5514   -0.7737   -2.0620 C   0  0  0  0  0  0  0  0  0  0  0  0
   -2.8552   -1.2639   -1.1462 H   0  0  0  0  0  0  0  0  0  0  0  0
   -0.6196    0.1253    1.7539 C   0  0  0  0  0  0  0  0  0  0  0  0
    0.5216    0.0194    2.2054 O   0  0  0  0  0  0  0  0  0  0  0  0
   -1.6152    0.6924    2.4469 N   0  0  0  0  0  0  0  0  0  0  0  0
   -2.5345    0.6914    2.0318 H   0  0  0  0  0  0  0  0  0  0  0  0
   -1.4720    1.2390    3.7941 C   0  0  0  0  0  0  0  0  0  0  0  0
   -0.6345    1.9391    3.8219 H   0  0  0  0  0  0  0  0  0  0  0  0
   -2.3844    1.7580    4.0892 H   0  0  0  0  0  0  0  0  0  0  0  0
   -1.2733    0.4298    4.4995 H   0  0  0  0  0  0  0  0  0  0  0  0
  5  6  2  0  0  0  0
  5  7  1  0  0  0  0
  2  3  1  0  0  0  0
  2  4  1  0  0  0  0
  2  5  1  0  0  0  0
  1  2  1  0  0  0  0
 25 26  2  0  0  0  0
 25 27  1  0  0  0  0
 23 24  1  0  0  0  0
 21 22  1  0  0  0  0
 21 23  2  0  0  0  0
 19 20  1  0  0  0  0
 19 21  1  0  0  0  0
 17 18  1  0  0  0  0
 17 19  2  0  0  0  0
 15 16  1  0  0  0  0
 15 17  1  0  0  0  0
 14 15  2  0  0  0  0
 14 23  1  0  0  0  0
 11 12  1  0  0  0  0
 11 13  1  0  0  0  0
 11 14  1  0  0  0  0
  9 10  1  0  0  0  0
  9 11  1  0  0  0  0
  9 25  1  0  0  0  0
  7  8  1  0  0  0  0
  7  9  1  0  0  0  0
 29 30  1  0  0  0  0
 29 31  1  0  0  0  0
 29 32  1  0  0  0  0
 27 28  1  0  0  0  0
 27 29  1  0  0  0  0
M  END
$$$$
default_name
  -OEChem-02102213163D

 32 32  0     1  0  0  0  0  0999 V2000
   -3.8405   -3.7518    1.6252 H   0  0  0  0  0  0  0  0  0  0  0  0
   -3.7965   -2.8768    0.9782 C   0  0  0  0  0  0  0  0  0  0  0  0
   -4.5465   -2.1527    1.2902 H   0  0  0  0  0  0  0  0  0  0  0  0
   -3.9745   -3.1748   -0.0538 H   0  0  0  0  0  0  0  0  0  0  0  0
   -2.4245   -2.2537    1.0882 C   0  0  0  0  0  0  0  0  0  0  0  0
   -1.5805   -2.7478    1.8242 O   0  0  0  0  0  0  0  0  0  0  0  0
   -2.2045   -1.1637    0.3562 N   0  0  0  0  0  0  0  0  0  0  0  0
   -2.9595   -0.7907   -0.2008 H   0  0  0  0  0  0  0  0  0  0  0  0
   -0.9485   -0.4087    0.3482 C   0  0  1  0  0  0  0  0  0  0  0  0
   -0.1408   -1.0795    0.0507 H   0  0  0  0  0  0  0  0  0  0  0  0
   -1.0432    0.7243   -0.6879 C   0  0  0  0  0  0  0  0  0  0  0  0
   -1.6643    1.5247   -0.2833 H   0  0  0  0  0  0  0  0  0  0  0  0
   -0.0465    1.1356   -0.8545 H   0  0  0  0  0  0  0  0  0  0  0  0
   -1.6361    0.2952   -2.0165 C   0  0  0  0  0  0  0  0  0  0  0  0
   -1.0392    0.6962   -3.2268 C   0  0  0  0  0  0  0  0  0  0  0  0
   -0.1657    1.3327   -3.2164 H   0  0  0  0  0  0  0  0  0  0  0  0
   -1.5708    0.2602   -4.4545 C   0  0  0  0  0  0  0  0  0  0  0  0
   -1.1124    0.5714   -5.3827 H   0  0  0  0  0  0  0  0  0  0  0  0
   -2.6982   -0.5784   -4.4744 C   0  0  0  0  0  0  0  0  0  0  0  0
   -3.1079   -0.9114   -5.4177 H   0  0  0  0  0  0  0  0  0  0  0  0
   -3.2980   -0.9797   -3.2668 C   0  0  0  0  0  0  0  0  0  0  0  0
   -4.1679   -1.6199   -3.2821 H   0  0  0  0  0  0  0  0  0  0  0  0
   -2.7685   -0.5411   -2.0402 C   0  0  0  0  0  0  0  0  0  0  0  0
   -3.2329   -0.8479   -1.1120 H   0  0  0  0  0  0  0  0  0  0  0  0
   -0.6196    0.1253    1.7539 C   0  0  0  0  0  0  0  0  0  0  0  0
    0.5216    0.0194    2.2054 O   0  0  0  0  0  0  0  0  0  0  0  0
   -1.6152    0.6924    2.4469 N   0  0  0  0  0  0  0  0  0  0  0  0
   -2.5345    0.6914    2.0318 H   0  0  0  0  0  0  0  0  0  0  0  0
   -1.4720    1.2390    3.7941 C   0  0  0  0  0  0  0  0  0  0  0  0
   -0.6345    1.9391    3.8219 H   0  0  0  0  0  0  0  0  0  0  0  0
   -2.3844    1.7580    4.0892 H   0  0  0  0  0  0  0  0  0  0  0  0
   -1.2733    0.4298    4.4995 H   0  0  0  0  0  0  0  0  0  0  0  0
  5  6  2  0  0  0  0
  5  7  1  0  0  0  0
  2  3  1  0  0  0  0
  2  4  1  0  0  0  0
  2  5  1  0  0  0  0
  1  2  1  0  0  0  0
 25 26  2  0  0  0  0
 25 27  1  0  0  0  0
 23 24  1  0  0  0  0
 21 22  1  0  0  0  0
 21 23  2  0  0  0  0
 19 20  1  0  0  0  0
 19 21  1  0  0  0  0
 17 18  1  0  0  0  0
 17 19  2  0  0  0  0
 15 16  1  0  0  0  0
 15 17  1  0  0  0  0
 14 15  2  0  0  0  0
 14 23  1  0  0  0  0
 11 12  1  0  0  0  0
 11 13  1  0  0  0  0
 11 14  1  0  0  0  0
  9 10  1  0  0  0  0
  9 11  1  0  0  0  0
  9 25  1  0  0  0  0
  7  8  1  0  0  0  0
  7  9  1  0  0  0  0
 29 30  1  0  0  0  0
 29 31  1  0  0  0  0
 29 32  1  0  0  0  0
 27 28  1  0  0  0  0
 27 29  1  0  0  0  0
M  END
$$$$
default_name
  -OEChem-02102213163D

 32 32  0     1  0  0  0  0  0999 V2000
   -3.8405   -3.7518    1.6252 H   0  0  0  0  0  0  0  0  0  0  0  0
   -3.7965   -2.8768    0.9782 C   0  0  0  0  0  0  0  0  0  0  0  0
   -4.5465   -2.1527    1.2902 H   0  0  0  0  0  0  0  0  0  0  0  0
   -3.9745   -3.1748   -0.0538 H   0  0  0  0  0  0  0  0  0  0  0  0
   -2.4245   -2.2537    1.0882 C   0  0  0  0  0  0  0  0  0  0  0  0
   -1.5805   -2.7478    1.8242 O   0  0  0  0  0  0  0  0  0  0  0  0
   -2.2045   -1.1637    0.3562 N   0  0  0  0  0  0  0  0  0  0  0  0
   -2.9595   -0.7907   -0.2008 H   0  0  0  0  0  0  0  0  0  0  0  0
   -0.9485   -0.4087    0.3482 C   0  0  1  0  0  0  0  0  0  0  0  0
   -0.1408   -1.0795    0.0507 H   0  0  0  0  0  0  0  0  0  0  0  0
   -1.0432    0.7243   -0.6879 C   0  0  0  0  0  0  0  0  0  0  0  0
   -1.6643    1.5247   -0.2833 H   0  0  0  0  0  0  0  0  0  0  0  0
   -0.0465    1.1356   -0.8545 H   0  0  0  0  0  0  0  0  0  0  0  0
   -1.6361    0.2952   -2.0165 C   0  0  0  0  0  0  0  0  0  0  0  0
   -0.8895    0.4179   -3.2037 C   0  0  0  0  0  0  0  0  0  0  0  0
    0.1048    0.8409   -3.1783 H   0  0  0  0  0  0  0  0  0  0  0  0
   -1.4307   -0.0205   -4.4264 C   0  0  0  0  0  0  0  0  0  0  0  0
   -0.8567    0.0770   -5.3371 H   0  0  0  0  0  0  0  0  0  0  0  0
   -2.7175   -0.5836   -4.4640 C   0  0  0  0  0  0  0  0  0  0  0  0
   -3.1342   -0.9183   -5.4037 H   0  0  0  0  0  0  0  0  0  0  0  0
   -3.4669   -0.7063   -3.2798 C   0  0  0  0  0  0  0  0  0  0  0  0
   -4.4582   -1.1342   -3.3094 H   0  0  0  0  0  0  0  0  0  0  0  0
   -2.9271   -0.2651   -2.0586 C   0  0  0  0  0  0  0  0  0  0  0  0
   -3.5060   -0.3569   -1.1487 H   0  0  0  0  0  0  0  0  0  0  0  0
   -0.6196    0.1253    1.7539 C   0  0  0  0  0  0  0  0  0  0  0  0
    0.5216    0.0194    2.2054 O   0  0  0  0  0  0  0  0  0  0  0  0
   -1.6152    0.6924    2.4469 N   0  0  0  0  0  0  0  0  0  0  0  0
   -2.5345    0.6914    2.0318 H   0  0  0  0  0  0  0  0  0  0  0  0
   -1.4720    1.2390    3.7941 C   0  0  0  0  0  0  0  0  0  0  0  0
   -0.6345    1.9391    3.8219 H   0  0  0  0  0  0  0  0  0  0  0  0
   -2.3844    1.7580    4.0892 H   0  0  0  0  0  0  0  0  0  0  0  0
   -1.2733    0.4298    4.4995 H   0  0  0  0  0  0  0  0  0  0  0  0
  5  6  2  0  0  0  0
  5  7  1  0  0  0  0
  2  3  1  0  0  0  0
  2  4  1  0  0  0  0
  2  5  1  0  0  0  0
  1  2  1  0  0  0  0
 25 26  2  0  0  0  0
 25 27  1  0  0  0  0
 23 24  1  0  0  0  0
 21 22  1  0  0  0  0
 21 23  2  0  0  0  0
 19 20  1  0  0  0  0
 19 21  1  0  0  0  0
 17 18  1  0  0  0  0
 17 19  2  0  0  0  0
 15 16  1  0  0  0  0
 15 17  1  0  0  0  0
 14 15  2  0  0  0  0
 14 23  1  0  0  0  0
 11 12  1  0  0  0  0
 11 13  1  0  0  0  0
 11 14  1  0  0  0  0
  9 10  1  0  0  0  0
  9 11  1  0  0  0  0
  9 25  1  0  0  0  0
  7  8  1  0  0  0  0
  7  9  1  0  0  0  0
 29 30  1  0  0  0  0
 29 31  1  0  0  0  0
 29 32  1  0  0  0  0
 27 28  1  0  0  0  0
 27 29  1  0  0  0  0
M  END
$$$$
default_name
  -OEChem-02102213163D

 32 32  0     1  0  0  0  0  0999 V2000
   -3.8405   -3.7518    1.6252 H   0  0  0  0  0  0  0  0  0  0  0  0
   -3.7965   -2.8768    0.9782 C   0  0  0  0  0  0  0  0  0  0  0  0
   -4.5465   -2.1527    1.2902 H   0  0  0  0  0  0  0  0  0  0  0  0
   -3.9745   -3.1748   -0.0538 H   0  0  0  0  0  0  0  0  0  0  0  0
   -2.4245   -2.2537    1.0882 C   0  0  0  0  0  0  0  0  0  0  0  0
   -1.5805   -2.7478    1.8242 O   0  0  0  0  0  0  0  0  0  0  0  0
   -2.2045   -1.1637    0.3562 N   0  0  0  0  0  0  0  0  0  0  0  0
   -2.9595   -0.7907   -0.2008 H   0  0  0  0  0  0  0  0  0  0  0  0
   -0.9485   -0.4087    0.3482 C   0  0  1  0  0  0  0  0  0  0  0  0
   -0.1408   -1.0795    0.0507 H   0  0  0  0  0  0  0  0  0  0  0  0
   -1.0432    0.7243   -0.6879 C   0  0  0  0  0  0  0  0  0  0  0  0
   -1.6643    1.5247   -0.2833 H   0  0  0  0  0  0  0  0  0  0  0  0
   -0.0465    1.1356   -0.8545 H   0  0  0  0  0  0  0  0  0  0  0  0
   -1.6361    0.2952   -2.0165 C   0  0  0  0  0  0  0  0  0  0  0  0
   -0.8097    0.1175   -3.1423 C   0  0  0  0  0  0  0  0  0  0  0  0
    0.2518    0.3083   -3.0719 H   0  0  0  0  0  0  0  0  0  0  0  0
   -1.3610   -0.3206   -4.3605 C   0  0  0  0  0  0  0  0  0  0  0  0
   -0.7251   -0.4539   -5.2244 H   0  0  0  0  0  0  0  0  0  0  0  0
   -2.7382   -0.5833   -4.4549 C   0  0  0  0  0  0  0  0  0  0  0  0
   -3.1621   -0.9176   -5.3915 H   0  0  0  0  0  0  0  0  0  0  0  0
   -3.5671   -0.4053   -3.3323 C   0  0  0  0  0  0  0  0  0  0  0  0
   -4.6266   -0.6020   -3.4061 H   0  0  0  0  0  0  0  0  0  0  0  0
   -3.0164    0.0357   -2.1158 C   0  0  0  0  0  0  0  0  0  0  0  0
   -3.6557    0.1755   -1.2538 H   0  0  0  0  0  0  0  0  0  0  0  0
   -0.6196    0.1253    1.7539 C   0  0  0  0  0  0  0  0  0  0  0  0
    0.5216    0.0194    2.2054 O   0  0  0  0  0  0  0  0  0  0  0  0
   -1.6152    0.6924    2.4469 N   0  0  0  0  0  0  0  0  0  0  0  0
   -2.5345    0.6914    2.0318 H   0  0  0  0  0  0  0  0  0  0  0  0
   -1.4720    1.2390    3.7941 C   0  0  0  0  0  0  0  0  0  0  0  0
   -0.6345    1.9391    3.8219 H   0  0  0  0  0  0  0  0  0  0  0  0
   -2.3844    1.7580    4.0892 H   0  0  0  0  0  0  0  0  0  0  0  0
   -1.2733    0.4298    4.4995 H   0  0  0  0  0  0  0  0  0  0  0  0
  5  6  2  0  0  0  0
  5  7  1  0  0  0  0
  2  3  1  0  0  0  0
  2  4  1  0  0  0  0
  2  5  1  0  0  0  0
  1  2  1  0  0  0  0
 25 26  2  0  0  0  0
 25 27  1  0  0  0  0
 23 24  1  0  0  0  0
 21 22  1  0  0  0  0
 21 23  2  0  0  0  0
 19 20  1  0  0  0  0
 19 21  1  0  0  0  0
 17 18  1  0  0  0  0
 17 19  2  0  0  0  0
 15 16  1  0  0  0  0
 15 17  1  0  0  0  0
 14 15  2  0  0  0  0
 14 23  1  0  0  0  0
 11 12  1  0  0  0  0
 11 13  1  0  0  0  0
 11 14  1  0  0  0  0
  9 10  1  0  0  0  0
  9 11  1  0  0  0  0
  9 25  1  0  0  0  0
  7  8  1  0  0  0  0
  7  9  1  0  0  0  0
 29 30  1  0  0  0  0
 29 31  1  0  0  0  0
 29 32  1  0  0  0  0
 27 28  1  0  0  0  0
 27 29  1  0  0  0  0
M  END
$$$$
default_name
  -OEChem-02102213163D

 32 32  0     1  0  0  0  0  0999 V2000
   -3.8405   -3.7518    1.6252 H   0  0  0  0  0  0  0  0  0  0  0  0
   -3.7965   -2.8768    0.9782 C   0  0  0  0  0  0  0  0  0  0  0  0
   -4.5465   -2.1527    1.2902 H   0  0  0  0  0  0  0  0  0  0  0  0
   -3.9745   -3.1748   -0.0538 H   0  0  0  0  0  0  0  0  0  0  0  0
   -2.4245   -2.2537    1.0882 C   0  0  0  0  0  0  0  0  0  0  0  0
   -1.5805   -2.7478    1.8242 O   0  0  0  0  0  0  0  0  0  0  0  0
   -2.2045   -1.1637    0.3562 N   0  0  0  0  0  0  0  0  0  0  0  0
   -2.9595   -0.7907   -0.2008 H   0  0  0  0  0  0  0  0  0  0  0  0
   -0.9485   -0.4087    0.3482 C   0  0  1  0  0  0  0  0  0  0  0  0
   -0.1408   -1.0795    0.0507 H   0  0  0  0  0  0  0  0  0  0  0  0
   -1.0432    0.7243   -0.6879 C   0  0  0  0  0  0  0  0  0  0  0  0
   -1.6643    1.5247   -0.2833 H   0  0  0  0  0  0  0  0  0  0  0  0
   -0.0465    1.1356   -0.8545 H   0  0  0  0  0  0  0  0  0  0  0  0
   -1.6361    0.2952   -2.0165 C   0  0  0  0  0  0  0  0  0  0  0  0
   -0.8053   -0.1846   -3.0467 C   0  0  0  0  0  0  0  0  0  0  0  0
    0.2653   -0.2287   -2.9045 H   0  0  0  0  0  0  0  0  0  0  0  0
   -1.3666   -0.6195   -4.2615 C   0  0  0  0  0  0  0  0  0  0  0  0
   -0.7266   -0.9852   -5.0522 H   0  0  0  0  0  0  0  0  0  0  0  0
   -2.7588   -0.5774   -4.4476 C   0  0  0  0  0  0  0  0  0  0  0  0
   -3.1899   -0.9093   -5.3818 H   0  0  0  0  0  0  0  0  0  0  0  0
   -3.5918   -0.0971   -3.4208 C   0  0  0  0  0  0  0  0  0  0  0  0
   -4.6615   -0.0595   -3.5657 H   0  0  0  0  0  0  0  0  0  0  0  0
   -3.0303    0.3406   -2.2081 C   0  0  0  0  0  0  0  0  0  0  0  0
   -3.6719    0.7130   -1.4202 H   0  0  0  0  0  0  0  0  0  0  0  0
   -0.6196    0.1253    1.7539 C   0  0  0  0  0  0  0  0  0  0  0  0
    0.5216    0.0194    2.2054 O   0  0  0  0  0  0  0  0  0  0  0  0
   -1.6152    0.6924    2.4469 N   0  0  0  0  0  0  0  0  0  0  0  0
   -2.5345    0.6914    2.0318 H   0  0  0  0  0  0  0  0  0  0  0  0
   -1.4720    1.2390    3.7941 C   0  0  0  0  0  0  0  0  0  0  0  0
   -0.6345    1.9391    3.8219 H   0  0  0  0  0  0  0  0  0  0  0  0
   -2.3844    1.7580    4.0892 H   0  0  0  0  0  0  0  0  0  0  0  0
   -1.2733    0.4298    4.4995 H   0  0  0  0  0  0  0  0  0  0  0  0
  5  6  2  0  0  0  0
  5  7  1  0  0  0  0
  2  3  1  0  0  0  0
  2  4  1  0  0  0  0
  2  5  1  0  0  0  0
  1  2  1  0  0  0  0
 25 26  2  0  0  0  0
 25 27  1  0  0  0  0
 23 24  1  0  0  0  0
 21 22  1  0  0  0  0
 21 23  2  0  0  0  0
 19 20  1  0  0  0  0
 19 21  1  0  0  0  0
 17 18  1  0  0  0  0
 17 19  2  0  0  0  0
 15 16  1  0  0  0  0
 15 17  1  0  0  0  0
 14 15  2  0  0  0  0
 14 23  1  0  0  0  0
 11 12  1  0  0  0  0
 11 13  1  0  0  0  0
 11 14  1  0  0  0  0
  9 10  1  0  0  0  0
  9 11  1  0  0  0  0
  9 25  1  0  0  0  0
  7  8  1  0  0  0  0
  7  9  1  0  0  0  0
 29 30  1  0  0  0  0
 29 31  1  0  0  0  0
 29 32  1  0  0  0  0
 27 28  1  0  0  0  0
 27 29  1  0  0  0  0
M  END
$$$$
default_name
  -OEChem-02102213163D

 32 32  0     1  0  0  0  0  0999 V2000
   -3.8405   -3.7518    1.6252 H   0  0  0  0  0  0  0  0  0  0  0  0
   -3.7965   -2.8768    0.9782 C   0  0  0  0  0  0  0  0  0  0  0  0
   -4.5465   -2.1527    1.2902 H   0  0  0  0  0  0  0  0  0  0  0  0
   -3.9745   -3.1748   -0.0538 H   0  0  0  0  0  0  0  0  0  0  0  0
   -2.4245   -2.2537    1.0882 C   0  0  0  0  0  0  0  0  0  0  0  0
   -1.5805   -2.7478    1.8242 O   0  0  0  0  0  0  0  0  0  0  0  0
   -2.2045   -1.1637    0.3562 N   0  0  0  0  0  0  0  0  0  0  0  0
   -2.9595   -0.7907   -0.2008 H   0  0  0  0  0  0  0  0  0  0  0  0
   -0.9485   -0.4087    0.3482 C   0  0  1  0  0  0  0  0  0  0  0  0
   -0.1408   -1.0795    0.0507 H   0  0  0  0  0  0  0  0  0  0  0  0
   -1.0432    0.7243   -0.6879 C   0  0  0  0  0  0  0  0  0  0  0  0
   -1.6643    1.5247   -0.2833 H   0  0  0  0  0  0  0  0  0  0  0  0
   -0.0465    1.1356   -0.8545 H   0  0  0  0  0  0  0  0  0  0  0  0
   -1.6361    0.2952   -2.0165 C   0  0  0  0  0  0  0  0  0  0  0  0
   -0.8764   -0.4677   -2.9235 C   0  0  0  0  0  0  0  0  0  0  0  0
    0.1443   -0.7335   -2.6874 H   0  0  0  0  0  0  0  0  0  0  0  0
   -1.4471   -0.8970   -4.1360 C   0  0  0  0  0  0  0  0  0  0  0  0
   -0.8611   -1.4806   -4.8321 H   0  0  0  0  0  0  0  0  0  0  0  0
   -2.7779   -0.5662   -4.4427 C   0  0  0  0  0  0  0  0  0  0  0  0
   -3.2155   -0.8941   -5.3752 H   0  0  0  0  0  0  0  0  0  0  0  0
   -3.5393    0.1973   -3.5392 C   0  0  0  0  0  0  0  0  0  0  0  0
   -4.5606    0.4562   -3.7773 H   0  0  0  0  0  0  0  0  0  0  0  0
   -2.9678    0.6290   -2.3292 C   0  0  0  0  0  0  0  0  0  0  0  0
   -3.5536    1.2191   -1.6365 H   0  0  0  0  0  0  0  0  0  0  0  0
   -0.6196    0.1253    1.7539 C   0  0  0  0  0  0  0  0  0  0  0  0
    0.5216    0.0194    2.2054 O   0  0  0  0  0  0  0  0  0  0  0  0
   -1.6152    0.6924    2.4469 N   0  0  0  0  0  0  0  0  0  0  0  0
   -2.5345    0.6914    2.0318 H   0  0  0  0  0  0  0  0  0  0  0  0
   -1.4720    1.2390    3.7941 C   0  0  0  0  0  0  0  0  0  0  0  0
   -0.6345    1.9391    3.8219 H   0  0  0  0  0  0  0  0  0  0  0  0
   -2.3844    1.7580    4.0892 H   0  0  0  0  0  0  0  0  0  0  0  0
   -1.2733    0.4298    4.4995 H   0  0  0  0  0  0  0  0  0  0  0  0
  5  6  2  0  0  0  0
  5  7  1  0  0  0  0
  2  3  1  0  0  0  0
  2  4  1  0  0  0  0
  2  5  1  0  0  0  0
  1  2  1  0  0  0  0
 25 26  2  0  0  0  0
 25 27  1  0  0  0  0
 23 24  1  0  0  0  0
 21 22  1  0  0  0  0
 21 23  2  0  0  0  0
 19 20  1  0  0  0  0
 19 21  1  0  0  0  0
 17 18  1  0  0  0  0
 17 19  2  0  0  0  0
 15 16  1  0  0  0  0
 15 17  1  0  0  0  0
 14 15  2  0  0  0  0
 14 23  1  0  0  0  0
 11 12  1  0  0  0  0
 11 13  1  0  0  0  0
 11 14  1  0  0  0  0
  9 10  1  0  0  0  0
  9 11  1  0  0  0  0
  9 25  1  0  0  0  0
  7  8  1  0  0  0  0
  7  9  1  0  0  0  0
 29 30  1  0  0  0  0
 29 31  1  0  0  0  0
 29 32  1  0  0  0  0
 27 28  1  0  0  0  0
 27 29  1  0  0  0  0
M  END
$$$$
default_name
  -OEChem-02102213163D

 32 32  0     1  0  0  0  0  0999 V2000
   -3.8405   -3.7518    1.6252 H   0  0  0  0  0  0  0  0  0  0  0  0
   -3.7965   -2.8768    0.9782 C   0  0  0  0  0  0  0  0  0  0  0  0
   -4.5465   -2.1527    1.2902 H   0  0  0  0  0  0  0  0  0  0  0  0
   -3.9745   -3.1748   -0.0538 H   0  0  0  0  0  0  0  0  0  0  0  0
   -2.4245   -2.2537    1.0882 C   0  0  0  0  0  0  0  0  0  0  0  0
   -1.5805   -2.7478    1.8242 O   0  0  0  0  0  0  0  0  0  0  0  0
   -2.2045   -1.1637    0.3562 N   0  0  0  0  0  0  0  0  0  0  0  0
   -2.9595   -0.7907   -0.2008 H   0  0  0  0  0  0  0  0  0  0  0  0
   -0.9485   -0.4087    0.3482 C   0  0  1  0  0  0  0  0  0  0  0  0
   -0.1408   -1.0795    0.0507 H   0  0  0  0  0  0  0  0  0  0  0  0
   -1.0432    0.7243   -0.6879 C   0  0  0  0  0  0  0  0  0  0  0  0
   -1.6643    1.5247   -0.2833 H   0  0  0  0  0  0  0  0  0  0  0  0
   -0.0465    1.1356   -0.8545 H   0  0  0  0  0  0  0  0  0  0  0  0
   -1.6361    0.2952   -2.0165 C   0  0  0  0  0  0  0  0  0  0  0  0
   -1.0183   -0.7126   -2.7811 C   0  0  0  0  0  0  0  0  0  0  0  0
   -0.1028   -1.1717   -2.4356 H   0  0  0  0  0  0  0  0  0  0  0  0
   -1.5968   -1.1341   -3.9925 C   0  0  0  0  0  0  0  0  0  0  0  0
   -1.1194   -1.9063   -4.5793 H   0  0  0  0  0  0  0  0  0  0  0  0
   -2.7941   -0.5506   -4.4405 C   0  0  0  0  0  0  0  0  0  0  0  0
   -3.2373   -0.8729   -5.3724 H   0  0  0  0  0  0  0  0  0  0  0  0
   -3.4133    0.4577   -3.6796 C   0  0  0  0  0  0  0  0  0  0  0  0
   -4.3307    0.9101   -4.0265 H   0  0  0  0  0  0  0  0  0  0  0  0
   -2.8332    0.8811   -2.4707 C   0  0  0  0  0  0  0  0  0  0  0  0
   -3.3087    1.6593   -1.8879 H   0  0  0  0  0  0  0  0  0  0  0  0
   -0.6196    0.1253    1.7539 C   0  0  0  0  0  0  0  0  0  0  0  0
    0.5216    0.0194    2.2054 O   0  0  0  0  0  0  0  0  0  0  0  0
   -1.6152    0.6924    2.4469 N   0  0  0  0  0  0  0  0  0  0  0  0
   -2.5345    0.6914    2.0318 H   0  0  0  0  0  0  0  0  0  0  0  0
   -1.4720    1.2390    3.7941 C   0  0  0  0  0  0  0  0  0  0  0  0
   -0.6345    1.9391    3.8219 H   0  0  0  0  0  0  0  0  0  0  0  0
   -2.3844    1.7580    4.0892 H   0  0  0  0  0  0  0  0  0  0  0  0
   -1.2733    0.4298    4.4995 H   0  0  0  0  0  0  0  0  0  0  0  0
  5  6  2  0  0  0  0
  5  7  1  0  0  0  0
  2  3  1  0  0  0  0
  2  4  1  0  0  0  0
  2  5  1  0  0  0  0
  1  2  1  0  0  0  0
 25 26  2  0  0  0  0
 25 27  1  0  0  0  0
 23 24  1  0  0  0  0
 21 22  1  0  0  0  0
 21 23  2  0  0  0  0
 19 20  1  0  0  0  0
 19 21  1  0  0  0  0
 17 18  1  0  0  0  0
 17 19  2  0  0  0  0
 15 16  1  0  0  0  0
 15 17  1  0  0  0  0
 14 15  2  0  0  0  0
 14 23  1  0  0  0  0
 11 12  1  0  0  0  0
 11 13  1  0  0  0  0
 11 14  1  0  0  0  0
  9 10  1  0  0  0  0
  9 11  1  0  0  0  0
  9 25  1  0  0  0  0
  7  8  1  0  0  0  0
  7  9  1  0  0  0  0
 29 30  1  0  0  0  0
 29 31  1  0  0  0  0
 29 32  1  0  0  0  0
 27 28  1  0  0  0  0
 27 29  1  0  0  0  0
M  END
$$$$
default_name
  -OEChem-02102213163D

 32 32  0     1  0  0  0  0  0999 V2000
   -3.8405   -3.7518    1.6252 H   0  0  0  0  0  0  0  0  0  0  0  0
   -3.7965   -2.8768    0.9782 C   0  0  0  0  0  0  0  0  0  0  0  0
   -4.5465   -2.1527    1.2902 H   0  0  0  0  0  0  0  0  0  0  0  0
   -3.9745   -3.1748   -0.0538 H   0  0  0  0  0  0  0  0  0  0  0  0
   -2.4245   -2.2537    1.0882 C   0  0  0  0  0  0  0  0  0  0  0  0
   -1.5805   -2.7478    1.8242 O   0  0  0  0  0  0  0  0  0  0  0  0
   -2.2045   -1.1637    0.3562 N   0  0  0  0  0  0  0  0  0  0  0  0
   -2.9595   -0.7907   -0.2008 H   0  0  0  0  0  0  0  0  0  0  0  0
   -0.9485   -0.4087    0.3482 C   0  0  1  0  0  0  0  0  0  0  0  0
   -0.1408   -1.0795    0.0507 H   0  0  0  0  0  0  0  0  0  0  0  0
   -1.0432    0.7243   -0.6879 C   0  0  0  0  0  0  0  0  0  0  0  0
   -1.6643    1.5247   -0.2833 H   0  0  0  0  0  0  0  0  0  0  0  0
   -0.0465    1.1356   -0.8545 H   0  0  0  0  0  0  0  0  0  0  0  0
   -1.6361    0.2952   -2.0165 C   0  0  0  0  0  0  0  0  0  0  0  0
   -1.2214   -0.9025   -2.6291 C   0  0  0  0  0  0  0  0  0  0  0  0
   -0.4594   -1.5134   -2.1661 H   0  0  0  0  0  0  0  0  0  0  0  0
   -1.8058   -1.3147   -3.8410 C   0  0  0  0  0  0  0  0  0  0  0  0
   -1.4840   -2.2334   -4.3110 H   0  0  0  0  0  0  0  0  0  0  0  0
   -2.8065   -0.5317   -4.4411 C   0  0  0  0  0  0  0  0  0  0  0  0
   -3.2537   -0.8472   -5.3733 H   0  0  0  0  0  0  0  0  0  0  0  0
   -3.2222    0.6665   -3.8323 C   0  0  0  0  0  0  0  0  0  0  0  0
   -3.9875    1.2712   -4.2963 H   0  0  0  0  0  0  0  0  0  0  0  0
   -2.6356    1.0798   -2.6230 C   0  0  0  0  0  0  0  0  0  0  0  0
   -2.9540    2.0035   -2.1574 H   0  0  0  0  0  0  0  0  0  0  0  0
   -0.6196    0.1253    1.7539 C   0  0  0  0  0  0  0  0  0  0  0  0
    0.5216    0.0194    2.2054 O   0  0  0  0  0  0  0  0  0  0  0  0
   -1.6152    0.6924    2.4469 N   0  0  0  0  0  0  0  0  0  0  0  0
   -2.5345    0.6914    2.0318 H   0  0  0  0  0  0  0  0  0  0  0  0
   -1.4720    1.2390    3.7941 C   0  0  0  0  0  0  0  0  0  0  0  0
   -0.6345    1.9391    3.8219 H   0  0  0  0  0  0  0  0  0  0  0  0
   -2.3844    1.7580    4.0892 H   0  0  0  0  0  0  0  0  0  0  0  0
   -1.2733    0.4298    4.4995 H   0  0  0  0  0  0  0  0  0  0  0  0
  5  6  2  0  0  0  0
  5  7  1  0  0  0  0
  2  3  1  0  0  0  0
  2  4  1  0  0  0  0
  2  5  1  0  0  0  0
  1  2  1  0  0  0  0
 25 26  2  0  0  0  0
 25 27  1  0  0  0  0
 23 24  1  0  0  0  0
 21 22  1  0  0  0  0
 21 23  2  0  0  0  0
 19 20  1  0  0  0  0
 19 21  1  0  0  0  0
 17 18  1  0  0  0  0
 17 19  2  0  0  0  0
 15 16  1  0  0  0  0
 15 17  1  0  0  0  0
 14 15  2  0  0  0  0
 14 23  1  0  0  0  0
 11 12  1  0  0  0  0
 11 13  1  0  0  0  0
 11 14  1  0  0  0  0
  9 10  1  0  0  0  0
  9 11  1  0  0  0  0
  9 25  1  0  0  0  0
  7  8  1  0  0  0  0
  7  9  1  0  0  0  0
 29 30  1  0  0  0  0
 29 31  1  0  0  0  0
 29 32  1  0  0  0  0
 27 28  1  0  0  0  0
 27 29  1  0  0  0  0
M  END
$$$$
default_name
  -OEChem-02102213163D

 32 32  0     1  0  0  0  0  0999 V2000
   -3.8405   -3.7518    1.6252 H   0  0  0  0  0  0  0  0  0  0  0  0
   -3.7965   -2.8768    0.9782 C   0  0  0  0  0  0  0  0  0  0  0  0
   -4.5465   -2.1527    1.2902 H   0  0  0  0  0  0  0  0  0  0  0  0
   -3.9745   -3.1748   -0.0538 H   0  0  0  0  0  0  0  0  0  0  0  0
   -2.4245   -2.2537    1.0882 C   0  0  0  0  0  0  0  0  0  0  0  0
   -1.5805   -2.7478    1.8242 O   0  0  0  0  0  0  0  0  0  0  0  0
   -2.2045   -1.1637    0.3562 N   0  0  0  0  0  0  0  0  0  0  0  0
   -2.9595   -0.7907   -0.2008 H   0  0  0  0  0  0  0  0  0  0  0  0
   -0.9485   -0.4087    0.3482 C   0  0  1  0  0  0  0  0  0  0  0  0
   -0.1408   -1.0795    0.0507 H   0  0  0  0  0  0  0  0  0  0  0  0
   -1.0432    0.7243   -0.6879 C   0  0  0  0  0  0  0  0  0  0  0  0
   -1.6643    1.5247   -0.2833 H   0  0  0  0  0  0  0  0  0  0  0  0
   -0.0465    1.1356   -0.8545 H   0  0  0  0  0  0  0  0  0  0  0  0
   -1.6361    0.2952   -2.0165 C   0  0  0  0  0  0  0  0  0  0  0  0
   -1.4717   -1.0246   -2.4780 C   0  0  0  0  0  0  0  0  0  0  0  0
   -0.9010   -1.7355   -1.8973 H   0  0  0  0  0  0  0  0  0  0  0  0
   -2.0596   -1.4264   -3.6916 C   0  0  0  0  0  0  0  0  0  0  0  0
   -1.9299   -2.4396   -4.0454 H   0  0  0  0  0  0  0  0  0  0  0  0
   -2.8140   -0.5107   -4.4445 C   0  0  0  0  0  0  0  0  0  0  0  0
   -3.2637   -0.8187   -5.3781 H   0  0  0  0  0  0  0  0  0  0  0  0
   -2.9790    0.8094   -3.9870 C   0  0  0  0  0  0  0  0  0  0  0  0
   -3.5544    1.5149   -4.5683 H   0  0  0  0  0  0  0  0  0  0  0  0
   -2.3886    1.2115   -2.7758 C   0  0  0  0  0  0  0  0  0  0  0  0
   -2.5136    2.2283   -2.4265 H   0  0  0  0  0  0  0  0  0  0  0  0
   -0.6196    0.1253    1.7539 C   0  0  0  0  0  0  0  0  0  0  0  0
    0.5216    0.0194    2.2054 O   0  0  0  0  0  0  0  0  0  0  0  0
   -1.6152    0.6924    2.4469 N   0  0  0  0  0  0  0  0  0  0  0  0
   -2.5345    0.6914    2.0318 H   0  0  0  0  0  0  0  0  0  0  0  0
   -1.4720    1.2390    3.7941 C   0  0  0  0  0  0  0  0  0  0  0  0
   -0.6345    1.9391    3.8219 H   0  0  0  0  0  0  0  0  0  0  0  0
   -2.3844    1.7580    4.0892 H   0  0  0  0  0  0  0  0  0  0  0  0
   -1.2733    0.4298    4.4995 H   0  0  0  0  0  0  0  0  0  0  0  0
  5  6  2  0  0  0  0
  5  7  1  0  0  0  0
  2  3  1  0  0  0  0
  2  4  1  0  0  0  0
  2  5  1  0  0  0  0
  1  2  1  0  0  0  0
 25 26  2  0  0  0  0
 25 27  1  0  0  0  0
 23 24  1  0  0  0  0
 21 22  1  0  0  0  0
 21 23  2  0  0  0  0
 19 20  1  0  0  0  0
 19 21  1  0  0  0  0
 17 18  1  0  0  0  0
 17 19  2  0  0  0  0
 15 16  1  0  0  0  0
 15 17  1  0  0  0  0
 14 15  2  0  0  0  0
 14 23  1  0  0  0  0
 11 12  1  0  0  0  0
 11 13  1  0  0  0  0
 11 14  1  0  0  0  0
  9 10  1  0  0  0  0
  9 11  1  0  0  0  0
  9 25  1  0  0  0  0
  7  8  1  0  0  0  0
  7  9  1  0  0  0  0
 29 30  1  0  0  0  0
 29 31  1  0  0  0  0
 29 32  1  0  0  0  0
 27 28  1  0  0  0  0
 27 29  1  0  0  0  0
M  END
$$$$
default_name
  -OEChem-02102213163D

 32 32  0     1  0  0  0  0  0999 V2000
   -3.8405   -3.7518    1.6252 H   0  0  0  0  0  0  0  0  0  0  0  0
   -3.7965   -2.8768    0.9782 C   0  0  0  0  0  0  0  0  0  0  0  0
   -4.5465   -2.1527    1.2902 H   0  0  0  0  0  0  0  0  0  0  0  0
   -3.9745   -3.1748   -0.0538 H   0  0  0  0  0  0  0  0  0  0  0  0
   -2.4245   -2.2537    1.0882 C   0  0  0  0  0  0  0  0  0  0  0  0
   -1.5805   -2.7478    1.8242 O   0  0  0  0  0  0  0  0  0  0  0  0
   -2.2045   -1.1637    0.3562 N   0  0  0  0  0  0  0  0  0  0  0  0
   -2.9595   -0.7907   -0.2008 H   0  0  0  0  0  0  0  0  0  0  0  0
   -0.9485   -0.4087    0.3482 C   0  0  1  0  0  0  0  0  0  0  0  0
   -0.1408   -1.0795    0.0507 H   0  0  0  0  0  0  0  0  0  0  0  0
   -1.0432    0.7243   -0.6879 C   0  0  0  0  0  0  0  0  0  0  0  0
   -1.6643    1.5247   -0.2833 H   0  0  0  0  0  0  0  0  0  0  0  0
   -0.0465    1.1356   -0.8545 H   0  0  0  0  0  0  0  0  0  0  0  0
   -1.6361    0.2952   -2.0165 C   0  0  0  0  0  0  0  0  0  0  0  0
   -1.7522   -1.0705   -2.3380 C   0  0  0  0  0  0  0  0  0  0  0  0
   -1.3975   -1.8226   -1.6475 H   0  0  0  0  0  0  0  0  0  0  0  0
   -2.3411   -1.4616   -3.5546 C   0  0  0  0  0  0  0  0  0  0  0  0
   -2.4268   -2.5108   -3.8006 H   0  0  0  0  0  0  0  0  0  0  0  0
   -2.8163   -0.4890   -4.4505 C   0  0  0  0  0  0  0  0  0  0  0  0
   -3.2666   -0.7895   -5.3862 H   0  0  0  0  0  0  0  0  0  0  0  0
   -2.7005    0.8766   -4.1330 C   0  0  0  0  0  0  0  0  0  0  0  0
   -3.0609    1.6246   -4.8240 H   0  0  0  0  0  0  0  0  0  0  0  0
   -2.1090    1.2673   -2.9186 C   0  0  0  0  0  0  0  0  0  0  0  0
   -2.0175    2.3183   -2.6770 H   0  0  0  0  0  0  0  0  0  0  0  0
   -0.6196    0.1253    1.7539 C   0  0  0  0  0  0  0  0  0  0  0  0
    0.5216    0.0194    2.2054 O   0  0  0  0  0  0  0  0  0  0  0  0
   -1.6152    0.6924    2.4469 N   0  0  0  0  0  0  0  0  0  0  0  0
   -2.5345    0.6914    2.0318 H   0  0  0  0  0  0  0  0  0  0  0  0
   -1.4720    1.2390    3.7941 C   0  0  0  0  0  0  0  0  0  0  0  0
   -0.6345    1.9391    3.8219 H   0  0  0  0  0  0  0  0  0  0  0  0
   -2.3844    1.7580    4.0892 H   0  0  0  0  0  0  0  0  0  0  0  0
   -1.2733    0.4298    4.4995 H   0  0  0  0  0  0  0  0  0  0  0  0
  5  6  2  0  0  0  0
  5  7  1  0  0  0  0
  2  3  1  0  0  0  0
  2  4  1  0  0  0  0
  2  5  1  0  0  0  0
  1  2  1  0  0  0  0
 25 26  2  0  0  0  0
 25 27  1  0  0  0  0
 23 24  1  0  0  0  0
 21 22  1  0  0  0  0
 21 23  2  0  0  0  0
 19 20  1  0  0  0  0
 19 21  1  0  0  0  0
 17 18  1  0  0  0  0
 17 19  2  0  0  0  0
 15 16  1  0  0  0  0
 15 17  1  0  0  0  0
 14 15  2  0  0  0  0
 14 23  1  0  0  0  0
 11 12  1  0  0  0  0
 11 13  1  0  0  0  0
 11 14  1  0  0  0  0
  9 10  1  0  0  0  0
  9 11  1  0  0  0  0
  9 25  1  0  0  0  0
  7  8  1  0  0  0  0
  7  9  1  0  0  0  0
 29 30  1  0  0  0  0
 29 31  1  0  0  0  0
 29 32  1  0  0  0  0
 27 28  1  0  0  0  0
 27 29  1  0  0  0  0
M  END
$$$$
default_name
  -OEChem-02102213163D

 32 32  0     1  0  0  0  0  0999 V2000
   -3.8405   -3.7518    1.6252 H   0  0  0  0  0  0  0  0  0  0  0  0
   -3.7965   -2.8768    0.9782 C   0  0  0  0  0  0  0  0  0  0  0  0
   -4.5465   -2.1527    1.2902 H   0  0  0  0  0  0  0  0  0  0  0  0
   -3.9745   -3.1748   -0.0538 H   0  0  0  0  0  0  0  0  0  0  0  0
   -2.4245   -2.2537    1.0882 C   0  0  0  0  0  0  0  0  0  0  0  0
   -1.5805   -2.7478    1.8242 O   0  0  0  0  0  0  0  0  0  0  0  0
   -2.2045   -1.1637    0.3562 N   0  0  0  0  0  0  0  0  0  0  0  0
   -2.9595   -0.7907   -0.2008 H   0  0  0  0  0  0  0  0  0  0  0  0
   -0.9485   -0.4087    0.3482 C   0  0  1  0  0  0  0  0  0  0  0  0
   -0.1408   -1.0795    0.0507 H   0  0  0  0  0  0  0  0  0  0  0  0
   -1.0432    0.7243   -0.6879 C   0  0  0  0  0  0  0  0  0  0  0  0
   -1.6643    1.5247   -0.2833 H   0  0  0  0  0  0  0  0  0  0  0  0
   -0.0465    1.1356   -0.8545 H   0  0  0  0  0  0  0  0  0  0  0  0
   -1.6361    0.2952   -2.0165 C   0  0  0  0  0  0  0  0  0  0  0  0
   -2.0438   -1.0370   -2.2187 C   0  0  0  0  0  0  0  0  0  0  0  0
   -1.9152   -1.7690   -1.4338 H   0  0  0  0  0  0  0  0  0  0  0  0
   -2.6309   -1.4180   -3.4393 C   0  0  0  0  0  0  0  0  0  0  0  0
   -2.9409   -2.4421   -3.5934 H   0  0  0  0  0  0  0  0  0  0  0  0
   -2.8132   -0.4681   -4.4587 C   0  0  0  0  0  0  0  0  0  0  0  0
   -3.2621   -0.7614   -5.3973 H   0  0  0  0  0  0  0  0  0  0  0  0
   -2.4055    0.8637   -4.2605 C   0  0  0  0  0  0  0  0  0  0  0  0
   -2.5406    1.5928   -5.0459 H   0  0  0  0  0  0  0  0  0  0  0  0
   -1.8158    1.2434   -3.0417 C   0  0  0  0  0  0  0  0  0  0  0  0
   -1.4996    2.2675   -2.8918 H   0  0  0  0  0  0  0  0  0  0  0  0
   -0.6196    0.1253    1.7539 C   0  0  0  0  0  0  0  0  0  0  0  0
    0.5216    0.0194    2.2054 O   0  0  0  0  0  0  0  0  0  0  0  0
   -1.6152    0.6924    2.4469 N   0  0  0  0  0  0  0  0  0  0  0  0
   -2.5345    0.6914    2.0318 H   0  0  0  0  0  0  0  0  0  0  0  0
   -1.4720    1.2390    3.7941 C   0  0  0  0  0  0  0  0  0  0  0  0
   -0.6345    1.9391    3.8219 H   0  0  0  0  0  0  0  0  0  0  0  0
   -2.3844    1.7580    4.0892 H   0  0  0  0  0  0  0  0  0  0  0  0
   -1.2733    0.4298    4.4995 H   0  0  0  0  0  0  0  0  0  0  0  0
  5  6  2  0  0  0  0
  5  7  1  0  0  0  0
  2  3  1  0  0  0  0
  2  4  1  0  0  0  0
  2  5  1  0  0  0  0
  1  2  1  0  0  0  0
 25 26  2  0  0  0  0
 25 27  1  0  0  0  0
 23 24  1  0  0  0  0
 21 22  1  0  0  0  0
 21 23  2  0  0  0  0
 19 20  1  0  0  0  0
 19 21  1  0  0  0  0
 17 18  1  0  0  0  0
 17 19  2  0  0  0  0
 15 16  1  0  0  0  0
 15 17  1  0  0  0  0
 14 15  2  0  0  0  0
 14 23  1  0  0  0  0
 11 12  1  0  0  0  0
 11 13  1  0  0  0  0
 11 14  1  0  0  0  0
  9 10  1  0  0  0  0
  9 11  1  0  0  0  0
  9 25  1  0  0  0  0
  7  8  1  0  0  0  0
  7  9  1  0  0  0  0
 29 30  1  0  0  0  0
 29 31  1  0  0  0  0
 29 32  1  0  0  0  0
 27 28  1  0  0  0  0
 27 29  1  0  0  0  0
M  END
$$$$
default_name
  -OEChem-02102213163D

 32 32  0     1  0  0  0  0  0999 V2000
   -3.8405   -3.7518    1.6252 H   0  0  0  0  0  0  0  0  0  0  0  0
   -3.7965   -2.8768    0.9782 C   0  0  0  0  0  0  0  0  0  0  0  0
   -4.5465   -2.1527    1.2902 H   0  0  0  0  0  0  0  0  0  0  0  0
   -3.9745   -3.1748   -0.0538 H   0  0  0  0  0  0  0  0  0  0  0  0
   -2.4245   -2.2537    1.0882 C   0  0  0  0  0  0  0  0  0  0  0  0
   -1.5805   -2.7478    1.8242 O   0  0  0  0  0  0  0  0  0  0  0  0
   -2.2045   -1.1637    0.3562 N   0  0  0  0  0  0  0  0  0  0  0  0
   -2.9595   -0.7907   -0.2008 H   0  0  0  0  0  0  0  0  0  0  0  0
   -0.9485   -0.4087    0.3482 C   0  0  1  0  0  0  0  0  0  0  0  0
   -0.1408   -1.0795    0.0507 H   0  0  0  0  0  0  0  0  0  0  0  0
   -1.0432    0.7243   -0.6879 C   0  0  0  0  0  0  0  0  0  0  0  0
   -1.6643    1.5247   -0.2833 H   0  0  0  0  0  0  0  0  0  0  0  0
   -0.0465    1.1356   -0.8545 H   0  0  0  0  0  0  0  0  0  0  0  0
   -1.6361    0.2952   -2.0165 C   0  0  0  0  0  0  0  0  0  0  0  0
   -2.3266   -0.9265   -2.1281 C   0  0  0  0  0  0  0  0  0  0  0  0
   -2.4187   -1.5782   -1.2707 H   0  0  0  0  0  0  0  0  0  0  0  0
   -2.9095   -1.2985   -3.3536 C   0  0  0  0  0  0  0  0  0  0  0  0
   -3.4370   -2.2383   -3.4378 H   0  0  0  0  0  0  0  0  0  0  0  0
   -2.8048   -0.4495   -4.4684 C   0  0  0  0  0  0  0  0  0  0  0  0
   -3.2506   -0.7364   -5.4105 H   0  0  0  0  0  0  0  0  0  0  0  0
   -2.1142    0.7714   -4.3607 C   0  0  0  0  0  0  0  0  0  0  0  0
   -2.0290    1.4216   -5.2190 H   0  0  0  0  0  0  0  0  0  0  0  0
   -1.5290    1.1413   -3.1368 C   0  0  0  0  0  0  0  0  0  0  0  0
   -0.9951    2.0793   -3.0561 H   0  0  0  0  0  0  0  0  0  0  0  0
   -0.6196    0.1253    1.7539 C   0  0  0  0  0  0  0  0  0  0  0  0
    0.5216    0.0194    2.2054 O   0  0  0  0  0  0  0  0  0  0  0  0
   -1.6152    0.6924    2.4469 N   0  0  0  0  0  0  0  0  0  0  0  0
   -2.5345    0.6914    2.0318 H   0  0  0  0  0  0  0  0  0  0  0  0
   -1.4720    1.2390    3.7941 C   0  0  0  0  0  0  0  0  0  0  0  0
   -0.6345    1.9391    3.8219 H   0  0  0  0  0  0  0  0  0  0  0  0
   -2.3844    1.7580    4.0892 H   0  0  0  0  0  0  0  0  0  0  0  0
   -1.2733    0.4298    4.4995 H   0  0  0  0  0  0  0  0  0  0  0  0
  5  6  2  0  0  0  0
  5  7  1  0  0  0  0
  2  3  1  0  0  0  0
  2  4  1  0  0  0  0
  2  5  1  0  0  0  0
  1  2  1  0  0  0  0
 25 26  2  0  0  0  0
 25 27  1  0  0  0  0
 23 24  1  0  0  0  0
 21 22  1  0  0  0  0
 21 23  2  0  0  0  0
 19 20  1  0  0  0  0
 19 21  1  0  0  0  0
 17 18  1  0  0  0  0
 17 19  2  0  0  0  0
 15 16  1  0  0  0  0
 15 17  1  0  0  0  0
 14 15  2  0  0  0  0
 14 23  1  0  0  0  0
 11 12  1  0  0  0  0
 11 13  1  0  0  0  0
 11 14  1  0  0  0  0
  9 10  1  0  0  0  0
  9 11  1  0  0  0  0
  9 25  1  0  0  0  0
  7  8  1  0  0  0  0
  7  9  1  0  0  0  0
 29 30  1  0  0  0  0
 29 31  1  0  0  0  0
 29 32  1  0  0  0  0
 27 28  1  0  0  0  0
 27 29  1  0  0  0  0
M  END
$$$$
default_name
  -OEChem-02102213163D

 32 32  0     1  0  0  0  0  0999 V2000
   -3.8405   -3.7518    1.6252 H   0  0  0  0  0  0  0  0  0  0  0  0
   -3.7965   -2.8768    0.9782 C   0  0  0  0  0  0  0  0  0  0  0  0
   -4.5465   -2.1527    1.2902 H   0  0  0  0  0  0  0  0  0  0  0  0
   -3.9745   -3.1748   -0.0538 H   0  0  0  0  0  0  0  0  0  0  0  0
   -2.4245   -2.2537    1.0882 C   0  0  0  0  0  0  0  0  0  0  0  0
   -1.5805   -2.7478    1.8242 O   0  0  0  0  0  0  0  0  0  0  0  0
   -2.2045   -1.1637    0.3562 N   0  0  0  0  0  0  0  0  0  0  0  0
   -2.9595   -0.7907   -0.2008 H   0  0  0  0  0  0  0  0  0  0  0  0
   -0.9485   -0.4087    0.3482 C   0  0  1  0  0  0  0  0  0  0  0  0
   -0.1408   -1.0795    0.0507 H   0  0  0  0  0  0  0  0  0  0  0  0
   -1.0432    0.7243   -0.6879 C   0  0  0  0  0  0  0  0  0  0  0  0
   -1.6643    1.5247   -0.2833 H   0  0  0  0  0  0  0  0  0  0  0  0
   -0.0465    1.1356   -0.8545 H   0  0  0  0  0  0  0  0  0  0  0  0
   -1.6361    0.2952   -2.0165 C   0  0  0  0  0  0  0  0  0  0  0  0
   -2.5814   -0.7465   -2.0725 C   0  0  0  0  0  0  0  0  0  0  0  0
   -2.8738   -1.2632   -1.1693 H   0  0  0  0  0  0  0  0  0  0  0  0
   -3.1577   -1.1113   -3.3033 C   0  0  0  0  0  0  0  0  0  0  0  0
   -3.8814   -1.9132   -3.3444 H   0  0  0  0  0  0  0  0  0  0  0  0
   -2.7918   -0.4344   -4.4791 C   0  0  0  0  0  0  0  0  0  0  0  0
   -3.2328   -0.7162   -5.4250 H   0  0  0  0  0  0  0  0  0  0  0  0
   -1.8464    0.6061   -4.4268 C   0  0  0  0  0  0  0  0  0  0  0  0
   -1.5609    1.1228   -5.3314 H   0  0  0  0  0  0  0  0  0  0  0  0
   -1.2681    0.9681   -3.1972 C   0  0  0  0  0  0  0  0  0  0  0  0
   -0.5385    1.7665   -3.1589 H   0  0  0  0  0  0  0  0  0  0  0  0
   -0.6196    0.1253    1.7539 C   0  0  0  0  0  0  0  0  0  0  0  0
    0.5216    0.0194    2.2054 O   0  0  0  0  0  0  0  0  0  0  0  0
   -1.6152    0.6924    2.4469 N   0  0  0  0  0  0  0  0  0  0  0  0
   -2.5345    0.6914    2.0318 H   0  0  0  0  0  0  0  0  0  0  0  0
   -1.4720    1.2390    3.7941 C   0  0  0  0  0  0  0  0  0  0  0  0
   -0.6345    1.9391    3.8219 H   0  0  0  0  0  0  0  0  0  0  0  0
   -2.3844    1.7580    4.0892 H   0  0  0  0  0  0  0  0  0  0  0  0
   -1.2733    0.4298    4.4995 H   0  0  0  0  0  0  0  0  0  0  0  0
  5  6  2  0  0  0  0
  5  7  1  0  0  0  0
  2  3  1  0  0  0  0
  2  4  1  0  0  0  0
  2  5  1  0  0  0  0
  1  2  1  0  0  0  0
 25 26  2  0  0  0  0
 25 27  1  0  0  0  0
 23 24  1  0  0  0  0
 21 22  1  0  0  0  0
 21 23  2  0  0  0  0
 19 20  1  0  0  0  0
 19 21  1  0  0  0  0
 17 18  1  0  0  0  0
 17 19  2  0  0  0  0
 15 16  1  0  0  0  0
 15 17  1  0  0  0  0
 14 15  2  0  0  0  0
 14 23  1  0  0  0  0
 11 12  1  0  0  0  0
 11 13  1  0  0  0  0
 11 14  1  0  0  0  0
  9 10  1  0  0  0  0
  9 11  1  0  0  0  0
  9 25  1  0  0  0  0
  7  8  1  0  0  0  0
  7  9  1  0  0  0  0
 29 30  1  0  0  0  0
 29 31  1  0  0  0  0
 29 32  1  0  0  0  0
 27 28  1  0  0  0  0
 27 29  1  0  0  0  0
M  END
$$$$
default_name
  -OEChem-02102213163D

 32 32  0     1  0  0  0  0  0999 V2000
   -3.8405   -3.7518    1.6252 H   0  0  0  0  0  0  0  0  0  0  0  0
   -3.7965   -2.8768    0.9782 C   0  0  0  0  0  0  0  0  0  0  0  0
   -4.5465   -2.1527    1.2902 H   0  0  0  0  0  0  0  0  0  0  0  0
   -3.9745   -3.1748   -0.0538 H   0  0  0  0  0  0  0  0  0  0  0  0
   -2.4245   -2.2537    1.0882 C   0  0  0  0  0  0  0  0  0  0  0  0
   -1.5805   -2.7478    1.8242 O   0  0  0  0  0  0  0  0  0  0  0  0
   -2.2045   -1.1637    0.3562 N   0  0  0  0  0  0  0  0  0  0  0  0
   -2.9595   -0.7907   -0.2008 H   0  0  0  0  0  0  0  0  0  0  0  0
   -0.9485   -0.4087    0.3482 C   0  0  1  0  0  0  0  0  0  0  0  0
   -0.1408   -1.0795    0.0507 H   0  0  0  0  0  0  0  0  0  0  0  0
   -1.0432    0.7243   -0.6879 C   0  0  0  0  0  0  0  0  0  0  0  0
   -1.6643    1.5247   -0.2833 H   0  0  0  0  0  0  0  0  0  0  0  0
   -0.0465    1.1356   -0.8545 H   0  0  0  0  0  0  0  0  0  0  0  0
   -1.6361    0.2952   -2.0165 C   0  0  0  0  0  0  0  0  0  0  0  0
   -2.7908   -0.5093   -2.0557 C   0  0  0  0  0  0  0  0  0  0  0  0
   -3.2494   -0.8456   -1.1366 H   0  0  0  0  0  0  0  0  0  0  0  0
   -3.3588   -0.8690   -3.2918 C   0  0  0  0  0  0  0  0  0  0  0  0
   -4.2438   -1.4890   -3.3197 H   0  0  0  0  0  0  0  0  0  0  0  0
   -2.7750   -0.4238   -4.4900 C   0  0  0  0  0  0  0  0  0  0  0  0
   -3.2101   -0.7022   -5.4397 H   0  0  0  0  0  0  0  0  0  0  0  0
   -1.6203    0.3790   -4.4544 C   0  0  0  0  0  0  0  0  0  0  0  0
   -1.1684    0.7168   -5.3754 H   0  0  0  0  0  0  0  0  0  0  0  0
   -1.0510    0.7356   -3.2190 C   0  0  0  0  0  0  0  0  0  0  0  0
   -0.1608    1.3505   -3.1931 H   0  0  0  0  0  0  0  0  0  0  0  0
   -0.6196    0.1253    1.7539 C   0  0  0  0  0  0  0  0  0  0  0  0
    0.5216    0.0194    2.2054 O   0  0  0  0  0  0  0  0  0  0  0  0
   -1.6152    0.6924    2.4469 N   0  0  0  0  0  0  0  0  0  0  0  0
   -2.5345    0.6914    2.0318 H   0  0  0  0  0  0  0  0  0  0  0  0
   -1.4720    1.2390    3.7941 C   0  0  0  0  0  0  0  0  0  0  0  0
   -0.6345    1.9391    3.8219 H   0  0  0  0  0  0  0  0  0  0  0  0
   -2.3844    1.7580    4.0892 H   0  0  0  0  0  0  0  0  0  0  0  0
   -1.2733    0.4298    4.4995 H   0  0  0  0  0  0  0  0  0  0  0  0
  5  6  2  0  0  0  0
  5  7  1  0  0  0  0
  2  3  1  0  0  0  0
  2  4  1  0  0  0  0
  2  5  1  0  0  0  0
  1  2  1  0  0  0  0
 25 26  2  0  0  0  0
 25 27  1  0  0  0  0
 23 24  1  0  0  0  0
 21 22  1  0  0  0  0
 21 23  2  0  0  0  0
 19 20  1  0  0  0  0
 19 21  1  0  0  0  0
 17 18  1  0  0  0  0
 17 19  2  0  0  0  0
 15 16  1  0  0  0  0
 15 17  1  0  0  0  0
 14 15  2  0  0  0  0
 14 23  1  0  0  0  0
 11 12  1  0  0  0  0
 11 13  1  0  0  0  0
 11 14  1  0  0  0  0
  9 10  1  0  0  0  0
  9 11  1  0  0  0  0
  9 25  1  0  0  0  0
  7  8  1  0  0  0  0
  7  9  1  0  0  0  0
 29 30  1  0  0  0  0
 29 31  1  0  0  0  0
 29 32  1  0  0  0  0
 27 28  1  0  0  0  0
 27 29  1  0  0  0  0
M  END
$$$$
default_name
  -OEChem-02102213163D

 32 32  0     1  0  0  0  0  0999 V2000
   -3.8405   -3.7518    1.6252 H   0  0  0  0  0  0  0  0  0  0  0  0
   -3.7965   -2.8768    0.9782 C   0  0  0  0  0  0  0  0  0  0  0  0
   -4.5465   -2.1527    1.2902 H   0  0  0  0  0  0  0  0  0  0  0  0
   -3.9745   -3.1748   -0.0538 H   0  0  0  0  0  0  0  0  0  0  0  0
   -2.4245   -2.2537    1.0882 C   0  0  0  0  0  0  0  0  0  0  0  0
   -1.5805   -2.7478    1.8242 O   0  0  0  0  0  0  0  0  0  0  0  0
   -2.2045   -1.1637    0.3562 N   0  0  0  0  0  0  0  0  0  0  0  0
   -2.9595   -0.7907   -0.2008 H   0  0  0  0  0  0  0  0  0  0  0  0
   -0.9485   -0.4087    0.3482 C   0  0  1  0  0  0  0  0  0  0  0  0
   -0.1408   -1.0795    0.0507 H   0  0  0  0  0  0  0  0  0  0  0  0
   -1.0432    0.7243   -0.6879 C   0  0  0  0  0  0  0  0  0  0  0  0
   -1.6643    1.5247   -0.2833 H   0  0  0  0  0  0  0  0  0  0  0  0
   -0.0465    1.1356   -0.8545 H   0  0  0  0  0  0  0  0  0  0  0  0
   -1.6361    0.2952   -2.0165 C   0  0  0  0  0  0  0  0  0  0  0  0
   -2.9404   -0.2310   -2.0788 C   0  0  0  0  0  0  0  0  0  0  0  0
   -3.5199   -0.3538   -1.1747 H   0  0  0  0  0  0  0  0  0  0  0  0
   -3.4989   -0.5883   -3.3199 C   0  0  0  0  0  0  0  0  0  0  0  0
   -4.4996   -0.9946   -3.3652 H   0  0  0  0  0  0  0  0  0  0  0  0
   -2.7556   -0.4185   -4.5003 C   0  0  0  0  0  0  0  0  0  0  0  0
   -3.1838   -0.6953   -5.4536 H   0  0  0  0  0  0  0  0  0  0  0  0
   -1.4514    0.1056   -4.4415 C   0  0  0  0  0  0  0  0  0  0  0  0
   -0.8780    0.2311   -5.3482 H   0  0  0  0  0  0  0  0  0  0  0  0
   -0.8924    0.4595   -3.2007 C   0  0  0  0  0  0  0  0  0  0  0  0
    0.1122    0.8595   -3.1564 H   0  0  0  0  0  0  0  0  0  0  0  0
   -0.6196    0.1253    1.7539 C   0  0  0  0  0  0  0  0  0  0  0  0
    0.5216    0.0194    2.2054 O   0  0  0  0  0  0  0  0  0  0  0  0
   -1.6152    0.6924    2.4469 N   0  0  0  0  0  0  0  0  0  0  0  0
   -2.5345    0.6914    2.0318 H   0  0  0  0  0  0  0  0  0  0  0  0
   -1.4720    1.2390    3.7941 C   0  0  0  0  0  0  0  0  0  0  0  0
   -0.6345    1.9391    3.8219 H   0  0  0  0  0  0  0  0  0  0  0  0
   -2.3844    1.7580    4.0892 H   0  0  0  0  0  0  0  0  0  0  0  0
   -1.2733    0.4298    4.4995 H   0  0  0  0  0  0  0  0  0  0  0  0
  5  6  2  0  0  0  0
  5  7  1  0  0  0  0
  2  3  1  0  0  0  0
  2  4  1  0  0  0  0
  2  5  1  0  0  0  0
  1  2  1  0  0  0  0
 25 26  2  0  0  0  0
 25 27  1  0  0  0  0
 23 24  1  0  0  0  0
 21 22  1  0  0  0  0
 21 23  2  0  0  0  0
 19 20  1  0  0  0  0
 19 21  1  0  0  0  0
 17 18  1  0  0  0  0
 17 19  2  0  0  0  0
 15 16  1  0  0  0  0
 15 17  1  0  0  0  0
 14 15  2  0  0  0  0
 14 23  1  0  0  0  0
 11 12  1  0  0  0  0
 11 13  1  0  0  0  0
 11 14  1  0  0  0  0
  9 10  1  0  0  0  0
  9 11  1  0  0  0  0
  9 25  1  0  0  0  0
  7  8  1  0  0  0  0
  7  9  1  0  0  0  0
 29 30  1  0  0  0  0
 29 31  1  0  0  0  0
 29 32  1  0  0  0  0
 27 28  1  0  0  0  0
 27 29  1  0  0  0  0
M  END
$$$$
default_name
  -OEChem-02102213163D

 32 32  0     1  0  0  0  0  0999 V2000
   -3.8405   -3.7518    1.6252 H   0  0  0  0  0  0  0  0  0  0  0  0
   -3.7965   -2.8768    0.9782 C   0  0  0  0  0  0  0  0  0  0  0  0
   -4.5465   -2.1527    1.2902 H   0  0  0  0  0  0  0  0  0  0  0  0
   -3.9745   -3.1748   -0.0538 H   0  0  0  0  0  0  0  0  0  0  0  0
   -2.4245   -2.2537    1.0882 C   0  0  0  0  0  0  0  0  0  0  0  0
   -1.5805   -2.7478    1.8242 O   0  0  0  0  0  0  0  0  0  0  0  0
   -2.2045   -1.1637    0.3562 N   0  0  0  0  0  0  0  0  0  0  0  0
   -2.9595   -0.7907   -0.2008 H   0  0  0  0  0  0  0  0  0  0  0  0
   -0.9485   -0.4087    0.3482 C   0  0  1  0  0  0  0  0  0  0  0  0
   -0.1408   -1.0795    0.0507 H   0  0  0  0  0  0  0  0  0  0  0  0
   -1.0432    0.7243   -0.6879 C   0  0  0  0  0  0  0  0  0  0  0  0
   -1.6643    1.5247   -0.2833 H   0  0  0  0  0  0  0  0  0  0  0  0
   -0.0465    1.1356   -0.8545 H   0  0  0  0  0  0  0  0  0  0  0  0
   -1.6361    0.2952   -2.0165 C   0  0  0  0  0  0  0  0  0  0  0  0
   -3.0202    0.0694   -2.1402 C   0  0  0  0  0  0  0  0  0  0  0  0
   -3.6669    0.1788   -1.2811 H   0  0  0  0  0  0  0  0  0  0  0  0
   -3.5685   -0.2882   -3.3858 C   0  0  0  0  0  0  0  0  0  0  0  0
   -4.6311   -0.4636   -3.4780 H   0  0  0  0  0  0  0  0  0  0  0  0
   -2.7349   -0.4189   -4.5095 C   0  0  0  0  0  0  0  0  0  0  0  0
   -3.1558   -0.6960   -5.4659 H   0  0  0  0  0  0  0  0  0  0  0  0
   -1.3512   -0.1954   -4.3890 C   0  0  0  0  0  0  0  0  0  0  0  0
   -0.7096   -0.3011   -5.2514 H   0  0  0  0  0  0  0  0  0  0  0  0
   -0.8031    0.1588   -3.1434 C   0  0  0  0  0  0  0  0  0  0  0  0
    0.2620    0.3271   -3.0513 H   0  0  0  0  0  0  0  0  0  0  0  0
   -0.6196    0.1253    1.7539 C   0  0  0  0  0  0  0  0  0  0  0  0
    0.5216    0.0194    2.2054 O   0  0  0  0  0  0  0  0  0  0  0  0
   -1.6152    0.6924    2.4469 N   0  0  0  0  0  0  0  0  0  0  0  0
   -2.5345    0.6914    2.0318 H   0  0  0  0  0  0  0  0  0  0  0  0
   -1.4720    1.2390    3.7941 C   0  0  0  0  0  0  0  0  0  0  0  0
   -0.6345    1.9391    3.8219 H   0  0  0  0  0  0  0  0  0  0  0  0
   -2.3844    1.7580    4.0892 H   0  0  0  0  0  0  0  0  0  0  0  0
   -1.2733    0.4298    4.4995 H   0  0  0  0  0  0  0  0  0  0  0  0
  5  6  2  0  0  0  0
  5  7  1  0  0  0  0
  2  3  1  0  0  0  0
  2  4  1  0  0  0  0
  2  5  1  0  0  0  0
  1  2  1  0  0  0  0
 25 26  2  0  0  0  0
 25 27  1  0  0  0  0
 23 24  1  0  0  0  0
 21 22  1  0  0  0  0
 21 23  2  0  0  0  0
 19 20  1  0  0  0  0
 19 21  1  0  0  0  0
 17 18  1  0  0  0  0
 17 19  2  0  0  0  0
 15 16  1  0  0  0  0
 15 17  1  0  0  0  0
 14 15  2  0  0  0  0
 14 23  1  0  0  0  0
 11 12  1  0  0  0  0
 11 13  1  0  0  0  0
 11 14  1  0  0  0  0
  9 10  1  0  0  0  0
  9 11  1  0  0  0  0
  9 25  1  0  0  0  0
  7  8  1  0  0  0  0
  7  9  1  0  0  0  0
 29 30  1  0  0  0  0
 29 31  1  0  0  0  0
 29 32  1  0  0  0  0
 27 28  1  0  0  0  0
 27 29  1  0  0  0  0
M  END
$$$$
default_name
  -OEChem-02102213163D

 32 32  0     1  0  0  0  0  0999 V2000
   -3.8405   -3.7518    1.6252 H   0  0  0  0  0  0  0  0  0  0  0  0
   -3.7965   -2.8768    0.9782 C   0  0  0  0  0  0  0  0  0  0  0  0
   -4.5465   -2.1527    1.2902 H   0  0  0  0  0  0  0  0  0  0  0  0
   -3.9745   -3.1748   -0.0538 H   0  0  0  0  0  0  0  0  0  0  0  0
   -2.4245   -2.2537    1.0882 C   0  0  0  0  0  0  0  0  0  0  0  0
   -1.5805   -2.7478    1.8242 O   0  0  0  0  0  0  0  0  0  0  0  0
   -2.2045   -1.1637    0.3562 N   0  0  0  0  0  0  0  0  0  0  0  0
   -2.9595   -0.7907   -0.2008 H   0  0  0  0  0  0  0  0  0  0  0  0
   -0.9485   -0.4087    0.3482 C   0  0  1  0  0  0  0  0  0  0  0  0
   -0.1408   -1.0795    0.0507 H   0  0  0  0  0  0  0  0  0  0  0  0
   -1.0432    0.7243   -0.6879 C   0  0  0  0  0  0  0  0  0  0  0  0
   -1.6643    1.5247   -0.2833 H   0  0  0  0  0  0  0  0  0  0  0  0
   -0.0465    1.1356   -0.8545 H   0  0  0  0  0  0  0  0  0  0  0  0
   -1.6361    0.2952   -2.0165 C   0  0  0  0  0  0  0  0  0  0  0  0
   -3.0247    0.3715   -2.2358 C   0  0  0  0  0  0  0  0  0  0  0  0
   -3.6804    0.7158   -1.4485 H   0  0  0  0  0  0  0  0  0  0  0  0
   -3.5629    0.0107   -3.4848 C   0  0  0  0  0  0  0  0  0  0  0  0
   -4.6296    0.0676   -3.6502 H   0  0  0  0  0  0  0  0  0  0  0  0
   -2.7143   -0.4248   -4.5167 C   0  0  0  0  0  0  0  0  0  0  0  0
   -3.1281   -0.7042   -5.4756 H   0  0  0  0  0  0  0  0  0  0  0  0
   -1.3265   -0.5036   -4.3005 C   0  0  0  0  0  0  0  0  0  0  0  0
   -0.6747   -0.8436   -5.0918 H   0  0  0  0  0  0  0  0  0  0  0  0
   -0.7893   -0.1462   -3.0511 C   0  0  0  0  0  0  0  0  0  0  0  0
    0.2782   -0.2105   -2.8849 H   0  0  0  0  0  0  0  0  0  0  0  0
   -0.6196    0.1253    1.7539 C   0  0  0  0  0  0  0  0  0  0  0  0
    0.5216    0.0194    2.2054 O   0  0  0  0  0  0  0  0  0  0  0  0
   -1.6152    0.6924    2.4469 N   0  0  0  0  0  0  0  0  0  0  0  0
   -2.5345    0.6914    2.0318 H   0  0  0  0  0  0  0  0  0  0  0  0
   -1.4720    1.2390    3.7941 C   0  0  0  0  0  0  0  0  0  0  0  0
   -0.6345    1.9391    3.8219 H   0  0  0  0  0  0  0  0  0  0  0  0
   -2.3844    1.7580    4.0892 H   0  0  0  0  0  0  0  0  0  0  0  0
   -1.2733    0.4298    4.4995 H   0  0  0  0  0  0  0  0  0  0  0  0
  5  6  2  0  0  0  0
  5  7  1  0  0  0  0
  2  3  1  0  0  0  0
  2  4  1  0  0  0  0
  2  5  1  0  0  0  0
  1  2  1  0  0  0  0
 25 26  2  0  0  0  0
 25 27  1  0  0  0  0
 23 24  1  0  0  0  0
 21 22  1  0  0  0  0
 21 23  2  0  0  0  0
 19 20  1  0  0  0  0
 19 21  1  0  0  0  0
 17 18  1  0  0  0  0
 17 19  2  0  0  0  0
 15 16  1  0  0  0  0
 15 17  1  0  0  0  0
 14 15  2  0  0  0  0
 14 23  1  0  0  0  0
 11 12  1  0  0  0  0
 11 13  1  0  0  0  0
 11 14  1  0  0  0  0
  9 10  1  0  0  0  0
  9 11  1  0  0  0  0
  9 25  1  0  0  0  0
  7  8  1  0  0  0  0
  7  9  1  0  0  0  0
 29 30  1  0  0  0  0
 29 31  1  0  0  0  0
 29 32  1  0  0  0  0
 27 28  1  0  0  0  0
 27 29  1  0  0  0  0
M  END
$$$$
default_name
  -OEChem-02102213163D

 32 32  0     1  0  0  0  0  0999 V2000
   -3.8405   -3.7518    1.6252 H   0  0  0  0  0  0  0  0  0  0  0  0
   -3.7965   -2.8768    0.9782 C   0  0  0  0  0  0  0  0  0  0  0  0
   -4.5465   -2.1527    1.2902 H   0  0  0  0  0  0  0  0  0  0  0  0
   -3.9745   -3.1748   -0.0538 H   0  0  0  0  0  0  0  0  0  0  0  0
   -2.4245   -2.2537    1.0882 C   0  0  0  0  0  0  0  0  0  0  0  0
   -1.5805   -2.7478    1.8242 O   0  0  0  0  0  0  0  0  0  0  0  0
   -2.2045   -1.1637    0.3562 N   0  0  0  0  0  0  0  0  0  0  0  0
   -2.9595   -0.7907   -0.2008 H   0  0  0  0  0  0  0  0  0  0  0  0
   -0.9485   -0.4087    0.3482 C   0  0  1  0  0  0  0  0  0  0  0  0
   -0.1408   -1.0795    0.0507 H   0  0  0  0  0  0  0  0  0  0  0  0
   -1.0432    0.7243   -0.6879 C   0  0  0  0  0  0  0  0  0  0  0  0
   -1.6643    1.5247   -0.2833 H   0  0  0  0  0  0  0  0  0  0  0  0
   -0.0465    1.1356   -0.8545 H   0  0  0  0  0  0  0  0  0  0  0  0
   -1.6361    0.2952   -2.0165 C   0  0  0  0  0  0  0  0  0  0  0  0
   -2.9535    0.6546   -2.3590 C   0  0  0  0  0  0  0  0  0  0  0  0
   -3.5594    1.2206   -1.6655 H   0  0  0  0  0  0  0  0  0  0  0  0
   -3.4825    0.2882   -3.6103 C   0  0  0  0  0  0  0  0  0  0  0  0
   -4.4951    0.5630   -3.8703 H   0  0  0  0  0  0  0  0  0  0  0  0
   -2.6953   -0.4360   -4.5217 C   0  0  0  0  0  0  0  0  0  0  0  0
   -3.1025   -0.7195   -5.4821 H   0  0  0  0  0  0  0  0  0  0  0  0
   -1.3790   -0.7980   -4.1820 C   0  0  0  0  0  0  0  0  0  0  0  0
   -0.7756   -1.3593   -4.8802 H   0  0  0  0  0  0  0  0  0  0  0  0
   -0.8518   -0.4345   -2.9301 C   0  0  0  0  0  0  0  0  0  0  0  0
    0.1599   -0.7166   -2.6686 H   0  0  0  0  0  0  0  0  0  0  0  0
   -0.6196    0.1253    1.7539 C   0  0  0  0  0  0  0  0  0  0  0  0
    0.5216    0.0194    2.2054 O   0  0  0  0  0  0  0  0  0  0  0  0
   -1.6152    0.6924    2.4469 N   0  0  0  0  0  0  0  0  0  0  0  0
   -2.5345    0.6914    2.0318 H   0  0  0  0  0  0  0  0  0  0  0  0
   -1.4720    1.2390    3.7941 C   0  0  0  0  0  0  0  0  0  0  0  0
   -0.6345    1.9391    3.8219 H   0  0  0  0  0  0  0  0  0  0  0  0
   -2.3844    1.7580    4.0892 H   0  0  0  0  0  0  0  0  0  0  0  0
   -1.2733    0.4298    4.4995 H   0  0  0  0  0  0  0  0  0  0  0  0
  5  6  2  0  0  0  0
  5  7  1  0  0  0  0
  2  3  1  0  0  0  0
  2  4  1  0  0  0  0
  2  5  1  0  0  0  0
  1  2  1  0  0  0  0
 25 26  2  0  0  0  0
 25 27  1  0  0  0  0
 23 24  1  0  0  0  0
 21 22  1  0  0  0  0
 21 23  2  0  0  0  0
 19 20  1  0  0  0  0
 19 21  1  0  0  0  0
 17 18  1  0  0  0  0
 17 19  2  0  0  0  0
 15 16  1  0  0  0  0
 15 17  1  0  0  0  0
 14 15  2  0  0  0  0
 14 23  1  0  0  0  0
 11 12  1  0  0  0  0
 11 13  1  0  0  0  0
 11 14  1  0  0  0  0
  9 10  1  0  0  0  0
  9 11  1  0  0  0  0
  9 25  1  0  0  0  0
  7  8  1  0  0  0  0
  7  9  1  0  0  0  0
 29 30  1  0  0  0  0
 29 31  1  0  0  0  0
 29 32  1  0  0  0  0
 27 28  1  0  0  0  0
 27 29  1  0  0  0  0
M  END
$$$$
default_name
  -OEChem-02102213163D

 32 32  0     1  0  0  0  0  0999 V2000
   -3.8405   -3.7518    1.6252 H   0  0  0  0  0  0  0  0  0  0  0  0
   -3.7965   -2.8768    0.9782 C   0  0  0  0  0  0  0  0  0  0  0  0
   -4.5465   -2.1527    1.2902 H   0  0  0  0  0  0  0  0  0  0  0  0
   -3.9745   -3.1748   -0.0538 H   0  0  0  0  0  0  0  0  0  0  0  0
   -2.4245   -2.2537    1.0882 C   0  0  0  0  0  0  0  0  0  0  0  0
   -1.5805   -2.7478    1.8242 O   0  0  0  0  0  0  0  0  0  0  0  0
   -2.2045   -1.1637    0.3562 N   0  0  0  0  0  0  0  0  0  0  0  0
   -2.9595   -0.7907   -0.2008 H   0  0  0  0  0  0  0  0  0  0  0  0
   -0.9485   -0.4087    0.3482 C   0  0  1  0  0  0  0  0  0  0  0  0
   -0.1408   -1.0795    0.0507 H   0  0  0  0  0  0  0  0  0  0  0  0
   -1.0432    0.7243   -0.6879 C   0  0  0  0  0  0  0  0  0  0  0  0
   -1.6643    1.5247   -0.2833 H   0  0  0  0  0  0  0  0  0  0  0  0
   -0.0465    1.1356   -0.8545 H   0  0  0  0  0  0  0  0  0  0  0  0
   -1.6361    0.2952   -2.0165 C   0  0  0  0  0  0  0  0  0  0  0  0
   -2.8116    0.8995   -2.5014 C   0  0  0  0  0  0  0  0  0  0  0  0
   -3.3122    1.6588   -1.9174 H   0  0  0  0  0  0  0  0  0  0  0  0
   -3.3327    0.5253   -3.7538 C   0  0  0  0  0  0  0  0  0  0  0  0
   -4.2368    0.9887   -4.1230 H   0  0  0  0  0  0  0  0  0  0  0  0
   -2.6790   -0.4515   -4.5239 C   0  0  0  0  0  0  0  0  0  0  0  0
   -3.0807   -0.7406   -5.4850 H   0  0  0  0  0  0  0  0  0  0  0  0
   -1.5051   -1.0584   -4.0416 C   0  0  0  0  0  0  0  0  0  0  0  0
   -1.0055   -1.8132   -4.6310 H   0  0  0  0  0  0  0  0  0  0  0  0
   -0.9864   -0.6867   -2.7886 C   0  0  0  0  0  0  0  0  0  0  0  0
   -0.0850   -1.1567   -2.4172 H   0  0  0  0  0  0  0  0  0  0  0  0
   -0.6196    0.1253    1.7539 C   0  0  0  0  0  0  0  0  0  0  0  0
    0.5216    0.0194    2.2054 O   0  0  0  0  0  0  0  0  0  0  0  0
   -1.6152    0.6924    2.4469 N   0  0  0  0  0  0  0  0  0  0  0  0
   -2.5345    0.6914    2.0318 H   0  0  0  0  0  0  0  0  0  0  0  0
   -1.4720    1.2390    3.7941 C   0  0  0  0  0  0  0  0  0  0  0  0
   -0.6345    1.9391    3.8219 H   0  0  0  0  0  0  0  0  0  0  0  0
   -2.3844    1.7580    4.0892 H   0  0  0  0  0  0  0  0  0  0  0  0
   -1.2733    0.4298    4.4995 H   0  0  0  0  0  0  0  0  0  0  0  0
  5  6  2  0  0  0  0
  5  7  1  0  0  0  0
  2  3  1  0  0  0  0
  2  4  1  0  0  0  0
  2  5  1  0  0  0  0
  1  2  1  0  0  0  0
 25 26  2  0  0  0  0
 25 27  1  0  0  0  0
 23 24  1  0  0  0  0
 21 22  1  0  0  0  0
 21 23  2  0  0  0  0
 19 20  1  0  0  0  0
 19 21  1  0  0  0  0
 17 18  1  0  0  0  0
 17 19  2  0  0  0  0
 15 16  1  0  0  0  0
 15 17  1  0  0  0  0
 14 15  2  0  0  0  0
 14 23  1  0  0  0  0
 11 12  1  0  0  0  0
 11 13  1  0  0  0  0
 11 14  1  0  0  0  0
  9 10  1  0  0  0  0
  9 11  1  0  0  0  0
  9 25  1  0  0  0  0
  7  8  1  0  0  0  0
  7  9  1  0  0  0  0
 29 30  1  0  0  0  0
 29 31  1  0  0  0  0
 29 32  1  0  0  0  0
 27 28  1  0  0  0  0
 27 29  1  0  0  0  0
M  END
$$$$
default_name
  -OEChem-02102213163D

 32 32  0     1  0  0  0  0  0999 V2000
   -3.8405   -3.7518    1.6252 H   0  0  0  0  0  0  0  0  0  0  0  0
   -3.7965   -2.8768    0.9782 C   0  0  0  0  0  0  0  0  0  0  0  0
   -4.5465   -2.1527    1.2902 H   0  0  0  0  0  0  0  0  0  0  0  0
   -3.9745   -3.1748   -0.0538 H   0  0  0  0  0  0  0  0  0  0  0  0
   -2.4245   -2.2537    1.0882 C   0  0  0  0  0  0  0  0  0  0  0  0
   -1.5805   -2.7478    1.8242 O   0  0  0  0  0  0  0  0  0  0  0  0
   -2.2045   -1.1637    0.3562 N   0  0  0  0  0  0  0  0  0  0  0  0
   -2.9595   -0.7907   -0.2008 H   0  0  0  0  0  0  0  0  0  0  0  0
   -0.9485   -0.4087    0.3482 C   0  0  1  0  0  0  0  0  0  0  0  0
   -0.1408   -1.0795    0.0507 H   0  0  0  0  0  0  0  0  0  0  0  0
   -1.0432    0.7243   -0.6879 C   0  0  0  0  0  0  0  0  0  0  0  0
   -1.6643    1.5247   -0.2833 H   0  0  0  0  0  0  0  0  0  0  0  0
   -0.0465    1.1356   -0.8545 H   0  0  0  0  0  0  0  0  0  0  0  0
   -1.6361    0.2952   -2.0165 C   0  0  0  0  0  0  0  0  0  0  0  0
   -2.6085    1.0894   -2.6534 C   0  0  0  0  0  0  0  0  0  0  0  0
   -2.9557    2.0006   -2.1869 H   0  0  0  0  0  0  0  0  0  0  0  0
   -3.1237    0.7059   -3.9053 C   0  0  0  0  0  0  0  0  0  0  0  0
   -3.8722    1.3158   -4.3914 H   0  0  0  0  0  0  0  0  0  0  0  0
   -2.6667   -0.4705   -4.5233 C   0  0  0  0  0  0  0  0  0  0  0  0
   -3.0643   -0.7663   -5.4840 H   0  0  0  0  0  0  0  0  0  0  0  0
   -1.6962   -1.2672   -3.8889 C   0  0  0  0  0  0  0  0  0  0  0  0
   -1.3487   -2.1743   -4.3612 H   0  0  0  0  0  0  0  0  0  0  0  0
   -1.1839   -0.8854   -2.6362 C   0  0  0  0  0  0  0  0  0  0  0  0
   -0.4398   -1.5009   -2.1477 H   0  0  0  0  0  0  0  0  0  0  0  0
   -0.6196    0.1253    1.7539 C   0  0  0  0  0  0  0  0  0  0  0  0
    0.5216    0.0194    2.2054 O   0  0  0  0  0  0  0  0  0  0  0  0
   -1.6152    0.6924    2.4469 N   0  0  0  0  0  0  0  0  0  0  0  0
   -2.5345    0.6914    2.0318 H   0  0  0  0  0  0  0  0  0  0  0  0
   -1.4720    1.2390    3.7941 C   0  0  0  0  0  0  0  0  0  0  0  0
   -0.6345    1.9391    3.8219 H   0  0  0  0  0  0  0  0  0  0  0  0
   -2.3844    1.7580    4.0892 H   0  0  0  0  0  0  0  0  0  0  0  0
   -1.2733    0.4298    4.4995 H   0  0  0  0  0  0  0  0  0  0  0  0
  5  6  2  0  0  0  0
  5  7  1  0  0  0  0
  2  3  1  0  0  0  0
  2  4  1  0  0  0  0
  2  5  1  0  0  0  0
  1  2  1  0  0  0  0
 25 26  2  0  0  0  0
 25 27  1  0  0  0  0
 23 24  1  0  0  0  0
 21 22  1  0  0  0  0
 21 23  2  0  0  0  0
 19 20  1  0  0  0  0
 19 21  1  0  0  0  0
 17 18  1  0  0  0  0
 17 19  2  0  0  0  0
 15 16  1  0  0  0  0
 15 17  1  0  0  0  0
 14 15  2  0  0  0  0
 14 23  1  0  0  0  0
 11 12  1  0  0  0  0
 11 13  1  0  0  0  0
 11 14  1  0  0  0  0
  9 10  1  0  0  0  0
  9 11  1  0  0  0  0
  9 25  1  0  0  0  0
  7  8  1  0  0  0  0
  7  9  1  0  0  0  0
 29 30  1  0  0  0  0
 29 31  1  0  0  0  0
 29 32  1  0  0  0  0
 27 28  1  0  0  0  0
 27 29  1  0  0  0  0
M  END
$$$$
default_name
  -OEChem-02102213163D

 32 32  0     1  0  0  0  0  0999 V2000
   -3.8405   -3.7518    1.6252 H   0  0  0  0  0  0  0  0  0  0  0  0
   -3.7965   -2.8768    0.9782 C   0  0  0  0  0  0  0  0  0  0  0  0
   -4.5465   -2.1527    1.2902 H   0  0  0  0  0  0  0  0  0  0  0  0
   -3.9745   -3.1748   -0.0538 H   0  0  0  0  0  0  0  0  0  0  0  0
   -2.4245   -2.2537    1.0882 C   0  0  0  0  0  0  0  0  0  0  0  0
   -1.5805   -2.7478    1.8242 O   0  0  0  0  0  0  0  0  0  0  0  0
   -2.2045   -1.1637    0.3562 N   0  0  0  0  0  0  0  0  0  0  0  0
   -2.9595   -0.7907   -0.2008 H   0  0  0  0  0  0  0  0  0  0  0  0
   -0.9485   -0.4087    0.3482 C   0  0  1  0  0  0  0  0  0  0  0  0
   -0.1408   -1.0795    0.0507 H   0  0  0  0  0  0  0  0  0  0  0  0
   -1.0432    0.7243   -0.6879 C   0  0  0  0  0  0  0  0  0  0  0  0
   -1.6643    1.5247   -0.2833 H   0  0  0  0  0  0  0  0  0  0  0  0
   -0.0465    1.1356   -0.8545 H   0  0  0  0  0  0  0  0  0  0  0  0
   -1.6361    0.2952   -2.0165 C   0  0  0  0  0  0  0  0  0  0  0  0
   -2.3582    1.2115   -2.8045 C   0  0  0  0  0  0  0  0  0  0  0  0
   -2.5141    2.2226   -2.4557 H   0  0  0  0  0  0  0  0  0  0  0  0
   -2.8699    0.8176   -4.0547 C   0  0  0  0  0  0  0  0  0  0  0  0
   -3.4263    1.5220   -4.6570 H   0  0  0  0  0  0  0  0  0  0  0  0
   -2.6591   -0.4915   -4.5198 C   0  0  0  0  0  0  0  0  0  0  0  0
   -3.0543   -0.7948   -5.4793 H   0  0  0  0  0  0  0  0  0  0  0  0
   -1.9393   -1.4101   -3.7343 C   0  0  0  0  0  0  0  0  0  0  0  0
   -1.7818   -2.4180   -4.0892 H   0  0  0  0  0  0  0  0  0  0  0  0
   -1.4309   -1.0171   -2.4835 C   0  0  0  0  0  0  0  0  0  0  0  0
   -0.8802   -1.7257   -1.8786 H   0  0  0  0  0  0  0  0  0  0  0  0
   -0.6196    0.1253    1.7539 C   0  0  0  0  0  0  0  0  0  0  0  0
    0.5216    0.0194    2.2054 O   0  0  0  0  0  0  0  0  0  0  0  0
   -1.6152    0.6924    2.4469 N   0  0  0  0  0  0  0  0  0  0  0  0
   -2.5345    0.6914    2.0318 H   0  0  0  0  0  0  0  0  0  0  0  0
   -1.4720    1.2390    3.7941 C   0  0  0  0  0  0  0  0  0  0  0  0
   -0.6345    1.9391    3.8219 H   0  0  0  0  0  0  0  0  0  0  0  0
   -2.3844    1.7580    4.0892 H   0  0  0  0  0  0  0  0  0  0  0  0
   -1.2733    0.4298    4.4995 H   0  0  0  0  0  0  0  0  0  0  0  0
  5  6  2  0  0  0  0
  5  7  1  0  0  0  0
  2  3  1  0  0  0  0
  2  4  1  0  0  0  0
  2  5  1  0  0  0  0
  1  2  1  0  0  0  0
 25 26  2  0  0  0  0
 25 27  1  0  0  0  0
 23 24  1  0  0  0  0
 21 22  1  0  0  0  0
 21 23  2  0  0  0  0
 19 20  1  0  0  0  0
 19 21  1  0  0  0  0
 17 18  1  0  0  0  0
 17 19  2  0  0  0  0
 15 16  1  0  0  0  0
 15 17  1  0  0  0  0
 14 15  2  0  0  0  0
 14 23  1  0  0  0  0
 11 12  1  0  0  0  0
 11 13  1  0  0  0  0
 11 14  1  0  0  0  0
  9 10  1  0  0  0  0
  9 11  1  0  0  0  0
  9 25  1  0  0  0  0
  7  8  1  0  0  0  0
  7  9  1  0  0  0  0
 29 30  1  0  0  0  0
 29 31  1  0  0  0  0
 29 32  1  0  0  0  0
 27 28  1  0  0  0  0
 27 29  1  0  0  0  0
M  END
$$$$
default_name
  -OEChem-02102213163D

 32 32  0     1  0  0  0  0  0999 V2000
   -3.8405   -3.7518    1.6252 H   0  0  0  0  0  0  0  0  0  0  0  0
   -3.7965   -2.8768    0.9782 C   0  0  0  0  0  0  0  0  0  0  0  0
   -4.5465   -2.1527    1.2902 H   0  0  0  0  0  0  0  0  0  0  0  0
   -3.9745   -3.1748   -0.0538 H   0  0  0  0  0  0  0  0  0  0  0  0
   -2.4245   -2.2537    1.0882 C   0  0  0  0  0  0  0  0  0  0  0  0
   -1.5805   -2.7478    1.8242 O   0  0  0  0  0  0  0  0  0  0  0  0
   -2.2045   -1.1637    0.3562 N   0  0  0  0  0  0  0  0  0  0  0  0
   -2.9595   -0.7907   -0.2008 H   0  0  0  0  0  0  0  0  0  0  0  0
   -0.9485   -0.4087    0.3482 C   0  0  1  0  0  0  0  0  0  0  0  0
   -0.1408   -1.0795    0.0507 H   0  0  0  0  0  0  0  0  0  0  0  0
   -1.0432    0.7243   -0.6879 C   0  0  0  0  0  0  0  0  0  0  0  0
   -1.6643    1.5247   -0.2833 H   0  0  0  0  0  0  0  0  0  0  0  0
   -0.0465    1.1356   -0.8545 H   0  0  0  0  0  0  0  0  0  0  0  0
   -1.6361    0.2952   -2.0165 C   0  0  0  0  0  0  0  0  0  0  0  0
   -2.0777    1.2574   -2.9445 C   0  0  0  0  0  0  0  0  0  0  0  0
   -2.0175    2.3097   -2.7054 H   0  0  0  0  0  0  0  0  0  0  0  0
   -2.5885    0.8529   -4.1917 C   0  0  0  0  0  0  0  0  0  0  0  0
   -2.9294    1.5932   -4.9018 H   0  0  0  0  0  0  0  0  0  0  0  0
   -2.6568   -0.5132   -4.5138 C   0  0  0  0  0  0  0  0  0  0  0  0
   -3.0514   -0.8241   -5.4711 H   0  0  0  0  0  0  0  0  0  0  0  0
   -2.2178   -1.4773   -3.5882 C   0  0  0  0  0  0  0  0  0  0  0  0
   -2.2754   -2.5277   -3.8336 H   0  0  0  0  0  0  0  0  0  0  0  0
   -1.7105   -1.0729   -2.3406 C   0  0  0  0  0  0  0  0  0  0  0  0
   -1.3762   -1.8157   -1.6281 H   0  0  0  0  0  0  0  0  0  0  0  0
   -0.6196    0.1253    1.7539 C   0  0  0  0  0  0  0  0  0  0  0  0
    0.5216    0.0194    2.2054 O   0  0  0  0  0  0  0  0  0  0  0  0
   -1.6152    0.6924    2.4469 N   0  0  0  0  0  0  0  0  0  0  0  0
   -2.5345    0.6914    2.0318 H   0  0  0  0  0  0  0  0  0  0  0  0
   -1.4720    1.2390    3.7941 C   0  0  0  0  0  0  0  0  0  0  0  0
   -0.6345    1.9391    3.8219 H   0  0  0  0  0  0  0  0  0  0  0  0
   -2.3844    1.7580    4.0892 H   0  0  0  0  0  0  0  0  0  0  0  0
   -1.2733    0.4298    4.4995 H   0  0  0  0  0  0  0  0  0  0  0  0
  5  6  2  0  0  0  0
  5  7  1  0  0  0  0
  2  3  1  0  0  0  0
  2  4  1  0  0  0  0
  2  5  1  0  0  0  0
  1  2  1  0  0  0  0
 25 26  2  0  0  0  0
 25 27  1  0  0  0  0
 23 24  1  0  0  0  0
 21 22  1  0  0  0  0
 21 23  2  0  0  0  0
 19 20  1  0  0  0  0
 19 21  1  0  0  0  0
 17 18  1  0  0  0  0
 17 19  2  0  0  0  0
 15 16  1  0  0  0  0
 15 17  1  0  0  0  0
 14 15  2  0  0  0  0
 14 23  1  0  0  0  0
 11 12  1  0  0  0  0
 11 13  1  0  0  0  0
 11 14  1  0  0  0  0
  9 10  1  0  0  0  0
  9 11  1  0  0  0  0
  9 25  1  0  0  0  0
  7  8  1  0  0  0  0
  7  9  1  0  0  0  0
 29 30  1  0  0  0  0
 29 31  1  0  0  0  0
 29 32  1  0  0  0  0
 27 28  1  0  0  0  0
 27 29  1  0  0  0  0
M  END
$$$$
default_name
  -OEChem-02102213163D

 32 32  0     1  0  0  0  0  0999 V2000
   -3.8405   -3.7518    1.6252 H   0  0  0  0  0  0  0  0  0  0  0  0
   -3.7965   -2.8768    0.9782 C   0  0  0  0  0  0  0  0  0  0  0  0
   -4.5465   -2.1527    1.2902 H   0  0  0  0  0  0  0  0  0  0  0  0
   -3.9745   -3.1748   -0.0538 H   0  0  0  0  0  0  0  0  0  0  0  0
   -2.4245   -2.2537    1.0882 C   0  0  0  0  0  0  0  0  0  0  0  0
   -1.5805   -2.7478    1.8242 O   0  0  0  0  0  0  0  0  0  0  0  0
   -2.2045   -1.1637    0.3562 N   0  0  0  0  0  0  0  0  0  0  0  0
   -2.9595   -0.7907   -0.2008 H   0  0  0  0  0  0  0  0  0  0  0  0
   -0.9485   -0.4087    0.3482 C   0  0  1  0  0  0  0  0  0  0  0  0
   -0.1408   -1.0795    0.0507 H   0  0  0  0  0  0  0  0  0  0  0  0
   -1.0432    0.7243   -0.6879 C   0  0  0  0  0  0  0  0  0  0  0  0
   -1.4272    1.6210   -0.1996 H   0  0  0  0  0  0  0  0  0  0  0  0
   -0.0412    0.9540   -1.0535 H   0  0  0  0  0  0  0  0  0  0  0  0
   -1.9453    0.4075   -1.8655 C   0  0  0  0  0  0  0  0  0  0  0  0
   -2.1309    1.3491   -2.8955 C   0  0  0  0  0  0  0  0  0  0  0  0
   -1.6482    2.3147   -2.8415 H   0  0  0  0  0  0  0  0  0  0  0  0
   -2.9363    1.0322   -4.0048 C   0  0  0  0  0  0  0  0  0  0  0  0
   -3.0796    1.7577   -4.7933 H   0  0  0  0  0  0  0  0  0  0  0  0
   -3.5557   -0.2264   -4.0874 C   0  0  0  0  0  0  0  0  0  0  0  0
   -4.1764   -0.4689   -4.9386 H   0  0  0  0  0  0  0  0  0  0  0  0
   -3.3736   -1.1691   -3.0592 C   0  0  0  0  0  0  0  0  0  0  0  0
   -3.8540   -2.1346   -3.1199 H   0  0  0  0  0  0  0  0  0  0  0  0
   -2.5713   -0.8509   -1.9491 C   0  0  0  0  0  0  0  0  0  0  0  0
   -2.4347   -1.5758   -1.1571 H   0  0  0  0  0  0  0  0  0  0  0  0
   -0.6196    0.1253    1.7539 C   0  0  0  0  0  0  0  0  0  0  0  0
    0.5216    0.0194    2.2054 O   0  0  0  0  0  0  0  0  0  0  0  0
   -1.6152    0.6924    2.4469 N   0  0  0  0  0  0  0  0  0  0  0  0
   -2.5345    0.6914    2.0318 H   0  0  0  0  0  0  0  0  0  0  0  0
   -1.4720    1.2390    3.7941 C   0  0  0  0  0  0  0  0  0  0  0  0
   -0.6345    1.9391    3.8219 H   0  0  0  0  0  0  0  0  0  0  0  0
   -2.3844    1.7580    4.0892 H   0  0  0  0  0  0  0  0  0  0  0  0
   -1.2733    0.4298    4.4995 H   0  0  0  0  0  0  0  0  0  0  0  0
  5  6  2  0  0  0  0
  5  7  1  0  0  0  0
  2  3  1  0  0  0  0
  2  4  1  0  0  0  0
  2  5  1  0  0  0  0
  1  2  1  0  0  0  0
 25 26  2  0  0  0  0
 25 27  1  0  0  0  0
 23 24  1  0  0  0  0
 21 22  1  0  0  0  0
 21 23  2  0  0  0  0
 19 20  1  0  0  0  0
 19 21  1  0  0  0  0
 17 18  1  0  0  0  0
 17 19  2  0  0  0  0
 15 16  1  0  0  0  0
 15 17  1  0  0  0  0
 14 15  2  0  0  0  0
 14 23  1  0  0  0  0
 11 12  1  0  0  0  0
 11 13  1  0  0  0  0
 11 14  1  0  0  0  0
  9 10  1  0  0  0  0
  9 11  1  0  0  0  0
  9 25  1  0  0  0  0
  7  8  1  0  0  0  0
  7  9  1  0  0  0  0
 29 30  1  0  0  0  0
 29 31  1  0  0  0  0
 29 32  1  0  0  0  0
 27 28  1  0  0  0  0
 27 29  1  0  0  0  0
M  END
$$$$
default_name
  -OEChem-02102213163D

 32 32  0     1  0  0  0  0  0999 V2000
   -3.8405   -3.7518    1.6252 H   0  0  0  0  0  0  0  0  0  0  0  0
   -3.7965   -2.8768    0.9782 C   0  0  0  0  0  0  0  0  0  0  0  0
   -4.5465   -2.1527    1.2902 H   0  0  0  0  0  0  0  0  0  0  0  0
   -3.9745   -3.1748   -0.0538 H   0  0  0  0  0  0  0  0  0  0  0  0
   -2.4245   -2.2537    1.0882 C   0  0  0  0  0  0  0  0  0  0  0  0
   -1.5805   -2.7478    1.8242 O   0  0  0  0  0  0  0  0  0  0  0  0
   -2.2045   -1.1637    0.3562 N   0  0  0  0  0  0  0  0  0  0  0  0
   -2.9595   -0.7907   -0.2008 H   0  0  0  0  0  0  0  0  0  0  0  0
   -0.9485   -0.4087    0.3482 C   0  0  1  0  0  0  0  0  0  0  0  0
   -0.1408   -1.0795    0.0507 H   0  0  0  0  0  0  0  0  0  0  0  0
   -1.0432    0.7243   -0.6879 C   0  0  0  0  0  0  0  0  0  0  0  0
   -1.4272    1.6210   -0.1996 H   0  0  0  0  0  0  0  0  0  0  0  0
   -0.0412    0.9540   -1.0535 H   0  0  0  0  0  0  0  0  0  0  0  0
   -1.9453    0.4075   -1.8655 C   0  0  0  0  0  0  0  0  0  0  0  0
   -1.8941    1.1907   -3.0342 C   0  0  0  0  0  0  0  0  0  0  0  0
   -1.2260    2.0385   -3.0906 H   0  0  0  0  0  0  0  0  0  0  0  0
   -2.7043    0.8657   -4.1377 C   0  0  0  0  0  0  0  0  0  0  0  0
   -2.6654    1.4699   -5.0332 H   0  0  0  0  0  0  0  0  0  0  0  0
   -3.5652   -0.2433   -4.0756 C   0  0  0  0  0  0  0  0  0  0  0  0
   -4.1893   -0.4915   -4.9226 H   0  0  0  0  0  0  0  0  0  0  0  0
   -3.6198   -1.0271   -2.9087 C   0  0  0  0  0  0  0  0  0  0  0  0
   -4.2855   -1.8763   -2.8588 H   0  0  0  0  0  0  0  0  0  0  0  0
   -2.8125   -0.7001   -1.8049 C   0  0  0  0  0  0  0  0  0  0  0  0
   -2.8579   -1.3019   -0.9065 H   0  0  0  0  0  0  0  0  0  0  0  0
   -0.6196    0.1253    1.7539 C   0  0  0  0  0  0  0  0  0  0  0  0
    0.5216    0.0194    2.2054 O   0  0  0  0  0  0  0  0  0  0  0  0
   -1.6152    0.6924    2.4469 N   0  0  0  0  0  0  0  0  0  0  0  0
   -2.5345    0.6914    2.0318 H   0  0  0  0  0  0  0  0  0  0  0  0
   -1.4720    1.2390    3.7941 C   0  0  0  0  0  0  0  0  0  0  0  0
   -0.6345    1.9391    3.8219 H   0  0  0  0  0  0  0  0  0  0  0  0
   -2.3844    1.7580    4.0892 H   0  0  0  0  0  0  0  0  0  0  0  0
   -1.2733    0.4298    4.4995 H   0  0  0  0  0  0  0  0  0  0  0  0
  5  6  2  0  0  0  0
  5  7  1  0  0  0  0
  2  3  1  0  0  0  0
  2  4  1  0  0  0  0
  2  5  1  0  0  0  0
  1  2  1  0  0  0  0
 25 26  2  0  0  0  0
 25 27  1  0  0  0  0
 23 24  1  0  0  0  0
 21 22  1  0  0  0  0
 21 23  2  0  0  0  0
 19 20  1  0  0  0  0
 19 21  1  0  0  0  0
 17 18  1  0  0  0  0
 17 19  2  0  0  0  0
 15 16  1  0  0  0  0
 15 17  1  0  0  0  0
 14 15  2  0  0  0  0
 14 23  1  0  0  0  0
 11 12  1  0  0  0  0
 11 13  1  0  0  0  0
 11 14  1  0  0  0  0
  9 10  1  0  0  0  0
  9 11  1  0  0  0  0
  9 25  1  0  0  0  0
  7  8  1  0  0  0  0
  7  9  1  0  0  0  0
 29 30  1  0  0  0  0
 29 31  1  0  0  0  0
 29 32  1  0  0  0  0
 27 28  1  0  0  0  0
 27 29  1  0  0  0  0
M  END
$$$$
default_name
  -OEChem-02102213163D

 32 32  0     1  0  0  0  0  0999 V2000
   -3.8405   -3.7518    1.6252 H   0  0  0  0  0  0  0  0  0  0  0  0
   -3.7965   -2.8768    0.9782 C   0  0  0  0  0  0  0  0  0  0  0  0
   -4.5465   -2.1527    1.2902 H   0  0  0  0  0  0  0  0  0  0  0  0
   -3.9745   -3.1748   -0.0538 H   0  0  0  0  0  0  0  0  0  0  0  0
   -2.4245   -2.2537    1.0882 C   0  0  0  0  0  0  0  0  0  0  0  0
   -1.5805   -2.7478    1.8242 O   0  0  0  0  0  0  0  0  0  0  0  0
   -2.2045   -1.1637    0.3562 N   0  0  0  0  0  0  0  0  0  0  0  0
   -2.9595   -0.7907   -0.2008 H   0  0  0  0  0  0  0  0  0  0  0  0
   -0.9485   -0.4087    0.3482 C   0  0  1  0  0  0  0  0  0  0  0  0
   -0.1408   -1.0795    0.0507 H   0  0  0  0  0  0  0  0  0  0  0  0
   -1.0432    0.7243   -0.6879 C   0  0  0  0  0  0  0  0  0  0  0  0
   -1.4272    1.6210   -0.1996 H   0  0  0  0  0  0  0  0  0  0  0  0
   -0.0412    0.9540   -1.0535 H   0  0  0  0  0  0  0  0  0  0  0  0
   -1.9453    0.4075   -1.8655 C   0  0  0  0  0  0  0  0  0  0  0  0
   -1.6898    0.9688   -3.1310 C   0  0  0  0  0  0  0  0  0  0  0  0
   -0.8603    1.6485   -3.2658 H   0  0  0  0  0  0  0  0  0  0  0  0
   -2.5065    0.6377   -4.2280 C   0  0  0  0  0  0  0  0  0  0  0  0
   -2.3101    1.0718   -5.1983 H   0  0  0  0  0  0  0  0  0  0  0  0
   -3.5783   -0.2559   -4.0622 C   0  0  0  0  0  0  0  0  0  0  0  0
   -4.2072   -0.5083   -4.9044 H   0  0  0  0  0  0  0  0  0  0  0  0
   -3.8373   -0.8173   -2.7986 C   0  0  0  0  0  0  0  0  0  0  0  0
   -4.6644   -1.5000   -2.6698 H   0  0  0  0  0  0  0  0  0  0  0  0
   -3.0229   -0.4838   -1.7018 C   0  0  0  0  0  0  0  0  0  0  0  0
   -3.2253   -0.9138   -0.7295 H   0  0  0  0  0  0  0  0  0  0  0  0
   -0.6196    0.1253    1.7539 C   0  0  0  0  0  0  0  0  0  0  0  0
    0.5216    0.0194    2.2054 O   0  0  0  0  0  0  0  0  0  0  0  0
   -1.6152    0.6924    2.4469 N   0  0  0  0  0  0  0  0  0  0  0  0
   -2.5345    0.6914    2.0318 H   0  0  0  0  0  0  0  0  0  0  0  0
   -1.4720    1.2390    3.7941 C   0  0  0  0  0  0  0  0  0  0  0  0
   -0.6345    1.9391    3.8219 H   0  0  0  0  0  0  0  0  0  0  0  0
   -2.3844    1.7580    4.0892 H   0  0  0  0  0  0  0  0  0  0  0  0
   -1.2733    0.4298    4.4995 H   0  0  0  0  0  0  0  0  0  0  0  0
  5  6  2  0  0  0  0
  5  7  1  0  0  0  0
  2  3  1  0  0  0  0
  2  4  1  0  0  0  0
  2  5  1  0  0  0  0
  1  2  1  0  0  0  0
 25 26  2  0  0  0  0
 25 27  1  0  0  0  0
 23 24  1  0  0  0  0
 21 22  1  0  0  0  0
 21 23  2  0  0  0  0
 19 20  1  0  0  0  0
 19 21  1  0  0  0  0
 17 18  1  0  0  0  0
 17 19  2  0  0  0  0
 15 16  1  0  0  0  0
 15 17  1  0  0  0  0
 14 15  2  0  0  0  0
 14 23  1  0  0  0  0
 11 12  1  0  0  0  0
 11 13  1  0  0  0  0
 11 14  1  0  0  0  0
  9 10  1  0  0  0  0
  9 11  1  0  0  0  0
  9 25  1  0  0  0  0
  7  8  1  0  0  0  0
  7  9  1  0  0  0  0
 29 30  1  0  0  0  0
 29 31  1  0  0  0  0
 29 32  1  0  0  0  0
 27 28  1  0  0  0  0
 27 29  1  0  0  0  0
M  END
$$$$
default_name
  -OEChem-02102213163D

 32 32  0     1  0  0  0  0  0999 V2000
   -3.8405   -3.7518    1.6252 H   0  0  0  0  0  0  0  0  0  0  0  0
   -3.7965   -2.8768    0.9782 C   0  0  0  0  0  0  0  0  0  0  0  0
   -4.5465   -2.1527    1.2902 H   0  0  0  0  0  0  0  0  0  0  0  0
   -3.9745   -3.1748   -0.0538 H   0  0  0  0  0  0  0  0  0  0  0  0
   -2.4245   -2.2537    1.0882 C   0  0  0  0  0  0  0  0  0  0  0  0
   -1.5805   -2.7478    1.8242 O   0  0  0  0  0  0  0  0  0  0  0  0
   -2.2045   -1.1637    0.3562 N   0  0  0  0  0  0  0  0  0  0  0  0
   -2.9595   -0.7907   -0.2008 H   0  0  0  0  0  0  0  0  0  0  0  0
   -0.9485   -0.4087    0.3482 C   0  0  1  0  0  0  0  0  0  0  0  0
   -0.1408   -1.0795    0.0507 H   0  0  0  0  0  0  0  0  0  0  0  0
   -1.0432    0.7243   -0.6879 C   0  0  0  0  0  0  0  0  0  0  0  0
   -1.4272    1.6210   -0.1996 H   0  0  0  0  0  0  0  0  0  0  0  0
   -0.0412    0.9540   -1.0535 H   0  0  0  0  0  0  0  0  0  0  0  0
   -1.9453    0.4075   -1.8655 C   0  0  0  0  0  0  0  0  0  0  0  0
   -1.5317    0.6984   -3.1794 C   0  0  0  0  0  0  0  0  0  0  0  0
   -0.5759    1.1714   -3.3553 H   0  0  0  0  0  0  0  0  0  0  0  0
   -2.3564    0.3639   -4.2693 C   0  0  0  0  0  0  0  0  0  0  0  0
   -2.0381    0.5905   -5.2772 H   0  0  0  0  0  0  0  0  0  0  0  0
   -3.5942   -0.2633   -4.0480 C   0  0  0  0  0  0  0  0  0  0  0  0
   -4.2288   -0.5181   -4.8852 H   0  0  0  0  0  0  0  0  0  0  0  0
   -4.0112   -0.5541   -2.7362 C   0  0  0  0  0  0  0  0  0  0  0  0
   -4.9650   -1.0312   -2.5656 H   0  0  0  0  0  0  0  0  0  0  0  0
   -3.1883   -0.2167   -1.6470 C   0  0  0  0  0  0  0  0  0  0  0  0
   -3.5117   -0.4379   -0.6381 H   0  0  0  0  0  0  0  0  0  0  0  0
   -0.6196    0.1253    1.7539 C   0  0  0  0  0  0  0  0  0  0  0  0
    0.5216    0.0194    2.2054 O   0  0  0  0  0  0  0  0  0  0  0  0
   -1.6152    0.6924    2.4469 N   0  0  0  0  0  0  0  0  0  0  0  0
   -2.5345    0.6914    2.0318 H   0  0  0  0  0  0  0  0  0  0  0  0
   -1.4720    1.2390    3.7941 C   0  0  0  0  0  0  0  0  0  0  0  0
   -0.6345    1.9391    3.8219 H   0  0  0  0  0  0  0  0  0  0  0  0
   -2.3844    1.7580    4.0892 H   0  0  0  0  0  0  0  0  0  0  0  0
   -1.2733    0.4298    4.4995 H   0  0  0  0  0  0  0  0  0  0  0  0
  5  6  2  0  0  0  0
  5  7  1  0  0  0  0
  2  3  1  0  0  0  0
  2  4  1  0  0  0  0
  2  5  1  0  0  0  0
  1  2  1  0  0  0  0
 25 26  2  0  0  0  0
 25 27  1  0  0  0  0
 23 24  1  0  0  0  0
 21 22  1  0  0  0  0
 21 23  2  0  0  0  0
 19 20  1  0  0  0  0
 19 21  1  0  0  0  0
 17 18  1  0  0  0  0
 17 19  2  0  0  0  0
 15 16  1  0  0  0  0
 15 17  1  0  0  0  0
 14 15  2  0  0  0  0
 14 23  1  0  0  0  0
 11 12  1  0  0  0  0
 11 13  1  0  0  0  0
 11 14  1  0  0  0  0
  9 10  1  0  0  0  0
  9 11  1  0  0  0  0
  9 25  1  0  0  0  0
  7  8  1  0  0  0  0
  7  9  1  0  0  0  0
 29 30  1  0  0  0  0
 29 31  1  0  0  0  0
 29 32  1  0  0  0  0
 27 28  1  0  0  0  0
 27 29  1  0  0  0  0
M  END
$$$$
default_name
  -OEChem-02102213163D

 32 32  0     1  0  0  0  0  0999 V2000
   -3.8405   -3.7518    1.6252 H   0  0  0  0  0  0  0  0  0  0  0  0
   -3.7965   -2.8768    0.9782 C   0  0  0  0  0  0  0  0  0  0  0  0
   -4.5465   -2.1527    1.2902 H   0  0  0  0  0  0  0  0  0  0  0  0
   -3.9745   -3.1748   -0.0538 H   0  0  0  0  0  0  0  0  0  0  0  0
   -2.4245   -2.2537    1.0882 C   0  0  0  0  0  0  0  0  0  0  0  0
   -1.5805   -2.7478    1.8242 O   0  0  0  0  0  0  0  0  0  0  0  0
   -2.2045   -1.1637    0.3562 N   0  0  0  0  0  0  0  0  0  0  0  0
   -2.9595   -0.7907   -0.2008 H   0  0  0  0  0  0  0  0  0  0  0  0
   -0.9485   -0.4087    0.3482 C   0  0  1  0  0  0  0  0  0  0  0  0
   -0.1408   -1.0795    0.0507 H   0  0  0  0  0  0  0  0  0  0  0  0
   -1.0432    0.7243   -0.6879 C   0  0  0  0  0  0  0  0  0  0  0  0
   -1.4272    1.6210   -0.1996 H   0  0  0  0  0  0  0  0  0  0  0  0
   -0.0412    0.9540   -1.0535 H   0  0  0  0  0  0  0  0  0  0  0  0
   -1.9453    0.4075   -1.8655 C   0  0  0  0  0  0  0  0  0  0  0  0
   -1.4308    0.3981   -3.1759 C   0  0  0  0  0  0  0  0  0  0  0  0
   -0.3922    0.6396   -3.3530 H   0  0  0  0  0  0  0  0  0  0  0  0
   -2.2642    0.0629   -4.2590 C   0  0  0  0  0  0  0  0  0  0  0  0
   -1.8677    0.0588   -5.2646 H   0  0  0  0  0  0  0  0  0  0  0  0
   -3.6119   -0.2651   -4.0339 C   0  0  0  0  0  0  0  0  0  0  0  0
   -4.2527   -0.5203   -4.8663 H   0  0  0  0  0  0  0  0  0  0  0  0
   -4.1296   -0.2552   -2.7259 C   0  0  0  0  0  0  0  0  0  0  0  0
   -5.1669   -0.5020   -2.5533 H   0  0  0  0  0  0  0  0  0  0  0  0
   -3.2973    0.0830   -1.6441 C   0  0  0  0  0  0  0  0  0  0  0  0
   -3.6977    0.0935   -0.6386 H   0  0  0  0  0  0  0  0  0  0  0  0
   -0.6196    0.1253    1.7539 C   0  0  0  0  0  0  0  0  0  0  0  0
    0.5216    0.0194    2.2054 O   0  0  0  0  0  0  0  0  0  0  0  0
   -1.6152    0.6924    2.4469 N   0  0  0  0  0  0  0  0  0  0  0  0
   -2.5345    0.6914    2.0318 H   0  0  0  0  0  0  0  0  0  0  0  0
   -1.4720    1.2390    3.7941 C   0  0  0  0  0  0  0  0  0  0  0  0
   -0.6345    1.9391    3.8219 H   0  0  0  0  0  0  0  0  0  0  0  0
   -2.3844    1.7580    4.0892 H   0  0  0  0  0  0  0  0  0  0  0  0
   -1.2733    0.4298    4.4995 H   0  0  0  0  0  0  0  0  0  0  0  0
  5  6  2  0  0  0  0
  5  7  1  0  0  0  0
  2  3  1  0  0  0  0
  2  4  1  0  0  0  0
  2  5  1  0  0  0  0
  1  2  1  0  0  0  0
 25 26  2  0  0  0  0
 25 27  1  0  0  0  0
 23 24  1  0  0  0  0
 21 22  1  0  0  0  0
 21 23  2  0  0  0  0
 19 20  1  0  0  0  0
 19 21  1  0  0  0  0
 17 18  1  0  0  0  0
 17 19  2  0  0  0  0
 15 16  1  0  0  0  0
 15 17  1  0  0  0  0
 14 15  2  0  0  0  0
 14 23  1  0  0  0  0
 11 12  1  0  0  0  0
 11 13  1  0  0  0  0
 11 14  1  0  0  0  0
  9 10  1  0  0  0  0
  9 11  1  0  0  0  0
  9 25  1  0  0  0  0
  7  8  1  0  0  0  0
  7  9  1  0  0  0  0
 29 30  1  0  0  0  0
 29 31  1  0  0  0  0
 29 32  1  0  0  0  0
 27 28  1  0  0  0  0
 27 29  1  0  0  0  0
M  END
$$$$
default_name
  -OEChem-02102213163D

 32 32  0     1  0  0  0  0  0999 V2000
   -3.8405   -3.7518    1.6252 H   0  0  0  0  0  0  0  0  0  0  0  0
   -3.7965   -2.8768    0.9782 C   0  0  0  0  0  0  0  0  0  0  0  0
   -4.5465   -2.1527    1.2902 H   0  0  0  0  0  0  0  0  0  0  0  0
   -3.9745   -3.1748   -0.0538 H   0  0  0  0  0  0  0  0  0  0  0  0
   -2.4245   -2.2537    1.0882 C   0  0  0  0  0  0  0  0  0  0  0  0
   -1.5805   -2.7478    1.8242 O   0  0  0  0  0  0  0  0  0  0  0  0
   -2.2045   -1.1637    0.3562 N   0  0  0  0  0  0  0  0  0  0  0  0
   -2.9595   -0.7907   -0.2008 H   0  0  0  0  0  0  0  0  0  0  0  0
   -0.9485   -0.4087    0.3482 C   0  0  1  0  0  0  0  0  0  0  0  0
   -0.1408   -1.0795    0.0507 H   0  0  0  0  0  0  0  0  0  0  0  0
   -1.0432    0.7243   -0.6879 C   0  0  0  0  0  0  0  0  0  0  0  0
   -1.4272    1.6210   -0.1996 H   0  0  0  0  0  0  0  0  0  0  0  0
   -0.0412    0.9540   -1.0535 H   0  0  0  0  0  0  0  0  0  0  0  0
   -1.9453    0.4075   -1.8655 C   0  0  0  0  0  0  0  0  0  0  0  0
   -1.3939    0.0883   -3.1209 C   0  0  0  0  0  0  0  0  0  0  0  0
   -0.3218    0.0894   -3.2589 H   0  0  0  0  0  0  0  0  0  0  0  0
   -2.2361   -0.2448   -4.1977 C   0  0  0  0  0  0  0  0  0  0  0  0
   -1.8107   -0.4871   -5.1615 H   0  0  0  0  0  0  0  0  0  0  0  0
   -3.6301   -0.2611   -4.0211 C   0  0  0  0  0  0  0  0  0  0  0  0
   -4.2772   -0.5147   -4.8491 H   0  0  0  0  0  0  0  0  0  0  0  0
   -4.1844    0.0588   -2.7684 C   0  0  0  0  0  0  0  0  0  0  0  0
   -5.2562    0.0516   -2.6339 H   0  0  0  0  0  0  0  0  0  0  0  0
   -3.3426    0.3948   -1.6933 C   0  0  0  0  0  0  0  0  0  0  0  0
   -3.7705    0.6440   -0.7309 H   0  0  0  0  0  0  0  0  0  0  0  0
   -0.6196    0.1253    1.7539 C   0  0  0  0  0  0  0  0  0  0  0  0
    0.5216    0.0194    2.2054 O   0  0  0  0  0  0  0  0  0  0  0  0
   -1.6152    0.6924    2.4469 N   0  0  0  0  0  0  0  0  0  0  0  0
   -2.5345    0.6914    2.0318 H   0  0  0  0  0  0  0  0  0  0  0  0
   -1.4720    1.2390    3.7941 C   0  0  0  0  0  0  0  0  0  0  0  0
   -0.6345    1.9391    3.8219 H   0  0  0  0  0  0  0  0  0  0  0  0
   -2.3844    1.7580    4.0892 H   0  0  0  0  0  0  0  0  0  0  0  0
   -1.2733    0.4298    4.4995 H   0  0  0  0  0  0  0  0  0  0  0  0
  5  6  2  0  0  0  0
  5  7  1  0  0  0  0
  2  3  1  0  0  0  0
  2  4  1  0  0  0  0
  2  5  1  0  0  0  0
  1  2  1  0  0  0  0
 25 26  2  0  0  0  0
 25 27  1  0  0  0  0
 23 24  1  0  0  0  0
 21 22  1  0  0  0  0
 21 23  2  0  0  0  0
 19 20  1  0  0  0  0
 19 21  1  0  0  0  0
 17 18  1  0  0  0  0
 17 19  2  0  0  0  0
 15 16  1  0  0  0  0
 15 17  1  0  0  0  0
 14 15  2  0  0  0  0
 14 23  1  0  0  0  0
 11 12  1  0  0  0  0
 11 13  1  0  0  0  0
 11 14  1  0  0  0  0
  9 10  1  0  0  0  0
  9 11  1  0  0  0  0
  9 25  1  0  0  0  0
  7  8  1  0  0  0  0
  7  9  1  0  0  0  0
 29 30  1  0  0  0  0
 29 31  1  0  0  0  0
 29 32  1  0  0  0  0
 27 28  1  0  0  0  0
 27 29  1  0  0  0  0
M  END
$$$$
default_name
  -OEChem-02102213163D

 32 32  0     1  0  0  0  0  0999 V2000
   -3.8405   -3.7518    1.6252 H   0  0  0  0  0  0  0  0  0  0  0  0
   -3.7965   -2.8768    0.9782 C   0  0  0  0  0  0  0  0  0  0  0  0
   -4.5465   -2.1527    1.2902 H   0  0  0  0  0  0  0  0  0  0  0  0
   -3.9745   -3.1748   -0.0538 H   0  0  0  0  0  0  0  0  0  0  0  0
   -2.4245   -2.2537    1.0882 C   0  0  0  0  0  0  0  0  0  0  0  0
   -1.5805   -2.7478    1.8242 O   0  0  0  0  0  0  0  0  0  0  0  0
   -2.2045   -1.1637    0.3562 N   0  0  0  0  0  0  0  0  0  0  0  0
   -2.9595   -0.7907   -0.2008 H   0  0  0  0  0  0  0  0  0  0  0  0
   -0.9485   -0.4087    0.3482 C   0  0  1  0  0  0  0  0  0  0  0  0
   -0.1408   -1.0795    0.0507 H   0  0  0  0  0  0  0  0  0  0  0  0
   -1.0432    0.7243   -0.6879 C   0  0  0  0  0  0  0  0  0  0  0  0
   -1.4272    1.6210   -0.1996 H   0  0  0  0  0  0  0  0  0  0  0  0
   -0.0412    0.9540   -1.0535 H   0  0  0  0  0  0  0  0  0  0  0  0
   -1.9453    0.4075   -1.8655 C   0  0  0  0  0  0  0  0  0  0  0  0
   -1.4234   -0.2100   -3.0180 C   0  0  0  0  0  0  0  0  0  0  0  0
   -0.3694   -0.4418   -3.0795 H   0  0  0  0  0  0  0  0  0  0  0  0
   -2.2741   -0.5382   -4.0896 C   0  0  0  0  0  0  0  0  0  0  0  0
   -1.8709   -1.0100   -4.9747 H   0  0  0  0  0  0  0  0  0  0  0  0
   -3.6475   -0.2517   -4.0102 C   0  0  0  0  0  0  0  0  0  0  0  0
   -4.3007   -0.5017   -4.8345 H   0  0  0  0  0  0  0  0  0  0  0  0
   -4.1721    0.3666   -2.8607 C   0  0  0  0  0  0  0  0  0  0  0  0
   -5.2268    0.5919   -2.8017 H   0  0  0  0  0  0  0  0  0  0  0  0
   -3.3211    0.6975   -1.7912 C   0  0  0  0  0  0  0  0  0  0  0  0
   -3.7253    1.1762   -0.9088 H   0  0  0  0  0  0  0  0  0  0  0  0
   -0.6196    0.1253    1.7539 C   0  0  0  0  0  0  0  0  0  0  0  0
    0.5216    0.0194    2.2054 O   0  0  0  0  0  0  0  0  0  0  0  0
   -1.6152    0.6924    2.4469 N   0  0  0  0  0  0  0  0  0  0  0  0
   -2.5345    0.6914    2.0318 H   0  0  0  0  0  0  0  0  0  0  0  0
   -1.4720    1.2390    3.7941 C   0  0  0  0  0  0  0  0  0  0  0  0
   -0.6345    1.9391    3.8219 H   0  0  0  0  0  0  0  0  0  0  0  0
   -2.3844    1.7580    4.0892 H   0  0  0  0  0  0  0  0  0  0  0  0
   -1.2733    0.4298    4.4995 H   0  0  0  0  0  0  0  0  0  0  0  0
  5  6  2  0  0  0  0
  5  7  1  0  0  0  0
  2  3  1  0  0  0  0
  2  4  1  0  0  0  0
  2  5  1  0  0  0  0
  1  2  1  0  0  0  0
 25 26  2  0  0  0  0
 25 27  1  0  0  0  0
 23 24  1  0  0  0  0
 21 22  1  0  0  0  0
 21 23  2  0  0  0  0
 19 20  1  0  0  0  0
 19 21  1  0  0  0  0
 17 18  1  0  0  0  0
 17 19  2  0  0  0  0
 15 16  1  0  0  0  0
 15 17  1  0  0  0  0
 14 15  2  0  0  0  0
 14 23  1  0  0  0  0
 11 12  1  0  0  0  0
 11 13  1  0  0  0  0
 11 14  1  0  0  0  0
  9 10  1  0  0  0  0
  9 11  1  0  0  0  0
  9 25  1  0  0  0  0
  7  8  1  0  0  0  0
  7  9  1  0  0  0  0
 29 30  1  0  0  0  0
 29 31  1  0  0  0  0
 29 32  1  0  0  0  0
 27 28  1  0  0  0  0
 27 29  1  0  0  0  0
M  END
$$$$
default_name
  -OEChem-02102213163D

 32 32  0     1  0  0  0  0  0999 V2000
   -3.8405   -3.7518    1.6252 H   0  0  0  0  0  0  0  0  0  0  0  0
   -3.7965   -2.8768    0.9782 C   0  0  0  0  0  0  0  0  0  0  0  0
   -4.5465   -2.1527    1.2902 H   0  0  0  0  0  0  0  0  0  0  0  0
   -3.9745   -3.1748   -0.0538 H   0  0  0  0  0  0  0  0  0  0  0  0
   -2.4245   -2.2537    1.0882 C   0  0  0  0  0  0  0  0  0  0  0  0
   -1.5805   -2.7478    1.8242 O   0  0  0  0  0  0  0  0  0  0  0  0
   -2.2045   -1.1637    0.3562 N   0  0  0  0  0  0  0  0  0  0  0  0
   -2.9595   -0.7907   -0.2008 H   0  0  0  0  0  0  0  0  0  0  0  0
   -0.9485   -0.4087    0.3482 C   0  0  1  0  0  0  0  0  0  0  0  0
   -0.1408   -1.0795    0.0507 H   0  0  0  0  0  0  0  0  0  0  0  0
   -1.0432    0.7243   -0.6879 C   0  0  0  0  0  0  0  0  0  0  0  0
   -1.4272    1.6210   -0.1996 H   0  0  0  0  0  0  0  0  0  0  0  0
   -0.0412    0.9540   -1.0535 H   0  0  0  0  0  0  0  0  0  0  0  0
   -1.9453    0.4075   -1.8655 C   0  0  0  0  0  0  0  0  0  0  0  0
   -1.5174   -0.4763   -2.8743 C   0  0  0  0  0  0  0  0  0  0  0  0
   -0.5319   -0.9176   -2.8271 H   0  0  0  0  0  0  0  0  0  0  0  0
   -2.3757   -0.7974   -3.9421 C   0  0  0  0  0  0  0  0  0  0  0  0
   -2.0441   -1.4742   -4.7170 H   0  0  0  0  0  0  0  0  0  0  0  0
   -3.6631   -0.2374   -4.0022 C   0  0  0  0  0  0  0  0  0  0  0  0
   -4.3216   -0.4822   -4.8238 H   0  0  0  0  0  0  0  0  0  0  0  0
   -4.0933    0.6473   -2.9965 C   0  0  0  0  0  0  0  0  0  0  0  0
   -5.0808    1.0821   -3.0454 H   0  0  0  0  0  0  0  0  0  0  0  0
   -3.2341    0.9705   -1.9313 C   0  0  0  0  0  0  0  0  0  0  0  0
   -3.5650    1.6539   -1.1600 H   0  0  0  0  0  0  0  0  0  0  0  0
   -0.6196    0.1253    1.7539 C   0  0  0  0  0  0  0  0  0  0  0  0
    0.5216    0.0194    2.2054 O   0  0  0  0  0  0  0  0  0  0  0  0
   -1.6152    0.6924    2.4469 N   0  0  0  0  0  0  0  0  0  0  0  0
   -2.5345    0.6914    2.0318 H   0  0  0  0  0  0  0  0  0  0  0  0
   -1.4720    1.2390    3.7941 C   0  0  0  0  0  0  0  0  0  0  0  0
   -0.6345    1.9391    3.8219 H   0  0  0  0  0  0  0  0  0  0  0  0
   -2.3844    1.7580    4.0892 H   0  0  0  0  0  0  0  0  0  0  0  0
   -1.2733    0.4298    4.4995 H   0  0  0  0  0  0  0  0  0  0  0  0
  5  6  2  0  0  0  0
  5  7  1  0  0  0  0
  2  3  1  0  0  0  0
  2  4  1  0  0  0  0
  2  5  1  0  0  0  0
  1  2  1  0  0  0  0
 25 26  2  0  0  0  0
 25 27  1  0  0  0  0
 23 24  1  0  0  0  0
 21 22  1  0  0  0  0
 21 23  2  0  0  0  0
 19 20  1  0  0  0  0
 19 21  1  0  0  0  0
 17 18  1  0  0  0  0
 17 19  2  0  0  0  0
 15 16  1  0  0  0  0
 15 17  1  0  0  0  0
 14 15  2  0  0  0  0
 14 23  1  0  0  0  0
 11 12  1  0  0  0  0
 11 13  1  0  0  0  0
 11 14  1  0  0  0  0
  9 10  1  0  0  0  0
  9 11  1  0  0  0  0
  9 25  1  0  0  0  0
  7  8  1  0  0  0  0
  7  9  1  0  0  0  0
 29 30  1  0  0  0  0
 29 31  1  0  0  0  0
 29 32  1  0  0  0  0
 27 28  1  0  0  0  0
 27 29  1  0  0  0  0
M  END
$$$$
default_name
  -OEChem-02102213163D

 32 32  0     1  0  0  0  0  0999 V2000
   -3.8405   -3.7518    1.6252 H   0  0  0  0  0  0  0  0  0  0  0  0
   -3.7965   -2.8768    0.9782 C   0  0  0  0  0  0  0  0  0  0  0  0
   -4.5465   -2.1527    1.2902 H   0  0  0  0  0  0  0  0  0  0  0  0
   -3.9745   -3.1748   -0.0538 H   0  0  0  0  0  0  0  0  0  0  0  0
   -2.4245   -2.2537    1.0882 C   0  0  0  0  0  0  0  0  0  0  0  0
   -1.5805   -2.7478    1.8242 O   0  0  0  0  0  0  0  0  0  0  0  0
   -2.2045   -1.1637    0.3562 N   0  0  0  0  0  0  0  0  0  0  0  0
   -2.9595   -0.7907   -0.2008 H   0  0  0  0  0  0  0  0  0  0  0  0
   -0.9485   -0.4087    0.3482 C   0  0  1  0  0  0  0  0  0  0  0  0
   -0.1408   -1.0795    0.0507 H   0  0  0  0  0  0  0  0  0  0  0  0
   -1.0432    0.7243   -0.6879 C   0  0  0  0  0  0  0  0  0  0  0  0
   -1.4272    1.6210   -0.1996 H   0  0  0  0  0  0  0  0  0  0  0  0
   -0.0412    0.9540   -1.0535 H   0  0  0  0  0  0  0  0  0  0  0  0
   -1.9453    0.4075   -1.8655 C   0  0  0  0  0  0  0  0  0  0  0  0
   -1.6695   -0.6925   -2.6997 C   0  0  0  0  0  0  0  0  0  0  0  0
   -0.7980   -1.3058   -2.5187 H   0  0  0  0  0  0  0  0  0  0  0  0
   -2.5338   -1.0046   -3.7652 C   0  0  0  0  0  0  0  0  0  0  0  0
   -2.3187   -1.8481   -4.4061 H   0  0  0  0  0  0  0  0  0  0  0  0
   -3.6757   -0.2192   -3.9974 C   0  0  0  0  0  0  0  0  0  0  0  0
   -4.3384   -0.4575   -4.8176 H   0  0  0  0  0  0  0  0  0  0  0  0
   -3.9534    0.8816   -3.1667 C   0  0  0  0  0  0  0  0  0  0  0  0
   -4.8282    1.4887   -3.3484 H   0  0  0  0  0  0  0  0  0  0  0  0
   -3.0877    1.1952   -2.1039 C   0  0  0  0  0  0  0  0  0  0  0  0
   -3.3007    2.0443   -1.4676 H   0  0  0  0  0  0  0  0  0  0  0  0
   -0.6196    0.1253    1.7539 C   0  0  0  0  0  0  0  0  0  0  0  0
    0.5216    0.0194    2.2054 O   0  0  0  0  0  0  0  0  0  0  0  0
   -1.6152    0.6924    2.4469 N   0  0  0  0  0  0  0  0  0  0  0  0
   -2.5345    0.6914    2.0318 H   0  0  0  0  0  0  0  0  0  0  0  0
   -1.4720    1.2390    3.7941 C   0  0  0  0  0  0  0  0  0  0  0  0
   -0.6345    1.9391    3.8219 H   0  0  0  0  0  0  0  0  0  0  0  0
   -2.3844    1.7580    4.0892 H   0  0  0  0  0  0  0  0  0  0  0  0
   -1.2733    0.4298    4.4995 H   0  0  0  0  0  0  0  0  0  0  0  0
  5  6  2  0  0  0  0
  5  7  1  0  0  0  0
  2  3  1  0  0  0  0
  2  4  1  0  0  0  0
  2  5  1  0  0  0  0
  1  2  1  0  0  0  0
 25 26  2  0  0  0  0
 25 27  1  0  0  0  0
 23 24  1  0  0  0  0
 21 22  1  0  0  0  0
 21 23  2  0  0  0  0
 19 20  1  0  0  0  0
 19 21  1  0  0  0  0
 17 18  1  0  0  0  0
 17 19  2  0  0  0  0
 15 16  1  0  0  0  0
 15 17  1  0  0  0  0
 14 15  2  0  0  0  0
 14 23  1  0  0  0  0
 11 12  1  0  0  0  0
 11 13  1  0  0  0  0
 11 14  1  0  0  0  0
  9 10  1  0  0  0  0
  9 11  1  0  0  0  0
  9 25  1  0  0  0  0
  7  8  1  0  0  0  0
  7  9  1  0  0  0  0
 29 30  1  0  0  0  0
 29 31  1  0  0  0  0
 29 32  1  0  0  0  0
 27 28  1  0  0  0  0
 27 29  1  0  0  0  0
M  END
$$$$
default_name
  -OEChem-02102213163D

 32 32  0     1  0  0  0  0  0999 V2000
   -3.8405   -3.7518    1.6252 H   0  0  0  0  0  0  0  0  0  0  0  0
   -3.7965   -2.8768    0.9782 C   0  0  0  0  0  0  0  0  0  0  0  0
   -4.5465   -2.1527    1.2902 H   0  0  0  0  0  0  0  0  0  0  0  0
   -3.9745   -3.1748   -0.0538 H   0  0  0  0  0  0  0  0  0  0  0  0
   -2.4245   -2.2537    1.0882 C   0  0  0  0  0  0  0  0  0  0  0  0
   -1.5805   -2.7478    1.8242 O   0  0  0  0  0  0  0  0  0  0  0  0
   -2.2045   -1.1637    0.3562 N   0  0  0  0  0  0  0  0  0  0  0  0
   -2.9595   -0.7907   -0.2008 H   0  0  0  0  0  0  0  0  0  0  0  0
   -0.9485   -0.4087    0.3482 C   0  0  1  0  0  0  0  0  0  0  0  0
   -0.1408   -1.0795    0.0507 H   0  0  0  0  0  0  0  0  0  0  0  0
   -1.0432    0.7243   -0.6879 C   0  0  0  0  0  0  0  0  0  0  0  0
   -1.4272    1.6210   -0.1996 H   0  0  0  0  0  0  0  0  0  0  0  0
   -0.0412    0.9540   -1.0535 H   0  0  0  0  0  0  0  0  0  0  0  0
   -1.9453    0.4075   -1.8655 C   0  0  0  0  0  0  0  0  0  0  0  0
   -1.8692   -0.8439   -2.5059 C   0  0  0  0  0  0  0  0  0  0  0  0
   -1.1497   -1.5798   -2.1756 H   0  0  0  0  0  0  0  0  0  0  0  0
   -2.7377   -1.1457   -3.5710 C   0  0  0  0  0  0  0  0  0  0  0  0
   -2.6759   -2.1063   -4.0630 H   0  0  0  0  0  0  0  0  0  0  0  0
   -3.6844   -0.1983   -3.9963 C   0  0  0  0  0  0  0  0  0  0  0  0
   -4.3500   -0.4294   -4.8162 H   0  0  0  0  0  0  0  0  0  0  0  0
   -3.7621    1.0537   -3.3596 C   0  0  0  0  0  0  0  0  0  0  0  0
   -4.4860    1.7840   -3.6900 H   0  0  0  0  0  0  0  0  0  0  0  0
   -2.8918    1.3562   -2.2973 C   0  0  0  0  0  0  0  0  0  0  0  0
   -2.9503    2.3210   -1.8105 H   0  0  0  0  0  0  0  0  0  0  0  0
   -0.6196    0.1253    1.7539 C   0  0  0  0  0  0  0  0  0  0  0  0
    0.5216    0.0194    2.2054 O   0  0  0  0  0  0  0  0  0  0  0  0
   -1.6152    0.6924    2.4469 N   0  0  0  0  0  0  0  0  0  0  0  0
   -2.5345    0.6914    2.0318 H   0  0  0  0  0  0  0  0  0  0  0  0
   -1.4720    1.2390    3.7941 C   0  0  0  0  0  0  0  0  0  0  0  0
   -0.6345    1.9391    3.8219 H   0  0  0  0  0  0  0  0  0  0  0  0
   -2.3844    1.7580    4.0892 H   0  0  0  0  0  0  0  0  0  0  0  0
   -1.2733    0.4298    4.4995 H   0  0  0  0  0  0  0  0  0  0  0  0
  5  6  2  0  0  0  0
  5  7  1  0  0  0  0
  2  3  1  0  0  0  0
  2  4  1  0  0  0  0
  2  5  1  0  0  0  0
  1  2  1  0  0  0  0
 25 26  2  0  0  0  0
 25 27  1  0  0  0  0
 23 24  1  0  0  0  0
 21 22  1  0  0  0  0
 21 23  2  0  0  0  0
 19 20  1  0  0  0  0
 19 21  1  0  0  0  0
 17 18  1  0  0  0  0
 17 19  2  0  0  0  0
 15 16  1  0  0  0  0
 15 17  1  0  0  0  0
 14 15  2  0  0  0  0
 14 23  1  0  0  0  0
 11 12  1  0  0  0  0
 11 13  1  0  0  0  0
 11 14  1  0  0  0  0
  9 10  1  0  0  0  0
  9 11  1  0  0  0  0
  9 25  1  0  0  0  0
  7  8  1  0  0  0  0
  7  9  1  0  0  0  0
 29 30  1  0  0  0  0
 29 31  1  0  0  0  0
 29 32  1  0  0  0  0
 27 28  1  0  0  0  0
 27 29  1  0  0  0  0
M  END
$$$$
default_name
  -OEChem-02102213163D

 32 32  0     1  0  0  0  0  0999 V2000
   -3.8405   -3.7518    1.6252 H   0  0  0  0  0  0  0  0  0  0  0  0
   -3.7965   -2.8768    0.9782 C   0  0  0  0  0  0  0  0  0  0  0  0
   -4.5465   -2.1527    1.2902 H   0  0  0  0  0  0  0  0  0  0  0  0
   -3.9745   -3.1748   -0.0538 H   0  0  0  0  0  0  0  0  0  0  0  0
   -2.4245   -2.2537    1.0882 C   0  0  0  0  0  0  0  0  0  0  0  0
   -1.5805   -2.7478    1.8242 O   0  0  0  0  0  0  0  0  0  0  0  0
   -2.2045   -1.1637    0.3562 N   0  0  0  0  0  0  0  0  0  0  0  0
   -2.9595   -0.7907   -0.2008 H   0  0  0  0  0  0  0  0  0  0  0  0
   -0.9485   -0.4087    0.3482 C   0  0  1  0  0  0  0  0  0  0  0  0
   -0.1408   -1.0795    0.0507 H   0  0  0  0  0  0  0  0  0  0  0  0
   -1.0432    0.7243   -0.6879 C   0  0  0  0  0  0  0  0  0  0  0  0
   -1.4272    1.6210   -0.1996 H   0  0  0  0  0  0  0  0  0  0  0  0
   -0.0412    0.9540   -1.0535 H   0  0  0  0  0  0  0  0  0  0  0  0
   -1.9453    0.4075   -1.8655 C   0  0  0  0  0  0  0  0  0  0  0  0
   -2.1031   -0.9202   -2.3062 C   0  0  0  0  0  0  0  0  0  0  0  0
   -1.5631   -1.7210   -1.8209 H   0  0  0  0  0  0  0  0  0  0  0  0
   -2.9736   -1.2112   -3.3727 C   0  0  0  0  0  0  0  0  0  0  0  0
   -3.0913   -2.2310   -3.7112 H   0  0  0  0  0  0  0  0  0  0  0  0
   -3.6887   -0.1763   -3.9990 C   0  0  0  0  0  0  0  0  0  0  0  0
   -4.3557   -0.3996   -4.8199 H   0  0  0  0  0  0  0  0  0  0  0  0
   -3.5322    1.1517   -3.5621 C   0  0  0  0  0  0  0  0  0  0  0  0
   -4.0777    1.9480   -4.0469 H   0  0  0  0  0  0  0  0  0  0  0  0
   -2.6597    1.4426   -2.4983 C   0  0  0  0  0  0  0  0  0  0  0  0
   -2.5377    2.4651   -2.1653 H   0  0  0  0  0  0  0  0  0  0  0  0
   -0.6196    0.1253    1.7539 C   0  0  0  0  0  0  0  0  0  0  0  0
    0.5216    0.0194    2.2054 O   0  0  0  0  0  0  0  0  0  0  0  0
   -1.6152    0.6924    2.4469 N   0  0  0  0  0  0  0  0  0  0  0  0
   -2.5345    0.6914    2.0318 H   0  0  0  0  0  0  0  0  0  0  0  0
   -1.4720    1.2390    3.7941 C   0  0  0  0  0  0  0  0  0  0  0  0
   -0.6345    1.9391    3.8219 H   0  0  0  0  0  0  0  0  0  0  0  0
   -2.3844    1.7580    4.0892 H   0  0  0  0  0  0  0  0  0  0  0  0
   -1.2733    0.4298    4.4995 H   0  0  0  0  0  0  0  0  0  0  0  0
  5  6  2  0  0  0  0
  5  7  1  0  0  0  0
  2  3  1  0  0  0  0
  2  4  1  0  0  0  0
  2  5  1  0  0  0  0
  1  2  1  0  0  0  0
 25 26  2  0  0  0  0
 25 27  1  0  0  0  0
 23 24  1  0  0  0  0
 21 22  1  0  0  0  0
 21 23  2  0  0  0  0
 19 20  1  0  0  0  0
 19 21  1  0  0  0  0
 17 18  1  0  0  0  0
 17 19  2  0  0  0  0
 15 16  1  0  0  0  0
 15 17  1  0  0  0  0
 14 15  2  0  0  0  0
 14 23  1  0  0  0  0
 11 12  1  0  0  0  0
 11 13  1  0  0  0  0
 11 14  1  0  0  0  0
  9 10  1  0  0  0  0
  9 11  1  0  0  0  0
  9 25  1  0  0  0  0
  7  8  1  0  0  0  0
  7  9  1  0  0  0  0
 29 30  1  0  0  0  0
 29 31  1  0  0  0  0
 29 32  1  0  0  0  0
 27 28  1  0  0  0  0
 27 29  1  0  0  0  0
M  END
$$$$
default_name
  -OEChem-02102213163D

 32 32  0     1  0  0  0  0  0999 V2000
   -3.8405   -3.7518    1.6252 H   0  0  0  0  0  0  0  0  0  0  0  0
   -3.7965   -2.8768    0.9782 C   0  0  0  0  0  0  0  0  0  0  0  0
   -4.5465   -2.1527    1.2902 H   0  0  0  0  0  0  0  0  0  0  0  0
   -3.9745   -3.1748   -0.0538 H   0  0  0  0  0  0  0  0  0  0  0  0
   -2.4245   -2.2537    1.0882 C   0  0  0  0  0  0  0  0  0  0  0  0
   -1.5805   -2.7478    1.8242 O   0  0  0  0  0  0  0  0  0  0  0  0
   -2.2045   -1.1637    0.3562 N   0  0  0  0  0  0  0  0  0  0  0  0
   -2.9595   -0.7907   -0.2008 H   0  0  0  0  0  0  0  0  0  0  0  0
   -0.9485   -0.4087    0.3482 C   0  0  1  0  0  0  0  0  0  0  0  0
   -0.1408   -1.0795    0.0507 H   0  0  0  0  0  0  0  0  0  0  0  0
   -1.0432    0.7243   -0.6879 C   0  0  0  0  0  0  0  0  0  0  0  0
   -1.4272    1.6210   -0.1996 H   0  0  0  0  0  0  0  0  0  0  0  0
   -0.0412    0.9540   -1.0535 H   0  0  0  0  0  0  0  0  0  0  0  0
   -1.9453    0.4075   -1.8655 C   0  0  0  0  0  0  0  0  0  0  0  0
   -2.3551   -0.9162   -2.1142 C   0  0  0  0  0  0  0  0  0  0  0  0
   -2.0099   -1.7197   -1.4790 H   0  0  0  0  0  0  0  0  0  0  0  0
   -3.2252   -1.1965   -3.1839 C   0  0  0  0  0  0  0  0  0  0  0  0
   -3.5366   -2.2139   -3.3746 H   0  0  0  0  0  0  0  0  0  0  0  0
   -3.6883   -0.1545   -4.0051 C   0  0  0  0  0  0  0  0  0  0  0  0
   -4.3549   -0.3703   -4.8284 H   0  0  0  0  0  0  0  0  0  0  0  0
   -3.2796    1.1691   -3.7603 C   0  0  0  0  0  0  0  0  0  0  0  0
   -3.6311    1.9694   -4.3948 H   0  0  0  0  0  0  0  0  0  0  0  0
   -2.4074    1.4485   -2.6932 C   0  0  0  0  0  0  0  0  0  0  0  0
   -2.0910    2.4668   -2.5080 H   0  0  0  0  0  0  0  0  0  0  0  0
   -0.6196    0.1253    1.7539 C   0  0  0  0  0  0  0  0  0  0  0  0
    0.5216    0.0194    2.2054 O   0  0  0  0  0  0  0  0  0  0  0  0
   -1.6152    0.6924    2.4469 N   0  0  0  0  0  0  0  0  0  0  0  0
   -2.5345    0.6914    2.0318 H   0  0  0  0  0  0  0  0  0  0  0  0
   -1.4720    1.2390    3.7941 C   0  0  0  0  0  0  0  0  0  0  0  0
   -0.6345    1.9391    3.8219 H   0  0  0  0  0  0  0  0  0  0  0  0
   -2.3844    1.7580    4.0892 H   0  0  0  0  0  0  0  0  0  0  0  0
   -1.2733    0.4298    4.4995 H   0  0  0  0  0  0  0  0  0  0  0  0
  5  6  2  0  0  0  0
  5  7  1  0  0  0  0
  2  3  1  0  0  0  0
  2  4  1  0  0  0  0
  2  5  1  0  0  0  0
  1  2  1  0  0  0  0
 25 26  2  0  0  0  0
 25 27  1  0  0  0  0
 23 24  1  0  0  0  0
 21 22  1  0  0  0  0
 21 23  2  0  0  0  0
 19 20  1  0  0  0  0
 19 21  1  0  0  0  0
 17 18  1  0  0  0  0
 17 19  2  0  0  0  0
 15 16  1  0  0  0  0
 15 17  1  0  0  0  0
 14 15  2  0  0  0  0
 14 23  1  0  0  0  0
 11 12  1  0  0  0  0
 11 13  1  0  0  0  0
 11 14  1  0  0  0  0
  9 10  1  0  0  0  0
  9 11  1  0  0  0  0
  9 25  1  0  0  0  0
  7  8  1  0  0  0  0
  7  9  1  0  0  0  0
 29 30  1  0  0  0  0
 29 31  1  0  0  0  0
 29 32  1  0  0  0  0
 27 28  1  0  0  0  0
 27 29  1  0  0  0  0
M  END
$$$$
default_name
  -OEChem-02102213163D

 32 32  0     1  0  0  0  0  0999 V2000
   -3.8405   -3.7518    1.6252 H   0  0  0  0  0  0  0  0  0  0  0  0
   -3.7965   -2.8768    0.9782 C   0  0  0  0  0  0  0  0  0  0  0  0
   -4.5465   -2.1527    1.2902 H   0  0  0  0  0  0  0  0  0  0  0  0
   -3.9745   -3.1748   -0.0538 H   0  0  0  0  0  0  0  0  0  0  0  0
   -2.4245   -2.2537    1.0882 C   0  0  0  0  0  0  0  0  0  0  0  0
   -1.5805   -2.7478    1.8242 O   0  0  0  0  0  0  0  0  0  0  0  0
   -2.2045   -1.1637    0.3562 N   0  0  0  0  0  0  0  0  0  0  0  0
   -2.9595   -0.7907   -0.2008 H   0  0  0  0  0  0  0  0  0  0  0  0
   -0.9485   -0.4087    0.3482 C   0  0  1  0  0  0  0  0  0  0  0  0
   -0.1408   -1.0795    0.0507 H   0  0  0  0  0  0  0  0  0  0  0  0
   -1.0432    0.7243   -0.6879 C   0  0  0  0  0  0  0  0  0  0  0  0
   -1.4272    1.6210   -0.1996 H   0  0  0  0  0  0  0  0  0  0  0  0
   -0.0412    0.9540   -1.0535 H   0  0  0  0  0  0  0  0  0  0  0  0
   -1.9453    0.4075   -1.8655 C   0  0  0  0  0  0  0  0  0  0  0  0
   -2.6081   -0.8321   -1.9430 C   0  0  0  0  0  0  0  0  0  0  0  0
   -2.4597   -1.5760   -1.1731 H   0  0  0  0  0  0  0  0  0  0  0  0
   -3.4756   -1.1027   -3.0173 C   0  0  0  0  0  0  0  0  0  0  0  0
   -3.9816   -2.0561   -3.0762 H   0  0  0  0  0  0  0  0  0  0  0  0
   -3.6833   -0.1345   -4.0144 C   0  0  0  0  0  0  0  0  0  0  0  0
   -4.3479   -0.3434   -4.8410 H   0  0  0  0  0  0  0  0  0  0  0  0
   -3.0213    1.1046   -3.9408 C   0  0  0  0  0  0  0  0  0  0  0  0
   -3.1766    1.8468   -4.7100 H   0  0  0  0  0  0  0  0  0  0  0  0
   -2.1519    1.3735   -2.8688 C   0  0  0  0  0  0  0  0  0  0  0  0
   -1.6407    2.3259   -2.8151 H   0  0  0  0  0  0  0  0  0  0  0  0
   -0.6196    0.1253    1.7539 C   0  0  0  0  0  0  0  0  0  0  0  0
    0.5216    0.0194    2.2054 O   0  0  0  0  0  0  0  0  0  0  0  0
   -1.6152    0.6924    2.4469 N   0  0  0  0  0  0  0  0  0  0  0  0
   -2.5345    0.6914    2.0318 H   0  0  0  0  0  0  0  0  0  0  0  0
   -1.4720    1.2390    3.7941 C   0  0  0  0  0  0  0  0  0  0  0  0
   -0.6345    1.9391    3.8219 H   0  0  0  0  0  0  0  0  0  0  0  0
   -2.3844    1.7580    4.0892 H   0  0  0  0  0  0  0  0  0  0  0  0
   -1.2733    0.4298    4.4995 H   0  0  0  0  0  0  0  0  0  0  0  0
  5  6  2  0  0  0  0
  5  7  1  0  0  0  0
  2  3  1  0  0  0  0
  2  4  1  0  0  0  0
  2  5  1  0  0  0  0
  1  2  1  0  0  0  0
 25 26  2  0  0  0  0
 25 27  1  0  0  0  0
 23 24  1  0  0  0  0
 21 22  1  0  0  0  0
 21 23  2  0  0  0  0
 19 20  1  0  0  0  0
 19 21  1  0  0  0  0
 17 18  1  0  0  0  0
 17 19  2  0  0  0  0
 15 16  1  0  0  0  0
 15 17  1  0  0  0  0
 14 15  2  0  0  0  0
 14 23  1  0  0  0  0
 11 12  1  0  0  0  0
 11 13  1  0  0  0  0
 11 14  1  0  0  0  0
  9 10  1  0  0  0  0
  9 11  1  0  0  0  0
  9 25  1  0  0  0  0
  7  8  1  0  0  0  0
  7  9  1  0  0  0  0
 29 30  1  0  0  0  0
 29 31  1  0  0  0  0
 29 32  1  0  0  0  0
 27 28  1  0  0  0  0
 27 29  1  0  0  0  0
M  END
$$$$
default_name
  -OEChem-02102213163D

 32 32  0     1  0  0  0  0  0999 V2000
   -3.8405   -3.7518    1.6252 H   0  0  0  0  0  0  0  0  0  0  0  0
   -3.7965   -2.8768    0.9782 C   0  0  0  0  0  0  0  0  0  0  0  0
   -4.5465   -2.1527    1.2902 H   0  0  0  0  0  0  0  0  0  0  0  0
   -3.9745   -3.1748   -0.0538 H   0  0  0  0  0  0  0  0  0  0  0  0
   -2.4245   -2.2537    1.0882 C   0  0  0  0  0  0  0  0  0  0  0  0
   -1.5805   -2.7478    1.8242 O   0  0  0  0  0  0  0  0  0  0  0  0
   -2.2045   -1.1637    0.3562 N   0  0  0  0  0  0  0  0  0  0  0  0
   -2.9595   -0.7907   -0.2008 H   0  0  0  0  0  0  0  0  0  0  0  0
   -0.9485   -0.4087    0.3482 C   0  0  1  0  0  0  0  0  0  0  0  0
   -0.1408   -1.0795    0.0507 H   0  0  0  0  0  0  0  0  0  0  0  0
   -1.0432    0.7243   -0.6879 C   0  0  0  0  0  0  0  0  0  0  0  0
   -1.4272    1.6210   -0.1996 H   0  0  0  0  0  0  0  0  0  0  0  0
   -0.0412    0.9540   -1.0535 H   0  0  0  0  0  0  0  0  0  0  0  0
   -1.9453    0.4075   -1.8655 C   0  0  0  0  0  0  0  0  0  0  0  0
   -2.8449   -0.6737   -1.8042 C   0  0  0  0  0  0  0  0  0  0  0  0
   -2.8818   -1.2998   -0.9240 H   0  0  0  0  0  0  0  0  0  0  0  0
   -3.7076   -0.9362   -2.8844 C   0  0  0  0  0  0  0  0  0  0  0  0
   -4.3958   -1.7684   -2.8363 H   0  0  0  0  0  0  0  0  0  0  0  0
   -3.6738   -0.1177   -4.0262 C   0  0  0  0  0  0  0  0  0  0  0  0
   -4.3350   -0.3208   -4.8570 H   0  0  0  0  0  0  0  0  0  0  0  0
   -2.7751    0.9626   -4.0912 C   0  0  0  0  0  0  0  0  0  0  0  0
   -2.7452    1.5885   -4.9710 H   0  0  0  0  0  0  0  0  0  0  0  0
   -1.9107    1.2227   -3.0129 C   0  0  0  0  0  0  0  0  0  0  0  0
   -1.2174    2.0520   -3.0656 H   0  0  0  0  0  0  0  0  0  0  0  0
   -0.6196    0.1253    1.7539 C   0  0  0  0  0  0  0  0  0  0  0  0
    0.5216    0.0194    2.2054 O   0  0  0  0  0  0  0  0  0  0  0  0
   -1.6152    0.6924    2.4469 N   0  0  0  0  0  0  0  0  0  0  0  0
   -2.5345    0.6914    2.0318 H   0  0  0  0  0  0  0  0  0  0  0  0
   -1.4720    1.2390    3.7941 C   0  0  0  0  0  0  0  0  0  0  0  0
   -0.6345    1.9391    3.8219 H   0  0  0  0  0  0  0  0  0  0  0  0
   -2.3844    1.7580    4.0892 H   0  0  0  0  0  0  0  0  0  0  0  0
   -1.2733    0.4298    4.4995 H   0  0  0  0  0  0  0  0  0  0  0  0
  5  6  2  0  0  0  0
  5  7  1  0  0  0  0
  2  3  1  0  0  0  0
  2  4  1  0  0  0  0
  2  5  1  0  0  0  0
  1  2  1  0  0  0  0
 25 26  2  0  0  0  0
 25 27  1  0  0  0  0
 23 24  1  0  0  0  0
 21 22  1  0  0  0  0
 21 23  2  0  0  0  0
 19 20  1  0  0  0  0
 19 21  1  0  0  0  0
 17 18  1  0  0  0  0
 17 19  2  0  0  0  0
 15 16  1  0  0  0  0
 15 17  1  0  0  0  0
 14 15  2  0  0  0  0
 14 23  1  0  0  0  0
 11 12  1  0  0  0  0
 11 13  1  0  0  0  0
 11 14  1  0  0  0  0
  9 10  1  0  0  0  0
  9 11  1  0  0  0  0
  9 25  1  0  0  0  0
  7  8  1  0  0  0  0
  7  9  1  0  0  0  0
 29 30  1  0  0  0  0
 29 31  1  0  0  0  0
 29 32  1  0  0  0  0
 27 28  1  0  0  0  0
 27 29  1  0  0  0  0
M  END
$$$$
default_name
  -OEChem-02102213163D

 32 32  0     1  0  0  0  0  0999 V2000
   -3.8405   -3.7518    1.6252 H   0  0  0  0  0  0  0  0  0  0  0  0
   -3.7965   -2.8768    0.9782 C   0  0  0  0  0  0  0  0  0  0  0  0
   -4.5465   -2.1527    1.2902 H   0  0  0  0  0  0  0  0  0  0  0  0
   -3.9745   -3.1748   -0.0538 H   0  0  0  0  0  0  0  0  0  0  0  0
   -2.4245   -2.2537    1.0882 C   0  0  0  0  0  0  0  0  0  0  0  0
   -1.5805   -2.7478    1.8242 O   0  0  0  0  0  0  0  0  0  0  0  0
   -2.2045   -1.1637    0.3562 N   0  0  0  0  0  0  0  0  0  0  0  0
   -2.9595   -0.7907   -0.2008 H   0  0  0  0  0  0  0  0  0  0  0  0
   -0.9485   -0.4087    0.3482 C   0  0  1  0  0  0  0  0  0  0  0  0
   -0.1408   -1.0795    0.0507 H   0  0  0  0  0  0  0  0  0  0  0  0
   -1.0432    0.7243   -0.6879 C   0  0  0  0  0  0  0  0  0  0  0  0
   -1.4272    1.6210   -0.1996 H   0  0  0  0  0  0  0  0  0  0  0  0
   -0.0412    0.9540   -1.0535 H   0  0  0  0  0  0  0  0  0  0  0  0
   -1.9453    0.4075   -1.8655 C   0  0  0  0  0  0  0  0  0  0  0  0
   -3.0492   -0.4517   -1.7074 C   0  0  0  0  0  0  0  0  0  0  0  0
   -3.2475   -0.9098   -0.7487 H   0  0  0  0  0  0  0  0  0  0  0  0
   -3.9054   -0.7082   -2.7942 C   0  0  0  0  0  0  0  0  0  0  0  0
   -4.7510   -1.3703   -2.6713 H   0  0  0  0  0  0  0  0  0  0  0  0
   -3.6607   -0.1051   -4.0396 C   0  0  0  0  0  0  0  0  0  0  0  0
   -4.3171   -0.3040   -4.8752 H   0  0  0  0  0  0  0  0  0  0  0  0
   -2.5576    0.7528   -4.2014 C   0  0  0  0  0  0  0  0  0  0  0  0
   -2.3663    1.2122   -5.1601 H   0  0  0  0  0  0  0  0  0  0  0  0
   -1.7003    1.0063   -3.1160 C   0  0  0  0  0  0  0  0  0  0  0  0
   -0.8501    1.6639   -3.2426 H   0  0  0  0  0  0  0  0  0  0  0  0
   -0.6196    0.1253    1.7539 C   0  0  0  0  0  0  0  0  0  0  0  0
    0.5216    0.0194    2.2054 O   0  0  0  0  0  0  0  0  0  0  0  0
   -1.6152    0.6924    2.4469 N   0  0  0  0  0  0  0  0  0  0  0  0
   -2.5345    0.6914    2.0318 H   0  0  0  0  0  0  0  0  0  0  0  0
   -1.4720    1.2390    3.7941 C   0  0  0  0  0  0  0  0  0  0  0  0
   -0.6345    1.9391    3.8219 H   0  0  0  0  0  0  0  0  0  0  0  0
   -2.3844    1.7580    4.0892 H   0  0  0  0  0  0  0  0  0  0  0  0
   -1.2733    0.4298    4.4995 H   0  0  0  0  0  0  0  0  0  0  0  0
  5  6  2  0  0  0  0
  5  7  1  0  0  0  0
  2  3  1  0  0  0  0
  2  4  1  0  0  0  0
  2  5  1  0  0  0  0
  1  2  1  0  0  0  0
 25 26  2  0  0  0  0
 25 27  1  0  0  0  0
 23 24  1  0  0  0  0
 21 22  1  0  0  0  0
 21 23  2  0  0  0  0
 19 20  1  0  0  0  0
 19 21  1  0  0  0  0
 17 18  1  0  0  0  0
 17 19  2  0  0  0  0
 15 16  1  0  0  0  0
 15 17  1  0  0  0  0
 14 15  2  0  0  0  0
 14 23  1  0  0  0  0
 11 12  1  0  0  0  0
 11 13  1  0  0  0  0
 11 14  1  0  0  0  0
  9 10  1  0  0  0  0
  9 11  1  0  0  0  0
  9 25  1  0  0  0  0
  7  8  1  0  0  0  0
  7  9  1  0  0  0  0
 29 30  1  0  0  0  0
 29 31  1  0  0  0  0
 29 32  1  0  0  0  0
 27 28  1  0  0  0  0
 27 29  1  0  0  0  0
M  END
$$$$
default_name
  -OEChem-02102213163D

 32 32  0     1  0  0  0  0  0999 V2000
   -3.8405   -3.7518    1.6252 H   0  0  0  0  0  0  0  0  0  0  0  0
   -3.7965   -2.8768    0.9782 C   0  0  0  0  0  0  0  0  0  0  0  0
   -4.5465   -2.1527    1.2902 H   0  0  0  0  0  0  0  0  0  0  0  0
   -3.9745   -3.1748   -0.0538 H   0  0  0  0  0  0  0  0  0  0  0  0
   -2.4245   -2.2537    1.0882 C   0  0  0  0  0  0  0  0  0  0  0  0
   -1.5805   -2.7478    1.8242 O   0  0  0  0  0  0  0  0  0  0  0  0
   -2.2045   -1.1637    0.3562 N   0  0  0  0  0  0  0  0  0  0  0  0
   -2.9595   -0.7907   -0.2008 H   0  0  0  0  0  0  0  0  0  0  0  0
   -0.9485   -0.4087    0.3482 C   0  0  1  0  0  0  0  0  0  0  0  0
   -0.1408   -1.0795    0.0507 H   0  0  0  0  0  0  0  0  0  0  0  0
   -1.0432    0.7243   -0.6879 C   0  0  0  0  0  0  0  0  0  0  0  0
   -1.4272    1.6210   -0.1996 H   0  0  0  0  0  0  0  0  0  0  0  0
   -0.0412    0.9540   -1.0535 H   0  0  0  0  0  0  0  0  0  0  0  0
   -1.9453    0.4075   -1.8655 C   0  0  0  0  0  0  0  0  0  0  0  0
   -3.2073   -0.1814   -1.6591 C   0  0  0  0  0  0  0  0  0  0  0  0
   -3.5319   -0.4327   -0.6592 H   0  0  0  0  0  0  0  0  0  0  0  0
   -4.0555   -0.4344   -2.7528 C   0  0  0  0  0  0  0  0  0  0  0  0
   -5.0230   -0.8890   -2.5924 H   0  0  0  0  0  0  0  0  0  0  0  0
   -3.6448   -0.0976   -4.0538 C   0  0  0  0  0  0  0  0  0  0  0  0
   -4.2955   -0.2942   -4.8943 H   0  0  0  0  0  0  0  0  0  0  0  0
   -2.3837    0.4895   -4.2637 C   0  0  0  0  0  0  0  0  0  0  0  0
   -2.0656    0.7435   -5.2643 H   0  0  0  0  0  0  0  0  0  0  0  0
   -1.5349    0.7392   -3.1708 C   0  0  0  0  0  0  0  0  0  0  0  0
   -0.5636    1.1879   -3.3340 H   0  0  0  0  0  0  0  0  0  0  0  0
   -0.6196    0.1253    1.7539 C   0  0  0  0  0  0  0  0  0  0  0  0
    0.5216    0.0194    2.2054 O   0  0  0  0  0  0  0  0  0  0  0  0
   -1.6152    0.6924    2.4469 N   0  0  0  0  0  0  0  0  0  0  0  0
   -2.5345    0.6914    2.0318 H   0  0  0  0  0  0  0  0  0  0  0  0
   -1.4720    1.2390    3.7941 C   0  0  0  0  0  0  0  0  0  0  0  0
   -0.6345    1.9391    3.8219 H   0  0  0  0  0  0  0  0  0  0  0  0
   -2.3844    1.7580    4.0892 H   0  0  0  0  0  0  0  0  0  0  0  0
   -1.2733    0.4298    4.4995 H   0  0  0  0  0  0  0  0  0  0  0  0
  5  6  2  0  0  0  0
  5  7  1  0  0  0  0
  2  3  1  0  0  0  0
  2  4  1  0  0  0  0
  2  5  1  0  0  0  0
  1  2  1  0  0  0  0
 25 26  2  0  0  0  0
 25 27  1  0  0  0  0
 23 24  1  0  0  0  0
 21 22  1  0  0  0  0
 21 23  2  0  0  0  0
 19 20  1  0  0  0  0
 19 21  1  0  0  0  0
 17 18  1  0  0  0  0
 17 19  2  0  0  0  0
 15 16  1  0  0  0  0
 15 17  1  0  0  0  0
 14 15  2  0  0  0  0
 14 23  1  0  0  0  0
 11 12  1  0  0  0  0
 11 13  1  0  0  0  0
 11 14  1  0  0  0  0
  9 10  1  0  0  0  0
  9 11  1  0  0  0  0
  9 25  1  0  0  0  0
  7  8  1  0  0  0  0
  7  9  1  0  0  0  0
 29 30  1  0  0  0  0
 29 31  1  0  0  0  0
 29 32  1  0  0  0  0
 27 28  1  0  0  0  0
 27 29  1  0  0  0  0
M  END
$$$$
default_name
  -OEChem-02102213163D

 32 32  0     1  0  0  0  0  0999 V2000
   -3.8405   -3.7518    1.6252 H   0  0  0  0  0  0  0  0  0  0  0  0
   -3.7965   -2.8768    0.9782 C   0  0  0  0  0  0  0  0  0  0  0  0
   -4.5465   -2.1527    1.2902 H   0  0  0  0  0  0  0  0  0  0  0  0
   -3.9745   -3.1748   -0.0538 H   0  0  0  0  0  0  0  0  0  0  0  0
   -2.4245   -2.2537    1.0882 C   0  0  0  0  0  0  0  0  0  0  0  0
   -1.5805   -2.7478    1.8242 O   0  0  0  0  0  0  0  0  0  0  0  0
   -2.2045   -1.1637    0.3562 N   0  0  0  0  0  0  0  0  0  0  0  0
   -2.9595   -0.7907   -0.2008 H   0  0  0  0  0  0  0  0  0  0  0  0
   -0.9485   -0.4087    0.3482 C   0  0  1  0  0  0  0  0  0  0  0  0
   -0.1408   -1.0795    0.0507 H   0  0  0  0  0  0  0  0  0  0  0  0
   -1.0432    0.7243   -0.6879 C   0  0  0  0  0  0  0  0  0  0  0  0
   -1.4272    1.6210   -0.1996 H   0  0  0  0  0  0  0  0  0  0  0  0
   -0.0412    0.9540   -1.0535 H   0  0  0  0  0  0  0  0  0  0  0  0
   -1.9453    0.4075   -1.8655 C   0  0  0  0  0  0  0  0  0  0  0  0
   -3.3082    0.1189   -1.6626 C   0  0  0  0  0  0  0  0  0  0  0  0
   -3.7156    0.0991   -0.6616 H   0  0  0  0  0  0  0  0  0  0  0  0
   -4.1478   -0.1334   -2.7632 C   0  0  0  0  0  0  0  0  0  0  0  0
   -5.1934   -0.3573   -2.6049 H   0  0  0  0  0  0  0  0  0  0  0  0
   -3.6271   -0.0958   -4.0678 C   0  0  0  0  0  0  0  0  0  0  0  0
   -4.2717   -0.2920   -4.9132 H   0  0  0  0  0  0  0  0  0  0  0  0
   -2.2653    0.1907   -4.2740 C   0  0  0  0  0  0  0  0  0  0  0  0
   -1.8638    0.2142   -5.2765 H   0  0  0  0  0  0  0  0  0  0  0  0
   -1.4258    0.4396   -3.1737 C   0  0  0  0  0  0  0  0  0  0  0  0
   -0.3777    0.6566   -3.3335 H   0  0  0  0  0  0  0  0  0  0  0  0
   -0.6196    0.1253    1.7539 C   0  0  0  0  0  0  0  0  0  0  0  0
    0.5216    0.0194    2.2054 O   0  0  0  0  0  0  0  0  0  0  0  0
   -1.6152    0.6924    2.4469 N   0  0  0  0  0  0  0  0  0  0  0  0
   -2.5345    0.6914    2.0318 H   0  0  0  0  0  0  0  0  0  0  0  0
   -1.4720    1.2390    3.7941 C   0  0  0  0  0  0  0  0  0  0  0  0
   -0.6345    1.9391    3.8219 H   0  0  0  0  0  0  0  0  0  0  0  0
   -2.3844    1.7580    4.0892 H   0  0  0  0  0  0  0  0  0  0  0  0
   -1.2733    0.4298    4.4995 H   0  0  0  0  0  0  0  0  0  0  0  0
  5  6  2  0  0  0  0
  5  7  1  0  0  0  0
  2  3  1  0  0  0  0
  2  4  1  0  0  0  0
  2  5  1  0  0  0  0
  1  2  1  0  0  0  0
 25 26  2  0  0  0  0
 25 27  1  0  0  0  0
 23 24  1  0  0  0  0
 21 22  1  0  0  0  0
 21 23  2  0  0  0  0
 19 20  1  0  0  0  0
 19 21  1  0  0  0  0
 17 18  1  0  0  0  0
 17 19  2  0  0  0  0
 15 16  1  0  0  0  0
 15 17  1  0  0  0  0
 14 15  2  0  0  0  0
 14 23  1  0  0  0  0
 11 12  1  0  0  0  0
 11 13  1  0  0  0  0
 11 14  1  0  0  0  0
  9 10  1  0  0  0  0
  9 11  1  0  0  0  0
  9 25  1  0  0  0  0
  7  8  1  0  0  0  0
  7  9  1  0  0  0  0
 29 30  1  0  0  0  0
 29 31  1  0  0  0  0
 29 32  1  0  0  0  0
 27 28  1  0  0  0  0
 27 29  1  0  0  0  0
M  END
$$$$
default_name
  -OEChem-02102213163D

 32 32  0     1  0  0  0  0  0999 V2000
   -3.8405   -3.7518    1.6252 H   0  0  0  0  0  0  0  0  0  0  0  0
   -3.7965   -2.8768    0.9782 C   0  0  0  0  0  0  0  0  0  0  0  0
   -4.5465   -2.1527    1.2902 H   0  0  0  0  0  0  0  0  0  0  0  0
   -3.9745   -3.1748   -0.0538 H   0  0  0  0  0  0  0  0  0  0  0  0
   -2.4245   -2.2537    1.0882 C   0  0  0  0  0  0  0  0  0  0  0  0
   -1.5805   -2.7478    1.8242 O   0  0  0  0  0  0  0  0  0  0  0  0
   -2.2045   -1.1637    0.3562 N   0  0  0  0  0  0  0  0  0  0  0  0
   -2.9595   -0.7907   -0.2008 H   0  0  0  0  0  0  0  0  0  0  0  0
   -0.9485   -0.4087    0.3482 C   0  0  1  0  0  0  0  0  0  0  0  0
   -0.1408   -1.0795    0.0507 H   0  0  0  0  0  0  0  0  0  0  0  0
   -1.0432    0.7243   -0.6879 C   0  0  0  0  0  0  0  0  0  0  0  0
   -1.4272    1.6210   -0.1996 H   0  0  0  0  0  0  0  0  0  0  0  0
   -0.0412    0.9540   -1.0535 H   0  0  0  0  0  0  0  0  0  0  0  0
   -1.9453    0.4075   -1.8655 C   0  0  0  0  0  0  0  0  0  0  0  0
   -3.3452    0.4288   -1.7176 C   0  0  0  0  0  0  0  0  0  0  0  0
   -3.7860    0.6493   -0.7557 H   0  0  0  0  0  0  0  0  0  0  0  0
   -4.1758    0.1743   -2.8245 C   0  0  0  0  0  0  0  0  0  0  0  0
   -5.2504    0.1886   -2.7081 H   0  0  0  0  0  0  0  0  0  0  0  0
   -3.6089   -0.0998   -4.0807 C   0  0  0  0  0  0  0  0  0  0  0  0
   -4.2471   -0.2976   -4.9305 H   0  0  0  0  0  0  0  0  0  0  0  0
   -2.2105   -0.1233   -4.2316 C   0  0  0  0  0  0  0  0  0  0  0  0
   -1.7745   -0.3394   -5.1960 H   0  0  0  0  0  0  0  0  0  0  0  0
   -1.3806    0.1277   -3.1245 C   0  0  0  0  0  0  0  0  0  0  0  0
   -0.3048    0.1061   -3.2412 H   0  0  0  0  0  0  0  0  0  0  0  0
   -0.6196    0.1253    1.7539 C   0  0  0  0  0  0  0  0  0  0  0  0
    0.5216    0.0194    2.2054 O   0  0  0  0  0  0  0  0  0  0  0  0
   -1.6152    0.6924    2.4469 N   0  0  0  0  0  0  0  0  0  0  0  0
   -2.5345    0.6914    2.0318 H   0  0  0  0  0  0  0  0  0  0  0  0
   -1.4720    1.2390    3.7941 C   0  0  0  0  0  0  0  0  0  0  0  0
   -0.6345    1.9391    3.8219 H   0  0  0  0  0  0  0  0  0  0  0  0
   -2.3844    1.7580    4.0892 H   0  0  0  0  0  0  0  0  0  0  0  0
   -1.2733    0.4298    4.4995 H   0  0  0  0  0  0  0  0  0  0  0  0
  5  6  2  0  0  0  0
  5  7  1  0  0  0  0
  2  3  1  0  0  0  0
  2  4  1  0  0  0  0
  2  5  1  0  0  0  0
  1  2  1  0  0  0  0
 25 26  2  0  0  0  0
 25 27  1  0  0  0  0
 23 24  1  0  0  0  0
 21 22  1  0  0  0  0
 21 23  2  0  0  0  0
 19 20  1  0  0  0  0
 19 21  1  0  0  0  0
 17 18  1  0  0  0  0
 17 19  2  0  0  0  0
 15 16  1  0  0  0  0
 15 17  1  0  0  0  0
 14 15  2  0  0  0  0
 14 23  1  0  0  0  0
 11 12  1  0  0  0  0
 11 13  1  0  0  0  0
 11 14  1  0  0  0  0
  9 10  1  0  0  0  0
  9 11  1  0  0  0  0
  9 25  1  0  0  0  0
  7  8  1  0  0  0  0
  7  9  1  0  0  0  0
 29 30  1  0  0  0  0
 29 31  1  0  0  0  0
 29 32  1  0  0  0  0
 27 28  1  0  0  0  0
 27 29  1  0  0  0  0
M  END
$$$$
default_name
  -OEChem-02102213163D

 32 32  0     1  0  0  0  0  0999 V2000
   -3.8405   -3.7518    1.6252 H   0  0  0  0  0  0  0  0  0  0  0  0
   -3.7965   -2.8768    0.9782 C   0  0  0  0  0  0  0  0  0  0  0  0
   -4.5465   -2.1527    1.2902 H   0  0  0  0  0  0  0  0  0  0  0  0
   -3.9745   -3.1748   -0.0538 H   0  0  0  0  0  0  0  0  0  0  0  0
   -2.4245   -2.2537    1.0882 C   0  0  0  0  0  0  0  0  0  0  0  0
   -1.5805   -2.7478    1.8242 O   0  0  0  0  0  0  0  0  0  0  0  0
   -2.2045   -1.1637    0.3562 N   0  0  0  0  0  0  0  0  0  0  0  0
   -2.9595   -0.7907   -0.2008 H   0  0  0  0  0  0  0  0  0  0  0  0
   -0.9485   -0.4087    0.3482 C   0  0  1  0  0  0  0  0  0  0  0  0
   -0.1408   -1.0795    0.0507 H   0  0  0  0  0  0  0  0  0  0  0  0
   -1.0432    0.7243   -0.6879 C   0  0  0  0  0  0  0  0  0  0  0  0
   -1.4272    1.6210   -0.1996 H   0  0  0  0  0  0  0  0  0  0  0  0
   -0.0412    0.9540   -1.0535 H   0  0  0  0  0  0  0  0  0  0  0  0
   -1.9453    0.4075   -1.8655 C   0  0  0  0  0  0  0  0  0  0  0  0
   -3.3156    0.7270   -1.8205 C   0  0  0  0  0  0  0  0  0  0  0  0
   -3.7384    1.1805   -0.9350 H   0  0  0  0  0  0  0  0  0  0  0  0
   -4.1378    0.4677   -2.9325 C   0  0  0  0  0  0  0  0  0  0  0  0
   -5.1902    0.7115   -2.8949 H   0  0  0  0  0  0  0  0  0  0  0  0
   -3.5915   -0.1093   -4.0915 C   0  0  0  0  0  0  0  0  0  0  0  0
   -4.2236   -0.3106   -4.9450 H   0  0  0  0  0  0  0  0  0  0  0  0
   -2.2228   -0.4312   -4.1393 C   0  0  0  0  0  0  0  0  0  0  0  0
   -1.8039   -0.8797   -5.0281 H   0  0  0  0  0  0  0  0  0  0  0  0
   -1.4021   -0.1750   -3.0266 C   0  0  0  0  0  0  0  0  0  0  0  0
   -0.3501   -0.4262   -3.0634 H   0  0  0  0  0  0  0  0  0  0  0  0
   -0.6196    0.1253    1.7539 C   0  0  0  0  0  0  0  0  0  0  0  0
    0.5216    0.0194    2.2054 O   0  0  0  0  0  0  0  0  0  0  0  0
   -1.6152    0.6924    2.4469 N   0  0  0  0  0  0  0  0  0  0  0  0
   -2.5345    0.6914    2.0318 H   0  0  0  0  0  0  0  0  0  0  0  0
   -1.4720    1.2390    3.7941 C   0  0  0  0  0  0  0  0  0  0  0  0
   -0.6345    1.9391    3.8219 H   0  0  0  0  0  0  0  0  0  0  0  0
   -2.3844    1.7580    4.0892 H   0  0  0  0  0  0  0  0  0  0  0  0
   -1.2733    0.4298    4.4995 H   0  0  0  0  0  0  0  0  0  0  0  0
  5  6  2  0  0  0  0
  5  7  1  0  0  0  0
  2  3  1  0  0  0  0
  2  4  1  0  0  0  0
  2  5  1  0  0  0  0
  1  2  1  0  0  0  0
 25 26  2  0  0  0  0
 25 27  1  0  0  0  0
 23 24  1  0  0  0  0
 21 22  1  0  0  0  0
 21 23  2  0  0  0  0
 19 20  1  0  0  0  0
 19 21  1  0  0  0  0
 17 18  1  0  0  0  0
 17 19  2  0  0  0  0
 15 16  1  0  0  0  0
 15 17  1  0  0  0  0
 14 15  2  0  0  0  0
 14 23  1  0  0  0  0
 11 12  1  0  0  0  0
 11 13  1  0  0  0  0
 11 14  1  0  0  0  0
  9 10  1  0  0  0  0
  9 11  1  0  0  0  0
  9 25  1  0  0  0  0
  7  8  1  0  0  0  0
  7  9  1  0  0  0  0
 29 30  1  0  0  0  0
 29 31  1  0  0  0  0
 29 32  1  0  0  0  0
 27 28  1  0  0  0  0
 27 29  1  0  0  0  0
M  END
$$$$
default_name
  -OEChem-02102213163D

 32 32  0     1  0  0  0  0  0999 V2000
   -3.8405   -3.7518    1.6252 H   0  0  0  0  0  0  0  0  0  0  0  0
   -3.7965   -2.8768    0.9782 C   0  0  0  0  0  0  0  0  0  0  0  0
   -4.5465   -2.1527    1.2902 H   0  0  0  0  0  0  0  0  0  0  0  0
   -3.9745   -3.1748   -0.0538 H   0  0  0  0  0  0  0  0  0  0  0  0
   -2.4245   -2.2537    1.0882 C   0  0  0  0  0  0  0  0  0  0  0  0
   -1.5805   -2.7478    1.8242 O   0  0  0  0  0  0  0  0  0  0  0  0
   -2.2045   -1.1637    0.3562 N   0  0  0  0  0  0  0  0  0  0  0  0
   -2.9595   -0.7907   -0.2008 H   0  0  0  0  0  0  0  0  0  0  0  0
   -0.9485   -0.4087    0.3482 C   0  0  1  0  0  0  0  0  0  0  0  0
   -0.1408   -1.0795    0.0507 H   0  0  0  0  0  0  0  0  0  0  0  0
   -1.0432    0.7243   -0.6879 C   0  0  0  0  0  0  0  0  0  0  0  0
   -1.4272    1.6210   -0.1996 H   0  0  0  0  0  0  0  0  0  0  0  0
   -0.0412    0.9540   -1.0535 H   0  0  0  0  0  0  0  0  0  0  0  0
   -1.9453    0.4075   -1.8655 C   0  0  0  0  0  0  0  0  0  0  0  0
   -3.2216    0.9933   -1.9641 C   0  0  0  0  0  0  0  0  0  0  0  0
   -3.5760    1.6563   -1.1875 H   0  0  0  0  0  0  0  0  0  0  0  0
   -4.0362    0.7269   -3.0800 C   0  0  0  0  0  0  0  0  0  0  0  0
   -5.0170    1.1757   -3.1525 H   0  0  0  0  0  0  0  0  0  0  0  0
   -3.5759   -0.1236   -4.0996 C   0  0  0  0  0  0  0  0  0  0  0  0
   -4.2028   -0.3301   -4.9558 H   0  0  0  0  0  0  0  0  0  0  0  0
   -2.3016   -0.7118   -4.0034 C   0  0  0  0  0  0  0  0  0  0  0  0
   -1.9498   -1.3698   -4.7844 H   0  0  0  0  0  0  0  0  0  0  0  0
   -1.4891   -0.4480   -2.8865 C   0  0  0  0  0  0  0  0  0  0  0  0
   -0.5103   -0.9038   -2.8121 H   0  0  0  0  0  0  0  0  0  0  0  0
   -0.6196    0.1253    1.7539 C   0  0  0  0  0  0  0  0  0  0  0  0
    0.5216    0.0194    2.2054 O   0  0  0  0  0  0  0  0  0  0  0  0
   -1.6152    0.6924    2.4469 N   0  0  0  0  0  0  0  0  0  0  0  0
   -2.5345    0.6914    2.0318 H   0  0  0  0  0  0  0  0  0  0  0  0
   -1.4720    1.2390    3.7941 C   0  0  0  0  0  0  0  0  0  0  0  0
   -0.6345    1.9391    3.8219 H   0  0  0  0  0  0  0  0  0  0  0  0
   -2.3844    1.7580    4.0892 H   0  0  0  0  0  0  0  0  0  0  0  0
   -1.2733    0.4298    4.4995 H   0  0  0  0  0  0  0  0  0  0  0  0
  5  6  2  0  0  0  0
  5  7  1  0  0  0  0
  2  3  1  0  0  0  0
  2  4  1  0  0  0  0
  2  5  1  0  0  0  0
  1  2  1  0  0  0  0
 25 26  2  0  0  0  0
 25 27  1  0  0  0  0
 23 24  1  0  0  0  0
 21 22  1  0  0  0  0
 21 23  2  0  0  0  0
 19 20  1  0  0  0  0
 19 21  1  0  0  0  0
 17 18  1  0  0  0  0
 17 19  2  0  0  0  0
 15 16  1  0  0  0  0
 15 17  1  0  0  0  0
 14 15  2  0  0  0  0
 14 23  1  0  0  0  0
 11 12  1  0  0  0  0
 11 13  1  0  0  0  0
 11 14  1  0  0  0  0
  9 10  1  0  0  0  0
  9 11  1  0  0  0  0
  9 25  1  0  0  0  0
  7  8  1  0  0  0  0
  7  9  1  0  0  0  0
 29 30  1  0  0  0  0
 29 31  1  0  0  0  0
 29 32  1  0  0  0  0
 27 28  1  0  0  0  0
 27 29  1  0  0  0  0
M  END
$$$$
default_name
  -OEChem-02102213163D

 32 32  0     1  0  0  0  0  0999 V2000
   -3.8405   -3.7518    1.6252 H   0  0  0  0  0  0  0  0  0  0  0  0
   -3.7965   -2.8768    0.9782 C   0  0  0  0  0  0  0  0  0  0  0  0
   -4.5465   -2.1527    1.2902 H   0  0  0  0  0  0  0  0  0  0  0  0
   -3.9745   -3.1748   -0.0538 H   0  0  0  0  0  0  0  0  0  0  0  0
   -2.4245   -2.2537    1.0882 C   0  0  0  0  0  0  0  0  0  0  0  0
   -1.5805   -2.7478    1.8242 O   0  0  0  0  0  0  0  0  0  0  0  0
   -2.2045   -1.1637    0.3562 N   0  0  0  0  0  0  0  0  0  0  0  0
   -2.9595   -0.7907   -0.2008 H   0  0  0  0  0  0  0  0  0  0  0  0
   -0.9485   -0.4087    0.3482 C   0  0  1  0  0  0  0  0  0  0  0  0
   -0.1408   -1.0795    0.0507 H   0  0  0  0  0  0  0  0  0  0  0  0
   -1.0432    0.7243   -0.6879 C   0  0  0  0  0  0  0  0  0  0  0  0
   -1.4272    1.6210   -0.1996 H   0  0  0  0  0  0  0  0  0  0  0  0
   -0.0412    0.9540   -1.0535 H   0  0  0  0  0  0  0  0  0  0  0  0
   -1.9453    0.4075   -1.8655 C   0  0  0  0  0  0  0  0  0  0  0  0
   -3.0696    1.2095   -2.1388 C   0  0  0  0  0  0  0  0  0  0  0  0
   -3.3098    2.0445   -1.4958 H   0  0  0  0  0  0  0  0  0  0  0  0
   -3.8781    0.9341   -3.2569 C   0  0  0  0  0  0  0  0  0  0  0  0
   -4.7424    1.5496   -3.4635 H   0  0  0  0  0  0  0  0  0  0  0  0
   -3.5633   -0.1418   -4.1043 C   0  0  0  0  0  0  0  0  0  0  0  0
   -4.1859   -0.3548   -4.9620 H   0  0  0  0  0  0  0  0  0  0  0  0
   -2.4415   -0.9461   -3.8332 C   0  0  0  0  0  0  0  0  0  0  0  0
   -2.2025   -1.7765   -4.4814 H   0  0  0  0  0  0  0  0  0  0  0  0
   -1.6355   -0.6726   -2.7139 C   0  0  0  0  0  0  0  0  0  0  0  0
   -0.7747   -1.2942   -2.5046 H   0  0  0  0  0  0  0  0  0  0  0  0
   -0.6196    0.1253    1.7539 C   0  0  0  0  0  0  0  0  0  0  0  0
    0.5216    0.0194    2.2054 O   0  0  0  0  0  0  0  0  0  0  0  0
   -1.6152    0.6924    2.4469 N   0  0  0  0  0  0  0  0  0  0  0  0
   -2.5345    0.6914    2.0318 H   0  0  0  0  0  0  0  0  0  0  0  0
   -1.4720    1.2390    3.7941 C   0  0  0  0  0  0  0  0  0  0  0  0
   -0.6345    1.9391    3.8219 H   0  0  0  0  0  0  0  0  0  0  0  0
   -2.3844    1.7580    4.0892 H   0  0  0  0  0  0  0  0  0  0  0  0
   -1.2733    0.4298    4.4995 H   0  0  0  0  0  0  0  0  0  0  0  0
  5  6  2  0  0  0  0
  5  7  1  0  0  0  0
  2  3  1  0  0  0  0
  2  4  1  0  0  0  0
  2  5  1  0  0  0  0
  1  2  1  0  0  0  0
 25 26  2  0  0  0  0
 25 27  1  0  0  0  0
 23 24  1  0  0  0  0
 21 22  1  0  0  0  0
 21 23  2  0  0  0  0
 19 20  1  0  0  0  0
 19 21  1  0  0  0  0
 17 18  1  0  0  0  0
 17 19  2  0  0  0  0
 15 16  1  0  0  0  0
 15 17  1  0  0  0  0
 14 15  2  0  0  0  0
 14 23  1  0  0  0  0
 11 12  1  0  0  0  0
 11 13  1  0  0  0  0
 11 14  1  0  0  0  0
  9 10  1  0  0  0  0
  9 11  1  0  0  0  0
  9 25  1  0  0  0  0
  7  8  1  0  0  0  0
  7  9  1  0  0  0  0
 29 30  1  0  0  0  0
 29 31  1  0  0  0  0
 29 32  1  0  0  0  0
 27 28  1  0  0  0  0
 27 29  1  0  0  0  0
M  END
$$$$
default_name
  -OEChem-02102213163D

 32 32  0     1  0  0  0  0  0999 V2000
   -3.8405   -3.7518    1.6252 H   0  0  0  0  0  0  0  0  0  0  0  0
   -3.7965   -2.8768    0.9782 C   0  0  0  0  0  0  0  0  0  0  0  0
   -4.5465   -2.1527    1.2902 H   0  0  0  0  0  0  0  0  0  0  0  0
   -3.9745   -3.1748   -0.0538 H   0  0  0  0  0  0  0  0  0  0  0  0
   -2.4245   -2.2537    1.0882 C   0  0  0  0  0  0  0  0  0  0  0  0
   -1.5805   -2.7478    1.8242 O   0  0  0  0  0  0  0  0  0  0  0  0
   -2.2045   -1.1637    0.3562 N   0  0  0  0  0  0  0  0  0  0  0  0
   -2.9595   -0.7907   -0.2008 H   0  0  0  0  0  0  0  0  0  0  0  0
   -0.9485   -0.4087    0.3482 C   0  0  1  0  0  0  0  0  0  0  0  0
   -0.1408   -1.0795    0.0507 H   0  0  0  0  0  0  0  0  0  0  0  0
   -1.0432    0.7243   -0.6879 C   0  0  0  0  0  0  0  0  0  0  0  0
   -1.4272    1.6210   -0.1996 H   0  0  0  0  0  0  0  0  0  0  0  0
   -0.0412    0.9540   -1.0535 H   0  0  0  0  0  0  0  0  0  0  0  0
   -1.9453    0.4075   -1.8655 C   0  0  0  0  0  0  0  0  0  0  0  0
   -2.8698    1.3610   -2.3326 C   0  0  0  0  0  0  0  0  0  0  0  0
   -2.9581    2.3185   -1.8390 H   0  0  0  0  0  0  0  0  0  0  0  0
   -3.6742    1.0752   -3.4511 C   0  0  0  0  0  0  0  0  0  0  0  0
   -4.3852    1.8078   -3.8066 H   0  0  0  0  0  0  0  0  0  0  0  0
   -3.5546   -0.1626   -4.1054 C   0  0  0  0  0  0  0  0  0  0  0  0
   -4.1743   -0.3830   -4.9633 H   0  0  0  0  0  0  0  0  0  0  0  0
   -2.6329   -1.1182   -3.6404 C   0  0  0  0  0  0  0  0  0  0  0  0
   -2.5446   -2.0718   -4.1399 H   0  0  0  0  0  0  0  0  0  0  0  0
   -1.8314   -0.8336   -2.5205 C   0  0  0  0  0  0  0  0  0  0  0  0
   -1.1251   -1.5709   -2.1617 H   0  0  0  0  0  0  0  0  0  0  0  0
   -0.6196    0.1253    1.7539 C   0  0  0  0  0  0  0  0  0  0  0  0
    0.5216    0.0194    2.2054 O   0  0  0  0  0  0  0  0  0  0  0  0
   -1.6152    0.6924    2.4469 N   0  0  0  0  0  0  0  0  0  0  0  0
   -2.5345    0.6914    2.0318 H   0  0  0  0  0  0  0  0  0  0  0  0
   -1.4720    1.2390    3.7941 C   0  0  0  0  0  0  0  0  0  0  0  0
   -0.6345    1.9391    3.8219 H   0  0  0  0  0  0  0  0  0  0  0  0
   -2.3844    1.7580    4.0892 H   0  0  0  0  0  0  0  0  0  0  0  0
   -1.2733    0.4298    4.4995 H   0  0  0  0  0  0  0  0  0  0  0  0
  5  6  2  0  0  0  0
  5  7  1  0  0  0  0
  2  3  1  0  0  0  0
  2  4  1  0  0  0  0
  2  5  1  0  0  0  0
  1  2  1  0  0  0  0
 25 26  2  0  0  0  0
 25 27  1  0  0  0  0
 23 24  1  0  0  0  0
 21 22  1  0  0  0  0
 21 23  2  0  0  0  0
 19 20  1  0  0  0  0
 19 21  1  0  0  0  0
 17 18  1  0  0  0  0
 17 19  2  0  0  0  0
 15 16  1  0  0  0  0
 15 17  1  0  0  0  0
 14 15  2  0  0  0  0
 14 23  1  0  0  0  0
 11 12  1  0  0  0  0
 11 13  1  0  0  0  0
 11 14  1  0  0  0  0
  9 10  1  0  0  0  0
  9 11  1  0  0  0  0
  9 25  1  0  0  0  0
  7  8  1  0  0  0  0
  7  9  1  0  0  0  0
 29 30  1  0  0  0  0
 29 31  1  0  0  0  0
 29 32  1  0  0  0  0
 27 28  1  0  0  0  0
 27 29  1  0  0  0  0
M  END
$$$$
default_name
  -OEChem-02102213163D

 32 32  0     1  0  0  0  0  0999 V2000
   -3.8405   -3.7518    1.6252 H   0  0  0  0  0  0  0  0  0  0  0  0
   -3.7965   -2.8768    0.9782 C   0  0  0  0  0  0  0  0  0  0  0  0
   -4.5465   -2.1527    1.2902 H   0  0  0  0  0  0  0  0  0  0  0  0
   -3.9745   -3.1748   -0.0538 H   0  0  0  0  0  0  0  0  0  0  0  0
   -2.4245   -2.2537    1.0882 C   0  0  0  0  0  0  0  0  0  0  0  0
   -1.5805   -2.7478    1.8242 O   0  0  0  0  0  0  0  0  0  0  0  0
   -2.2045   -1.1637    0.3562 N   0  0  0  0  0  0  0  0  0  0  0  0
   -2.9595   -0.7907   -0.2008 H   0  0  0  0  0  0  0  0  0  0  0  0
   -0.9485   -0.4087    0.3482 C   0  0  1  0  0  0  0  0  0  0  0  0
   -0.1408   -1.0795    0.0507 H   0  0  0  0  0  0  0  0  0  0  0  0
   -1.0432    0.7243   -0.6879 C   0  0  0  0  0  0  0  0  0  0  0  0
   -1.4272    1.6210   -0.1996 H   0  0  0  0  0  0  0  0  0  0  0  0
   -0.0412    0.9540   -1.0535 H   0  0  0  0  0  0  0  0  0  0  0  0
   -1.9453    0.4075   -1.8655 C   0  0  0  0  0  0  0  0  0  0  0  0
   -2.6359    1.4372   -2.5323 C   0  0  0  0  0  0  0  0  0  0  0  0
   -2.5448    2.4596   -2.1936 H   0  0  0  0  0  0  0  0  0  0  0  0
   -3.4384    1.1407   -3.6494 C   0  0  0  0  0  0  0  0  0  0  0  0
   -3.9698    1.9326   -4.1584 H   0  0  0  0  0  0  0  0  0  0  0  0
   -3.5503   -0.1846   -4.1028 C   0  0  0  0  0  0  0  0  0  0  0  0
   -4.1687   -0.4127   -4.9597 H   0  0  0  0  0  0  0  0  0  0  0  0
   -2.8627   -1.2162   -3.4379 C   0  0  0  0  0  0  0  0  0  0  0  0
   -2.9529   -2.2358   -3.7830 H   0  0  0  0  0  0  0  0  0  0  0  0
   -2.0634   -0.9200   -2.3195 C   0  0  0  0  0  0  0  0  0  0  0  0
   -1.5377   -1.7150   -1.8068 H   0  0  0  0  0  0  0  0  0  0  0  0
   -0.6196    0.1253    1.7539 C   0  0  0  0  0  0  0  0  0  0  0  0
    0.5216    0.0194    2.2054 O   0  0  0  0  0  0  0  0  0  0  0  0
   -1.6152    0.6924    2.4469 N   0  0  0  0  0  0  0  0  0  0  0  0
   -2.5345    0.6914    2.0318 H   0  0  0  0  0  0  0  0  0  0  0  0
   -1.4720    1.2390    3.7941 C   0  0  0  0  0  0  0  0  0  0  0  0
   -0.6345    1.9391    3.8219 H   0  0  0  0  0  0  0  0  0  0  0  0
   -2.3844    1.7580    4.0892 H   0  0  0  0  0  0  0  0  0  0  0  0
   -1.2733    0.4298    4.4995 H   0  0  0  0  0  0  0  0  0  0  0  0
  5  6  2  0  0  0  0
  5  7  1  0  0  0  0
  2  3  1  0  0  0  0
  2  4  1  0  0  0  0
  2  5  1  0  0  0  0
  1  2  1  0  0  0  0
 25 26  2  0  0  0  0
 25 27  1  0  0  0  0
 23 24  1  0  0  0  0
 21 22  1  0  0  0  0
 21 23  2  0  0  0  0
 19 20  1  0  0  0  0
 19 21  1  0  0  0  0
 17 18  1  0  0  0  0
 17 19  2  0  0  0  0
 15 16  1  0  0  0  0
 15 17  1  0  0  0  0
 14 15  2  0  0  0  0
 14 23  1  0  0  0  0
 11 12  1  0  0  0  0
 11 13  1  0  0  0  0
 11 14  1  0  0  0  0
  9 10  1  0  0  0  0
  9 11  1  0  0  0  0
  9 25  1  0  0  0  0
  7  8  1  0  0  0  0
  7  9  1  0  0  0  0
 29 30  1  0  0  0  0
 29 31  1  0  0  0  0
 29 32  1  0  0  0  0
 27 28  1  0  0  0  0
 27 29  1  0  0  0  0
M  END
$$$$
default_name
  -OEChem-02102213163D

 32 32  0     1  0  0  0  0  0999 V2000
   -3.8405   -3.7518    1.6252 H   0  0  0  0  0  0  0  0  0  0  0  0
   -3.7965   -2.8768    0.9782 C   0  0  0  0  0  0  0  0  0  0  0  0
   -4.5465   -2.1527    1.2902 H   0  0  0  0  0  0  0  0  0  0  0  0
   -3.9745   -3.1748   -0.0538 H   0  0  0  0  0  0  0  0  0  0  0  0
   -2.4245   -2.2537    1.0882 C   0  0  0  0  0  0  0  0  0  0  0  0
   -1.5805   -2.7478    1.8242 O   0  0  0  0  0  0  0  0  0  0  0  0
   -2.2045   -1.1637    0.3562 N   0  0  0  0  0  0  0  0  0  0  0  0
   -2.9595   -0.7907   -0.2008 H   0  0  0  0  0  0  0  0  0  0  0  0
   -0.9485   -0.4087    0.3482 C   0  0  1  0  0  0  0  0  0  0  0  0
   -0.1408   -1.0795    0.0507 H   0  0  0  0  0  0  0  0  0  0  0  0
   -1.0432    0.7243   -0.6879 C   0  0  0  0  0  0  0  0  0  0  0  0
   -1.4272    1.6210   -0.1996 H   0  0  0  0  0  0  0  0  0  0  0  0
   -0.0412    0.9540   -1.0535 H   0  0  0  0  0  0  0  0  0  0  0  0
   -1.9453    0.4075   -1.8655 C   0  0  0  0  0  0  0  0  0  0  0  0
   -2.3839    1.4332   -2.7243 C   0  0  0  0  0  0  0  0  0  0  0  0
   -2.0980    2.4584   -2.5356 H   0  0  0  0  0  0  0  0  0  0  0  0
   -3.1867    1.1260   -3.8383 C   0  0  0  0  0  0  0  0  0  0  0  0
   -3.5245    1.9155   -4.4949 H   0  0  0  0  0  0  0  0  0  0  0  0
   -3.5506   -0.2064   -4.0966 C   0  0  0  0  0  0  0  0  0  0  0  0
   -4.1694   -0.4421   -4.9512 H   0  0  0  0  0  0  0  0  0  0  0  0
   -3.1154   -1.2336   -3.2397 C   0  0  0  0  0  0  0  0  0  0  0  0
   -3.3995   -2.2572   -3.4351 H   0  0  0  0  0  0  0  0  0  0  0  0
   -2.3158   -0.9259   -2.1246 C   0  0  0  0  0  0  0  0  0  0  0  0
   -1.9843   -1.7167   -1.4642 H   0  0  0  0  0  0  0  0  0  0  0  0
   -0.6196    0.1253    1.7539 C   0  0  0  0  0  0  0  0  0  0  0  0
    0.5216    0.0194    2.2054 O   0  0  0  0  0  0  0  0  0  0  0  0
   -1.6152    0.6924    2.4469 N   0  0  0  0  0  0  0  0  0  0  0  0
   -2.5345    0.6914    2.0318 H   0  0  0  0  0  0  0  0  0  0  0  0
   -1.4720    1.2390    3.7941 C   0  0  0  0  0  0  0  0  0  0  0  0
   -0.6345    1.9391    3.8219 H   0  0  0  0  0  0  0  0  0  0  0  0
   -2.3844    1.7580    4.0892 H   0  0  0  0  0  0  0  0  0  0  0  0
   -1.2733    0.4298    4.4995 H   0  0  0  0  0  0  0  0  0  0  0  0
  5  6  2  0  0  0  0
  5  7  1  0  0  0  0
  2  3  1  0  0  0  0
  2  4  1  0  0  0  0
  2  5  1  0  0  0  0
  1  2  1  0  0  0  0
 25 26  2  0  0  0  0
 25 27  1  0  0  0  0
 23 24  1  0  0  0  0
 21 22  1  0  0  0  0
 21 23  2  0  0  0  0
 19 20  1  0  0  0  0
 19 21  1  0  0  0  0
 17 18  1  0  0  0  0
 17 19  2  0  0  0  0
 15 16  1  0  0  0  0
 15 17  1  0  0  0  0
 14 15  2  0  0  0  0
 14 23  1  0  0  0  0
 11 12  1  0  0  0  0
 11 13  1  0  0  0  0
 11 14  1  0  0  0  0
  9 10  1  0  0  0  0
  9 11  1  0  0  0  0
  9 25  1  0  0  0  0
  7  8  1  0  0  0  0
  7  9  1  0  0  0  0
 29 30  1  0  0  0  0
 29 31  1  0  0  0  0
 29 32  1  0  0  0  0
 27 28  1  0  0  0  0
 27 29  1  0  0  0  0
M  END
$$$$
default_name
  -OEChem-02102213163D

 32 32  0     1  0  0  0  0  0999 V2000
   -3.8405   -3.7518    1.6252 H   0  0  0  0  0  0  0  0  0  0  0  0
   -3.7965   -2.8768    0.9782 C   0  0  0  0  0  0  0  0  0  0  0  0
   -4.5465   -2.1527    1.2902 H   0  0  0  0  0  0  0  0  0  0  0  0
   -3.9745   -3.1748   -0.0538 H   0  0  0  0  0  0  0  0  0  0  0  0
   -2.4245   -2.2537    1.0882 C   0  0  0  0  0  0  0  0  0  0  0  0
   -1.5805   -2.7478    1.8242 O   0  0  0  0  0  0  0  0  0  0  0  0
   -2.2045   -1.1637    0.3562 N   0  0  0  0  0  0  0  0  0  0  0  0
   -2.9595   -0.7907   -0.2008 H   0  0  0  0  0  0  0  0  0  0  0  0
   -0.9485   -0.4087    0.3482 C   0  0  1  0  0  0  0  0  0  0  0  0
   -0.1408   -1.0795    0.0507 H   0  0  0  0  0  0  0  0  0  0  0  0
   -1.0432    0.7243   -0.6879 C   0  0  0  0  0  0  0  0  0  0  0  0
   -1.1654    1.6741   -0.1654 H   0  0  0  0  0  0  0  0  0  0  0  0
   -0.1058    0.7746   -1.2439 H   0  0  0  0  0  0  0  0  0  0  0  0
   -2.1956    0.5722   -1.6625 C   0  0  0  0  0  0  0  0  0  0  0  0
   -2.4099    1.5328   -2.6691 C   0  0  0  0  0  0  0  0  0  0  0  0
   -1.7664    2.3984   -2.7392 H   0  0  0  0  0  0  0  0  0  0  0  0
   -3.4559    1.3636   -3.5950 C   0  0  0  0  0  0  0  0  0  0  0  0
   -3.6203    2.1037   -4.3655 H   0  0  0  0  0  0  0  0  0  0  0  0
   -4.2876    0.2336   -3.5174 C   0  0  0  0  0  0  0  0  0  0  0  0
   -5.0926    0.1049   -4.2274 H   0  0  0  0  0  0  0  0  0  0  0  0
   -4.0770   -0.7274   -2.5119 C   0  0  0  0  0  0  0  0  0  0  0  0
   -4.7197   -1.5933   -2.4488 H   0  0  0  0  0  0  0  0  0  0  0  0
   -3.0338   -0.5564   -1.5847 C   0  0  0  0  0  0  0  0  0  0  0  0
   -2.8749   -1.2947   -0.8095 H   0  0  0  0  0  0  0  0  0  0  0  0
   -0.6196    0.1253    1.7539 C   0  0  0  0  0  0  0  0  0  0  0  0
    0.5216    0.0194    2.2054 O   0  0  0  0  0  0  0  0  0  0  0  0
   -1.6152    0.6924    2.4469 N   0  0  0  0  0  0  0  0  0  0  0  0
   -2.5345    0.6914    2.0318 H   0  0  0  0  0  0  0  0  0  0  0  0
   -1.4720    1.2390    3.7941 C   0  0  0  0  0  0  0  0  0  0  0  0
   -0.6345    1.9391    3.8219 H   0  0  0  0  0  0  0  0  0  0  0  0
   -2.3844    1.7580    4.0892 H   0  0  0  0  0  0  0  0  0  0  0  0
   -1.2733    0.4298    4.4995 H   0  0  0  0  0  0  0  0  0  0  0  0
  5  6  2  0  0  0  0
  5  7  1  0  0  0  0
  2  3  1  0  0  0  0
  2  4  1  0  0  0  0
  2  5  1  0  0  0  0
  1  2  1  0  0  0  0
 25 26  2  0  0  0  0
 25 27  1  0  0  0  0
 23 24  1  0  0  0  0
 21 22  1  0  0  0  0
 21 23  2  0  0  0  0
 19 20  1  0  0  0  0
 19 21  1  0  0  0  0
 17 18  1  0  0  0  0
 17 19  2  0  0  0  0
 15 16  1  0  0  0  0
 15 17  1  0  0  0  0
 14 15  2  0  0  0  0
 14 23  1  0  0  0  0
 11 12  1  0  0  0  0
 11 13  1  0  0  0  0
 11 14  1  0  0  0  0
  9 10  1  0  0  0  0
  9 11  1  0  0  0  0
  9 25  1  0  0  0  0
  7  8  1  0  0  0  0
  7  9  1  0  0  0  0
 29 30  1  0  0  0  0
 29 31  1  0  0  0  0
 29 32  1  0  0  0  0
 27 28  1  0  0  0  0
 27 29  1  0  0  0  0
M  END
$$$$
default_name
  -OEChem-02102213163D

 32 32  0     1  0  0  0  0  0999 V2000
   -3.8405   -3.7518    1.6252 H   0  0  0  0  0  0  0  0  0  0  0  0
   -3.7965   -2.8768    0.9782 C   0  0  0  0  0  0  0  0  0  0  0  0
   -4.5465   -2.1527    1.2902 H   0  0  0  0  0  0  0  0  0  0  0  0
   -3.9745   -3.1748   -0.0538 H   0  0  0  0  0  0  0  0  0  0  0  0
   -2.4245   -2.2537    1.0882 C   0  0  0  0  0  0  0  0  0  0  0  0
   -1.5805   -2.7478    1.8242 O   0  0  0  0  0  0  0  0  0  0  0  0
   -2.2045   -1.1637    0.3562 N   0  0  0  0  0  0  0  0  0  0  0  0
   -2.9595   -0.7907   -0.2008 H   0  0  0  0  0  0  0  0  0  0  0  0
   -0.9485   -0.4087    0.3482 C   0  0  1  0  0  0  0  0  0  0  0  0
   -0.1408   -1.0795    0.0507 H   0  0  0  0  0  0  0  0  0  0  0  0
   -1.0432    0.7243   -0.6879 C   0  0  0  0  0  0  0  0  0  0  0  0
   -1.1654    1.6741   -0.1654 H   0  0  0  0  0  0  0  0  0  0  0  0
   -0.1058    0.7746   -1.2439 H   0  0  0  0  0  0  0  0  0  0  0  0
   -2.1956    0.5722   -1.6625 C   0  0  0  0  0  0  0  0  0  0  0  0
   -2.2352    1.3354   -2.8448 C   0  0  0  0  0  0  0  0  0  0  0  0
   -1.4542    2.0525   -3.0544 H   0  0  0  0  0  0  0  0  0  0  0  0
   -3.2860    1.1590   -3.7638 C   0  0  0  0  0  0  0  0  0  0  0  0
   -3.3160    1.7478   -4.6699 H   0  0  0  0  0  0  0  0  0  0  0  0
   -4.2973    0.2187   -3.5036 C   0  0  0  0  0  0  0  0  0  0  0  0
   -5.1059    0.0849   -4.2085 H   0  0  0  0  0  0  0  0  0  0  0  0
   -4.2615   -0.5445   -2.3223 C   0  0  0  0  0  0  0  0  0  0  0  0
   -5.0417   -1.2634   -2.1195 H   0  0  0  0  0  0  0  0  0  0  0  0
   -3.2130   -0.3656   -1.4025 C   0  0  0  0  0  0  0  0  0  0  0  0
   -3.1884   -0.9510   -0.4925 H   0  0  0  0  0  0  0  0  0  0  0  0
   -0.6196    0.1253    1.7539 C   0  0  0  0  0  0  0  0  0  0  0  0
    0.5216    0.0194    2.2054 O   0  0  0  0  0  0  0  0  0  0  0  0
   -1.6152    0.6924    2.4469 N   0  0  0  0  0  0  0  0  0  0  0  0
   -2.5345    0.6914    2.0318 H   0  0  0  0  0  0  0  0  0  0  0  0
   -1.4720    1.2390    3.7941 C   0  0  0  0  0  0  0  0  0  0  0  0
   -0.6345    1.9391    3.8219 H   0  0  0  0  0  0  0  0  0  0  0  0
   -2.3844    1.7580    4.0892 H   0  0  0  0  0  0  0  0  0  0  0  0
   -1.2733    0.4298    4.4995 H   0  0  0  0  0  0  0  0  0  0  0  0
  5  6  2  0  0  0  0
  5  7  1  0  0  0  0
  2  3  1  0  0  0  0
  2  4  1  0  0  0  0
  2  5  1  0  0  0  0
  1  2  1  0  0  0  0
 25 26  2  0  0  0  0
 25 27  1  0  0  0  0
 23 24  1  0  0  0  0
 21 22  1  0  0  0  0
 21 23  2  0  0  0  0
 19 20  1  0  0  0  0
 19 21  1  0  0  0  0
 17 18  1  0  0  0  0
 17 19  2  0  0  0  0
 15 16  1  0  0  0  0
 15 17  1  0  0  0  0
 14 15  2  0  0  0  0
 14 23  1  0  0  0  0
 11 12  1  0  0  0  0
 11 13  1  0  0  0  0
 11 14  1  0  0  0  0
  9 10  1  0  0  0  0
  9 11  1  0  0  0  0
  9 25  1  0  0  0  0
  7  8  1  0  0  0  0
  7  9  1  0  0  0  0
 29 30  1  0  0  0  0
 29 31  1  0  0  0  0
 29 32  1  0  0  0  0
 27 28  1  0  0  0  0
 27 29  1  0  0  0  0
M  END
$$$$
default_name
  -OEChem-02102213163D

 32 32  0     1  0  0  0  0  0999 V2000
   -3.8405   -3.7518    1.6252 H   0  0  0  0  0  0  0  0  0  0  0  0
   -3.7965   -2.8768    0.9782 C   0  0  0  0  0  0  0  0  0  0  0  0
   -4.5465   -2.1527    1.2902 H   0  0  0  0  0  0  0  0  0  0  0  0
   -3.9745   -3.1748   -0.0538 H   0  0  0  0  0  0  0  0  0  0  0  0
   -2.4245   -2.2537    1.0882 C   0  0  0  0  0  0  0  0  0  0  0  0
   -1.5805   -2.7478    1.8242 O   0  0  0  0  0  0  0  0  0  0  0  0
   -2.2045   -1.1637    0.3562 N   0  0  0  0  0  0  0  0  0  0  0  0
   -2.9595   -0.7907   -0.2008 H   0  0  0  0  0  0  0  0  0  0  0  0
   -0.9485   -0.4087    0.3482 C   0  0  1  0  0  0  0  0  0  0  0  0
   -0.1408   -1.0795    0.0507 H   0  0  0  0  0  0  0  0  0  0  0  0
   -1.0432    0.7243   -0.6879 C   0  0  0  0  0  0  0  0  0  0  0  0
   -1.1654    1.6741   -0.1654 H   0  0  0  0  0  0  0  0  0  0  0  0
   -0.1058    0.7746   -1.2439 H   0  0  0  0  0  0  0  0  0  0  0  0
   -2.1956    0.5722   -1.6625 C   0  0  0  0  0  0  0  0  0  0  0  0
   -2.0948    1.0810   -2.9712 C   0  0  0  0  0  0  0  0  0  0  0  0
   -1.2019    1.6045   -3.2828 H   0  0  0  0  0  0  0  0  0  0  0  0
   -3.1517    0.8999   -3.8823 C   0  0  0  0  0  0  0  0  0  0  0  0
   -3.0733    1.2936   -4.8860 H   0  0  0  0  0  0  0  0  0  0  0  0
   -4.3096    0.2086   -3.4875 C   0  0  0  0  0  0  0  0  0  0  0  0
   -5.1225    0.0715   -4.1867 H   0  0  0  0  0  0  0  0  0  0  0  0
   -4.4142   -0.2998   -2.1800 C   0  0  0  0  0  0  0  0  0  0  0  0
   -5.3064   -0.8265   -1.8746 H   0  0  0  0  0  0  0  0  0  0  0  0
   -3.3592   -0.1158   -1.2687 C   0  0  0  0  0  0  0  0  0  0  0  0
   -3.4422   -0.5045   -0.2621 H   0  0  0  0  0  0  0  0  0  0  0  0
   -0.6196    0.1253    1.7539 C   0  0  0  0  0  0  0  0  0  0  0  0
    0.5216    0.0194    2.2054 O   0  0  0  0  0  0  0  0  0  0  0  0
   -1.6152    0.6924    2.4469 N   0  0  0  0  0  0  0  0  0  0  0  0
   -2.5345    0.6914    2.0318 H   0  0  0  0  0  0  0  0  0  0  0  0
   -1.4720    1.2390    3.7941 C   0  0  0  0  0  0  0  0  0  0  0  0
   -0.6345    1.9391    3.8219 H   0  0  0  0  0  0  0  0  0  0  0  0
   -2.3844    1.7580    4.0892 H   0  0  0  0  0  0  0  0  0  0  0  0
   -1.2733    0.4298    4.4995 H   0  0  0  0  0  0  0  0  0  0  0  0
  5  6  2  0  0  0  0
  5  7  1  0  0  0  0
  2  3  1  0  0  0  0
  2  4  1  0  0  0  0
  2  5  1  0  0  0  0
  1  2  1  0  0  0  0
 25 26  2  0  0  0  0
 25 27  1  0  0  0  0
 23 24  1  0  0  0  0
 21 22  1  0  0  0  0
 21 23  2  0  0  0  0
 19 20  1  0  0  0  0
 19 21  1  0  0  0  0
 17 18  1  0  0  0  0
 17 19  2  0  0  0  0
 15 16  1  0  0  0  0
 15 17  1  0  0  0  0
 14 15  2  0  0  0  0
 14 23  1  0  0  0  0
 11 12  1  0  0  0  0
 11 13  1  0  0  0  0
 11 14  1  0  0  0  0
  9 10  1  0  0  0  0
  9 11  1  0  0  0  0
  9 25  1  0  0  0  0
  7  8  1  0  0  0  0
  7  9  1  0  0  0  0
 29 30  1  0  0  0  0
 29 31  1  0  0  0  0
 29 32  1  0  0  0  0
 27 28  1  0  0  0  0
 27 29  1  0  0  0  0
M  END
$$$$
default_name
  -OEChem-02102213163D

 32 32  0     1  0  0  0  0  0999 V2000
   -3.8405   -3.7518    1.6252 H   0  0  0  0  0  0  0  0  0  0  0  0
   -3.7965   -2.8768    0.9782 C   0  0  0  0  0  0  0  0  0  0  0  0
   -4.5465   -2.1527    1.2902 H   0  0  0  0  0  0  0  0  0  0  0  0
   -3.9745   -3.1748   -0.0538 H   0  0  0  0  0  0  0  0  0  0  0  0
   -2.4245   -2.2537    1.0882 C   0  0  0  0  0  0  0  0  0  0  0  0
   -1.5805   -2.7478    1.8242 O   0  0  0  0  0  0  0  0  0  0  0  0
   -2.2045   -1.1637    0.3562 N   0  0  0  0  0  0  0  0  0  0  0  0
   -2.9595   -0.7907   -0.2008 H   0  0  0  0  0  0  0  0  0  0  0  0
   -0.9485   -0.4087    0.3482 C   0  0  1  0  0  0  0  0  0  0  0  0
   -0.1408   -1.0795    0.0507 H   0  0  0  0  0  0  0  0  0  0  0  0
   -1.0432    0.7243   -0.6879 C   0  0  0  0  0  0  0  0  0  0  0  0
   -1.1654    1.6741   -0.1654 H   0  0  0  0  0  0  0  0  0  0  0  0
   -0.1058    0.7746   -1.2439 H   0  0  0  0  0  0  0  0  0  0  0  0
   -2.1956    0.5722   -1.6625 C   0  0  0  0  0  0  0  0  0  0  0  0
   -1.9981    0.7872   -3.0397 C   0  0  0  0  0  0  0  0  0  0  0  0
   -1.0268    1.0848   -3.4088 H   0  0  0  0  0  0  0  0  0  0  0  0
   -3.0619    0.6040   -3.9423 C   0  0  0  0  0  0  0  0  0  0  0  0
   -2.9088    0.7721   -4.9991 H   0  0  0  0  0  0  0  0  0  0  0  0
   -4.3236    0.2040   -3.4703 C   0  0  0  0  0  0  0  0  0  0  0  0
   -5.1414    0.0656   -4.1635 H   0  0  0  0  0  0  0  0  0  0  0  0
   -4.5247   -0.0101   -2.0945 C   0  0  0  0  0  0  0  0  0  0  0  0
   -5.4958   -0.3123   -1.7309 H   0  0  0  0  0  0  0  0  0  0  0  0
   -3.4622    0.1762   -1.1923 C   0  0  0  0  0  0  0  0  0  0  0  0
   -3.6191    0.0144   -0.1338 H   0  0  0  0  0  0  0  0  0  0  0  0
   -0.6196    0.1253    1.7539 C   0  0  0  0  0  0  0  0  0  0  0  0
    0.5216    0.0194    2.2054 O   0  0  0  0  0  0  0  0  0  0  0  0
   -1.6152    0.6924    2.4469 N   0  0  0  0  0  0  0  0  0  0  0  0
   -2.5345    0.6914    2.0318 H   0  0  0  0  0  0  0  0  0  0  0  0
   -1.4720    1.2390    3.7941 C   0  0  0  0  0  0  0  0  0  0  0  0
   -0.6345    1.9391    3.8219 H   0  0  0  0  0  0  0  0  0  0  0  0
   -2.3844    1.7580    4.0892 H   0  0  0  0  0  0  0  0  0  0  0  0
   -1.2733    0.4298    4.4995 H   0  0  0  0  0  0  0  0  0  0  0  0
  5  6  2  0  0  0  0
  5  7  1  0  0  0  0
  2  3  1  0  0  0  0
  2  4  1  0  0  0  0
  2  5  1  0  0  0  0
  1  2  1  0  0  0  0
 25 26  2  0  0  0  0
 25 27  1  0  0  0  0
 23 24  1  0  0  0  0
 21 22  1  0  0  0  0
 21 23  2  0  0  0  0
 19 20  1  0  0  0  0
 19 21  1  0  0  0  0
 17 18  1  0  0  0  0
 17 19  2  0  0  0  0
 15 16  1  0  0  0  0
 15 17  1  0  0  0  0
 14 15  2  0  0  0  0
 14 23  1  0  0  0  0
 11 12  1  0  0  0  0
 11 13  1  0  0  0  0
 11 14  1  0  0  0  0
  9 10  1  0  0  0  0
  9 11  1  0  0  0  0
  9 25  1  0  0  0  0
  7  8  1  0  0  0  0
  7  9  1  0  0  0  0
 29 30  1  0  0  0  0
 29 31  1  0  0  0  0
 29 32  1  0  0  0  0
 27 28  1  0  0  0  0
 27 29  1  0  0  0  0
M  END
$$$$
default_name
  -OEChem-02102213163D

 32 32  0     1  0  0  0  0  0999 V2000
   -3.8405   -3.7518    1.6252 H   0  0  0  0  0  0  0  0  0  0  0  0
   -3.7965   -2.8768    0.9782 C   0  0  0  0  0  0  0  0  0  0  0  0
   -4.5465   -2.1527    1.2902 H   0  0  0  0  0  0  0  0  0  0  0  0
   -3.9745   -3.1748   -0.0538 H   0  0  0  0  0  0  0  0  0  0  0  0
   -2.4245   -2.2537    1.0882 C   0  0  0  0  0  0  0  0  0  0  0  0
   -1.5805   -2.7478    1.8242 O   0  0  0  0  0  0  0  0  0  0  0  0
   -2.2045   -1.1637    0.3562 N   0  0  0  0  0  0  0  0  0  0  0  0
   -2.9595   -0.7907   -0.2008 H   0  0  0  0  0  0  0  0  0  0  0  0
   -0.9485   -0.4087    0.3482 C   0  0  1  0  0  0  0  0  0  0  0  0
   -0.1408   -1.0795    0.0507 H   0  0  0  0  0  0  0  0  0  0  0  0
   -1.0432    0.7243   -0.6879 C   0  0  0  0  0  0  0  0  0  0  0  0
   -1.1654    1.6741   -0.1654 H   0  0  0  0  0  0  0  0  0  0  0  0
   -0.1058    0.7746   -1.2439 H   0  0  0  0  0  0  0  0  0  0  0  0
   -2.1956    0.5722   -1.6625 C   0  0  0  0  0  0  0  0  0  0  0  0
   -1.9518    0.4738   -3.0455 C   0  0  0  0  0  0  0  0  0  0  0  0
   -0.9408    0.5290   -3.4237 H   0  0  0  0  0  0  0  0  0  0  0  0
   -3.0228    0.2914   -3.9398 C   0  0  0  0  0  0  0  0  0  0  0  0
   -2.8337    0.2186   -5.0016 H   0  0  0  0  0  0  0  0  0  0  0  0
   -4.3382    0.2053   -3.4531 C   0  0  0  0  0  0  0  0  0  0  0  0
   -5.1612    0.0676   -4.1404 H   0  0  0  0  0  0  0  0  0  0  0  0
   -4.5854    0.3049   -2.0718 C   0  0  0  0  0  0  0  0  0  0  0  0
   -5.5970    0.2442   -1.6980 H   0  0  0  0  0  0  0  0  0  0  0  0
   -3.5153    0.4904   -1.1787 C   0  0  0  0  0  0  0  0  0  0  0  0
   -3.7071    0.5701   -0.1165 H   0  0  0  0  0  0  0  0  0  0  0  0
   -0.6196    0.1253    1.7539 C   0  0  0  0  0  0  0  0  0  0  0  0
    0.5216    0.0194    2.2054 O   0  0  0  0  0  0  0  0  0  0  0  0
   -1.6152    0.6924    2.4469 N   0  0  0  0  0  0  0  0  0  0  0  0
   -2.5345    0.6914    2.0318 H   0  0  0  0  0  0  0  0  0  0  0  0
   -1.4720    1.2390    3.7941 C   0  0  0  0  0  0  0  0  0  0  0  0
   -0.6345    1.9391    3.8219 H   0  0  0  0  0  0  0  0  0  0  0  0
   -2.3844    1.7580    4.0892 H   0  0  0  0  0  0  0  0  0  0  0  0
   -1.2733    0.4298    4.4995 H   0  0  0  0  0  0  0  0  0  0  0  0
  5  6  2  0  0  0  0
  5  7  1  0  0  0  0
  2  3  1  0  0  0  0
  2  4  1  0  0  0  0
  2  5  1  0  0  0  0
  1  2  1  0  0  0  0
 25 26  2  0  0  0  0
 25 27  1  0  0  0  0
 23 24  1  0  0  0  0
 21 22  1  0  0  0  0
 21 23  2  0  0  0  0
 19 20  1  0  0  0  0
 19 21  1  0  0  0  0
 17 18  1  0  0  0  0
 17 19  2  0  0  0  0
 15 16  1  0  0  0  0
 15 17  1  0  0  0  0
 14 15  2  0  0  0  0
 14 23  1  0  0  0  0
 11 12  1  0  0  0  0
 11 13  1  0  0  0  0
 11 14  1  0  0  0  0
  9 10  1  0  0  0  0
  9 11  1  0  0  0  0
  9 25  1  0  0  0  0
  7  8  1  0  0  0  0
  7  9  1  0  0  0  0
 29 30  1  0  0  0  0
 29 31  1  0  0  0  0
 29 32  1  0  0  0  0
 27 28  1  0  0  0  0
 27 29  1  0  0  0  0
M  END
$$$$
default_name
  -OEChem-02102213163D

 32 32  0     1  0  0  0  0  0999 V2000
   -3.8405   -3.7518    1.6252 H   0  0  0  0  0  0  0  0  0  0  0  0
   -3.7965   -2.8768    0.9782 C   0  0  0  0  0  0  0  0  0  0  0  0
   -4.5465   -2.1527    1.2902 H   0  0  0  0  0  0  0  0  0  0  0  0
   -3.9745   -3.1748   -0.0538 H   0  0  0  0  0  0  0  0  0  0  0  0
   -2.4245   -2.2537    1.0882 C   0  0  0  0  0  0  0  0  0  0  0  0
   -1.5805   -2.7478    1.8242 O   0  0  0  0  0  0  0  0  0  0  0  0
   -2.2045   -1.1637    0.3562 N   0  0  0  0  0  0  0  0  0  0  0  0
   -2.9595   -0.7907   -0.2008 H   0  0  0  0  0  0  0  0  0  0  0  0
   -0.9485   -0.4087    0.3482 C   0  0  1  0  0  0  0  0  0  0  0  0
   -0.1408   -1.0795    0.0507 H   0  0  0  0  0  0  0  0  0  0  0  0
   -1.0432    0.7243   -0.6879 C   0  0  0  0  0  0  0  0  0  0  0  0
   -1.1654    1.6741   -0.1654 H   0  0  0  0  0  0  0  0  0  0  0  0
   -0.1058    0.7746   -1.2439 H   0  0  0  0  0  0  0  0  0  0  0  0
   -2.1956    0.5722   -1.6625 C   0  0  0  0  0  0  0  0  0  0  0  0
   -1.9591    0.1622   -2.9883 C   0  0  0  0  0  0  0  0  0  0  0  0
   -0.9498   -0.0251   -3.3267 H   0  0  0  0  0  0  0  0  0  0  0  0
   -3.0371   -0.0165   -3.8748 C   0  0  0  0  0  0  0  0  0  0  0  0
   -2.8531   -0.3289   -4.8932 H   0  0  0  0  0  0  0  0  0  0  0  0
   -4.3527    0.2124   -3.4372 C   0  0  0  0  0  0  0  0  0  0  0  0
   -5.1807    0.0774   -4.1190 H   0  0  0  0  0  0  0  0  0  0  0  0
   -4.5923    0.6237   -2.1134 C   0  0  0  0  0  0  0  0  0  0  0  0
   -5.6031    0.8049   -1.7784 H   0  0  0  0  0  0  0  0  0  0  0  0
   -3.5146    0.8054   -1.2286 C   0  0  0  0  0  0  0  0  0  0  0  0
   -3.7001    1.1250   -0.2114 H   0  0  0  0  0  0  0  0  0  0  0  0
   -0.6196    0.1253    1.7539 C   0  0  0  0  0  0  0  0  0  0  0  0
    0.5216    0.0194    2.2054 O   0  0  0  0  0  0  0  0  0  0  0  0
   -1.6152    0.6924    2.4469 N   0  0  0  0  0  0  0  0  0  0  0  0
   -2.5345    0.6914    2.0318 H   0  0  0  0  0  0  0  0  0  0  0  0
   -1.4720    1.2390    3.7941 C   0  0  0  0  0  0  0  0  0  0  0  0
   -0.6345    1.9391    3.8219 H   0  0  0  0  0  0  0  0  0  0  0  0
   -2.3844    1.7580    4.0892 H   0  0  0  0  0  0  0  0  0  0  0  0
   -1.2733    0.4298    4.4995 H   0  0  0  0  0  0  0  0  0  0  0  0
  5  6  2  0  0  0  0
  5  7  1  0  0  0  0
  2  3  1  0  0  0  0
  2  4  1  0  0  0  0
  2  5  1  0  0  0  0
  1  2  1  0  0  0  0
 25 26  2  0  0  0  0
 25 27  1  0  0  0  0
 23 24  1  0  0  0  0
 21 22  1  0  0  0  0
 21 23  2  0  0  0  0
 19 20  1  0  0  0  0
 19 21  1  0  0  0  0
 17 18  1  0  0  0  0
 17 19  2  0  0  0  0
 15 16  1  0  0  0  0
 15 17  1  0  0  0  0
 14 15  2  0  0  0  0
 14 23  1  0  0  0  0
 11 12  1  0  0  0  0
 11 13  1  0  0  0  0
 11 14  1  0  0  0  0
  9 10  1  0  0  0  0
  9 11  1  0  0  0  0
  9 25  1  0  0  0  0
  7  8  1  0  0  0  0
  7  9  1  0  0  0  0
 29 30  1  0  0  0  0
 29 31  1  0  0  0  0
 29 32  1  0  0  0  0
 27 28  1  0  0  0  0
 27 29  1  0  0  0  0
M  END
$$$$
default_name
  -OEChem-02102213163D

 32 32  0     1  0  0  0  0  0999 V2000
   -3.8405   -3.7518    1.6252 H   0  0  0  0  0  0  0  0  0  0  0  0
   -3.7965   -2.8768    0.9782 C   0  0  0  0  0  0  0  0  0  0  0  0
   -4.5465   -2.1527    1.2902 H   0  0  0  0  0  0  0  0  0  0  0  0
   -3.9745   -3.1748   -0.0538 H   0  0  0  0  0  0  0  0  0  0  0  0
   -2.4245   -2.2537    1.0882 C   0  0  0  0  0  0  0  0  0  0  0  0
   -1.5805   -2.7478    1.8242 O   0  0  0  0  0  0  0  0  0  0  0  0
   -2.2045   -1.1637    0.3562 N   0  0  0  0  0  0  0  0  0  0  0  0
   -2.9595   -0.7907   -0.2008 H   0  0  0  0  0  0  0  0  0  0  0  0
   -0.9485   -0.4087    0.3482 C   0  0  1  0  0  0  0  0  0  0  0  0
   -0.1408   -1.0795    0.0507 H   0  0  0  0  0  0  0  0  0  0  0  0
   -1.0432    0.7243   -0.6879 C   0  0  0  0  0  0  0  0  0  0  0  0
   -1.1654    1.6741   -0.1654 H   0  0  0  0  0  0  0  0  0  0  0  0
   -0.1058    0.7746   -1.2439 H   0  0  0  0  0  0  0  0  0  0  0  0
   -2.1956    0.5722   -1.6625 C   0  0  0  0  0  0  0  0  0  0  0  0
   -2.0194   -0.1263   -2.8720 C   0  0  0  0  0  0  0  0  0  0  0  0
   -1.0531   -0.5398   -3.1242 H   0  0  0  0  0  0  0  0  0  0  0  0
   -3.1038   -0.2987   -3.7519 C   0  0  0  0  0  0  0  0  0  0  0  0
   -2.9657   -0.8332   -4.6813 H   0  0  0  0  0  0  0  0  0  0  0  0
   -4.3658    0.2248   -3.4236 C   0  0  0  0  0  0  0  0  0  0  0  0
   -5.1983    0.0943   -4.1007 H   0  0  0  0  0  0  0  0  0  0  0  0
   -4.5449    0.9246   -2.2164 C   0  0  0  0  0  0  0  0  0  0  0  0
   -5.5136    1.3318   -1.9664 H   0  0  0  0  0  0  0  0  0  0  0  0
   -3.4602    1.0997   -1.3388 C   0  0  0  0  0  0  0  0  0  0  0  0
   -3.5986    1.6411   -0.4120 H   0  0  0  0  0  0  0  0  0  0  0  0
   -0.6196    0.1253    1.7539 C   0  0  0  0  0  0  0  0  0  0  0  0
    0.5216    0.0194    2.2054 O   0  0  0  0  0  0  0  0  0  0  0  0
   -1.6152    0.6924    2.4469 N   0  0  0  0  0  0  0  0  0  0  0  0
   -2.5345    0.6914    2.0318 H   0  0  0  0  0  0  0  0  0  0  0  0
   -1.4720    1.2390    3.7941 C   0  0  0  0  0  0  0  0  0  0  0  0
   -0.6345    1.9391    3.8219 H   0  0  0  0  0  0  0  0  0  0  0  0
   -2.3844    1.7580    4.0892 H   0  0  0  0  0  0  0  0  0  0  0  0
   -1.2733    0.4298    4.4995 H   0  0  0  0  0  0  0  0  0  0  0  0
  5  6  2  0  0  0  0
  5  7  1  0  0  0  0
  2  3  1  0  0  0  0
  2  4  1  0  0  0  0
  2  5  1  0  0  0  0
  1  2  1  0  0  0  0
 25 26  2  0  0  0  0
 25 27  1  0  0  0  0
 23 24  1  0  0  0  0
 21 22  1  0  0  0  0
 21 23  2  0  0  0  0
 19 20  1  0  0  0  0
 19 21  1  0  0  0  0
 17 18  1  0  0  0  0
 17 19  2  0  0  0  0
 15 16  1  0  0  0  0
 15 17  1  0  0  0  0
 14 15  2  0  0  0  0
 14 23  1  0  0  0  0
 11 12  1  0  0  0  0
 11 13  1  0  0  0  0
 11 14  1  0  0  0  0
  9 10  1  0  0  0  0
  9 11  1  0  0  0  0
  9 25  1  0  0  0  0
  7  8  1  0  0  0  0
  7  9  1  0  0  0  0
 29 30  1  0  0  0  0
 29 31  1  0  0  0  0
 29 32  1  0  0  0  0
 27 28  1  0  0  0  0
 27 29  1  0  0  0  0
M  END
$$$$
default_name
  -OEChem-02102213163D

 32 32  0     1  0  0  0  0  0999 V2000
   -3.8405   -3.7518    1.6252 H   0  0  0  0  0  0  0  0  0  0  0  0
   -3.7965   -2.8768    0.9782 C   0  0  0  0  0  0  0  0  0  0  0  0
   -4.5465   -2.1527    1.2902 H   0  0  0  0  0  0  0  0  0  0  0  0
   -3.9745   -3.1748   -0.0538 H   0  0  0  0  0  0  0  0  0  0  0  0
   -2.4245   -2.2537    1.0882 C   0  0  0  0  0  0  0  0  0  0  0  0
   -1.5805   -2.7478    1.8242 O   0  0  0  0  0  0  0  0  0  0  0  0
   -2.2045   -1.1637    0.3562 N   0  0  0  0  0  0  0  0  0  0  0  0
   -2.9595   -0.7907   -0.2008 H   0  0  0  0  0  0  0  0  0  0  0  0
   -0.9485   -0.4087    0.3482 C   0  0  1  0  0  0  0  0  0  0  0  0
   -0.1408   -1.0795    0.0507 H   0  0  0  0  0  0  0  0  0  0  0  0
   -1.0432    0.7243   -0.6879 C   0  0  0  0  0  0  0  0  0  0  0  0
   -1.1654    1.6741   -0.1654 H   0  0  0  0  0  0  0  0  0  0  0  0
   -0.1058    0.7746   -1.2439 H   0  0  0  0  0  0  0  0  0  0  0  0
   -2.1956    0.5722   -1.6625 C   0  0  0  0  0  0  0  0  0  0  0  0
   -2.1286   -0.3720   -2.7045 C   0  0  0  0  0  0  0  0  0  0  0  0
   -1.2437   -0.9799   -2.8301 H   0  0  0  0  0  0  0  0  0  0  0  0
   -3.2183   -0.5361   -3.5794 C   0  0  0  0  0  0  0  0  0  0  0  0
   -3.1638   -1.2599   -4.3804 H   0  0  0  0  0  0  0  0  0  0  0  0
   -4.3768    0.2416   -3.4132 C   0  0  0  0  0  0  0  0  0  0  0  0
   -5.2131    0.1172   -4.0868 H   0  0  0  0  0  0  0  0  0  0  0  0
   -4.4464    1.1872   -2.3739 C   0  0  0  0  0  0  0  0  0  0  0  0
   -5.3347    1.7889   -2.2493 H   0  0  0  0  0  0  0  0  0  0  0  0
   -3.3560    1.3532   -1.5017 C   0  0  0  0  0  0  0  0  0  0  0  0
   -3.4095    2.0834   -0.7046 H   0  0  0  0  0  0  0  0  0  0  0  0
   -0.6196    0.1253    1.7539 C   0  0  0  0  0  0  0  0  0  0  0  0
    0.5216    0.0194    2.2054 O   0  0  0  0  0  0  0  0  0  0  0  0
   -1.6152    0.6924    2.4469 N   0  0  0  0  0  0  0  0  0  0  0  0
   -2.5345    0.6914    2.0318 H   0  0  0  0  0  0  0  0  0  0  0  0
   -1.4720    1.2390    3.7941 C   0  0  0  0  0  0  0  0  0  0  0  0
   -0.6345    1.9391    3.8219 H   0  0  0  0  0  0  0  0  0  0  0  0
   -2.3844    1.7580    4.0892 H   0  0  0  0  0  0  0  0  0  0  0  0
   -1.2733    0.4298    4.4995 H   0  0  0  0  0  0  0  0  0  0  0  0
  5  6  2  0  0  0  0
  5  7  1  0  0  0  0
  2  3  1  0  0  0  0
  2  4  1  0  0  0  0
  2  5  1  0  0  0  0
  1  2  1  0  0  0  0
 25 26  2  0  0  0  0
 25 27  1  0  0  0  0
 23 24  1  0  0  0  0
 21 22  1  0  0  0  0
 21 23  2  0  0  0  0
 19 20  1  0  0  0  0
 19 21  1  0  0  0  0
 17 18  1  0  0  0  0
 17 19  2  0  0  0  0
 15 16  1  0  0  0  0
 15 17  1  0  0  0  0
 14 15  2  0  0  0  0
 14 23  1  0  0  0  0
 11 12  1  0  0  0  0
 11 13  1  0  0  0  0
 11 14  1  0  0  0  0
  9 10  1  0  0  0  0
  9 11  1  0  0  0  0
  9 25  1  0  0  0  0
  7  8  1  0  0  0  0
  7  9  1  0  0  0  0
 29 30  1  0  0  0  0
 29 31  1  0  0  0  0
 29 32  1  0  0  0  0
 27 28  1  0  0  0  0
 27 29  1  0  0  0  0
M  END
$$$$
default_name
  -OEChem-02102213163D

 32 32  0     1  0  0  0  0  0999 V2000
   -3.8405   -3.7518    1.6252 H   0  0  0  0  0  0  0  0  0  0  0  0
   -3.7965   -2.8768    0.9782 C   0  0  0  0  0  0  0  0  0  0  0  0
   -4.5465   -2.1527    1.2902 H   0  0  0  0  0  0  0  0  0  0  0  0
   -3.9745   -3.1748   -0.0538 H   0  0  0  0  0  0  0  0  0  0  0  0
   -2.4245   -2.2537    1.0882 C   0  0  0  0  0  0  0  0  0  0  0  0
   -1.5805   -2.7478    1.8242 O   0  0  0  0  0  0  0  0  0  0  0  0
   -2.2045   -1.1637    0.3562 N   0  0  0  0  0  0  0  0  0  0  0  0
   -2.9595   -0.7907   -0.2008 H   0  0  0  0  0  0  0  0  0  0  0  0
   -0.9485   -0.4087    0.3482 C   0  0  1  0  0  0  0  0  0  0  0  0
   -0.1408   -1.0795    0.0507 H   0  0  0  0  0  0  0  0  0  0  0  0
   -1.0432    0.7243   -0.6879 C   0  0  0  0  0  0  0  0  0  0  0  0
   -1.1654    1.6741   -0.1654 H   0  0  0  0  0  0  0  0  0  0  0  0
   -0.1058    0.7746   -1.2439 H   0  0  0  0  0  0  0  0  0  0  0  0
   -2.1956    0.5722   -1.6625 C   0  0  0  0  0  0  0  0  0  0  0  0
   -2.2793   -0.5583   -2.4972 C   0  0  0  0  0  0  0  0  0  0  0  0
   -1.5087   -1.3155   -2.4644 H   0  0  0  0  0  0  0  0  0  0  0  0
   -3.3729   -0.7125   -3.3691 C   0  0  0  0  0  0  0  0  0  0  0  0
   -3.4340   -1.5801   -4.0110 H   0  0  0  0  0  0  0  0  0  0  0  0
   -4.3849    0.2617   -3.4067 C   0  0  0  0  0  0  0  0  0  0  0  0
   -5.2238    0.1444   -4.0783 H   0  0  0  0  0  0  0  0  0  0  0  0
   -4.3035    1.3934   -2.5751 C   0  0  0  0  0  0  0  0  0  0  0  0
   -5.0785    2.1450   -2.6078 H   0  0  0  0  0  0  0  0  0  0  0  0
   -3.2088    1.5488   -1.7062 C   0  0  0  0  0  0  0  0  0  0  0  0
   -3.1457    2.4215   -1.0693 H   0  0  0  0  0  0  0  0  0  0  0  0
   -0.6196    0.1253    1.7539 C   0  0  0  0  0  0  0  0  0  0  0  0
    0.5216    0.0194    2.2054 O   0  0  0  0  0  0  0  0  0  0  0  0
   -1.6152    0.6924    2.4469 N   0  0  0  0  0  0  0  0  0  0  0  0
   -2.5345    0.6914    2.0318 H   0  0  0  0  0  0  0  0  0  0  0  0
   -1.4720    1.2390    3.7941 C   0  0  0  0  0  0  0  0  0  0  0  0
   -0.6345    1.9391    3.8219 H   0  0  0  0  0  0  0  0  0  0  0  0
   -2.3844    1.7580    4.0892 H   0  0  0  0  0  0  0  0  0  0  0  0
   -1.2733    0.4298    4.4995 H   0  0  0  0  0  0  0  0  0  0  0  0
  5  6  2  0  0  0  0
  5  7  1  0  0  0  0
  2  3  1  0  0  0  0
  2  4  1  0  0  0  0
  2  5  1  0  0  0  0
  1  2  1  0  0  0  0
 25 26  2  0  0  0  0
 25 27  1  0  0  0  0
 23 24  1  0  0  0  0
 21 22  1  0  0  0  0
 21 23  2  0  0  0  0
 19 20  1  0  0  0  0
 19 21  1  0  0  0  0
 17 18  1  0  0  0  0
 17 19  2  0  0  0  0
 15 16  1  0  0  0  0
 15 17  1  0  0  0  0
 14 15  2  0  0  0  0
 14 23  1  0  0  0  0
 11 12  1  0  0  0  0
 11 13  1  0  0  0  0
 11 14  1  0  0  0  0
  9 10  1  0  0  0  0
  9 11  1  0  0  0  0
  9 25  1  0  0  0  0
  7  8  1  0  0  0  0
  7  9  1  0  0  0  0
 29 30  1  0  0  0  0
 29 31  1  0  0  0  0
 29 32  1  0  0  0  0
 27 28  1  0  0  0  0
 27 29  1  0  0  0  0
M  END
$$$$
default_name
  -OEChem-02102213163D

 32 32  0     1  0  0  0  0  0999 V2000
   -3.8405   -3.7518    1.6252 H   0  0  0  0  0  0  0  0  0  0  0  0
   -3.7965   -2.8768    0.9782 C   0  0  0  0  0  0  0  0  0  0  0  0
   -4.5465   -2.1527    1.2902 H   0  0  0  0  0  0  0  0  0  0  0  0
   -3.9745   -3.1748   -0.0538 H   0  0  0  0  0  0  0  0  0  0  0  0
   -2.4245   -2.2537    1.0882 C   0  0  0  0  0  0  0  0  0  0  0  0
   -1.5805   -2.7478    1.8242 O   0  0  0  0  0  0  0  0  0  0  0  0
   -2.2045   -1.1637    0.3562 N   0  0  0  0  0  0  0  0  0  0  0  0
   -2.9595   -0.7907   -0.2008 H   0  0  0  0  0  0  0  0  0  0  0  0
   -0.9485   -0.4087    0.3482 C   0  0  1  0  0  0  0  0  0  0  0  0
   -0.1408   -1.0795    0.0507 H   0  0  0  0  0  0  0  0  0  0  0  0
   -1.0432    0.7243   -0.6879 C   0  0  0  0  0  0  0  0  0  0  0  0
   -1.1654    1.6741   -0.1654 H   0  0  0  0  0  0  0  0  0  0  0  0
   -0.1058    0.7746   -1.2439 H   0  0  0  0  0  0  0  0  0  0  0  0
   -2.1956    0.5722   -1.6625 C   0  0  0  0  0  0  0  0  0  0  0  0
   -2.4613   -0.6724   -2.2642 C   0  0  0  0  0  0  0  0  0  0  0  0
   -1.8299   -1.5237   -2.0521 H   0  0  0  0  0  0  0  0  0  0  0  0
   -3.5570   -0.8157   -3.1353 C   0  0  0  0  0  0  0  0  0  0  0  0
   -3.7577   -1.7717   -3.5983 H   0  0  0  0  0  0  0  0  0  0  0  0
   -4.3895    0.2838   -3.4047 C   0  0  0  0  0  0  0  0  0  0  0  0
   -5.2300    0.1742   -4.0758 H   0  0  0  0  0  0  0  0  0  0  0  0
   -4.1259    1.5293   -2.8062 C   0  0  0  0  0  0  0  0  0  0  0  0
   -4.7626    2.3759   -3.0174 H   0  0  0  0  0  0  0  0  0  0  0  0
   -3.0289    1.6730   -1.9383 C   0  0  0  0  0  0  0  0  0  0  0  0
   -2.8252    2.6326   -1.4812 H   0  0  0  0  0  0  0  0  0  0  0  0
   -0.6196    0.1253    1.7539 C   0  0  0  0  0  0  0  0  0  0  0  0
    0.5216    0.0194    2.2054 O   0  0  0  0  0  0  0  0  0  0  0  0
   -1.6152    0.6924    2.4469 N   0  0  0  0  0  0  0  0  0  0  0  0
   -2.5345    0.6914    2.0318 H   0  0  0  0  0  0  0  0  0  0  0  0
   -1.4720    1.2390    3.7941 C   0  0  0  0  0  0  0  0  0  0  0  0
   -0.6345    1.9391    3.8219 H   0  0  0  0  0  0  0  0  0  0  0  0
   -2.3844    1.7580    4.0892 H   0  0  0  0  0  0  0  0  0  0  0  0
   -1.2733    0.4298    4.4995 H   0  0  0  0  0  0  0  0  0  0  0  0
  5  6  2  0  0  0  0
  5  7  1  0  0  0  0
  2  3  1  0  0  0  0
  2  4  1  0  0  0  0
  2  5  1  0  0  0  0
  1  2  1  0  0  0  0
 25 26  2  0  0  0  0
 25 27  1  0  0  0  0
 23 24  1  0  0  0  0
 21 22  1  0  0  0  0
 21 23  2  0  0  0  0
 19 20  1  0  0  0  0
 19 21  1  0  0  0  0
 17 18  1  0  0  0  0
 17 19  2  0  0  0  0
 15 16  1  0  0  0  0
 15 17  1  0  0  0  0
 14 15  2  0  0  0  0
 14 23  1  0  0  0  0
 11 12  1  0  0  0  0
 11 13  1  0  0  0  0
 11 14  1  0  0  0  0
  9 10  1  0  0  0  0
  9 11  1  0  0  0  0
  9 25  1  0  0  0  0
  7  8  1  0  0  0  0
  7  9  1  0  0  0  0
 29 30  1  0  0  0  0
 29 31  1  0  0  0  0
 29 32  1  0  0  0  0
 27 28  1  0  0  0  0
 27 29  1  0  0  0  0
M  END
$$$$
default_name
  -OEChem-02102213163D

 32 32  0     1  0  0  0  0  0999 V2000
   -3.8405   -3.7518    1.6252 H   0  0  0  0  0  0  0  0  0  0  0  0
   -3.7965   -2.8768    0.9782 C   0  0  0  0  0  0  0  0  0  0  0  0
   -4.5465   -2.1527    1.2902 H   0  0  0  0  0  0  0  0  0  0  0  0
   -3.9745   -3.1748   -0.0538 H   0  0  0  0  0  0  0  0  0  0  0  0
   -2.4245   -2.2537    1.0882 C   0  0  0  0  0  0  0  0  0  0  0  0
   -1.5805   -2.7478    1.8242 O   0  0  0  0  0  0  0  0  0  0  0  0
   -2.2045   -1.1637    0.3562 N   0  0  0  0  0  0  0  0  0  0  0  0
   -2.9595   -0.7907   -0.2008 H   0  0  0  0  0  0  0  0  0  0  0  0
   -0.9485   -0.4087    0.3482 C   0  0  1  0  0  0  0  0  0  0  0  0
   -0.1408   -1.0795    0.0507 H   0  0  0  0  0  0  0  0  0  0  0  0
   -1.0432    0.7243   -0.6879 C   0  0  0  0  0  0  0  0  0  0  0  0
   -1.1654    1.6741   -0.1654 H   0  0  0  0  0  0  0  0  0  0  0  0
   -0.1058    0.7746   -1.2439 H   0  0  0  0  0  0  0  0  0  0  0  0
   -2.1956    0.5722   -1.6625 C   0  0  0  0  0  0  0  0  0  0  0  0
   -2.6621   -0.7066   -2.0215 C   0  0  0  0  0  0  0  0  0  0  0  0
   -2.1855   -1.5903   -1.6212 H   0  0  0  0  0  0  0  0  0  0  0  0
   -3.7581   -0.8389   -2.8939 C   0  0  0  0  0  0  0  0  0  0  0  0
   -4.1130   -1.8218   -3.1703 H   0  0  0  0  0  0  0  0  0  0  0  0
   -4.3904    0.3063   -3.4072 C   0  0  0  0  0  0  0  0  0  0  0  0
   -5.2310    0.2045   -4.0793 H   0  0  0  0  0  0  0  0  0  0  0  0
   -3.9258    1.5856   -3.0516 C   0  0  0  0  0  0  0  0  0  0  0  0
   -4.4084    2.4659   -3.4503 H   0  0  0  0  0  0  0  0  0  0  0  0
   -2.8284    1.7175   -2.1823 C   0  0  0  0  0  0  0  0  0  0  0  0
   -2.4699    2.7023   -1.9122 H   0  0  0  0  0  0  0  0  0  0  0  0
   -0.6196    0.1253    1.7539 C   0  0  0  0  0  0  0  0  0  0  0  0
    0.5216    0.0194    2.2054 O   0  0  0  0  0  0  0  0  0  0  0  0
   -1.6152    0.6924    2.4469 N   0  0  0  0  0  0  0  0  0  0  0  0
   -2.5345    0.6914    2.0318 H   0  0  0  0  0  0  0  0  0  0  0  0
   -1.4720    1.2390    3.7941 C   0  0  0  0  0  0  0  0  0  0  0  0
   -0.6345    1.9391    3.8219 H   0  0  0  0  0  0  0  0  0  0  0  0
   -2.3844    1.7580    4.0892 H   0  0  0  0  0  0  0  0  0  0  0  0
   -1.2733    0.4298    4.4995 H   0  0  0  0  0  0  0  0  0  0  0  0
  5  6  2  0  0  0  0
  5  7  1  0  0  0  0
  2  3  1  0  0  0  0
  2  4  1  0  0  0  0
  2  5  1  0  0  0  0
  1  2  1  0  0  0  0
 25 26  2  0  0  0  0
 25 27  1  0  0  0  0
 23 24  1  0  0  0  0
 21 22  1  0  0  0  0
 21 23  2  0  0  0  0
 19 20  1  0  0  0  0
 19 21  1  0  0  0  0
 17 18  1  0  0  0  0
 17 19  2  0  0  0  0
 15 16  1  0  0  0  0
 15 17  1  0  0  0  0
 14 15  2  0  0  0  0
 14 23  1  0  0  0  0
 11 12  1  0  0  0  0
 11 13  1  0  0  0  0
 11 14  1  0  0  0  0
  9 10  1  0  0  0  0
  9 11  1  0  0  0  0
  9 25  1  0  0  0  0
  7  8  1  0  0  0  0
  7  9  1  0  0  0  0
 29 30  1  0  0  0  0
 29 31  1  0  0  0  0
 29 32  1  0  0  0  0
 27 28  1  0  0  0  0
 27 29  1  0  0  0  0
M  END
$$$$
default_name
  -OEChem-02102213163D

 32 32  0     1  0  0  0  0  0999 V2000
   -3.8405   -3.7518    1.6252 H   0  0  0  0  0  0  0  0  0  0  0  0
   -3.7965   -2.8768    0.9782 C   0  0  0  0  0  0  0  0  0  0  0  0
   -4.5465   -2.1527    1.2902 H   0  0  0  0  0  0  0  0  0  0  0  0
   -3.9745   -3.1748   -0.0538 H   0  0  0  0  0  0  0  0  0  0  0  0
   -2.4245   -2.2537    1.0882 C   0  0  0  0  0  0  0  0  0  0  0  0
   -1.5805   -2.7478    1.8242 O   0  0  0  0  0  0  0  0  0  0  0  0
   -2.2045   -1.1637    0.3562 N   0  0  0  0  0  0  0  0  0  0  0  0
   -2.9595   -0.7907   -0.2008 H   0  0  0  0  0  0  0  0  0  0  0  0
   -0.9485   -0.4087    0.3482 C   0  0  1  0  0  0  0  0  0  0  0  0
   -0.1408   -1.0795    0.0507 H   0  0  0  0  0  0  0  0  0  0  0  0
   -1.0432    0.7243   -0.6879 C   0  0  0  0  0  0  0  0  0  0  0  0
   -1.1654    1.6741   -0.1654 H   0  0  0  0  0  0  0  0  0  0  0  0
   -0.1058    0.7746   -1.2439 H   0  0  0  0  0  0  0  0  0  0  0  0
   -2.1956    0.5722   -1.6625 C   0  0  0  0  0  0  0  0  0  0  0  0
   -2.8680   -0.6585   -1.7855 C   0  0  0  0  0  0  0  0  0  0  0  0
   -2.5512   -1.5108   -1.2011 H   0  0  0  0  0  0  0  0  0  0  0  0
   -3.9624   -0.7804   -2.6614 C   0  0  0  0  0  0  0  0  0  0  0  0
   -4.4757   -1.7270   -2.7563 H   0  0  0  0  0  0  0  0  0  0  0  0
   -4.3875    0.3276   -3.4140 C   0  0  0  0  0  0  0  0  0  0  0  0
   -5.2268    0.2333   -4.0887 H   0  0  0  0  0  0  0  0  0  0  0  0
   -3.7168    1.5585   -3.2945 C   0  0  0  0  0  0  0  0  0  0  0  0
   -4.0400    2.4088   -3.8770 H   0  0  0  0  0  0  0  0  0  0  0  0
   -2.6211    1.6791   -2.4215 C   0  0  0  0  0  0  0  0  0  0  0  0
   -2.1039    2.6257   -2.3330 H   0  0  0  0  0  0  0  0  0  0  0  0
   -0.6196    0.1253    1.7539 C   0  0  0  0  0  0  0  0  0  0  0  0
    0.5216    0.0194    2.2054 O   0  0  0  0  0  0  0  0  0  0  0  0
   -1.6152    0.6924    2.4469 N   0  0  0  0  0  0  0  0  0  0  0  0
   -2.5345    0.6914    2.0318 H   0  0  0  0  0  0  0  0  0  0  0  0
   -1.4720    1.2390    3.7941 C   0  0  0  0  0  0  0  0  0  0  0  0
   -0.6345    1.9391    3.8219 H   0  0  0  0  0  0  0  0  0  0  0  0
   -2.3844    1.7580    4.0892 H   0  0  0  0  0  0  0  0  0  0  0  0
   -1.2733    0.4298    4.4995 H   0  0  0  0  0  0  0  0  0  0  0  0
  5  6  2  0  0  0  0
  5  7  1  0  0  0  0
  2  3  1  0  0  0  0
  2  4  1  0  0  0  0
  2  5  1  0  0  0  0
  1  2  1  0  0  0  0
 25 26  2  0  0  0  0
 25 27  1  0  0  0  0
 23 24  1  0  0  0  0
 21 22  1  0  0  0  0
 21 23  2  0  0  0  0
 19 20  1  0  0  0  0
 19 21  1  0  0  0  0
 17 18  1  0  0  0  0
 17 19  2  0  0  0  0
 15 16  1  0  0  0  0
 15 17  1  0  0  0  0
 14 15  2  0  0  0  0
 14 23  1  0  0  0  0
 11 12  1  0  0  0  0
 11 13  1  0  0  0  0
 11 14  1  0  0  0  0
  9 10  1  0  0  0  0
  9 11  1  0  0  0  0
  9 25  1  0  0  0  0
  7  8  1  0  0  0  0
  7  9  1  0  0  0  0
 29 30  1  0  0  0  0
 29 31  1  0  0  0  0
 29 32  1  0  0  0  0
 27 28  1  0  0  0  0
 27 29  1  0  0  0  0
M  END
$$$$
default_name
  -OEChem-02102213163D

 32 32  0     1  0  0  0  0  0999 V2000
   -3.8405   -3.7518    1.6252 H   0  0  0  0  0  0  0  0  0  0  0  0
   -3.7965   -2.8768    0.9782 C   0  0  0  0  0  0  0  0  0  0  0  0
   -4.5465   -2.1527    1.2902 H   0  0  0  0  0  0  0  0  0  0  0  0
   -3.9745   -3.1748   -0.0538 H   0  0  0  0  0  0  0  0  0  0  0  0
   -2.4245   -2.2537    1.0882 C   0  0  0  0  0  0  0  0  0  0  0  0
   -1.5805   -2.7478    1.8242 O   0  0  0  0  0  0  0  0  0  0  0  0
   -2.2045   -1.1637    0.3562 N   0  0  0  0  0  0  0  0  0  0  0  0
   -2.9595   -0.7907   -0.2008 H   0  0  0  0  0  0  0  0  0  0  0  0
   -0.9485   -0.4087    0.3482 C   0  0  1  0  0  0  0  0  0  0  0  0
   -0.1408   -1.0795    0.0507 H   0  0  0  0  0  0  0  0  0  0  0  0
   -1.0432    0.7243   -0.6879 C   0  0  0  0  0  0  0  0  0  0  0  0
   -1.1654    1.6741   -0.1654 H   0  0  0  0  0  0  0  0  0  0  0  0
   -0.1058    0.7746   -1.2439 H   0  0  0  0  0  0  0  0  0  0  0  0
   -2.1956    0.5722   -1.6625 C   0  0  0  0  0  0  0  0  0  0  0  0
   -3.0650   -0.5314   -1.5724 C   0  0  0  0  0  0  0  0  0  0  0  0
   -2.9022   -1.2906   -0.8205 H   0  0  0  0  0  0  0  0  0  0  0  0
   -4.1561   -0.6442   -2.4537 C   0  0  0  0  0  0  0  0  0  0  0  0
   -4.8209   -1.4937   -2.3845 H   0  0  0  0  0  0  0  0  0  0  0  0
   -4.3809    0.3464   -3.4247 C   0  0  0  0  0  0  0  0  0  0  0  0
   -5.2178    0.2585   -4.1033 H   0  0  0  0  0  0  0  0  0  0  0  0
   -3.5132    1.4497   -3.5184 C   0  0  0  0  0  0  0  0  0  0  0  0
   -3.6827    2.2084   -4.2683 H   0  0  0  0  0  0  0  0  0  0  0  0
   -2.4209    1.5605   -2.6397 C   0  0  0  0  0  0  0  0  0  0  0  0
   -1.7522    2.4081   -2.7150 H   0  0  0  0  0  0  0  0  0  0  0  0
   -0.6196    0.1253    1.7539 C   0  0  0  0  0  0  0  0  0  0  0  0
    0.5216    0.0194    2.2054 O   0  0  0  0  0  0  0  0  0  0  0  0
   -1.6152    0.6924    2.4469 N   0  0  0  0  0  0  0  0  0  0  0  0
   -2.5345    0.6914    2.0318 H   0  0  0  0  0  0  0  0  0  0  0  0
   -1.4720    1.2390    3.7941 C   0  0  0  0  0  0  0  0  0  0  0  0
   -0.6345    1.9391    3.8219 H   0  0  0  0  0  0  0  0  0  0  0  0
   -2.3844    1.7580    4.0892 H   0  0  0  0  0  0  0  0  0  0  0  0
   -1.2733    0.4298    4.4995 H   0  0  0  0  0  0  0  0  0  0  0  0
  5  6  2  0  0  0  0
  5  7  1  0  0  0  0
  2  3  1  0  0  0  0
  2  4  1  0  0  0  0
  2  5  1  0  0  0  0
  1  2  1  0  0  0  0
 25 26  2  0  0  0  0
 25 27  1  0  0  0  0
 23 24  1  0  0  0  0
 21 22  1  0  0  0  0
 21 23  2  0  0  0  0
 19 20  1  0  0  0  0
 19 21  1  0  0  0  0
 17 18  1  0  0  0  0
 17 19  2  0  0  0  0
 15 16  1  0  0  0  0
 15 17  1  0  0  0  0
 14 15  2  0  0  0  0
 14 23  1  0  0  0  0
 11 12  1  0  0  0  0
 11 13  1  0  0  0  0
 11 14  1  0  0  0  0
  9 10  1  0  0  0  0
  9 11  1  0  0  0  0
  9 25  1  0  0  0  0
  7  8  1  0  0  0  0
  7  9  1  0  0  0  0
 29 30  1  0  0  0  0
 29 31  1  0  0  0  0
 29 32  1  0  0  0  0
 27 28  1  0  0  0  0
 27 29  1  0  0  0  0
M  END
$$$$
default_name
  -OEChem-02102213163D

 32 32  0     1  0  0  0  0  0999 V2000
   -3.8405   -3.7518    1.6252 H   0  0  0  0  0  0  0  0  0  0  0  0
   -3.7965   -2.8768    0.9782 C   0  0  0  0  0  0  0  0  0  0  0  0
   -4.5465   -2.1527    1.2902 H   0  0  0  0  0  0  0  0  0  0  0  0
   -3.9745   -3.1748   -0.0538 H   0  0  0  0  0  0  0  0  0  0  0  0
   -2.4245   -2.2537    1.0882 C   0  0  0  0  0  0  0  0  0  0  0  0
   -1.5805   -2.7478    1.8242 O   0  0  0  0  0  0  0  0  0  0  0  0
   -2.2045   -1.1637    0.3562 N   0  0  0  0  0  0  0  0  0  0  0  0
   -2.9595   -0.7907   -0.2008 H   0  0  0  0  0  0  0  0  0  0  0  0
   -0.9485   -0.4087    0.3482 C   0  0  1  0  0  0  0  0  0  0  0  0
   -0.1408   -1.0795    0.0507 H   0  0  0  0  0  0  0  0  0  0  0  0
   -1.0432    0.7243   -0.6879 C   0  0  0  0  0  0  0  0  0  0  0  0
   -1.1654    1.6741   -0.1654 H   0  0  0  0  0  0  0  0  0  0  0  0
   -0.1058    0.7746   -1.2439 H   0  0  0  0  0  0  0  0  0  0  0  0
   -2.1956    0.5722   -1.6625 C   0  0  0  0  0  0  0  0  0  0  0  0
   -3.2397   -0.3339   -1.3966 C   0  0  0  0  0  0  0  0  0  0  0  0
   -3.2145   -0.9447   -0.5052 H   0  0  0  0  0  0  0  0  0  0  0  0
   -4.3259   -0.4395   -2.2848 C   0  0  0  0  0  0  0  0  0  0  0  0
   -5.1253   -1.1378   -2.0801 H   0  0  0  0  0  0  0  0  0  0  0  0
   -4.3711    0.3614   -3.4386 C   0  0  0  0  0  0  0  0  0  0  0  0
   -5.2045    0.2785   -4.1221 H   0  0  0  0  0  0  0  0  0  0  0  0
   -3.3287    1.2668   -3.7080 C   0  0  0  0  0  0  0  0  0  0  0  0
   -3.3607    1.8786   -4.5976 H   0  0  0  0  0  0  0  0  0  0  0  0
   -2.2417    1.3697   -2.8219 C   0  0  0  0  0  0  0  0  0  0  0  0
   -1.4387    2.0643   -3.0320 H   0  0  0  0  0  0  0  0  0  0  0  0
   -0.6196    0.1253    1.7539 C   0  0  0  0  0  0  0  0  0  0  0  0
    0.5216    0.0194    2.2054 O   0  0  0  0  0  0  0  0  0  0  0  0
   -1.6152    0.6924    2.4469 N   0  0  0  0  0  0  0  0  0  0  0  0
   -2.5345    0.6914    2.0318 H   0  0  0  0  0  0  0  0  0  0  0  0
   -1.4720    1.2390    3.7941 C   0  0  0  0  0  0  0  0  0  0  0  0
   -0.6345    1.9391    3.8219 H   0  0  0  0  0  0  0  0  0  0  0  0
   -2.3844    1.7580    4.0892 H   0  0  0  0  0  0  0  0  0  0  0  0
   -1.2733    0.4298    4.4995 H   0  0  0  0  0  0  0  0  0  0  0  0
  5  6  2  0  0  0  0
  5  7  1  0  0  0  0
  2  3  1  0  0  0  0
  2  4  1  0  0  0  0
  2  5  1  0  0  0  0
  1  2  1  0  0  0  0
 25 26  2  0  0  0  0
 25 27  1  0  0  0  0
 23 24  1  0  0  0  0
 21 22  1  0  0  0  0
 21 23  2  0  0  0  0
 19 20  1  0  0  0  0
 19 21  1  0  0  0  0
 17 18  1  0  0  0  0
 17 19  2  0  0  0  0
 15 16  1  0  0  0  0
 15 17  1  0  0  0  0
 14 15  2  0  0  0  0
 14 23  1  0  0  0  0
 11 12  1  0  0  0  0
 11 13  1  0  0  0  0
 11 14  1  0  0  0  0
  9 10  1  0  0  0  0
  9 11  1  0  0  0  0
  9 25  1  0  0  0  0
  7  8  1  0  0  0  0
  7  9  1  0  0  0  0
 29 30  1  0  0  0  0
 29 31  1  0  0  0  0
 29 32  1  0  0  0  0
 27 28  1  0  0  0  0
 27 29  1  0  0  0  0
M  END
$$$$
default_name
  -OEChem-02102213163D

 32 32  0     1  0  0  0  0  0999 V2000
   -3.8405   -3.7518    1.6252 H   0  0  0  0  0  0  0  0  0  0  0  0
   -3.7965   -2.8768    0.9782 C   0  0  0  0  0  0  0  0  0  0  0  0
   -4.5465   -2.1527    1.2902 H   0  0  0  0  0  0  0  0  0  0  0  0
   -3.9745   -3.1748   -0.0538 H   0  0  0  0  0  0  0  0  0  0  0  0
   -2.4245   -2.2537    1.0882 C   0  0  0  0  0  0  0  0  0  0  0  0
   -1.5805   -2.7478    1.8242 O   0  0  0  0  0  0  0  0  0  0  0  0
   -2.2045   -1.1637    0.3562 N   0  0  0  0  0  0  0  0  0  0  0  0
   -2.9595   -0.7907   -0.2008 H   0  0  0  0  0  0  0  0  0  0  0  0
   -0.9485   -0.4087    0.3482 C   0  0  1  0  0  0  0  0  0  0  0  0
   -0.1408   -1.0795    0.0507 H   0  0  0  0  0  0  0  0  0  0  0  0
   -1.0432    0.7243   -0.6879 C   0  0  0  0  0  0  0  0  0  0  0  0
   -1.1654    1.6741   -0.1654 H   0  0  0  0  0  0  0  0  0  0  0  0
   -0.1058    0.7746   -1.2439 H   0  0  0  0  0  0  0  0  0  0  0  0
   -2.1956    0.5722   -1.6625 C   0  0  0  0  0  0  0  0  0  0  0  0
   -3.3801   -0.0796   -1.2702 C   0  0  0  0  0  0  0  0  0  0  0  0
   -3.4667   -0.4966   -0.2768 H   0  0  0  0  0  0  0  0  0  0  0  0
   -4.4602   -0.1804   -2.1664 C   0  0  0  0  0  0  0  0  0  0  0  0
   -5.3679   -0.6836   -1.8640 H   0  0  0  0  0  0  0  0  0  0  0  0
   -4.3588    0.3715   -3.4547 C   0  0  0  0  0  0  0  0  0  0  0  0
   -5.1878    0.2919   -4.1439 H   0  0  0  0  0  0  0  0  0  0  0  0
   -3.1760    1.0221   -3.8504 C   0  0  0  0  0  0  0  0  0  0  0  0
   -3.0959    1.4417   -4.8425 H   0  0  0  0  0  0  0  0  0  0  0  0
   -2.0955    1.1199   -2.9557 C   0  0  0  0  0  0  0  0  0  0  0  0
   -1.1849    1.6178   -3.2625 H   0  0  0  0  0  0  0  0  0  0  0  0
   -0.6196    0.1253    1.7539 C   0  0  0  0  0  0  0  0  0  0  0  0
    0.5216    0.0194    2.2054 O   0  0  0  0  0  0  0  0  0  0  0  0
   -1.6152    0.6924    2.4469 N   0  0  0  0  0  0  0  0  0  0  0  0
   -2.5345    0.6914    2.0318 H   0  0  0  0  0  0  0  0  0  0  0  0
   -1.4720    1.2390    3.7941 C   0  0  0  0  0  0  0  0  0  0  0  0
   -0.6345    1.9391    3.8219 H   0  0  0  0  0  0  0  0  0  0  0  0
   -2.3844    1.7580    4.0892 H   0  0  0  0  0  0  0  0  0  0  0  0
   -1.2733    0.4298    4.4995 H   0  0  0  0  0  0  0  0  0  0  0  0
  5  6  2  0  0  0  0
  5  7  1  0  0  0  0
  2  3  1  0  0  0  0
  2  4  1  0  0  0  0
  2  5  1  0  0  0  0
  1  2  1  0  0  0  0
 25 26  2  0  0  0  0
 25 27  1  0  0  0  0
 23 24  1  0  0  0  0
 21 22  1  0  0  0  0
 21 23  2  0  0  0  0
 19 20  1  0  0  0  0
 19 21  1  0  0  0  0
 17 18  1  0  0  0  0
 17 19  2  0  0  0  0
 15 16  1  0  0  0  0
 15 17  1  0  0  0  0
 14 15  2  0  0  0  0
 14 23  1  0  0  0  0
 11 12  1  0  0  0  0
 11 13  1  0  0  0  0
 11 14  1  0  0  0  0
  9 10  1  0  0  0  0
  9 11  1  0  0  0  0
  9 25  1  0  0  0  0
  7  8  1  0  0  0  0
  7  9  1  0  0  0  0
 29 30  1  0  0  0  0
 29 31  1  0  0  0  0
 29 32  1  0  0  0  0
 27 28  1  0  0  0  0
 27 29  1  0  0  0  0
M  END
$$$$
default_name
  -OEChem-02102213163D

 32 32  0     1  0  0  0  0  0999 V2000
   -3.8405   -3.7518    1.6252 H   0  0  0  0  0  0  0  0  0  0  0  0
   -3.7965   -2.8768    0.9782 C   0  0  0  0  0  0  0  0  0  0  0  0
   -4.5465   -2.1527    1.2902 H   0  0  0  0  0  0  0  0  0  0  0  0
   -3.9745   -3.1748   -0.0538 H   0  0  0  0  0  0  0  0  0  0  0  0
   -2.4245   -2.2537    1.0882 C   0  0  0  0  0  0  0  0  0  0  0  0
   -1.5805   -2.7478    1.8242 O   0  0  0  0  0  0  0  0  0  0  0  0
   -2.2045   -1.1637    0.3562 N   0  0  0  0  0  0  0  0  0  0  0  0
   -2.9595   -0.7907   -0.2008 H   0  0  0  0  0  0  0  0  0  0  0  0
   -0.9485   -0.4087    0.3482 C   0  0  1  0  0  0  0  0  0  0  0  0
   -0.1408   -1.0795    0.0507 H   0  0  0  0  0  0  0  0  0  0  0  0
   -1.0432    0.7243   -0.6879 C   0  0  0  0  0  0  0  0  0  0  0  0
   -1.1654    1.6741   -0.1654 H   0  0  0  0  0  0  0  0  0  0  0  0
   -0.1058    0.7746   -1.2439 H   0  0  0  0  0  0  0  0  0  0  0  0
   -2.1956    0.5722   -1.6625 C   0  0  0  0  0  0  0  0  0  0  0  0
   -3.4768    0.2143   -1.2018 C   0  0  0  0  0  0  0  0  0  0  0  0
   -3.6418    0.0230   -0.1508 H   0  0  0  0  0  0  0  0  0  0  0  0
   -4.5500    0.1155   -2.1064 C   0  0  0  0  0  0  0  0  0  0  0  0
   -5.5325   -0.1620   -1.7509 H   0  0  0  0  0  0  0  0  0  0  0  0
   -4.3449    0.3760   -3.4719 C   0  0  0  0  0  0  0  0  0  0  0  0
   -5.1689    0.2978   -4.1672 H   0  0  0  0  0  0  0  0  0  0  0  0
   -3.0655    0.7324   -3.9358 C   0  0  0  0  0  0  0  0  0  0  0  0
   -2.9065    0.9274   -4.9862 H   0  0  0  0  0  0  0  0  0  0  0  0
   -1.9925    0.8279   -3.0320 C   0  0  0  0  0  0  0  0  0  0  0  0
   -1.0080    1.0990   -3.3907 H   0  0  0  0  0  0  0  0  0  0  0  0
   -0.6196    0.1253    1.7539 C   0  0  0  0  0  0  0  0  0  0  0  0
    0.5216    0.0194    2.2054 O   0  0  0  0  0  0  0  0  0  0  0  0
   -1.6152    0.6924    2.4469 N   0  0  0  0  0  0  0  0  0  0  0  0
   -2.5345    0.6914    2.0318 H   0  0  0  0  0  0  0  0  0  0  0  0
   -1.4720    1.2390    3.7941 C   0  0  0  0  0  0  0  0  0  0  0  0
   -0.6345    1.9391    3.8219 H   0  0  0  0  0  0  0  0  0  0  0  0
   -2.3844    1.7580    4.0892 H   0  0  0  0  0  0  0  0  0  0  0  0
   -1.2733    0.4298    4.4995 H   0  0  0  0  0  0  0  0  0  0  0  0
  5  6  2  0  0  0  0
  5  7  1  0  0  0  0
  2  3  1  0  0  0  0
  2  4  1  0  0  0  0
  2  5  1  0  0  0  0
  1  2  1  0  0  0  0
 25 26  2  0  0  0  0
 25 27  1  0  0  0  0
 23 24  1  0  0  0  0
 21 22  1  0  0  0  0
 21 23  2  0  0  0  0
 19 20  1  0  0  0  0
 19 21  1  0  0  0  0
 17 18  1  0  0  0  0
 17 19  2  0  0  0  0
 15 16  1  0  0  0  0
 15 17  1  0  0  0  0
 14 15  2  0  0  0  0
 14 23  1  0  0  0  0
 11 12  1  0  0  0  0
 11 13  1  0  0  0  0
 11 14  1  0  0  0  0
  9 10  1  0  0  0  0
  9 11  1  0  0  0  0
  9 25  1  0  0  0  0
  7  8  1  0  0  0  0
  7  9  1  0  0  0  0
 29 30  1  0  0  0  0
 29 31  1  0  0  0  0
 29 32  1  0  0  0  0
 27 28  1  0  0  0  0
 27 29  1  0  0  0  0
M  END
$$$$
default_name
  -OEChem-02102213163D

 32 32  0     1  0  0  0  0  0999 V2000
   -3.8405   -3.7518    1.6252 H   0  0  0  0  0  0  0  0  0  0  0  0
   -3.7965   -2.8768    0.9782 C   0  0  0  0  0  0  0  0  0  0  0  0
   -4.5465   -2.1527    1.2902 H   0  0  0  0  0  0  0  0  0  0  0  0
   -3.9745   -3.1748   -0.0538 H   0  0  0  0  0  0  0  0  0  0  0  0
   -2.4245   -2.2537    1.0882 C   0  0  0  0  0  0  0  0  0  0  0  0
   -1.5805   -2.7478    1.8242 O   0  0  0  0  0  0  0  0  0  0  0  0
   -2.2045   -1.1637    0.3562 N   0  0  0  0  0  0  0  0  0  0  0  0
   -2.9595   -0.7907   -0.2008 H   0  0  0  0  0  0  0  0  0  0  0  0
   -0.9485   -0.4087    0.3482 C   0  0  1  0  0  0  0  0  0  0  0  0
   -0.1408   -1.0795    0.0507 H   0  0  0  0  0  0  0  0  0  0  0  0
   -1.0432    0.7243   -0.6879 C   0  0  0  0  0  0  0  0  0  0  0  0
   -1.1654    1.6741   -0.1654 H   0  0  0  0  0  0  0  0  0  0  0  0
   -0.1058    0.7746   -1.2439 H   0  0  0  0  0  0  0  0  0  0  0  0
   -2.1956    0.5722   -1.6625 C   0  0  0  0  0  0  0  0  0  0  0  0
   -3.5231    0.5277   -1.1959 C   0  0  0  0  0  0  0  0  0  0  0  0
   -3.7278    0.5788   -0.1359 H   0  0  0  0  0  0  0  0  0  0  0  0
   -4.5891    0.4280   -2.1089 C   0  0  0  0  0  0  0  0  0  0  0  0
   -5.6076    0.3914   -1.7484 H   0  0  0  0  0  0  0  0  0  0  0  0
   -4.3302    0.3747   -3.4890 C   0  0  0  0  0  0  0  0  0  0  0  0
   -5.1491    0.2957   -4.1903 H   0  0  0  0  0  0  0  0  0  0  0  0
   -3.0048    0.4175   -3.9585 C   0  0  0  0  0  0  0  0  0  0  0  0
   -2.8053    0.3710   -5.0191 H   0  0  0  0  0  0  0  0  0  0  0  0
   -1.9394    0.5137   -3.0457 C   0  0  0  0  0  0  0  0  0  0  0  0
   -0.9200    0.5432   -3.4080 H   0  0  0  0  0  0  0  0  0  0  0  0
   -0.6196    0.1253    1.7539 C   0  0  0  0  0  0  0  0  0  0  0  0
    0.5216    0.0194    2.2054 O   0  0  0  0  0  0  0  0  0  0  0  0
   -1.6152    0.6924    2.4469 N   0  0  0  0  0  0  0  0  0  0  0  0
   -2.5345    0.6914    2.0318 H   0  0  0  0  0  0  0  0  0  0  0  0
   -1.4720    1.2390    3.7941 C   0  0  0  0  0  0  0  0  0  0  0  0
   -0.6345    1.9391    3.8219 H   0  0  0  0  0  0  0  0  0  0  0  0
   -2.3844    1.7580    4.0892 H   0  0  0  0  0  0  0  0  0  0  0  0
   -1.2733    0.4298    4.4995 H   0  0  0  0  0  0  0  0  0  0  0  0
  5  6  2  0  0  0  0
  5  7  1  0  0  0  0
  2  3  1  0  0  0  0
  2  4  1  0  0  0  0
  2  5  1  0  0  0  0
  1  2  1  0  0  0  0
 25 26  2  0  0  0  0
 25 27  1  0  0  0  0
 23 24  1  0  0  0  0
 21 22  1  0  0  0  0
 21 23  2  0  0  0  0
 19 20  1  0  0  0  0
 19 21  1  0  0  0  0
 17 18  1  0  0  0  0
 17 19  2  0  0  0  0
 15 16  1  0  0  0  0
 15 17  1  0  0  0  0
 14 15  2  0  0  0  0
 14 23  1  0  0  0  0
 11 12  1  0  0  0  0
 11 13  1  0  0  0  0
 11 14  1  0  0  0  0
  9 10  1  0  0  0  0
  9 11  1  0  0  0  0
  9 25  1  0  0  0  0
  7  8  1  0  0  0  0
  7  9  1  0  0  0  0
 29 30  1  0  0  0  0
 29 31  1  0  0  0  0
 29 32  1  0  0  0  0
 27 28  1  0  0  0  0
 27 29  1  0  0  0  0
M  END
$$$$
default_name
  -OEChem-02102213163D

 32 32  0     1  0  0  0  0  0999 V2000
   -3.8405   -3.7518    1.6252 H   0  0  0  0  0  0  0  0  0  0  0  0
   -3.7965   -2.8768    0.9782 C   0  0  0  0  0  0  0  0  0  0  0  0
   -4.5465   -2.1527    1.2902 H   0  0  0  0  0  0  0  0  0  0  0  0
   -3.9745   -3.1748   -0.0538 H   0  0  0  0  0  0  0  0  0  0  0  0
   -2.4245   -2.2537    1.0882 C   0  0  0  0  0  0  0  0  0  0  0  0
   -1.5805   -2.7478    1.8242 O   0  0  0  0  0  0  0  0  0  0  0  0
   -2.2045   -1.1637    0.3562 N   0  0  0  0  0  0  0  0  0  0  0  0
   -2.9595   -0.7907   -0.2008 H   0  0  0  0  0  0  0  0  0  0  0  0
   -0.9485   -0.4087    0.3482 C   0  0  1  0  0  0  0  0  0  0  0  0
   -0.1408   -1.0795    0.0507 H   0  0  0  0  0  0  0  0  0  0  0  0
   -1.0432    0.7243   -0.6879 C   0  0  0  0  0  0  0  0  0  0  0  0
   -1.1654    1.6741   -0.1654 H   0  0  0  0  0  0  0  0  0  0  0  0
   -0.1058    0.7746   -1.2439 H   0  0  0  0  0  0  0  0  0  0  0  0
   -2.1956    0.5722   -1.6625 C   0  0  0  0  0  0  0  0  0  0  0  0
   -3.5158    0.8392   -1.2531 C   0  0  0  0  0  0  0  0  0  0  0  0
   -3.7189    1.1330   -0.2329 H   0  0  0  0  0  0  0  0  0  0  0  0
   -4.5748    0.7359   -2.1739 C   0  0  0  0  0  0  0  0  0  0  0  0
   -5.5881    0.9389   -1.8568 H   0  0  0  0  0  0  0  0  0  0  0  0
   -4.3158    0.3676   -3.5050 C   0  0  0  0  0  0  0  0  0  0  0  0
   -5.1297    0.2859   -4.2117 H   0  0  0  0  0  0  0  0  0  0  0  0
   -2.9979    0.0986   -3.9169 C   0  0  0  0  0  0  0  0  0  0  0  0
   -2.7992   -0.1898   -4.9387 H   0  0  0  0  0  0  0  0  0  0  0  0
   -1.9401    0.1988   -2.9958 C   0  0  0  0  0  0  0  0  0  0  0  0
   -0.9271   -0.0117   -3.3131 H   0  0  0  0  0  0  0  0  0  0  0  0
   -0.6196    0.1253    1.7539 C   0  0  0  0  0  0  0  0  0  0  0  0
    0.5216    0.0194    2.2054 O   0  0  0  0  0  0  0  0  0  0  0  0
   -1.6152    0.6924    2.4469 N   0  0  0  0  0  0  0  0  0  0  0  0
   -2.5345    0.6914    2.0318 H   0  0  0  0  0  0  0  0  0  0  0  0
   -1.4720    1.2390    3.7941 C   0  0  0  0  0  0  0  0  0  0  0  0
   -0.6345    1.9391    3.8219 H   0  0  0  0  0  0  0  0  0  0  0  0
   -2.3844    1.7580    4.0892 H   0  0  0  0  0  0  0  0  0  0  0  0
   -1.2733    0.4298    4.4995 H   0  0  0  0  0  0  0  0  0  0  0  0
  5  6  2  0  0  0  0
  5  7  1  0  0  0  0
  2  3  1  0  0  0  0
  2  4  1  0  0  0  0
  2  5  1  0  0  0  0
  1  2  1  0  0  0  0
 25 26  2  0  0  0  0
 25 27  1  0  0  0  0
 23 24  1  0  0  0  0
 21 22  1  0  0  0  0
 21 23  2  0  0  0  0
 19 20  1  0  0  0  0
 19 21  1  0  0  0  0
 17 18  1  0  0  0  0
 17 19  2  0  0  0  0
 15 16  1  0  0  0  0
 15 17  1  0  0  0  0
 14 15  2  0  0  0  0
 14 23  1  0  0  0  0
 11 12  1  0  0  0  0
 11 13  1  0  0  0  0
 11 14  1  0  0  0  0
  9 10  1  0  0  0  0
  9 11  1  0  0  0  0
  9 25  1  0  0  0  0
  7  8  1  0  0  0  0
  7  9  1  0  0  0  0
 29 30  1  0  0  0  0
 29 31  1  0  0  0  0
 29 32  1  0  0  0  0
 27 28  1  0  0  0  0
 27 29  1  0  0  0  0
M  END
$$$$
default_name
  -OEChem-02102213163D

 32 32  0     1  0  0  0  0  0999 V2000
   -3.8405   -3.7518    1.6252 H   0  0  0  0  0  0  0  0  0  0  0  0
   -3.7965   -2.8768    0.9782 C   0  0  0  0  0  0  0  0  0  0  0  0
   -4.5465   -2.1527    1.2902 H   0  0  0  0  0  0  0  0  0  0  0  0
   -3.9745   -3.1748   -0.0538 H   0  0  0  0  0  0  0  0  0  0  0  0
   -2.4245   -2.2537    1.0882 C   0  0  0  0  0  0  0  0  0  0  0  0
   -1.5805   -2.7478    1.8242 O   0  0  0  0  0  0  0  0  0  0  0  0
   -2.2045   -1.1637    0.3562 N   0  0  0  0  0  0  0  0  0  0  0  0
   -2.9595   -0.7907   -0.2008 H   0  0  0  0  0  0  0  0  0  0  0  0
   -0.9485   -0.4087    0.3482 C   0  0  1  0  0  0  0  0  0  0  0  0
   -0.1408   -1.0795    0.0507 H   0  0  0  0  0  0  0  0  0  0  0  0
   -1.0432    0.7243   -0.6879 C   0  0  0  0  0  0  0  0  0  0  0  0
   -1.1654    1.6741   -0.1654 H   0  0  0  0  0  0  0  0  0  0  0  0
   -0.1058    0.7746   -1.2439 H   0  0  0  0  0  0  0  0  0  0  0  0
   -2.1956    0.5722   -1.6625 C   0  0  0  0  0  0  0  0  0  0  0  0
   -3.4555    1.1277   -1.3695 C   0  0  0  0  0  0  0  0  0  0  0  0
   -3.6155    1.6476   -0.4354 H   0  0  0  0  0  0  0  0  0  0  0  0
   -4.5081    1.0182   -2.2968 C   0  0  0  0  0  0  0  0  0  0  0  0
   -5.4755    1.4432   -2.0687 H   0  0  0  0  0  0  0  0  0  0  0  0
   -4.3026    0.3552   -3.5186 C   0  0  0  0  0  0  0  0  0  0  0  0
   -5.1120    0.2690   -4.2300 H   0  0  0  0  0  0  0  0  0  0  0  0
   -3.0453   -0.2023   -3.8139 C   0  0  0  0  0  0  0  0  0  0  0  0
   -2.8887   -0.7167   -4.7507 H   0  0  0  0  0  0  0  0  0  0  0  0
   -1.9945   -0.0956   -2.8856 C   0  0  0  0  0  0  0  0  0  0  0  0
   -1.0286   -0.5278   -3.1125 H   0  0  0  0  0  0  0  0  0  0  0  0
   -0.6196    0.1253    1.7539 C   0  0  0  0  0  0  0  0  0  0  0  0
    0.5216    0.0194    2.2054 O   0  0  0  0  0  0  0  0  0  0  0  0
   -1.6152    0.6924    2.4469 N   0  0  0  0  0  0  0  0  0  0  0  0
   -2.5345    0.6914    2.0318 H   0  0  0  0  0  0  0  0  0  0  0  0
   -1.4720    1.2390    3.7941 C   0  0  0  0  0  0  0  0  0  0  0  0
   -0.6345    1.9391    3.8219 H   0  0  0  0  0  0  0  0  0  0  0  0
   -2.3844    1.7580    4.0892 H   0  0  0  0  0  0  0  0  0  0  0  0
   -1.2733    0.4298    4.4995 H   0  0  0  0  0  0  0  0  0  0  0  0
  5  6  2  0  0  0  0
  5  7  1  0  0  0  0
  2  3  1  0  0  0  0
  2  4  1  0  0  0  0
  2  5  1  0  0  0  0
  1  2  1  0  0  0  0
 25 26  2  0  0  0  0
 25 27  1  0  0  0  0
 23 24  1  0  0  0  0
 21 22  1  0  0  0  0
 21 23  2  0  0  0  0
 19 20  1  0  0  0  0
 19 21  1  0  0  0  0
 17 18  1  0  0  0  0
 17 19  2  0  0  0  0
 15 16  1  0  0  0  0
 15 17  1  0  0  0  0
 14 15  2  0  0  0  0
 14 23  1  0  0  0  0
 11 12  1  0  0  0  0
 11 13  1  0  0  0  0
 11 14  1  0  0  0  0
  9 10  1  0  0  0  0
  9 11  1  0  0  0  0
  9 25  1  0  0  0  0
  7  8  1  0  0  0  0
  7  9  1  0  0  0  0
 29 30  1  0  0  0  0
 29 31  1  0  0  0  0
 29 32  1  0  0  0  0
 27 28  1  0  0  0  0
 27 29  1  0  0  0  0
M  END
$$$$
default_name
  -OEChem-02102213163D

 32 32  0     1  0  0  0  0  0999 V2000
   -3.8405   -3.7518    1.6252 H   0  0  0  0  0  0  0  0  0  0  0  0
   -3.7965   -2.8768    0.9782 C   0  0  0  0  0  0  0  0  0  0  0  0
   -4.5465   -2.1527    1.2902 H   0  0  0  0  0  0  0  0  0  0  0  0
   -3.9745   -3.1748   -0.0538 H   0  0  0  0  0  0  0  0  0  0  0  0
   -2.4245   -2.2537    1.0882 C   0  0  0  0  0  0  0  0  0  0  0  0
   -1.5805   -2.7478    1.8242 O   0  0  0  0  0  0  0  0  0  0  0  0
   -2.2045   -1.1637    0.3562 N   0  0  0  0  0  0  0  0  0  0  0  0
   -2.9595   -0.7907   -0.2008 H   0  0  0  0  0  0  0  0  0  0  0  0
   -0.9485   -0.4087    0.3482 C   0  0  1  0  0  0  0  0  0  0  0  0
   -0.1408   -1.0795    0.0507 H   0  0  0  0  0  0  0  0  0  0  0  0
   -1.0432    0.7243   -0.6879 C   0  0  0  0  0  0  0  0  0  0  0  0
   -1.1654    1.6741   -0.1654 H   0  0  0  0  0  0  0  0  0  0  0  0
   -0.1058    0.7746   -1.2439 H   0  0  0  0  0  0  0  0  0  0  0  0
   -2.1956    0.5722   -1.6625 C   0  0  0  0  0  0  0  0  0  0  0  0
   -3.3463    1.3735   -1.5370 C   0  0  0  0  0  0  0  0  0  0  0  0
   -3.4249    2.0877   -0.7295 H   0  0  0  0  0  0  0  0  0  0  0  0
   -4.3936    1.2556   -2.4692 C   0  0  0  0  0  0  0  0  0  0  0  0
   -5.2774    1.8700   -2.3695 H   0  0  0  0  0  0  0  0  0  0  0  0
   -4.2916    0.3384   -3.5290 C   0  0  0  0  0  0  0  0  0  0  0  0
   -5.0973    0.2462   -4.2438 H   0  0  0  0  0  0  0  0  0  0  0  0
   -3.1438   -0.4649   -3.6564 C   0  0  0  0  0  0  0  0  0  0  0  0
   -3.0676   -1.1738   -4.4678 H   0  0  0  0  0  0  0  0  0  0  0  0
   -2.0987   -0.3491   -2.7227 C   0  0  0  0  0  0  0  0  0  0  0  0
   -1.2177   -0.9700   -2.8199 H   0  0  0  0  0  0  0  0  0  0  0  0
   -0.6196    0.1253    1.7539 C   0  0  0  0  0  0  0  0  0  0  0  0
    0.5216    0.0194    2.2054 O   0  0  0  0  0  0  0  0  0  0  0  0
   -1.6152    0.6924    2.4469 N   0  0  0  0  0  0  0  0  0  0  0  0
   -2.5345    0.6914    2.0318 H   0  0  0  0  0  0  0  0  0  0  0  0
   -1.4720    1.2390    3.7941 C   0  0  0  0  0  0  0  0  0  0  0  0
   -0.6345    1.9391    3.8219 H   0  0  0  0  0  0  0  0  0  0  0  0
   -2.3844    1.7580    4.0892 H   0  0  0  0  0  0  0  0  0  0  0  0
   -1.2733    0.4298    4.4995 H   0  0  0  0  0  0  0  0  0  0  0  0
  5  6  2  0  0  0  0
  5  7  1  0  0  0  0
  2  3  1  0  0  0  0
  2  4  1  0  0  0  0
  2  5  1  0  0  0  0
  1  2  1  0  0  0  0
 25 26  2  0  0  0  0
 25 27  1  0  0  0  0
 23 24  1  0  0  0  0
 21 22  1  0  0  0  0
 21 23  2  0  0  0  0
 19 20  1  0  0  0  0
 19 21  1  0  0  0  0
 17 18  1  0  0  0  0
 17 19  2  0  0  0  0
 15 16  1  0  0  0  0
 15 17  1  0  0  0  0
 14 15  2  0  0  0  0
 14 23  1  0  0  0  0
 11 12  1  0  0  0  0
 11 13  1  0  0  0  0
 11 14  1  0  0  0  0
  9 10  1  0  0  0  0
  9 11  1  0  0  0  0
  9 25  1  0  0  0  0
  7  8  1  0  0  0  0
  7  9  1  0  0  0  0
 29 30  1  0  0  0  0
 29 31  1  0  0  0  0
 29 32  1  0  0  0  0
 27 28  1  0  0  0  0
 27 29  1  0  0  0  0
M  END
$$$$
default_name
  -OEChem-02102213163D

 32 32  0     1  0  0  0  0  0999 V2000
   -3.8405   -3.7518    1.6252 H   0  0  0  0  0  0  0  0  0  0  0  0
   -3.7965   -2.8768    0.9782 C   0  0  0  0  0  0  0  0  0  0  0  0
   -4.5465   -2.1527    1.2902 H   0  0  0  0  0  0  0  0  0  0  0  0
   -3.9745   -3.1748   -0.0538 H   0  0  0  0  0  0  0  0  0  0  0  0
   -2.4245   -2.2537    1.0882 C   0  0  0  0  0  0  0  0  0  0  0  0
   -1.5805   -2.7478    1.8242 O   0  0  0  0  0  0  0  0  0  0  0  0
   -2.2045   -1.1637    0.3562 N   0  0  0  0  0  0  0  0  0  0  0  0
   -2.9595   -0.7907   -0.2008 H   0  0  0  0  0  0  0  0  0  0  0  0
   -0.9485   -0.4087    0.3482 C   0  0  1  0  0  0  0  0  0  0  0  0
   -0.1408   -1.0795    0.0507 H   0  0  0  0  0  0  0  0  0  0  0  0
   -1.0432    0.7243   -0.6879 C   0  0  0  0  0  0  0  0  0  0  0  0
   -1.1654    1.6741   -0.1654 H   0  0  0  0  0  0  0  0  0  0  0  0
   -0.1058    0.7746   -1.2439 H   0  0  0  0  0  0  0  0  0  0  0  0
   -2.1956    0.5722   -1.6625 C   0  0  0  0  0  0  0  0  0  0  0  0
   -3.1956    1.5598   -1.7443 C   0  0  0  0  0  0  0  0  0  0  0  0
   -3.1599    2.4233   -1.0952 H   0  0  0  0  0  0  0  0  0  0  0  0
   -4.2390    1.4319   -2.6796 C   0  0  0  0  0  0  0  0  0  0  0  0
   -5.0073    2.1901   -2.7389 H   0  0  0  0  0  0  0  0  0  0  0  0
   -4.2835    0.3183   -3.5354 C   0  0  0  0  0  0  0  0  0  0  0  0
   -5.0865    0.2189   -4.2523 H   0  0  0  0  0  0  0  0  0  0  0  0
   -3.2867   -0.6711   -3.4553 C   0  0  0  0  0  0  0  0  0  0  0  0
   -3.3238   -1.5299   -4.1093 H   0  0  0  0  0  0  0  0  0  0  0  0
   -2.2459   -0.5447   -2.5182 C   0  0  0  0  0  0  0  0  0  0  0  0
   -1.4814   -1.3082   -2.4553 H   0  0  0  0  0  0  0  0  0  0  0  0
   -0.6196    0.1253    1.7539 C   0  0  0  0  0  0  0  0  0  0  0  0
    0.5216    0.0194    2.2054 O   0  0  0  0  0  0  0  0  0  0  0  0
   -1.6152    0.6924    2.4469 N   0  0  0  0  0  0  0  0  0  0  0  0
   -2.5345    0.6914    2.0318 H   0  0  0  0  0  0  0  0  0  0  0  0
   -1.4720    1.2390    3.7941 C   0  0  0  0  0  0  0  0  0  0  0  0
   -0.6345    1.9391    3.8219 H   0  0  0  0  0  0  0  0  0  0  0  0
   -2.3844    1.7580    4.0892 H   0  0  0  0  0  0  0  0  0  0  0  0
   -1.2733    0.4298    4.4995 H   0  0  0  0  0  0  0  0  0  0  0  0
  5  6  2  0  0  0  0
  5  7  1  0  0  0  0
  2  3  1  0  0  0  0
  2  4  1  0  0  0  0
  2  5  1  0  0  0  0
  1  2  1  0  0  0  0
 25 26  2  0  0  0  0
 25 27  1  0  0  0  0
 23 24  1  0  0  0  0
 21 22  1  0  0  0  0
 21 23  2  0  0  0  0
 19 20  1  0  0  0  0
 19 21  1  0  0  0  0
 17 18  1  0  0  0  0
 17 19  2  0  0  0  0
 15 16  1  0  0  0  0
 15 17  1  0  0  0  0
 14 15  2  0  0  0  0
 14 23  1  0  0  0  0
 11 12  1  0  0  0  0
 11 13  1  0  0  0  0
 11 14  1  0  0  0  0
  9 10  1  0  0  0  0
  9 11  1  0  0  0  0
  9 25  1  0  0  0  0
  7  8  1  0  0  0  0
  7  9  1  0  0  0  0
 29 30  1  0  0  0  0
 29 31  1  0  0  0  0
 29 32  1  0  0  0  0
 27 28  1  0  0  0  0
 27 29  1  0  0  0  0
M  END
$$$$
default_name
  -OEChem-02102213163D

 32 32  0     1  0  0  0  0  0999 V2000
   -3.8405   -3.7518    1.6252 H   0  0  0  0  0  0  0  0  0  0  0  0
   -3.7965   -2.8768    0.9782 C   0  0  0  0  0  0  0  0  0  0  0  0
   -4.5465   -2.1527    1.2902 H   0  0  0  0  0  0  0  0  0  0  0  0
   -3.9745   -3.1748   -0.0538 H   0  0  0  0  0  0  0  0  0  0  0  0
   -2.4245   -2.2537    1.0882 C   0  0  0  0  0  0  0  0  0  0  0  0
   -1.5805   -2.7478    1.8242 O   0  0  0  0  0  0  0  0  0  0  0  0
   -2.2045   -1.1637    0.3562 N   0  0  0  0  0  0  0  0  0  0  0  0
   -2.9595   -0.7907   -0.2008 H   0  0  0  0  0  0  0  0  0  0  0  0
   -0.9485   -0.4087    0.3482 C   0  0  1  0  0  0  0  0  0  0  0  0
   -0.1408   -1.0795    0.0507 H   0  0  0  0  0  0  0  0  0  0  0  0
   -1.0432    0.7243   -0.6879 C   0  0  0  0  0  0  0  0  0  0  0  0
   -1.1654    1.6741   -0.1654 H   0  0  0  0  0  0  0  0  0  0  0  0
   -0.1058    0.7746   -1.2439 H   0  0  0  0  0  0  0  0  0  0  0  0
   -2.1956    0.5722   -1.6625 C   0  0  0  0  0  0  0  0  0  0  0  0
   -3.0136    1.6739   -1.9772 C   0  0  0  0  0  0  0  0  0  0  0  0
   -2.8387    2.6315   -1.5076 H   0  0  0  0  0  0  0  0  0  0  0  0
   -4.0549    1.5352   -2.9134 C   0  0  0  0  0  0  0  0  0  0  0  0
   -4.6835    2.3817   -3.1517 H   0  0  0  0  0  0  0  0  0  0  0  0
   -4.2789    0.2962   -3.5375 C   0  0  0  0  0  0  0  0  0  0  0  0
   -5.0804    0.1891   -4.2549 H   0  0  0  0  0  0  0  0  0  0  0  0
   -3.4643   -0.8070   -3.2241 C   0  0  0  0  0  0  0  0  0  0  0  0
   -3.6397   -1.7608   -3.6997 H   0  0  0  0  0  0  0  0  0  0  0  0
   -2.4258   -0.6689   -2.2861 C   0  0  0  0  0  0  0  0  0  0  0  0
   -1.8019   -1.5193   -2.0434 H   0  0  0  0  0  0  0  0  0  0  0  0
   -0.6196    0.1253    1.7539 C   0  0  0  0  0  0  0  0  0  0  0  0
    0.5216    0.0194    2.2054 O   0  0  0  0  0  0  0  0  0  0  0  0
   -1.6152    0.6924    2.4469 N   0  0  0  0  0  0  0  0  0  0  0  0
   -2.5345    0.6914    2.0318 H   0  0  0  0  0  0  0  0  0  0  0  0
   -1.4720    1.2390    3.7941 C   0  0  0  0  0  0  0  0  0  0  0  0
   -0.6345    1.9391    3.8219 H   0  0  0  0  0  0  0  0  0  0  0  0
   -2.3844    1.7580    4.0892 H   0  0  0  0  0  0  0  0  0  0  0  0
   -1.2733    0.4298    4.4995 H   0  0  0  0  0  0  0  0  0  0  0  0
  5  6  2  0  0  0  0
  5  7  1  0  0  0  0
  2  3  1  0  0  0  0
  2  4  1  0  0  0  0
  2  5  1  0  0  0  0
  1  2  1  0  0  0  0
 25 26  2  0  0  0  0
 25 27  1  0  0  0  0
 23 24  1  0  0  0  0
 21 22  1  0  0  0  0
 21 23  2  0  0  0  0
 19 20  1  0  0  0  0
 19 21  1  0  0  0  0
 17 18  1  0  0  0  0
 17 19  2  0  0  0  0
 15 16  1  0  0  0  0
 15 17  1  0  0  0  0
 14 15  2  0  0  0  0
 14 23  1  0  0  0  0
 11 12  1  0  0  0  0
 11 13  1  0  0  0  0
 11 14  1  0  0  0  0
  9 10  1  0  0  0  0
  9 11  1  0  0  0  0
  9 25  1  0  0  0  0
  7  8  1  0  0  0  0
  7  9  1  0  0  0  0
 29 30  1  0  0  0  0
 29 31  1  0  0  0  0
 29 32  1  0  0  0  0
 27 28  1  0  0  0  0
 27 29  1  0  0  0  0
M  END
$$$$
default_name
  -OEChem-02102213163D

 32 32  0     1  0  0  0  0  0999 V2000
   -3.8405   -3.7518    1.6252 H   0  0  0  0  0  0  0  0  0  0  0  0
   -3.7965   -2.8768    0.9782 C   0  0  0  0  0  0  0  0  0  0  0  0
   -4.5465   -2.1527    1.2902 H   0  0  0  0  0  0  0  0  0  0  0  0
   -3.9745   -3.1748   -0.0538 H   0  0  0  0  0  0  0  0  0  0  0  0
   -2.4245   -2.2537    1.0882 C   0  0  0  0  0  0  0  0  0  0  0  0
   -1.5805   -2.7478    1.8242 O   0  0  0  0  0  0  0  0  0  0  0  0
   -2.2045   -1.1637    0.3562 N   0  0  0  0  0  0  0  0  0  0  0  0
   -2.9595   -0.7907   -0.2008 H   0  0  0  0  0  0  0  0  0  0  0  0
   -0.9485   -0.4087    0.3482 C   0  0  1  0  0  0  0  0  0  0  0  0
   -0.1408   -1.0795    0.0507 H   0  0  0  0  0  0  0  0  0  0  0  0
   -1.0432    0.7243   -0.6879 C   0  0  0  0  0  0  0  0  0  0  0  0
   -1.1654    1.6741   -0.1654 H   0  0  0  0  0  0  0  0  0  0  0  0
   -0.1058    0.7746   -1.2439 H   0  0  0  0  0  0  0  0  0  0  0  0
   -2.1956    0.5722   -1.6625 C   0  0  0  0  0  0  0  0  0  0  0  0
   -2.8128    1.7080   -2.2200 C   0  0  0  0  0  0  0  0  0  0  0  0
   -2.4831    2.6981   -1.9384 H   0  0  0  0  0  0  0  0  0  0  0  0
   -3.8538    1.5583   -3.1547 C   0  0  0  0  0  0  0  0  0  0  0  0
   -4.3282    2.4318   -3.5796 H   0  0  0  0  0  0  0  0  0  0  0  0
   -4.2780    0.2738   -3.5350 C   0  0  0  0  0  0  0  0  0  0  0  0
   -5.0794    0.1588   -4.2514 H   0  0  0  0  0  0  0  0  0  0  0  0
   -3.6644   -0.8633   -2.9787 C   0  0  0  0  0  0  0  0  0  0  0  0
   -3.9940   -1.8508   -3.2668 H   0  0  0  0  0  0  0  0  0  0  0  0
   -2.6263   -0.7134   -2.0421 C   0  0  0  0  0  0  0  0  0  0  0  0
   -2.1572   -1.5889   -1.6123 H   0  0  0  0  0  0  0  0  0  0  0  0
   -0.6196    0.1253    1.7539 C   0  0  0  0  0  0  0  0  0  0  0  0
    0.5216    0.0194    2.2054 O   0  0  0  0  0  0  0  0  0  0  0  0
   -1.6152    0.6924    2.4469 N   0  0  0  0  0  0  0  0  0  0  0  0
   -2.5345    0.6914    2.0318 H   0  0  0  0  0  0  0  0  0  0  0  0
   -1.4720    1.2390    3.7941 C   0  0  0  0  0  0  0  0  0  0  0  0
   -0.6345    1.9391    3.8219 H   0  0  0  0  0  0  0  0  0  0  0  0
   -2.3844    1.7580    4.0892 H   0  0  0  0  0  0  0  0  0  0  0  0
   -1.2733    0.4298    4.4995 H   0  0  0  0  0  0  0  0  0  0  0  0
  5  6  2  0  0  0  0
  5  7  1  0  0  0  0
  2  3  1  0  0  0  0
  2  4  1  0  0  0  0
  2  5  1  0  0  0  0
  1  2  1  0  0  0  0
 25 26  2  0  0  0  0
 25 27  1  0  0  0  0
 23 24  1  0  0  0  0
 21 22  1  0  0  0  0
 21 23  2  0  0  0  0
 19 20  1  0  0  0  0
 19 21  1  0  0  0  0
 17 18  1  0  0  0  0
 17 19  2  0  0  0  0
 15 16  1  0  0  0  0
 15 17  1  0  0  0  0
 14 15  2  0  0  0  0
 14 23  1  0  0  0  0
 11 12  1  0  0  0  0
 11 13  1  0  0  0  0
 11 14  1  0  0  0  0
  9 10  1  0  0  0  0
  9 11  1  0  0  0  0
  9 25  1  0  0  0  0
  7  8  1  0  0  0  0
  7  9  1  0  0  0  0
 29 30  1  0  0  0  0
 29 31  1  0  0  0  0
 29 32  1  0  0  0  0
 27 28  1  0  0  0  0
 27 29  1  0  0  0  0
M  END
$$$$
default_name
  -OEChem-02102213163D

 32 32  0     1  0  0  0  0  0999 V2000
   -3.8405   -3.7518    1.6252 H   0  0  0  0  0  0  0  0  0  0  0  0
   -3.7965   -2.8768    0.9782 C   0  0  0  0  0  0  0  0  0  0  0  0
   -4.5465   -2.1527    1.2902 H   0  0  0  0  0  0  0  0  0  0  0  0
   -3.9745   -3.1748   -0.0538 H   0  0  0  0  0  0  0  0  0  0  0  0
   -2.4245   -2.2537    1.0882 C   0  0  0  0  0  0  0  0  0  0  0  0
   -1.5805   -2.7478    1.8242 O   0  0  0  0  0  0  0  0  0  0  0  0
   -2.2045   -1.1637    0.3562 N   0  0  0  0  0  0  0  0  0  0  0  0
   -2.9595   -0.7907   -0.2008 H   0  0  0  0  0  0  0  0  0  0  0  0
   -0.9485   -0.4087    0.3482 C   0  0  1  0  0  0  0  0  0  0  0  0
   -0.1408   -1.0795    0.0507 H   0  0  0  0  0  0  0  0  0  0  0  0
   -1.0432    0.7243   -0.6879 C   0  0  0  0  0  0  0  0  0  0  0  0
   -1.1654    1.6741   -0.1654 H   0  0  0  0  0  0  0  0  0  0  0  0
   -0.1058    0.7746   -1.2439 H   0  0  0  0  0  0  0  0  0  0  0  0
   -2.1956    0.5722   -1.6625 C   0  0  0  0  0  0  0  0  0  0  0  0
   -2.6069    1.6599   -2.4559 C   0  0  0  0  0  0  0  0  0  0  0  0
   -2.1174    2.6186   -2.3585 H   0  0  0  0  0  0  0  0  0  0  0  0
   -3.6495    1.4998   -3.3872 C   0  0  0  0  0  0  0  0  0  0  0  0
   -3.9656    2.3370   -3.9937 H   0  0  0  0  0  0  0  0  0  0  0  0
   -4.2810    0.2524   -3.5282 C   0  0  0  0  0  0  0  0  0  0  0  0
   -5.0836    0.1301   -4.2420 H   0  0  0  0  0  0  0  0  0  0  0  0
   -3.8734   -0.8361   -2.7358 C   0  0  0  0  0  0  0  0  0  0  0  0
   -4.3623   -1.7936   -2.8401 H   0  0  0  0  0  0  0  0  0  0  0  0
   -2.8336   -0.6750   -1.8028 C   0  0  0  0  0  0  0  0  0  0  0  0
   -2.5232   -1.5123   -1.1915 H   0  0  0  0  0  0  0  0  0  0  0  0
   -0.6196    0.1253    1.7539 C   0  0  0  0  0  0  0  0  0  0  0  0
    0.5216    0.0194    2.2054 O   0  0  0  0  0  0  0  0  0  0  0  0
   -1.6152    0.6924    2.4469 N   0  0  0  0  0  0  0  0  0  0  0  0
   -2.5345    0.6914    2.0318 H   0  0  0  0  0  0  0  0  0  0  0  0
   -1.4720    1.2390    3.7941 C   0  0  0  0  0  0  0  0  0  0  0  0
   -0.6345    1.9391    3.8219 H   0  0  0  0  0  0  0  0  0  0  0  0
   -2.3844    1.7580    4.0892 H   0  0  0  0  0  0  0  0  0  0  0  0
   -1.2733    0.4298    4.4995 H   0  0  0  0  0  0  0  0  0  0  0  0
  5  6  2  0  0  0  0
  5  7  1  0  0  0  0
  2  3  1  0  0  0  0
  2  4  1  0  0  0  0
  2  5  1  0  0  0  0
  1  2  1  0  0  0  0
 25 26  2  0  0  0  0
 25 27  1  0  0  0  0
 23 24  1  0  0  0  0
 21 22  1  0  0  0  0
 21 23  2  0  0  0  0
 19 20  1  0  0  0  0
 19 21  1  0  0  0  0
 17 18  1  0  0  0  0
 17 19  2  0  0  0  0
 15 16  1  0  0  0  0
 15 17  1  0  0  0  0
 14 15  2  0  0  0  0
 14 23  1  0  0  0  0
 11 12  1  0  0  0  0
 11 13  1  0  0  0  0
 11 14  1  0  0  0  0
  9 10  1  0  0  0  0
  9 11  1  0  0  0  0
  9 25  1  0  0  0  0
  7  8  1  0  0  0  0
  7  9  1  0  0  0  0
 29 30  1  0  0  0  0
 29 31  1  0  0  0  0
 29 32  1  0  0  0  0
 27 28  1  0  0  0  0
 27 29  1  0  0  0  0
M  END
$$$$
default_name
  -OEChem-02102213163D

 32 32  0     1  0  0  0  0  0999 V2000
   -3.8405   -3.7518    1.6252 H   0  0  0  0  0  0  0  0  0  0  0  0
   -3.7965   -2.8768    0.9782 C   0  0  0  0  0  0  0  0  0  0  0  0
   -4.5465   -2.1527    1.2902 H   0  0  0  0  0  0  0  0  0  0  0  0
   -3.9745   -3.1748   -0.0538 H   0  0  0  0  0  0  0  0  0  0  0  0
   -2.4245   -2.2537    1.0882 C   0  0  0  0  0  0  0  0  0  0  0  0
   -1.5805   -2.7478    1.8242 O   0  0  0  0  0  0  0  0  0  0  0  0
   -2.2045   -1.1637    0.3562 N   0  0  0  0  0  0  0  0  0  0  0  0
   -2.9595   -0.7907   -0.2008 H   0  0  0  0  0  0  0  0  0  0  0  0
   -0.9485   -0.4087    0.3482 C   0  0  1  0  0  0  0  0  0  0  0  0
   -0.1408   -1.0795    0.0507 H   0  0  0  0  0  0  0  0  0  0  0  0
   -1.0432    0.7243   -0.6879 C   0  0  0  0  0  0  0  0  0  0  0  0
   -0.8968    1.6803   -0.1832 H   0  0  0  0  0  0  0  0  0  0  0  0
   -0.2357    0.6094   -1.4125 H   0  0  0  0  0  0  0  0  0  0  0  0
   -2.3699    0.7782   -1.4213 C   0  0  0  0  0  0  0  0  0  0  0  0
   -2.6043    1.7625   -2.4001 C   0  0  0  0  0  0  0  0  0  0  0  0
   -1.8465    2.5015   -2.6191 H   0  0  0  0  0  0  0  0  0  0  0  0
   -3.8218    1.7808   -3.1053 C   0  0  0  0  0  0  0  0  0  0  0  0
   -4.0008    2.5390   -3.8547 H   0  0  0  0  0  0  0  0  0  0  0  0
   -4.8056    0.8146   -2.8347 C   0  0  0  0  0  0  0  0  0  0  0  0
   -5.7419    0.8302   -3.3749 H   0  0  0  0  0  0  0  0  0  0  0  0
   -4.5752   -0.1694   -1.8562 C   0  0  0  0  0  0  0  0  0  0  0  0
   -5.3335   -0.9089   -1.6443 H   0  0  0  0  0  0  0  0  0  0  0  0
   -3.3597   -0.1854   -1.1493 C   0  0  0  0  0  0  0  0  0  0  0  0
   -3.1850   -0.9410   -0.3944 H   0  0  0  0  0  0  0  0  0  0  0  0
   -0.6196    0.1253    1.7539 C   0  0  0  0  0  0  0  0  0  0  0  0
    0.5216    0.0194    2.2054 O   0  0  0  0  0  0  0  0  0  0  0  0
   -1.6152    0.6924    2.4469 N   0  0  0  0  0  0  0  0  0  0  0  0
   -2.5345    0.6914    2.0318 H   0  0  0  0  0  0  0  0  0  0  0  0
   -1.4720    1.2390    3.7941 C   0  0  0  0  0  0  0  0  0  0  0  0
   -0.6345    1.9391    3.8219 H   0  0  0  0  0  0  0  0  0  0  0  0
   -2.3844    1.7580    4.0892 H   0  0  0  0  0  0  0  0  0  0  0  0
   -1.2733    0.4298    4.4995 H   0  0  0  0  0  0  0  0  0  0  0  0
  5  6  2  0  0  0  0
  5  7  1  0  0  0  0
  2  3  1  0  0  0  0
  2  4  1  0  0  0  0
  2  5  1  0  0  0  0
  1  2  1  0  0  0  0
 25 26  2  0  0  0  0
 25 27  1  0  0  0  0
 23 24  1  0  0  0  0
 21 22  1  0  0  0  0
 21 23  2  0  0  0  0
 19 20  1  0  0  0  0
 19 21  1  0  0  0  0
 17 18  1  0  0  0  0
 17 19  2  0  0  0  0
 15 16  1  0  0  0  0
 15 17  1  0  0  0  0
 14 15  2  0  0  0  0
 14 23  1  0  0  0  0
 11 12  1  0  0  0  0
 11 13  1  0  0  0  0
 11 14  1  0  0  0  0
  9 10  1  0  0  0  0
  9 11  1  0  0  0  0
  9 25  1  0  0  0  0
  7  8  1  0  0  0  0
  7  9  1  0  0  0  0
 29 30  1  0  0  0  0
 29 31  1  0  0  0  0
 29 32  1  0  0  0  0
 27 28  1  0  0  0  0
 27 29  1  0  0  0  0
M  END
$$$$
default_name
  -OEChem-02102213163D

 32 32  0     1  0  0  0  0  0999 V2000
   -3.8405   -3.7518    1.6252 H   0  0  0  0  0  0  0  0  0  0  0  0
   -3.7965   -2.8768    0.9782 C   0  0  0  0  0  0  0  0  0  0  0  0
   -4.5465   -2.1527    1.2902 H   0  0  0  0  0  0  0  0  0  0  0  0
   -3.9745   -3.1748   -0.0538 H   0  0  0  0  0  0  0  0  0  0  0  0
   -2.4245   -2.2537    1.0882 C   0  0  0  0  0  0  0  0  0  0  0  0
   -1.5805   -2.7478    1.8242 O   0  0  0  0  0  0  0  0  0  0  0  0
   -2.2045   -1.1637    0.3562 N   0  0  0  0  0  0  0  0  0  0  0  0
   -2.9595   -0.7907   -0.2008 H   0  0  0  0  0  0  0  0  0  0  0  0
   -0.9485   -0.4087    0.3482 C   0  0  1  0  0  0  0  0  0  0  0  0
   -0.1408   -1.0795    0.0507 H   0  0  0  0  0  0  0  0  0  0  0  0
   -1.0432    0.7243   -0.6879 C   0  0  0  0  0  0  0  0  0  0  0  0
   -0.8968    1.6803   -0.1832 H   0  0  0  0  0  0  0  0  0  0  0  0
   -0.2357    0.6094   -1.4125 H   0  0  0  0  0  0  0  0  0  0  0  0
   -2.3699    0.7782   -1.4213 C   0  0  0  0  0  0  0  0  0  0  0  0
   -2.5034    1.5376   -2.5992 C   0  0  0  0  0  0  0  0  0  0  0  0
   -1.6652    2.1064   -2.9762 H   0  0  0  0  0  0  0  0  0  0  0  0
   -3.7255    1.5497   -3.2965 C   0  0  0  0  0  0  0  0  0  0  0  0
   -3.8267    2.1355   -4.1993 H   0  0  0  0  0  0  0  0  0  0  0  0
   -4.8150    0.8016   -2.8188 C   0  0  0  0  0  0  0  0  0  0  0  0
   -5.7546    0.8128   -3.3532 H   0  0  0  0  0  0  0  0  0  0  0  0
   -4.6854    0.0429   -1.6413 C   0  0  0  0  0  0  0  0  0  0  0  0
   -5.5243   -0.5278   -1.2710 H   0  0  0  0  0  0  0  0  0  0  0  0
   -3.4649    0.0337   -0.9428 C   0  0  0  0  0  0  0  0  0  0  0  0
   -3.3675   -0.5478   -0.0352 H   0  0  0  0  0  0  0  0  0  0  0  0
   -0.6196    0.1253    1.7539 C   0  0  0  0  0  0  0  0  0  0  0  0
    0.5216    0.0194    2.2054 O   0  0  0  0  0  0  0  0  0  0  0  0
   -1.6152    0.6924    2.4469 N   0  0  0  0  0  0  0  0  0  0  0  0
   -2.5345    0.6914    2.0318 H   0  0  0  0  0  0  0  0  0  0  0  0
   -1.4720    1.2390    3.7941 C   0  0  0  0  0  0  0  0  0  0  0  0
   -0.6345    1.9391    3.8219 H   0  0  0  0  0  0  0  0  0  0  0  0
   -2.3844    1.7580    4.0892 H   0  0  0  0  0  0  0  0  0  0  0  0
   -1.2733    0.4298    4.4995 H   0  0  0  0  0  0  0  0  0  0  0  0
  5  6  2  0  0  0  0
  5  7  1  0  0  0  0
  2  3  1  0  0  0  0
  2  4  1  0  0  0  0
  2  5  1  0  0  0  0
  1  2  1  0  0  0  0
 25 26  2  0  0  0  0
 25 27  1  0  0  0  0
 23 24  1  0  0  0  0
 21 22  1  0  0  0  0
 21 23  2  0  0  0  0
 19 20  1  0  0  0  0
 19 21  1  0  0  0  0
 17 18  1  0  0  0  0
 17 19  2  0  0  0  0
 15 16  1  0  0  0  0
 15 17  1  0  0  0  0
 14 15  2  0  0  0  0
 14 23  1  0  0  0  0
 11 12  1  0  0  0  0
 11 13  1  0  0  0  0
 11 14  1  0  0  0  0
  9 10  1  0  0  0  0
  9 11  1  0  0  0  0
  9 25  1  0  0  0  0
  7  8  1  0  0  0  0
  7  9  1  0  0  0  0
 29 30  1  0  0  0  0
 29 31  1  0  0  0  0
 29 32  1  0  0  0  0
 27 28  1  0  0  0  0
 27 29  1  0  0  0  0
M  END
$$$$
default_name
  -OEChem-02102213163D

 32 32  0     1  0  0  0  0  0999 V2000
   -3.8405   -3.7518    1.6252 H   0  0  0  0  0  0  0  0  0  0  0  0
   -3.7965   -2.8768    0.9782 C   0  0  0  0  0  0  0  0  0  0  0  0
   -4.5465   -2.1527    1.2902 H   0  0  0  0  0  0  0  0  0  0  0  0
   -3.9745   -3.1748   -0.0538 H   0  0  0  0  0  0  0  0  0  0  0  0
   -2.4245   -2.2537    1.0882 C   0  0  0  0  0  0  0  0  0  0  0  0
   -1.5805   -2.7478    1.8242 O   0  0  0  0  0  0  0  0  0  0  0  0
   -2.2045   -1.1637    0.3562 N   0  0  0  0  0  0  0  0  0  0  0  0
   -2.9595   -0.7907   -0.2008 H   0  0  0  0  0  0  0  0  0  0  0  0
   -0.9485   -0.4087    0.3482 C   0  0  1  0  0  0  0  0  0  0  0  0
   -0.1408   -1.0795    0.0507 H   0  0  0  0  0  0  0  0  0  0  0  0
   -1.0432    0.7243   -0.6879 C   0  0  0  0  0  0  0  0  0  0  0  0
   -0.8968    1.6803   -0.1832 H   0  0  0  0  0  0  0  0  0  0  0  0
   -0.2357    0.6094   -1.4125 H   0  0  0  0  0  0  0  0  0  0  0  0
   -2.3699    0.7782   -1.4213 C   0  0  0  0  0  0  0  0  0  0  0  0
   -2.4359    1.2627   -2.7415 C   0  0  0  0  0  0  0  0  0  0  0  0
   -1.5428    1.6212   -3.2334 H   0  0  0  0  0  0  0  0  0  0  0  0
   -3.6632    1.2711   -3.4296 C   0  0  0  0  0  0  0  0  0  0  0  0
   -3.7122    1.6459   -4.4424 H   0  0  0  0  0  0  0  0  0  0  0  0
   -4.8255    0.7938   -2.8003 C   0  0  0  0  0  0  0  0  0  0  0  0
   -5.7688    0.8025   -3.3283 H   0  0  0  0  0  0  0  0  0  0  0  0
   -4.7632    0.3105   -1.4807 C   0  0  0  0  0  0  0  0  0  0  0  0
   -5.6576   -0.0514   -0.9949 H   0  0  0  0  0  0  0  0  0  0  0  0
   -3.5372    0.3052   -0.7921 C   0  0  0  0  0  0  0  0  0  0  0  0
   -3.4913   -0.0638    0.2243 H   0  0  0  0  0  0  0  0  0  0  0  0
   -0.6196    0.1253    1.7539 C   0  0  0  0  0  0  0  0  0  0  0  0
    0.5216    0.0194    2.2054 O   0  0  0  0  0  0  0  0  0  0  0  0
   -1.6152    0.6924    2.4469 N   0  0  0  0  0  0  0  0  0  0  0  0
   -2.5345    0.6914    2.0318 H   0  0  0  0  0  0  0  0  0  0  0  0
   -1.4720    1.2390    3.7941 C   0  0  0  0  0  0  0  0  0  0  0  0
   -0.6345    1.9391    3.8219 H   0  0  0  0  0  0  0  0  0  0  0  0
   -2.3844    1.7580    4.0892 H   0  0  0  0  0  0  0  0  0  0  0  0
   -1.2733    0.4298    4.4995 H   0  0  0  0  0  0  0  0  0  0  0  0
  5  6  2  0  0  0  0
  5  7  1  0  0  0  0
  2  3  1  0  0  0  0
  2  4  1  0  0  0  0
  2  5  1  0  0  0  0
  1  2  1  0  0  0  0
 25 26  2  0  0  0  0
 25 27  1  0  0  0  0
 23 24  1  0  0  0  0
 21 22  1  0  0  0  0
 21 23  2  0  0  0  0
 19 20  1  0  0  0  0
 19 21  1  0  0  0  0
 17 18  1  0  0  0  0
 17 19  2  0  0  0  0
 15 16  1  0  0  0  0
 15 17  1  0  0  0  0
 14 15  2  0  0  0  0
 14 23  1  0  0  0  0
 11 12  1  0  0  0  0
 11 13  1  0  0  0  0
 11 14  1  0  0  0  0
  9 10  1  0  0  0  0
  9 11  1  0  0  0  0
  9 25  1  0  0  0  0
  7  8  1  0  0  0  0
  7  9  1  0  0  0  0
 29 30  1  0  0  0  0
 29 31  1  0  0  0  0
 29 32  1  0  0  0  0
 27 28  1  0  0  0  0
 27 29  1  0  0  0  0
M  END
$$$$
default_name
  -OEChem-02102213163D

 32 32  0     1  0  0  0  0  0999 V2000
   -3.8405   -3.7518    1.6252 H   0  0  0  0  0  0  0  0  0  0  0  0
   -3.7965   -2.8768    0.9782 C   0  0  0  0  0  0  0  0  0  0  0  0
   -4.5465   -2.1527    1.2902 H   0  0  0  0  0  0  0  0  0  0  0  0
   -3.9745   -3.1748   -0.0538 H   0  0  0  0  0  0  0  0  0  0  0  0
   -2.4245   -2.2537    1.0882 C   0  0  0  0  0  0  0  0  0  0  0  0
   -1.5805   -2.7478    1.8242 O   0  0  0  0  0  0  0  0  0  0  0  0
   -2.2045   -1.1637    0.3562 N   0  0  0  0  0  0  0  0  0  0  0  0
   -2.9595   -0.7907   -0.2008 H   0  0  0  0  0  0  0  0  0  0  0  0
   -0.9485   -0.4087    0.3482 C   0  0  1  0  0  0  0  0  0  0  0  0
   -0.1408   -1.0795    0.0507 H   0  0  0  0  0  0  0  0  0  0  0  0
   -1.0432    0.7243   -0.6879 C   0  0  0  0  0  0  0  0  0  0  0  0
   -0.8968    1.6803   -0.1832 H   0  0  0  0  0  0  0  0  0  0  0  0
   -0.2357    0.6094   -1.4125 H   0  0  0  0  0  0  0  0  0  0  0  0
   -2.3699    0.7782   -1.4213 C   0  0  0  0  0  0  0  0  0  0  0  0
   -2.4065    0.9564   -2.8173 C   0  0  0  0  0  0  0  0  0  0  0  0
   -1.4876    1.0790   -3.3731 H   0  0  0  0  0  0  0  0  0  0  0  0
   -3.6391    0.9641   -3.4958 C   0  0  0  0  0  0  0  0  0  0  0  0
   -3.6651    1.1036   -4.5674 H   0  0  0  0  0  0  0  0  0  0  0  0
   -4.8364    0.7918   -2.7807 C   0  0  0  0  0  0  0  0  0  0  0  0
   -5.7836    0.8000   -3.3017 H   0  0  0  0  0  0  0  0  0  0  0  0
   -4.8035    0.6150   -1.3854 C   0  0  0  0  0  0  0  0  0  0  0  0
   -5.7241    0.4880   -0.8349 H   0  0  0  0  0  0  0  0  0  0  0  0
   -3.5717    0.6107   -0.7072 C   0  0  0  0  0  0  0  0  0  0  0  0
   -3.5479    0.4779    0.3666 H   0  0  0  0  0  0  0  0  0  0  0  0
   -0.6196    0.1253    1.7539 C   0  0  0  0  0  0  0  0  0  0  0  0
    0.5216    0.0194    2.2054 O   0  0  0  0  0  0  0  0  0  0  0  0
   -1.6152    0.6924    2.4469 N   0  0  0  0  0  0  0  0  0  0  0  0
   -2.5345    0.6914    2.0318 H   0  0  0  0  0  0  0  0  0  0  0  0
   -1.4720    1.2390    3.7941 C   0  0  0  0  0  0  0  0  0  0  0  0
   -0.6345    1.9391    3.8219 H   0  0  0  0  0  0  0  0  0  0  0  0
   -2.3844    1.7580    4.0892 H   0  0  0  0  0  0  0  0  0  0  0  0
   -1.2733    0.4298    4.4995 H   0  0  0  0  0  0  0  0  0  0  0  0
  5  6  2  0  0  0  0
  5  7  1  0  0  0  0
  2  3  1  0  0  0  0
  2  4  1  0  0  0  0
  2  5  1  0  0  0  0
  1  2  1  0  0  0  0
 25 26  2  0  0  0  0
 25 27  1  0  0  0  0
 23 24  1  0  0  0  0
 21 22  1  0  0  0  0
 21 23  2  0  0  0  0
 19 20  1  0  0  0  0
 19 21  1  0  0  0  0
 17 18  1  0  0  0  0
 17 19  2  0  0  0  0
 15 16  1  0  0  0  0
 15 17  1  0  0  0  0
 14 15  2  0  0  0  0
 14 23  1  0  0  0  0
 11 12  1  0  0  0  0
 11 13  1  0  0  0  0
 11 14  1  0  0  0  0
  9 10  1  0  0  0  0
  9 11  1  0  0  0  0
  9 25  1  0  0  0  0
  7  8  1  0  0  0  0
  7  9  1  0  0  0  0
 29 30  1  0  0  0  0
 29 31  1  0  0  0  0
 29 32  1  0  0  0  0
 27 28  1  0  0  0  0
 27 29  1  0  0  0  0
M  END
$$$$
default_name
  -OEChem-02102213163D

 32 32  0     1  0  0  0  0  0999 V2000
   -3.8405   -3.7518    1.6252 H   0  0  0  0  0  0  0  0  0  0  0  0
   -3.7965   -2.8768    0.9782 C   0  0  0  0  0  0  0  0  0  0  0  0
   -4.5465   -2.1527    1.2902 H   0  0  0  0  0  0  0  0  0  0  0  0
   -3.9745   -3.1748   -0.0538 H   0  0  0  0  0  0  0  0  0  0  0  0
   -2.4245   -2.2537    1.0882 C   0  0  0  0  0  0  0  0  0  0  0  0
   -1.5805   -2.7478    1.8242 O   0  0  0  0  0  0  0  0  0  0  0  0
   -2.2045   -1.1637    0.3562 N   0  0  0  0  0  0  0  0  0  0  0  0
   -2.9595   -0.7907   -0.2008 H   0  0  0  0  0  0  0  0  0  0  0  0
   -0.9485   -0.4087    0.3482 C   0  0  1  0  0  0  0  0  0  0  0  0
   -0.1408   -1.0795    0.0507 H   0  0  0  0  0  0  0  0  0  0  0  0
   -1.0432    0.7243   -0.6879 C   0  0  0  0  0  0  0  0  0  0  0  0
   -0.8968    1.6803   -0.1832 H   0  0  0  0  0  0  0  0  0  0  0  0
   -0.2357    0.6094   -1.4125 H   0  0  0  0  0  0  0  0  0  0  0  0
   -2.3699    0.7782   -1.4213 C   0  0  0  0  0  0  0  0  0  0  0  0
   -2.4170    0.6398   -2.8215 C   0  0  0  0  0  0  0  0  0  0  0  0
   -1.5034    0.5167   -3.3858 H   0  0  0  0  0  0  0  0  0  0  0  0
   -3.6549    0.6495   -3.4904 C   0  0  0  0  0  0  0  0  0  0  0  0
   -3.6887    0.5456   -4.5659 H   0  0  0  0  0  0  0  0  0  0  0  0
   -4.8471    0.7957   -2.7611 C   0  0  0  0  0  0  0  0  0  0  0  0
   -5.7980    0.8055   -3.2753 H   0  0  0  0  0  0  0  0  0  0  0  0
   -4.8034    0.9357   -1.3620 C   0  0  0  0  0  0  0  0  0  0  0  0
   -5.7194    1.0535   -0.8018 H   0  0  0  0  0  0  0  0  0  0  0  0
   -3.5660    0.9293   -0.6941 C   0  0  0  0  0  0  0  0  0  0  0  0
   -3.5336    1.0405    0.3820 H   0  0  0  0  0  0  0  0  0  0  0  0
   -0.6196    0.1253    1.7539 C   0  0  0  0  0  0  0  0  0  0  0  0
    0.5216    0.0194    2.2054 O   0  0  0  0  0  0  0  0  0  0  0  0
   -1.6152    0.6924    2.4469 N   0  0  0  0  0  0  0  0  0  0  0  0
   -2.5345    0.6914    2.0318 H   0  0  0  0  0  0  0  0  0  0  0  0
   -1.4720    1.2390    3.7941 C   0  0  0  0  0  0  0  0  0  0  0  0
   -0.6345    1.9391    3.8219 H   0  0  0  0  0  0  0  0  0  0  0  0
   -2.3844    1.7580    4.0892 H   0  0  0  0  0  0  0  0  0  0  0  0
   -1.2733    0.4298    4.4995 H   0  0  0  0  0  0  0  0  0  0  0  0
  5  6  2  0  0  0  0
  5  7  1  0  0  0  0
  2  3  1  0  0  0  0
  2  4  1  0  0  0  0
  2  5  1  0  0  0  0
  1  2  1  0  0  0  0
 25 26  2  0  0  0  0
 25 27  1  0  0  0  0
 23 24  1  0  0  0  0
 21 22  1  0  0  0  0
 21 23  2  0  0  0  0
 19 20  1  0  0  0  0
 19 21  1  0  0  0  0
 17 18  1  0  0  0  0
 17 19  2  0  0  0  0
 15 16  1  0  0  0  0
 15 17  1  0  0  0  0
 14 15  2  0  0  0  0
 14 23  1  0  0  0  0
 11 12  1  0  0  0  0
 11 13  1  0  0  0  0
 11 14  1  0  0  0  0
  9 10  1  0  0  0  0
  9 11  1  0  0  0  0
  9 25  1  0  0  0  0
  7  8  1  0  0  0  0
  7  9  1  0  0  0  0
 29 30  1  0  0  0  0
 29 31  1  0  0  0  0
 29 32  1  0  0  0  0
 27 28  1  0  0  0  0
 27 29  1  0  0  0  0
M  END
$$$$
default_name
  -OEChem-02102213163D

 32 32  0     1  0  0  0  0  0999 V2000
   -3.8405   -3.7518    1.6252 H   0  0  0  0  0  0  0  0  0  0  0  0
   -3.7965   -2.8768    0.9782 C   0  0  0  0  0  0  0  0  0  0  0  0
   -4.5465   -2.1527    1.2902 H   0  0  0  0  0  0  0  0  0  0  0  0
   -3.9745   -3.1748   -0.0538 H   0  0  0  0  0  0  0  0  0  0  0  0
   -2.4245   -2.2537    1.0882 C   0  0  0  0  0  0  0  0  0  0  0  0
   -1.5805   -2.7478    1.8242 O   0  0  0  0  0  0  0  0  0  0  0  0
   -2.2045   -1.1637    0.3562 N   0  0  0  0  0  0  0  0  0  0  0  0
   -2.9595   -0.7907   -0.2008 H   0  0  0  0  0  0  0  0  0  0  0  0
   -0.9485   -0.4087    0.3482 C   0  0  1  0  0  0  0  0  0  0  0  0
   -0.1408   -1.0795    0.0507 H   0  0  0  0  0  0  0  0  0  0  0  0
   -1.0432    0.7243   -0.6879 C   0  0  0  0  0  0  0  0  0  0  0  0
   -0.8968    1.6803   -0.1832 H   0  0  0  0  0  0  0  0  0  0  0  0
   -0.2357    0.6094   -1.4125 H   0  0  0  0  0  0  0  0  0  0  0  0
   -2.3699    0.7782   -1.4213 C   0  0  0  0  0  0  0  0  0  0  0  0
   -2.4669    0.3343   -2.7537 C   0  0  0  0  0  0  0  0  0  0  0  0
   -1.5892   -0.0273   -3.2706 H   0  0  0  0  0  0  0  0  0  0  0  0
   -3.7094    0.3489   -3.4139 C   0  0  0  0  0  0  0  0  0  0  0  0
   -3.7812    0.0100   -4.4378 H   0  0  0  0  0  0  0  0  0  0  0  0
   -4.8567    0.8051   -2.7430 C   0  0  0  0  0  0  0  0  0  0  0  0
   -5.8109    0.8185   -3.2509 H   0  0  0  0  0  0  0  0  0  0  0  0
   -4.7630    1.2509   -1.4120 C   0  0  0  0  0  0  0  0  0  0  0  0
   -5.6438    1.6067   -0.8979 H   0  0  0  0  0  0  0  0  0  0  0  0
   -3.5205    1.2393   -0.7536 C   0  0  0  0  0  0  0  0  0  0  0  0
   -3.4491    1.5856    0.2693 H   0  0  0  0  0  0  0  0  0  0  0  0
   -0.6196    0.1253    1.7539 C   0  0  0  0  0  0  0  0  0  0  0  0
    0.5216    0.0194    2.2054 O   0  0  0  0  0  0  0  0  0  0  0  0
   -1.6152    0.6924    2.4469 N   0  0  0  0  0  0  0  0  0  0  0  0
   -2.5345    0.6914    2.0318 H   0  0  0  0  0  0  0  0  0  0  0  0
   -1.4720    1.2390    3.7941 C   0  0  0  0  0  0  0  0  0  0  0  0
   -0.6345    1.9391    3.8219 H   0  0  0  0  0  0  0  0  0  0  0  0
   -2.3844    1.7580    4.0892 H   0  0  0  0  0  0  0  0  0  0  0  0
   -1.2733    0.4298    4.4995 H   0  0  0  0  0  0  0  0  0  0  0  0
  5  6  2  0  0  0  0
  5  7  1  0  0  0  0
  2  3  1  0  0  0  0
  2  4  1  0  0  0  0
  2  5  1  0  0  0  0
  1  2  1  0  0  0  0
 25 26  2  0  0  0  0
 25 27  1  0  0  0  0
 23 24  1  0  0  0  0
 21 22  1  0  0  0  0
 21 23  2  0  0  0  0
 19 20  1  0  0  0  0
 19 21  1  0  0  0  0
 17 18  1  0  0  0  0
 17 19  2  0  0  0  0
 15 16  1  0  0  0  0
 15 17  1  0  0  0  0
 14 15  2  0  0  0  0
 14 23  1  0  0  0  0
 11 12  1  0  0  0  0
 11 13  1  0  0  0  0
 11 14  1  0  0  0  0
  9 10  1  0  0  0  0
  9 11  1  0  0  0  0
  9 25  1  0  0  0  0
  7  8  1  0  0  0  0
  7  9  1  0  0  0  0
 29 30  1  0  0  0  0
 29 31  1  0  0  0  0
 29 32  1  0  0  0  0
 27 28  1  0  0  0  0
 27 29  1  0  0  0  0
M  END
$$$$
default_name
  -OEChem-02102213163D

 32 32  0     1  0  0  0  0  0999 V2000
   -3.8405   -3.7518    1.6252 H   0  0  0  0  0  0  0  0  0  0  0  0
   -3.7965   -2.8768    0.9782 C   0  0  0  0  0  0  0  0  0  0  0  0
   -4.5465   -2.1527    1.2902 H   0  0  0  0  0  0  0  0  0  0  0  0
   -3.9745   -3.1748   -0.0538 H   0  0  0  0  0  0  0  0  0  0  0  0
   -2.4245   -2.2537    1.0882 C   0  0  0  0  0  0  0  0  0  0  0  0
   -1.5805   -2.7478    1.8242 O   0  0  0  0  0  0  0  0  0  0  0  0
   -2.2045   -1.1637    0.3562 N   0  0  0  0  0  0  0  0  0  0  0  0
   -2.9595   -0.7907   -0.2008 H   0  0  0  0  0  0  0  0  0  0  0  0
   -0.9485   -0.4087    0.3482 C   0  0  1  0  0  0  0  0  0  0  0  0
   -0.1408   -1.0795    0.0507 H   0  0  0  0  0  0  0  0  0  0  0  0
   -1.0432    0.7243   -0.6879 C   0  0  0  0  0  0  0  0  0  0  0  0
   -0.8968    1.6803   -0.1832 H   0  0  0  0  0  0  0  0  0  0  0  0
   -0.2357    0.6094   -1.4125 H   0  0  0  0  0  0  0  0  0  0  0  0
   -2.3699    0.7782   -1.4213 C   0  0  0  0  0  0  0  0  0  0  0  0
   -2.5527    0.0608   -2.6187 C   0  0  0  0  0  0  0  0  0  0  0  0
   -1.7390   -0.5160   -3.0354 H   0  0  0  0  0  0  0  0  0  0  0  0
   -3.7990    0.0826   -3.2714 C   0  0  0  0  0  0  0  0  0  0  0  0
   -3.9365   -0.4669   -4.1921 H   0  0  0  0  0  0  0  0  0  0  0  0
   -4.8647    0.8196   -2.7275 C   0  0  0  0  0  0  0  0  0  0  0  0
   -5.8215    0.8383   -3.2302 H   0  0  0  0  0  0  0  0  0  0  0  0
   -4.6850    1.5389   -1.5319 C   0  0  0  0  0  0  0  0  0  0  0  0
   -5.5024    2.1098   -1.1166 H   0  0  0  0  0  0  0  0  0  0  0  0
   -3.4383    1.5195   -0.8817 C   0  0  0  0  0  0  0  0  0  0  0  0
   -3.3004    2.0760    0.0363 H   0  0  0  0  0  0  0  0  0  0  0  0
   -0.6196    0.1253    1.7539 C   0  0  0  0  0  0  0  0  0  0  0  0
    0.5216    0.0194    2.2054 O   0  0  0  0  0  0  0  0  0  0  0  0
   -1.6152    0.6924    2.4469 N   0  0  0  0  0  0  0  0  0  0  0  0
   -2.5345    0.6914    2.0318 H   0  0  0  0  0  0  0  0  0  0  0  0
   -1.4720    1.2390    3.7941 C   0  0  0  0  0  0  0  0  0  0  0  0
   -0.6345    1.9391    3.8219 H   0  0  0  0  0  0  0  0  0  0  0  0
   -2.3844    1.7580    4.0892 H   0  0  0  0  0  0  0  0  0  0  0  0
   -1.2733    0.4298    4.4995 H   0  0  0  0  0  0  0  0  0  0  0  0
  5  6  2  0  0  0  0
  5  7  1  0  0  0  0
  2  3  1  0  0  0  0
  2  4  1  0  0  0  0
  2  5  1  0  0  0  0
  1  2  1  0  0  0  0
 25 26  2  0  0  0  0
 25 27  1  0  0  0  0
 23 24  1  0  0  0  0
 21 22  1  0  0  0  0
 21 23  2  0  0  0  0
 19 20  1  0  0  0  0
 19 21  1  0  0  0  0
 17 18  1  0  0  0  0
 17 19  2  0  0  0  0
 15 16  1  0  0  0  0
 15 17  1  0  0  0  0
 14 15  2  0  0  0  0
 14 23  1  0  0  0  0
 11 12  1  0  0  0  0
 11 13  1  0  0  0  0
 11 14  1  0  0  0  0
  9 10  1  0  0  0  0
  9 11  1  0  0  0  0
  9 25  1  0  0  0  0
  7  8  1  0  0  0  0
  7  9  1  0  0  0  0
 29 30  1  0  0  0  0
 29 31  1  0  0  0  0
 29 32  1  0  0  0  0
 27 28  1  0  0  0  0
 27 29  1  0  0  0  0
M  END
$$$$
default_name
  -OEChem-02102213163D

 32 32  0     1  0  0  0  0  0999 V2000
   -3.8405   -3.7518    1.6252 H   0  0  0  0  0  0  0  0  0  0  0  0
   -3.7965   -2.8768    0.9782 C   0  0  0  0  0  0  0  0  0  0  0  0
   -4.5465   -2.1527    1.2902 H   0  0  0  0  0  0  0  0  0  0  0  0
   -3.9745   -3.1748   -0.0538 H   0  0  0  0  0  0  0  0  0  0  0  0
   -2.4245   -2.2537    1.0882 C   0  0  0  0  0  0  0  0  0  0  0  0
   -1.5805   -2.7478    1.8242 O   0  0  0  0  0  0  0  0  0  0  0  0
   -2.2045   -1.1637    0.3562 N   0  0  0  0  0  0  0  0  0  0  0  0
   -2.9595   -0.7907   -0.2008 H   0  0  0  0  0  0  0  0  0  0  0  0
   -0.9485   -0.4087    0.3482 C   0  0  1  0  0  0  0  0  0  0  0  0
   -0.1408   -1.0795    0.0507 H   0  0  0  0  0  0  0  0  0  0  0  0
   -1.0432    0.7243   -0.6879 C   0  0  0  0  0  0  0  0  0  0  0  0
   -0.8968    1.6803   -0.1832 H   0  0  0  0  0  0  0  0  0  0  0  0
   -0.2357    0.6094   -1.4125 H   0  0  0  0  0  0  0  0  0  0  0  0
   -2.3699    0.7782   -1.4213 C   0  0  0  0  0  0  0  0  0  0  0  0
   -2.6685   -0.1621   -2.4256 C   0  0  0  0  0  0  0  0  0  0  0  0
   -1.9428   -0.9160   -2.6963 H   0  0  0  0  0  0  0  0  0  0  0  0
   -3.9176   -0.1311   -3.0726 C   0  0  0  0  0  0  0  0  0  0  0  0
   -4.1438   -0.8525   -3.8453 H   0  0  0  0  0  0  0  0  0  0  0  0
   -4.8704    0.8381   -2.7158 C   0  0  0  0  0  0  0  0  0  0  0  0
   -5.8292    0.8633   -3.2146 H   0  0  0  0  0  0  0  0  0  0  0  0
   -4.5747    1.7801   -1.7137 C   0  0  0  0  0  0  0  0  0  0  0  0
   -5.3049    2.5286   -1.4431 H   0  0  0  0  0  0  0  0  0  0  0  0
   -3.3251    1.7510   -1.0696 C   0  0  0  0  0  0  0  0  0  0  0  0
   -3.0975    2.4784   -0.3012 H   0  0  0  0  0  0  0  0  0  0  0  0
   -0.6196    0.1253    1.7539 C   0  0  0  0  0  0  0  0  0  0  0  0
    0.5216    0.0194    2.2054 O   0  0  0  0  0  0  0  0  0  0  0  0
   -1.6152    0.6924    2.4469 N   0  0  0  0  0  0  0  0  0  0  0  0
   -2.5345    0.6914    2.0318 H   0  0  0  0  0  0  0  0  0  0  0  0
   -1.4720    1.2390    3.7941 C   0  0  0  0  0  0  0  0  0  0  0  0
   -0.6345    1.9391    3.8219 H   0  0  0  0  0  0  0  0  0  0  0  0
   -2.3844    1.7580    4.0892 H   0  0  0  0  0  0  0  0  0  0  0  0
   -1.2733    0.4298    4.4995 H   0  0  0  0  0  0  0  0  0  0  0  0
  5  6  2  0  0  0  0
  5  7  1  0  0  0  0
  2  3  1  0  0  0  0
  2  4  1  0  0  0  0
  2  5  1  0  0  0  0
  1  2  1  0  0  0  0
 25 26  2  0  0  0  0
 25 27  1  0  0  0  0
 23 24  1  0  0  0  0
 21 22  1  0  0  0  0
 21 23  2  0  0  0  0
 19 20  1  0  0  0  0
 19 21  1  0  0  0  0
 17 18  1  0  0  0  0
 17 19  2  0  0  0  0
 15 16  1  0  0  0  0
 15 17  1  0  0  0  0
 14 15  2  0  0  0  0
 14 23  1  0  0  0  0
 11 12  1  0  0  0  0
 11 13  1  0  0  0  0
 11 14  1  0  0  0  0
  9 10  1  0  0  0  0
  9 11  1  0  0  0  0
  9 25  1  0  0  0  0
  7  8  1  0  0  0  0
  7  9  1  0  0  0  0
 29 30  1  0  0  0  0
 29 31  1  0  0  0  0
 29 32  1  0  0  0  0
 27 28  1  0  0  0  0
 27 29  1  0  0  0  0
M  END
$$$$
default_name
  -OEChem-02102213163D

 32 32  0     1  0  0  0  0  0999 V2000
   -3.8405   -3.7518    1.6252 H   0  0  0  0  0  0  0  0  0  0  0  0
   -3.7965   -2.8768    0.9782 C   0  0  0  0  0  0  0  0  0  0  0  0
   -4.5465   -2.1527    1.2902 H   0  0  0  0  0  0  0  0  0  0  0  0
   -3.9745   -3.1748   -0.0538 H   0  0  0  0  0  0  0  0  0  0  0  0
   -2.4245   -2.2537    1.0882 C   0  0  0  0  0  0  0  0  0  0  0  0
   -1.5805   -2.7478    1.8242 O   0  0  0  0  0  0  0  0  0  0  0  0
   -2.2045   -1.1637    0.3562 N   0  0  0  0  0  0  0  0  0  0  0  0
   -2.9595   -0.7907   -0.2008 H   0  0  0  0  0  0  0  0  0  0  0  0
   -0.9485   -0.4087    0.3482 C   0  0  1  0  0  0  0  0  0  0  0  0
   -0.1408   -1.0795    0.0507 H   0  0  0  0  0  0  0  0  0  0  0  0
   -1.0432    0.7243   -0.6879 C   0  0  0  0  0  0  0  0  0  0  0  0
   -0.8968    1.6803   -0.1832 H   0  0  0  0  0  0  0  0  0  0  0  0
   -0.2357    0.6094   -1.4125 H   0  0  0  0  0  0  0  0  0  0  0  0
   -2.3699    0.7782   -1.4213 C   0  0  0  0  0  0  0  0  0  0  0  0
   -2.8065   -0.3192   -2.1875 C   0  0  0  0  0  0  0  0  0  0  0  0
   -2.1865   -1.2001   -2.2763 H   0  0  0  0  0  0  0  0  0  0  0  0
   -4.0570   -0.2777   -2.8312 C   0  0  0  0  0  0  0  0  0  0  0  0
   -4.3892   -1.1204   -3.4211 H   0  0  0  0  0  0  0  0  0  0  0  0
   -4.8735    0.8593   -2.7086 C   0  0  0  0  0  0  0  0  0  0  0  0
   -5.8332    0.8921   -3.2051 H   0  0  0  0  0  0  0  0  0  0  0  0
   -4.4396    1.9582   -1.9450 C   0  0  0  0  0  0  0  0  0  0  0  0
   -5.0648    2.8345   -1.8551 H   0  0  0  0  0  0  0  0  0  0  0  0
   -3.1884    1.9178   -1.3045 C   0  0  0  0  0  0  0  0  0  0  0  0
   -2.8543    2.7652   -0.7200 H   0  0  0  0  0  0  0  0  0  0  0  0
   -0.6196    0.1253    1.7539 C   0  0  0  0  0  0  0  0  0  0  0  0
    0.5216    0.0194    2.2054 O   0  0  0  0  0  0  0  0  0  0  0  0
   -1.6152    0.6924    2.4469 N   0  0  0  0  0  0  0  0  0  0  0  0
   -2.5345    0.6914    2.0318 H   0  0  0  0  0  0  0  0  0  0  0  0
   -1.4720    1.2390    3.7941 C   0  0  0  0  0  0  0  0  0  0  0  0
   -0.6345    1.9391    3.8219 H   0  0  0  0  0  0  0  0  0  0  0  0
   -2.3844    1.7580    4.0892 H   0  0  0  0  0  0  0  0  0  0  0  0
   -1.2733    0.4298    4.4995 H   0  0  0  0  0  0  0  0  0  0  0  0
  5  6  2  0  0  0  0
  5  7  1  0  0  0  0
  2  3  1  0  0  0  0
  2  4  1  0  0  0  0
  2  5  1  0  0  0  0
  1  2  1  0  0  0  0
 25 26  2  0  0  0  0
 25 27  1  0  0  0  0
 23 24  1  0  0  0  0
 21 22  1  0  0  0  0
 21 23  2  0  0  0  0
 19 20  1  0  0  0  0
 19 21  1  0  0  0  0
 17 18  1  0  0  0  0
 17 19  2  0  0  0  0
 15 16  1  0  0  0  0
 15 17  1  0  0  0  0
 14 15  2  0  0  0  0
 14 23  1  0  0  0  0
 11 12  1  0  0  0  0
 11 13  1  0  0  0  0
 11 14  1  0  0  0  0
  9 10  1  0  0  0  0
  9 11  1  0  0  0  0
  9 25  1  0  0  0  0
  7  8  1  0  0  0  0
  7  9  1  0  0  0  0
 29 30  1  0  0  0  0
 29 31  1  0  0  0  0
 29 32  1  0  0  0  0
 27 28  1  0  0  0  0
 27 29  1  0  0  0  0
M  END
$$$$
default_name
  -OEChem-02102213163D

 32 32  0     1  0  0  0  0  0999 V2000
   -3.8405   -3.7518    1.6252 H   0  0  0  0  0  0  0  0  0  0  0  0
   -3.7965   -2.8768    0.9782 C   0  0  0  0  0  0  0  0  0  0  0  0
   -4.5465   -2.1527    1.2902 H   0  0  0  0  0  0  0  0  0  0  0  0
   -3.9745   -3.1748   -0.0538 H   0  0  0  0  0  0  0  0  0  0  0  0
   -2.4245   -2.2537    1.0882 C   0  0  0  0  0  0  0  0  0  0  0  0
   -1.5805   -2.7478    1.8242 O   0  0  0  0  0  0  0  0  0  0  0  0
   -2.2045   -1.1637    0.3562 N   0  0  0  0  0  0  0  0  0  0  0  0
   -2.9595   -0.7907   -0.2008 H   0  0  0  0  0  0  0  0  0  0  0  0
   -0.9485   -0.4087    0.3482 C   0  0  1  0  0  0  0  0  0  0  0  0
   -0.1408   -1.0795    0.0507 H   0  0  0  0  0  0  0  0  0  0  0  0
   -1.0432    0.7243   -0.6879 C   0  0  0  0  0  0  0  0  0  0  0  0
   -0.8968    1.6803   -0.1832 H   0  0  0  0  0  0  0  0  0  0  0  0
   -0.2357    0.6094   -1.4125 H   0  0  0  0  0  0  0  0  0  0  0  0
   -2.3699    0.7782   -1.4213 C   0  0  0  0  0  0  0  0  0  0  0  0
   -2.9572   -0.3997   -1.9207 C   0  0  0  0  0  0  0  0  0  0  0  0
   -2.4536   -1.3490   -1.8040 H   0  0  0  0  0  0  0  0  0  0  0  0
   -4.2078   -0.3472   -2.5635 C   0  0  0  0  0  0  0  0  0  0  0  0
   -4.6558   -1.2525   -2.9485 H   0  0  0  0  0  0  0  0  0  0  0  0
   -4.8738    0.8818   -2.7064 C   0  0  0  0  0  0  0  0  0  0  0  0
   -5.8335    0.9225   -3.2024 H   0  0  0  0  0  0  0  0  0  0  0  0
   -4.2890    2.0610   -2.2099 C   0  0  0  0  0  0  0  0  0  0  0  0
   -4.7983    3.0066   -2.3245 H   0  0  0  0  0  0  0  0  0  0  0  0
   -3.0377    2.0087   -1.5704 C   0  0  0  0  0  0  0  0  0  0  0  0
   -2.5873    2.9171   -1.1919 H   0  0  0  0  0  0  0  0  0  0  0  0
   -0.6196    0.1253    1.7539 C   0  0  0  0  0  0  0  0  0  0  0  0
    0.5216    0.0194    2.2054 O   0  0  0  0  0  0  0  0  0  0  0  0
   -1.6152    0.6924    2.4469 N   0  0  0  0  0  0  0  0  0  0  0  0
   -2.5345    0.6914    2.0318 H   0  0  0  0  0  0  0  0  0  0  0  0
   -1.4720    1.2390    3.7941 C   0  0  0  0  0  0  0  0  0  0  0  0
   -0.6345    1.9391    3.8219 H   0  0  0  0  0  0  0  0  0  0  0  0
   -2.3844    1.7580    4.0892 H   0  0  0  0  0  0  0  0  0  0  0  0
   -1.2733    0.4298    4.4995 H   0  0  0  0  0  0  0  0  0  0  0  0
  5  6  2  0  0  0  0
  5  7  1  0  0  0  0
  2  3  1  0  0  0  0
  2  4  1  0  0  0  0
  2  5  1  0  0  0  0
  1  2  1  0  0  0  0
 25 26  2  0  0  0  0
 25 27  1  0  0  0  0
 23 24  1  0  0  0  0
 21 22  1  0  0  0  0
 21 23  2  0  0  0  0
 19 20  1  0  0  0  0
 19 21  1  0  0  0  0
 17 18  1  0  0  0  0
 17 19  2  0  0  0  0
 15 16  1  0  0  0  0
 15 17  1  0  0  0  0
 14 15  2  0  0  0  0
 14 23  1  0  0  0  0
 11 12  1  0  0  0  0
 11 13  1  0  0  0  0
 11 14  1  0  0  0  0
  9 10  1  0  0  0  0
  9 11  1  0  0  0  0
  9 25  1  0  0  0  0
  7  8  1  0  0  0  0
  7  9  1  0  0  0  0
 29 30  1  0  0  0  0
 29 31  1  0  0  0  0
 29 32  1  0  0  0  0
 27 28  1  0  0  0  0
 27 29  1  0  0  0  0
M  END
$$$$
default_name
  -OEChem-02102213163D

 32 32  0     1  0  0  0  0  0999 V2000
   -3.8405   -3.7518    1.6252 H   0  0  0  0  0  0  0  0  0  0  0  0
   -3.7965   -2.8768    0.9782 C   0  0  0  0  0  0  0  0  0  0  0  0
   -4.5465   -2.1527    1.2902 H   0  0  0  0  0  0  0  0  0  0  0  0
   -3.9745   -3.1748   -0.0538 H   0  0  0  0  0  0  0  0  0  0  0  0
   -2.4245   -2.2537    1.0882 C   0  0  0  0  0  0  0  0  0  0  0  0
   -1.5805   -2.7478    1.8242 O   0  0  0  0  0  0  0  0  0  0  0  0
   -2.2045   -1.1637    0.3562 N   0  0  0  0  0  0  0  0  0  0  0  0
   -2.9595   -0.7907   -0.2008 H   0  0  0  0  0  0  0  0  0  0  0  0
   -0.9485   -0.4087    0.3482 C   0  0  1  0  0  0  0  0  0  0  0  0
   -0.1408   -1.0795    0.0507 H   0  0  0  0  0  0  0  0  0  0  0  0
   -1.0432    0.7243   -0.6879 C   0  0  0  0  0  0  0  0  0  0  0  0
   -0.8968    1.6803   -0.1832 H   0  0  0  0  0  0  0  0  0  0  0  0
   -0.2357    0.6094   -1.4125 H   0  0  0  0  0  0  0  0  0  0  0  0
   -2.3699    0.7782   -1.4213 C   0  0  0  0  0  0  0  0  0  0  0  0
   -3.1105   -0.3983   -1.6434 C   0  0  0  0  0  0  0  0  0  0  0  0
   -2.7259   -1.3524   -1.3116 H   0  0  0  0  0  0  0  0  0  0  0  0
   -4.3597   -0.3349   -2.2878 C   0  0  0  0  0  0  0  0  0  0  0  0
   -4.9255   -1.2398   -2.4596 H   0  0  0  0  0  0  0  0  0  0  0  0
   -4.8712    0.9041   -2.7094 C   0  0  0  0  0  0  0  0  0  0  0  0
   -5.8299    0.9525   -3.2067 H   0  0  0  0  0  0  0  0  0  0  0  0
   -4.1331    2.0815   -2.4904 C   0  0  0  0  0  0  0  0  0  0  0  0
   -4.5237    3.0333   -2.8193 H   0  0  0  0  0  0  0  0  0  0  0  0
   -2.8832    2.0174   -1.8493 C   0  0  0  0  0  0  0  0  0  0  0  0
   -2.3148    2.9235   -1.6844 H   0  0  0  0  0  0  0  0  0  0  0  0
   -0.6196    0.1253    1.7539 C   0  0  0  0  0  0  0  0  0  0  0  0
    0.5216    0.0194    2.2054 O   0  0  0  0  0  0  0  0  0  0  0  0
   -1.6152    0.6924    2.4469 N   0  0  0  0  0  0  0  0  0  0  0  0
   -2.5345    0.6914    2.0318 H   0  0  0  0  0  0  0  0  0  0  0  0
   -1.4720    1.2390    3.7941 C   0  0  0  0  0  0  0  0  0  0  0  0
   -0.6345    1.9391    3.8219 H   0  0  0  0  0  0  0  0  0  0  0  0
   -2.3844    1.7580    4.0892 H   0  0  0  0  0  0  0  0  0  0  0  0
   -1.2733    0.4298    4.4995 H   0  0  0  0  0  0  0  0  0  0  0  0
  5  6  2  0  0  0  0
  5  7  1  0  0  0  0
  2  3  1  0  0  0  0
  2  4  1  0  0  0  0
  2  5  1  0  0  0  0
  1  2  1  0  0  0  0
 25 26  2  0  0  0  0
 25 27  1  0  0  0  0
 23 24  1  0  0  0  0
 21 22  1  0  0  0  0
 21 23  2  0  0  0  0
 19 20  1  0  0  0  0
 19 21  1  0  0  0  0
 17 18  1  0  0  0  0
 17 19  2  0  0  0  0
 15 16  1  0  0  0  0
 15 17  1  0  0  0  0
 14 15  2  0  0  0  0
 14 23  1  0  0  0  0
 11 12  1  0  0  0  0
 11 13  1  0  0  0  0
 11 14  1  0  0  0  0
  9 10  1  0  0  0  0
  9 11  1  0  0  0  0
  9 25  1  0  0  0  0
  7  8  1  0  0  0  0
  7  9  1  0  0  0  0
 29 30  1  0  0  0  0
 29 31  1  0  0  0  0
 29 32  1  0  0  0  0
 27 28  1  0  0  0  0
 27 29  1  0  0  0  0
M  END
$$$$
default_name
  -OEChem-02102213163D

 32 32  0     1  0  0  0  0  0999 V2000
   -3.8405   -3.7518    1.6252 H   0  0  0  0  0  0  0  0  0  0  0  0
   -3.7965   -2.8768    0.9782 C   0  0  0  0  0  0  0  0  0  0  0  0
   -4.5465   -2.1527    1.2902 H   0  0  0  0  0  0  0  0  0  0  0  0
   -3.9745   -3.1748   -0.0538 H   0  0  0  0  0  0  0  0  0  0  0  0
   -2.4245   -2.2537    1.0882 C   0  0  0  0  0  0  0  0  0  0  0  0
   -1.5805   -2.7478    1.8242 O   0  0  0  0  0  0  0  0  0  0  0  0
   -2.2045   -1.1637    0.3562 N   0  0  0  0  0  0  0  0  0  0  0  0
   -2.9595   -0.7907   -0.2008 H   0  0  0  0  0  0  0  0  0  0  0  0
   -0.9485   -0.4087    0.3482 C   0  0  1  0  0  0  0  0  0  0  0  0
   -0.1408   -1.0795    0.0507 H   0  0  0  0  0  0  0  0  0  0  0  0
   -1.0432    0.7243   -0.6879 C   0  0  0  0  0  0  0  0  0  0  0  0
   -0.8968    1.6803   -0.1832 H   0  0  0  0  0  0  0  0  0  0  0  0
   -0.2357    0.6094   -1.4125 H   0  0  0  0  0  0  0  0  0  0  0  0
   -2.3699    0.7782   -1.4213 C   0  0  0  0  0  0  0  0  0  0  0  0
   -3.2557   -0.3149   -1.3744 C   0  0  0  0  0  0  0  0  0  0  0  0
   -2.9848   -1.2102   -0.8328 H   0  0  0  0  0  0  0  0  0  0  0  0
   -4.5023   -0.2416   -2.0229 C   0  0  0  0  0  0  0  0  0  0  0  0
   -5.1799   -1.0831   -1.9878 H   0  0  0  0  0  0  0  0  0  0  0  0
   -4.8660    0.9246   -2.7174 C   0  0  0  0  0  0  0  0  0  0  0  0
   -5.8228    0.9800   -3.2176 H   0  0  0  0  0  0  0  0  0  0  0  0
   -3.9825    2.0182   -2.7675 C   0  0  0  0  0  0  0  0  0  0  0  0
   -4.2597    2.9127   -3.3058 H   0  0  0  0  0  0  0  0  0  0  0  0
   -2.7355    1.9434   -2.1220 C   0  0  0  0  0  0  0  0  0  0  0  0
   -2.0553    2.7842   -2.1641 H   0  0  0  0  0  0  0  0  0  0  0  0
   -0.6196    0.1253    1.7539 C   0  0  0  0  0  0  0  0  0  0  0  0
    0.5216    0.0194    2.2054 O   0  0  0  0  0  0  0  0  0  0  0  0
   -1.6152    0.6924    2.4469 N   0  0  0  0  0  0  0  0  0  0  0  0
   -2.5345    0.6914    2.0318 H   0  0  0  0  0  0  0  0  0  0  0  0
   -1.4720    1.2390    3.7941 C   0  0  0  0  0  0  0  0  0  0  0  0
   -0.6345    1.9391    3.8219 H   0  0  0  0  0  0  0  0  0  0  0  0
   -2.3844    1.7580    4.0892 H   0  0  0  0  0  0  0  0  0  0  0  0
   -1.2733    0.4298    4.4995 H   0  0  0  0  0  0  0  0  0  0  0  0
  5  6  2  0  0  0  0
  5  7  1  0  0  0  0
  2  3  1  0  0  0  0
  2  4  1  0  0  0  0
  2  5  1  0  0  0  0
  1  2  1  0  0  0  0
 25 26  2  0  0  0  0
 25 27  1  0  0  0  0
 23 24  1  0  0  0  0
 21 22  1  0  0  0  0
 21 23  2  0  0  0  0
 19 20  1  0  0  0  0
 19 21  1  0  0  0  0
 17 18  1  0  0  0  0
 17 19  2  0  0  0  0
 15 16  1  0  0  0  0
 15 17  1  0  0  0  0
 14 15  2  0  0  0  0
 14 23  1  0  0  0  0
 11 12  1  0  0  0  0
 11 13  1  0  0  0  0
 11 14  1  0  0  0  0
  9 10  1  0  0  0  0
  9 11  1  0  0  0  0
  9 25  1  0  0  0  0
  7  8  1  0  0  0  0
  7  9  1  0  0  0  0
 29 30  1  0  0  0  0
 29 31  1  0  0  0  0
 29 32  1  0  0  0  0
 27 28  1  0  0  0  0
 27 29  1  0  0  0  0
M  END
$$$$
default_name
  -OEChem-02102213163D

 32 32  0     1  0  0  0  0  0999 V2000
   -3.8405   -3.7518    1.6252 H   0  0  0  0  0  0  0  0  0  0  0  0
   -3.7965   -2.8768    0.9782 C   0  0  0  0  0  0  0  0  0  0  0  0
   -4.5465   -2.1527    1.2902 H   0  0  0  0  0  0  0  0  0  0  0  0
   -3.9745   -3.1748   -0.0538 H   0  0  0  0  0  0  0  0  0  0  0  0
   -2.4245   -2.2537    1.0882 C   0  0  0  0  0  0  0  0  0  0  0  0
   -1.5805   -2.7478    1.8242 O   0  0  0  0  0  0  0  0  0  0  0  0
   -2.2045   -1.1637    0.3562 N   0  0  0  0  0  0  0  0  0  0  0  0
   -2.9595   -0.7907   -0.2008 H   0  0  0  0  0  0  0  0  0  0  0  0
   -0.9485   -0.4087    0.3482 C   0  0  1  0  0  0  0  0  0  0  0  0
   -0.1408   -1.0795    0.0507 H   0  0  0  0  0  0  0  0  0  0  0  0
   -1.0432    0.7243   -0.6879 C   0  0  0  0  0  0  0  0  0  0  0  0
   -0.8968    1.6803   -0.1832 H   0  0  0  0  0  0  0  0  0  0  0  0
   -0.2357    0.6094   -1.4125 H   0  0  0  0  0  0  0  0  0  0  0  0
   -2.3699    0.7782   -1.4213 C   0  0  0  0  0  0  0  0  0  0  0  0
   -3.3832   -0.1554   -1.1321 C   0  0  0  0  0  0  0  0  0  0  0  0
   -3.2127   -0.9321   -0.4001 H   0  0  0  0  0  0  0  0  0  0  0  0
   -4.6260   -0.0736   -1.7869 C   0  0  0  0  0  0  0  0  0  0  0  0
   -5.4017   -0.7931   -1.5652 H   0  0  0  0  0  0  0  0  0  0  0  0
   -4.8585    0.9420   -2.7298 C   0  0  0  0  0  0  0  0  0  0  0  0
   -5.8125    1.0033   -3.2345 H   0  0  0  0  0  0  0  0  0  0  0  0
   -3.8476    1.8756   -3.0222 C   0  0  0  0  0  0  0  0  0  0  0  0
   -4.0242    2.6530   -3.7509 H   0  0  0  0  0  0  0  0  0  0  0  0
   -2.6045    1.7917   -2.3701 C   0  0  0  0  0  0  0  0  0  0  0  0
   -1.8265    2.5085   -2.5984 H   0  0  0  0  0  0  0  0  0  0  0  0
   -0.6196    0.1253    1.7539 C   0  0  0  0  0  0  0  0  0  0  0  0
    0.5216    0.0194    2.2054 O   0  0  0  0  0  0  0  0  0  0  0  0
   -1.6152    0.6924    2.4469 N   0  0  0  0  0  0  0  0  0  0  0  0
   -2.5345    0.6914    2.0318 H   0  0  0  0  0  0  0  0  0  0  0  0
   -1.4720    1.2390    3.7941 C   0  0  0  0  0  0  0  0  0  0  0  0
   -0.6345    1.9391    3.8219 H   0  0  0  0  0  0  0  0  0  0  0  0
   -2.3844    1.7580    4.0892 H   0  0  0  0  0  0  0  0  0  0  0  0
   -1.2733    0.4298    4.4995 H   0  0  0  0  0  0  0  0  0  0  0  0
  5  6  2  0  0  0  0
  5  7  1  0  0  0  0
  2  3  1  0  0  0  0
  2  4  1  0  0  0  0
  2  5  1  0  0  0  0
  1  2  1  0  0  0  0
 25 26  2  0  0  0  0
 25 27  1  0  0  0  0
 23 24  1  0  0  0  0
 21 22  1  0  0  0  0
 21 23  2  0  0  0  0
 19 20  1  0  0  0  0
 19 21  1  0  0  0  0
 17 18  1  0  0  0  0
 17 19  2  0  0  0  0
 15 16  1  0  0  0  0
 15 17  1  0  0  0  0
 14 15  2  0  0  0  0
 14 23  1  0  0  0  0
 11 12  1  0  0  0  0
 11 13  1  0  0  0  0
 11 14  1  0  0  0  0
  9 10  1  0  0  0  0
  9 11  1  0  0  0  0
  9 25  1  0  0  0  0
  7  8  1  0  0  0  0
  7  9  1  0  0  0  0
 29 30  1  0  0  0  0
 29 31  1  0  0  0  0
 29 32  1  0  0  0  0
 27 28  1  0  0  0  0
 27 29  1  0  0  0  0
M  END
$$$$
default_name
  -OEChem-02102213163D

 32 32  0     1  0  0  0  0  0999 V2000
   -3.8405   -3.7518    1.6252 H   0  0  0  0  0  0  0  0  0  0  0  0
   -3.7965   -2.8768    0.9782 C   0  0  0  0  0  0  0  0  0  0  0  0
   -4.5465   -2.1527    1.2902 H   0  0  0  0  0  0  0  0  0  0  0  0
   -3.9745   -3.1748   -0.0538 H   0  0  0  0  0  0  0  0  0  0  0  0
   -2.4245   -2.2537    1.0882 C   0  0  0  0  0  0  0  0  0  0  0  0
   -1.5805   -2.7478    1.8242 O   0  0  0  0  0  0  0  0  0  0  0  0
   -2.2045   -1.1637    0.3562 N   0  0  0  0  0  0  0  0  0  0  0  0
   -2.9595   -0.7907   -0.2008 H   0  0  0  0  0  0  0  0  0  0  0  0
   -0.9485   -0.4087    0.3482 C   0  0  1  0  0  0  0  0  0  0  0  0
   -0.1408   -1.0795    0.0507 H   0  0  0  0  0  0  0  0  0  0  0  0
   -1.0432    0.7243   -0.6879 C   0  0  0  0  0  0  0  0  0  0  0  0
   -0.8968    1.6803   -0.1832 H   0  0  0  0  0  0  0  0  0  0  0  0
   -0.2357    0.6094   -1.4125 H   0  0  0  0  0  0  0  0  0  0  0  0
   -2.3699    0.7782   -1.4213 C   0  0  0  0  0  0  0  0  0  0  0  0
   -3.4841    0.0696   -0.9331 C   0  0  0  0  0  0  0  0  0  0  0  0
   -3.3940   -0.5369   -0.0429 H   0  0  0  0  0  0  0  0  0  0  0  0
   -4.7222    0.1575   -1.5957 C   0  0  0  0  0  0  0  0  0  0  0  0
   -5.5758   -0.3895   -1.2206 H   0  0  0  0  0  0  0  0  0  0  0  0
   -4.8491    0.9550   -2.7457 C   0  0  0  0  0  0  0  0  0  0  0  0
   -5.7998    1.0207   -3.2562 H   0  0  0  0  0  0  0  0  0  0  0  0
   -3.7374    1.6632   -3.2371 C   0  0  0  0  0  0  0  0  0  0  0  0
   -3.8334    2.2720   -4.1242 H   0  0  0  0  0  0  0  0  0  0  0  0
   -2.4993    1.5725   -2.5766 C   0  0  0  0  0  0  0  0  0  0  0  0
   -1.6439    2.1152   -2.9575 H   0  0  0  0  0  0  0  0  0  0  0  0
   -0.6196    0.1253    1.7539 C   0  0  0  0  0  0  0  0  0  0  0  0
    0.5216    0.0194    2.2054 O   0  0  0  0  0  0  0  0  0  0  0  0
   -1.6152    0.6924    2.4469 N   0  0  0  0  0  0  0  0  0  0  0  0
   -2.5345    0.6914    2.0318 H   0  0  0  0  0  0  0  0  0  0  0  0
   -1.4720    1.2390    3.7941 C   0  0  0  0  0  0  0  0  0  0  0  0
   -0.6345    1.9391    3.8219 H   0  0  0  0  0  0  0  0  0  0  0  0
   -2.3844    1.7580    4.0892 H   0  0  0  0  0  0  0  0  0  0  0  0
   -1.2733    0.4298    4.4995 H   0  0  0  0  0  0  0  0  0  0  0  0
  5  6  2  0  0  0  0
  5  7  1  0  0  0  0
  2  3  1  0  0  0  0
  2  4  1  0  0  0  0
  2  5  1  0  0  0  0
  1  2  1  0  0  0  0
 25 26  2  0  0  0  0
 25 27  1  0  0  0  0
 23 24  1  0  0  0  0
 21 22  1  0  0  0  0
 21 23  2  0  0  0  0
 19 20  1  0  0  0  0
 19 21  1  0  0  0  0
 17 18  1  0  0  0  0
 17 19  2  0  0  0  0
 15 16  1  0  0  0  0
 15 17  1  0  0  0  0
 14 15  2  0  0  0  0
 14 23  1  0  0  0  0
 11 12  1  0  0  0  0
 11 13  1  0  0  0  0
 11 14  1  0  0  0  0
  9 10  1  0  0  0  0
  9 11  1  0  0  0  0
  9 25  1  0  0  0  0
  7  8  1  0  0  0  0
  7  9  1  0  0  0  0
 29 30  1  0  0  0  0
 29 31  1  0  0  0  0
 29 32  1  0  0  0  0
 27 28  1  0  0  0  0
 27 29  1  0  0  0  0
M  END
$$$$
default_name
  -OEChem-02102213163D

 32 32  0     1  0  0  0  0  0999 V2000
   -3.8405   -3.7518    1.6252 H   0  0  0  0  0  0  0  0  0  0  0  0
   -3.7965   -2.8768    0.9782 C   0  0  0  0  0  0  0  0  0  0  0  0
   -4.5465   -2.1527    1.2902 H   0  0  0  0  0  0  0  0  0  0  0  0
   -3.9745   -3.1748   -0.0538 H   0  0  0  0  0  0  0  0  0  0  0  0
   -2.4245   -2.2537    1.0882 C   0  0  0  0  0  0  0  0  0  0  0  0
   -1.5805   -2.7478    1.8242 O   0  0  0  0  0  0  0  0  0  0  0  0
   -2.2045   -1.1637    0.3562 N   0  0  0  0  0  0  0  0  0  0  0  0
   -2.9595   -0.7907   -0.2008 H   0  0  0  0  0  0  0  0  0  0  0  0
   -0.9485   -0.4087    0.3482 C   0  0  1  0  0  0  0  0  0  0  0  0
   -0.1408   -1.0795    0.0507 H   0  0  0  0  0  0  0  0  0  0  0  0
   -1.0432    0.7243   -0.6879 C   0  0  0  0  0  0  0  0  0  0  0  0
   -0.8968    1.6803   -0.1832 H   0  0  0  0  0  0  0  0  0  0  0  0
   -0.2357    0.6094   -1.4125 H   0  0  0  0  0  0  0  0  0  0  0  0
   -2.3699    0.7782   -1.4213 C   0  0  0  0  0  0  0  0  0  0  0  0
   -3.5515    0.3445   -0.7908 C   0  0  0  0  0  0  0  0  0  0  0  0
   -3.5165   -0.0517    0.2142 H   0  0  0  0  0  0  0  0  0  0  0  0
   -4.7845    0.4361   -1.4625 C   0  0  0  0  0  0  0  0  0  0  0  0
   -5.6903    0.1001   -0.9775 H   0  0  0  0  0  0  0  0  0  0  0  0
   -4.8386    0.9628   -2.7642 C   0  0  0  0  0  0  0  0  0  0  0  0
   -5.7856    1.0309   -3.2811 H   0  0  0  0  0  0  0  0  0  0  0  0
   -3.6595    1.3957   -3.3977 C   0  0  0  0  0  0  0  0  0  0  0  0
   -3.7002    1.7955   -4.4003 H   0  0  0  0  0  0  0  0  0  0  0  0
   -2.4270    1.3010   -2.7273 C   0  0  0  0  0  0  0  0  0  0  0  0
   -1.5201    1.6313   -3.2171 H   0  0  0  0  0  0  0  0  0  0  0  0
   -0.6196    0.1253    1.7539 C   0  0  0  0  0  0  0  0  0  0  0  0
    0.5216    0.0194    2.2054 O   0  0  0  0  0  0  0  0  0  0  0  0
   -1.6152    0.6924    2.4469 N   0  0  0  0  0  0  0  0  0  0  0  0
   -2.5345    0.6914    2.0318 H   0  0  0  0  0  0  0  0  0  0  0  0
   -1.4720    1.2390    3.7941 C   0  0  0  0  0  0  0  0  0  0  0  0
   -0.6345    1.9391    3.8219 H   0  0  0  0  0  0  0  0  0  0  0  0
   -2.3844    1.7580    4.0892 H   0  0  0  0  0  0  0  0  0  0  0  0
   -1.2733    0.4298    4.4995 H   0  0  0  0  0  0  0  0  0  0  0  0
  5  6  2  0  0  0  0
  5  7  1  0  0  0  0
  2  3  1  0  0  0  0
  2  4  1  0  0  0  0
  2  5  1  0  0  0  0
  1  2  1  0  0  0  0
 25 26  2  0  0  0  0
 25 27  1  0  0  0  0
 23 24  1  0  0  0  0
 21 22  1  0  0  0  0
 21 23  2  0  0  0  0
 19 20  1  0  0  0  0
 19 21  1  0  0  0  0
 17 18  1  0  0  0  0
 17 19  2  0  0  0  0
 15 16  1  0  0  0  0
 15 17  1  0  0  0  0
 14 15  2  0  0  0  0
 14 23  1  0  0  0  0
 11 12  1  0  0  0  0
 11 13  1  0  0  0  0
 11 14  1  0  0  0  0
  9 10  1  0  0  0  0
  9 11  1  0  0  0  0
  9 25  1  0  0  0  0
  7  8  1  0  0  0  0
  7  9  1  0  0  0  0
 29 30  1  0  0  0  0
 29 31  1  0  0  0  0
 29 32  1  0  0  0  0
 27 28  1  0  0  0  0
 27 29  1  0  0  0  0
M  END
$$$$
default_name
  -OEChem-02102213163D

 32 32  0     1  0  0  0  0  0999 V2000
   -3.8405   -3.7518    1.6252 H   0  0  0  0  0  0  0  0  0  0  0  0
   -3.7965   -2.8768    0.9782 C   0  0  0  0  0  0  0  0  0  0  0  0
   -4.5465   -2.1527    1.2902 H   0  0  0  0  0  0  0  0  0  0  0  0
   -3.9745   -3.1748   -0.0538 H   0  0  0  0  0  0  0  0  0  0  0  0
   -2.4245   -2.2537    1.0882 C   0  0  0  0  0  0  0  0  0  0  0  0
   -1.5805   -2.7478    1.8242 O   0  0  0  0  0  0  0  0  0  0  0  0
   -2.2045   -1.1637    0.3562 N   0  0  0  0  0  0  0  0  0  0  0  0
   -2.9595   -0.7907   -0.2008 H   0  0  0  0  0  0  0  0  0  0  0  0
   -0.9485   -0.4087    0.3482 C   0  0  1  0  0  0  0  0  0  0  0  0
   -0.1408   -1.0795    0.0507 H   0  0  0  0  0  0  0  0  0  0  0  0
   -1.0432    0.7243   -0.6879 C   0  0  0  0  0  0  0  0  0  0  0  0
   -0.8968    1.6803   -0.1832 H   0  0  0  0  0  0  0  0  0  0  0  0
   -0.2357    0.6094   -1.4125 H   0  0  0  0  0  0  0  0  0  0  0  0
   -2.3699    0.7782   -1.4213 C   0  0  0  0  0  0  0  0  0  0  0  0
   -3.5810    0.6507   -0.7150 C   0  0  0  0  0  0  0  0  0  0  0  0
   -3.5716    0.4905    0.3539 H   0  0  0  0  0  0  0  0  0  0  0  0
   -4.8086    0.7431   -1.3964 C   0  0  0  0  0  0  0  0  0  0  0  0
   -5.7373    0.6424   -0.8525 H   0  0  0  0  0  0  0  0  0  0  0  0
   -4.8276    0.9648   -2.7839 C   0  0  0  0  0  0  0  0  0  0  0  0
   -5.7708    1.0334   -3.3077 H   0  0  0  0  0  0  0  0  0  0  0  0
   -3.6192    1.0912   -3.4929 C   0  0  0  0  0  0  0  0  0  0  0  0
   -3.6336    1.2562   -4.5603 H   0  0  0  0  0  0  0  0  0  0  0  0
   -2.3925    0.9955   -2.8122 C   0  0  0  0  0  0  0  0  0  0  0  0
   -1.4635    1.0896   -3.3594 H   0  0  0  0  0  0  0  0  0  0  0  0
   -0.6196    0.1253    1.7539 C   0  0  0  0  0  0  0  0  0  0  0  0
    0.5216    0.0194    2.2054 O   0  0  0  0  0  0  0  0  0  0  0  0
   -1.6152    0.6924    2.4469 N   0  0  0  0  0  0  0  0  0  0  0  0
   -2.5345    0.6914    2.0318 H   0  0  0  0  0  0  0  0  0  0  0  0
   -1.4720    1.2390    3.7941 C   0  0  0  0  0  0  0  0  0  0  0  0
   -0.6345    1.9391    3.8219 H   0  0  0  0  0  0  0  0  0  0  0  0
   -2.3844    1.7580    4.0892 H   0  0  0  0  0  0  0  0  0  0  0  0
   -1.2733    0.4298    4.4995 H   0  0  0  0  0  0  0  0  0  0  0  0
  5  6  2  0  0  0  0
  5  7  1  0  0  0  0
  2  3  1  0  0  0  0
  2  4  1  0  0  0  0
  2  5  1  0  0  0  0
  1  2  1  0  0  0  0
 25 26  2  0  0  0  0
 25 27  1  0  0  0  0
 23 24  1  0  0  0  0
 21 22  1  0  0  0  0
 21 23  2  0  0  0  0
 19 20  1  0  0  0  0
 19 21  1  0  0  0  0
 17 18  1  0  0  0  0
 17 19  2  0  0  0  0
 15 16  1  0  0  0  0
 15 17  1  0  0  0  0
 14 15  2  0  0  0  0
 14 23  1  0  0  0  0
 11 12  1  0  0  0  0
 11 13  1  0  0  0  0
 11 14  1  0  0  0  0
  9 10  1  0  0  0  0
  9 11  1  0  0  0  0
  9 25  1  0  0  0  0
  7  8  1  0  0  0  0
  7  9  1  0  0  0  0
 29 30  1  0  0  0  0
 29 31  1  0  0  0  0
 29 32  1  0  0  0  0
 27 28  1  0  0  0  0
 27 29  1  0  0  0  0
M  END
$$$$
default_name
  -OEChem-02102213163D

 32 32  0     1  0  0  0  0  0999 V2000
   -3.8405   -3.7518    1.6252 H   0  0  0  0  0  0  0  0  0  0  0  0
   -3.7965   -2.8768    0.9782 C   0  0  0  0  0  0  0  0  0  0  0  0
   -4.5465   -2.1527    1.2902 H   0  0  0  0  0  0  0  0  0  0  0  0
   -3.9745   -3.1748   -0.0538 H   0  0  0  0  0  0  0  0  0  0  0  0
   -2.4245   -2.2537    1.0882 C   0  0  0  0  0  0  0  0  0  0  0  0
   -1.5805   -2.7478    1.8242 O   0  0  0  0  0  0  0  0  0  0  0  0
   -2.2045   -1.1637    0.3562 N   0  0  0  0  0  0  0  0  0  0  0  0
   -2.9595   -0.7907   -0.2008 H   0  0  0  0  0  0  0  0  0  0  0  0
   -0.9485   -0.4087    0.3482 C   0  0  1  0  0  0  0  0  0  0  0  0
   -0.1408   -1.0795    0.0507 H   0  0  0  0  0  0  0  0  0  0  0  0
   -1.0432    0.7243   -0.6879 C   0  0  0  0  0  0  0  0  0  0  0  0
   -0.8968    1.6803   -0.1832 H   0  0  0  0  0  0  0  0  0  0  0  0
   -0.2357    0.6094   -1.4125 H   0  0  0  0  0  0  0  0  0  0  0  0
   -2.3699    0.7782   -1.4213 C   0  0  0  0  0  0  0  0  0  0  0  0
   -3.5704    0.9674   -0.7108 C   0  0  0  0  0  0  0  0  0  0  0  0
   -3.5558    1.0527    0.3666 H   0  0  0  0  0  0  0  0  0  0  0  0
   -4.7928    1.0577   -1.4018 C   0  0  0  0  0  0  0  0  0  0  0  0
   -5.7138    1.2004   -0.8541 H   0  0  0  0  0  0  0  0  0  0  0  0
   -4.8170    0.9610   -2.8034 C   0  0  0  0  0  0  0  0  0  0  0  0
   -5.7564    1.0280   -3.3341 H   0  0  0  0  0  0  0  0  0  0  0  0
   -3.6193    0.7704   -3.5164 C   0  0  0  0  0  0  0  0  0  0  0  0
   -3.6383    0.6906   -4.5934 H   0  0  0  0  0  0  0  0  0  0  0  0
   -2.3982    0.6769   -2.8253 C   0  0  0  0  0  0  0  0  0  0  0  0
   -1.4779    0.5270   -3.3747 H   0  0  0  0  0  0  0  0  0  0  0  0
   -0.6196    0.1253    1.7539 C   0  0  0  0  0  0  0  0  0  0  0  0
    0.5216    0.0194    2.2054 O   0  0  0  0  0  0  0  0  0  0  0  0
   -1.6152    0.6924    2.4469 N   0  0  0  0  0  0  0  0  0  0  0  0
   -2.5345    0.6914    2.0318 H   0  0  0  0  0  0  0  0  0  0  0  0
   -1.4720    1.2390    3.7941 C   0  0  0  0  0  0  0  0  0  0  0  0
   -0.6345    1.9391    3.8219 H   0  0  0  0  0  0  0  0  0  0  0  0
   -2.3844    1.7580    4.0892 H   0  0  0  0  0  0  0  0  0  0  0  0
   -1.2733    0.4298    4.4995 H   0  0  0  0  0  0  0  0  0  0  0  0
  5  6  2  0  0  0  0
  5  7  1  0  0  0  0
  2  3  1  0  0  0  0
  2  4  1  0  0  0  0
  2  5  1  0  0  0  0
  1  2  1  0  0  0  0
 25 26  2  0  0  0  0
 25 27  1  0  0  0  0
 23 24  1  0  0  0  0
 21 22  1  0  0  0  0
 21 23  2  0  0  0  0
 19 20  1  0  0  0  0
 19 21  1  0  0  0  0
 17 18  1  0  0  0  0
 17 19  2  0  0  0  0
 15 16  1  0  0  0  0
 15 17  1  0  0  0  0
 14 15  2  0  0  0  0
 14 23  1  0  0  0  0
 11 12  1  0  0  0  0
 11 13  1  0  0  0  0
 11 14  1  0  0  0  0
  9 10  1  0  0  0  0
  9 11  1  0  0  0  0
  9 25  1  0  0  0  0
  7  8  1  0  0  0  0
  7  9  1  0  0  0  0
 29 30  1  0  0  0  0
 29 31  1  0  0  0  0
 29 32  1  0  0  0  0
 27 28  1  0  0  0  0
 27 29  1  0  0  0  0
M  END
$$$$
default_name
  -OEChem-02102213163D

 32 32  0     1  0  0  0  0  0999 V2000
   -3.8405   -3.7518    1.6252 H   0  0  0  0  0  0  0  0  0  0  0  0
   -3.7965   -2.8768    0.9782 C   0  0  0  0  0  0  0  0  0  0  0  0
   -4.5465   -2.1527    1.2902 H   0  0  0  0  0  0  0  0  0  0  0  0
   -3.9745   -3.1748   -0.0538 H   0  0  0  0  0  0  0  0  0  0  0  0
   -2.4245   -2.2537    1.0882 C   0  0  0  0  0  0  0  0  0  0  0  0
   -1.5805   -2.7478    1.8242 O   0  0  0  0  0  0  0  0  0  0  0  0
   -2.2045   -1.1637    0.3562 N   0  0  0  0  0  0  0  0  0  0  0  0
   -2.9595   -0.7907   -0.2008 H   0  0  0  0  0  0  0  0  0  0  0  0
   -0.9485   -0.4087    0.3482 C   0  0  1  0  0  0  0  0  0  0  0  0
   -0.1408   -1.0795    0.0507 H   0  0  0  0  0  0  0  0  0  0  0  0
   -1.0432    0.7243   -0.6879 C   0  0  0  0  0  0  0  0  0  0  0  0
   -0.8968    1.6803   -0.1832 H   0  0  0  0  0  0  0  0  0  0  0  0
   -0.2357    0.6094   -1.4125 H   0  0  0  0  0  0  0  0  0  0  0  0
   -2.3699    0.7782   -1.4213 C   0  0  0  0  0  0  0  0  0  0  0  0
   -3.5206    1.2729   -0.7785 C   0  0  0  0  0  0  0  0  0  0  0  0
   -3.4700    1.5967    0.2515 H   0  0  0  0  0  0  0  0  0  0  0  0
   -4.7383    1.3583   -1.4783 C   0  0  0  0  0  0  0  0  0  0  0  0
   -5.6213    1.7360   -0.9821 H   0  0  0  0  0  0  0  0  0  0  0  0
   -4.8073    0.9515   -2.8216 C   0  0  0  0  0  0  0  0  0  0  0  0
   -5.7435    1.0149   -3.3585 H   0  0  0  0  0  0  0  0  0  0  0  0
   -3.6597    0.4553   -3.4664 C   0  0  0  0  0  0  0  0  0  0  0  0
   -3.7139    0.1374   -4.4973 H   0  0  0  0  0  0  0  0  0  0  0  0
   -2.4437    0.3669   -2.7658 C   0  0  0  0  0  0  0  0  0  0  0  0
   -1.5623   -0.0181   -3.2620 H   0  0  0  0  0  0  0  0  0  0  0  0
   -0.6196    0.1253    1.7539 C   0  0  0  0  0  0  0  0  0  0  0  0
    0.5216    0.0194    2.2054 O   0  0  0  0  0  0  0  0  0  0  0  0
   -1.6152    0.6924    2.4469 N   0  0  0  0  0  0  0  0  0  0  0  0
   -2.5345    0.6914    2.0318 H   0  0  0  0  0  0  0  0  0  0  0  0
   -1.4720    1.2390    3.7941 C   0  0  0  0  0  0  0  0  0  0  0  0
   -0.6345    1.9391    3.8219 H   0  0  0  0  0  0  0  0  0  0  0  0
   -2.3844    1.7580    4.0892 H   0  0  0  0  0  0  0  0  0  0  0  0
   -1.2733    0.4298    4.4995 H   0  0  0  0  0  0  0  0  0  0  0  0
  5  6  2  0  0  0  0
  5  7  1  0  0  0  0
  2  3  1  0  0  0  0
  2  4  1  0  0  0  0
  2  5  1  0  0  0  0
  1  2  1  0  0  0  0
 25 26  2  0  0  0  0
 25 27  1  0  0  0  0
 23 24  1  0  0  0  0
 21 22  1  0  0  0  0
 21 23  2  0  0  0  0
 19 20  1  0  0  0  0
 19 21  1  0  0  0  0
 17 18  1  0  0  0  0
 17 19  2  0  0  0  0
 15 16  1  0  0  0  0
 15 17  1  0  0  0  0
 14 15  2  0  0  0  0
 14 23  1  0  0  0  0
 11 12  1  0  0  0  0
 11 13  1  0  0  0  0
 11 14  1  0  0  0  0
  9 10  1  0  0  0  0
  9 11  1  0  0  0  0
  9 25  1  0  0  0  0
  7  8  1  0  0  0  0
  7  9  1  0  0  0  0
 29 30  1  0  0  0  0
 29 31  1  0  0  0  0
 29 32  1  0  0  0  0
 27 28  1  0  0  0  0
 27 29  1  0  0  0  0
M  END
$$$$
default_name
  -OEChem-02102213163D

 32 32  0     1  0  0  0  0  0999 V2000
   -3.8405   -3.7518    1.6252 H   0  0  0  0  0  0  0  0  0  0  0  0
   -3.7965   -2.8768    0.9782 C   0  0  0  0  0  0  0  0  0  0  0  0
   -4.5465   -2.1527    1.2902 H   0  0  0  0  0  0  0  0  0  0  0  0
   -3.9745   -3.1748   -0.0538 H   0  0  0  0  0  0  0  0  0  0  0  0
   -2.4245   -2.2537    1.0882 C   0  0  0  0  0  0  0  0  0  0  0  0
   -1.5805   -2.7478    1.8242 O   0  0  0  0  0  0  0  0  0  0  0  0
   -2.2045   -1.1637    0.3562 N   0  0  0  0  0  0  0  0  0  0  0  0
   -2.9595   -0.7907   -0.2008 H   0  0  0  0  0  0  0  0  0  0  0  0
   -0.9485   -0.4087    0.3482 C   0  0  1  0  0  0  0  0  0  0  0  0
   -0.1408   -1.0795    0.0507 H   0  0  0  0  0  0  0  0  0  0  0  0
   -1.0432    0.7243   -0.6879 C   0  0  0  0  0  0  0  0  0  0  0  0
   -0.8968    1.6803   -0.1832 H   0  0  0  0  0  0  0  0  0  0  0  0
   -0.2357    0.6094   -1.4125 H   0  0  0  0  0  0  0  0  0  0  0  0
   -2.3699    0.7782   -1.4213 C   0  0  0  0  0  0  0  0  0  0  0  0
   -3.4348    1.5464   -0.9136 C   0  0  0  0  0  0  0  0  0  0  0  0
   -3.3202    2.0854    0.0163 H   0  0  0  0  0  0  0  0  0  0  0  0
   -4.6487    1.6246   -1.6208 C   0  0  0  0  0  0  0  0  0  0  0  0
   -5.4660    2.2129   -1.2279 H   0  0  0  0  0  0  0  0  0  0  0  0
   -4.7994    0.9370   -2.8370 C   0  0  0  0  0  0  0  0  0  0  0  0
   -5.7328    0.9952   -3.3792 H   0  0  0  0  0  0  0  0  0  0  0  0
   -3.7378    0.1673   -3.3464 C   0  0  0  0  0  0  0  0  0  0  0  0
   -3.8553   -0.3657   -4.2785 H   0  0  0  0  0  0  0  0  0  0  0  0
   -2.5259    0.0867   -2.6377 C   0  0  0  0  0  0  0  0  0  0  0  0
   -1.7111   -0.5085   -3.0290 H   0  0  0  0  0  0  0  0  0  0  0  0
   -0.6196    0.1253    1.7539 C   0  0  0  0  0  0  0  0  0  0  0  0
    0.5216    0.0194    2.2054 O   0  0  0  0  0  0  0  0  0  0  0  0
   -1.6152    0.6924    2.4469 N   0  0  0  0  0  0  0  0  0  0  0  0
   -2.5345    0.6914    2.0318 H   0  0  0  0  0  0  0  0  0  0  0  0
   -1.4720    1.2390    3.7941 C   0  0  0  0  0  0  0  0  0  0  0  0
   -0.6345    1.9391    3.8219 H   0  0  0  0  0  0  0  0  0  0  0  0
   -2.3844    1.7580    4.0892 H   0  0  0  0  0  0  0  0  0  0  0  0
   -1.2733    0.4298    4.4995 H   0  0  0  0  0  0  0  0  0  0  0  0
  5  6  2  0  0  0  0
  5  7  1  0  0  0  0
  2  3  1  0  0  0  0
  2  4  1  0  0  0  0
  2  5  1  0  0  0  0
  1  2  1  0  0  0  0
 25 26  2  0  0  0  0
 25 27  1  0  0  0  0
 23 24  1  0  0  0  0
 21 22  1  0  0  0  0
 21 23  2  0  0  0  0
 19 20  1  0  0  0  0
 19 21  1  0  0  0  0
 17 18  1  0  0  0  0
 17 19  2  0  0  0  0
 15 16  1  0  0  0  0
 15 17  1  0  0  0  0
 14 15  2  0  0  0  0
 14 23  1  0  0  0  0
 11 12  1  0  0  0  0
 11 13  1  0  0  0  0
 11 14  1  0  0  0  0
  9 10  1  0  0  0  0
  9 11  1  0  0  0  0
  9 25  1  0  0  0  0
  7  8  1  0  0  0  0
  7  9  1  0  0  0  0
 29 30  1  0  0  0  0
 29 31  1  0  0  0  0
 29 32  1  0  0  0  0
 27 28  1  0  0  0  0
 27 29  1  0  0  0  0
M  END
$$$$
default_name
  -OEChem-02102213163D

 32 32  0     1  0  0  0  0  0999 V2000
   -3.8405   -3.7518    1.6252 H   0  0  0  0  0  0  0  0  0  0  0  0
   -3.7965   -2.8768    0.9782 C   0  0  0  0  0  0  0  0  0  0  0  0
   -4.5465   -2.1527    1.2902 H   0  0  0  0  0  0  0  0  0  0  0  0
   -3.9745   -3.1748   -0.0538 H   0  0  0  0  0  0  0  0  0  0  0  0
   -2.4245   -2.2537    1.0882 C   0  0  0  0  0  0  0  0  0  0  0  0
   -1.5805   -2.7478    1.8242 O   0  0  0  0  0  0  0  0  0  0  0  0
   -2.2045   -1.1637    0.3562 N   0  0  0  0  0  0  0  0  0  0  0  0
   -2.9595   -0.7907   -0.2008 H   0  0  0  0  0  0  0  0  0  0  0  0
   -0.9485   -0.4087    0.3482 C   0  0  1  0  0  0  0  0  0  0  0  0
   -0.1408   -1.0795    0.0507 H   0  0  0  0  0  0  0  0  0  0  0  0
   -1.0432    0.7243   -0.6879 C   0  0  0  0  0  0  0  0  0  0  0  0
   -0.8968    1.6803   -0.1832 H   0  0  0  0  0  0  0  0  0  0  0  0
   -0.2357    0.6094   -1.4125 H   0  0  0  0  0  0  0  0  0  0  0  0
   -2.3699    0.7782   -1.4213 C   0  0  0  0  0  0  0  0  0  0  0  0
   -3.3190    1.7693   -1.1067 C   0  0  0  0  0  0  0  0  0  0  0  0
   -3.1164    2.4854   -0.3229 H   0  0  0  0  0  0  0  0  0  0  0  0
   -4.5302    1.8383   -1.8196 C   0  0  0  0  0  0  0  0  0  0  0  0
   -5.2587    2.5984   -1.5746 H   0  0  0  0  0  0  0  0  0  0  0  0
   -4.7937    0.9185   -2.8487 C   0  0  0  0  0  0  0  0  0  0  0  0
   -5.7252    0.9701   -3.3948 H   0  0  0  0  0  0  0  0  0  0  0  0
   -3.8481   -0.0740   -3.1646 C   0  0  0  0  0  0  0  0  0  0  0  0
   -4.0528   -0.7844   -3.9521 H   0  0  0  0  0  0  0  0  0  0  0  0
   -2.6392   -0.1448   -2.4498 C   0  0  0  0  0  0  0  0  0  0  0  0
   -1.9139   -0.9109   -2.6916 H   0  0  0  0  0  0  0  0  0  0  0  0
   -0.6196    0.1253    1.7539 C   0  0  0  0  0  0  0  0  0  0  0  0
    0.5216    0.0194    2.2054 O   0  0  0  0  0  0  0  0  0  0  0  0
   -1.6152    0.6924    2.4469 N   0  0  0  0  0  0  0  0  0  0  0  0
   -2.5345    0.6914    2.0318 H   0  0  0  0  0  0  0  0  0  0  0  0
   -1.4720    1.2390    3.7941 C   0  0  0  0  0  0  0  0  0  0  0  0
   -0.6345    1.9391    3.8219 H   0  0  0  0  0  0  0  0  0  0  0  0
   -2.3844    1.7580    4.0892 H   0  0  0  0  0  0  0  0  0  0  0  0
   -1.2733    0.4298    4.4995 H   0  0  0  0  0  0  0  0  0  0  0  0
  5  6  2  0  0  0  0
  5  7  1  0  0  0  0
  2  3  1  0  0  0  0
  2  4  1  0  0  0  0
  2  5  1  0  0  0  0
  1  2  1  0  0  0  0
 25 26  2  0  0  0  0
 25 27  1  0  0  0  0
 23 24  1  0  0  0  0
 21 22  1  0  0  0  0
 21 23  2  0  0  0  0
 19 20  1  0  0  0  0
 19 21  1  0  0  0  0
 17 18  1  0  0  0  0
 17 19  2  0  0  0  0
 15 16  1  0  0  0  0
 15 17  1  0  0  0  0
 14 15  2  0  0  0  0
 14 23  1  0  0  0  0
 11 12  1  0  0  0  0
 11 13  1  0  0  0  0
 11 14  1  0  0  0  0
  9 10  1  0  0  0  0
  9 11  1  0  0  0  0
  9 25  1  0  0  0  0
  7  8  1  0  0  0  0
  7  9  1  0  0  0  0
 29 30  1  0  0  0  0
 29 31  1  0  0  0  0
 29 32  1  0  0  0  0
 27 28  1  0  0  0  0
 27 29  1  0  0  0  0
M  END
$$$$
default_name
  -OEChem-02102213163D

 32 32  0     1  0  0  0  0  0999 V2000
   -3.8405   -3.7518    1.6252 H   0  0  0  0  0  0  0  0  0  0  0  0
   -3.7965   -2.8768    0.9782 C   0  0  0  0  0  0  0  0  0  0  0  0
   -4.5465   -2.1527    1.2902 H   0  0  0  0  0  0  0  0  0  0  0  0
   -3.9745   -3.1748   -0.0538 H   0  0  0  0  0  0  0  0  0  0  0  0
   -2.4245   -2.2537    1.0882 C   0  0  0  0  0  0  0  0  0  0  0  0
   -1.5805   -2.7478    1.8242 O   0  0  0  0  0  0  0  0  0  0  0  0
   -2.2045   -1.1637    0.3562 N   0  0  0  0  0  0  0  0  0  0  0  0
   -2.9595   -0.7907   -0.2008 H   0  0  0  0  0  0  0  0  0  0  0  0
   -0.9485   -0.4087    0.3482 C   0  0  1  0  0  0  0  0  0  0  0  0
   -0.1408   -1.0795    0.0507 H   0  0  0  0  0  0  0  0  0  0  0  0
   -1.0432    0.7243   -0.6879 C   0  0  0  0  0  0  0  0  0  0  0  0
   -0.8968    1.6803   -0.1832 H   0  0  0  0  0  0  0  0  0  0  0  0
   -0.2357    0.6094   -1.4125 H   0  0  0  0  0  0  0  0  0  0  0  0
   -2.3699    0.7782   -1.4213 C   0  0  0  0  0  0  0  0  0  0  0  0
   -3.1810    1.9263   -1.3448 C   0  0  0  0  0  0  0  0  0  0  0  0
   -2.8727    2.7695   -0.7429 H   0  0  0  0  0  0  0  0  0  0  0  0
   -4.3907    1.9849   -2.0610 C   0  0  0  0  0  0  0  0  0  0  0  0
   -5.0133    2.8664   -1.9988 H   0  0  0  0  0  0  0  0  0  0  0  0
   -4.7906    0.8973   -2.8559 C   0  0  0  0  0  0  0  0  0  0  0  0
   -5.7211    0.9414   -3.4043 H   0  0  0  0  0  0  0  0  0  0  0  0
   -3.9831   -0.2521   -2.9334 C   0  0  0  0  0  0  0  0  0  0  0  0
   -4.2929   -1.0903   -3.5401 H   0  0  0  0  0  0  0  0  0  0  0  0
   -2.7758   -0.3116   -2.2149 C   0  0  0  0  0  0  0  0  0  0  0  0
   -2.1572   -1.1977   -2.2727 H   0  0  0  0  0  0  0  0  0  0  0  0
   -0.6196    0.1253    1.7539 C   0  0  0  0  0  0  0  0  0  0  0  0
    0.5216    0.0194    2.2054 O   0  0  0  0  0  0  0  0  0  0  0  0
   -1.6152    0.6924    2.4469 N   0  0  0  0  0  0  0  0  0  0  0  0
   -2.5345    0.6914    2.0318 H   0  0  0  0  0  0  0  0  0  0  0  0
   -1.4720    1.2390    3.7941 C   0  0  0  0  0  0  0  0  0  0  0  0
   -0.6345    1.9391    3.8219 H   0  0  0  0  0  0  0  0  0  0  0  0
   -2.3844    1.7580    4.0892 H   0  0  0  0  0  0  0  0  0  0  0  0
   -1.2733    0.4298    4.4995 H   0  0  0  0  0  0  0  0  0  0  0  0
  5  6  2  0  0  0  0
  5  7  1  0  0  0  0
  2  3  1  0  0  0  0
  2  4  1  0  0  0  0
  2  5  1  0  0  0  0
  1  2  1  0  0  0  0
 25 26  2  0  0  0  0
 25 27  1  0  0  0  0
 23 24  1  0  0  0  0
 21 22  1  0  0  0  0
 21 23  2  0  0  0  0
 19 20  1  0  0  0  0
 19 21  1  0  0  0  0
 17 18  1  0  0  0  0
 17 19  2  0  0  0  0
 15 16  1  0  0  0  0
 15 17  1  0  0  0  0
 14 15  2  0  0  0  0
 14 23  1  0  0  0  0
 11 12  1  0  0  0  0
 11 13  1  0  0  0  0
 11 14  1  0  0  0  0
  9 10  1  0  0  0  0
  9 11  1  0  0  0  0
  9 25  1  0  0  0  0
  7  8  1  0  0  0  0
  7  9  1  0  0  0  0
 29 30  1  0  0  0  0
 29 31  1  0  0  0  0
 29 32  1  0  0  0  0
 27 28  1  0  0  0  0
 27 29  1  0  0  0  0
M  END
$$$$
default_name
  -OEChem-02102213163D

 32 32  0     1  0  0  0  0  0999 V2000
   -3.8405   -3.7518    1.6252 H   0  0  0  0  0  0  0  0  0  0  0  0
   -3.7965   -2.8768    0.9782 C   0  0  0  0  0  0  0  0  0  0  0  0
   -4.5465   -2.1527    1.2902 H   0  0  0  0  0  0  0  0  0  0  0  0
   -3.9745   -3.1748   -0.0538 H   0  0  0  0  0  0  0  0  0  0  0  0
   -2.4245   -2.2537    1.0882 C   0  0  0  0  0  0  0  0  0  0  0  0
   -1.5805   -2.7478    1.8242 O   0  0  0  0  0  0  0  0  0  0  0  0
   -2.2045   -1.1637    0.3562 N   0  0  0  0  0  0  0  0  0  0  0  0
   -2.9595   -0.7907   -0.2008 H   0  0  0  0  0  0  0  0  0  0  0  0
   -0.9485   -0.4087    0.3482 C   0  0  1  0  0  0  0  0  0  0  0  0
   -0.1408   -1.0795    0.0507 H   0  0  0  0  0  0  0  0  0  0  0  0
   -1.0432    0.7243   -0.6879 C   0  0  0  0  0  0  0  0  0  0  0  0
   -0.8968    1.6803   -0.1832 H   0  0  0  0  0  0  0  0  0  0  0  0
   -0.2357    0.6094   -1.4125 H   0  0  0  0  0  0  0  0  0  0  0  0
   -2.3699    0.7782   -1.4213 C   0  0  0  0  0  0  0  0  0  0  0  0
   -3.0303    2.0069   -1.6116 C   0  0  0  0  0  0  0  0  0  0  0  0
   -2.6056    2.9184   -1.2152 H   0  0  0  0  0  0  0  0  0  0  0  0
   -4.2400    2.0544   -2.3287 C   0  0  0  0  0  0  0  0  0  0  0  0
   -4.7467    2.9985   -2.4714 H   0  0  0  0  0  0  0  0  0  0  0  0
   -4.7903    0.8748   -2.8581 C   0  0  0  0  0  0  0  0  0  0  0  0
   -5.7209    0.9110   -3.4070 H   0  0  0  0  0  0  0  0  0  0  0  0
   -4.1337   -0.3549   -2.6685 C   0  0  0  0  0  0  0  0  0  0  0  0
   -4.5594   -1.2625   -3.0707 H   0  0  0  0  0  0  0  0  0  0  0  0
   -2.9265   -0.4025   -1.9490 C   0  0  0  0  0  0  0  0  0  0  0  0
   -2.4241   -1.3496   -1.8009 H   0  0  0  0  0  0  0  0  0  0  0  0
   -0.6196    0.1253    1.7539 C   0  0  0  0  0  0  0  0  0  0  0  0
    0.5216    0.0194    2.2054 O   0  0  0  0  0  0  0  0  0  0  0  0
   -1.6152    0.6924    2.4469 N   0  0  0  0  0  0  0  0  0  0  0  0
   -2.5345    0.6914    2.0318 H   0  0  0  0  0  0  0  0  0  0  0  0
   -1.4720    1.2390    3.7941 C   0  0  0  0  0  0  0  0  0  0  0  0
   -0.6345    1.9391    3.8219 H   0  0  0  0  0  0  0  0  0  0  0  0
   -2.3844    1.7580    4.0892 H   0  0  0  0  0  0  0  0  0  0  0  0
   -1.2733    0.4298    4.4995 H   0  0  0  0  0  0  0  0  0  0  0  0
  5  6  2  0  0  0  0
  5  7  1  0  0  0  0
  2  3  1  0  0  0  0
  2  4  1  0  0  0  0
  2  5  1  0  0  0  0
  1  2  1  0  0  0  0
 25 26  2  0  0  0  0
 25 27  1  0  0  0  0
 23 24  1  0  0  0  0
 21 22  1  0  0  0  0
 21 23  2  0  0  0  0
 19 20  1  0  0  0  0
 19 21  1  0  0  0  0
 17 18  1  0  0  0  0
 17 19  2  0  0  0  0
 15 16  1  0  0  0  0
 15 17  1  0  0  0  0
 14 15  2  0  0  0  0
 14 23  1  0  0  0  0
 11 12  1  0  0  0  0
 11 13  1  0  0  0  0
 11 14  1  0  0  0  0
  9 10  1  0  0  0  0
  9 11  1  0  0  0  0
  9 25  1  0  0  0  0
  7  8  1  0  0  0  0
  7  9  1  0  0  0  0
 29 30  1  0  0  0  0
 29 31  1  0  0  0  0
 29 32  1  0  0  0  0
 27 28  1  0  0  0  0
 27 29  1  0  0  0  0
M  END
$$$$
default_name
  -OEChem-02102213163D

 32 32  0     1  0  0  0  0  0999 V2000
   -3.8405   -3.7518    1.6252 H   0  0  0  0  0  0  0  0  0  0  0  0
   -3.7965   -2.8768    0.9782 C   0  0  0  0  0  0  0  0  0  0  0  0
   -4.5465   -2.1527    1.2902 H   0  0  0  0  0  0  0  0  0  0  0  0
   -3.9745   -3.1748   -0.0538 H   0  0  0  0  0  0  0  0  0  0  0  0
   -2.4245   -2.2537    1.0882 C   0  0  0  0  0  0  0  0  0  0  0  0
   -1.5805   -2.7478    1.8242 O   0  0  0  0  0  0  0  0  0  0  0  0
   -2.2045   -1.1637    0.3562 N   0  0  0  0  0  0  0  0  0  0  0  0
   -2.9595   -0.7907   -0.2008 H   0  0  0  0  0  0  0  0  0  0  0  0
   -0.9485   -0.4087    0.3482 C   0  0  1  0  0  0  0  0  0  0  0  0
   -0.1408   -1.0795    0.0507 H   0  0  0  0  0  0  0  0  0  0  0  0
   -1.0432    0.7243   -0.6879 C   0  0  0  0  0  0  0  0  0  0  0  0
   -0.8968    1.6803   -0.1832 H   0  0  0  0  0  0  0  0  0  0  0  0
   -0.2357    0.6094   -1.4125 H   0  0  0  0  0  0  0  0  0  0  0  0
   -2.3699    0.7782   -1.4213 C   0  0  0  0  0  0  0  0  0  0  0  0
   -2.8770    2.0054   -1.8889 C   0  0  0  0  0  0  0  0  0  0  0  0
   -2.3333    2.9218   -1.7075 H   0  0  0  0  0  0  0  0  0  0  0  0
   -4.0881    2.0421   -2.6044 C   0  0  0  0  0  0  0  0  0  0  0  0
   -4.4770    2.9858   -2.9603 H   0  0  0  0  0  0  0  0  0  0  0  0
   -4.7928    0.8525   -2.8551 C   0  0  0  0  0  0  0  0  0  0  0  0
   -5.7245    0.8810   -3.4027 H   0  0  0  0  0  0  0  0  0  0  0  0
   -4.2896   -0.3753   -2.3879 C   0  0  0  0  0  0  0  0  0  0  0  0
   -4.8340   -1.2891   -2.5759 H   0  0  0  0  0  0  0  0  0  0  0  0
   -3.0810   -0.4112   -1.6701 C   0  0  0  0  0  0  0  0  0  0  0  0
   -2.6966   -1.3560   -1.3083 H   0  0  0  0  0  0  0  0  0  0  0  0
   -0.6196    0.1253    1.7539 C   0  0  0  0  0  0  0  0  0  0  0  0
    0.5216    0.0194    2.2054 O   0  0  0  0  0  0  0  0  0  0  0  0
   -1.6152    0.6924    2.4469 N   0  0  0  0  0  0  0  0  0  0  0  0
   -2.5345    0.6914    2.0318 H   0  0  0  0  0  0  0  0  0  0  0  0
   -1.4720    1.2390    3.7941 C   0  0  0  0  0  0  0  0  0  0  0  0
   -0.6345    1.9391    3.8219 H   0  0  0  0  0  0  0  0  0  0  0  0
   -2.3844    1.7580    4.0892 H   0  0  0  0  0  0  0  0  0  0  0  0
   -1.2733    0.4298    4.4995 H   0  0  0  0  0  0  0  0  0  0  0  0
  5  6  2  0  0  0  0
  5  7  1  0  0  0  0
  2  3  1  0  0  0  0
  2  4  1  0  0  0  0
  2  5  1  0  0  0  0
  1  2  1  0  0  0  0
 25 26  2  0  0  0  0
 25 27  1  0  0  0  0
 23 24  1  0  0  0  0
 21 22  1  0  0  0  0
 21 23  2  0  0  0  0
 19 20  1  0  0  0  0
 19 21  1  0  0  0  0
 17 18  1  0  0  0  0
 17 19  2  0  0  0  0
 15 16  1  0  0  0  0
 15 17  1  0  0  0  0
 14 15  2  0  0  0  0
 14 23  1  0  0  0  0
 11 12  1  0  0  0  0
 11 13  1  0  0  0  0
 11 14  1  0  0  0  0
  9 10  1  0  0  0  0
  9 11  1  0  0  0  0
  9 25  1  0  0  0  0
  7  8  1  0  0  0  0
  7  9  1  0  0  0  0
 29 30  1  0  0  0  0
 29 31  1  0  0  0  0
 29 32  1  0  0  0  0
 27 28  1  0  0  0  0
 27 29  1  0  0  0  0
M  END
$$$$
default_name
  -OEChem-02102213163D

 32 32  0     1  0  0  0  0  0999 V2000
   -3.8405   -3.7518    1.6252 H   0  0  0  0  0  0  0  0  0  0  0  0
   -3.7965   -2.8768    0.9782 C   0  0  0  0  0  0  0  0  0  0  0  0
   -4.5465   -2.1527    1.2902 H   0  0  0  0  0  0  0  0  0  0  0  0
   -3.9745   -3.1748   -0.0538 H   0  0  0  0  0  0  0  0  0  0  0  0
   -2.4245   -2.2537    1.0882 C   0  0  0  0  0  0  0  0  0  0  0  0
   -1.5805   -2.7478    1.8242 O   0  0  0  0  0  0  0  0  0  0  0  0
   -2.2045   -1.1637    0.3562 N   0  0  0  0  0  0  0  0  0  0  0  0
   -2.9595   -0.7907   -0.2008 H   0  0  0  0  0  0  0  0  0  0  0  0
   -0.9485   -0.4087    0.3482 C   0  0  1  0  0  0  0  0  0  0  0  0
   -0.1408   -1.0795    0.0507 H   0  0  0  0  0  0  0  0  0  0  0  0
   -1.0432    0.7243   -0.6879 C   0  0  0  0  0  0  0  0  0  0  0  0
   -0.8968    1.6803   -0.1832 H   0  0  0  0  0  0  0  0  0  0  0  0
   -0.2357    0.6094   -1.4125 H   0  0  0  0  0  0  0  0  0  0  0  0
   -2.3699    0.7782   -1.4213 C   0  0  0  0  0  0  0  0  0  0  0  0
   -2.7317    1.9221   -2.1579 C   0  0  0  0  0  0  0  0  0  0  0  0
   -2.0744    2.7797   -2.1864 H   0  0  0  0  0  0  0  0  0  0  0  0
   -3.9454    1.9488   -2.8693 C   0  0  0  0  0  0  0  0  0  0  0  0
   -4.2226    2.8291   -3.4321 H   0  0  0  0  0  0  0  0  0  0  0  0
   -4.7981    0.8320   -2.8471 C   0  0  0  0  0  0  0  0  0  0  0  0
   -5.7316    0.8534   -3.3918 H   0  0  0  0  0  0  0  0  0  0  0  0
   -4.4402   -0.3121   -2.1109 C   0  0  0  0  0  0  0  0  0  0  0  0
   -5.0980   -1.1685   -2.0893 H   0  0  0  0  0  0  0  0  0  0  0  0
   -3.2288   -0.3372   -1.3974 C   0  0  0  0  0  0  0  0  0  0  0  0
   -2.9562   -1.2167   -0.8286 H   0  0  0  0  0  0  0  0  0  0  0  0
   -0.6196    0.1253    1.7539 C   0  0  0  0  0  0  0  0  0  0  0  0
    0.5216    0.0194    2.2054 O   0  0  0  0  0  0  0  0  0  0  0  0
   -1.6152    0.6924    2.4469 N   0  0  0  0  0  0  0  0  0  0  0  0
   -2.5345    0.6914    2.0318 H   0  0  0  0  0  0  0  0  0  0  0  0
   -1.4720    1.2390    3.7941 C   0  0  0  0  0  0  0  0  0  0  0  0
   -0.6345    1.9391    3.8219 H   0  0  0  0  0  0  0  0  0  0  0  0
   -2.3844    1.7580    4.0892 H   0  0  0  0  0  0  0  0  0  0  0  0
   -1.2733    0.4298    4.4995 H   0  0  0  0  0  0  0  0  0  0  0  0
  5  6  2  0  0  0  0
  5  7  1  0  0  0  0
  2  3  1  0  0  0  0
  2  4  1  0  0  0  0
  2  5  1  0  0  0  0
  1  2  1  0  0  0  0
 25 26  2  0  0  0  0
 25 27  1  0  0  0  0
 23 24  1  0  0  0  0
 21 22  1  0  0  0  0
 21 23  2  0  0  0  0
 19 20  1  0  0  0  0
 19 21  1  0  0  0  0
 17 18  1  0  0  0  0
 17 19  2  0  0  0  0
 15 16  1  0  0  0  0
 15 17  1  0  0  0  0
 14 15  2  0  0  0  0
 14 23  1  0  0  0  0
 11 12  1  0  0  0  0
 11 13  1  0  0  0  0
 11 14  1  0  0  0  0
  9 10  1  0  0  0  0
  9 11  1  0  0  0  0
  9 25  1  0  0  0  0
  7  8  1  0  0  0  0
  7  9  1  0  0  0  0
 29 30  1  0  0  0  0
 29 31  1  0  0  0  0
 29 32  1  0  0  0  0
 27 28  1  0  0  0  0
 27 29  1  0  0  0  0
M  END
$$$$
default_name
  -OEChem-02102213163D

 32 32  0     1  0  0  0  0  0999 V2000
   -3.8405   -3.7518    1.6252 H   0  0  0  0  0  0  0  0  0  0  0  0
   -3.7965   -2.8768    0.9782 C   0  0  0  0  0  0  0  0  0  0  0  0
   -4.5465   -2.1527    1.2902 H   0  0  0  0  0  0  0  0  0  0  0  0
   -3.9745   -3.1748   -0.0538 H   0  0  0  0  0  0  0  0  0  0  0  0
   -2.4245   -2.2537    1.0882 C   0  0  0  0  0  0  0  0  0  0  0  0
   -1.5805   -2.7478    1.8242 O   0  0  0  0  0  0  0  0  0  0  0  0
   -2.2045   -1.1637    0.3562 N   0  0  0  0  0  0  0  0  0  0  0  0
   -2.9595   -0.7907   -0.2008 H   0  0  0  0  0  0  0  0  0  0  0  0
   -0.9485   -0.4087    0.3482 C   0  0  1  0  0  0  0  0  0  0  0  0
   -0.1408   -1.0795    0.0507 H   0  0  0  0  0  0  0  0  0  0  0  0
   -1.0432    0.7243   -0.6879 C   0  0  0  0  0  0  0  0  0  0  0  0
   -0.6396    1.6392   -0.2517 H   0  0  0  0  0  0  0  0  0  0  0  0
   -0.4221    0.4699   -1.5481 H   0  0  0  0  0  0  0  0  0  0  0  0
   -2.4564    1.0114   -1.1584 C   0  0  0  0  0  0  0  0  0  0  0  0
   -2.7007    2.0226   -2.1069 C   0  0  0  0  0  0  0  0  0  0  0  0
   -1.8831    2.6170   -2.4895 H   0  0  0  0  0  0  0  0  0  0  0  0
   -4.0092    2.2554   -2.5692 C   0  0  0  0  0  0  0  0  0  0  0  0
   -4.1950    3.0340   -3.2957 H   0  0  0  0  0  0  0  0  0  0  0  0
   -5.0746    1.4770   -2.0858 C   0  0  0  0  0  0  0  0  0  0  0  0
   -6.0801    1.6575   -2.4393 H   0  0  0  0  0  0  0  0  0  0  0  0
   -4.8341    0.4668   -1.1368 C   0  0  0  0  0  0  0  0  0  0  0  0
   -5.6537   -0.1279   -0.7610 H   0  0  0  0  0  0  0  0  0  0  0  0
   -3.5269    0.2366   -0.6725 C   0  0  0  0  0  0  0  0  0  0  0  0
   -3.3436   -0.5386    0.0601 H   0  0  0  0  0  0  0  0  0  0  0  0
   -0.6196    0.1253    1.7539 C   0  0  0  0  0  0  0  0  0  0  0  0
    0.5216    0.0194    2.2054 O   0  0  0  0  0  0  0  0  0  0  0  0
   -1.6152    0.6924    2.4469 N   0  0  0  0  0  0  0  0  0  0  0  0
   -2.5345    0.6914    2.0318 H   0  0  0  0  0  0  0  0  0  0  0  0
   -1.4720    1.2390    3.7941 C   0  0  0  0  0  0  0  0  0  0  0  0
   -0.6345    1.9391    3.8219 H   0  0  0  0  0  0  0  0  0  0  0  0
   -2.3844    1.7580    4.0892 H   0  0  0  0  0  0  0  0  0  0  0  0
   -1.2733    0.4298    4.4995 H   0  0  0  0  0  0  0  0  0  0  0  0
  5  6  2  0  0  0  0
  5  7  1  0  0  0  0
  2  3  1  0  0  0  0
  2  4  1  0  0  0  0
  2  5  1  0  0  0  0
  1  2  1  0  0  0  0
 25 26  2  0  0  0  0
 25 27  1  0  0  0  0
 23 24  1  0  0  0  0
 21 22  1  0  0  0  0
 21 23  2  0  0  0  0
 19 20  1  0  0  0  0
 19 21  1  0  0  0  0
 17 18  1  0  0  0  0
 17 19  2  0  0  0  0
 15 16  1  0  0  0  0
 15 17  1  0  0  0  0
 14 15  2  0  0  0  0
 14 23  1  0  0  0  0
 11 12  1  0  0  0  0
 11 13  1  0  0  0  0
 11 14  1  0  0  0  0
  9 10  1  0  0  0  0
  9 11  1  0  0  0  0
  9 25  1  0  0  0  0
  7  8  1  0  0  0  0
  7  9  1  0  0  0  0
 29 30  1  0  0  0  0
 29 31  1  0  0  0  0
 29 32  1  0  0  0  0
 27 28  1  0  0  0  0
 27 29  1  0  0  0  0
M  END
$$$$
default_name
  -OEChem-02102213163D

 32 32  0     1  0  0  0  0  0999 V2000
   -3.8405   -3.7518    1.6252 H   0  0  0  0  0  0  0  0  0  0  0  0
   -3.7965   -2.8768    0.9782 C   0  0  0  0  0  0  0  0  0  0  0  0
   -4.5465   -2.1527    1.2902 H   0  0  0  0  0  0  0  0  0  0  0  0
   -3.9745   -3.1748   -0.0538 H   0  0  0  0  0  0  0  0  0  0  0  0
   -2.4245   -2.2537    1.0882 C   0  0  0  0  0  0  0  0  0  0  0  0
   -1.5805   -2.7478    1.8242 O   0  0  0  0  0  0  0  0  0  0  0  0
   -2.2045   -1.1637    0.3562 N   0  0  0  0  0  0  0  0  0  0  0  0
   -2.9595   -0.7907   -0.2008 H   0  0  0  0  0  0  0  0  0  0  0  0
   -0.9485   -0.4087    0.3482 C   0  0  1  0  0  0  0  0  0  0  0  0
   -0.1408   -1.0795    0.0507 H   0  0  0  0  0  0  0  0  0  0  0  0
   -1.0432    0.7243   -0.6879 C   0  0  0  0  0  0  0  0  0  0  0  0
   -0.6396    1.6392   -0.2517 H   0  0  0  0  0  0  0  0  0  0  0  0
   -0.4221    0.4699   -1.5481 H   0  0  0  0  0  0  0  0  0  0  0  0
   -2.4564    1.0114   -1.1584 C   0  0  0  0  0  0  0  0  0  0  0  0
   -2.6804    1.7836   -2.3140 C   0  0  0  0  0  0  0  0  0  0  0  0
   -1.8447    2.1965   -2.8613 H   0  0  0  0  0  0  0  0  0  0  0  0
   -3.9928    2.0111   -2.7674 C   0  0  0  0  0  0  0  0  0  0  0  0
   -4.1627    2.6064   -3.6536 H   0  0  0  0  0  0  0  0  0  0  0  0
   -5.0828    1.4658   -2.0680 C   0  0  0  0  0  0  0  0  0  0  0  0
   -6.0912    1.6426   -2.4150 H   0  0  0  0  0  0  0  0  0  0  0  0
   -4.8625    0.6950   -0.9120 C   0  0  0  0  0  0  0  0  0  0  0  0
   -5.7005    0.2804   -0.3711 H   0  0  0  0  0  0  0  0  0  0  0  0
   -3.5510    0.4706   -0.4572 C   0  0  0  0  0  0  0  0  0  0  0  0
   -3.3831   -0.1198    0.4342 H   0  0  0  0  0  0  0  0  0  0  0  0
   -0.6196    0.1253    1.7539 C   0  0  0  0  0  0  0  0  0  0  0  0
    0.5216    0.0194    2.2054 O   0  0  0  0  0  0  0  0  0  0  0  0
   -1.6152    0.6924    2.4469 N   0  0  0  0  0  0  0  0  0  0  0  0
   -2.5345    0.6914    2.0318 H   0  0  0  0  0  0  0  0  0  0  0  0
   -1.4720    1.2390    3.7941 C   0  0  0  0  0  0  0  0  0  0  0  0
   -0.6345    1.9391    3.8219 H   0  0  0  0  0  0  0  0  0  0  0  0
   -2.3844    1.7580    4.0892 H   0  0  0  0  0  0  0  0  0  0  0  0
   -1.2733    0.4298    4.4995 H   0  0  0  0  0  0  0  0  0  0  0  0
  5  6  2  0  0  0  0
  5  7  1  0  0  0  0
  2  3  1  0  0  0  0
  2  4  1  0  0  0  0
  2  5  1  0  0  0  0
  1  2  1  0  0  0  0
 25 26  2  0  0  0  0
 25 27  1  0  0  0  0
 23 24  1  0  0  0  0
 21 22  1  0  0  0  0
 21 23  2  0  0  0  0
 19 20  1  0  0  0  0
 19 21  1  0  0  0  0
 17 18  1  0  0  0  0
 17 19  2  0  0  0  0
 15 16  1  0  0  0  0
 15 17  1  0  0  0  0
 14 15  2  0  0  0  0
 14 23  1  0  0  0  0
 11 12  1  0  0  0  0
 11 13  1  0  0  0  0
 11 14  1  0  0  0  0
  9 10  1  0  0  0  0
  9 11  1  0  0  0  0
  9 25  1  0  0  0  0
  7  8  1  0  0  0  0
  7  9  1  0  0  0  0
 29 30  1  0  0  0  0
 29 31  1  0  0  0  0
 29 32  1  0  0  0  0
 27 28  1  0  0  0  0
 27 29  1  0  0  0  0
M  END
$$$$
default_name
  -OEChem-02102213163D

 32 32  0     1  0  0  0  0  0999 V2000
   -3.8405   -3.7518    1.6252 H   0  0  0  0  0  0  0  0  0  0  0  0
   -3.7965   -2.8768    0.9782 C   0  0  0  0  0  0  0  0  0  0  0  0
   -4.5465   -2.1527    1.2902 H   0  0  0  0  0  0  0  0  0  0  0  0
   -3.9745   -3.1748   -0.0538 H   0  0  0  0  0  0  0  0  0  0  0  0
   -2.4245   -2.2537    1.0882 C   0  0  0  0  0  0  0  0  0  0  0  0
   -1.5805   -2.7478    1.8242 O   0  0  0  0  0  0  0  0  0  0  0  0
   -2.2045   -1.1637    0.3562 N   0  0  0  0  0  0  0  0  0  0  0  0
   -2.9595   -0.7907   -0.2008 H   0  0  0  0  0  0  0  0  0  0  0  0
   -0.9485   -0.4087    0.3482 C   0  0  1  0  0  0  0  0  0  0  0  0
   -0.1408   -1.0795    0.0507 H   0  0  0  0  0  0  0  0  0  0  0  0
   -1.0432    0.7243   -0.6879 C   0  0  0  0  0  0  0  0  0  0  0  0
   -0.6396    1.6392   -0.2517 H   0  0  0  0  0  0  0  0  0  0  0  0
   -0.4221    0.4699   -1.5481 H   0  0  0  0  0  0  0  0  0  0  0  0
   -2.4564    1.0114   -1.1584 C   0  0  0  0  0  0  0  0  0  0  0  0
   -2.6900    1.5012   -2.4574 C   0  0  0  0  0  0  0  0  0  0  0  0
   -1.8597    1.6975   -3.1209 H   0  0  0  0  0  0  0  0  0  0  0  0
   -4.0064    1.7260   -2.9008 C   0  0  0  0  0  0  0  0  0  0  0  0
   -4.1834    2.1046   -3.8977 H   0  0  0  0  0  0  0  0  0  0  0  0
   -5.0908    1.4600   -2.0476 C   0  0  0  0  0  0  0  0  0  0  0  0
   -6.1019    1.6350   -2.3875 H   0  0  0  0  0  0  0  0  0  0  0  0
   -4.8607    0.9720   -0.7484 C   0  0  0  0  0  0  0  0  0  0  0  0
   -5.6939    0.7726   -0.0906 H   0  0  0  0  0  0  0  0  0  0  0  0
   -3.5450    0.7505   -0.3044 C   0  0  0  0  0  0  0  0  0  0  0  0
   -3.3692    0.3782    0.6965 H   0  0  0  0  0  0  0  0  0  0  0  0
   -0.6196    0.1253    1.7539 C   0  0  0  0  0  0  0  0  0  0  0  0
    0.5216    0.0194    2.2054 O   0  0  0  0  0  0  0  0  0  0  0  0
   -1.6152    0.6924    2.4469 N   0  0  0  0  0  0  0  0  0  0  0  0
   -2.5345    0.6914    2.0318 H   0  0  0  0  0  0  0  0  0  0  0  0
   -1.4720    1.2390    3.7941 C   0  0  0  0  0  0  0  0  0  0  0  0
   -0.6345    1.9391    3.8219 H   0  0  0  0  0  0  0  0  0  0  0  0
   -2.3844    1.7580    4.0892 H   0  0  0  0  0  0  0  0  0  0  0  0
   -1.2733    0.4298    4.4995 H   0  0  0  0  0  0  0  0  0  0  0  0
  5  6  2  0  0  0  0
  5  7  1  0  0  0  0
  2  3  1  0  0  0  0
  2  4  1  0  0  0  0
  2  5  1  0  0  0  0
  1  2  1  0  0  0  0
 25 26  2  0  0  0  0
 25 27  1  0  0  0  0
 23 24  1  0  0  0  0
 21 22  1  0  0  0  0
 21 23  2  0  0  0  0
 19 20  1  0  0  0  0
 19 21  1  0  0  0  0
 17 18  1  0  0  0  0
 17 19  2  0  0  0  0
 15 16  1  0  0  0  0
 15 17  1  0  0  0  0
 14 15  2  0  0  0  0
 14 23  1  0  0  0  0
 11 12  1  0  0  0  0
 11 13  1  0  0  0  0
 11 14  1  0  0  0  0
  9 10  1  0  0  0  0
  9 11  1  0  0  0  0
  9 25  1  0  0  0  0
  7  8  1  0  0  0  0
  7  9  1  0  0  0  0
 29 30  1  0  0  0  0
 29 31  1  0  0  0  0
 29 32  1  0  0  0  0
 27 28  1  0  0  0  0
 27 29  1  0  0  0  0
M  END
$$$$
default_name
  -OEChem-02102213163D

 32 32  0     1  0  0  0  0  0999 V2000
   -3.8405   -3.7518    1.6252 H   0  0  0  0  0  0  0  0  0  0  0  0
   -3.7965   -2.8768    0.9782 C   0  0  0  0  0  0  0  0  0  0  0  0
   -4.5465   -2.1527    1.2902 H   0  0  0  0  0  0  0  0  0  0  0  0
   -3.9745   -3.1748   -0.0538 H   0  0  0  0  0  0  0  0  0  0  0  0
   -2.4245   -2.2537    1.0882 C   0  0  0  0  0  0  0  0  0  0  0  0
   -1.5805   -2.7478    1.8242 O   0  0  0  0  0  0  0  0  0  0  0  0
   -2.2045   -1.1637    0.3562 N   0  0  0  0  0  0  0  0  0  0  0  0
   -2.9595   -0.7907   -0.2008 H   0  0  0  0  0  0  0  0  0  0  0  0
   -0.9485   -0.4087    0.3482 C   0  0  1  0  0  0  0  0  0  0  0  0
   -0.1408   -1.0795    0.0507 H   0  0  0  0  0  0  0  0  0  0  0  0
   -1.0432    0.7243   -0.6879 C   0  0  0  0  0  0  0  0  0  0  0  0
   -0.6396    1.6392   -0.2517 H   0  0  0  0  0  0  0  0  0  0  0  0
   -0.4221    0.4699   -1.5481 H   0  0  0  0  0  0  0  0  0  0  0  0
   -2.4564    1.0114   -1.1584 C   0  0  0  0  0  0  0  0  0  0  0  0
   -2.7290    1.1946   -2.5273 C   0  0  0  0  0  0  0  0  0  0  0  0
   -1.9269    1.1542   -3.2506 H   0  0  0  0  0  0  0  0  0  0  0  0
   -4.0488    1.4196   -2.9602 C   0  0  0  0  0  0  0  0  0  0  0  0
   -4.2557    1.5626   -4.0115 H   0  0  0  0  0  0  0  0  0  0  0  0
   -5.0979    1.4599   -2.0261 C   0  0  0  0  0  0  0  0  0  0  0  0
   -6.1116    1.6351   -2.3585 H   0  0  0  0  0  0  0  0  0  0  0  0
   -4.8287    1.2787   -0.6573 C   0  0  0  0  0  0  0  0  0  0  0  0
   -5.6343    1.3151    0.0614 H   0  0  0  0  0  0  0  0  0  0  0  0
   -3.5092    1.0572   -0.2247 C   0  0  0  0  0  0  0  0  0  0  0  0
   -3.3030    0.9213    0.8290 H   0  0  0  0  0  0  0  0  0  0  0  0
   -0.6196    0.1253    1.7539 C   0  0  0  0  0  0  0  0  0  0  0  0
    0.5216    0.0194    2.2054 O   0  0  0  0  0  0  0  0  0  0  0  0
   -1.6152    0.6924    2.4469 N   0  0  0  0  0  0  0  0  0  0  0  0
   -2.5345    0.6914    2.0318 H   0  0  0  0  0  0  0  0  0  0  0  0
   -1.4720    1.2390    3.7941 C   0  0  0  0  0  0  0  0  0  0  0  0
   -0.6345    1.9391    3.8219 H   0  0  0  0  0  0  0  0  0  0  0  0
   -2.3844    1.7580    4.0892 H   0  0  0  0  0  0  0  0  0  0  0  0
   -1.2733    0.4298    4.4995 H   0  0  0  0  0  0  0  0  0  0  0  0
  5  6  2  0  0  0  0
  5  7  1  0  0  0  0
  2  3  1  0  0  0  0
  2  4  1  0  0  0  0
  2  5  1  0  0  0  0
  1  2  1  0  0  0  0
 25 26  2  0  0  0  0
 25 27  1  0  0  0  0
 23 24  1  0  0  0  0
 21 22  1  0  0  0  0
 21 23  2  0  0  0  0
 19 20  1  0  0  0  0
 19 21  1  0  0  0  0
 17 18  1  0  0  0  0
 17 19  2  0  0  0  0
 15 16  1  0  0  0  0
 15 17  1  0  0  0  0
 14 15  2  0  0  0  0
 14 23  1  0  0  0  0
 11 12  1  0  0  0  0
 11 13  1  0  0  0  0
 11 14  1  0  0  0  0
  9 10  1  0  0  0  0
  9 11  1  0  0  0  0
  9 25  1  0  0  0  0
  7  8  1  0  0  0  0
  7  9  1  0  0  0  0
 29 30  1  0  0  0  0
 29 31  1  0  0  0  0
 29 32  1  0  0  0  0
 27 28  1  0  0  0  0
 27 29  1  0  0  0  0
M  END
$$$$
default_name
  -OEChem-02102213163D

 32 32  0     1  0  0  0  0  0999 V2000
   -3.8405   -3.7518    1.6252 H   0  0  0  0  0  0  0  0  0  0  0  0
   -3.7965   -2.8768    0.9782 C   0  0  0  0  0  0  0  0  0  0  0  0
   -4.5465   -2.1527    1.2902 H   0  0  0  0  0  0  0  0  0  0  0  0
   -3.9745   -3.1748   -0.0538 H   0  0  0  0  0  0  0  0  0  0  0  0
   -2.4245   -2.2537    1.0882 C   0  0  0  0  0  0  0  0  0  0  0  0
   -1.5805   -2.7478    1.8242 O   0  0  0  0  0  0  0  0  0  0  0  0
   -2.2045   -1.1637    0.3562 N   0  0  0  0  0  0  0  0  0  0  0  0
   -2.9595   -0.7907   -0.2008 H   0  0  0  0  0  0  0  0  0  0  0  0
   -0.9485   -0.4087    0.3482 C   0  0  1  0  0  0  0  0  0  0  0  0
   -0.1408   -1.0795    0.0507 H   0  0  0  0  0  0  0  0  0  0  0  0
   -1.0432    0.7243   -0.6879 C   0  0  0  0  0  0  0  0  0  0  0  0
   -0.6396    1.6392   -0.2517 H   0  0  0  0  0  0  0  0  0  0  0  0
   -0.4221    0.4699   -1.5481 H   0  0  0  0  0  0  0  0  0  0  0  0
   -2.4564    1.0114   -1.1584 C   0  0  0  0  0  0  0  0  0  0  0  0
   -2.7948    0.8848   -2.5190 C   0  0  0  0  0  0  0  0  0  0  0  0
   -2.0418    0.6035   -3.2417 H   0  0  0  0  0  0  0  0  0  0  0  0
   -4.1174    1.1127   -2.9416 C   0  0  0  0  0  0  0  0  0  0  0  0
   -4.3745    1.0175   -3.9872 H   0  0  0  0  0  0  0  0  0  0  0  0
   -5.1038    1.4656   -2.0051 C   0  0  0  0  0  0  0  0  0  0  0  0
   -6.1194    1.6430   -2.3301 H   0  0  0  0  0  0  0  0  0  0  0  0
   -4.7687    1.5944   -0.6449 C   0  0  0  0  0  0  0  0  0  0  0  0
   -5.5256    1.8710    0.0744 H   0  0  0  0  0  0  0  0  0  0  0  0
   -3.4461    1.3698   -0.2233 C   0  0  0  0  0  0  0  0  0  0  0  0
   -3.1889    1.4725    0.8229 H   0  0  0  0  0  0  0  0  0  0  0  0
   -0.6196    0.1253    1.7539 C   0  0  0  0  0  0  0  0  0  0  0  0
    0.5216    0.0194    2.2054 O   0  0  0  0  0  0  0  0  0  0  0  0
   -1.6152    0.6924    2.4469 N   0  0  0  0  0  0  0  0  0  0  0  0
   -2.5345    0.6914    2.0318 H   0  0  0  0  0  0  0  0  0  0  0  0
   -1.4720    1.2390    3.7941 C   0  0  0  0  0  0  0  0  0  0  0  0
   -0.6345    1.9391    3.8219 H   0  0  0  0  0  0  0  0  0  0  0  0
   -2.3844    1.7580    4.0892 H   0  0  0  0  0  0  0  0  0  0  0  0
   -1.2733    0.4298    4.4995 H   0  0  0  0  0  0  0  0  0  0  0  0
  5  6  2  0  0  0  0
  5  7  1  0  0  0  0
  2  3  1  0  0  0  0
  2  4  1  0  0  0  0
  2  5  1  0  0  0  0
  1  2  1  0  0  0  0
 25 26  2  0  0  0  0
 25 27  1  0  0  0  0
 23 24  1  0  0  0  0
 21 22  1  0  0  0  0
 21 23  2  0  0  0  0
 19 20  1  0  0  0  0
 19 21  1  0  0  0  0
 17 18  1  0  0  0  0
 17 19  2  0  0  0  0
 15 16  1  0  0  0  0
 15 17  1  0  0  0  0
 14 15  2  0  0  0  0
 14 23  1  0  0  0  0
 11 12  1  0  0  0  0
 11 13  1  0  0  0  0
 11 14  1  0  0  0  0
  9 10  1  0  0  0  0
  9 11  1  0  0  0  0
  9 25  1  0  0  0  0
  7  8  1  0  0  0  0
  7  9  1  0  0  0  0
 29 30  1  0  0  0  0
 29 31  1  0  0  0  0
 29 32  1  0  0  0  0
 27 28  1  0  0  0  0
 27 29  1  0  0  0  0
M  END
$$$$
default_name
  -OEChem-02102213163D

 32 32  0     1  0  0  0  0  0999 V2000
   -3.8405   -3.7518    1.6252 H   0  0  0  0  0  0  0  0  0  0  0  0
   -3.7965   -2.8768    0.9782 C   0  0  0  0  0  0  0  0  0  0  0  0
   -4.5465   -2.1527    1.2902 H   0  0  0  0  0  0  0  0  0  0  0  0
   -3.9745   -3.1748   -0.0538 H   0  0  0  0  0  0  0  0  0  0  0  0
   -2.4245   -2.2537    1.0882 C   0  0  0  0  0  0  0  0  0  0  0  0
   -1.5805   -2.7478    1.8242 O   0  0  0  0  0  0  0  0  0  0  0  0
   -2.2045   -1.1637    0.3562 N   0  0  0  0  0  0  0  0  0  0  0  0
   -2.9595   -0.7907   -0.2008 H   0  0  0  0  0  0  0  0  0  0  0  0
   -0.9485   -0.4087    0.3482 C   0  0  1  0  0  0  0  0  0  0  0  0
   -0.1408   -1.0795    0.0507 H   0  0  0  0  0  0  0  0  0  0  0  0
   -1.0432    0.7243   -0.6879 C   0  0  0  0  0  0  0  0  0  0  0  0
   -0.6396    1.6392   -0.2517 H   0  0  0  0  0  0  0  0  0  0  0  0
   -0.4221    0.4699   -1.5481 H   0  0  0  0  0  0  0  0  0  0  0  0
   -2.4564    1.0114   -1.1584 C   0  0  0  0  0  0  0  0  0  0  0  0
   -2.8827    0.5928   -2.4331 C   0  0  0  0  0  0  0  0  0  0  0  0
   -2.1965    0.0830   -3.0945 H   0  0  0  0  0  0  0  0  0  0  0  0
   -4.2073    0.8263   -2.8463 C   0  0  0  0  0  0  0  0  0  0  0  0
   -4.5319    0.5063   -3.8265 H   0  0  0  0  0  0  0  0  0  0  0  0
   -5.1080    1.4766   -1.9857 C   0  0  0  0  0  0  0  0  0  0  0  0
   -6.1250    1.6581   -2.3042 H   0  0  0  0  0  0  0  0  0  0  0  0
   -4.6848    1.8976   -0.7119 C   0  0  0  0  0  0  0  0  0  0  0  0
   -5.3755    2.4023   -0.0524 H   0  0  0  0  0  0  0  0  0  0  0  0
   -3.3600    1.6670   -0.3005 C   0  0  0  0  0  0  0  0  0  0  0  0
   -3.0348    1.9944    0.6784 H   0  0  0  0  0  0  0  0  0  0  0  0
   -0.6196    0.1253    1.7539 C   0  0  0  0  0  0  0  0  0  0  0  0
    0.5216    0.0194    2.2054 O   0  0  0  0  0  0  0  0  0  0  0  0
   -1.6152    0.6924    2.4469 N   0  0  0  0  0  0  0  0  0  0  0  0
   -2.5345    0.6914    2.0318 H   0  0  0  0  0  0  0  0  0  0  0  0
   -1.4720    1.2390    3.7941 C   0  0  0  0  0  0  0  0  0  0  0  0
   -0.6345    1.9391    3.8219 H   0  0  0  0  0  0  0  0  0  0  0  0
   -2.3844    1.7580    4.0892 H   0  0  0  0  0  0  0  0  0  0  0  0
   -1.2733    0.4298    4.4995 H   0  0  0  0  0  0  0  0  0  0  0  0
  5  6  2  0  0  0  0
  5  7  1  0  0  0  0
  2  3  1  0  0  0  0
  2  4  1  0  0  0  0
  2  5  1  0  0  0  0
  1  2  1  0  0  0  0
 25 26  2  0  0  0  0
 25 27  1  0  0  0  0
 23 24  1  0  0  0  0
 21 22  1  0  0  0  0
 21 23  2  0  0  0  0
 19 20  1  0  0  0  0
 19 21  1  0  0  0  0
 17 18  1  0  0  0  0
 17 19  2  0  0  0  0
 15 16  1  0  0  0  0
 15 17  1  0  0  0  0
 14 15  2  0  0  0  0
 14 23  1  0  0  0  0
 11 12  1  0  0  0  0
 11 13  1  0  0  0  0
 11 14  1  0  0  0  0
  9 10  1  0  0  0  0
  9 11  1  0  0  0  0
  9 25  1  0  0  0  0
  7  8  1  0  0  0  0
  7  9  1  0  0  0  0
 29 30  1  0  0  0  0
 29 31  1  0  0  0  0
 29 32  1  0  0  0  0
 27 28  1  0  0  0  0
 27 29  1  0  0  0  0
M  END
$$$$
default_name
  -OEChem-02102213163D

 32 32  0     1  0  0  0  0  0999 V2000
   -3.8405   -3.7518    1.6252 H   0  0  0  0  0  0  0  0  0  0  0  0
   -3.7965   -2.8768    0.9782 C   0  0  0  0  0  0  0  0  0  0  0  0
   -4.5465   -2.1527    1.2902 H   0  0  0  0  0  0  0  0  0  0  0  0
   -3.9745   -3.1748   -0.0538 H   0  0  0  0  0  0  0  0  0  0  0  0
   -2.4245   -2.2537    1.0882 C   0  0  0  0  0  0  0  0  0  0  0  0
   -1.5805   -2.7478    1.8242 O   0  0  0  0  0  0  0  0  0  0  0  0
   -2.2045   -1.1637    0.3562 N   0  0  0  0  0  0  0  0  0  0  0  0
   -2.9595   -0.7907   -0.2008 H   0  0  0  0  0  0  0  0  0  0  0  0
   -0.9485   -0.4087    0.3482 C   0  0  1  0  0  0  0  0  0  0  0  0
   -0.1408   -1.0795    0.0507 H   0  0  0  0  0  0  0  0  0  0  0  0
   -1.0432    0.7243   -0.6879 C   0  0  0  0  0  0  0  0  0  0  0  0
   -0.6396    1.6392   -0.2517 H   0  0  0  0  0  0  0  0  0  0  0  0
   -0.4221    0.4699   -1.5481 H   0  0  0  0  0  0  0  0  0  0  0  0
   -2.4564    1.0114   -1.1584 C   0  0  0  0  0  0  0  0  0  0  0  0
   -2.9869    0.3385   -2.2753 C   0  0  0  0  0  0  0  0  0  0  0  0
   -2.3806   -0.3720   -2.8194 H   0  0  0  0  0  0  0  0  0  0  0  0
   -4.3125    0.5798   -2.6807 C   0  0  0  0  0  0  0  0  0  0  0  0
   -4.7170    0.0639   -3.5402 H   0  0  0  0  0  0  0  0  0  0  0  0
   -5.1102    1.4922   -1.9696 C   0  0  0  0  0  0  0  0  0  0  0  0
   -6.1279    1.6794   -2.2825 H   0  0  0  0  0  0  0  0  0  0  0  0
   -4.5827    2.1675   -0.8539 C   0  0  0  0  0  0  0  0  0  0  0  0
   -5.1940    2.8729   -0.3104 H   0  0  0  0  0  0  0  0  0  0  0  0
   -3.2568    1.9286   -0.4509 C   0  0  0  0  0  0  0  0  0  0  0  0
   -2.8511    2.4512    0.4055 H   0  0  0  0  0  0  0  0  0  0  0  0
   -0.6196    0.1253    1.7539 C   0  0  0  0  0  0  0  0  0  0  0  0
    0.5216    0.0194    2.2054 O   0  0  0  0  0  0  0  0  0  0  0  0
   -1.6152    0.6924    2.4469 N   0  0  0  0  0  0  0  0  0  0  0  0
   -2.5345    0.6914    2.0318 H   0  0  0  0  0  0  0  0  0  0  0  0
   -1.4720    1.2390    3.7941 C   0  0  0  0  0  0  0  0  0  0  0  0
   -0.6345    1.9391    3.8219 H   0  0  0  0  0  0  0  0  0  0  0  0
   -2.3844    1.7580    4.0892 H   0  0  0  0  0  0  0  0  0  0  0  0
   -1.2733    0.4298    4.4995 H   0  0  0  0  0  0  0  0  0  0  0  0
  5  6  2  0  0  0  0
  5  7  1  0  0  0  0
  2  3  1  0  0  0  0
  2  4  1  0  0  0  0
  2  5  1  0  0  0  0
  1  2  1  0  0  0  0
 25 26  2  0  0  0  0
 25 27  1  0  0  0  0
 23 24  1  0  0  0  0
 21 22  1  0  0  0  0
 21 23  2  0  0  0  0
 19 20  1  0  0  0  0
 19 21  1  0  0  0  0
 17 18  1  0  0  0  0
 17 19  2  0  0  0  0
 15 16  1  0  0  0  0
 15 17  1  0  0  0  0
 14 15  2  0  0  0  0
 14 23  1  0  0  0  0
 11 12  1  0  0  0  0
 11 13  1  0  0  0  0
 11 14  1  0  0  0  0
  9 10  1  0  0  0  0
  9 11  1  0  0  0  0
  9 25  1  0  0  0  0
  7  8  1  0  0  0  0
  7  9  1  0  0  0  0
 29 30  1  0  0  0  0
 29 31  1  0  0  0  0
 29 32  1  0  0  0  0
 27 28  1  0  0  0  0
 27 29  1  0  0  0  0
M  END
$$$$
default_name
  -OEChem-02102213163D

 32 32  0     1  0  0  0  0  0999 V2000
   -3.8405   -3.7518    1.6252 H   0  0  0  0  0  0  0  0  0  0  0  0
   -3.7965   -2.8768    0.9782 C   0  0  0  0  0  0  0  0  0  0  0  0
   -4.5465   -2.1527    1.2902 H   0  0  0  0  0  0  0  0  0  0  0  0
   -3.9745   -3.1748   -0.0538 H   0  0  0  0  0  0  0  0  0  0  0  0
   -2.4245   -2.2537    1.0882 C   0  0  0  0  0  0  0  0  0  0  0  0
   -1.5805   -2.7478    1.8242 O   0  0  0  0  0  0  0  0  0  0  0  0
   -2.2045   -1.1637    0.3562 N   0  0  0  0  0  0  0  0  0  0  0  0
   -2.9595   -0.7907   -0.2008 H   0  0  0  0  0  0  0  0  0  0  0  0
   -0.9485   -0.4087    0.3482 C   0  0  1  0  0  0  0  0  0  0  0  0
   -0.1408   -1.0795    0.0507 H   0  0  0  0  0  0  0  0  0  0  0  0
   -1.0432    0.7243   -0.6879 C   0  0  0  0  0  0  0  0  0  0  0  0
   -0.6396    1.6392   -0.2517 H   0  0  0  0  0  0  0  0  0  0  0  0
   -0.4221    0.4699   -1.5481 H   0  0  0  0  0  0  0  0  0  0  0  0
   -2.4564    1.0114   -1.1584 C   0  0  0  0  0  0  0  0  0  0  0  0
   -3.1002    0.1393   -2.0566 C   0  0  0  0  0  0  0  0  0  0  0  0
   -2.5814   -0.7302   -2.4348 H   0  0  0  0  0  0  0  0  0  0  0  0
   -4.4258    0.3901   -2.4563 C   0  0  0  0  0  0  0  0  0  0  0  0
   -4.9174   -0.2795   -3.1480 H   0  0  0  0  0  0  0  0  0  0  0  0
   -5.1103    1.5114   -1.9576 C   0  0  0  0  0  0  0  0  0  0  0  0
   -6.1279    1.7054   -2.2665 H   0  0  0  0  0  0  0  0  0  0  0  0
   -4.4694    2.3858   -1.0611 C   0  0  0  0  0  0  0  0  0  0  0  0
   -4.9935    3.2508   -0.6819 H   0  0  0  0  0  0  0  0  0  0  0  0
   -3.1435    2.1367   -0.6644 C   0  0  0  0  0  0  0  0  0  0  0  0
   -2.6504    2.8119    0.0228 H   0  0  0  0  0  0  0  0  0  0  0  0
   -0.6196    0.1253    1.7539 C   0  0  0  0  0  0  0  0  0  0  0  0
    0.5216    0.0194    2.2054 O   0  0  0  0  0  0  0  0  0  0  0  0
   -1.6152    0.6924    2.4469 N   0  0  0  0  0  0  0  0  0  0  0  0
   -2.5345    0.6914    2.0318 H   0  0  0  0  0  0  0  0  0  0  0  0
   -1.4720    1.2390    3.7941 C   0  0  0  0  0  0  0  0  0  0  0  0
   -0.6345    1.9391    3.8219 H   0  0  0  0  0  0  0  0  0  0  0  0
   -2.3844    1.7580    4.0892 H   0  0  0  0  0  0  0  0  0  0  0  0
   -1.2733    0.4298    4.4995 H   0  0  0  0  0  0  0  0  0  0  0  0
  5  6  2  0  0  0  0
  5  7  1  0  0  0  0
  2  3  1  0  0  0  0
  2  4  1  0  0  0  0
  2  5  1  0  0  0  0
  1  2  1  0  0  0  0
 25 26  2  0  0  0  0
 25 27  1  0  0  0  0
 23 24  1  0  0  0  0
 21 22  1  0  0  0  0
 21 23  2  0  0  0  0
 19 20  1  0  0  0  0
 19 21  1  0  0  0  0
 17 18  1  0  0  0  0
 17 19  2  0  0  0  0
 15 16  1  0  0  0  0
 15 17  1  0  0  0  0
 14 15  2  0  0  0  0
 14 23  1  0  0  0  0
 11 12  1  0  0  0  0
 11 13  1  0  0  0  0
 11 14  1  0  0  0  0
  9 10  1  0  0  0  0
  9 11  1  0  0  0  0
  9 25  1  0  0  0  0
  7  8  1  0  0  0  0
  7  9  1  0  0  0  0
 29 30  1  0  0  0  0
 29 31  1  0  0  0  0
 29 32  1  0  0  0  0
 27 28  1  0  0  0  0
 27 29  1  0  0  0  0
M  END
$$$$
default_name
  -OEChem-02102213163D

 32 32  0     1  0  0  0  0  0999 V2000
   -3.8405   -3.7518    1.6252 H   0  0  0  0  0  0  0  0  0  0  0  0
   -3.7965   -2.8768    0.9782 C   0  0  0  0  0  0  0  0  0  0  0  0
   -4.5465   -2.1527    1.2902 H   0  0  0  0  0  0  0  0  0  0  0  0
   -3.9745   -3.1748   -0.0538 H   0  0  0  0  0  0  0  0  0  0  0  0
   -2.4245   -2.2537    1.0882 C   0  0  0  0  0  0  0  0  0  0  0  0
   -1.5805   -2.7478    1.8242 O   0  0  0  0  0  0  0  0  0  0  0  0
   -2.2045   -1.1637    0.3562 N   0  0  0  0  0  0  0  0  0  0  0  0
   -2.9595   -0.7907   -0.2008 H   0  0  0  0  0  0  0  0  0  0  0  0
   -0.9485   -0.4087    0.3482 C   0  0  1  0  0  0  0  0  0  0  0  0
   -0.1408   -1.0795    0.0507 H   0  0  0  0  0  0  0  0  0  0  0  0
   -1.0432    0.7243   -0.6879 C   0  0  0  0  0  0  0  0  0  0  0  0
   -0.6396    1.6392   -0.2517 H   0  0  0  0  0  0  0  0  0  0  0  0
   -0.4221    0.4699   -1.5481 H   0  0  0  0  0  0  0  0  0  0  0  0
   -2.4564    1.0114   -1.1584 C   0  0  0  0  0  0  0  0  0  0  0  0
   -3.2149    0.0087   -1.7917 C   0  0  0  0  0  0  0  0  0  0  0  0
   -2.7852   -0.9675   -1.9672 H   0  0  0  0  0  0  0  0  0  0  0  0
   -4.5394    0.2700   -2.1881 C   0  0  0  0  0  0  0  0  0  0  0  0
   -5.1192   -0.5005   -2.6765 H   0  0  0  0  0  0  0  0  0  0  0  0
   -5.1082    1.5329   -1.9506 C   0  0  0  0  0  0  0  0  0  0  0  0
   -6.1251    1.7344   -2.2574 H   0  0  0  0  0  0  0  0  0  0  0  0
   -4.3525    2.5376   -1.3194 C   0  0  0  0  0  0  0  0  0  0  0  0
   -4.7878    3.5100   -1.1417 H   0  0  0  0  0  0  0  0  0  0  0  0
   -3.0278    2.2771   -0.9263 C   0  0  0  0  0  0  0  0  0  0  0  0
   -2.4463    3.0520   -0.4438 H   0  0  0  0  0  0  0  0  0  0  0  0
   -0.6196    0.1253    1.7539 C   0  0  0  0  0  0  0  0  0  0  0  0
    0.5216    0.0194    2.2054 O   0  0  0  0  0  0  0  0  0  0  0  0
   -1.6152    0.6924    2.4469 N   0  0  0  0  0  0  0  0  0  0  0  0
   -2.5345    0.6914    2.0318 H   0  0  0  0  0  0  0  0  0  0  0  0
   -1.4720    1.2390    3.7941 C   0  0  0  0  0  0  0  0  0  0  0  0
   -0.6345    1.9391    3.8219 H   0  0  0  0  0  0  0  0  0  0  0  0
   -2.3844    1.7580    4.0892 H   0  0  0  0  0  0  0  0  0  0  0  0
   -1.2733    0.4298    4.4995 H   0  0  0  0  0  0  0  0  0  0  0  0
  5  6  2  0  0  0  0
  5  7  1  0  0  0  0
  2  3  1  0  0  0  0
  2  4  1  0  0  0  0
  2  5  1  0  0  0  0
  1  2  1  0  0  0  0
 25 26  2  0  0  0  0
 25 27  1  0  0  0  0
 23 24  1  0  0  0  0
 21 22  1  0  0  0  0
 21 23  2  0  0  0  0
 19 20  1  0  0  0  0
 19 21  1  0  0  0  0
 17 18  1  0  0  0  0
 17 19  2  0  0  0  0
 15 16  1  0  0  0  0
 15 17  1  0  0  0  0
 14 15  2  0  0  0  0
 14 23  1  0  0  0  0
 11 12  1  0  0  0  0
 11 13  1  0  0  0  0
 11 14  1  0  0  0  0
  9 10  1  0  0  0  0
  9 11  1  0  0  0  0
  9 25  1  0  0  0  0
  7  8  1  0  0  0  0
  7  9  1  0  0  0  0
 29 30  1  0  0  0  0
 29 31  1  0  0  0  0
 29 32  1  0  0  0  0
 27 28  1  0  0  0  0
 27 29  1  0  0  0  0
M  END
$$$$
default_name
  -OEChem-02102213163D

 32 32  0     1  0  0  0  0  0999 V2000
   -3.8405   -3.7518    1.6252 H   0  0  0  0  0  0  0  0  0  0  0  0
   -3.7965   -2.8768    0.9782 C   0  0  0  0  0  0  0  0  0  0  0  0
   -4.5465   -2.1527    1.2902 H   0  0  0  0  0  0  0  0  0  0  0  0
   -3.9745   -3.1748   -0.0538 H   0  0  0  0  0  0  0  0  0  0  0  0
   -2.4245   -2.2537    1.0882 C   0  0  0  0  0  0  0  0  0  0  0  0
   -1.5805   -2.7478    1.8242 O   0  0  0  0  0  0  0  0  0  0  0  0
   -2.2045   -1.1637    0.3562 N   0  0  0  0  0  0  0  0  0  0  0  0
   -2.9595   -0.7907   -0.2008 H   0  0  0  0  0  0  0  0  0  0  0  0
   -0.9485   -0.4087    0.3482 C   0  0  1  0  0  0  0  0  0  0  0  0
   -0.1408   -1.0795    0.0507 H   0  0  0  0  0  0  0  0  0  0  0  0
   -1.0432    0.7243   -0.6879 C   0  0  0  0  0  0  0  0  0  0  0  0
   -0.6396    1.6392   -0.2517 H   0  0  0  0  0  0  0  0  0  0  0  0
   -0.4221    0.4699   -1.5481 H   0  0  0  0  0  0  0  0  0  0  0  0
   -2.4564    1.0114   -1.1584 C   0  0  0  0  0  0  0  0  0  0  0  0
   -3.3232   -0.0444   -1.4987 C   0  0  0  0  0  0  0  0  0  0  0  0
   -2.9783   -1.0675   -1.4482 H   0  0  0  0  0  0  0  0  0  0  0  0
   -4.6457    0.2279   -1.8946 C   0  0  0  0  0  0  0  0  0  0  0  0
   -5.3089   -0.5842   -2.1579 H   0  0  0  0  0  0  0  0  0  0  0  0
   -5.1042    1.5551   -1.9492 C   0  0  0  0  0  0  0  0  0  0  0  0
   -6.1196    1.7643   -2.2557 H   0  0  0  0  0  0  0  0  0  0  0  0
   -4.2402    2.6125   -1.6113 C   0  0  0  0  0  0  0  0  0  0  0  0
   -4.5908    3.6331   -1.6584 H   0  0  0  0  0  0  0  0  0  0  0  0
   -2.9176    2.3403   -1.2188 C   0  0  0  0  0  0  0  0  0  0  0  0
   -2.2528    3.1550   -0.9623 H   0  0  0  0  0  0  0  0  0  0  0  0
   -0.6196    0.1253    1.7539 C   0  0  0  0  0  0  0  0  0  0  0  0
    0.5216    0.0194    2.2054 O   0  0  0  0  0  0  0  0  0  0  0  0
   -1.6152    0.6924    2.4469 N   0  0  0  0  0  0  0  0  0  0  0  0
   -2.5345    0.6914    2.0318 H   0  0  0  0  0  0  0  0  0  0  0  0
   -1.4720    1.2390    3.7941 C   0  0  0  0  0  0  0  0  0  0  0  0
   -0.6345    1.9391    3.8219 H   0  0  0  0  0  0  0  0  0  0  0  0
   -2.3844    1.7580    4.0892 H   0  0  0  0  0  0  0  0  0  0  0  0
   -1.2733    0.4298    4.4995 H   0  0  0  0  0  0  0  0  0  0  0  0
  5  6  2  0  0  0  0
  5  7  1  0  0  0  0
  2  3  1  0  0  0  0
  2  4  1  0  0  0  0
  2  5  1  0  0  0  0
  1  2  1  0  0  0  0
 25 26  2  0  0  0  0
 25 27  1  0  0  0  0
 23 24  1  0  0  0  0
 21 22  1  0  0  0  0
 21 23  2  0  0  0  0
 19 20  1  0  0  0  0
 19 21  1  0  0  0  0
 17 18  1  0  0  0  0
 17 19  2  0  0  0  0
 15 16  1  0  0  0  0
 15 17  1  0  0  0  0
 14 15  2  0  0  0  0
 14 23  1  0  0  0  0
 11 12  1  0  0  0  0
 11 13  1  0  0  0  0
 11 14  1  0  0  0  0
  9 10  1  0  0  0  0
  9 11  1  0  0  0  0
  9 25  1  0  0  0  0
  7  8  1  0  0  0  0
  7  9  1  0  0  0  0
 29 30  1  0  0  0  0
 29 31  1  0  0  0  0
 29 32  1  0  0  0  0
 27 28  1  0  0  0  0
 27 29  1  0  0  0  0
M  END
$$$$
default_name
  -OEChem-02102213163D

 32 32  0     1  0  0  0  0  0999 V2000
   -3.8405   -3.7518    1.6252 H   0  0  0  0  0  0  0  0  0  0  0  0
   -3.7965   -2.8768    0.9782 C   0  0  0  0  0  0  0  0  0  0  0  0
   -4.5465   -2.1527    1.2902 H   0  0  0  0  0  0  0  0  0  0  0  0
   -3.9745   -3.1748   -0.0538 H   0  0  0  0  0  0  0  0  0  0  0  0
   -2.4245   -2.2537    1.0882 C   0  0  0  0  0  0  0  0  0  0  0  0
   -1.5805   -2.7478    1.8242 O   0  0  0  0  0  0  0  0  0  0  0  0
   -2.2045   -1.1637    0.3562 N   0  0  0  0  0  0  0  0  0  0  0  0
   -2.9595   -0.7907   -0.2008 H   0  0  0  0  0  0  0  0  0  0  0  0
   -0.9485   -0.4087    0.3482 C   0  0  1  0  0  0  0  0  0  0  0  0
   -0.1408   -1.0795    0.0507 H   0  0  0  0  0  0  0  0  0  0  0  0
   -1.0432    0.7243   -0.6879 C   0  0  0  0  0  0  0  0  0  0  0  0
   -0.6396    1.6392   -0.2517 H   0  0  0  0  0  0  0  0  0  0  0  0
   -0.4221    0.4699   -1.5481 H   0  0  0  0  0  0  0  0  0  0  0  0
   -2.4564    1.0114   -1.1584 C   0  0  0  0  0  0  0  0  0  0  0  0
   -3.4177   -0.0163   -1.1975 C   0  0  0  0  0  0  0  0  0  0  0  0
   -3.1474   -1.0235   -0.9134 H   0  0  0  0  0  0  0  0  0  0  0  0
   -4.7374    0.2665   -1.5957 C   0  0  0  0  0  0  0  0  0  0  0  0
   -5.4733   -0.5247   -1.6275 H   0  0  0  0  0  0  0  0  0  0  0  0
   -5.0985    1.5765   -1.9534 C   0  0  0  0  0  0  0  0  0  0  0  0
   -6.1117    1.7932   -2.2615 H   0  0  0  0  0  0  0  0  0  0  0  0
   -4.1399    2.6055   -1.9168 C   0  0  0  0  0  0  0  0  0  0  0  0
   -4.4159    3.6115   -2.1969 H   0  0  0  0  0  0  0  0  0  0  0  0
   -2.8204    2.3220   -1.5220 C   0  0  0  0  0  0  0  0  0  0  0  0
   -2.0830    3.1139   -1.4975 H   0  0  0  0  0  0  0  0  0  0  0  0
   -0.6196    0.1253    1.7539 C   0  0  0  0  0  0  0  0  0  0  0  0
    0.5216    0.0194    2.2054 O   0  0  0  0  0  0  0  0  0  0  0  0
   -1.6152    0.6924    2.4469 N   0  0  0  0  0  0  0  0  0  0  0  0
   -2.5345    0.6914    2.0318 H   0  0  0  0  0  0  0  0  0  0  0  0
   -1.4720    1.2390    3.7941 C   0  0  0  0  0  0  0  0  0  0  0  0
   -0.6345    1.9391    3.8219 H   0  0  0  0  0  0  0  0  0  0  0  0
   -2.3844    1.7580    4.0892 H   0  0  0  0  0  0  0  0  0  0  0  0
   -1.2733    0.4298    4.4995 H   0  0  0  0  0  0  0  0  0  0  0  0
  5  6  2  0  0  0  0
  5  7  1  0  0  0  0
  2  3  1  0  0  0  0
  2  4  1  0  0  0  0
  2  5  1  0  0  0  0
  1  2  1  0  0  0  0
 25 26  2  0  0  0  0
 25 27  1  0  0  0  0
 23 24  1  0  0  0  0
 21 22  1  0  0  0  0
 21 23  2  0  0  0  0
 19 20  1  0  0  0  0
 19 21  1  0  0  0  0
 17 18  1  0  0  0  0
 17 19  2  0  0  0  0
 15 16  1  0  0  0  0
 15 17  1  0  0  0  0
 14 15  2  0  0  0  0
 14 23  1  0  0  0  0
 11 12  1  0  0  0  0
 11 13  1  0  0  0  0
 11 14  1  0  0  0  0
  9 10  1  0  0  0  0
  9 11  1  0  0  0  0
  9 25  1  0  0  0  0
  7  8  1  0  0  0  0
  7  9  1  0  0  0  0
 29 30  1  0  0  0  0
 29 31  1  0  0  0  0
 29 32  1  0  0  0  0
 27 28  1  0  0  0  0
 27 29  1  0  0  0  0
M  END
$$$$
default_name
  -OEChem-02102213163D

 32 32  0     1  0  0  0  0  0999 V2000
   -3.8405   -3.7518    1.6252 H   0  0  0  0  0  0  0  0  0  0  0  0
   -3.7965   -2.8768    0.9782 C   0  0  0  0  0  0  0  0  0  0  0  0
   -4.5465   -2.1527    1.2902 H   0  0  0  0  0  0  0  0  0  0  0  0
   -3.9745   -3.1748   -0.0538 H   0  0  0  0  0  0  0  0  0  0  0  0
   -2.4245   -2.2537    1.0882 C   0  0  0  0  0  0  0  0  0  0  0  0
   -1.5805   -2.7478    1.8242 O   0  0  0  0  0  0  0  0  0  0  0  0
   -2.2045   -1.1637    0.3562 N   0  0  0  0  0  0  0  0  0  0  0  0
   -2.9595   -0.7907   -0.2008 H   0  0  0  0  0  0  0  0  0  0  0  0
   -0.9485   -0.4087    0.3482 C   0  0  1  0  0  0  0  0  0  0  0  0
   -0.1408   -1.0795    0.0507 H   0  0  0  0  0  0  0  0  0  0  0  0
   -1.0432    0.7243   -0.6879 C   0  0  0  0  0  0  0  0  0  0  0  0
   -0.6396    1.6392   -0.2517 H   0  0  0  0  0  0  0  0  0  0  0  0
   -0.4221    0.4699   -1.5481 H   0  0  0  0  0  0  0  0  0  0  0  0
   -2.4564    1.0114   -1.1584 C   0  0  0  0  0  0  0  0  0  0  0  0
   -3.4920    0.0911   -0.9088 C   0  0  0  0  0  0  0  0  0  0  0  0
   -3.2810   -0.8384   -0.3992 H   0  0  0  0  0  0  0  0  0  0  0  0
   -4.8081    0.3831   -1.3118 C   0  0  0  0  0  0  0  0  0  0  0  0
   -5.6014   -0.3261   -1.1215 H   0  0  0  0  0  0  0  0  0  0  0  0
   -5.0914    1.5958   -1.9628 C   0  0  0  0  0  0  0  0  0  0  0  0
   -6.1021    1.8191   -2.2745 H   0  0  0  0  0  0  0  0  0  0  0  0
   -4.0586    2.5170   -2.2151 C   0  0  0  0  0  0  0  0  0  0  0  0
   -4.2752    3.4468   -2.7203 H   0  0  0  0  0  0  0  0  0  0  0  0
   -2.7428    2.2234   -1.8152 C   0  0  0  0  0  0  0  0  0  0  0  0
   -1.9485    2.9315   -2.0128 H   0  0  0  0  0  0  0  0  0  0  0  0
   -0.6196    0.1253    1.7539 C   0  0  0  0  0  0  0  0  0  0  0  0
    0.5216    0.0194    2.2054 O   0  0  0  0  0  0  0  0  0  0  0  0
   -1.6152    0.6924    2.4469 N   0  0  0  0  0  0  0  0  0  0  0  0
   -2.5345    0.6914    2.0318 H   0  0  0  0  0  0  0  0  0  0  0  0
   -1.4720    1.2390    3.7941 C   0  0  0  0  0  0  0  0  0  0  0  0
   -0.6345    1.9391    3.8219 H   0  0  0  0  0  0  0  0  0  0  0  0
   -2.3844    1.7580    4.0892 H   0  0  0  0  0  0  0  0  0  0  0  0
   -1.2733    0.4298    4.4995 H   0  0  0  0  0  0  0  0  0  0  0  0
  5  6  2  0  0  0  0
  5  7  1  0  0  0  0
  2  3  1  0  0  0  0
  2  4  1  0  0  0  0
  2  5  1  0  0  0  0
  1  2  1  0  0  0  0
 25 26  2  0  0  0  0
 25 27  1  0  0  0  0
 23 24  1  0  0  0  0
 21 22  1  0  0  0  0
 21 23  2  0  0  0  0
 19 20  1  0  0  0  0
 19 21  1  0  0  0  0
 17 18  1  0  0  0  0
 17 19  2  0  0  0  0
 15 16  1  0  0  0  0
 15 17  1  0  0  0  0
 14 15  2  0  0  0  0
 14 23  1  0  0  0  0
 11 12  1  0  0  0  0
 11 13  1  0  0  0  0
 11 14  1  0  0  0  0
  9 10  1  0  0  0  0
  9 11  1  0  0  0  0
  9 25  1  0  0  0  0
  7  8  1  0  0  0  0
  7  9  1  0  0  0  0
 29 30  1  0  0  0  0
 29 31  1  0  0  0  0
 29 32  1  0  0  0  0
 27 28  1  0  0  0  0
 27 29  1  0  0  0  0
M  END
$$$$
default_name
  -OEChem-02102213163D

 32 32  0     1  0  0  0  0  0999 V2000
   -3.8405   -3.7518    1.6252 H   0  0  0  0  0  0  0  0  0  0  0  0
   -3.7965   -2.8768    0.9782 C   0  0  0  0  0  0  0  0  0  0  0  0
   -4.5465   -2.1527    1.2902 H   0  0  0  0  0  0  0  0  0  0  0  0
   -3.9745   -3.1748   -0.0538 H   0  0  0  0  0  0  0  0  0  0  0  0
   -2.4245   -2.2537    1.0882 C   0  0  0  0  0  0  0  0  0  0  0  0
   -1.5805   -2.7478    1.8242 O   0  0  0  0  0  0  0  0  0  0  0  0
   -2.2045   -1.1637    0.3562 N   0  0  0  0  0  0  0  0  0  0  0  0
   -2.9595   -0.7907   -0.2008 H   0  0  0  0  0  0  0  0  0  0  0  0
   -0.9485   -0.4087    0.3482 C   0  0  1  0  0  0  0  0  0  0  0  0
   -0.1408   -1.0795    0.0507 H   0  0  0  0  0  0  0  0  0  0  0  0
   -1.0432    0.7243   -0.6879 C   0  0  0  0  0  0  0  0  0  0  0  0
   -0.6396    1.6392   -0.2517 H   0  0  0  0  0  0  0  0  0  0  0  0
   -0.4221    0.4699   -1.5481 H   0  0  0  0  0  0  0  0  0  0  0  0
   -2.4564    1.0114   -1.1584 C   0  0  0  0  0  0  0  0  0  0  0  0
   -3.5410    0.2703   -0.6522 C   0  0  0  0  0  0  0  0  0  0  0  0
   -3.3700   -0.5250    0.0595 H   0  0  0  0  0  0  0  0  0  0  0  0
   -4.8533    0.5700   -1.0623 C   0  0  0  0  0  0  0  0  0  0  0  0
   -5.6844   -0.0020   -0.6743 H   0  0  0  0  0  0  0  0  0  0  0  0
   -5.0835    1.6116   -1.9770 C   0  0  0  0  0  0  0  0  0  0  0  0
   -6.0914    1.8402   -2.2938 H   0  0  0  0  0  0  0  0  0  0  0  0
   -4.0017    2.3531   -2.4859 C   0  0  0  0  0  0  0  0  0  0  0  0
   -4.1780    3.1502   -3.1931 H   0  0  0  0  0  0  0  0  0  0  0  0
   -2.6902    2.0513   -2.0784 C   0  0  0  0  0  0  0  0  0  0  0  0
   -1.8585    2.6203   -2.4732 H   0  0  0  0  0  0  0  0  0  0  0  0
   -0.6196    0.1253    1.7539 C   0  0  0  0  0  0  0  0  0  0  0  0
    0.5216    0.0194    2.2054 O   0  0  0  0  0  0  0  0  0  0  0  0
   -1.6152    0.6924    2.4469 N   0  0  0  0  0  0  0  0  0  0  0  0
   -2.5345    0.6914    2.0318 H   0  0  0  0  0  0  0  0  0  0  0  0
   -1.4720    1.2390    3.7941 C   0  0  0  0  0  0  0  0  0  0  0  0
   -0.6345    1.9391    3.8219 H   0  0  0  0  0  0  0  0  0  0  0  0
   -2.3844    1.7580    4.0892 H   0  0  0  0  0  0  0  0  0  0  0  0
   -1.2733    0.4298    4.4995 H   0  0  0  0  0  0  0  0  0  0  0  0
  5  6  2  0  0  0  0
  5  7  1  0  0  0  0
  2  3  1  0  0  0  0
  2  4  1  0  0  0  0
  2  5  1  0  0  0  0
  1  2  1  0  0  0  0
 25 26  2  0  0  0  0
 25 27  1  0  0  0  0
 23 24  1  0  0  0  0
 21 22  1  0  0  0  0
 21 23  2  0  0  0  0
 19 20  1  0  0  0  0
 19 21  1  0  0  0  0
 17 18  1  0  0  0  0
 17 19  2  0  0  0  0
 15 16  1  0  0  0  0
 15 17  1  0  0  0  0
 14 15  2  0  0  0  0
 14 23  1  0  0  0  0
 11 12  1  0  0  0  0
 11 13  1  0  0  0  0
 11 14  1  0  0  0  0
  9 10  1  0  0  0  0
  9 11  1  0  0  0  0
  9 25  1  0  0  0  0
  7  8  1  0  0  0  0
  7  9  1  0  0  0  0
 29 30  1  0  0  0  0
 29 31  1  0  0  0  0
 29 32  1  0  0  0  0
 27 28  1  0  0  0  0
 27 29  1  0  0  0  0
M  END
$$$$
default_name
  -OEChem-02102213163D

 32 32  0     1  0  0  0  0  0999 V2000
   -3.8405   -3.7518    1.6252 H   0  0  0  0  0  0  0  0  0  0  0  0
   -3.7965   -2.8768    0.9782 C   0  0  0  0  0  0  0  0  0  0  0  0
   -4.5465   -2.1527    1.2902 H   0  0  0  0  0  0  0  0  0  0  0  0
   -3.9745   -3.1748   -0.0538 H   0  0  0  0  0  0  0  0  0  0  0  0
   -2.4245   -2.2537    1.0882 C   0  0  0  0  0  0  0  0  0  0  0  0
   -1.5805   -2.7478    1.8242 O   0  0  0  0  0  0  0  0  0  0  0  0
   -2.2045   -1.1637    0.3562 N   0  0  0  0  0  0  0  0  0  0  0  0
   -2.9595   -0.7907   -0.2008 H   0  0  0  0  0  0  0  0  0  0  0  0
   -0.9485   -0.4087    0.3482 C   0  0  1  0  0  0  0  0  0  0  0  0
   -0.1408   -1.0795    0.0507 H   0  0  0  0  0  0  0  0  0  0  0  0
   -1.0432    0.7243   -0.6879 C   0  0  0  0  0  0  0  0  0  0  0  0
   -0.6396    1.6392   -0.2517 H   0  0  0  0  0  0  0  0  0  0  0  0
   -0.4221    0.4699   -1.5481 H   0  0  0  0  0  0  0  0  0  0  0  0
   -2.4564    1.0114   -1.1584 C   0  0  0  0  0  0  0  0  0  0  0  0
   -3.5614    0.5093   -0.4451 C   0  0  0  0  0  0  0  0  0  0  0  0
   -3.4083   -0.1045    0.4313 H   0  0  0  0  0  0  0  0  0  0  0  0
   -4.8696    0.8143   -0.8641 C   0  0  0  0  0  0  0  0  0  0  0  0
   -5.7167    0.4256   -0.3165 H   0  0  0  0  0  0  0  0  0  0  0  0
   -5.0753    1.6228   -1.9948 C   0  0  0  0  0  0  0  0  0  0  0  0
   -6.0803    1.8551   -2.3180 H   0  0  0  0  0  0  0  0  0  0  0  0
   -3.9733    2.1249   -2.7107 C   0  0  0  0  0  0  0  0  0  0  0  0
   -4.1312    2.7419   -3.5831 H   0  0  0  0  0  0  0  0  0  0  0  0
   -2.6660    1.8173   -2.2937 C   0  0  0  0  0  0  0  0  0  0  0  0
   -1.8191    2.2014   -2.8473 H   0  0  0  0  0  0  0  0  0  0  0  0
   -0.6196    0.1253    1.7539 C   0  0  0  0  0  0  0  0  0  0  0  0
    0.5216    0.0194    2.2054 O   0  0  0  0  0  0  0  0  0  0  0  0
   -1.6152    0.6924    2.4469 N   0  0  0  0  0  0  0  0  0  0  0  0
   -2.5345    0.6914    2.0318 H   0  0  0  0  0  0  0  0  0  0  0  0
   -1.4720    1.2390    3.7941 C   0  0  0  0  0  0  0  0  0  0  0  0
   -0.6345    1.9391    3.8219 H   0  0  0  0  0  0  0  0  0  0  0  0
   -2.3844    1.7580    4.0892 H   0  0  0  0  0  0  0  0  0  0  0  0
   -1.2733    0.4298    4.4995 H   0  0  0  0  0  0  0  0  0  0  0  0
  5  6  2  0  0  0  0
  5  7  1  0  0  0  0
  2  3  1  0  0  0  0
  2  4  1  0  0  0  0
  2  5  1  0  0  0  0
  1  2  1  0  0  0  0
 25 26  2  0  0  0  0
 25 27  1  0  0  0  0
 23 24  1  0  0  0  0
 21 22  1  0  0  0  0
 21 23  2  0  0  0  0
 19 20  1  0  0  0  0
 19 21  1  0  0  0  0
 17 18  1  0  0  0  0
 17 19  2  0  0  0  0
 15 16  1  0  0  0  0
 15 17  1  0  0  0  0
 14 15  2  0  0  0  0
 14 23  1  0  0  0  0
 11 12  1  0  0  0  0
 11 13  1  0  0  0  0
 11 14  1  0  0  0  0
  9 10  1  0  0  0  0
  9 11  1  0  0  0  0
  9 25  1  0  0  0  0
  7  8  1  0  0  0  0
  7  9  1  0  0  0  0
 29 30  1  0  0  0  0
 29 31  1  0  0  0  0
 29 32  1  0  0  0  0
 27 28  1  0  0  0  0
 27 29  1  0  0  0  0
M  END
$$$$
default_name
  -OEChem-02102213163D

 32 32  0     1  0  0  0  0  0999 V2000
   -3.8405   -3.7518    1.6252 H   0  0  0  0  0  0  0  0  0  0  0  0
   -3.7965   -2.8768    0.9782 C   0  0  0  0  0  0  0  0  0  0  0  0
   -4.5465   -2.1527    1.2902 H   0  0  0  0  0  0  0  0  0  0  0  0
   -3.9745   -3.1748   -0.0538 H   0  0  0  0  0  0  0  0  0  0  0  0
   -2.4245   -2.2537    1.0882 C   0  0  0  0  0  0  0  0  0  0  0  0
   -1.5805   -2.7478    1.8242 O   0  0  0  0  0  0  0  0  0  0  0  0
   -2.2045   -1.1637    0.3562 N   0  0  0  0  0  0  0  0  0  0  0  0
   -2.9595   -0.7907   -0.2008 H   0  0  0  0  0  0  0  0  0  0  0  0
   -0.9485   -0.4087    0.3482 C   0  0  1  0  0  0  0  0  0  0  0  0
   -0.1408   -1.0795    0.0507 H   0  0  0  0  0  0  0  0  0  0  0  0
   -1.0432    0.7243   -0.6879 C   0  0  0  0  0  0  0  0  0  0  0  0
   -0.6396    1.6392   -0.2517 H   0  0  0  0  0  0  0  0  0  0  0  0
   -0.4221    0.4699   -1.5481 H   0  0  0  0  0  0  0  0  0  0  0  0
   -2.4564    1.0114   -1.1584 C   0  0  0  0  0  0  0  0  0  0  0  0
   -3.5518    0.7917   -0.3018 C   0  0  0  0  0  0  0  0  0  0  0  0
   -3.3933    0.3945    0.6909 H   0  0  0  0  0  0  0  0  0  0  0  0
   -4.8561    1.0993   -0.7307 C   0  0  0  0  0  0  0  0  0  0  0  0
   -5.6960    0.9274   -0.0723 H   0  0  0  0  0  0  0  0  0  0  0  0
   -5.0673    1.6286   -2.0152 C   0  0  0  0  0  0  0  0  0  0  0  0
   -6.0696    1.8627   -2.3456 H   0  0  0  0  0  0  0  0  0  0  0  0
   -3.9751    1.8480   -2.8742 C   0  0  0  0  0  0  0  0  0  0  0  0
   -4.1378    2.2497   -3.8636 H   0  0  0  0  0  0  0  0  0  0  0  0
   -2.6720    1.5374   -2.4465 C   0  0  0  0  0  0  0  0  0  0  0  0
   -1.8330    1.7035   -3.1095 H   0  0  0  0  0  0  0  0  0  0  0  0
   -0.6196    0.1253    1.7539 C   0  0  0  0  0  0  0  0  0  0  0  0
    0.5216    0.0194    2.2054 O   0  0  0  0  0  0  0  0  0  0  0  0
   -1.6152    0.6924    2.4469 N   0  0  0  0  0  0  0  0  0  0  0  0
   -2.5345    0.6914    2.0318 H   0  0  0  0  0  0  0  0  0  0  0  0
   -1.4720    1.2390    3.7941 C   0  0  0  0  0  0  0  0  0  0  0  0
   -0.6345    1.9391    3.8219 H   0  0  0  0  0  0  0  0  0  0  0  0
   -2.3844    1.7580    4.0892 H   0  0  0  0  0  0  0  0  0  0  0  0
   -1.2733    0.4298    4.4995 H   0  0  0  0  0  0  0  0  0  0  0  0
  5  6  2  0  0  0  0
  5  7  1  0  0  0  0
  2  3  1  0  0  0  0
  2  4  1  0  0  0  0
  2  5  1  0  0  0  0
  1  2  1  0  0  0  0
 25 26  2  0  0  0  0
 25 27  1  0  0  0  0
 23 24  1  0  0  0  0
 21 22  1  0  0  0  0
 21 23  2  0  0  0  0
 19 20  1  0  0  0  0
 19 21  1  0  0  0  0
 17 18  1  0  0  0  0
 17 19  2  0  0  0  0
 15 16  1  0  0  0  0
 15 17  1  0  0  0  0
 14 15  2  0  0  0  0
 14 23  1  0  0  0  0
 11 12  1  0  0  0  0
 11 13  1  0  0  0  0
 11 14  1  0  0  0  0
  9 10  1  0  0  0  0
  9 11  1  0  0  0  0
  9 25  1  0  0  0  0
  7  8  1  0  0  0  0
  7  9  1  0  0  0  0
 29 30  1  0  0  0  0
 29 31  1  0  0  0  0
 29 32  1  0  0  0  0
 27 28  1  0  0  0  0
 27 29  1  0  0  0  0
M  END
$$$$
default_name
  -OEChem-02102213163D

 32 32  0     1  0  0  0  0  0999 V2000
   -3.8405   -3.7518    1.6252 H   0  0  0  0  0  0  0  0  0  0  0  0
   -3.7965   -2.8768    0.9782 C   0  0  0  0  0  0  0  0  0  0  0  0
   -4.5465   -2.1527    1.2902 H   0  0  0  0  0  0  0  0  0  0  0  0
   -3.9745   -3.1748   -0.0538 H   0  0  0  0  0  0  0  0  0  0  0  0
   -2.4245   -2.2537    1.0882 C   0  0  0  0  0  0  0  0  0  0  0  0
   -1.5805   -2.7478    1.8242 O   0  0  0  0  0  0  0  0  0  0  0  0
   -2.2045   -1.1637    0.3562 N   0  0  0  0  0  0  0  0  0  0  0  0
   -2.9595   -0.7907   -0.2008 H   0  0  0  0  0  0  0  0  0  0  0  0
   -0.9485   -0.4087    0.3482 C   0  0  1  0  0  0  0  0  0  0  0  0
   -0.1408   -1.0795    0.0507 H   0  0  0  0  0  0  0  0  0  0  0  0
   -1.0432    0.7243   -0.6879 C   0  0  0  0  0  0  0  0  0  0  0  0
   -0.6396    1.6392   -0.2517 H   0  0  0  0  0  0  0  0  0  0  0  0
   -0.4221    0.4699   -1.5481 H   0  0  0  0  0  0  0  0  0  0  0  0
   -2.4564    1.0114   -1.1584 C   0  0  0  0  0  0  0  0  0  0  0  0
   -3.5127    1.0983   -0.2318 C   0  0  0  0  0  0  0  0  0  0  0  0
   -3.3261    0.9378    0.8206 H   0  0  0  0  0  0  0  0  0  0  0  0
   -4.8136    1.4058   -0.6713 C   0  0  0  0  0  0  0  0  0  0  0  0
   -5.6238    1.4694    0.0415 H   0  0  0  0  0  0  0  0  0  0  0  0
   -5.0601    1.6287   -2.0366 C   0  0  0  0  0  0  0  0  0  0  0  0
   -6.0600    1.8626   -2.3745 H   0  0  0  0  0  0  0  0  0  0  0  0
   -4.0071    1.5412   -2.9653 C   0  0  0  0  0  0  0  0  0  0  0  0
   -4.1975    1.7072   -4.0155 H   0  0  0  0  0  0  0  0  0  0  0  0
   -2.7078    1.2307   -2.5262 C   0  0  0  0  0  0  0  0  0  0  0  0
   -1.8992    1.1604   -3.2421 H   0  0  0  0  0  0  0  0  0  0  0  0
   -0.6196    0.1253    1.7539 C   0  0  0  0  0  0  0  0  0  0  0  0
    0.5216    0.0194    2.2054 O   0  0  0  0  0  0  0  0  0  0  0  0
   -1.6152    0.6924    2.4469 N   0  0  0  0  0  0  0  0  0  0  0  0
   -2.5345    0.6914    2.0318 H   0  0  0  0  0  0  0  0  0  0  0  0
   -1.4720    1.2390    3.7941 C   0  0  0  0  0  0  0  0  0  0  0  0
   -0.6345    1.9391    3.8219 H   0  0  0  0  0  0  0  0  0  0  0  0
   -2.3844    1.7580    4.0892 H   0  0  0  0  0  0  0  0  0  0  0  0
   -1.2733    0.4298    4.4995 H   0  0  0  0  0  0  0  0  0  0  0  0
  5  6  2  0  0  0  0
  5  7  1  0  0  0  0
  2  3  1  0  0  0  0
  2  4  1  0  0  0  0
  2  5  1  0  0  0  0
  1  2  1  0  0  0  0
 25 26  2  0  0  0  0
 25 27  1  0  0  0  0
 23 24  1  0  0  0  0
 21 22  1  0  0  0  0
 21 23  2  0  0  0  0
 19 20  1  0  0  0  0
 19 21  1  0  0  0  0
 17 18  1  0  0  0  0
 17 19  2  0  0  0  0
 15 16  1  0  0  0  0
 15 17  1  0  0  0  0
 14 15  2  0  0  0  0
 14 23  1  0  0  0  0
 11 12  1  0  0  0  0
 11 13  1  0  0  0  0
 11 14  1  0  0  0  0
  9 10  1  0  0  0  0
  9 11  1  0  0  0  0
  9 25  1  0  0  0  0
  7  8  1  0  0  0  0
  7  9  1  0  0  0  0
 29 30  1  0  0  0  0
 29 31  1  0  0  0  0
 29 32  1  0  0  0  0
 27 28  1  0  0  0  0
 27 29  1  0  0  0  0
M  END
$$$$
default_name
  -OEChem-02102213163D

 32 32  0     1  0  0  0  0  0999 V2000
   -3.8405   -3.7518    1.6252 H   0  0  0  0  0  0  0  0  0  0  0  0
   -3.7965   -2.8768    0.9782 C   0  0  0  0  0  0  0  0  0  0  0  0
   -4.5465   -2.1527    1.2902 H   0  0  0  0  0  0  0  0  0  0  0  0
   -3.9745   -3.1748   -0.0538 H   0  0  0  0  0  0  0  0  0  0  0  0
   -2.4245   -2.2537    1.0882 C   0  0  0  0  0  0  0  0  0  0  0  0
   -1.5805   -2.7478    1.8242 O   0  0  0  0  0  0  0  0  0  0  0  0
   -2.2045   -1.1637    0.3562 N   0  0  0  0  0  0  0  0  0  0  0  0
   -2.9595   -0.7907   -0.2008 H   0  0  0  0  0  0  0  0  0  0  0  0
   -0.9485   -0.4087    0.3482 C   0  0  1  0  0  0  0  0  0  0  0  0
   -0.1408   -1.0795    0.0507 H   0  0  0  0  0  0  0  0  0  0  0  0
   -1.0432    0.7243   -0.6879 C   0  0  0  0  0  0  0  0  0  0  0  0
   -0.6396    1.6392   -0.2517 H   0  0  0  0  0  0  0  0  0  0  0  0
   -0.4221    0.4699   -1.5481 H   0  0  0  0  0  0  0  0  0  0  0  0
   -2.4564    1.0114   -1.1584 C   0  0  0  0  0  0  0  0  0  0  0  0
   -3.4470    1.4081   -0.2401 C   0  0  0  0  0  0  0  0  0  0  0  0
   -3.2112    1.4885    0.8116 H   0  0  0  0  0  0  0  0  0  0  0  0
   -4.7450    1.7126   -0.6899 C   0  0  0  0  0  0  0  0  0  0  0  0
   -5.5049    2.0145    0.0172 H   0  0  0  0  0  0  0  0  0  0  0  0
   -5.0543    1.6230   -2.0577 C   0  0  0  0  0  0  0  0  0  0  0  0
   -6.0522    1.8548   -2.4030 H   0  0  0  0  0  0  0  0  0  0  0  0
   -4.0671    1.2255   -2.9778 C   0  0  0  0  0  0  0  0  0  0  0  0
   -4.3061    1.1514   -4.0285 H   0  0  0  0  0  0  0  0  0  0  0  0
   -2.7709    0.9181   -2.5276 C   0  0  0  0  0  0  0  0  0  0  0  0
   -2.0132    0.6091   -3.2360 H   0  0  0  0  0  0  0  0  0  0  0  0
   -0.6196    0.1253    1.7539 C   0  0  0  0  0  0  0  0  0  0  0  0
    0.5216    0.0194    2.2054 O   0  0  0  0  0  0  0  0  0  0  0  0
   -1.6152    0.6924    2.4469 N   0  0  0  0  0  0  0  0  0  0  0  0
   -2.5345    0.6914    2.0318 H   0  0  0  0  0  0  0  0  0  0  0  0
   -1.4720    1.2390    3.7941 C   0  0  0  0  0  0  0  0  0  0  0  0
   -0.6345    1.9391    3.8219 H   0  0  0  0  0  0  0  0  0  0  0  0
   -2.3844    1.7580    4.0892 H   0  0  0  0  0  0  0  0  0  0  0  0
   -1.2733    0.4298    4.4995 H   0  0  0  0  0  0  0  0  0  0  0  0
  5  6  2  0  0  0  0
  5  7  1  0  0  0  0
  2  3  1  0  0  0  0
  2  4  1  0  0  0  0
  2  5  1  0  0  0  0
  1  2  1  0  0  0  0
 25 26  2  0  0  0  0
 25 27  1  0  0  0  0
 23 24  1  0  0  0  0
 21 22  1  0  0  0  0
 21 23  2  0  0  0  0
 19 20  1  0  0  0  0
 19 21  1  0  0  0  0
 17 18  1  0  0  0  0
 17 19  2  0  0  0  0
 15 16  1  0  0  0  0
 15 17  1  0  0  0  0
 14 15  2  0  0  0  0
 14 23  1  0  0  0  0
 11 12  1  0  0  0  0
 11 13  1  0  0  0  0
 11 14  1  0  0  0  0
  9 10  1  0  0  0  0
  9 11  1  0  0  0  0
  9 25  1  0  0  0  0
  7  8  1  0  0  0  0
  7  9  1  0  0  0  0
 29 30  1  0  0  0  0
 29 31  1  0  0  0  0
 29 32  1  0  0  0  0
 27 28  1  0  0  0  0
 27 29  1  0  0  0  0
M  END
$$$$
default_name
  -OEChem-02102213163D

 32 32  0     1  0  0  0  0  0999 V2000
   -3.8405   -3.7518    1.6252 H   0  0  0  0  0  0  0  0  0  0  0  0
   -3.7965   -2.8768    0.9782 C   0  0  0  0  0  0  0  0  0  0  0  0
   -4.5465   -2.1527    1.2902 H   0  0  0  0  0  0  0  0  0  0  0  0
   -3.9745   -3.1748   -0.0538 H   0  0  0  0  0  0  0  0  0  0  0  0
   -2.4245   -2.2537    1.0882 C   0  0  0  0  0  0  0  0  0  0  0  0
   -1.5805   -2.7478    1.8242 O   0  0  0  0  0  0  0  0  0  0  0  0
   -2.2045   -1.1637    0.3562 N   0  0  0  0  0  0  0  0  0  0  0  0
   -2.9595   -0.7907   -0.2008 H   0  0  0  0  0  0  0  0  0  0  0  0
   -0.9485   -0.4087    0.3482 C   0  0  1  0  0  0  0  0  0  0  0  0
   -0.1408   -1.0795    0.0507 H   0  0  0  0  0  0  0  0  0  0  0  0
   -1.0432    0.7243   -0.6879 C   0  0  0  0  0  0  0  0  0  0  0  0
   -0.6396    1.6392   -0.2517 H   0  0  0  0  0  0  0  0  0  0  0  0
   -0.4221    0.4699   -1.5481 H   0  0  0  0  0  0  0  0  0  0  0  0
   -2.4564    1.0114   -1.1584 C   0  0  0  0  0  0  0  0  0  0  0  0
   -3.3591    1.7001   -0.3261 C   0  0  0  0  0  0  0  0  0  0  0  0
   -3.0565    2.0090    0.6645 H   0  0  0  0  0  0  0  0  0  0  0  0
   -4.6551    1.9991   -0.7852 C   0  0  0  0  0  0  0  0  0  0  0  0
   -5.3475    2.5257   -0.1436 H   0  0  0  0  0  0  0  0  0  0  0  0
   -5.0501    1.6120   -2.0770 C   0  0  0  0  0  0  0  0  0  0  0  0
   -6.0466    1.8397   -2.4289 H   0  0  0  0  0  0  0  0  0  0  0  0
   -4.1510    0.9224   -2.9107 C   0  0  0  0  0  0  0  0  0  0  0  0
   -4.4562    0.6200   -3.9018 H   0  0  0  0  0  0  0  0  0  0  0  0
   -2.8570    0.6209   -2.4504 C   0  0  0  0  0  0  0  0  0  0  0  0
   -2.1673    0.0873   -3.0915 H   0  0  0  0  0  0  0  0  0  0  0  0
   -0.6196    0.1253    1.7539 C   0  0  0  0  0  0  0  0  0  0  0  0
    0.5216    0.0194    2.2054 O   0  0  0  0  0  0  0  0  0  0  0  0
   -1.6152    0.6924    2.4469 N   0  0  0  0  0  0  0  0  0  0  0  0
   -2.5345    0.6914    2.0318 H   0  0  0  0  0  0  0  0  0  0  0  0
   -1.4720    1.2390    3.7941 C   0  0  0  0  0  0  0  0  0  0  0  0
   -0.6345    1.9391    3.8219 H   0  0  0  0  0  0  0  0  0  0  0  0
   -2.3844    1.7580    4.0892 H   0  0  0  0  0  0  0  0  0  0  0  0
   -1.2733    0.4298    4.4995 H   0  0  0  0  0  0  0  0  0  0  0  0
  5  6  2  0  0  0  0
  5  7  1  0  0  0  0
  2  3  1  0  0  0  0
  2  4  1  0  0  0  0
  2  5  1  0  0  0  0
  1  2  1  0  0  0  0
 25 26  2  0  0  0  0
 25 27  1  0  0  0  0
 23 24  1  0  0  0  0
 21 22  1  0  0  0  0
 21 23  2  0  0  0  0
 19 20  1  0  0  0  0
 19 21  1  0  0  0  0
 17 18  1  0  0  0  0
 17 19  2  0  0  0  0
 15 16  1  0  0  0  0
 15 17  1  0  0  0  0
 14 15  2  0  0  0  0
 14 23  1  0  0  0  0
 11 12  1  0  0  0  0
 11 13  1  0  0  0  0
 11 14  1  0  0  0  0
  9 10  1  0  0  0  0
  9 11  1  0  0  0  0
  9 25  1  0  0  0  0
  7  8  1  0  0  0  0
  7  9  1  0  0  0  0
 29 30  1  0  0  0  0
 29 31  1  0  0  0  0
 29 32  1  0  0  0  0
 27 28  1  0  0  0  0
 27 29  1  0  0  0  0
M  END
$$$$
default_name
  -OEChem-02102213163D

 32 32  0     1  0  0  0  0  0999 V2000
   -3.8405   -3.7518    1.6252 H   0  0  0  0  0  0  0  0  0  0  0  0
   -3.7965   -2.8768    0.9782 C   0  0  0  0  0  0  0  0  0  0  0  0
   -4.5465   -2.1527    1.2902 H   0  0  0  0  0  0  0  0  0  0  0  0
   -3.9745   -3.1748   -0.0538 H   0  0  0  0  0  0  0  0  0  0  0  0
   -2.4245   -2.2537    1.0882 C   0  0  0  0  0  0  0  0  0  0  0  0
   -1.5805   -2.7478    1.8242 O   0  0  0  0  0  0  0  0  0  0  0  0
   -2.2045   -1.1637    0.3562 N   0  0  0  0  0  0  0  0  0  0  0  0
   -2.9595   -0.7907   -0.2008 H   0  0  0  0  0  0  0  0  0  0  0  0
   -0.9485   -0.4087    0.3482 C   0  0  1  0  0  0  0  0  0  0  0  0
   -0.1408   -1.0795    0.0507 H   0  0  0  0  0  0  0  0  0  0  0  0
   -1.0432    0.7243   -0.6879 C   0  0  0  0  0  0  0  0  0  0  0  0
   -0.6396    1.6392   -0.2517 H   0  0  0  0  0  0  0  0  0  0  0  0
   -0.4221    0.4699   -1.5481 H   0  0  0  0  0  0  0  0  0  0  0  0
   -2.4564    1.0114   -1.1584 C   0  0  0  0  0  0  0  0  0  0  0  0
   -3.2549    1.9544   -0.4838 C   0  0  0  0  0  0  0  0  0  0  0  0
   -2.8725    2.4640    0.3893 H   0  0  0  0  0  0  0  0  0  0  0  0
   -4.5499    2.2456   -0.9508 C   0  0  0  0  0  0  0  0  0  0  0  0
   -5.1624    2.9681   -0.4298 H   0  0  0  0  0  0  0  0  0  0  0  0
   -5.0479    1.5964   -2.0932 C   0  0  0  0  0  0  0  0  0  0  0  0
   -6.0437    1.8184   -2.4506 H   0  0  0  0  0  0  0  0  0  0  0  0
   -4.2531    0.6525   -2.7688 C   0  0  0  0  0  0  0  0  0  0  0  0
   -4.6377    0.1494   -3.6438 H   0  0  0  0  0  0  0  0  0  0  0  0
   -2.9602    0.3593   -2.3000 C   0  0  0  0  0  0  0  0  0  0  0  0
   -2.3510   -0.3695   -2.8186 H   0  0  0  0  0  0  0  0  0  0  0  0
   -0.6196    0.1253    1.7539 C   0  0  0  0  0  0  0  0  0  0  0  0
    0.5216    0.0194    2.2054 O   0  0  0  0  0  0  0  0  0  0  0  0
   -1.6152    0.6924    2.4469 N   0  0  0  0  0  0  0  0  0  0  0  0
   -2.5345    0.6914    2.0318 H   0  0  0  0  0  0  0  0  0  0  0  0
   -1.4720    1.2390    3.7941 C   0  0  0  0  0  0  0  0  0  0  0  0
   -0.6345    1.9391    3.8219 H   0  0  0  0  0  0  0  0  0  0  0  0
   -2.3844    1.7580    4.0892 H   0  0  0  0  0  0  0  0  0  0  0  0
   -1.2733    0.4298    4.4995 H   0  0  0  0  0  0  0  0  0  0  0  0
  5  6  2  0  0  0  0
  5  7  1  0  0  0  0
  2  3  1  0  0  0  0
  2  4  1  0  0  0  0
  2  5  1  0  0  0  0
  1  2  1  0  0  0  0
 25 26  2  0  0  0  0
 25 27  1  0  0  0  0
 23 24  1  0  0  0  0
 21 22  1  0  0  0  0
 21 23  2  0  0  0  0
 19 20  1  0  0  0  0
 19 21  1  0  0  0  0
 17 18  1  0  0  0  0
 17 19  2  0  0  0  0
 15 16  1  0  0  0  0
 15 17  1  0  0  0  0
 14 15  2  0  0  0  0
 14 23  1  0  0  0  0
 11 12  1  0  0  0  0
 11 13  1  0  0  0  0
 11 14  1  0  0  0  0
  9 10  1  0  0  0  0
  9 11  1  0  0  0  0
  9 25  1  0  0  0  0
  7  8  1  0  0  0  0
  7  9  1  0  0  0  0
 29 30  1  0  0  0  0
 29 31  1  0  0  0  0
 29 32  1  0  0  0  0
 27 28  1  0  0  0  0
 27 29  1  0  0  0  0
M  END
$$$$
default_name
  -OEChem-02102213163D

 32 32  0     1  0  0  0  0  0999 V2000
   -3.8405   -3.7518    1.6252 H   0  0  0  0  0  0  0  0  0  0  0  0
   -3.7965   -2.8768    0.9782 C   0  0  0  0  0  0  0  0  0  0  0  0
   -4.5465   -2.1527    1.2902 H   0  0  0  0  0  0  0  0  0  0  0  0
   -3.9745   -3.1748   -0.0538 H   0  0  0  0  0  0  0  0  0  0  0  0
   -2.4245   -2.2537    1.0882 C   0  0  0  0  0  0  0  0  0  0  0  0
   -1.5805   -2.7478    1.8242 O   0  0  0  0  0  0  0  0  0  0  0  0
   -2.2045   -1.1637    0.3562 N   0  0  0  0  0  0  0  0  0  0  0  0
   -2.9595   -0.7907   -0.2008 H   0  0  0  0  0  0  0  0  0  0  0  0
   -0.9485   -0.4087    0.3482 C   0  0  1  0  0  0  0  0  0  0  0  0
   -0.1408   -1.0795    0.0507 H   0  0  0  0  0  0  0  0  0  0  0  0
   -1.0432    0.7243   -0.6879 C   0  0  0  0  0  0  0  0  0  0  0  0
   -0.6396    1.6392   -0.2517 H   0  0  0  0  0  0  0  0  0  0  0  0
   -0.4221    0.4699   -1.5481 H   0  0  0  0  0  0  0  0  0  0  0  0
   -2.4564    1.0114   -1.1584 C   0  0  0  0  0  0  0  0  0  0  0  0
   -3.1416    2.1536   -0.7026 C   0  0  0  0  0  0  0  0  0  0  0  0
   -2.6717    2.8222    0.0048 H   0  0  0  0  0  0  0  0  0  0  0  0
   -4.4366    2.4353   -1.1753 C   0  0  0  0  0  0  0  0  0  0  0  0
   -4.9620    3.3115   -0.8220 H   0  0  0  0  0  0  0  0  0  0  0  0
   -5.0478    1.5772   -2.1052 C   0  0  0  0  0  0  0  0  0  0  0  0
   -6.0437    1.7924   -2.4665 H   0  0  0  0  0  0  0  0  0  0  0  0
   -4.3664    0.4342   -2.5616 C   0  0  0  0  0  0  0  0  0  0  0  0
   -4.8382   -0.2284   -3.2723 H   0  0  0  0  0  0  0  0  0  0  0  0
   -3.0735    0.1512   -2.0865 C   0  0  0  0  0  0  0  0  0  0  0  0
   -2.5517   -0.7303   -2.4358 H   0  0  0  0  0  0  0  0  0  0  0  0
   -0.6196    0.1253    1.7539 C   0  0  0  0  0  0  0  0  0  0  0  0
    0.5216    0.0194    2.2054 O   0  0  0  0  0  0  0  0  0  0  0  0
   -1.6152    0.6924    2.4469 N   0  0  0  0  0  0  0  0  0  0  0  0
   -2.5345    0.6914    2.0318 H   0  0  0  0  0  0  0  0  0  0  0  0
   -1.4720    1.2390    3.7941 C   0  0  0  0  0  0  0  0  0  0  0  0
   -0.6345    1.9391    3.8219 H   0  0  0  0  0  0  0  0  0  0  0  0
   -2.3844    1.7580    4.0892 H   0  0  0  0  0  0  0  0  0  0  0  0
   -1.2733    0.4298    4.4995 H   0  0  0  0  0  0  0  0  0  0  0  0
  5  6  2  0  0  0  0
  5  7  1  0  0  0  0
  2  3  1  0  0  0  0
  2  4  1  0  0  0  0
  2  5  1  0  0  0  0
  1  2  1  0  0  0  0
 25 26  2  0  0  0  0
 25 27  1  0  0  0  0
 23 24  1  0  0  0  0
 21 22  1  0  0  0  0
 21 23  2  0  0  0  0
 19 20  1  0  0  0  0
 19 21  1  0  0  0  0
 17 18  1  0  0  0  0
 17 19  2  0  0  0  0
 15 16  1  0  0  0  0
 15 17  1  0  0  0  0
 14 15  2  0  0  0  0
 14 23  1  0  0  0  0
 11 12  1  0  0  0  0
 11 13  1  0  0  0  0
 11 14  1  0  0  0  0
  9 10  1  0  0  0  0
  9 11  1  0  0  0  0
  9 25  1  0  0  0  0
  7  8  1  0  0  0  0
  7  9  1  0  0  0  0
 29 30  1  0  0  0  0
 29 31  1  0  0  0  0
 29 32  1  0  0  0  0
 27 28  1  0  0  0  0
 27 29  1  0  0  0  0
M  END
$$$$
default_name
  -OEChem-02102213163D

 32 32  0     1  0  0  0  0  0999 V2000
   -3.8405   -3.7518    1.6252 H   0  0  0  0  0  0  0  0  0  0  0  0
   -3.7965   -2.8768    0.9782 C   0  0  0  0  0  0  0  0  0  0  0  0
   -4.5465   -2.1527    1.2902 H   0  0  0  0  0  0  0  0  0  0  0  0
   -3.9745   -3.1748   -0.0538 H   0  0  0  0  0  0  0  0  0  0  0  0
   -2.4245   -2.2537    1.0882 C   0  0  0  0  0  0  0  0  0  0  0  0
   -1.5805   -2.7478    1.8242 O   0  0  0  0  0  0  0  0  0  0  0  0
   -2.2045   -1.1637    0.3562 N   0  0  0  0  0  0  0  0  0  0  0  0
   -2.9595   -0.7907   -0.2008 H   0  0  0  0  0  0  0  0  0  0  0  0
   -0.9485   -0.4087    0.3482 C   0  0  1  0  0  0  0  0  0  0  0  0
   -0.1408   -1.0795    0.0507 H   0  0  0  0  0  0  0  0  0  0  0  0
   -1.0432    0.7243   -0.6879 C   0  0  0  0  0  0  0  0  0  0  0  0
   -0.6396    1.6392   -0.2517 H   0  0  0  0  0  0  0  0  0  0  0  0
   -0.4221    0.4699   -1.5481 H   0  0  0  0  0  0  0  0  0  0  0  0
   -2.4564    1.0114   -1.1584 C   0  0  0  0  0  0  0  0  0  0  0  0
   -3.0269    2.2842   -0.9675 C   0  0  0  0  0  0  0  0  0  0  0  0
   -2.4678    3.0595   -0.4628 H   0  0  0  0  0  0  0  0  0  0  0  0
   -4.3230    2.5553   -1.4434 C   0  0  0  0  0  0  0  0  0  0  0  0
   -4.7602    3.5325   -1.2935 H   0  0  0  0  0  0  0  0  0  0  0  0
   -5.0498    1.5558   -2.1122 C   0  0  0  0  0  0  0  0  0  0  0  0
   -6.0465    1.7634   -2.4757 H   0  0  0  0  0  0  0  0  0  0  0  0
   -4.4833    0.2824   -2.3032 C   0  0  0  0  0  0  0  0  0  0  0  0
   -5.0439   -0.4877   -2.8125 H   0  0  0  0  0  0  0  0  0  0  0  0
   -3.1892    0.0107   -1.8246 C   0  0  0  0  0  0  0  0  0  0  0  0
   -2.7558   -0.9703   -1.9693 H   0  0  0  0  0  0  0  0  0  0  0  0
   -0.6196    0.1253    1.7539 C   0  0  0  0  0  0  0  0  0  0  0  0
    0.5216    0.0194    2.2054 O   0  0  0  0  0  0  0  0  0  0  0  0
   -1.6152    0.6924    2.4469 N   0  0  0  0  0  0  0  0  0  0  0  0
   -2.5345    0.6914    2.0318 H   0  0  0  0  0  0  0  0  0  0  0  0
   -1.4720    1.2390    3.7941 C   0  0  0  0  0  0  0  0  0  0  0  0
   -0.6345    1.9391    3.8219 H   0  0  0  0  0  0  0  0  0  0  0  0
   -2.3844    1.7580    4.0892 H   0  0  0  0  0  0  0  0  0  0  0  0
   -1.2733    0.4298    4.4995 H   0  0  0  0  0  0  0  0  0  0  0  0
  5  6  2  0  0  0  0
  5  7  1  0  0  0  0
  2  3  1  0  0  0  0
  2  4  1  0  0  0  0
  2  5  1  0  0  0  0
  1  2  1  0  0  0  0
 25 26  2  0  0  0  0
 25 27  1  0  0  0  0
 23 24  1  0  0  0  0
 21 22  1  0  0  0  0
 21 23  2  0  0  0  0
 19 20  1  0  0  0  0
 19 21  1  0  0  0  0
 17 18  1  0  0  0  0
 17 19  2  0  0  0  0
 15 16  1  0  0  0  0
 15 17  1  0  0  0  0
 14 15  2  0  0  0  0
 14 23  1  0  0  0  0
 11 12  1  0  0  0  0
 11 13  1  0  0  0  0
 11 14  1  0  0  0  0
  9 10  1  0  0  0  0
  9 11  1  0  0  0  0
  9 25  1  0  0  0  0
  7  8  1  0  0  0  0
  7  9  1  0  0  0  0
 29 30  1  0  0  0  0
 29 31  1  0  0  0  0
 29 32  1  0  0  0  0
 27 28  1  0  0  0  0
 27 29  1  0  0  0  0
M  END
$$$$
default_name
  -OEChem-02102213163D

 32 32  0     1  0  0  0  0  0999 V2000
   -3.8405   -3.7518    1.6252 H   0  0  0  0  0  0  0  0  0  0  0  0
   -3.7965   -2.8768    0.9782 C   0  0  0  0  0  0  0  0  0  0  0  0
   -4.5465   -2.1527    1.2902 H   0  0  0  0  0  0  0  0  0  0  0  0
   -3.9745   -3.1748   -0.0538 H   0  0  0  0  0  0  0  0  0  0  0  0
   -2.4245   -2.2537    1.0882 C   0  0  0  0  0  0  0  0  0  0  0  0
   -1.5805   -2.7478    1.8242 O   0  0  0  0  0  0  0  0  0  0  0  0
   -2.2045   -1.1637    0.3562 N   0  0  0  0  0  0  0  0  0  0  0  0
   -2.9595   -0.7907   -0.2008 H   0  0  0  0  0  0  0  0  0  0  0  0
   -0.9485   -0.4087    0.3482 C   0  0  1  0  0  0  0  0  0  0  0  0
   -0.1408   -1.0795    0.0507 H   0  0  0  0  0  0  0  0  0  0  0  0
   -1.0432    0.7243   -0.6879 C   0  0  0  0  0  0  0  0  0  0  0  0
   -0.6396    1.6392   -0.2517 H   0  0  0  0  0  0  0  0  0  0  0  0
   -0.4221    0.4699   -1.5481 H   0  0  0  0  0  0  0  0  0  0  0  0
   -2.4564    1.0114   -1.1584 C   0  0  0  0  0  0  0  0  0  0  0  0
   -2.9186    2.3373   -1.2605 C   0  0  0  0  0  0  0  0  0  0  0  0
   -2.2747    3.1595   -0.9818 H   0  0  0  0  0  0  0  0  0  0  0  0
   -4.2167    2.5975   -1.7369 C   0  0  0  0  0  0  0  0  0  0  0  0
   -4.5705    3.6162   -1.8121 H   0  0  0  0  0  0  0  0  0  0  0  0
   -5.0538    1.5336   -2.1136 C   0  0  0  0  0  0  0  0  0  0  0  0
   -6.0520    1.7334   -2.4774 H   0  0  0  0  0  0  0  0  0  0  0  0
   -4.5956    0.2074   -2.0114 C   0  0  0  0  0  0  0  0  0  0  0  0
   -5.2409   -0.6108   -2.2957 H   0  0  0  0  0  0  0  0  0  0  0  0
   -3.2994   -0.0525   -1.5321 C   0  0  0  0  0  0  0  0  0  0  0  0
   -2.9493   -1.0733   -1.4508 H   0  0  0  0  0  0  0  0  0  0  0  0
   -0.6196    0.1253    1.7539 C   0  0  0  0  0  0  0  0  0  0  0  0
    0.5216    0.0194    2.2054 O   0  0  0  0  0  0  0  0  0  0  0  0
   -1.6152    0.6924    2.4469 N   0  0  0  0  0  0  0  0  0  0  0  0
   -2.5345    0.6914    2.0318 H   0  0  0  0  0  0  0  0  0  0  0  0
   -1.4720    1.2390    3.7941 C   0  0  0  0  0  0  0  0  0  0  0  0
   -0.6345    1.9391    3.8219 H   0  0  0  0  0  0  0  0  0  0  0  0
   -2.3844    1.7580    4.0892 H   0  0  0  0  0  0  0  0  0  0  0  0
   -1.2733    0.4298    4.4995 H   0  0  0  0  0  0  0  0  0  0  0  0
  5  6  2  0  0  0  0
  5  7  1  0  0  0  0
  2  3  1  0  0  0  0
  2  4  1  0  0  0  0
  2  5  1  0  0  0  0
  1  2  1  0  0  0  0
 25 26  2  0  0  0  0
 25 27  1  0  0  0  0
 23 24  1  0  0  0  0
 21 22  1  0  0  0  0
 21 23  2  0  0  0  0
 19 20  1  0  0  0  0
 19 21  1  0  0  0  0
 17 18  1  0  0  0  0
 17 19  2  0  0  0  0
 15 16  1  0  0  0  0
 15 17  1  0  0  0  0
 14 15  2  0  0  0  0
 14 23  1  0  0  0  0
 11 12  1  0  0  0  0
 11 13  1  0  0  0  0
 11 14  1  0  0  0  0
  9 10  1  0  0  0  0
  9 11  1  0  0  0  0
  9 25  1  0  0  0  0
  7  8  1  0  0  0  0
  7  9  1  0  0  0  0
 29 30  1  0  0  0  0
 29 31  1  0  0  0  0
 29 32  1  0  0  0  0
 27 28  1  0  0  0  0
 27 29  1  0  0  0  0
M  END
$$$$
default_name
  -OEChem-02102213163D

 32 32  0     1  0  0  0  0  0999 V2000
   -3.8405   -3.7518    1.6252 H   0  0  0  0  0  0  0  0  0  0  0  0
   -3.7965   -2.8768    0.9782 C   0  0  0  0  0  0  0  0  0  0  0  0
   -4.5465   -2.1527    1.2902 H   0  0  0  0  0  0  0  0  0  0  0  0
   -3.9745   -3.1748   -0.0538 H   0  0  0  0  0  0  0  0  0  0  0  0
   -2.4245   -2.2537    1.0882 C   0  0  0  0  0  0  0  0  0  0  0  0
   -1.5805   -2.7478    1.8242 O   0  0  0  0  0  0  0  0  0  0  0  0
   -2.2045   -1.1637    0.3562 N   0  0  0  0  0  0  0  0  0  0  0  0
   -2.9595   -0.7907   -0.2008 H   0  0  0  0  0  0  0  0  0  0  0  0
   -0.9485   -0.4087    0.3482 C   0  0  1  0  0  0  0  0  0  0  0  0
   -0.1408   -1.0795    0.0507 H   0  0  0  0  0  0  0  0  0  0  0  0
   -1.0432    0.7243   -0.6879 C   0  0  0  0  0  0  0  0  0  0  0  0
   -0.6396    1.6392   -0.2517 H   0  0  0  0  0  0  0  0  0  0  0  0
   -0.4221    0.4699   -1.5481 H   0  0  0  0  0  0  0  0  0  0  0  0
   -2.4564    1.0114   -1.1584 C   0  0  0  0  0  0  0  0  0  0  0  0
   -2.8240    2.3092   -1.5616 C   0  0  0  0  0  0  0  0  0  0  0  0
   -2.1056    3.1155   -1.5166 H   0  0  0  0  0  0  0  0  0  0  0  0
   -4.1251    2.5589   -2.0358 C   0  0  0  0  0  0  0  0  0  0  0  0
   -4.4061    3.5567   -2.3425 H   0  0  0  0  0  0  0  0  0  0  0  0
   -5.0596    1.5121   -2.1094 C   0  0  0  0  0  0  0  0  0  0  0  0
   -6.0598    1.7045   -2.4715 H   0  0  0  0  0  0  0  0  0  0  0  0
   -4.6959    0.2144   -1.7059 C   0  0  0  0  0  0  0  0  0  0  0  0
   -5.4158   -0.5892   -1.7573 H   0  0  0  0  0  0  0  0  0  0  0  0
   -3.3966   -0.0342   -1.2289 C   0  0  0  0  0  0  0  0  0  0  0  0
   -3.1191   -1.0322   -0.9156 H   0  0  0  0  0  0  0  0  0  0  0  0
   -0.6196    0.1253    1.7539 C   0  0  0  0  0  0  0  0  0  0  0  0
    0.5216    0.0194    2.2054 O   0  0  0  0  0  0  0  0  0  0  0  0
   -1.6152    0.6924    2.4469 N   0  0  0  0  0  0  0  0  0  0  0  0
   -2.5345    0.6914    2.0318 H   0  0  0  0  0  0  0  0  0  0  0  0
   -1.4720    1.2390    3.7941 C   0  0  0  0  0  0  0  0  0  0  0  0
   -0.6345    1.9391    3.8219 H   0  0  0  0  0  0  0  0  0  0  0  0
   -2.3844    1.7580    4.0892 H   0  0  0  0  0  0  0  0  0  0  0  0
   -1.2733    0.4298    4.4995 H   0  0  0  0  0  0  0  0  0  0  0  0
  5  6  2  0  0  0  0
  5  7  1  0  0  0  0
  2  3  1  0  0  0  0
  2  4  1  0  0  0  0
  2  5  1  0  0  0  0
  1  2  1  0  0  0  0
 25 26  2  0  0  0  0
 25 27  1  0  0  0  0
 23 24  1  0  0  0  0
 21 22  1  0  0  0  0
 21 23  2  0  0  0  0
 19 20  1  0  0  0  0
 19 21  1  0  0  0  0
 17 18  1  0  0  0  0
 17 19  2  0  0  0  0
 15 16  1  0  0  0  0
 15 17  1  0  0  0  0
 14 15  2  0  0  0  0
 14 23  1  0  0  0  0
 11 12  1  0  0  0  0
 11 13  1  0  0  0  0
 11 14  1  0  0  0  0
  9 10  1  0  0  0  0
  9 11  1  0  0  0  0
  9 25  1  0  0  0  0
  7  8  1  0  0  0  0
  7  9  1  0  0  0  0
 29 30  1  0  0  0  0
 29 31  1  0  0  0  0
 29 32  1  0  0  0  0
 27 28  1  0  0  0  0
 27 29  1  0  0  0  0
M  END
$$$$
default_name
  -OEChem-02102213163D

 32 32  0     1  0  0  0  0  0999 V2000
   -3.8405   -3.7518    1.6252 H   0  0  0  0  0  0  0  0  0  0  0  0
   -3.7965   -2.8768    0.9782 C   0  0  0  0  0  0  0  0  0  0  0  0
   -4.5465   -2.1527    1.2902 H   0  0  0  0  0  0  0  0  0  0  0  0
   -3.9745   -3.1748   -0.0538 H   0  0  0  0  0  0  0  0  0  0  0  0
   -2.4245   -2.2537    1.0882 C   0  0  0  0  0  0  0  0  0  0  0  0
   -1.5805   -2.7478    1.8242 O   0  0  0  0  0  0  0  0  0  0  0  0
   -2.2045   -1.1637    0.3562 N   0  0  0  0  0  0  0  0  0  0  0  0
   -2.9595   -0.7907   -0.2008 H   0  0  0  0  0  0  0  0  0  0  0  0
   -0.9485   -0.4087    0.3482 C   0  0  1  0  0  0  0  0  0  0  0  0
   -0.1408   -1.0795    0.0507 H   0  0  0  0  0  0  0  0  0  0  0  0
   -1.0432    0.7243   -0.6879 C   0  0  0  0  0  0  0  0  0  0  0  0
   -0.6396    1.6392   -0.2517 H   0  0  0  0  0  0  0  0  0  0  0  0
   -0.4221    0.4699   -1.5481 H   0  0  0  0  0  0  0  0  0  0  0  0
   -2.4564    1.0114   -1.1584 C   0  0  0  0  0  0  0  0  0  0  0  0
   -2.7498    2.2018   -1.8503 C   0  0  0  0  0  0  0  0  0  0  0  0
   -1.9720    2.9304   -2.0308 H   0  0  0  0  0  0  0  0  0  0  0  0
   -4.0543    2.4422   -2.3197 C   0  0  0  0  0  0  0  0  0  0  0  0
   -4.2780    3.3581   -2.8485 H   0  0  0  0  0  0  0  0  0  0  0  0
   -5.0667    1.4928   -2.1000 C   0  0  0  0  0  0  0  0  0  0  0  0
   -6.0694    1.6786   -2.4585 H   0  0  0  0  0  0  0  0  0  0  0  0
   -4.7772    0.3029   -1.4076 C   0  0  0  0  0  0  0  0  0  0  0  0
   -5.5566   -0.4245   -1.2338 H   0  0  0  0  0  0  0  0  0  0  0  0
   -3.4742    0.0644   -0.9357 C   0  0  0  0  0  0  0  0  0  0  0  0
   -3.2536   -0.8498   -0.4003 H   0  0  0  0  0  0  0  0  0  0  0  0
   -0.6196    0.1253    1.7539 C   0  0  0  0  0  0  0  0  0  0  0  0
    0.5216    0.0194    2.2054 O   0  0  0  0  0  0  0  0  0  0  0  0
   -1.6152    0.6924    2.4469 N   0  0  0  0  0  0  0  0  0  0  0  0
   -2.5345    0.6914    2.0318 H   0  0  0  0  0  0  0  0  0  0  0  0
   -1.4720    1.2390    3.7941 C   0  0  0  0  0  0  0  0  0  0  0  0
   -0.6345    1.9391    3.8219 H   0  0  0  0  0  0  0  0  0  0  0  0
   -2.3844    1.7580    4.0892 H   0  0  0  0  0  0  0  0  0  0  0  0
   -1.2733    0.4298    4.4995 H   0  0  0  0  0  0  0  0  0  0  0  0
  5  6  2  0  0  0  0
  5  7  1  0  0  0  0
  2  3  1  0  0  0  0
  2  4  1  0  0  0  0
  2  5  1  0  0  0  0
  1  2  1  0  0  0  0
 25 26  2  0  0  0  0
 25 27  1  0  0  0  0
 23 24  1  0  0  0  0
 21 22  1  0  0  0  0
 21 23  2  0  0  0  0
 19 20  1  0  0  0  0
 19 21  1  0  0  0  0
 17 18  1  0  0  0  0
 17 19  2  0  0  0  0
 15 16  1  0  0  0  0
 15 17  1  0  0  0  0
 14 15  2  0  0  0  0
 14 23  1  0  0  0  0
 11 12  1  0  0  0  0
 11 13  1  0  0  0  0
 11 14  1  0  0  0  0
  9 10  1  0  0  0  0
  9 11  1  0  0  0  0
  9 25  1  0  0  0  0
  7  8  1  0  0  0  0
  7  9  1  0  0  0  0
 29 30  1  0  0  0  0
 29 31  1  0  0  0  0
 29 32  1  0  0  0  0
 27 28  1  0  0  0  0
 27 29  1  0  0  0  0
M  END
$$$$
default_name
  -OEChem-02102213163D

 32 32  0     1  0  0  0  0  0999 V2000
   -3.8405   -3.7518    1.6252 H   0  0  0  0  0  0  0  0  0  0  0  0
   -3.7965   -2.8768    0.9782 C   0  0  0  0  0  0  0  0  0  0  0  0
   -4.5465   -2.1527    1.2902 H   0  0  0  0  0  0  0  0  0  0  0  0
   -3.9745   -3.1748   -0.0538 H   0  0  0  0  0  0  0  0  0  0  0  0
   -2.4245   -2.2537    1.0882 C   0  0  0  0  0  0  0  0  0  0  0  0
   -1.5805   -2.7478    1.8242 O   0  0  0  0  0  0  0  0  0  0  0  0
   -2.2045   -1.1637    0.3562 N   0  0  0  0  0  0  0  0  0  0  0  0
   -2.9595   -0.7907   -0.2008 H   0  0  0  0  0  0  0  0  0  0  0  0
   -0.9485   -0.4087    0.3482 C   0  0  1  0  0  0  0  0  0  0  0  0
   -0.1408   -1.0795    0.0507 H   0  0  0  0  0  0  0  0  0  0  0  0
   -1.0432    0.7243   -0.6879 C   0  0  0  0  0  0  0  0  0  0  0  0
   -0.4115    1.5535   -0.3662 H   0  0  0  0  0  0  0  0  0  0  0  0
   -0.6523    0.3655   -1.6413 H   0  0  0  0  0  0  0  0  0  0  0  0
   -2.4491    1.2560   -0.8916 C   0  0  0  0  0  0  0  0  0  0  0  0
   -2.6927    2.2952   -1.8095 C   0  0  0  0  0  0  0  0  0  0  0  0
   -1.8735    2.7369   -2.3592 H   0  0  0  0  0  0  0  0  0  0  0  0
   -4.0052    2.7550   -2.0233 C   0  0  0  0  0  0  0  0  0  0  0  0
   -4.1897    3.5549   -2.7266 H   0  0  0  0  0  0  0  0  0  0  0  0
   -5.0761    2.1757   -1.3217 C   0  0  0  0  0  0  0  0  0  0  0  0
   -6.0843    2.5305   -1.4842 H   0  0  0  0  0  0  0  0  0  0  0  0
   -4.8361    1.1380   -0.4026 C   0  0  0  0  0  0  0  0  0  0  0  0
   -5.6585    0.6963    0.1407 H   0  0  0  0  0  0  0  0  0  0  0  0
   -3.5238    0.6810   -0.1868 C   0  0  0  0  0  0  0  0  0  0  0  0
   -3.3401   -0.1151    0.5230 H   0  0  0  0  0  0  0  0  0  0  0  0
   -0.6196    0.1253    1.7539 C   0  0  0  0  0  0  0  0  0  0  0  0
    0.5216    0.0194    2.2054 O   0  0  0  0  0  0  0  0  0  0  0  0
   -1.6152    0.6924    2.4469 N   0  0  0  0  0  0  0  0  0  0  0  0
   -2.5345    0.6914    2.0318 H   0  0  0  0  0  0  0  0  0  0  0  0
   -1.4720    1.2390    3.7941 C   0  0  0  0  0  0  0  0  0  0  0  0
   -0.6345    1.9391    3.8219 H   0  0  0  0  0  0  0  0  0  0  0  0
   -2.3844    1.7580    4.0892 H   0  0  0  0  0  0  0  0  0  0  0  0
   -1.2733    0.4298    4.4995 H   0  0  0  0  0  0  0  0  0  0  0  0
  5  6  2  0  0  0  0
  5  7  1  0  0  0  0
  2  3  1  0  0  0  0
  2  4  1  0  0  0  0
  2  5  1  0  0  0  0
  1  2  1  0  0  0  0
 25 26  2  0  0  0  0
 25 27  1  0  0  0  0
 23 24  1  0  0  0  0
 21 22  1  0  0  0  0
 21 23  2  0  0  0  0
 19 20  1  0  0  0  0
 19 21  1  0  0  0  0
 17 18  1  0  0  0  0
 17 19  2  0  0  0  0
 15 16  1  0  0  0  0
 15 17  1  0  0  0  0
 14 15  2  0  0  0  0
 14 23  1  0  0  0  0
 11 12  1  0  0  0  0
 11 13  1  0  0  0  0
 11 14  1  0  0  0  0
  9 10  1  0  0  0  0
  9 11  1  0  0  0  0
  9 25  1  0  0  0  0
  7  8  1  0  0  0  0
  7  9  1  0  0  0  0
 29 30  1  0  0  0  0
 29 31  1  0  0  0  0
 29 32  1  0  0  0  0
 27 28  1  0  0  0  0
 27 29  1  0  0  0  0
M  END
$$$$
default_name
  -OEChem-02102213163D

 32 32  0     1  0  0  0  0  0999 V2000
   -3.8405   -3.7518    1.6252 H   0  0  0  0  0  0  0  0  0  0  0  0
   -3.7965   -2.8768    0.9782 C   0  0  0  0  0  0  0  0  0  0  0  0
   -4.5465   -2.1527    1.2902 H   0  0  0  0  0  0  0  0  0  0  0  0
   -3.9745   -3.1748   -0.0538 H   0  0  0  0  0  0  0  0  0  0  0  0
   -2.4245   -2.2537    1.0882 C   0  0  0  0  0  0  0  0  0  0  0  0
   -1.5805   -2.7478    1.8242 O   0  0  0  0  0  0  0  0  0  0  0  0
   -2.2045   -1.1637    0.3562 N   0  0  0  0  0  0  0  0  0  0  0  0
   -2.9595   -0.7907   -0.2008 H   0  0  0  0  0  0  0  0  0  0  0  0
   -0.9485   -0.4087    0.3482 C   0  0  1  0  0  0  0  0  0  0  0  0
   -0.1408   -1.0795    0.0507 H   0  0  0  0  0  0  0  0  0  0  0  0
   -1.0432    0.7243   -0.6879 C   0  0  0  0  0  0  0  0  0  0  0  0
   -0.4115    1.5535   -0.3662 H   0  0  0  0  0  0  0  0  0  0  0  0
   -0.6523    0.3655   -1.6413 H   0  0  0  0  0  0  0  0  0  0  0  0
   -2.4491    1.2560   -0.8916 C   0  0  0  0  0  0  0  0  0  0  0  0
   -2.7541    2.0566   -2.0087 C   0  0  0  0  0  0  0  0  0  0  0  0
   -1.9805    2.3166   -2.7175 H   0  0  0  0  0  0  0  0  0  0  0  0
   -4.0697    2.5118   -2.2128 C   0  0  0  0  0  0  0  0  0  0  0  0
   -4.3012    3.1286   -3.0699 H   0  0  0  0  0  0  0  0  0  0  0  0
   -5.0826    2.1661   -1.3022 C   0  0  0  0  0  0  0  0  0  0  0  0
   -6.0929    2.5178   -1.4578 H   0  0  0  0  0  0  0  0  0  0  0  0
   -4.7810    1.3674   -0.1841 C   0  0  0  0  0  0  0  0  0  0  0  0
   -5.5583    1.1061    0.5189 H   0  0  0  0  0  0  0  0  0  0  0  0
   -3.4654    0.9154    0.0214 C   0  0  0  0  0  0  0  0  0  0  0  0
   -3.2340    0.3038    0.8838 H   0  0  0  0  0  0  0  0  0  0  0  0
   -0.6196    0.1253    1.7539 C   0  0  0  0  0  0  0  0  0  0  0  0
    0.5216    0.0194    2.2054 O   0  0  0  0  0  0  0  0  0  0  0  0
   -1.6152    0.6924    2.4469 N   0  0  0  0  0  0  0  0  0  0  0  0
   -2.5345    0.6914    2.0318 H   0  0  0  0  0  0  0  0  0  0  0  0
   -1.4720    1.2390    3.7941 C   0  0  0  0  0  0  0  0  0  0  0  0
   -0.6345    1.9391    3.8219 H   0  0  0  0  0  0  0  0  0  0  0  0
   -2.3844    1.7580    4.0892 H   0  0  0  0  0  0  0  0  0  0  0  0
   -1.2733    0.4298    4.4995 H   0  0  0  0  0  0  0  0  0  0  0  0
  5  6  2  0  0  0  0
  5  7  1  0  0  0  0
  2  3  1  0  0  0  0
  2  4  1  0  0  0  0
  2  5  1  0  0  0  0
  1  2  1  0  0  0  0
 25 26  2  0  0  0  0
 25 27  1  0  0  0  0
 23 24  1  0  0  0  0
 21 22  1  0  0  0  0
 21 23  2  0  0  0  0
 19 20  1  0  0  0  0
 19 21  1  0  0  0  0
 17 18  1  0  0  0  0
 17 19  2  0  0  0  0
 15 16  1  0  0  0  0
 15 17  1  0  0  0  0
 14 15  2  0  0  0  0
 14 23  1  0  0  0  0
 11 12  1  0  0  0  0
 11 13  1  0  0  0  0
 11 14  1  0  0  0  0
  9 10  1  0  0  0  0
  9 11  1  0  0  0  0
  9 25  1  0  0  0  0
  7  8  1  0  0  0  0
  7  9  1  0  0  0  0
 29 30  1  0  0  0  0
 29 31  1  0  0  0  0
 29 32  1  0  0  0  0
 27 28  1  0  0  0  0
 27 29  1  0  0  0  0
M  END
$$$$
default_name
  -OEChem-02102213163D

 32 32  0     1  0  0  0  0  0999 V2000
   -3.8405   -3.7518    1.6252 H   0  0  0  0  0  0  0  0  0  0  0  0
   -3.7965   -2.8768    0.9782 C   0  0  0  0  0  0  0  0  0  0  0  0
   -4.5465   -2.1527    1.2902 H   0  0  0  0  0  0  0  0  0  0  0  0
   -3.9745   -3.1748   -0.0538 H   0  0  0  0  0  0  0  0  0  0  0  0
   -2.4245   -2.2537    1.0882 C   0  0  0  0  0  0  0  0  0  0  0  0
   -1.5805   -2.7478    1.8242 O   0  0  0  0  0  0  0  0  0  0  0  0
   -2.2045   -1.1637    0.3562 N   0  0  0  0  0  0  0  0  0  0  0  0
   -2.9595   -0.7907   -0.2008 H   0  0  0  0  0  0  0  0  0  0  0  0
   -0.9485   -0.4087    0.3482 C   0  0  1  0  0  0  0  0  0  0  0  0
   -0.1408   -1.0795    0.0507 H   0  0  0  0  0  0  0  0  0  0  0  0
   -1.0432    0.7243   -0.6879 C   0  0  0  0  0  0  0  0  0  0  0  0
   -0.4115    1.5535   -0.3662 H   0  0  0  0  0  0  0  0  0  0  0  0
   -0.6523    0.3655   -1.6413 H   0  0  0  0  0  0  0  0  0  0  0  0
   -2.4491    1.2560   -0.8916 C   0  0  0  0  0  0  0  0  0  0  0  0
   -2.8397    1.7805   -2.1383 C   0  0  0  0  0  0  0  0  0  0  0  0
   -2.1311    1.8283   -2.9531 H   0  0  0  0  0  0  0  0  0  0  0  0
   -4.1577    2.2337   -2.3318 C   0  0  0  0  0  0  0  0  0  0  0  0
   -4.4548    2.6385   -3.2891 H   0  0  0  0  0  0  0  0  0  0  0  0
   -5.0874    2.1617   -1.2806 C   0  0  0  0  0  0  0  0  0  0  0  0
   -6.0993    2.5122   -1.4285 H   0  0  0  0  0  0  0  0  0  0  0  0
   -4.7000    1.6396   -0.0331 C   0  0  0  0  0  0  0  0  0  0  0  0
   -5.4130    1.5892    0.7767 H   0  0  0  0  0  0  0  0  0  0  0  0
   -3.3819    1.1897    0.1610 C   0  0  0  0  0  0  0  0  0  0  0  0
   -3.0842    0.7913    1.1222 H   0  0  0  0  0  0  0  0  0  0  0  0
   -0.6196    0.1253    1.7539 C   0  0  0  0  0  0  0  0  0  0  0  0
    0.5216    0.0194    2.2054 O   0  0  0  0  0  0  0  0  0  0  0  0
   -1.6152    0.6924    2.4469 N   0  0  0  0  0  0  0  0  0  0  0  0
   -2.5345    0.6914    2.0318 H   0  0  0  0  0  0  0  0  0  0  0  0
   -1.4720    1.2390    3.7941 C   0  0  0  0  0  0  0  0  0  0  0  0
   -0.6345    1.9391    3.8219 H   0  0  0  0  0  0  0  0  0  0  0  0
   -2.3844    1.7580    4.0892 H   0  0  0  0  0  0  0  0  0  0  0  0
   -1.2733    0.4298    4.4995 H   0  0  0  0  0  0  0  0  0  0  0  0
  5  6  2  0  0  0  0
  5  7  1  0  0  0  0
  2  3  1  0  0  0  0
  2  4  1  0  0  0  0
  2  5  1  0  0  0  0
  1  2  1  0  0  0  0
 25 26  2  0  0  0  0
 25 27  1  0  0  0  0
 23 24  1  0  0  0  0
 21 22  1  0  0  0  0
 21 23  2  0  0  0  0
 19 20  1  0  0  0  0
 19 21  1  0  0  0  0
 17 18  1  0  0  0  0
 17 19  2  0  0  0  0
 15 16  1  0  0  0  0
 15 17  1  0  0  0  0
 14 15  2  0  0  0  0
 14 23  1  0  0  0  0
 11 12  1  0  0  0  0
 11 13  1  0  0  0  0
 11 14  1  0  0  0  0
  9 10  1  0  0  0  0
  9 11  1  0  0  0  0
  9 25  1  0  0  0  0
  7  8  1  0  0  0  0
  7  9  1  0  0  0  0
 29 30  1  0  0  0  0
 29 31  1  0  0  0  0
 29 32  1  0  0  0  0
 27 28  1  0  0  0  0
 27 29  1  0  0  0  0
M  END
$$$$
default_name
  -OEChem-02102213163D

 32 32  0     1  0  0  0  0  0999 V2000
   -3.8405   -3.7518    1.6252 H   0  0  0  0  0  0  0  0  0  0  0  0
   -3.7965   -2.8768    0.9782 C   0  0  0  0  0  0  0  0  0  0  0  0
   -4.5465   -2.1527    1.2902 H   0  0  0  0  0  0  0  0  0  0  0  0
   -3.9745   -3.1748   -0.0538 H   0  0  0  0  0  0  0  0  0  0  0  0
   -2.4245   -2.2537    1.0882 C   0  0  0  0  0  0  0  0  0  0  0  0
   -1.5805   -2.7478    1.8242 O   0  0  0  0  0  0  0  0  0  0  0  0
   -2.2045   -1.1637    0.3562 N   0  0  0  0  0  0  0  0  0  0  0  0
   -2.9595   -0.7907   -0.2008 H   0  0  0  0  0  0  0  0  0  0  0  0
   -0.9485   -0.4087    0.3482 C   0  0  1  0  0  0  0  0  0  0  0  0
   -0.1408   -1.0795    0.0507 H   0  0  0  0  0  0  0  0  0  0  0  0
   -1.0432    0.7243   -0.6879 C   0  0  0  0  0  0  0  0  0  0  0  0
   -0.4115    1.5535   -0.3662 H   0  0  0  0  0  0  0  0  0  0  0  0
   -0.6523    0.3655   -1.6413 H   0  0  0  0  0  0  0  0  0  0  0  0
   -2.4491    1.2560   -0.8916 C   0  0  0  0  0  0  0  0  0  0  0  0
   -2.9438    1.4856   -2.1895 C   0  0  0  0  0  0  0  0  0  0  0  0
   -2.3148    1.3054   -3.0498 H   0  0  0  0  0  0  0  0  0  0  0  0
   -4.2631    1.9396   -2.3720 C   0  0  0  0  0  0  0  0  0  0  0  0
   -4.6400    2.1178   -3.3693 H   0  0  0  0  0  0  0  0  0  0  0  0
   -5.0902    2.1629   -1.2581 C   0  0  0  0  0  0  0  0  0  0  0  0
   -6.1030    2.5139   -1.3983 H   0  0  0  0  0  0  0  0  0  0  0  0
   -4.5985    1.9358    0.0402 C   0  0  0  0  0  0  0  0  0  0  0  0
   -5.2324    2.1126    0.8967 H   0  0  0  0  0  0  0  0  0  0  0  0
   -3.2790    1.4853    0.2224 C   0  0  0  0  0  0  0  0  0  0  0  0
   -2.9009    1.3142    1.2219 H   0  0  0  0  0  0  0  0  0  0  0  0
   -0.6196    0.1253    1.7539 C   0  0  0  0  0  0  0  0  0  0  0  0
    0.5216    0.0194    2.2054 O   0  0  0  0  0  0  0  0  0  0  0  0
   -1.6152    0.6924    2.4469 N   0  0  0  0  0  0  0  0  0  0  0  0
   -2.5345    0.6914    2.0318 H   0  0  0  0  0  0  0  0  0  0  0  0
   -1.4720    1.2390    3.7941 C   0  0  0  0  0  0  0  0  0  0  0  0
   -0.6345    1.9391    3.8219 H   0  0  0  0  0  0  0  0  0  0  0  0
   -2.3844    1.7580    4.0892 H   0  0  0  0  0  0  0  0  0  0  0  0
   -1.2733    0.4298    4.4995 H   0  0  0  0  0  0  0  0  0  0  0  0
  5  6  2  0  0  0  0
  5  7  1  0  0  0  0
  2  3  1  0  0  0  0
  2  4  1  0  0  0  0
  2  5  1  0  0  0  0
  1  2  1  0  0  0  0
 25 26  2  0  0  0  0
 25 27  1  0  0  0  0
 23 24  1  0  0  0  0
 21 22  1  0  0  0  0
 21 23  2  0  0  0  0
 19 20  1  0  0  0  0
 19 21  1  0  0  0  0
 17 18  1  0  0  0  0
 17 19  2  0  0  0  0
 15 16  1  0  0  0  0
 15 17  1  0  0  0  0
 14 15  2  0  0  0  0
 14 23  1  0  0  0  0
 11 12  1  0  0  0  0
 11 13  1  0  0  0  0
 11 14  1  0  0  0  0
  9 10  1  0  0  0  0
  9 11  1  0  0  0  0
  9 25  1  0  0  0  0
  7  8  1  0  0  0  0
  7  9  1  0  0  0  0
 29 30  1  0  0  0  0
 29 31  1  0  0  0  0
 29 32  1  0  0  0  0
 27 28  1  0  0  0  0
 27 29  1  0  0  0  0
M  END
$$$$
default_name
  -OEChem-02102213163D

 32 32  0     1  0  0  0  0  0999 V2000
   -3.8405   -3.7518    1.6252 H   0  0  0  0  0  0  0  0  0  0  0  0
   -3.7965   -2.8768    0.9782 C   0  0  0  0  0  0  0  0  0  0  0  0
   -4.5465   -2.1527    1.2902 H   0  0  0  0  0  0  0  0  0  0  0  0
   -3.9745   -3.1748   -0.0538 H   0  0  0  0  0  0  0  0  0  0  0  0
   -2.4245   -2.2537    1.0882 C   0  0  0  0  0  0  0  0  0  0  0  0
   -1.5805   -2.7478    1.8242 O   0  0  0  0  0  0  0  0  0  0  0  0
   -2.2045   -1.1637    0.3562 N   0  0  0  0  0  0  0  0  0  0  0  0
   -2.9595   -0.7907   -0.2008 H   0  0  0  0  0  0  0  0  0  0  0  0
   -0.9485   -0.4087    0.3482 C   0  0  1  0  0  0  0  0  0  0  0  0
   -0.1408   -1.0795    0.0507 H   0  0  0  0  0  0  0  0  0  0  0  0
   -1.0432    0.7243   -0.6879 C   0  0  0  0  0  0  0  0  0  0  0  0
   -0.4115    1.5535   -0.3662 H   0  0  0  0  0  0  0  0  0  0  0  0
   -0.6523    0.3655   -1.6413 H   0  0  0  0  0  0  0  0  0  0  0  0
   -2.4491    1.2560   -0.8916 C   0  0  0  0  0  0  0  0  0  0  0  0
   -3.0592    1.1921   -2.1588 C   0  0  0  0  0  0  0  0  0  0  0  0
   -2.5192    0.7835   -3.0012 H   0  0  0  0  0  0  0  0  0  0  0  0
   -4.3787    1.6495   -2.3307 C   0  0  0  0  0  0  0  0  0  0  0  0
   -4.8444    1.6020   -3.3051 H   0  0  0  0  0  0  0  0  0  0  0  0
   -5.0908    2.1695   -1.2365 C   0  0  0  0  0  0  0  0  0  0  0  0
   -6.1037    2.5231   -1.3692 H   0  0  0  0  0  0  0  0  0  0  0  0
   -4.4836    2.2361    0.0307 C   0  0  0  0  0  0  0  0  0  0  0  0
   -5.0290    2.6407    0.8707 H   0  0  0  0  0  0  0  0  0  0  0  0
   -3.1638    1.7819    0.2015 C   0  0  0  0  0  0  0  0  0  0  0  0
   -2.6966    1.8368    1.1762 H   0  0  0  0  0  0  0  0  0  0  0  0
   -0.6196    0.1253    1.7539 C   0  0  0  0  0  0  0  0  0  0  0  0
    0.5216    0.0194    2.2054 O   0  0  0  0  0  0  0  0  0  0  0  0
   -1.6152    0.6924    2.4469 N   0  0  0  0  0  0  0  0  0  0  0  0
   -2.5345    0.6914    2.0318 H   0  0  0  0  0  0  0  0  0  0  0  0
   -1.4720    1.2390    3.7941 C   0  0  0  0  0  0  0  0  0  0  0  0
   -0.6345    1.9391    3.8219 H   0  0  0  0  0  0  0  0  0  0  0  0
   -2.3844    1.7580    4.0892 H   0  0  0  0  0  0  0  0  0  0  0  0
   -1.2733    0.4298    4.4995 H   0  0  0  0  0  0  0  0  0  0  0  0
  5  6  2  0  0  0  0
  5  7  1  0  0  0  0
  2  3  1  0  0  0  0
  2  4  1  0  0  0  0
  2  5  1  0  0  0  0
  1  2  1  0  0  0  0
 25 26  2  0  0  0  0
 25 27  1  0  0  0  0
 23 24  1  0  0  0  0
 21 22  1  0  0  0  0
 21 23  2  0  0  0  0
 19 20  1  0  0  0  0
 19 21  1  0  0  0  0
 17 18  1  0  0  0  0
 17 19  2  0  0  0  0
 15 16  1  0  0  0  0
 15 17  1  0  0  0  0
 14 15  2  0  0  0  0
 14 23  1  0  0  0  0
 11 12  1  0  0  0  0
 11 13  1  0  0  0  0
 11 14  1  0  0  0  0
  9 10  1  0  0  0  0
  9 11  1  0  0  0  0
  9 25  1  0  0  0  0
  7  8  1  0  0  0  0
  7  9  1  0  0  0  0
 29 30  1  0  0  0  0
 29 31  1  0  0  0  0
 29 32  1  0  0  0  0
 27 28  1  0  0  0  0
 27 29  1  0  0  0  0
M  END
$$$$
default_name
  -OEChem-02102213163D

 32 32  0     1  0  0  0  0  0999 V2000
   -3.8405   -3.7518    1.6252 H   0  0  0  0  0  0  0  0  0  0  0  0
   -3.7965   -2.8768    0.9782 C   0  0  0  0  0  0  0  0  0  0  0  0
   -4.5465   -2.1527    1.2902 H   0  0  0  0  0  0  0  0  0  0  0  0
   -3.9745   -3.1748   -0.0538 H   0  0  0  0  0  0  0  0  0  0  0  0
   -2.4245   -2.2537    1.0882 C   0  0  0  0  0  0  0  0  0  0  0  0
   -1.5805   -2.7478    1.8242 O   0  0  0  0  0  0  0  0  0  0  0  0
   -2.2045   -1.1637    0.3562 N   0  0  0  0  0  0  0  0  0  0  0  0
   -2.9595   -0.7907   -0.2008 H   0  0  0  0  0  0  0  0  0  0  0  0
   -0.9485   -0.4087    0.3482 C   0  0  1  0  0  0  0  0  0  0  0  0
   -0.1408   -1.0795    0.0507 H   0  0  0  0  0  0  0  0  0  0  0  0
   -1.0432    0.7243   -0.6879 C   0  0  0  0  0  0  0  0  0  0  0  0
   -0.4115    1.5535   -0.3662 H   0  0  0  0  0  0  0  0  0  0  0  0
   -0.6523    0.3655   -1.6413 H   0  0  0  0  0  0  0  0  0  0  0  0
   -2.4491    1.2560   -0.8916 C   0  0  0  0  0  0  0  0  0  0  0  0
   -3.1781    0.9201   -2.0482 C   0  0  0  0  0  0  0  0  0  0  0  0
   -2.7304    0.2981   -2.8105 H   0  0  0  0  0  0  0  0  0  0  0  0
   -4.4968    1.3833   -2.2107 C   0  0  0  0  0  0  0  0  0  0  0  0
   -5.0539    1.1263   -3.1008 H   0  0  0  0  0  0  0  0  0  0  0  0
   -5.0893    2.1810   -1.2171 C   0  0  0  0  0  0  0  0  0  0  0  0
   -6.1015    2.5389   -1.3431 H   0  0  0  0  0  0  0  0  0  0  0  0
   -4.3631    2.5198   -0.0609 C   0  0  0  0  0  0  0  0  0  0  0  0
   -4.8164    3.1375    0.7004 H   0  0  0  0  0  0  0  0  0  0  0  0
   -3.0441    2.0594    0.0997 C   0  0  0  0  0  0  0  0  0  0  0  0
   -2.4853    2.3235    0.9882 H   0  0  0  0  0  0  0  0  0  0  0  0
   -0.6196    0.1253    1.7539 C   0  0  0  0  0  0  0  0  0  0  0  0
    0.5216    0.0194    2.2054 O   0  0  0  0  0  0  0  0  0  0  0  0
   -1.6152    0.6924    2.4469 N   0  0  0  0  0  0  0  0  0  0  0  0
   -2.5345    0.6914    2.0318 H   0  0  0  0  0  0  0  0  0  0  0  0
   -1.4720    1.2390    3.7941 C   0  0  0  0  0  0  0  0  0  0  0  0
   -0.6345    1.9391    3.8219 H   0  0  0  0  0  0  0  0  0  0  0  0
   -2.3844    1.7580    4.0892 H   0  0  0  0  0  0  0  0  0  0  0  0
   -1.2733    0.4298    4.4995 H   0  0  0  0  0  0  0  0  0  0  0  0
  5  6  2  0  0  0  0
  5  7  1  0  0  0  0
  2  3  1  0  0  0  0
  2  4  1  0  0  0  0
  2  5  1  0  0  0  0
  1  2  1  0  0  0  0
 25 26  2  0  0  0  0
 25 27  1  0  0  0  0
 23 24  1  0  0  0  0
 21 22  1  0  0  0  0
 21 23  2  0  0  0  0
 19 20  1  0  0  0  0
 19 21  1  0  0  0  0
 17 18  1  0  0  0  0
 17 19  2  0  0  0  0
 15 16  1  0  0  0  0
 15 17  1  0  0  0  0
 14 15  2  0  0  0  0
 14 23  1  0  0  0  0
 11 12  1  0  0  0  0
 11 13  1  0  0  0  0
 11 14  1  0  0  0  0
  9 10  1  0  0  0  0
  9 11  1  0  0  0  0
  9 25  1  0  0  0  0
  7  8  1  0  0  0  0
  7  9  1  0  0  0  0
 29 30  1  0  0  0  0
 29 31  1  0  0  0  0
 29 32  1  0  0  0  0
 27 28  1  0  0  0  0
 27 29  1  0  0  0  0
M  END
$$$$
default_name
  -OEChem-02102213163D

 32 32  0     1  0  0  0  0  0999 V2000
   -3.8405   -3.7518    1.6252 H   0  0  0  0  0  0  0  0  0  0  0  0
   -3.7965   -2.8768    0.9782 C   0  0  0  0  0  0  0  0  0  0  0  0
   -4.5465   -2.1527    1.2902 H   0  0  0  0  0  0  0  0  0  0  0  0
   -3.9745   -3.1748   -0.0538 H   0  0  0  0  0  0  0  0  0  0  0  0
   -2.4245   -2.2537    1.0882 C   0  0  0  0  0  0  0  0  0  0  0  0
   -1.5805   -2.7478    1.8242 O   0  0  0  0  0  0  0  0  0  0  0  0
   -2.2045   -1.1637    0.3562 N   0  0  0  0  0  0  0  0  0  0  0  0
   -2.9595   -0.7907   -0.2008 H   0  0  0  0  0  0  0  0  0  0  0  0
   -0.9485   -0.4087    0.3482 C   0  0  1  0  0  0  0  0  0  0  0  0
   -0.1408   -1.0795    0.0507 H   0  0  0  0  0  0  0  0  0  0  0  0
   -1.0432    0.7243   -0.6879 C   0  0  0  0  0  0  0  0  0  0  0  0
   -0.4115    1.5535   -0.3662 H   0  0  0  0  0  0  0  0  0  0  0  0
   -0.6523    0.3655   -1.6413 H   0  0  0  0  0  0  0  0  0  0  0  0
   -2.4491    1.2560   -0.8916 C   0  0  0  0  0  0  0  0  0  0  0  0
   -3.2924    0.6879   -1.8653 C   0  0  0  0  0  0  0  0  0  0  0  0
   -2.9339   -0.1176   -2.4906 H   0  0  0  0  0  0  0  0  0  0  0  0
   -4.6092    1.1590   -2.0203 C   0  0  0  0  0  0  0  0  0  0  0  0
   -5.2542    0.7231   -2.7703 H   0  0  0  0  0  0  0  0  0  0  0  0
   -5.0856    2.1968   -1.2013 C   0  0  0  0  0  0  0  0  0  0  0  0
   -6.0965    2.5603   -1.3220 H   0  0  0  0  0  0  0  0  0  0  0  0
   -4.2451    2.7677   -0.2284 C   0  0  0  0  0  0  0  0  0  0  0  0
   -4.6093    3.5691    0.3975 H   0  0  0  0  0  0  0  0  0  0  0  0
   -2.9281    2.2989   -0.0760 C   0  0  0  0  0  0  0  0  0  0  0  0
   -2.2814    2.7412    0.6706 H   0  0  0  0  0  0  0  0  0  0  0  0
   -0.6196    0.1253    1.7539 C   0  0  0  0  0  0  0  0  0  0  0  0
    0.5216    0.0194    2.2054 O   0  0  0  0  0  0  0  0  0  0  0  0
   -1.6152    0.6924    2.4469 N   0  0  0  0  0  0  0  0  0  0  0  0
   -2.5345    0.6914    2.0318 H   0  0  0  0  0  0  0  0  0  0  0  0
   -1.4720    1.2390    3.7941 C   0  0  0  0  0  0  0  0  0  0  0  0
   -0.6345    1.9391    3.8219 H   0  0  0  0  0  0  0  0  0  0  0  0
   -2.3844    1.7580    4.0892 H   0  0  0  0  0  0  0  0  0  0  0  0
   -1.2733    0.4298    4.4995 H   0  0  0  0  0  0  0  0  0  0  0  0
  5  6  2  0  0  0  0
  5  7  1  0  0  0  0
  2  3  1  0  0  0  0
  2  4  1  0  0  0  0
  2  5  1  0  0  0  0
  1  2  1  0  0  0  0
 25 26  2  0  0  0  0
 25 27  1  0  0  0  0
 23 24  1  0  0  0  0
 21 22  1  0  0  0  0
 21 23  2  0  0  0  0
 19 20  1  0  0  0  0
 19 21  1  0  0  0  0
 17 18  1  0  0  0  0
 17 19  2  0  0  0  0
 15 16  1  0  0  0  0
 15 17  1  0  0  0  0
 14 15  2  0  0  0  0
 14 23  1  0  0  0  0
 11 12  1  0  0  0  0
 11 13  1  0  0  0  0
 11 14  1  0  0  0  0
  9 10  1  0  0  0  0
  9 11  1  0  0  0  0
  9 25  1  0  0  0  0
  7  8  1  0  0  0  0
  7  9  1  0  0  0  0
 29 30  1  0  0  0  0
 29 31  1  0  0  0  0
 29 32  1  0  0  0  0
 27 28  1  0  0  0  0
 27 29  1  0  0  0  0
M  END
$$$$
default_name
  -OEChem-02102213163D

 32 32  0     1  0  0  0  0  0999 V2000
   -3.8405   -3.7518    1.6252 H   0  0  0  0  0  0  0  0  0  0  0  0
   -3.7965   -2.8768    0.9782 C   0  0  0  0  0  0  0  0  0  0  0  0
   -4.5465   -2.1527    1.2902 H   0  0  0  0  0  0  0  0  0  0  0  0
   -3.9745   -3.1748   -0.0538 H   0  0  0  0  0  0  0  0  0  0  0  0
   -2.4245   -2.2537    1.0882 C   0  0  0  0  0  0  0  0  0  0  0  0
   -1.5805   -2.7478    1.8242 O   0  0  0  0  0  0  0  0  0  0  0  0
   -2.2045   -1.1637    0.3562 N   0  0  0  0  0  0  0  0  0  0  0  0
   -2.9595   -0.7907   -0.2008 H   0  0  0  0  0  0  0  0  0  0  0  0
   -0.9485   -0.4087    0.3482 C   0  0  1  0  0  0  0  0  0  0  0  0
   -0.1408   -1.0795    0.0507 H   0  0  0  0  0  0  0  0  0  0  0  0
   -1.0432    0.7243   -0.6879 C   0  0  0  0  0  0  0  0  0  0  0  0
   -0.4115    1.5535   -0.3662 H   0  0  0  0  0  0  0  0  0  0  0  0
   -0.6523    0.3655   -1.6413 H   0  0  0  0  0  0  0  0  0  0  0  0
   -2.4491    1.2560   -0.8916 C   0  0  0  0  0  0  0  0  0  0  0  0
   -3.3943    0.5115   -1.6226 C   0  0  0  0  0  0  0  0  0  0  0  0
   -3.1159   -0.4353   -2.0635 H   0  0  0  0  0  0  0  0  0  0  0  0
   -4.7083    0.9919   -1.7723 C   0  0  0  0  0  0  0  0  0  0  0  0
   -5.4318    0.4199   -2.3362 H   0  0  0  0  0  0  0  0  0  0  0  0
   -5.0801    2.2157   -1.1902 C   0  0  0  0  0  0  0  0  0  0  0  0
   -6.0890    2.5859   -1.3072 H   0  0  0  0  0  0  0  0  0  0  0  0
   -4.1376    2.9628   -0.4604 C   0  0  0  0  0  0  0  0  0  0  0  0
   -4.4218    3.9061   -0.0175 H   0  0  0  0  0  0  0  0  0  0  0  0
   -2.8236    2.4840   -0.3138 C   0  0  0  0  0  0  0  0  0  0  0  0
   -2.0987    3.0614    0.2451 H   0  0  0  0  0  0  0  0  0  0  0  0
   -0.6196    0.1253    1.7539 C   0  0  0  0  0  0  0  0  0  0  0  0
    0.5216    0.0194    2.2054 O   0  0  0  0  0  0  0  0  0  0  0  0
   -1.6152    0.6924    2.4469 N   0  0  0  0  0  0  0  0  0  0  0  0
   -2.5345    0.6914    2.0318 H   0  0  0  0  0  0  0  0  0  0  0  0
   -1.4720    1.2390    3.7941 C   0  0  0  0  0  0  0  0  0  0  0  0
   -0.6345    1.9391    3.8219 H   0  0  0  0  0  0  0  0  0  0  0  0
   -2.3844    1.7580    4.0892 H   0  0  0  0  0  0  0  0  0  0  0  0
   -1.2733    0.4298    4.4995 H   0  0  0  0  0  0  0  0  0  0  0  0
  5  6  2  0  0  0  0
  5  7  1  0  0  0  0
  2  3  1  0  0  0  0
  2  4  1  0  0  0  0
  2  5  1  0  0  0  0
  1  2  1  0  0  0  0
 25 26  2  0  0  0  0
 25 27  1  0  0  0  0
 23 24  1  0  0  0  0
 21 22  1  0  0  0  0
 21 23  2  0  0  0  0
 19 20  1  0  0  0  0
 19 21  1  0  0  0  0
 17 18  1  0  0  0  0
 17 19  2  0  0  0  0
 15 16  1  0  0  0  0
 15 17  1  0  0  0  0
 14 15  2  0  0  0  0
 14 23  1  0  0  0  0
 11 12  1  0  0  0  0
 11 13  1  0  0  0  0
 11 14  1  0  0  0  0
  9 10  1  0  0  0  0
  9 11  1  0  0  0  0
  9 25  1  0  0  0  0
  7  8  1  0  0  0  0
  7  9  1  0  0  0  0
 29 30  1  0  0  0  0
 29 31  1  0  0  0  0
 29 32  1  0  0  0  0
 27 28  1  0  0  0  0
 27 29  1  0  0  0  0
M  END
$$$$
default_name
  -OEChem-02102213163D

 32 32  0     1  0  0  0  0  0999 V2000
   -3.8405   -3.7518    1.6252 H   0  0  0  0  0  0  0  0  0  0  0  0
   -3.7965   -2.8768    0.9782 C   0  0  0  0  0  0  0  0  0  0  0  0
   -4.5465   -2.1527    1.2902 H   0  0  0  0  0  0  0  0  0  0  0  0
   -3.9745   -3.1748   -0.0538 H   0  0  0  0  0  0  0  0  0  0  0  0
   -2.4245   -2.2537    1.0882 C   0  0  0  0  0  0  0  0  0  0  0  0
   -1.5805   -2.7478    1.8242 O   0  0  0  0  0  0  0  0  0  0  0  0
   -2.2045   -1.1637    0.3562 N   0  0  0  0  0  0  0  0  0  0  0  0
   -2.9595   -0.7907   -0.2008 H   0  0  0  0  0  0  0  0  0  0  0  0
   -0.9485   -0.4087    0.3482 C   0  0  1  0  0  0  0  0  0  0  0  0
   -0.1408   -1.0795    0.0507 H   0  0  0  0  0  0  0  0  0  0  0  0
   -1.0432    0.7243   -0.6879 C   0  0  0  0  0  0  0  0  0  0  0  0
   -0.4115    1.5535   -0.3662 H   0  0  0  0  0  0  0  0  0  0  0  0
   -0.6523    0.3655   -1.6413 H   0  0  0  0  0  0  0  0  0  0  0  0
   -2.4491    1.2560   -0.8916 C   0  0  0  0  0  0  0  0  0  0  0  0
   -3.4768    0.4029   -1.3367 C   0  0  0  0  0  0  0  0  0  0  0  0
   -3.2641   -0.6335   -1.5582 H   0  0  0  0  0  0  0  0  0  0  0  0
   -4.7873    0.8935   -1.4837 C   0  0  0  0  0  0  0  0  0  0  0  0
   -5.5744    0.2374   -1.8280 H   0  0  0  0  0  0  0  0  0  0  0  0
   -5.0730    2.2364   -1.1845 C   0  0  0  0  0  0  0  0  0  0  0  0
   -6.0795    2.6139   -1.2997 H   0  0  0  0  0  0  0  0  0  0  0  0
   -4.0482    3.0920   -0.7410 C   0  0  0  0  0  0  0  0  0  0  0  0
   -4.2665    4.1256   -0.5161 H   0  0  0  0  0  0  0  0  0  0  0  0
   -2.7379    2.6022   -0.5973 C   0  0  0  0  0  0  0  0  0  0  0  0
   -1.9496    3.2622   -0.2592 H   0  0  0  0  0  0  0  0  0  0  0  0
   -0.6196    0.1253    1.7539 C   0  0  0  0  0  0  0  0  0  0  0  0
    0.5216    0.0194    2.2054 O   0  0  0  0  0  0  0  0  0  0  0  0
   -1.6152    0.6924    2.4469 N   0  0  0  0  0  0  0  0  0  0  0  0
   -2.5345    0.6914    2.0318 H   0  0  0  0  0  0  0  0  0  0  0  0
   -1.4720    1.2390    3.7941 C   0  0  0  0  0  0  0  0  0  0  0  0
   -0.6345    1.9391    3.8219 H   0  0  0  0  0  0  0  0  0  0  0  0
   -2.3844    1.7580    4.0892 H   0  0  0  0  0  0  0  0  0  0  0  0
   -1.2733    0.4298    4.4995 H   0  0  0  0  0  0  0  0  0  0  0  0
  5  6  2  0  0  0  0
  5  7  1  0  0  0  0
  2  3  1  0  0  0  0
  2  4  1  0  0  0  0
  2  5  1  0  0  0  0
  1  2  1  0  0  0  0
 25 26  2  0  0  0  0
 25 27  1  0  0  0  0
 23 24  1  0  0  0  0
 21 22  1  0  0  0  0
 21 23  2  0  0  0  0
 19 20  1  0  0  0  0
 19 21  1  0  0  0  0
 17 18  1  0  0  0  0
 17 19  2  0  0  0  0
 15 16  1  0  0  0  0
 15 17  1  0  0  0  0
 14 15  2  0  0  0  0
 14 23  1  0  0  0  0
 11 12  1  0  0  0  0
 11 13  1  0  0  0  0
 11 14  1  0  0  0  0
  9 10  1  0  0  0  0
  9 11  1  0  0  0  0
  9 25  1  0  0  0  0
  7  8  1  0  0  0  0
  7  9  1  0  0  0  0
 29 30  1  0  0  0  0
 29 31  1  0  0  0  0
 29 32  1  0  0  0  0
 27 28  1  0  0  0  0
 27 29  1  0  0  0  0
M  END
$$$$
default_name
  -OEChem-02102213163D

 32 32  0     1  0  0  0  0  0999 V2000
   -3.8405   -3.7518    1.6252 H   0  0  0  0  0  0  0  0  0  0  0  0
   -3.7965   -2.8768    0.9782 C   0  0  0  0  0  0  0  0  0  0  0  0
   -4.5465   -2.1527    1.2902 H   0  0  0  0  0  0  0  0  0  0  0  0
   -3.9745   -3.1748   -0.0538 H   0  0  0  0  0  0  0  0  0  0  0  0
   -2.4245   -2.2537    1.0882 C   0  0  0  0  0  0  0  0  0  0  0  0
   -1.5805   -2.7478    1.8242 O   0  0  0  0  0  0  0  0  0  0  0  0
   -2.2045   -1.1637    0.3562 N   0  0  0  0  0  0  0  0  0  0  0  0
   -2.9595   -0.7907   -0.2008 H   0  0  0  0  0  0  0  0  0  0  0  0
   -0.9485   -0.4087    0.3482 C   0  0  1  0  0  0  0  0  0  0  0  0
   -0.1408   -1.0795    0.0507 H   0  0  0  0  0  0  0  0  0  0  0  0
   -1.0432    0.7243   -0.6879 C   0  0  0  0  0  0  0  0  0  0  0  0
   -0.4115    1.5535   -0.3662 H   0  0  0  0  0  0  0  0  0  0  0  0
   -0.6523    0.3655   -1.6413 H   0  0  0  0  0  0  0  0  0  0  0  0
   -2.4491    1.2560   -0.8916 C   0  0  0  0  0  0  0  0  0  0  0  0
   -3.5343    0.3694   -1.0269 C   0  0  0  0  0  0  0  0  0  0  0  0
   -3.3682   -0.6985   -1.0091 H   0  0  0  0  0  0  0  0  0  0  0  0
   -4.8409    0.8704   -1.1742 C   0  0  0  0  0  0  0  0  0  0  0  0
   -5.6725    0.1879   -1.2804 H   0  0  0  0  0  0  0  0  0  0  0  0
   -5.0650    2.2576   -1.1846 C   0  0  0  0  0  0  0  0  0  0  0  0
   -6.0686    2.6424   -1.3001 H   0  0  0  0  0  0  0  0  0  0  0  0
   -3.9827    3.1463   -1.0511 C   0  0  0  0  0  0  0  0  0  0  0  0
   -4.1542    4.2126   -1.0646 H   0  0  0  0  0  0  0  0  0  0  0  0
   -2.6767    2.6453   -0.9073 C   0  0  0  0  0  0  0  0  0  0  0  0
   -1.8445    3.3301   -0.8081 H   0  0  0  0  0  0  0  0  0  0  0  0
   -0.6196    0.1253    1.7539 C   0  0  0  0  0  0  0  0  0  0  0  0
    0.5216    0.0194    2.2054 O   0  0  0  0  0  0  0  0  0  0  0  0
   -1.6152    0.6924    2.4469 N   0  0  0  0  0  0  0  0  0  0  0  0
   -2.5345    0.6914    2.0318 H   0  0  0  0  0  0  0  0  0  0  0  0
   -1.4720    1.2390    3.7941 C   0  0  0  0  0  0  0  0  0  0  0  0
   -0.6345    1.9391    3.8219 H   0  0  0  0  0  0  0  0  0  0  0  0
   -2.3844    1.7580    4.0892 H   0  0  0  0  0  0  0  0  0  0  0  0
   -1.2733    0.4298    4.4995 H   0  0  0  0  0  0  0  0  0  0  0  0
  5  6  2  0  0  0  0
  5  7  1  0  0  0  0
  2  3  1  0  0  0  0
  2  4  1  0  0  0  0
  2  5  1  0  0  0  0
  1  2  1  0  0  0  0
 25 26  2  0  0  0  0
 25 27  1  0  0  0  0
 23 24  1  0  0  0  0
 21 22  1  0  0  0  0
 21 23  2  0  0  0  0
 19 20  1  0  0  0  0
 19 21  1  0  0  0  0
 17 18  1  0  0  0  0
 17 19  2  0  0  0  0
 15 16  1  0  0  0  0
 15 17  1  0  0  0  0
 14 15  2  0  0  0  0
 14 23  1  0  0  0  0
 11 12  1  0  0  0  0
 11 13  1  0  0  0  0
 11 14  1  0  0  0  0
  9 10  1  0  0  0  0
  9 11  1  0  0  0  0
  9 25  1  0  0  0  0
  7  8  1  0  0  0  0
  7  9  1  0  0  0  0
 29 30  1  0  0  0  0
 29 31  1  0  0  0  0
 29 32  1  0  0  0  0
 27 28  1  0  0  0  0
 27 29  1  0  0  0  0
M  END
$$$$
default_name
  -OEChem-02102213163D

 32 32  0     1  0  0  0  0  0999 V2000
   -3.8405   -3.7518    1.6252 H   0  0  0  0  0  0  0  0  0  0  0  0
   -3.7965   -2.8768    0.9782 C   0  0  0  0  0  0  0  0  0  0  0  0
   -4.5465   -2.1527    1.2902 H   0  0  0  0  0  0  0  0  0  0  0  0
   -3.9745   -3.1748   -0.0538 H   0  0  0  0  0  0  0  0  0  0  0  0
   -2.4245   -2.2537    1.0882 C   0  0  0  0  0  0  0  0  0  0  0  0
   -1.5805   -2.7478    1.8242 O   0  0  0  0  0  0  0  0  0  0  0  0
   -2.2045   -1.1637    0.3562 N   0  0  0  0  0  0  0  0  0  0  0  0
   -2.9595   -0.7907   -0.2008 H   0  0  0  0  0  0  0  0  0  0  0  0
   -0.9485   -0.4087    0.3482 C   0  0  1  0  0  0  0  0  0  0  0  0
   -0.1408   -1.0795    0.0507 H   0  0  0  0  0  0  0  0  0  0  0  0
   -1.0432    0.7243   -0.6879 C   0  0  0  0  0  0  0  0  0  0  0  0
   -0.4115    1.5535   -0.3662 H   0  0  0  0  0  0  0  0  0  0  0  0
   -0.6523    0.3655   -1.6413 H   0  0  0  0  0  0  0  0  0  0  0  0
   -2.4491    1.2560   -0.8916 C   0  0  0  0  0  0  0  0  0  0  0  0
   -3.5630    0.4134   -0.7144 C   0  0  0  0  0  0  0  0  0  0  0  0
   -3.4212   -0.6259   -0.4537 H   0  0  0  0  0  0  0  0  0  0  0  0
   -4.8654    0.9242   -0.8648 C   0  0  0  0  0  0  0  0  0  0  0  0
   -5.7192    0.2749   -0.7308 H   0  0  0  0  0  0  0  0  0  0  0  0
   -5.0566    2.2777   -1.1904 C   0  0  0  0  0  0  0  0  0  0  0  0
   -6.0572    2.6695   -1.3082 H   0  0  0  0  0  0  0  0  0  0  0  0
   -3.9457    3.1220   -1.3697 C   0  0  0  0  0  0  0  0  0  0  0  0
   -4.0924    4.1612   -1.6254 H   0  0  0  0  0  0  0  0  0  0  0  0
   -2.6441    2.6105   -1.2226 C   0  0  0  0  0  0  0  0  0  0  0  0
   -1.7903    3.2603   -1.3641 H   0  0  0  0  0  0  0  0  0  0  0  0
   -0.6196    0.1253    1.7539 C   0  0  0  0  0  0  0  0  0  0  0  0
    0.5216    0.0194    2.2054 O   0  0  0  0  0  0  0  0  0  0  0  0
   -1.6152    0.6924    2.4469 N   0  0  0  0  0  0  0  0  0  0  0  0
   -2.5345    0.6914    2.0318 H   0  0  0  0  0  0  0  0  0  0  0  0
   -1.4720    1.2390    3.7941 C   0  0  0  0  0  0  0  0  0  0  0  0
   -0.6345    1.9391    3.8219 H   0  0  0  0  0  0  0  0  0  0  0  0
   -2.3844    1.7580    4.0892 H   0  0  0  0  0  0  0  0  0  0  0  0
   -1.2733    0.4298    4.4995 H   0  0  0  0  0  0  0  0  0  0  0  0
  5  6  2  0  0  0  0
  5  7  1  0  0  0  0
  2  3  1  0  0  0  0
  2  4  1  0  0  0  0
  2  5  1  0  0  0  0
  1  2  1  0  0  0  0
 25 26  2  0  0  0  0
 25 27  1  0  0  0  0
 23 24  1  0  0  0  0
 21 22  1  0  0  0  0
 21 23  2  0  0  0  0
 19 20  1  0  0  0  0
 19 21  1  0  0  0  0
 17 18  1  0  0  0  0
 17 19  2  0  0  0  0
 15 16  1  0  0  0  0
 15 17  1  0  0  0  0
 14 15  2  0  0  0  0
 14 23  1  0  0  0  0
 11 12  1  0  0  0  0
 11 13  1  0  0  0  0
 11 14  1  0  0  0  0
  9 10  1  0  0  0  0
  9 11  1  0  0  0  0
  9 25  1  0  0  0  0
  7  8  1  0  0  0  0
  7  9  1  0  0  0  0
 29 30  1  0  0  0  0
 29 31  1  0  0  0  0
 29 32  1  0  0  0  0
 27 28  1  0  0  0  0
 27 29  1  0  0  0  0
M  END
$$$$
default_name
  -OEChem-02102213163D

 32 32  0     1  0  0  0  0  0999 V2000
   -3.8405   -3.7518    1.6252 H   0  0  0  0  0  0  0  0  0  0  0  0
   -3.7965   -2.8768    0.9782 C   0  0  0  0  0  0  0  0  0  0  0  0
   -4.5465   -2.1527    1.2902 H   0  0  0  0  0  0  0  0  0  0  0  0
   -3.9745   -3.1748   -0.0538 H   0  0  0  0  0  0  0  0  0  0  0  0
   -2.4245   -2.2537    1.0882 C   0  0  0  0  0  0  0  0  0  0  0  0
   -1.5805   -2.7478    1.8242 O   0  0  0  0  0  0  0  0  0  0  0  0
   -2.2045   -1.1637    0.3562 N   0  0  0  0  0  0  0  0  0  0  0  0
   -2.9595   -0.7907   -0.2008 H   0  0  0  0  0  0  0  0  0  0  0  0
   -0.9485   -0.4087    0.3482 C   0  0  1  0  0  0  0  0  0  0  0  0
   -0.1408   -1.0795    0.0507 H   0  0  0  0  0  0  0  0  0  0  0  0
   -1.0432    0.7243   -0.6879 C   0  0  0  0  0  0  0  0  0  0  0  0
   -0.4115    1.5535   -0.3662 H   0  0  0  0  0  0  0  0  0  0  0  0
   -0.6523    0.3655   -1.6413 H   0  0  0  0  0  0  0  0  0  0  0  0
   -2.4491    1.2560   -0.8916 C   0  0  0  0  0  0  0  0  0  0  0  0
   -3.5607    0.5318   -0.4205 C   0  0  0  0  0  0  0  0  0  0  0  0
   -3.4196   -0.4208    0.0702 H   0  0  0  0  0  0  0  0  0  0  0  0
   -4.8591    1.0512   -0.5766 C   0  0  0  0  0  0  0  0  0  0  0  0
   -5.7115    0.4924   -0.2164 H   0  0  0  0  0  0  0  0  0  0  0  0
   -5.0482    2.2955   -1.2017 C   0  0  0  0  0  0  0  0  0  0  0  0
   -6.0459    2.6934   -1.3237 H   0  0  0  0  0  0  0  0  0  0  0  0
   -3.9397    3.0209   -1.6749 C   0  0  0  0  0  0  0  0  0  0  0  0
   -4.0853    3.9748   -2.1603 H   0  0  0  0  0  0  0  0  0  0  0  0
   -2.6426    2.5001   -1.5218 C   0  0  0  0  0  0  0  0  0  0  0  0
   -1.7909    3.0576   -1.8893 H   0  0  0  0  0  0  0  0  0  0  0  0
   -0.6196    0.1253    1.7539 C   0  0  0  0  0  0  0  0  0  0  0  0
    0.5216    0.0194    2.2054 O   0  0  0  0  0  0  0  0  0  0  0  0
   -1.6152    0.6924    2.4469 N   0  0  0  0  0  0  0  0  0  0  0  0
   -2.5345    0.6914    2.0318 H   0  0  0  0  0  0  0  0  0  0  0  0
   -1.4720    1.2390    3.7941 C   0  0  0  0  0  0  0  0  0  0  0  0
   -0.6345    1.9391    3.8219 H   0  0  0  0  0  0  0  0  0  0  0  0
   -2.3844    1.7580    4.0892 H   0  0  0  0  0  0  0  0  0  0  0  0
   -1.2733    0.4298    4.4995 H   0  0  0  0  0  0  0  0  0  0  0  0
  5  6  2  0  0  0  0
  5  7  1  0  0  0  0
  2  3  1  0  0  0  0
  2  4  1  0  0  0  0
  2  5  1  0  0  0  0
  1  2  1  0  0  0  0
 25 26  2  0  0  0  0
 25 27  1  0  0  0  0
 23 24  1  0  0  0  0
 21 22  1  0  0  0  0
 21 23  2  0  0  0  0
 19 20  1  0  0  0  0
 19 21  1  0  0  0  0
 17 18  1  0  0  0  0
 17 19  2  0  0  0  0
 15 16  1  0  0  0  0
 15 17  1  0  0  0  0
 14 15  2  0  0  0  0
 14 23  1  0  0  0  0
 11 12  1  0  0  0  0
 11 13  1  0  0  0  0
 11 14  1  0  0  0  0
  9 10  1  0  0  0  0
  9 11  1  0  0  0  0
  9 25  1  0  0  0  0
  7  8  1  0  0  0  0
  7  9  1  0  0  0  0
 29 30  1  0  0  0  0
 29 31  1  0  0  0  0
 29 32  1  0  0  0  0
 27 28  1  0  0  0  0
 27 29  1  0  0  0  0
M  END
$$$$
default_name
  -OEChem-02102213163D

 32 32  0     1  0  0  0  0  0999 V2000
   -3.8405   -3.7518    1.6252 H   0  0  0  0  0  0  0  0  0  0  0  0
   -3.7965   -2.8768    0.9782 C   0  0  0  0  0  0  0  0  0  0  0  0
   -4.5465   -2.1527    1.2902 H   0  0  0  0  0  0  0  0  0  0  0  0
   -3.9745   -3.1748   -0.0538 H   0  0  0  0  0  0  0  0  0  0  0  0
   -2.4245   -2.2537    1.0882 C   0  0  0  0  0  0  0  0  0  0  0  0
   -1.5805   -2.7478    1.8242 O   0  0  0  0  0  0  0  0  0  0  0  0
   -2.2045   -1.1637    0.3562 N   0  0  0  0  0  0  0  0  0  0  0  0
   -2.9595   -0.7907   -0.2008 H   0  0  0  0  0  0  0  0  0  0  0  0
   -0.9485   -0.4087    0.3482 C   0  0  1  0  0  0  0  0  0  0  0  0
   -0.1408   -1.0795    0.0507 H   0  0  0  0  0  0  0  0  0  0  0  0
   -1.0432    0.7243   -0.6879 C   0  0  0  0  0  0  0  0  0  0  0  0
   -0.4115    1.5535   -0.3662 H   0  0  0  0  0  0  0  0  0  0  0  0
   -0.6523    0.3655   -1.6413 H   0  0  0  0  0  0  0  0  0  0  0  0
   -2.4491    1.2560   -0.8916 C   0  0  0  0  0  0  0  0  0  0  0  0
   -3.5278    0.7167   -0.1653 C   0  0  0  0  0  0  0  0  0  0  0  0
   -3.3633   -0.0970    0.5269 H   0  0  0  0  0  0  0  0  0  0  0  0
   -4.8225    1.2429   -0.3293 C   0  0  0  0  0  0  0  0  0  0  0  0
   -5.6498    0.8256    0.2275 H   0  0  0  0  0  0  0  0  0  0  0  0
   -5.0406    2.3096   -1.2176 C   0  0  0  0  0  0  0  0  0  0  0  0
   -6.0357    2.7123   -1.3453 H   0  0  0  0  0  0  0  0  0  0  0  0
   -3.9651    2.8498   -1.9461 C   0  0  0  0  0  0  0  0  0  0  0  0
   -4.1336    3.6662   -2.6330 H   0  0  0  0  0  0  0  0  0  0  0  0
   -2.6720    2.3216   -1.7844 C   0  0  0  0  0  0  0  0  0  0  0  0
   -1.8461    2.7359   -2.3479 H   0  0  0  0  0  0  0  0  0  0  0  0
   -0.6196    0.1253    1.7539 C   0  0  0  0  0  0  0  0  0  0  0  0
    0.5216    0.0194    2.2054 O   0  0  0  0  0  0  0  0  0  0  0  0
   -1.6152    0.6924    2.4469 N   0  0  0  0  0  0  0  0  0  0  0  0
   -2.5345    0.6914    2.0318 H   0  0  0  0  0  0  0  0  0  0  0  0
   -1.4720    1.2390    3.7941 C   0  0  0  0  0  0  0  0  0  0  0  0
   -0.6345    1.9391    3.8219 H   0  0  0  0  0  0  0  0  0  0  0  0
   -2.3844    1.7580    4.0892 H   0  0  0  0  0  0  0  0  0  0  0  0
   -1.2733    0.4298    4.4995 H   0  0  0  0  0  0  0  0  0  0  0  0
  5  6  2  0  0  0  0
  5  7  1  0  0  0  0
  2  3  1  0  0  0  0
  2  4  1  0  0  0  0
  2  5  1  0  0  0  0
  1  2  1  0  0  0  0
 25 26  2  0  0  0  0
 25 27  1  0  0  0  0
 23 24  1  0  0  0  0
 21 22  1  0  0  0  0
 21 23  2  0  0  0  0
 19 20  1  0  0  0  0
 19 21  1  0  0  0  0
 17 18  1  0  0  0  0
 17 19  2  0  0  0  0
 15 16  1  0  0  0  0
 15 17  1  0  0  0  0
 14 15  2  0  0  0  0
 14 23  1  0  0  0  0
 11 12  1  0  0  0  0
 11 13  1  0  0  0  0
 11 14  1  0  0  0  0
  9 10  1  0  0  0  0
  9 11  1  0  0  0  0
  9 25  1  0  0  0  0
  7  8  1  0  0  0  0
  7  9  1  0  0  0  0
 29 30  1  0  0  0  0
 29 31  1  0  0  0  0
 29 32  1  0  0  0  0
 27 28  1  0  0  0  0
 27 29  1  0  0  0  0
M  END
$$$$
default_name
  -OEChem-02102213163D

 32 32  0     1  0  0  0  0  0999 V2000
   -3.8405   -3.7518    1.6252 H   0  0  0  0  0  0  0  0  0  0  0  0
   -3.7965   -2.8768    0.9782 C   0  0  0  0  0  0  0  0  0  0  0  0
   -4.5465   -2.1527    1.2902 H   0  0  0  0  0  0  0  0  0  0  0  0
   -3.9745   -3.1748   -0.0538 H   0  0  0  0  0  0  0  0  0  0  0  0
   -2.4245   -2.2537    1.0882 C   0  0  0  0  0  0  0  0  0  0  0  0
   -1.5805   -2.7478    1.8242 O   0  0  0  0  0  0  0  0  0  0  0  0
   -2.2045   -1.1637    0.3562 N   0  0  0  0  0  0  0  0  0  0  0  0
   -2.9595   -0.7907   -0.2008 H   0  0  0  0  0  0  0  0  0  0  0  0
   -0.9485   -0.4087    0.3482 C   0  0  1  0  0  0  0  0  0  0  0  0
   -0.1408   -1.0795    0.0507 H   0  0  0  0  0  0  0  0  0  0  0  0
   -1.0432    0.7243   -0.6879 C   0  0  0  0  0  0  0  0  0  0  0  0
   -0.4115    1.5535   -0.3662 H   0  0  0  0  0  0  0  0  0  0  0  0
   -0.6523    0.3655   -1.6413 H   0  0  0  0  0  0  0  0  0  0  0  0
   -2.4491    1.2560   -0.8916 C   0  0  0  0  0  0  0  0  0  0  0  0
   -3.4664    0.9553    0.0339 C   0  0  0  0  0  0  0  0  0  0  0  0
   -3.2562    0.3233    0.8852 H   0  0  0  0  0  0  0  0  0  0  0  0
   -4.7580    1.4860   -0.1397 C   0  0  0  0  0  0  0  0  0  0  0  0
   -5.5383    1.2518    0.5708 H   0  0  0  0  0  0  0  0  0  0  0  0
   -5.0341    2.3192   -1.2371 C   0  0  0  0  0  0  0  0  0  0  0  0
   -6.0270    2.7250   -1.3717 H   0  0  0  0  0  0  0  0  0  0  0  0
   -4.0202    2.6204   -2.1646 C   0  0  0  0  0  0  0  0  0  0  0  0
   -4.2338    3.2564   -3.0111 H   0  0  0  0  0  0  0  0  0  0  0  0
   -2.7305    2.0872   -1.9926 C   0  0  0  0  0  0  0  0  0  0  0  0
   -1.9522    2.3170   -2.7088 H   0  0  0  0  0  0  0  0  0  0  0  0
   -0.6196    0.1253    1.7539 C   0  0  0  0  0  0  0  0  0  0  0  0
    0.5216    0.0194    2.2054 O   0  0  0  0  0  0  0  0  0  0  0  0
   -1.6152    0.6924    2.4469 N   0  0  0  0  0  0  0  0  0  0  0  0
   -2.5345    0.6914    2.0318 H   0  0  0  0  0  0  0  0  0  0  0  0
   -1.4720    1.2390    3.7941 C   0  0  0  0  0  0  0  0  0  0  0  0
   -0.6345    1.9391    3.8219 H   0  0  0  0  0  0  0  0  0  0  0  0
   -2.3844    1.7580    4.0892 H   0  0  0  0  0  0  0  0  0  0  0  0
   -1.2733    0.4298    4.4995 H   0  0  0  0  0  0  0  0  0  0  0  0
  5  6  2  0  0  0  0
  5  7  1  0  0  0  0
  2  3  1  0  0  0  0
  2  4  1  0  0  0  0
  2  5  1  0  0  0  0
  1  2  1  0  0  0  0
 25 26  2  0  0  0  0
 25 27  1  0  0  0  0
 23 24  1  0  0  0  0
 21 22  1  0  0  0  0
 21 23  2  0  0  0  0
 19 20  1  0  0  0  0
 19 21  1  0  0  0  0
 17 18  1  0  0  0  0
 17 19  2  0  0  0  0
 15 16  1  0  0  0  0
 15 17  1  0  0  0  0
 14 15  2  0  0  0  0
 14 23  1  0  0  0  0
 11 12  1  0  0  0  0
 11 13  1  0  0  0  0
 11 14  1  0  0  0  0
  9 10  1  0  0  0  0
  9 11  1  0  0  0  0
  9 25  1  0  0  0  0
  7  8  1  0  0  0  0
  7  9  1  0  0  0  0
 29 30  1  0  0  0  0
 29 31  1  0  0  0  0
 29 32  1  0  0  0  0
 27 28  1  0  0  0  0
 27 29  1  0  0  0  0
M  END
$$$$
default_name
  -OEChem-02102213163D

 32 32  0     1  0  0  0  0  0999 V2000
   -3.8405   -3.7518    1.6252 H   0  0  0  0  0  0  0  0  0  0  0  0
   -3.7965   -2.8768    0.9782 C   0  0  0  0  0  0  0  0  0  0  0  0
   -4.5465   -2.1527    1.2902 H   0  0  0  0  0  0  0  0  0  0  0  0
   -3.9745   -3.1748   -0.0538 H   0  0  0  0  0  0  0  0  0  0  0  0
   -2.4245   -2.2537    1.0882 C   0  0  0  0  0  0  0  0  0  0  0  0
   -1.5805   -2.7478    1.8242 O   0  0  0  0  0  0  0  0  0  0  0  0
   -2.2045   -1.1637    0.3562 N   0  0  0  0  0  0  0  0  0  0  0  0
   -2.9595   -0.7907   -0.2008 H   0  0  0  0  0  0  0  0  0  0  0  0
   -0.9485   -0.4087    0.3482 C   0  0  1  0  0  0  0  0  0  0  0  0
   -0.1408   -1.0795    0.0507 H   0  0  0  0  0  0  0  0  0  0  0  0
   -1.0432    0.7243   -0.6879 C   0  0  0  0  0  0  0  0  0  0  0  0
   -0.4115    1.5535   -0.3662 H   0  0  0  0  0  0  0  0  0  0  0  0
   -0.6523    0.3655   -1.6413 H   0  0  0  0  0  0  0  0  0  0  0  0
   -2.4491    1.2560   -0.8916 C   0  0  0  0  0  0  0  0  0  0  0  0
   -3.3808    1.2315    0.1635 C   0  0  0  0  0  0  0  0  0  0  0  0
   -3.1057    0.8116    1.1208 H   0  0  0  0  0  0  0  0  0  0  0  0
   -4.6700    1.7641   -0.0207 C   0  0  0  0  0  0  0  0  0  0  0  0
   -5.3847    1.7420    0.7900 H   0  0  0  0  0  0  0  0  0  0  0  0
   -5.0293    2.3236   -1.2587 C   0  0  0  0  0  0  0  0  0  0  0  0
   -6.0206    2.7306   -1.4010 H   0  0  0  0  0  0  0  0  0  0  0  0
   -4.1013    2.3483   -2.3156 C   0  0  0  0  0  0  0  0  0  0  0  0
   -4.3791    2.7733   -3.2690 H   0  0  0  0  0  0  0  0  0  0  0  0
   -2.8140    1.8129   -2.1322 C   0  0  0  0  0  0  0  0  0  0  0  0
   -2.1020    1.8295   -2.9472 H   0  0  0  0  0  0  0  0  0  0  0  0
   -0.6196    0.1253    1.7539 C   0  0  0  0  0  0  0  0  0  0  0  0
    0.5216    0.0194    2.2054 O   0  0  0  0  0  0  0  0  0  0  0  0
   -1.6152    0.6924    2.4469 N   0  0  0  0  0  0  0  0  0  0  0  0
   -2.5345    0.6914    2.0318 H   0  0  0  0  0  0  0  0  0  0  0  0
   -1.4720    1.2390    3.7941 C   0  0  0  0  0  0  0  0  0  0  0  0
   -0.6345    1.9391    3.8219 H   0  0  0  0  0  0  0  0  0  0  0  0
   -2.3844    1.7580    4.0892 H   0  0  0  0  0  0  0  0  0  0  0  0
   -1.2733    0.4298    4.4995 H   0  0  0  0  0  0  0  0  0  0  0  0
  5  6  2  0  0  0  0
  5  7  1  0  0  0  0
  2  3  1  0  0  0  0
  2  4  1  0  0  0  0
  2  5  1  0  0  0  0
  1  2  1  0  0  0  0
 25 26  2  0  0  0  0
 25 27  1  0  0  0  0
 23 24  1  0  0  0  0
 21 22  1  0  0  0  0
 21 23  2  0  0  0  0
 19 20  1  0  0  0  0
 19 21  1  0  0  0  0
 17 18  1  0  0  0  0
 17 19  2  0  0  0  0
 15 16  1  0  0  0  0
 15 17  1  0  0  0  0
 14 15  2  0  0  0  0
 14 23  1  0  0  0  0
 11 12  1  0  0  0  0
 11 13  1  0  0  0  0
 11 14  1  0  0  0  0
  9 10  1  0  0  0  0
  9 11  1  0  0  0  0
  9 25  1  0  0  0  0
  7  8  1  0  0  0  0
  7  9  1  0  0  0  0
 29 30  1  0  0  0  0
 29 31  1  0  0  0  0
 29 32  1  0  0  0  0
 27 28  1  0  0  0  0
 27 29  1  0  0  0  0
M  END
$$$$
default_name
  -OEChem-02102213163D

 32 32  0     1  0  0  0  0  0999 V2000
   -3.8405   -3.7518    1.6252 H   0  0  0  0  0  0  0  0  0  0  0  0
   -3.7965   -2.8768    0.9782 C   0  0  0  0  0  0  0  0  0  0  0  0
   -4.5465   -2.1527    1.2902 H   0  0  0  0  0  0  0  0  0  0  0  0
   -3.9745   -3.1748   -0.0538 H   0  0  0  0  0  0  0  0  0  0  0  0
   -2.4245   -2.2537    1.0882 C   0  0  0  0  0  0  0  0  0  0  0  0
   -1.5805   -2.7478    1.8242 O   0  0  0  0  0  0  0  0  0  0  0  0
   -2.2045   -1.1637    0.3562 N   0  0  0  0  0  0  0  0  0  0  0  0
   -2.9595   -0.7907   -0.2008 H   0  0  0  0  0  0  0  0  0  0  0  0
   -0.9485   -0.4087    0.3482 C   0  0  1  0  0  0  0  0  0  0  0  0
   -0.1408   -1.0795    0.0507 H   0  0  0  0  0  0  0  0  0  0  0  0
   -1.0432    0.7243   -0.6879 C   0  0  0  0  0  0  0  0  0  0  0  0
   -0.4115    1.5535   -0.3662 H   0  0  0  0  0  0  0  0  0  0  0  0
   -0.6523    0.3655   -1.6413 H   0  0  0  0  0  0  0  0  0  0  0  0
   -2.4491    1.2560   -0.8916 C   0  0  0  0  0  0  0  0  0  0  0  0
   -3.2767    1.5263    0.2147 C   0  0  0  0  0  0  0  0  0  0  0  0
   -2.9220    1.3345    1.2175 H   0  0  0  0  0  0  0  0  0  0  0  0
   -4.5647    2.0582    0.0194 C   0  0  0  0  0  0  0  0  0  0  0  0
   -5.1994    2.2627    0.8702 H   0  0  0  0  0  0  0  0  0  0  0  0
   -5.0265    2.3224   -1.2811 C   0  0  0  0  0  0  0  0  0  0  0  0
   -6.0169    2.7289   -1.4312 H   0  0  0  0  0  0  0  0  0  0  0  0
   -4.2027    2.0520   -2.3889 C   0  0  0  0  0  0  0  0  0  0  0  0
   -4.5596    2.2499   -3.3890 H   0  0  0  0  0  0  0  0  0  0  0  0
   -2.9168    1.5173   -2.1937 C   0  0  0  0  0  0  0  0  0  0  0  0
   -2.2853    1.3066   -3.0469 H   0  0  0  0  0  0  0  0  0  0  0  0
   -0.6196    0.1253    1.7539 C   0  0  0  0  0  0  0  0  0  0  0  0
    0.5216    0.0194    2.2054 O   0  0  0  0  0  0  0  0  0  0  0  0
   -1.6152    0.6924    2.4469 N   0  0  0  0  0  0  0  0  0  0  0  0
   -2.5345    0.6914    2.0318 H   0  0  0  0  0  0  0  0  0  0  0  0
   -1.4720    1.2390    3.7941 C   0  0  0  0  0  0  0  0  0  0  0  0
   -0.6345    1.9391    3.8219 H   0  0  0  0  0  0  0  0  0  0  0  0
   -2.3844    1.7580    4.0892 H   0  0  0  0  0  0  0  0  0  0  0  0
   -1.2733    0.4298    4.4995 H   0  0  0  0  0  0  0  0  0  0  0  0
  5  6  2  0  0  0  0
  5  7  1  0  0  0  0
  2  3  1  0  0  0  0
  2  4  1  0  0  0  0
  2  5  1  0  0  0  0
  1  2  1  0  0  0  0
 25 26  2  0  0  0  0
 25 27  1  0  0  0  0
 23 24  1  0  0  0  0
 21 22  1  0  0  0  0
 21 23  2  0  0  0  0
 19 20  1  0  0  0  0
 19 21  1  0  0  0  0
 17 18  1  0  0  0  0
 17 19  2  0  0  0  0
 15 16  1  0  0  0  0
 15 17  1  0  0  0  0
 14 15  2  0  0  0  0
 14 23  1  0  0  0  0
 11 12  1  0  0  0  0
 11 13  1  0  0  0  0
 11 14  1  0  0  0  0
  9 10  1  0  0  0  0
  9 11  1  0  0  0  0
  9 25  1  0  0  0  0
  7  8  1  0  0  0  0
  7  9  1  0  0  0  0
 29 30  1  0  0  0  0
 29 31  1  0  0  0  0
 29 32  1  0  0  0  0
 27 28  1  0  0  0  0
 27 29  1  0  0  0  0
M  END
$$$$
default_name
  -OEChem-02102213163D

 32 32  0     1  0  0  0  0  0999 V2000
   -3.8405   -3.7518    1.6252 H   0  0  0  0  0  0  0  0  0  0  0  0
   -3.7965   -2.8768    0.9782 C   0  0  0  0  0  0  0  0  0  0  0  0
   -4.5465   -2.1527    1.2902 H   0  0  0  0  0  0  0  0  0  0  0  0
   -3.9745   -3.1748   -0.0538 H   0  0  0  0  0  0  0  0  0  0  0  0
   -2.4245   -2.2537    1.0882 C   0  0  0  0  0  0  0  0  0  0  0  0
   -1.5805   -2.7478    1.8242 O   0  0  0  0  0  0  0  0  0  0  0  0
   -2.2045   -1.1637    0.3562 N   0  0  0  0  0  0  0  0  0  0  0  0
   -2.9595   -0.7907   -0.2008 H   0  0  0  0  0  0  0  0  0  0  0  0
   -0.9485   -0.4087    0.3482 C   0  0  1  0  0  0  0  0  0  0  0  0
   -0.1408   -1.0795    0.0507 H   0  0  0  0  0  0  0  0  0  0  0  0
   -1.0432    0.7243   -0.6879 C   0  0  0  0  0  0  0  0  0  0  0  0
   -0.4115    1.5535   -0.3662 H   0  0  0  0  0  0  0  0  0  0  0  0
   -0.6523    0.3655   -1.6413 H   0  0  0  0  0  0  0  0  0  0  0  0
   -2.4491    1.2560   -0.8916 C   0  0  0  0  0  0  0  0  0  0  0  0
   -3.1613    1.8198    0.1839 C   0  0  0  0  0  0  0  0  0  0  0  0
   -2.7176    1.8564    1.1689 H   0  0  0  0  0  0  0  0  0  0  0  0
   -4.4490    2.3483   -0.0218 C   0  0  0  0  0  0  0  0  0  0  0  0
   -4.9951    2.7785    0.8060 H   0  0  0  0  0  0  0  0  0  0  0  0
   -5.0259    2.3158   -1.3028 C   0  0  0  0  0  0  0  0  0  0  0  0
   -6.0162    2.7198   -1.4603 H   0  0  0  0  0  0  0  0  0  0  0  0
   -4.3176    1.7518   -2.3794 C   0  0  0  0  0  0  0  0  0  0  0  0
   -4.7631    1.7218   -3.3630 H   0  0  0  0  0  0  0  0  0  0  0  0
   -3.0320    1.2207   -2.1728 C   0  0  0  0  0  0  0  0  0  0  0  0
   -2.4895    0.7840   -3.0012 H   0  0  0  0  0  0  0  0  0  0  0  0
   -0.6196    0.1253    1.7539 C   0  0  0  0  0  0  0  0  0  0  0  0
    0.5216    0.0194    2.2054 O   0  0  0  0  0  0  0  0  0  0  0  0
   -1.6152    0.6924    2.4469 N   0  0  0  0  0  0  0  0  0  0  0  0
   -2.5345    0.6914    2.0318 H   0  0  0  0  0  0  0  0  0  0  0  0
   -1.4720    1.2390    3.7941 C   0  0  0  0  0  0  0  0  0  0  0  0
   -0.6345    1.9391    3.8219 H   0  0  0  0  0  0  0  0  0  0  0  0
   -2.3844    1.7580    4.0892 H   0  0  0  0  0  0  0  0  0  0  0  0
   -1.2733    0.4298    4.4995 H   0  0  0  0  0  0  0  0  0  0  0  0
  5  6  2  0  0  0  0
  5  7  1  0  0  0  0
  2  3  1  0  0  0  0
  2  4  1  0  0  0  0
  2  5  1  0  0  0  0
  1  2  1  0  0  0  0
 25 26  2  0  0  0  0
 25 27  1  0  0  0  0
 23 24  1  0  0  0  0
 21 22  1  0  0  0  0
 21 23  2  0  0  0  0
 19 20  1  0  0  0  0
 19 21  1  0  0  0  0
 17 18  1  0  0  0  0
 17 19  2  0  0  0  0
 15 16  1  0  0  0  0
 15 17  1  0  0  0  0
 14 15  2  0  0  0  0
 14 23  1  0  0  0  0
 11 12  1  0  0  0  0
 11 13  1  0  0  0  0
 11 14  1  0  0  0  0
  9 10  1  0  0  0  0
  9 11  1  0  0  0  0
  9 25  1  0  0  0  0
  7  8  1  0  0  0  0
  7  9  1  0  0  0  0
 29 30  1  0  0  0  0
 29 31  1  0  0  0  0
 29 32  1  0  0  0  0
 27 28  1  0  0  0  0
 27 29  1  0  0  0  0
M  END
$$$$
default_name
  -OEChem-02102213163D

 32 32  0     1  0  0  0  0  0999 V2000
   -3.8405   -3.7518    1.6252 H   0  0  0  0  0  0  0  0  0  0  0  0
   -3.7965   -2.8768    0.9782 C   0  0  0  0  0  0  0  0  0  0  0  0
   -4.5465   -2.1527    1.2902 H   0  0  0  0  0  0  0  0  0  0  0  0
   -3.9745   -3.1748   -0.0538 H   0  0  0  0  0  0  0  0  0  0  0  0
   -2.4245   -2.2537    1.0882 C   0  0  0  0  0  0  0  0  0  0  0  0
   -1.5805   -2.7478    1.8242 O   0  0  0  0  0  0  0  0  0  0  0  0
   -2.2045   -1.1637    0.3562 N   0  0  0  0  0  0  0  0  0  0  0  0
   -2.9595   -0.7907   -0.2008 H   0  0  0  0  0  0  0  0  0  0  0  0
   -0.9485   -0.4087    0.3482 C   0  0  1  0  0  0  0  0  0  0  0  0
   -0.1408   -1.0795    0.0507 H   0  0  0  0  0  0  0  0  0  0  0  0
   -1.0432    0.7243   -0.6879 C   0  0  0  0  0  0  0  0  0  0  0  0
   -0.4115    1.5535   -0.3662 H   0  0  0  0  0  0  0  0  0  0  0  0
   -0.6523    0.3655   -1.6413 H   0  0  0  0  0  0  0  0  0  0  0  0
   -2.4491    1.2560   -0.8916 C   0  0  0  0  0  0  0  0  0  0  0  0
   -3.0424    2.0919    0.0734 C   0  0  0  0  0  0  0  0  0  0  0  0
   -2.5064    2.3418    0.9781 H   0  0  0  0  0  0  0  0  0  0  0  0
   -4.3309    2.6146   -0.1418 C   0  0  0  0  0  0  0  0  0  0  0  0
   -4.7856    3.2541    0.6016 H   0  0  0  0  0  0  0  0  0  0  0  0
   -5.0274    2.3043   -1.3221 C   0  0  0  0  0  0  0  0  0  0  0  0
   -6.0184    2.7039   -1.4863 H   0  0  0  0  0  0  0  0  0  0  0  0
   -4.4382    1.4680   -2.2878 C   0  0  0  0  0  0  0  0  0  0  0  0
   -4.9756    1.2250   -3.1927 H   0  0  0  0  0  0  0  0  0  0  0  0
   -3.1517    0.9432   -2.0710 C   0  0  0  0  0  0  0  0  0  0  0  0
   -2.7008    0.2973   -2.8131 H   0  0  0  0  0  0  0  0  0  0  0  0
   -0.6196    0.1253    1.7539 C   0  0  0  0  0  0  0  0  0  0  0  0
    0.5216    0.0194    2.2054 O   0  0  0  0  0  0  0  0  0  0  0  0
   -1.6152    0.6924    2.4469 N   0  0  0  0  0  0  0  0  0  0  0  0
   -2.5345    0.6914    2.0318 H   0  0  0  0  0  0  0  0  0  0  0  0
   -1.4720    1.2390    3.7941 C   0  0  0  0  0  0  0  0  0  0  0  0
   -0.6345    1.9391    3.8219 H   0  0  0  0  0  0  0  0  0  0  0  0
   -2.3844    1.7580    4.0892 H   0  0  0  0  0  0  0  0  0  0  0  0
   -1.2733    0.4298    4.4995 H   0  0  0  0  0  0  0  0  0  0  0  0
  5  6  2  0  0  0  0
  5  7  1  0  0  0  0
  2  3  1  0  0  0  0
  2  4  1  0  0  0  0
  2  5  1  0  0  0  0
  1  2  1  0  0  0  0
 25 26  2  0  0  0  0
 25 27  1  0  0  0  0
 23 24  1  0  0  0  0
 21 22  1  0  0  0  0
 21 23  2  0  0  0  0
 19 20  1  0  0  0  0
 19 21  1  0  0  0  0
 17 18  1  0  0  0  0
 17 19  2  0  0  0  0
 15 16  1  0  0  0  0
 15 17  1  0  0  0  0
 14 15  2  0  0  0  0
 14 23  1  0  0  0  0
 11 12  1  0  0  0  0
 11 13  1  0  0  0  0
 11 14  1  0  0  0  0
  9 10  1  0  0  0  0
  9 11  1  0  0  0  0
  9 25  1  0  0  0  0
  7  8  1  0  0  0  0
  7  9  1  0  0  0  0
 29 30  1  0  0  0  0
 29 31  1  0  0  0  0
 29 32  1  0  0  0  0
 27 28  1  0  0  0  0
 27 29  1  0  0  0  0
M  END
$$$$
default_name
  -OEChem-02102213163D

 32 32  0     1  0  0  0  0  0999 V2000
   -3.8405   -3.7518    1.6252 H   0  0  0  0  0  0  0  0  0  0  0  0
   -3.7965   -2.8768    0.9782 C   0  0  0  0  0  0  0  0  0  0  0  0
   -4.5465   -2.1527    1.2902 H   0  0  0  0  0  0  0  0  0  0  0  0
   -3.9745   -3.1748   -0.0538 H   0  0  0  0  0  0  0  0  0  0  0  0
   -2.4245   -2.2537    1.0882 C   0  0  0  0  0  0  0  0  0  0  0  0
   -1.5805   -2.7478    1.8242 O   0  0  0  0  0  0  0  0  0  0  0  0
   -2.2045   -1.1637    0.3562 N   0  0  0  0  0  0  0  0  0  0  0  0
   -2.9595   -0.7907   -0.2008 H   0  0  0  0  0  0  0  0  0  0  0  0
   -0.9485   -0.4087    0.3482 C   0  0  1  0  0  0  0  0  0  0  0  0
   -0.1408   -1.0795    0.0507 H   0  0  0  0  0  0  0  0  0  0  0  0
   -1.0432    0.7243   -0.6879 C   0  0  0  0  0  0  0  0  0  0  0  0
   -0.4115    1.5535   -0.3662 H   0  0  0  0  0  0  0  0  0  0  0  0
   -0.6523    0.3655   -1.6413 H   0  0  0  0  0  0  0  0  0  0  0  0
   -2.4491    1.2560   -0.8916 C   0  0  0  0  0  0  0  0  0  0  0  0
   -2.9281    2.3240   -0.1095 C   0  0  0  0  0  0  0  0  0  0  0  0
   -2.3029    2.7575    0.6583 H   0  0  0  0  0  0  0  0  0  0  0  0
   -4.2185    2.8389   -0.3323 C   0  0  0  0  0  0  0  0  0  0  0  0
   -4.5853    3.6573    0.2712 H   0  0  0  0  0  0  0  0  0  0  0  0
   -5.0311    2.2885   -1.3379 C   0  0  0  0  0  0  0  0  0  0  0  0
   -6.0234    2.6825   -1.5075 H   0  0  0  0  0  0  0  0  0  0  0  0
   -4.5562    1.2202   -2.1203 C   0  0  0  0  0  0  0  0  0  0  0  0
   -5.1827    0.7934   -2.8897 H   0  0  0  0  0  0  0  0  0  0  0  0
   -3.2678    0.7037   -1.8952 C   0  0  0  0  0  0  0  0  0  0  0  0
   -2.9048   -0.1204   -2.4956 H   0  0  0  0  0  0  0  0  0  0  0  0
   -0.6196    0.1253    1.7539 C   0  0  0  0  0  0  0  0  0  0  0  0
    0.5216    0.0194    2.2054 O   0  0  0  0  0  0  0  0  0  0  0  0
   -1.6152    0.6924    2.4469 N   0  0  0  0  0  0  0  0  0  0  0  0
   -2.5345    0.6914    2.0318 H   0  0  0  0  0  0  0  0  0  0  0  0
   -1.4720    1.2390    3.7941 C   0  0  0  0  0  0  0  0  0  0  0  0
   -0.6345    1.9391    3.8219 H   0  0  0  0  0  0  0  0  0  0  0  0
   -2.3844    1.7580    4.0892 H   0  0  0  0  0  0  0  0  0  0  0  0
   -1.2733    0.4298    4.4995 H   0  0  0  0  0  0  0  0  0  0  0  0
  5  6  2  0  0  0  0
  5  7  1  0  0  0  0
  2  3  1  0  0  0  0
  2  4  1  0  0  0  0
  2  5  1  0  0  0  0
  1  2  1  0  0  0  0
 25 26  2  0  0  0  0
 25 27  1  0  0  0  0
 23 24  1  0  0  0  0
 21 22  1  0  0  0  0
 21 23  2  0  0  0  0
 19 20  1  0  0  0  0
 19 21  1  0  0  0  0
 17 18  1  0  0  0  0
 17 19  2  0  0  0  0
 15 16  1  0  0  0  0
 15 17  1  0  0  0  0
 14 15  2  0  0  0  0
 14 23  1  0  0  0  0
 11 12  1  0  0  0  0
 11 13  1  0  0  0  0
 11 14  1  0  0  0  0
  9 10  1  0  0  0  0
  9 11  1  0  0  0  0
  9 25  1  0  0  0  0
  7  8  1  0  0  0  0
  7  9  1  0  0  0  0
 29 30  1  0  0  0  0
 29 31  1  0  0  0  0
 29 32  1  0  0  0  0
 27 28  1  0  0  0  0
 27 29  1  0  0  0  0
M  END
$$$$
default_name
  -OEChem-02102213163D

 32 32  0     1  0  0  0  0  0999 V2000
   -3.8405   -3.7518    1.6252 H   0  0  0  0  0  0  0  0  0  0  0  0
   -3.7965   -2.8768    0.9782 C   0  0  0  0  0  0  0  0  0  0  0  0
   -4.5465   -2.1527    1.2902 H   0  0  0  0  0  0  0  0  0  0  0  0
   -3.9745   -3.1748   -0.0538 H   0  0  0  0  0  0  0  0  0  0  0  0
   -2.4245   -2.2537    1.0882 C   0  0  0  0  0  0  0  0  0  0  0  0
   -1.5805   -2.7478    1.8242 O   0  0  0  0  0  0  0  0  0  0  0  0
   -2.2045   -1.1637    0.3562 N   0  0  0  0  0  0  0  0  0  0  0  0
   -2.9595   -0.7907   -0.2008 H   0  0  0  0  0  0  0  0  0  0  0  0
   -0.9485   -0.4087    0.3482 C   0  0  1  0  0  0  0  0  0  0  0  0
   -0.1408   -1.0795    0.0507 H   0  0  0  0  0  0  0  0  0  0  0  0
   -1.0432    0.7243   -0.6879 C   0  0  0  0  0  0  0  0  0  0  0  0
   -0.4115    1.5535   -0.3662 H   0  0  0  0  0  0  0  0  0  0  0  0
   -0.6523    0.3655   -1.6413 H   0  0  0  0  0  0  0  0  0  0  0  0
   -2.4491    1.2560   -0.8916 C   0  0  0  0  0  0  0  0  0  0  0  0
   -2.8262    2.5004   -0.3522 C   0  0  0  0  0  0  0  0  0  0  0  0
   -2.1208    3.0753    0.2312 H   0  0  0  0  0  0  0  0  0  0  0  0
   -4.1194    3.0059   -0.5802 C   0  0  0  0  0  0  0  0  0  0  0  0
   -4.4077    3.9605   -0.1629 H   0  0  0  0  0  0  0  0  0  0  0  0
   -5.0367    2.2696   -1.3491 C   0  0  0  0  0  0  0  0  0  0  0  0
   -6.0309    2.6569   -1.5223 H   0  0  0  0  0  0  0  0  0  0  0  0
   -4.6636    1.0250   -1.8883 C   0  0  0  0  0  0  0  0  0  0  0  0
   -5.3703    0.4564   -2.4748 H   0  0  0  0  0  0  0  0  0  0  0  0
   -3.3722    0.5186   -1.6575 C   0  0  0  0  0  0  0  0  0  0  0  0
   -3.0875   -0.4406   -2.0701 H   0  0  0  0  0  0  0  0  0  0  0  0
   -0.6196    0.1253    1.7539 C   0  0  0  0  0  0  0  0  0  0  0  0
    0.5216    0.0194    2.2054 O   0  0  0  0  0  0  0  0  0  0  0  0
   -1.6152    0.6924    2.4469 N   0  0  0  0  0  0  0  0  0  0  0  0
   -2.5345    0.6914    2.0318 H   0  0  0  0  0  0  0  0  0  0  0  0
   -1.4720    1.2390    3.7941 C   0  0  0  0  0  0  0  0  0  0  0  0
   -0.6345    1.9391    3.8219 H   0  0  0  0  0  0  0  0  0  0  0  0
   -2.3844    1.7580    4.0892 H   0  0  0  0  0  0  0  0  0  0  0  0
   -1.2733    0.4298    4.4995 H   0  0  0  0  0  0  0  0  0  0  0  0
  5  6  2  0  0  0  0
  5  7  1  0  0  0  0
  2  3  1  0  0  0  0
  2  4  1  0  0  0  0
  2  5  1  0  0  0  0
  1  2  1  0  0  0  0
 25 26  2  0  0  0  0
 25 27  1  0  0  0  0
 23 24  1  0  0  0  0
 21 22  1  0  0  0  0
 21 23  2  0  0  0  0
 19 20  1  0  0  0  0
 19 21  1  0  0  0  0
 17 18  1  0  0  0  0
 17 19  2  0  0  0  0
 15 16  1  0  0  0  0
 15 17  1  0  0  0  0
 14 15  2  0  0  0  0
 14 23  1  0  0  0  0
 11 12  1  0  0  0  0
 11 13  1  0  0  0  0
 11 14  1  0  0  0  0
  9 10  1  0  0  0  0
  9 11  1  0  0  0  0
  9 25  1  0  0  0  0
  7  8  1  0  0  0  0
  7  9  1  0  0  0  0
 29 30  1  0  0  0  0
 29 31  1  0  0  0  0
 29 32  1  0  0  0  0
 27 28  1  0  0  0  0
 27 29  1  0  0  0  0
M  END
$$$$
default_name
  -OEChem-02102213163D

 32 32  0     1  0  0  0  0  0999 V2000
   -3.8405   -3.7518    1.6252 H   0  0  0  0  0  0  0  0  0  0  0  0
   -3.7965   -2.8768    0.9782 C   0  0  0  0  0  0  0  0  0  0  0  0
   -4.5465   -2.1527    1.2902 H   0  0  0  0  0  0  0  0  0  0  0  0
   -3.9745   -3.1748   -0.0538 H   0  0  0  0  0  0  0  0  0  0  0  0
   -2.4245   -2.2537    1.0882 C   0  0  0  0  0  0  0  0  0  0  0  0
   -1.5805   -2.7478    1.8242 O   0  0  0  0  0  0  0  0  0  0  0  0
   -2.2045   -1.1637    0.3562 N   0  0  0  0  0  0  0  0  0  0  0  0
   -2.9595   -0.7907   -0.2008 H   0  0  0  0  0  0  0  0  0  0  0  0
   -0.9485   -0.4087    0.3482 C   0  0  1  0  0  0  0  0  0  0  0  0
   -0.1408   -1.0795    0.0507 H   0  0  0  0  0  0  0  0  0  0  0  0
   -1.0432    0.7243   -0.6879 C   0  0  0  0  0  0  0  0  0  0  0  0
   -0.4115    1.5535   -0.3662 H   0  0  0  0  0  0  0  0  0  0  0  0
   -0.6523    0.3655   -1.6413 H   0  0  0  0  0  0  0  0  0  0  0  0
   -2.4491    1.2560   -0.8916 C   0  0  0  0  0  0  0  0  0  0  0  0
   -2.7437    2.6091   -0.6382 C   0  0  0  0  0  0  0  0  0  0  0  0
   -1.9727    3.2734   -0.2741 H   0  0  0  0  0  0  0  0  0  0  0  0
   -4.0404    3.1044   -0.8688 C   0  0  0  0  0  0  0  0  0  0  0  0
   -4.2651    4.1431   -0.6711 H   0  0  0  0  0  0  0  0  0  0  0  0
   -5.0437    2.2489   -1.3548 C   0  0  0  0  0  0  0  0  0  0  0  0
   -6.0405    2.6289   -1.5298 H   0  0  0  0  0  0  0  0  0  0  0  0
   -4.7531    0.8959   -1.6077 C   0  0  0  0  0  0  0  0  0  0  0  0
   -5.5255    0.2369   -1.9761 H   0  0  0  0  0  0  0  0  0  0  0  0
   -3.4580    0.4004   -1.3739 C   0  0  0  0  0  0  0  0  0  0  0  0
   -3.2365   -0.6415   -1.5657 H   0  0  0  0  0  0  0  0  0  0  0  0
   -0.6196    0.1253    1.7539 C   0  0  0  0  0  0  0  0  0  0  0  0
    0.5216    0.0194    2.2054 O   0  0  0  0  0  0  0  0  0  0  0  0
   -1.6152    0.6924    2.4469 N   0  0  0  0  0  0  0  0  0  0  0  0
   -2.5345    0.6914    2.0318 H   0  0  0  0  0  0  0  0  0  0  0  0
   -1.4720    1.2390    3.7941 C   0  0  0  0  0  0  0  0  0  0  0  0
   -0.6345    1.9391    3.8219 H   0  0  0  0  0  0  0  0  0  0  0  0
   -2.3844    1.7580    4.0892 H   0  0  0  0  0  0  0  0  0  0  0  0
   -1.2733    0.4298    4.4995 H   0  0  0  0  0  0  0  0  0  0  0  0
  5  6  2  0  0  0  0
  5  7  1  0  0  0  0
  2  3  1  0  0  0  0
  2  4  1  0  0  0  0
  2  5  1  0  0  0  0
  1  2  1  0  0  0  0
 25 26  2  0  0  0  0
 25 27  1  0  0  0  0
 23 24  1  0  0  0  0
 21 22  1  0  0  0  0
 21 23  2  0  0  0  0
 19 20  1  0  0  0  0
 19 21  1  0  0  0  0
 17 18  1  0  0  0  0
 17 19  2  0  0  0  0
 15 16  1  0  0  0  0
 15 17  1  0  0  0  0
 14 15  2  0  0  0  0
 14 23  1  0  0  0  0
 11 12  1  0  0  0  0
 11 13  1  0  0  0  0
 11 14  1  0  0  0  0
  9 10  1  0  0  0  0
  9 11  1  0  0  0  0
  9 25  1  0  0  0  0
  7  8  1  0  0  0  0
  7  9  1  0  0  0  0
 29 30  1  0  0  0  0
 29 31  1  0  0  0  0
 29 32  1  0  0  0  0
 27 28  1  0  0  0  0
 27 29  1  0  0  0  0
M  END
$$$$
default_name
  -OEChem-02102213163D

 32 32  0     1  0  0  0  0  0999 V2000
   -3.8405   -3.7518    1.6252 H   0  0  0  0  0  0  0  0  0  0  0  0
   -3.7965   -2.8768    0.9782 C   0  0  0  0  0  0  0  0  0  0  0  0
   -4.5465   -2.1527    1.2902 H   0  0  0  0  0  0  0  0  0  0  0  0
   -3.9745   -3.1748   -0.0538 H   0  0  0  0  0  0  0  0  0  0  0  0
   -2.4245   -2.2537    1.0882 C   0  0  0  0  0  0  0  0  0  0  0  0
   -1.5805   -2.7478    1.8242 O   0  0  0  0  0  0  0  0  0  0  0  0
   -2.2045   -1.1637    0.3562 N   0  0  0  0  0  0  0  0  0  0  0  0
   -2.9595   -0.7907   -0.2008 H   0  0  0  0  0  0  0  0  0  0  0  0
   -0.9485   -0.4087    0.3482 C   0  0  1  0  0  0  0  0  0  0  0  0
   -0.1408   -1.0795    0.0507 H   0  0  0  0  0  0  0  0  0  0  0  0
   -1.0432    0.7243   -0.6879 C   0  0  0  0  0  0  0  0  0  0  0  0
   -0.4115    1.5535   -0.3662 H   0  0  0  0  0  0  0  0  0  0  0  0
   -0.6523    0.3655   -1.6413 H   0  0  0  0  0  0  0  0  0  0  0  0
   -2.4491    1.2560   -0.8916 C   0  0  0  0  0  0  0  0  0  0  0  0
   -2.6862    2.6425   -0.9479 C   0  0  0  0  0  0  0  0  0  0  0  0
   -1.8686    3.3384   -0.8232 H   0  0  0  0  0  0  0  0  0  0  0  0
   -3.9868    3.1275   -1.1784 C   0  0  0  0  0  0  0  0  0  0  0  0
   -4.1670    4.1926   -1.2187 H   0  0  0  0  0  0  0  0  0  0  0  0
   -5.0517    2.2277   -1.3547 C   0  0  0  0  0  0  0  0  0  0  0  0
   -6.0513    2.6004   -1.5294 H   0  0  0  0  0  0  0  0  0  0  0  0
   -4.8185    0.8416   -1.2976 C   0  0  0  0  0  0  0  0  0  0  0  0
   -5.6379    0.1499   -1.4277 H   0  0  0  0  0  0  0  0  0  0  0  0
   -3.5192    0.3573   -1.0640 C   0  0  0  0  0  0  0  0  0  0  0  0
   -3.3417   -0.7093   -1.0169 H   0  0  0  0  0  0  0  0  0  0  0  0
   -0.6196    0.1253    1.7539 C   0  0  0  0  0  0  0  0  0  0  0  0
    0.5216    0.0194    2.2054 O   0  0  0  0  0  0  0  0  0  0  0  0
   -1.6152    0.6924    2.4469 N   0  0  0  0  0  0  0  0  0  0  0  0
   -2.5345    0.6914    2.0318 H   0  0  0  0  0  0  0  0  0  0  0  0
   -1.4720    1.2390    3.7941 C   0  0  0  0  0  0  0  0  0  0  0  0
   -0.6345    1.9391    3.8219 H   0  0  0  0  0  0  0  0  0  0  0  0
   -2.3844    1.7580    4.0892 H   0  0  0  0  0  0  0  0  0  0  0  0
   -1.2733    0.4298    4.4995 H   0  0  0  0  0  0  0  0  0  0  0  0
  5  6  2  0  0  0  0
  5  7  1  0  0  0  0
  2  3  1  0  0  0  0
  2  4  1  0  0  0  0
  2  5  1  0  0  0  0
  1  2  1  0  0  0  0
 25 26  2  0  0  0  0
 25 27  1  0  0  0  0
 23 24  1  0  0  0  0
 21 22  1  0  0  0  0
 21 23  2  0  0  0  0
 19 20  1  0  0  0  0
 19 21  1  0  0  0  0
 17 18  1  0  0  0  0
 17 19  2  0  0  0  0
 15 16  1  0  0  0  0
 15 17  1  0  0  0  0
 14 15  2  0  0  0  0
 14 23  1  0  0  0  0
 11 12  1  0  0  0  0
 11 13  1  0  0  0  0
 11 14  1  0  0  0  0
  9 10  1  0  0  0  0
  9 11  1  0  0  0  0
  9 25  1  0  0  0  0
  7  8  1  0  0  0  0
  7  9  1  0  0  0  0
 29 30  1  0  0  0  0
 29 31  1  0  0  0  0
 29 32  1  0  0  0  0
 27 28  1  0  0  0  0
 27 29  1  0  0  0  0
M  END
$$$$
default_name
  -OEChem-02102213163D

 32 32  0     1  0  0  0  0  0999 V2000
   -3.8405   -3.7518    1.6252 H   0  0  0  0  0  0  0  0  0  0  0  0
   -3.7965   -2.8768    0.9782 C   0  0  0  0  0  0  0  0  0  0  0  0
   -4.5465   -2.1527    1.2902 H   0  0  0  0  0  0  0  0  0  0  0  0
   -3.9745   -3.1748   -0.0538 H   0  0  0  0  0  0  0  0  0  0  0  0
   -2.4245   -2.2537    1.0882 C   0  0  0  0  0  0  0  0  0  0  0  0
   -1.5805   -2.7478    1.8242 O   0  0  0  0  0  0  0  0  0  0  0  0
   -2.2045   -1.1637    0.3562 N   0  0  0  0  0  0  0  0  0  0  0  0
   -2.9595   -0.7907   -0.2008 H   0  0  0  0  0  0  0  0  0  0  0  0
   -0.9485   -0.4087    0.3482 C   0  0  1  0  0  0  0  0  0  0  0  0
   -0.1408   -1.0795    0.0507 H   0  0  0  0  0  0  0  0  0  0  0  0
   -1.0432    0.7243   -0.6879 C   0  0  0  0  0  0  0  0  0  0  0  0
   -0.4115    1.5535   -0.3662 H   0  0  0  0  0  0  0  0  0  0  0  0
   -0.6523    0.3655   -1.6413 H   0  0  0  0  0  0  0  0  0  0  0  0
   -2.4491    1.2560   -0.8916 C   0  0  0  0  0  0  0  0  0  0  0  0
   -2.6575    2.5985   -1.2604 C   0  0  0  0  0  0  0  0  0  0  0  0
   -1.8155    3.2659   -1.3786 H   0  0  0  0  0  0  0  0  0  0  0  0
   -3.9623    3.0737   -1.4878 C   0  0  0  0  0  0  0  0  0  0  0  0
   -4.1203    4.1056   -1.7684 H   0  0  0  0  0  0  0  0  0  0  0  0
   -5.0601    2.2076   -1.3489 C   0  0  0  0  0  0  0  0  0  0  0  0
   -6.0627    2.5733   -1.5213 H   0  0  0  0  0  0  0  0  0  0  0  0
   -4.8555    0.8658   -0.9790 C   0  0  0  0  0  0  0  0  0  0  0  0
   -5.6997    0.2013   -0.8669 H   0  0  0  0  0  0  0  0  0  0  0  0
   -3.5517    0.3921   -0.7486 C   0  0  0  0  0  0  0  0  0  0  0  0
   -3.3959   -0.6395   -0.4609 H   0  0  0  0  0  0  0  0  0  0  0  0
   -0.6196    0.1253    1.7539 C   0  0  0  0  0  0  0  0  0  0  0  0
    0.5216    0.0194    2.2054 O   0  0  0  0  0  0  0  0  0  0  0  0
   -1.6152    0.6924    2.4469 N   0  0  0  0  0  0  0  0  0  0  0  0
   -2.5345    0.6914    2.0318 H   0  0  0  0  0  0  0  0  0  0  0  0
   -1.4720    1.2390    3.7941 C   0  0  0  0  0  0  0  0  0  0  0  0
   -0.6345    1.9391    3.8219 H   0  0  0  0  0  0  0  0  0  0  0  0
   -2.3844    1.7580    4.0892 H   0  0  0  0  0  0  0  0  0  0  0  0
   -1.2733    0.4298    4.4995 H   0  0  0  0  0  0  0  0  0  0  0  0
  5  6  2  0  0  0  0
  5  7  1  0  0  0  0
  2  3  1  0  0  0  0
  2  4  1  0  0  0  0
  2  5  1  0  0  0  0
  1  2  1  0  0  0  0
 25 26  2  0  0  0  0
 25 27  1  0  0  0  0
 23 24  1  0  0  0  0
 21 22  1  0  0  0  0
 21 23  2  0  0  0  0
 19 20  1  0  0  0  0
 19 21  1  0  0  0  0
 17 18  1  0  0  0  0
 17 19  2  0  0  0  0
 15 16  1  0  0  0  0
 15 17  1  0  0  0  0
 14 15  2  0  0  0  0
 14 23  1  0  0  0  0
 11 12  1  0  0  0  0
 11 13  1  0  0  0  0
 11 14  1  0  0  0  0
  9 10  1  0  0  0  0
  9 11  1  0  0  0  0
  9 25  1  0  0  0  0
  7  8  1  0  0  0  0
  7  9  1  0  0  0  0
 29 30  1  0  0  0  0
 29 31  1  0  0  0  0
 29 32  1  0  0  0  0
 27 28  1  0  0  0  0
 27 29  1  0  0  0  0
M  END
$$$$
default_name
  -OEChem-02102213163D

 32 32  0     1  0  0  0  0  0999 V2000
   -3.8405   -3.7518    1.6252 H   0  0  0  0  0  0  0  0  0  0  0  0
   -3.7965   -2.8768    0.9782 C   0  0  0  0  0  0  0  0  0  0  0  0
   -4.5465   -2.1527    1.2902 H   0  0  0  0  0  0  0  0  0  0  0  0
   -3.9745   -3.1748   -0.0538 H   0  0  0  0  0  0  0  0  0  0  0  0
   -2.4245   -2.2537    1.0882 C   0  0  0  0  0  0  0  0  0  0  0  0
   -1.5805   -2.7478    1.8242 O   0  0  0  0  0  0  0  0  0  0  0  0
   -2.2045   -1.1637    0.3562 N   0  0  0  0  0  0  0  0  0  0  0  0
   -2.9595   -0.7907   -0.2008 H   0  0  0  0  0  0  0  0  0  0  0  0
   -0.9485   -0.4087    0.3482 C   0  0  1  0  0  0  0  0  0  0  0  0
   -0.1408   -1.0795    0.0507 H   0  0  0  0  0  0  0  0  0  0  0  0
   -1.0432    0.7243   -0.6879 C   0  0  0  0  0  0  0  0  0  0  0  0
   -0.4115    1.5535   -0.3662 H   0  0  0  0  0  0  0  0  0  0  0  0
   -0.6523    0.3655   -1.6413 H   0  0  0  0  0  0  0  0  0  0  0  0
   -2.4491    1.2560   -0.8916 C   0  0  0  0  0  0  0  0  0  0  0  0
   -2.6598    2.4801   -1.5543 C   0  0  0  0  0  0  0  0  0  0  0  0
   -1.8172    3.0607   -1.9025 H   0  0  0  0  0  0  0  0  0  0  0  0
   -3.9686    2.9466   -1.7760 C   0  0  0  0  0  0  0  0  0  0  0  0
   -4.1280    3.8881   -2.2827 H   0  0  0  0  0  0  0  0  0  0  0  0
   -5.0685    2.1898   -1.3376 C   0  0  0  0  0  0  0  0  0  0  0  0
   -6.0740    2.5495   -1.5058 H   0  0  0  0  0  0  0  0  0  0  0  0
   -4.8615    0.9669   -0.6738 C   0  0  0  0  0  0  0  0  0  0  0  0
   -5.7067    0.3877   -0.3319 H   0  0  0  0  0  0  0  0  0  0  0  0
   -3.5533    0.5025   -0.4494 C   0  0  0  0  0  0  0  0  0  0  0  0
   -3.3953   -0.4368    0.0643 H   0  0  0  0  0  0  0  0  0  0  0  0
   -0.6196    0.1253    1.7539 C   0  0  0  0  0  0  0  0  0  0  0  0
    0.5216    0.0194    2.2054 O   0  0  0  0  0  0  0  0  0  0  0  0
   -1.6152    0.6924    2.4469 N   0  0  0  0  0  0  0  0  0  0  0  0
   -2.5345    0.6914    2.0318 H   0  0  0  0  0  0  0  0  0  0  0  0
   -1.4720    1.2390    3.7941 C   0  0  0  0  0  0  0  0  0  0  0  0
   -0.6345    1.9391    3.8219 H   0  0  0  0  0  0  0  0  0  0  0  0
   -2.3844    1.7580    4.0892 H   0  0  0  0  0  0  0  0  0  0  0  0
   -1.2733    0.4298    4.4995 H   0  0  0  0  0  0  0  0  0  0  0  0
  5  6  2  0  0  0  0
  5  7  1  0  0  0  0
  2  3  1  0  0  0  0
  2  4  1  0  0  0  0
  2  5  1  0  0  0  0
  1  2  1  0  0  0  0
 25 26  2  0  0  0  0
 25 27  1  0  0  0  0
 23 24  1  0  0  0  0
 21 22  1  0  0  0  0
 21 23  2  0  0  0  0
 19 20  1  0  0  0  0
 19 21  1  0  0  0  0
 17 18  1  0  0  0  0
 17 19  2  0  0  0  0
 15 16  1  0  0  0  0
 15 17  1  0  0  0  0
 14 15  2  0  0  0  0
 14 23  1  0  0  0  0
 11 12  1  0  0  0  0
 11 13  1  0  0  0  0
 11 14  1  0  0  0  0
  9 10  1  0  0  0  0
  9 11  1  0  0  0  0
  9 25  1  0  0  0  0
  7  8  1  0  0  0  0
  7  9  1  0  0  0  0
 29 30  1  0  0  0  0
 29 31  1  0  0  0  0
 29 32  1  0  0  0  0
 27 28  1  0  0  0  0
 27 29  1  0  0  0  0
M  END
$$$$
default_name
  -OEChem-02102213163D

 32 32  0     1  0  0  0  0  0999 V2000
   -3.8405   -3.7518    1.6252 H   0  0  0  0  0  0  0  0  0  0  0  0
   -3.7965   -2.8768    0.9782 C   0  0  0  0  0  0  0  0  0  0  0  0
   -4.5465   -2.1527    1.2902 H   0  0  0  0  0  0  0  0  0  0  0  0
   -3.9745   -3.1748   -0.0538 H   0  0  0  0  0  0  0  0  0  0  0  0
   -2.4245   -2.2537    1.0882 C   0  0  0  0  0  0  0  0  0  0  0  0
   -1.5805   -2.7478    1.8242 O   0  0  0  0  0  0  0  0  0  0  0  0
   -2.2045   -1.1637    0.3562 N   0  0  0  0  0  0  0  0  0  0  0  0
   -2.9595   -0.7907   -0.2008 H   0  0  0  0  0  0  0  0  0  0  0  0
   -0.9485   -0.4087    0.3482 C   0  0  1  0  0  0  0  0  0  0  0  0
   -0.1408   -1.0795    0.0507 H   0  0  0  0  0  0  0  0  0  0  0  0
   -1.0432    0.7243   -0.6879 C   0  0  0  0  0  0  0  0  0  0  0  0
   -0.2279    1.4292   -0.5190 H   0  0  0  0  0  0  0  0  0  0  0  0
   -0.9106    0.3032   -1.6857 H   0  0  0  0  0  0  0  0  0  0  0  0
   -2.3487    1.4951   -0.6393 C   0  0  0  0  0  0  0  0  0  0  0  0
   -2.5806    2.5619   -1.5281 C   0  0  0  0  0  0  0  0  0  0  0  0
   -1.8185    2.8532   -2.2370 H   0  0  0  0  0  0  0  0  0  0  0  0
   -3.8103    3.2456   -1.5046 C   0  0  0  0  0  0  0  0  0  0  0  0
   -3.9854    4.0661   -2.1862 H   0  0  0  0  0  0  0  0  0  0  0  0
   -4.8102    2.8630   -0.5944 C   0  0  0  0  0  0  0  0  0  0  0  0
   -5.7540    3.3898   -0.5748 H   0  0  0  0  0  0  0  0  0  0  0  0
   -4.5810    1.7984    0.2962 C   0  0  0  0  0  0  0  0  0  0  0  0
   -5.3475    1.5077    0.9995 H   0  0  0  0  0  0  0  0  0  0  0  0
   -3.3509    1.1175    0.2747 C   0  0  0  0  0  0  0  0  0  0  0  0
   -3.1746    0.3008    0.9626 H   0  0  0  0  0  0  0  0  0  0  0  0
   -0.6196    0.1253    1.7539 C   0  0  0  0  0  0  0  0  0  0  0  0
    0.5216    0.0194    2.2054 O   0  0  0  0  0  0  0  0  0  0  0  0
   -1.6152    0.6924    2.4469 N   0  0  0  0  0  0  0  0  0  0  0  0
   -2.5345    0.6914    2.0318 H   0  0  0  0  0  0  0  0  0  0  0  0
   -1.4720    1.2390    3.7941 C   0  0  0  0  0  0  0  0  0  0  0  0
   -0.6345    1.9391    3.8219 H   0  0  0  0  0  0  0  0  0  0  0  0
   -2.3844    1.7580    4.0892 H   0  0  0  0  0  0  0  0  0  0  0  0
   -1.2733    0.4298    4.4995 H   0  0  0  0  0  0  0  0  0  0  0  0
  5  6  2  0  0  0  0
  5  7  1  0  0  0  0
  2  3  1  0  0  0  0
  2  4  1  0  0  0  0
  2  5  1  0  0  0  0
  1  2  1  0  0  0  0
 25 26  2  0  0  0  0
 25 27  1  0  0  0  0
 23 24  1  0  0  0  0
 21 22  1  0  0  0  0
 21 23  2  0  0  0  0
 19 20  1  0  0  0  0
 19 21  1  0  0  0  0
 17 18  1  0  0  0  0
 17 19  2  0  0  0  0
 15 16  1  0  0  0  0
 15 17  1  0  0  0  0
 14 15  2  0  0  0  0
 14 23  1  0  0  0  0
 11 12  1  0  0  0  0
 11 13  1  0  0  0  0
 11 14  1  0  0  0  0
  9 10  1  0  0  0  0
  9 11  1  0  0  0  0
  9 25  1  0  0  0  0
  7  8  1  0  0  0  0
  7  9  1  0  0  0  0
 29 30  1  0  0  0  0
 29 31  1  0  0  0  0
 29 32  1  0  0  0  0
 27 28  1  0  0  0  0
 27 29  1  0  0  0  0
M  END
$$$$
default_name
  -OEChem-02102213163D

 32 32  0     1  0  0  0  0  0999 V2000
   -3.8405   -3.7518    1.6252 H   0  0  0  0  0  0  0  0  0  0  0  0
   -3.7965   -2.8768    0.9782 C   0  0  0  0  0  0  0  0  0  0  0  0
   -4.5465   -2.1527    1.2902 H   0  0  0  0  0  0  0  0  0  0  0  0
   -3.9745   -3.1748   -0.0538 H   0  0  0  0  0  0  0  0  0  0  0  0
   -2.4245   -2.2537    1.0882 C   0  0  0  0  0  0  0  0  0  0  0  0
   -1.5805   -2.7478    1.8242 O   0  0  0  0  0  0  0  0  0  0  0  0
   -2.2045   -1.1637    0.3562 N   0  0  0  0  0  0  0  0  0  0  0  0
   -2.9595   -0.7907   -0.2008 H   0  0  0  0  0  0  0  0  0  0  0  0
   -0.9485   -0.4087    0.3482 C   0  0  1  0  0  0  0  0  0  0  0  0
   -0.1408   -1.0795    0.0507 H   0  0  0  0  0  0  0  0  0  0  0  0
   -1.0432    0.7243   -0.6879 C   0  0  0  0  0  0  0  0  0  0  0  0
   -0.2279    1.4292   -0.5190 H   0  0  0  0  0  0  0  0  0  0  0  0
   -0.9106    0.3032   -1.6857 H   0  0  0  0  0  0  0  0  0  0  0  0
   -2.3487    1.4951   -0.6393 C   0  0  0  0  0  0  0  0  0  0  0  0
   -2.7194    2.3380   -1.7042 C   0  0  0  0  0  0  0  0  0  0  0  0
   -2.0634    2.4586   -2.5546 H   0  0  0  0  0  0  0  0  0  0  0  0
   -3.9510    3.0177   -1.6705 C   0  0  0  0  0  0  0  0  0  0  0  0
   -4.2326    3.6665   -2.4880 H   0  0  0  0  0  0  0  0  0  0  0  0
   -4.8143    2.8547   -0.5738 C   0  0  0  0  0  0  0  0  0  0  0  0
   -5.7594    3.3787   -0.5469 H   0  0  0  0  0  0  0  0  0  0  0  0
   -4.4462    2.0143    0.4927 C   0  0  0  0  0  0  0  0  0  0  0  0
   -5.1073    1.8931    1.3382 H   0  0  0  0  0  0  0  0  0  0  0  0
   -3.2139    1.3377    0.4602 C   0  0  0  0  0  0  0  0  0  0  0  0
   -2.9304    0.6941    1.2829 H   0  0  0  0  0  0  0  0  0  0  0  0
   -0.6196    0.1253    1.7539 C   0  0  0  0  0  0  0  0  0  0  0  0
    0.5216    0.0194    2.2054 O   0  0  0  0  0  0  0  0  0  0  0  0
   -1.6152    0.6924    2.4469 N   0  0  0  0  0  0  0  0  0  0  0  0
   -2.5345    0.6914    2.0318 H   0  0  0  0  0  0  0  0  0  0  0  0
   -1.4720    1.2390    3.7941 C   0  0  0  0  0  0  0  0  0  0  0  0
   -0.6345    1.9391    3.8219 H   0  0  0  0  0  0  0  0  0  0  0  0
   -2.3844    1.7580    4.0892 H   0  0  0  0  0  0  0  0  0  0  0  0
   -1.2733    0.4298    4.4995 H   0  0  0  0  0  0  0  0  0  0  0  0
  5  6  2  0  0  0  0
  5  7  1  0  0  0  0
  2  3  1  0  0  0  0
  2  4  1  0  0  0  0
  2  5  1  0  0  0  0
  1  2  1  0  0  0  0
 25 26  2  0  0  0  0
 25 27  1  0  0  0  0
 23 24  1  0  0  0  0
 21 22  1  0  0  0  0
 21 23  2  0  0  0  0
 19 20  1  0  0  0  0
 19 21  1  0  0  0  0
 17 18  1  0  0  0  0
 17 19  2  0  0  0  0
 15 16  1  0  0  0  0
 15 17  1  0  0  0  0
 14 15  2  0  0  0  0
 14 23  1  0  0  0  0
 11 12  1  0  0  0  0
 11 13  1  0  0  0  0
 11 14  1  0  0  0  0
  9 10  1  0  0  0  0
  9 11  1  0  0  0  0
  9 25  1  0  0  0  0
  7  8  1  0  0  0  0
  7  9  1  0  0  0  0
 29 30  1  0  0  0  0
 29 31  1  0  0  0  0
 29 32  1  0  0  0  0
 27 28  1  0  0  0  0
 27 29  1  0  0  0  0
M  END
$$$$
default_name
  -OEChem-02102213163D

 32 32  0     1  0  0  0  0  0999 V2000
   -3.8405   -3.7518    1.6252 H   0  0  0  0  0  0  0  0  0  0  0  0
   -3.7965   -2.8768    0.9782 C   0  0  0  0  0  0  0  0  0  0  0  0
   -4.5465   -2.1527    1.2902 H   0  0  0  0  0  0  0  0  0  0  0  0
   -3.9745   -3.1748   -0.0538 H   0  0  0  0  0  0  0  0  0  0  0  0
   -2.4245   -2.2537    1.0882 C   0  0  0  0  0  0  0  0  0  0  0  0
   -1.5805   -2.7478    1.8242 O   0  0  0  0  0  0  0  0  0  0  0  0
   -2.2045   -1.1637    0.3562 N   0  0  0  0  0  0  0  0  0  0  0  0
   -2.9595   -0.7907   -0.2008 H   0  0  0  0  0  0  0  0  0  0  0  0
   -0.9485   -0.4087    0.3482 C   0  0  1  0  0  0  0  0  0  0  0  0
   -0.1408   -1.0795    0.0507 H   0  0  0  0  0  0  0  0  0  0  0  0
   -1.0432    0.7243   -0.6879 C   0  0  0  0  0  0  0  0  0  0  0  0
   -0.2279    1.4292   -0.5190 H   0  0  0  0  0  0  0  0  0  0  0  0
   -0.9106    0.3032   -1.6857 H   0  0  0  0  0  0  0  0  0  0  0  0
   -2.3487    1.4951   -0.6393 C   0  0  0  0  0  0  0  0  0  0  0  0
   -2.8748    2.0814   -1.8061 C   0  0  0  0  0  0  0  0  0  0  0  0
   -2.3384    2.0047   -2.7413 H   0  0  0  0  0  0  0  0  0  0  0  0
   -4.1068    2.7596   -1.7614 C   0  0  0  0  0  0  0  0  0  0  0  0
   -4.5078    3.2112   -2.6580 H   0  0  0  0  0  0  0  0  0  0  0  0
   -4.8155    2.8512   -0.5515 C   0  0  0  0  0  0  0  0  0  0  0  0
   -5.7609    3.3743   -0.5167 H   0  0  0  0  0  0  0  0  0  0  0  0
   -4.2919    2.2678    0.6166 C   0  0  0  0  0  0  0  0  0  0  0  0
   -4.8339    2.3428    1.5479 H   0  0  0  0  0  0  0  0  0  0  0  0
   -3.0590    1.5930    0.5724 C   0  0  0  0  0  0  0  0  0  0  0  0
   -2.6557    1.1475    1.4725 H   0  0  0  0  0  0  0  0  0  0  0  0
   -0.6196    0.1253    1.7539 C   0  0  0  0  0  0  0  0  0  0  0  0
    0.5216    0.0194    2.2054 O   0  0  0  0  0  0  0  0  0  0  0  0
   -1.6152    0.6924    2.4469 N   0  0  0  0  0  0  0  0  0  0  0  0
   -2.5345    0.6914    2.0318 H   0  0  0  0  0  0  0  0  0  0  0  0
   -1.4720    1.2390    3.7941 C   0  0  0  0  0  0  0  0  0  0  0  0
   -0.6345    1.9391    3.8219 H   0  0  0  0  0  0  0  0  0  0  0  0
   -2.3844    1.7580    4.0892 H   0  0  0  0  0  0  0  0  0  0  0  0
   -1.2733    0.4298    4.4995 H   0  0  0  0  0  0  0  0  0  0  0  0
  5  6  2  0  0  0  0
  5  7  1  0  0  0  0
  2  3  1  0  0  0  0
  2  4  1  0  0  0  0
  2  5  1  0  0  0  0
  1  2  1  0  0  0  0
 25 26  2  0  0  0  0
 25 27  1  0  0  0  0
 23 24  1  0  0  0  0
 21 22  1  0  0  0  0
 21 23  2  0  0  0  0
 19 20  1  0  0  0  0
 19 21  1  0  0  0  0
 17 18  1  0  0  0  0
 17 19  2  0  0  0  0
 15 16  1  0  0  0  0
 15 17  1  0  0  0  0
 14 15  2  0  0  0  0
 14 23  1  0  0  0  0
 11 12  1  0  0  0  0
 11 13  1  0  0  0  0
 11 14  1  0  0  0  0
  9 10  1  0  0  0  0
  9 11  1  0  0  0  0
  9 25  1  0  0  0  0
  7  8  1  0  0  0  0
  7  9  1  0  0  0  0
 29 30  1  0  0  0  0
 29 31  1  0  0  0  0
 29 32  1  0  0  0  0
 27 28  1  0  0  0  0
 27 29  1  0  0  0  0
M  END
$$$$
default_name
  -OEChem-02102213163D

 32 32  0     1  0  0  0  0  0999 V2000
   -3.8405   -3.7518    1.6252 H   0  0  0  0  0  0  0  0  0  0  0  0
   -3.7965   -2.8768    0.9782 C   0  0  0  0  0  0  0  0  0  0  0  0
   -4.5465   -2.1527    1.2902 H   0  0  0  0  0  0  0  0  0  0  0  0
   -3.9745   -3.1748   -0.0538 H   0  0  0  0  0  0  0  0  0  0  0  0
   -2.4245   -2.2537    1.0882 C   0  0  0  0  0  0  0  0  0  0  0  0
   -1.5805   -2.7478    1.8242 O   0  0  0  0  0  0  0  0  0  0  0  0
   -2.2045   -1.1637    0.3562 N   0  0  0  0  0  0  0  0  0  0  0  0
   -2.9595   -0.7907   -0.2008 H   0  0  0  0  0  0  0  0  0  0  0  0
   -0.9485   -0.4087    0.3482 C   0  0  1  0  0  0  0  0  0  0  0  0
   -0.1408   -1.0795    0.0507 H   0  0  0  0  0  0  0  0  0  0  0  0
   -1.0432    0.7243   -0.6879 C   0  0  0  0  0  0  0  0  0  0  0  0
   -0.2279    1.4292   -0.5190 H   0  0  0  0  0  0  0  0  0  0  0  0
   -0.9106    0.3032   -1.6857 H   0  0  0  0  0  0  0  0  0  0  0  0
   -2.3487    1.4951   -0.6393 C   0  0  0  0  0  0  0  0  0  0  0  0
   -3.0361    1.8095   -1.8269 C   0  0  0  0  0  0  0  0  0  0  0  0
   -2.6248    1.5223   -2.7843 H   0  0  0  0  0  0  0  0  0  0  0  0
   -4.2672    2.4886   -1.7713 C   0  0  0  0  0  0  0  0  0  0  0  0
   -4.7921    2.7313   -2.6845 H   0  0  0  0  0  0  0  0  0  0  0  0
   -4.8137    2.8528   -0.5290 C   0  0  0  0  0  0  0  0  0  0  0  0
   -5.7584    3.3766   -0.4864 H   0  0  0  0  0  0  0  0  0  0  0  0
   -4.1287    2.5415    0.6596 C   0  0  0  0  0  0  0  0  0  0  0  0
   -4.5460    2.8262    1.6144 H   0  0  0  0  0  0  0  0  0  0  0  0
   -2.8968    1.8657    0.6035 C   0  0  0  0  0  0  0  0  0  0  0  0
   -2.3691    1.6298    1.5185 H   0  0  0  0  0  0  0  0  0  0  0  0
   -0.6196    0.1253    1.7539 C   0  0  0  0  0  0  0  0  0  0  0  0
    0.5216    0.0194    2.2054 O   0  0  0  0  0  0  0  0  0  0  0  0
   -1.6152    0.6924    2.4469 N   0  0  0  0  0  0  0  0  0  0  0  0
   -2.5345    0.6914    2.0318 H   0  0  0  0  0  0  0  0  0  0  0  0
   -1.4720    1.2390    3.7941 C   0  0  0  0  0  0  0  0  0  0  0  0
   -0.6345    1.9391    3.8219 H   0  0  0  0  0  0  0  0  0  0  0  0
   -2.3844    1.7580    4.0892 H   0  0  0  0  0  0  0  0  0  0  0  0
   -1.2733    0.4298    4.4995 H   0  0  0  0  0  0  0  0  0  0  0  0
  5  6  2  0  0  0  0
  5  7  1  0  0  0  0
  2  3  1  0  0  0  0
  2  4  1  0  0  0  0
  2  5  1  0  0  0  0
  1  2  1  0  0  0  0
 25 26  2  0  0  0  0
 25 27  1  0  0  0  0
 23 24  1  0  0  0  0
 21 22  1  0  0  0  0
 21 23  2  0  0  0  0
 19 20  1  0  0  0  0
 19 21  1  0  0  0  0
 17 18  1  0  0  0  0
 17 19  2  0  0  0  0
 15 16  1  0  0  0  0
 15 17  1  0  0  0  0
 14 15  2  0  0  0  0
 14 23  1  0  0  0  0
 11 12  1  0  0  0  0
 11 13  1  0  0  0  0
 11 14  1  0  0  0  0
  9 10  1  0  0  0  0
  9 11  1  0  0  0  0
  9 25  1  0  0  0  0
  7  8  1  0  0  0  0
  7  9  1  0  0  0  0
 29 30  1  0  0  0  0
 29 31  1  0  0  0  0
 29 32  1  0  0  0  0
 27 28  1  0  0  0  0
 27 29  1  0  0  0  0
M  END
$$$$
default_name
  -OEChem-02102213163D

 32 32  0     1  0  0  0  0  0999 V2000
   -3.8405   -3.7518    1.6252 H   0  0  0  0  0  0  0  0  0  0  0  0
   -3.7965   -2.8768    0.9782 C   0  0  0  0  0  0  0  0  0  0  0  0
   -4.5465   -2.1527    1.2902 H   0  0  0  0  0  0  0  0  0  0  0  0
   -3.9745   -3.1748   -0.0538 H   0  0  0  0  0  0  0  0  0  0  0  0
   -2.4245   -2.2537    1.0882 C   0  0  0  0  0  0  0  0  0  0  0  0
   -1.5805   -2.7478    1.8242 O   0  0  0  0  0  0  0  0  0  0  0  0
   -2.2045   -1.1637    0.3562 N   0  0  0  0  0  0  0  0  0  0  0  0
   -2.9595   -0.7907   -0.2008 H   0  0  0  0  0  0  0  0  0  0  0  0
   -0.9485   -0.4087    0.3482 C   0  0  1  0  0  0  0  0  0  0  0  0
   -0.1408   -1.0795    0.0507 H   0  0  0  0  0  0  0  0  0  0  0  0
   -1.0432    0.7243   -0.6879 C   0  0  0  0  0  0  0  0  0  0  0  0
   -0.2279    1.4292   -0.5190 H   0  0  0  0  0  0  0  0  0  0  0  0
   -0.9106    0.3032   -1.6857 H   0  0  0  0  0  0  0  0  0  0  0  0
   -2.3487    1.4951   -0.6393 C   0  0  0  0  0  0  0  0  0  0  0  0
   -3.1924    1.5408   -1.7653 C   0  0  0  0  0  0  0  0  0  0  0  0
   -2.9031    1.0444   -2.6808 H   0  0  0  0  0  0  0  0  0  0  0  0
   -4.4211    2.2234   -1.6993 C   0  0  0  0  0  0  0  0  0  0  0  0
   -5.0663    2.2594   -2.5659 H   0  0  0  0  0  0  0  0  0  0  0  0
   -4.8091    2.8594   -0.5078 C   0  0  0  0  0  0  0  0  0  0  0  0
   -5.7520    3.3857   -0.4580 H   0  0  0  0  0  0  0  0  0  0  0  0
   -3.9676    2.8169    0.6187 C   0  0  0  0  0  0  0  0  0  0  0  0
   -4.2632    3.3103    1.5330 H   0  0  0  0  0  0  0  0  0  0  0  0
   -2.7383    2.1375    0.5515 C   0  0  0  0  0  0  0  0  0  0  0  0
   -2.0903    2.1084    1.4179 H   0  0  0  0  0  0  0  0  0  0  0  0
   -0.6196    0.1253    1.7539 C   0  0  0  0  0  0  0  0  0  0  0  0
    0.5216    0.0194    2.2054 O   0  0  0  0  0  0  0  0  0  0  0  0
   -1.6152    0.6924    2.4469 N   0  0  0  0  0  0  0  0  0  0  0  0
   -2.5345    0.6914    2.0318 H   0  0  0  0  0  0  0  0  0  0  0  0
   -1.4720    1.2390    3.7941 C   0  0  0  0  0  0  0  0  0  0  0  0
   -0.6345    1.9391    3.8219 H   0  0  0  0  0  0  0  0  0  0  0  0
   -2.3844    1.7580    4.0892 H   0  0  0  0  0  0  0  0  0  0  0  0
   -1.2733    0.4298    4.4995 H   0  0  0  0  0  0  0  0  0  0  0  0
  5  6  2  0  0  0  0
  5  7  1  0  0  0  0
  2  3  1  0  0  0  0
  2  4  1  0  0  0  0
  2  5  1  0  0  0  0
  1  2  1  0  0  0  0
 25 26  2  0  0  0  0
 25 27  1  0  0  0  0
 23 24  1  0  0  0  0
 21 22  1  0  0  0  0
 21 23  2  0  0  0  0
 19 20  1  0  0  0  0
 19 21  1  0  0  0  0
 17 18  1  0  0  0  0
 17 19  2  0  0  0  0
 15 16  1  0  0  0  0
 15 17  1  0  0  0  0
 14 15  2  0  0  0  0
 14 23  1  0  0  0  0
 11 12  1  0  0  0  0
 11 13  1  0  0  0  0
 11 14  1  0  0  0  0
  9 10  1  0  0  0  0
  9 11  1  0  0  0  0
  9 25  1  0  0  0  0
  7  8  1  0  0  0  0
  7  9  1  0  0  0  0
 29 30  1  0  0  0  0
 29 31  1  0  0  0  0
 29 32  1  0  0  0  0
 27 28  1  0  0  0  0
 27 29  1  0  0  0  0
M  END
$$$$
default_name
  -OEChem-02102213163D

 32 32  0     1  0  0  0  0  0999 V2000
   -3.8405   -3.7518    1.6252 H   0  0  0  0  0  0  0  0  0  0  0  0
   -3.7965   -2.8768    0.9782 C   0  0  0  0  0  0  0  0  0  0  0  0
   -4.5465   -2.1527    1.2902 H   0  0  0  0  0  0  0  0  0  0  0  0
   -3.9745   -3.1748   -0.0538 H   0  0  0  0  0  0  0  0  0  0  0  0
   -2.4245   -2.2537    1.0882 C   0  0  0  0  0  0  0  0  0  0  0  0
   -1.5805   -2.7478    1.8242 O   0  0  0  0  0  0  0  0  0  0  0  0
   -2.2045   -1.1637    0.3562 N   0  0  0  0  0  0  0  0  0  0  0  0
   -2.9595   -0.7907   -0.2008 H   0  0  0  0  0  0  0  0  0  0  0  0
   -0.9485   -0.4087    0.3482 C   0  0  1  0  0  0  0  0  0  0  0  0
   -0.1408   -1.0795    0.0507 H   0  0  0  0  0  0  0  0  0  0  0  0
   -1.0432    0.7243   -0.6879 C   0  0  0  0  0  0  0  0  0  0  0  0
   -0.2279    1.4292   -0.5190 H   0  0  0  0  0  0  0  0  0  0  0  0
   -0.9106    0.3032   -1.6857 H   0  0  0  0  0  0  0  0  0  0  0  0
   -2.3487    1.4951   -0.6393 C   0  0  0  0  0  0  0  0  0  0  0  0
   -3.3331    1.2938   -1.6253 C   0  0  0  0  0  0  0  0  0  0  0  0
   -3.1544    0.6036   -2.4377 H   0  0  0  0  0  0  0  0  0  0  0  0
   -4.5581    1.9819   -1.5505 C   0  0  0  0  0  0  0  0  0  0  0  0
   -5.3116    1.8278   -2.3101 H   0  0  0  0  0  0  0  0  0  0  0  0
   -4.8018    2.8704   -0.4895 C   0  0  0  0  0  0  0  0  0  0  0  0
   -5.7421    3.4009   -0.4334 H   0  0  0  0  0  0  0  0  0  0  0  0
   -3.8197    3.0751    0.4967 C   0  0  0  0  0  0  0  0  0  0  0  0
   -4.0047    3.7621    1.3093 H   0  0  0  0  0  0  0  0  0  0  0  0
   -2.5942    2.3898    0.4198 C   0  0  0  0  0  0  0  0  0  0  0  0
   -1.8382    2.5506    1.1773 H   0  0  0  0  0  0  0  0  0  0  0  0
   -0.6196    0.1253    1.7539 C   0  0  0  0  0  0  0  0  0  0  0  0
    0.5216    0.0194    2.2054 O   0  0  0  0  0  0  0  0  0  0  0  0
   -1.6152    0.6924    2.4469 N   0  0  0  0  0  0  0  0  0  0  0  0
   -2.5345    0.6914    2.0318 H   0  0  0  0  0  0  0  0  0  0  0  0
   -1.4720    1.2390    3.7941 C   0  0  0  0  0  0  0  0  0  0  0  0
   -0.6345    1.9391    3.8219 H   0  0  0  0  0  0  0  0  0  0  0  0
   -2.3844    1.7580    4.0892 H   0  0  0  0  0  0  0  0  0  0  0  0
   -1.2733    0.4298    4.4995 H   0  0  0  0  0  0  0  0  0  0  0  0
  5  6  2  0  0  0  0
  5  7  1  0  0  0  0
  2  3  1  0  0  0  0
  2  4  1  0  0  0  0
  2  5  1  0  0  0  0
  1  2  1  0  0  0  0
 25 26  2  0  0  0  0
 25 27  1  0  0  0  0
 23 24  1  0  0  0  0
 21 22  1  0  0  0  0
 21 23  2  0  0  0  0
 19 20  1  0  0  0  0
 19 21  1  0  0  0  0
 17 18  1  0  0  0  0
 17 19  2  0  0  0  0
 15 16  1  0  0  0  0
 15 17  1  0  0  0  0
 14 15  2  0  0  0  0
 14 23  1  0  0  0  0
 11 12  1  0  0  0  0
 11 13  1  0  0  0  0
 11 14  1  0  0  0  0
  9 10  1  0  0  0  0
  9 11  1  0  0  0  0
  9 25  1  0  0  0  0
  7  8  1  0  0  0  0
  7  9  1  0  0  0  0
 29 30  1  0  0  0  0
 29 31  1  0  0  0  0
 29 32  1  0  0  0  0
 27 28  1  0  0  0  0
 27 29  1  0  0  0  0
M  END
$$$$
default_name
  -OEChem-02102213163D

 32 32  0     1  0  0  0  0  0999 V2000
   -3.8405   -3.7518    1.6252 H   0  0  0  0  0  0  0  0  0  0  0  0
   -3.7965   -2.8768    0.9782 C   0  0  0  0  0  0  0  0  0  0  0  0
   -4.5465   -2.1527    1.2902 H   0  0  0  0  0  0  0  0  0  0  0  0
   -3.9745   -3.1748   -0.0538 H   0  0  0  0  0  0  0  0  0  0  0  0
   -2.4245   -2.2537    1.0882 C   0  0  0  0  0  0  0  0  0  0  0  0
   -1.5805   -2.7478    1.8242 O   0  0  0  0  0  0  0  0  0  0  0  0
   -2.2045   -1.1637    0.3562 N   0  0  0  0  0  0  0  0  0  0  0  0
   -2.9595   -0.7907   -0.2008 H   0  0  0  0  0  0  0  0  0  0  0  0
   -0.9485   -0.4087    0.3482 C   0  0  1  0  0  0  0  0  0  0  0  0
   -0.1408   -1.0795    0.0507 H   0  0  0  0  0  0  0  0  0  0  0  0
   -1.0432    0.7243   -0.6879 C   0  0  0  0  0  0  0  0  0  0  0  0
   -0.2279    1.4292   -0.5190 H   0  0  0  0  0  0  0  0  0  0  0  0
   -0.9106    0.3032   -1.6857 H   0  0  0  0  0  0  0  0  0  0  0  0
   -2.3487    1.4951   -0.6393 C   0  0  0  0  0  0  0  0  0  0  0  0
   -3.4485    1.0852   -1.4166 C   0  0  0  0  0  0  0  0  0  0  0  0
   -3.3614    0.2298   -2.0716 H   0  0  0  0  0  0  0  0  0  0  0  0
   -4.6689    1.7807   -1.3350 C   0  0  0  0  0  0  0  0  0  0  0  0
   -5.5114    1.4658   -1.9347 H   0  0  0  0  0  0  0  0  0  0  0  0
   -4.7925    2.8853   -0.4752 C   0  0  0  0  0  0  0  0  0  0  0  0
   -5.7295    3.4210   -0.4143 H   0  0  0  0  0  0  0  0  0  0  0  0
   -3.6950    3.2985    0.3018 C   0  0  0  0  0  0  0  0  0  0  0  0
   -3.7883    4.1509    0.9587 H   0  0  0  0  0  0  0  0  0  0  0  0
   -2.4745    2.6053    0.2175 C   0  0  0  0  0  0  0  0  0  0  0  0
   -1.6299    2.9262    0.8134 H   0  0  0  0  0  0  0  0  0  0  0  0
   -0.6196    0.1253    1.7539 C   0  0  0  0  0  0  0  0  0  0  0  0
    0.5216    0.0194    2.2054 O   0  0  0  0  0  0  0  0  0  0  0  0
   -1.6152    0.6924    2.4469 N   0  0  0  0  0  0  0  0  0  0  0  0
   -2.5345    0.6914    2.0318 H   0  0  0  0  0  0  0  0  0  0  0  0
   -1.4720    1.2390    3.7941 C   0  0  0  0  0  0  0  0  0  0  0  0
   -0.6345    1.9391    3.8219 H   0  0  0  0  0  0  0  0  0  0  0  0
   -2.3844    1.7580    4.0892 H   0  0  0  0  0  0  0  0  0  0  0  0
   -1.2733    0.4298    4.4995 H   0  0  0  0  0  0  0  0  0  0  0  0
  5  6  2  0  0  0  0
  5  7  1  0  0  0  0
  2  3  1  0  0  0  0
  2  4  1  0  0  0  0
  2  5  1  0  0  0  0
  1  2  1  0  0  0  0
 25 26  2  0  0  0  0
 25 27  1  0  0  0  0
 23 24  1  0  0  0  0
 21 22  1  0  0  0  0
 21 23  2  0  0  0  0
 19 20  1  0  0  0  0
 19 21  1  0  0  0  0
 17 18  1  0  0  0  0
 17 19  2  0  0  0  0
 15 16  1  0  0  0  0
 15 17  1  0  0  0  0
 14 15  2  0  0  0  0
 14 23  1  0  0  0  0
 11 12  1  0  0  0  0
 11 13  1  0  0  0  0
 11 14  1  0  0  0  0
  9 10  1  0  0  0  0
  9 11  1  0  0  0  0
  9 25  1  0  0  0  0
  7  8  1  0  0  0  0
  7  9  1  0  0  0  0
 29 30  1  0  0  0  0
 29 31  1  0  0  0  0
 29 32  1  0  0  0  0
 27 28  1  0  0  0  0
 27 29  1  0  0  0  0
M  END
$$$$
default_name
  -OEChem-02102213163D

 32 32  0     1  0  0  0  0  0999 V2000
   -3.8405   -3.7518    1.6252 H   0  0  0  0  0  0  0  0  0  0  0  0
   -3.7965   -2.8768    0.9782 C   0  0  0  0  0  0  0  0  0  0  0  0
   -4.5465   -2.1527    1.2902 H   0  0  0  0  0  0  0  0  0  0  0  0
   -3.9745   -3.1748   -0.0538 H   0  0  0  0  0  0  0  0  0  0  0  0
   -2.4245   -2.2537    1.0882 C   0  0  0  0  0  0  0  0  0  0  0  0
   -1.5805   -2.7478    1.8242 O   0  0  0  0  0  0  0  0  0  0  0  0
   -2.2045   -1.1637    0.3562 N   0  0  0  0  0  0  0  0  0  0  0  0
   -2.9595   -0.7907   -0.2008 H   0  0  0  0  0  0  0  0  0  0  0  0
   -0.9485   -0.4087    0.3482 C   0  0  1  0  0  0  0  0  0  0  0  0
   -0.1408   -1.0795    0.0507 H   0  0  0  0  0  0  0  0  0  0  0  0
   -1.0432    0.7243   -0.6879 C   0  0  0  0  0  0  0  0  0  0  0  0
   -0.2279    1.4292   -0.5190 H   0  0  0  0  0  0  0  0  0  0  0  0
   -0.9106    0.3032   -1.6857 H   0  0  0  0  0  0  0  0  0  0  0  0
   -2.3487    1.4951   -0.6393 C   0  0  0  0  0  0  0  0  0  0  0  0
   -3.5307    0.9292   -1.1534 C   0  0  0  0  0  0  0  0  0  0  0  0
   -3.5101   -0.0514   -1.6076 H   0  0  0  0  0  0  0  0  0  0  0  0
   -4.7459    1.6334   -1.0674 C   0  0  0  0  0  0  0  0  0  0  0  0
   -5.6519    1.1981   -1.4651 H   0  0  0  0  0  0  0  0  0  0  0  0
   -4.7818    2.9029   -0.4660 C   0  0  0  0  0  0  0  0  0  0  0  0
   -5.7150    3.4449   -0.4020 H   0  0  0  0  0  0  0  0  0  0  0  0
   -3.6021    3.4720    0.0474 C   0  0  0  0  0  0  0  0  0  0  0  0
   -3.6285    4.4501    0.5049 H   0  0  0  0  0  0  0  0  0  0  0  0
   -2.3873    2.7694   -0.0416 C   0  0  0  0  0  0  0  0  0  0  0  0
   -1.4798    3.2097    0.3507 H   0  0  0  0  0  0  0  0  0  0  0  0
   -0.6196    0.1253    1.7539 C   0  0  0  0  0  0  0  0  0  0  0  0
    0.5216    0.0194    2.2054 O   0  0  0  0  0  0  0  0  0  0  0  0
   -1.6152    0.6924    2.4469 N   0  0  0  0  0  0  0  0  0  0  0  0
   -2.5345    0.6914    2.0318 H   0  0  0  0  0  0  0  0  0  0  0  0
   -1.4720    1.2390    3.7941 C   0  0  0  0  0  0  0  0  0  0  0  0
   -0.6345    1.9391    3.8219 H   0  0  0  0  0  0  0  0  0  0  0  0
   -2.3844    1.7580    4.0892 H   0  0  0  0  0  0  0  0  0  0  0  0
   -1.2733    0.4298    4.4995 H   0  0  0  0  0  0  0  0  0  0  0  0
  5  6  2  0  0  0  0
  5  7  1  0  0  0  0
  2  3  1  0  0  0  0
  2  4  1  0  0  0  0
  2  5  1  0  0  0  0
  1  2  1  0  0  0  0
 25 26  2  0  0  0  0
 25 27  1  0  0  0  0
 23 24  1  0  0  0  0
 21 22  1  0  0  0  0
 21 23  2  0  0  0  0
 19 20  1  0  0  0  0
 19 21  1  0  0  0  0
 17 18  1  0  0  0  0
 17 19  2  0  0  0  0
 15 16  1  0  0  0  0
 15 17  1  0  0  0  0
 14 15  2  0  0  0  0
 14 23  1  0  0  0  0
 11 12  1  0  0  0  0
 11 13  1  0  0  0  0
 11 14  1  0  0  0  0
  9 10  1  0  0  0  0
  9 11  1  0  0  0  0
  9 25  1  0  0  0  0
  7  8  1  0  0  0  0
  7  9  1  0  0  0  0
 29 30  1  0  0  0  0
 29 31  1  0  0  0  0
 29 32  1  0  0  0  0
 27 28  1  0  0  0  0
 27 29  1  0  0  0  0
M  END
$$$$
default_name
  -OEChem-02102213163D

 32 32  0     1  0  0  0  0  0999 V2000
   -3.8405   -3.7518    1.6252 H   0  0  0  0  0  0  0  0  0  0  0  0
   -3.7965   -2.8768    0.9782 C   0  0  0  0  0  0  0  0  0  0  0  0
   -4.5465   -2.1527    1.2902 H   0  0  0  0  0  0  0  0  0  0  0  0
   -3.9745   -3.1748   -0.0538 H   0  0  0  0  0  0  0  0  0  0  0  0
   -2.4245   -2.2537    1.0882 C   0  0  0  0  0  0  0  0  0  0  0  0
   -1.5805   -2.7478    1.8242 O   0  0  0  0  0  0  0  0  0  0  0  0
   -2.2045   -1.1637    0.3562 N   0  0  0  0  0  0  0  0  0  0  0  0
   -2.9595   -0.7907   -0.2008 H   0  0  0  0  0  0  0  0  0  0  0  0
   -0.9485   -0.4087    0.3482 C   0  0  1  0  0  0  0  0  0  0  0  0
   -0.1408   -1.0795    0.0507 H   0  0  0  0  0  0  0  0  0  0  0  0
   -1.0432    0.7243   -0.6879 C   0  0  0  0  0  0  0  0  0  0  0  0
   -0.2279    1.4292   -0.5190 H   0  0  0  0  0  0  0  0  0  0  0  0
   -0.9106    0.3032   -1.6857 H   0  0  0  0  0  0  0  0  0  0  0  0
   -2.3487    1.4951   -0.6393 C   0  0  0  0  0  0  0  0  0  0  0  0
   -3.5743    0.8365   -0.8535 C   0  0  0  0  0  0  0  0  0  0  0  0
   -3.5904   -0.2209   -1.0771 H   0  0  0  0  0  0  0  0  0  0  0  0
   -4.7838    1.5501   -0.7660 C   0  0  0  0  0  0  0  0  0  0  0  0
   -5.7237    1.0430   -0.9334 H   0  0  0  0  0  0  0  0  0  0  0  0
   -4.7703    2.9221   -0.4623 C   0  0  0  0  0  0  0  0  0  0  0  0
   -5.6995    3.4708   -0.3974 H   0  0  0  0  0  0  0  0  0  0  0  0
   -3.5472    3.5836   -0.2491 C   0  0  0  0  0  0  0  0  0  0  0  0
   -3.5364    4.6393   -0.0211 H   0  0  0  0  0  0  0  0  0  0  0  0
   -2.3385    2.8709   -0.3400 C   0  0  0  0  0  0  0  0  0  0  0  0
   -1.3980    3.3817   -0.1790 H   0  0  0  0  0  0  0  0  0  0  0  0
   -0.6196    0.1253    1.7539 C   0  0  0  0  0  0  0  0  0  0  0  0
    0.5216    0.0194    2.2054 O   0  0  0  0  0  0  0  0  0  0  0  0
   -1.6152    0.6924    2.4469 N   0  0  0  0  0  0  0  0  0  0  0  0
   -2.5345    0.6914    2.0318 H   0  0  0  0  0  0  0  0  0  0  0  0
   -1.4720    1.2390    3.7941 C   0  0  0  0  0  0  0  0  0  0  0  0
   -0.6345    1.9391    3.8219 H   0  0  0  0  0  0  0  0  0  0  0  0
   -2.3844    1.7580    4.0892 H   0  0  0  0  0  0  0  0  0  0  0  0
   -1.2733    0.4298    4.4995 H   0  0  0  0  0  0  0  0  0  0  0  0
  5  6  2  0  0  0  0
  5  7  1  0  0  0  0
  2  3  1  0  0  0  0
  2  4  1  0  0  0  0
  2  5  1  0  0  0  0
  1  2  1  0  0  0  0
 25 26  2  0  0  0  0
 25 27  1  0  0  0  0
 23 24  1  0  0  0  0
 21 22  1  0  0  0  0
 21 23  2  0  0  0  0
 19 20  1  0  0  0  0
 19 21  1  0  0  0  0
 17 18  1  0  0  0  0
 17 19  2  0  0  0  0
 15 16  1  0  0  0  0
 15 17  1  0  0  0  0
 14 15  2  0  0  0  0
 14 23  1  0  0  0  0
 11 12  1  0  0  0  0
 11 13  1  0  0  0  0
 11 14  1  0  0  0  0
  9 10  1  0  0  0  0
  9 11  1  0  0  0  0
  9 25  1  0  0  0  0
  7  8  1  0  0  0  0
  7  9  1  0  0  0  0
 29 30  1  0  0  0  0
 29 31  1  0  0  0  0
 29 32  1  0  0  0  0
 27 28  1  0  0  0  0
 27 29  1  0  0  0  0
M  END
$$$$
default_name
  -OEChem-02102213163D

 32 32  0     1  0  0  0  0  0999 V2000
   -3.8405   -3.7518    1.6252 H   0  0  0  0  0  0  0  0  0  0  0  0
   -3.7965   -2.8768    0.9782 C   0  0  0  0  0  0  0  0  0  0  0  0
   -4.5465   -2.1527    1.2902 H   0  0  0  0  0  0  0  0  0  0  0  0
   -3.9745   -3.1748   -0.0538 H   0  0  0  0  0  0  0  0  0  0  0  0
   -2.4245   -2.2537    1.0882 C   0  0  0  0  0  0  0  0  0  0  0  0
   -1.5805   -2.7478    1.8242 O   0  0  0  0  0  0  0  0  0  0  0  0
   -2.2045   -1.1637    0.3562 N   0  0  0  0  0  0  0  0  0  0  0  0
   -2.9595   -0.7907   -0.2008 H   0  0  0  0  0  0  0  0  0  0  0  0
   -0.9485   -0.4087    0.3482 C   0  0  1  0  0  0  0  0  0  0  0  0
   -0.1408   -1.0795    0.0507 H   0  0  0  0  0  0  0  0  0  0  0  0
   -1.0432    0.7243   -0.6879 C   0  0  0  0  0  0  0  0  0  0  0  0
   -0.2279    1.4292   -0.5190 H   0  0  0  0  0  0  0  0  0  0  0  0
   -0.9106    0.3032   -1.6857 H   0  0  0  0  0  0  0  0  0  0  0  0
   -2.3487    1.4951   -0.6393 C   0  0  0  0  0  0  0  0  0  0  0  0
   -3.5762    0.8134   -0.5375 C   0  0  0  0  0  0  0  0  0  0  0  0
   -3.5968   -0.2671   -0.5164 H   0  0  0  0  0  0  0  0  0  0  0  0
   -4.7801    1.5365   -0.4513 C   0  0  0  0  0  0  0  0  0  0  0  0
   -5.7218    1.0110   -0.3758 H   0  0  0  0  0  0  0  0  0  0  0  0
   -4.7590    2.9415   -0.4646 C   0  0  0  0  0  0  0  0  0  0  0  0
   -5.6842    3.4970   -0.4007 H   0  0  0  0  0  0  0  0  0  0  0  0
   -3.5342    3.6258   -0.5677 C   0  0  0  0  0  0  0  0  0  0  0  0
   -3.5182    4.7058   -0.5834 H   0  0  0  0  0  0  0  0  0  0  0  0
   -2.3314    2.9029   -0.6572 C   0  0  0  0  0  0  0  0  0  0  0  0
   -1.3901    3.4305   -0.7398 H   0  0  0  0  0  0  0  0  0  0  0  0
   -0.6196    0.1253    1.7539 C   0  0  0  0  0  0  0  0  0  0  0  0
    0.5216    0.0194    2.2054 O   0  0  0  0  0  0  0  0  0  0  0  0
   -1.6152    0.6924    2.4469 N   0  0  0  0  0  0  0  0  0  0  0  0
   -2.5345    0.6914    2.0318 H   0  0  0  0  0  0  0  0  0  0  0  0
   -1.4720    1.2390    3.7941 C   0  0  0  0  0  0  0  0  0  0  0  0
   -0.6345    1.9391    3.8219 H   0  0  0  0  0  0  0  0  0  0  0  0
   -2.3844    1.7580    4.0892 H   0  0  0  0  0  0  0  0  0  0  0  0
   -1.2733    0.4298    4.4995 H   0  0  0  0  0  0  0  0  0  0  0  0
  5  6  2  0  0  0  0
  5  7  1  0  0  0  0
  2  3  1  0  0  0  0
  2  4  1  0  0  0  0
  2  5  1  0  0  0  0
  1  2  1  0  0  0  0
 25 26  2  0  0  0  0
 25 27  1  0  0  0  0
 23 24  1  0  0  0  0
 21 22  1  0  0  0  0
 21 23  2  0  0  0  0
 19 20  1  0  0  0  0
 19 21  1  0  0  0  0
 17 18  1  0  0  0  0
 17 19  2  0  0  0  0
 15 16  1  0  0  0  0
 15 17  1  0  0  0  0
 14 15  2  0  0  0  0
 14 23  1  0  0  0  0
 11 12  1  0  0  0  0
 11 13  1  0  0  0  0
 11 14  1  0  0  0  0
  9 10  1  0  0  0  0
  9 11  1  0  0  0  0
  9 25  1  0  0  0  0
  7  8  1  0  0  0  0
  7  9  1  0  0  0  0
 29 30  1  0  0  0  0
 29 31  1  0  0  0  0
 29 32  1  0  0  0  0
 27 28  1  0  0  0  0
 27 29  1  0  0  0  0
M  END
$$$$
default_name
  -OEChem-02102213163D

 32 32  0     1  0  0  0  0  0999 V2000
   -3.8405   -3.7518    1.6252 H   0  0  0  0  0  0  0  0  0  0  0  0
   -3.7965   -2.8768    0.9782 C   0  0  0  0  0  0  0  0  0  0  0  0
   -4.5465   -2.1527    1.2902 H   0  0  0  0  0  0  0  0  0  0  0  0
   -3.9745   -3.1748   -0.0538 H   0  0  0  0  0  0  0  0  0  0  0  0
   -2.4245   -2.2537    1.0882 C   0  0  0  0  0  0  0  0  0  0  0  0
   -1.5805   -2.7478    1.8242 O   0  0  0  0  0  0  0  0  0  0  0  0
   -2.2045   -1.1637    0.3562 N   0  0  0  0  0  0  0  0  0  0  0  0
   -2.9595   -0.7907   -0.2008 H   0  0  0  0  0  0  0  0  0  0  0  0
   -0.9485   -0.4087    0.3482 C   0  0  1  0  0  0  0  0  0  0  0  0
   -0.1408   -1.0795    0.0507 H   0  0  0  0  0  0  0  0  0  0  0  0
   -1.0432    0.7243   -0.6879 C   0  0  0  0  0  0  0  0  0  0  0  0
   -0.2279    1.4292   -0.5190 H   0  0  0  0  0  0  0  0  0  0  0  0
   -0.9106    0.3032   -1.6857 H   0  0  0  0  0  0  0  0  0  0  0  0
   -2.3487    1.4951   -0.6393 C   0  0  0  0  0  0  0  0  0  0  0  0
   -3.5362    0.8614   -0.2269 C   0  0  0  0  0  0  0  0  0  0  0  0
   -3.5288   -0.1869    0.0363 H   0  0  0  0  0  0  0  0  0  0  0  0
   -4.7351    1.5935   -0.1448 C   0  0  0  0  0  0  0  0  0  0  0  0
   -5.6463    1.1043    0.1696 H   0  0  0  0  0  0  0  0  0  0  0  0
   -4.7484    2.9598   -0.4727 C   0  0  0  0  0  0  0  0  0  0  0  0
   -5.6700    3.5217   -0.4118 H   0  0  0  0  0  0  0  0  0  0  0  0
   -3.5638    3.5958   -0.8865 C   0  0  0  0  0  0  0  0  0  0  0  0
   -3.5750    4.6448   -1.1438 H   0  0  0  0  0  0  0  0  0  0  0  0
   -2.3666    2.8632   -0.9717 C   0  0  0  0  0  0  0  0  0  0  0  0
   -1.4566    3.3528   -1.2934 H   0  0  0  0  0  0  0  0  0  0  0  0
   -0.6196    0.1253    1.7539 C   0  0  0  0  0  0  0  0  0  0  0  0
    0.5216    0.0194    2.2054 O   0  0  0  0  0  0  0  0  0  0  0  0
   -1.6152    0.6924    2.4469 N   0  0  0  0  0  0  0  0  0  0  0  0
   -2.5345    0.6914    2.0318 H   0  0  0  0  0  0  0  0  0  0  0  0
   -1.4720    1.2390    3.7941 C   0  0  0  0  0  0  0  0  0  0  0  0
   -0.6345    1.9391    3.8219 H   0  0  0  0  0  0  0  0  0  0  0  0
   -2.3844    1.7580    4.0892 H   0  0  0  0  0  0  0  0  0  0  0  0
   -1.2733    0.4298    4.4995 H   0  0  0  0  0  0  0  0  0  0  0  0
  5  6  2  0  0  0  0
  5  7  1  0  0  0  0
  2  3  1  0  0  0  0
  2  4  1  0  0  0  0
  2  5  1  0  0  0  0
  1  2  1  0  0  0  0
 25 26  2  0  0  0  0
 25 27  1  0  0  0  0
 23 24  1  0  0  0  0
 21 22  1  0  0  0  0
 21 23  2  0  0  0  0
 19 20  1  0  0  0  0
 19 21  1  0  0  0  0
 17 18  1  0  0  0  0
 17 19  2  0  0  0  0
 15 16  1  0  0  0  0
 15 17  1  0  0  0  0
 14 15  2  0  0  0  0
 14 23  1  0  0  0  0
 11 12  1  0  0  0  0
 11 13  1  0  0  0  0
 11 14  1  0  0  0  0
  9 10  1  0  0  0  0
  9 11  1  0  0  0  0
  9 25  1  0  0  0  0
  7  8  1  0  0  0  0
  7  9  1  0  0  0  0
 29 30  1  0  0  0  0
 29 31  1  0  0  0  0
 29 32  1  0  0  0  0
 27 28  1  0  0  0  0
 27 29  1  0  0  0  0
M  END
$$$$
default_name
  -OEChem-02102213163D

 32 32  0     1  0  0  0  0  0999 V2000
   -3.8405   -3.7518    1.6252 H   0  0  0  0  0  0  0  0  0  0  0  0
   -3.7965   -2.8768    0.9782 C   0  0  0  0  0  0  0  0  0  0  0  0
   -4.5465   -2.1527    1.2902 H   0  0  0  0  0  0  0  0  0  0  0  0
   -3.9745   -3.1748   -0.0538 H   0  0  0  0  0  0  0  0  0  0  0  0
   -2.4245   -2.2537    1.0882 C   0  0  0  0  0  0  0  0  0  0  0  0
   -1.5805   -2.7478    1.8242 O   0  0  0  0  0  0  0  0  0  0  0  0
   -2.2045   -1.1637    0.3562 N   0  0  0  0  0  0  0  0  0  0  0  0
   -2.9595   -0.7907   -0.2008 H   0  0  0  0  0  0  0  0  0  0  0  0
   -0.9485   -0.4087    0.3482 C   0  0  1  0  0  0  0  0  0  0  0  0
   -0.1408   -1.0795    0.0507 H   0  0  0  0  0  0  0  0  0  0  0  0
   -1.0432    0.7243   -0.6879 C   0  0  0  0  0  0  0  0  0  0  0  0
   -0.2279    1.4292   -0.5190 H   0  0  0  0  0  0  0  0  0  0  0  0
   -0.9106    0.3032   -1.6857 H   0  0  0  0  0  0  0  0  0  0  0  0
   -2.3487    1.4951   -0.6393 C   0  0  0  0  0  0  0  0  0  0  0  0
   -3.4572    0.9774    0.0572 C   0  0  0  0  0  0  0  0  0  0  0  0
   -3.3912    0.0143    0.5434 H   0  0  0  0  0  0  0  0  0  0  0  0
   -4.6517    1.7172    0.1327 C   0  0  0  0  0  0  0  0  0  0  0  0
   -5.5025    1.3166    0.6658 H   0  0  0  0  0  0  0  0  0  0  0  0
   -4.7395    2.9759   -0.4859 C   0  0  0  0  0  0  0  0  0  0  0  0
   -5.6580    3.5431   -0.4299 H   0  0  0  0  0  0  0  0  0  0  0  0
   -3.6341    3.4955   -1.1839 C   0  0  0  0  0  0  0  0  0  0  0  0
   -3.7032    4.4606   -1.6640 H   0  0  0  0  0  0  0  0  0  0  0  0
   -2.4416    2.7545   -1.2620 C   0  0  0  0  0  0  0  0  0  0  0  0
   -1.5930    3.1539   -1.8021 H   0  0  0  0  0  0  0  0  0  0  0  0
   -0.6196    0.1253    1.7539 C   0  0  0  0  0  0  0  0  0  0  0  0
    0.5216    0.0194    2.2054 O   0  0  0  0  0  0  0  0  0  0  0  0
   -1.6152    0.6924    2.4469 N   0  0  0  0  0  0  0  0  0  0  0  0
   -2.5345    0.6914    2.0318 H   0  0  0  0  0  0  0  0  0  0  0  0
   -1.4720    1.2390    3.7941 C   0  0  0  0  0  0  0  0  0  0  0  0
   -0.6345    1.9391    3.8219 H   0  0  0  0  0  0  0  0  0  0  0  0
   -2.3844    1.7580    4.0892 H   0  0  0  0  0  0  0  0  0  0  0  0
   -1.2733    0.4298    4.4995 H   0  0  0  0  0  0  0  0  0  0  0  0
  5  6  2  0  0  0  0
  5  7  1  0  0  0  0
  2  3  1  0  0  0  0
  2  4  1  0  0  0  0
  2  5  1  0  0  0  0
  1  2  1  0  0  0  0
 25 26  2  0  0  0  0
 25 27  1  0  0  0  0
 23 24  1  0  0  0  0
 21 22  1  0  0  0  0
 21 23  2  0  0  0  0
 19 20  1  0  0  0  0
 19 21  1  0  0  0  0
 17 18  1  0  0  0  0
 17 19  2  0  0  0  0
 15 16  1  0  0  0  0
 15 17  1  0  0  0  0
 14 15  2  0  0  0  0
 14 23  1  0  0  0  0
 11 12  1  0  0  0  0
 11 13  1  0  0  0  0
 11 14  1  0  0  0  0
  9 10  1  0  0  0  0
  9 11  1  0  0  0  0
  9 25  1  0  0  0  0
  7  8  1  0  0  0  0
  7  9  1  0  0  0  0
 29 30  1  0  0  0  0
 29 31  1  0  0  0  0
 29 32  1  0  0  0  0
 27 28  1  0  0  0  0
 27 29  1  0  0  0  0
M  END
$$$$
default_name
  -OEChem-02102213163D

 32 32  0     1  0  0  0  0  0999 V2000
   -3.8405   -3.7518    1.6252 H   0  0  0  0  0  0  0  0  0  0  0  0
   -3.7965   -2.8768    0.9782 C   0  0  0  0  0  0  0  0  0  0  0  0
   -4.5465   -2.1527    1.2902 H   0  0  0  0  0  0  0  0  0  0  0  0
   -3.9745   -3.1748   -0.0538 H   0  0  0  0  0  0  0  0  0  0  0  0
   -2.4245   -2.2537    1.0882 C   0  0  0  0  0  0  0  0  0  0  0  0
   -1.5805   -2.7478    1.8242 O   0  0  0  0  0  0  0  0  0  0  0  0
   -2.2045   -1.1637    0.3562 N   0  0  0  0  0  0  0  0  0  0  0  0
   -2.9595   -0.7907   -0.2008 H   0  0  0  0  0  0  0  0  0  0  0  0
   -0.9485   -0.4087    0.3482 C   0  0  1  0  0  0  0  0  0  0  0  0
   -0.1408   -1.0795    0.0507 H   0  0  0  0  0  0  0  0  0  0  0  0
   -1.0432    0.7243   -0.6879 C   0  0  0  0  0  0  0  0  0  0  0  0
   -0.2279    1.4292   -0.5190 H   0  0  0  0  0  0  0  0  0  0  0  0
   -0.9106    0.3032   -1.6857 H   0  0  0  0  0  0  0  0  0  0  0  0
   -2.3487    1.4951   -0.6393 C   0  0  0  0  0  0  0  0  0  0  0  0
   -3.3444    1.1533    0.2954 C   0  0  0  0  0  0  0  0  0  0  0  0
   -3.1931    0.3227    0.9702 H   0  0  0  0  0  0  0  0  0  0  0  0
   -4.5357    1.8991    0.3621 C   0  0  0  0  0  0  0  0  0  0  0  0
   -5.3001    1.6333    1.0788 H   0  0  0  0  0  0  0  0  0  0  0  0
   -4.7327    2.9884   -0.5034 C   0  0  0  0  0  0  0  0  0  0  0  0
   -5.6489    3.5600   -0.4537 H   0  0  0  0  0  0  0  0  0  0  0  0
   -3.7403    3.3318   -1.4395 C   0  0  0  0  0  0  0  0  0  0  0  0
   -3.8939    4.1657   -2.1086 H   0  0  0  0  0  0  0  0  0  0  0  0
   -2.5513    2.5842   -1.5083 C   0  0  0  0  0  0  0  0  0  0  0  0
   -1.7901    2.8473   -2.2312 H   0  0  0  0  0  0  0  0  0  0  0  0
   -0.6196    0.1253    1.7539 C   0  0  0  0  0  0  0  0  0  0  0  0
    0.5216    0.0194    2.2054 O   0  0  0  0  0  0  0  0  0  0  0  0
   -1.6152    0.6924    2.4469 N   0  0  0  0  0  0  0  0  0  0  0  0
   -2.5345    0.6914    2.0318 H   0  0  0  0  0  0  0  0  0  0  0  0
   -1.4720    1.2390    3.7941 C   0  0  0  0  0  0  0  0  0  0  0  0
   -0.6345    1.9391    3.8219 H   0  0  0  0  0  0  0  0  0  0  0  0
   -2.3844    1.7580    4.0892 H   0  0  0  0  0  0  0  0  0  0  0  0
   -1.2733    0.4298    4.4995 H   0  0  0  0  0  0  0  0  0  0  0  0
  5  6  2  0  0  0  0
  5  7  1  0  0  0  0
  2  3  1  0  0  0  0
  2  4  1  0  0  0  0
  2  5  1  0  0  0  0
  1  2  1  0  0  0  0
 25 26  2  0  0  0  0
 25 27  1  0  0  0  0
 23 24  1  0  0  0  0
 21 22  1  0  0  0  0
 21 23  2  0  0  0  0
 19 20  1  0  0  0  0
 19 21  1  0  0  0  0
 17 18  1  0  0  0  0
 17 19  2  0  0  0  0
 15 16  1  0  0  0  0
 15 17  1  0  0  0  0
 14 15  2  0  0  0  0
 14 23  1  0  0  0  0
 11 12  1  0  0  0  0
 11 13  1  0  0  0  0
 11 14  1  0  0  0  0
  9 10  1  0  0  0  0
  9 11  1  0  0  0  0
  9 25  1  0  0  0  0
  7  8  1  0  0  0  0
  7  9  1  0  0  0  0
 29 30  1  0  0  0  0
 29 31  1  0  0  0  0
 29 32  1  0  0  0  0
 27 28  1  0  0  0  0
 27 29  1  0  0  0  0
M  END
$$$$
default_name
  -OEChem-02102213163D

 32 32  0     1  0  0  0  0  0999 V2000
   -3.8405   -3.7518    1.6252 H   0  0  0  0  0  0  0  0  0  0  0  0
   -3.7965   -2.8768    0.9782 C   0  0  0  0  0  0  0  0  0  0  0  0
   -4.5465   -2.1527    1.2902 H   0  0  0  0  0  0  0  0  0  0  0  0
   -3.9745   -3.1748   -0.0538 H   0  0  0  0  0  0  0  0  0  0  0  0
   -2.4245   -2.2537    1.0882 C   0  0  0  0  0  0  0  0  0  0  0  0
   -1.5805   -2.7478    1.8242 O   0  0  0  0  0  0  0  0  0  0  0  0
   -2.2045   -1.1637    0.3562 N   0  0  0  0  0  0  0  0  0  0  0  0
   -2.9595   -0.7907   -0.2008 H   0  0  0  0  0  0  0  0  0  0  0  0
   -0.9485   -0.4087    0.3482 C   0  0  1  0  0  0  0  0  0  0  0  0
   -0.1408   -1.0795    0.0507 H   0  0  0  0  0  0  0  0  0  0  0  0
   -1.0432    0.7243   -0.6879 C   0  0  0  0  0  0  0  0  0  0  0  0
   -0.2279    1.4292   -0.5190 H   0  0  0  0  0  0  0  0  0  0  0  0
   -0.9106    0.3032   -1.6857 H   0  0  0  0  0  0  0  0  0  0  0  0
   -2.3487    1.4951   -0.6393 C   0  0  0  0  0  0  0  0  0  0  0  0
   -3.2056    1.3772    0.4714 C   0  0  0  0  0  0  0  0  0  0  0  0
   -2.9483    0.7173    1.2878 H   0  0  0  0  0  0  0  0  0  0  0  0
   -4.3950    2.1270    0.5280 C   0  0  0  0  0  0  0  0  0  0  0  0
   -5.0529    2.0330    1.3806 H   0  0  0  0  0  0  0  0  0  0  0  0
   -4.7285    2.9968   -0.5240 C   0  0  0  0  0  0  0  0  0  0  0  0
   -5.6435    3.5710   -0.4816 H   0  0  0  0  0  0  0  0  0  0  0  0
   -3.8752    3.1159   -1.6360 C   0  0  0  0  0  0  0  0  0  0  0  0
   -4.1341    3.7803   -2.4473 H   0  0  0  0  0  0  0  0  0  0  0  0
   -2.6883    2.3640   -1.6938 C   0  0  0  0  0  0  0  0  0  0  0  0
   -2.0343    2.4540   -2.5514 H   0  0  0  0  0  0  0  0  0  0  0  0
   -0.6196    0.1253    1.7539 C   0  0  0  0  0  0  0  0  0  0  0  0
    0.5216    0.0194    2.2054 O   0  0  0  0  0  0  0  0  0  0  0  0
   -1.6152    0.6924    2.4469 N   0  0  0  0  0  0  0  0  0  0  0  0
   -2.5345    0.6914    2.0318 H   0  0  0  0  0  0  0  0  0  0  0  0
   -1.4720    1.2390    3.7941 C   0  0  0  0  0  0  0  0  0  0  0  0
   -0.6345    1.9391    3.8219 H   0  0  0  0  0  0  0  0  0  0  0  0
   -2.3844    1.7580    4.0892 H   0  0  0  0  0  0  0  0  0  0  0  0
   -1.2733    0.4298    4.4995 H   0  0  0  0  0  0  0  0  0  0  0  0
  5  6  2  0  0  0  0
  5  7  1  0  0  0  0
  2  3  1  0  0  0  0
  2  4  1  0  0  0  0
  2  5  1  0  0  0  0
  1  2  1  0  0  0  0
 25 26  2  0  0  0  0
 25 27  1  0  0  0  0
 23 24  1  0  0  0  0
 21 22  1  0  0  0  0
 21 23  2  0  0  0  0
 19 20  1  0  0  0  0
 19 21  1  0  0  0  0
 17 18  1  0  0  0  0
 17 19  2  0  0  0  0
 15 16  1  0  0  0  0
 15 17  1  0  0  0  0
 14 15  2  0  0  0  0
 14 23  1  0  0  0  0
 11 12  1  0  0  0  0
 11 13  1  0  0  0  0
 11 14  1  0  0  0  0
  9 10  1  0  0  0  0
  9 11  1  0  0  0  0
  9 25  1  0  0  0  0
  7  8  1  0  0  0  0
  7  9  1  0  0  0  0
 29 30  1  0  0  0  0
 29 31  1  0  0  0  0
 29 32  1  0  0  0  0
 27 28  1  0  0  0  0
 27 29  1  0  0  0  0
M  END
$$$$
default_name
  -OEChem-02102213163D

 32 32  0     1  0  0  0  0  0999 V2000
   -3.8405   -3.7518    1.6252 H   0  0  0  0  0  0  0  0  0  0  0  0
   -3.7965   -2.8768    0.9782 C   0  0  0  0  0  0  0  0  0  0  0  0
   -4.5465   -2.1527    1.2902 H   0  0  0  0  0  0  0  0  0  0  0  0
   -3.9745   -3.1748   -0.0538 H   0  0  0  0  0  0  0  0  0  0  0  0
   -2.4245   -2.2537    1.0882 C   0  0  0  0  0  0  0  0  0  0  0  0
   -1.5805   -2.7478    1.8242 O   0  0  0  0  0  0  0  0  0  0  0  0
   -2.2045   -1.1637    0.3562 N   0  0  0  0  0  0  0  0  0  0  0  0
   -2.9595   -0.7907   -0.2008 H   0  0  0  0  0  0  0  0  0  0  0  0
   -0.9485   -0.4087    0.3482 C   0  0  1  0  0  0  0  0  0  0  0  0
   -0.1408   -1.0795    0.0507 H   0  0  0  0  0  0  0  0  0  0  0  0
   -1.0432    0.7243   -0.6879 C   0  0  0  0  0  0  0  0  0  0  0  0
   -0.2279    1.4292   -0.5190 H   0  0  0  0  0  0  0  0  0  0  0  0
   -0.9106    0.3032   -1.6857 H   0  0  0  0  0  0  0  0  0  0  0  0
   -2.3487    1.4951   -0.6393 C   0  0  0  0  0  0  0  0  0  0  0  0
   -3.0503    1.6339    0.5733 C   0  0  0  0  0  0  0  0  0  0  0  0
   -2.6733    1.1712    1.4745 H   0  0  0  0  0  0  0  0  0  0  0  0
   -4.2391    2.3851    0.6190 C   0  0  0  0  0  0  0  0  0  0  0  0
   -4.7777    2.4882    1.5506 H   0  0  0  0  0  0  0  0  0  0  0  0
   -4.7273    3.0002   -0.5463 C   0  0  0  0  0  0  0  0  0  0  0  0
   -5.6419    3.5755   -0.5117 H   0  0  0  0  0  0  0  0  0  0  0  0
   -4.0295    2.8624   -1.7600 C   0  0  0  0  0  0  0  0  0  0  0  0
   -4.4075    3.3306   -2.6570 H   0  0  0  0  0  0  0  0  0  0  0  0
   -2.8432    2.1088   -1.8060 C   0  0  0  0  0  0  0  0  0  0  0  0
   -2.3090    2.0007   -2.7410 H   0  0  0  0  0  0  0  0  0  0  0  0
   -0.6196    0.1253    1.7539 C   0  0  0  0  0  0  0  0  0  0  0  0
    0.5216    0.0194    2.2054 O   0  0  0  0  0  0  0  0  0  0  0  0
   -1.6152    0.6924    2.4469 N   0  0  0  0  0  0  0  0  0  0  0  0
   -2.5345    0.6914    2.0318 H   0  0  0  0  0  0  0  0  0  0  0  0
   -1.4720    1.2390    3.7941 C   0  0  0  0  0  0  0  0  0  0  0  0
   -0.6345    1.9391    3.8219 H   0  0  0  0  0  0  0  0  0  0  0  0
   -2.3844    1.7580    4.0892 H   0  0  0  0  0  0  0  0  0  0  0  0
   -1.2733    0.4298    4.4995 H   0  0  0  0  0  0  0  0  0  0  0  0
  5  6  2  0  0  0  0
  5  7  1  0  0  0  0
  2  3  1  0  0  0  0
  2  4  1  0  0  0  0
  2  5  1  0  0  0  0
  1  2  1  0  0  0  0
 25 26  2  0  0  0  0
 25 27  1  0  0  0  0
 23 24  1  0  0  0  0
 21 22  1  0  0  0  0
 21 23  2  0  0  0  0
 19 20  1  0  0  0  0
 19 21  1  0  0  0  0
 17 18  1  0  0  0  0
 17 19  2  0  0  0  0
 15 16  1  0  0  0  0
 15 17  1  0  0  0  0
 14 15  2  0  0  0  0
 14 23  1  0  0  0  0
 11 12  1  0  0  0  0
 11 13  1  0  0  0  0
 11 14  1  0  0  0  0
  9 10  1  0  0  0  0
  9 11  1  0  0  0  0
  9 25  1  0  0  0  0
  7  8  1  0  0  0  0
  7  9  1  0  0  0  0
 29 30  1  0  0  0  0
 29 31  1  0  0  0  0
 29 32  1  0  0  0  0
 27 28  1  0  0  0  0
 27 29  1  0  0  0  0
M  END
$$$$
default_name
  -OEChem-02102213163D

 32 32  0     1  0  0  0  0  0999 V2000
   -3.8405   -3.7518    1.6252 H   0  0  0  0  0  0  0  0  0  0  0  0
   -3.7965   -2.8768    0.9782 C   0  0  0  0  0  0  0  0  0  0  0  0
   -4.5465   -2.1527    1.2902 H   0  0  0  0  0  0  0  0  0  0  0  0
   -3.9745   -3.1748   -0.0538 H   0  0  0  0  0  0  0  0  0  0  0  0
   -2.4245   -2.2537    1.0882 C   0  0  0  0  0  0  0  0  0  0  0  0
   -1.5805   -2.7478    1.8242 O   0  0  0  0  0  0  0  0  0  0  0  0
   -2.2045   -1.1637    0.3562 N   0  0  0  0  0  0  0  0  0  0  0  0
   -2.9595   -0.7907   -0.2008 H   0  0  0  0  0  0  0  0  0  0  0  0
   -0.9485   -0.4087    0.3482 C   0  0  1  0  0  0  0  0  0  0  0  0
   -0.1408   -1.0795    0.0507 H   0  0  0  0  0  0  0  0  0  0  0  0
   -1.0432    0.7243   -0.6879 C   0  0  0  0  0  0  0  0  0  0  0  0
   -0.2279    1.4292   -0.5190 H   0  0  0  0  0  0  0  0  0  0  0  0
   -0.9106    0.3032   -1.6857 H   0  0  0  0  0  0  0  0  0  0  0  0
   -2.3487    1.4951   -0.6393 C   0  0  0  0  0  0  0  0  0  0  0  0
   -2.8890    1.9058    0.5942 C   0  0  0  0  0  0  0  0  0  0  0  0
   -2.3869    1.6536    1.5175 H   0  0  0  0  0  0  0  0  0  0  0  0
   -4.0788    2.6561    0.6288 C   0  0  0  0  0  0  0  0  0  0  0  0
   -4.4933    2.9682    1.5771 H   0  0  0  0  0  0  0  0  0  0  0  0
   -4.7291    2.9986   -0.5688 C   0  0  0  0  0  0  0  0  0  0  0  0
   -5.6445    3.5731   -0.5421 H   0  0  0  0  0  0  0  0  0  0  0  0
   -4.1927    2.5886   -1.8030 C   0  0  0  0  0  0  0  0  0  0  0  0
   -4.6954    2.8472   -2.7234 H   0  0  0  0  0  0  0  0  0  0  0  0
   -3.0054    1.8360   -1.8371 C   0  0  0  0  0  0  0  0  0  0  0  0
   -2.5955    1.5183   -2.7871 H   0  0  0  0  0  0  0  0  0  0  0  0
   -0.6196    0.1253    1.7539 C   0  0  0  0  0  0  0  0  0  0  0  0
    0.5216    0.0194    2.2054 O   0  0  0  0  0  0  0  0  0  0  0  0
   -1.6152    0.6924    2.4469 N   0  0  0  0  0  0  0  0  0  0  0  0
   -2.5345    0.6914    2.0318 H   0  0  0  0  0  0  0  0  0  0  0  0
   -1.4720    1.2390    3.7941 C   0  0  0  0  0  0  0  0  0  0  0  0
   -0.6345    1.9391    3.8219 H   0  0  0  0  0  0  0  0  0  0  0  0
   -2.3844    1.7580    4.0892 H   0  0  0  0  0  0  0  0  0  0  0  0
   -1.2733    0.4298    4.4995 H   0  0  0  0  0  0  0  0  0  0  0  0
  5  6  2  0  0  0  0
  5  7  1  0  0  0  0
  2  3  1  0  0  0  0
  2  4  1  0  0  0  0
  2  5  1  0  0  0  0
  1  2  1  0  0  0  0
 25 26  2  0  0  0  0
 25 27  1  0  0  0  0
 23 24  1  0  0  0  0
 21 22  1  0  0  0  0
 21 23  2  0  0  0  0
 19 20  1  0  0  0  0
 19 21  1  0  0  0  0
 17 18  1  0  0  0  0
 17 19  2  0  0  0  0
 15 16  1  0  0  0  0
 15 17  1  0  0  0  0
 14 15  2  0  0  0  0
 14 23  1  0  0  0  0
 11 12  1  0  0  0  0
 11 13  1  0  0  0  0
 11 14  1  0  0  0  0
  9 10  1  0  0  0  0
  9 11  1  0  0  0  0
  9 25  1  0  0  0  0
  7  8  1  0  0  0  0
  7  9  1  0  0  0  0
 29 30  1  0  0  0  0
 29 31  1  0  0  0  0
 29 32  1  0  0  0  0
 27 28  1  0  0  0  0
 27 29  1  0  0  0  0
M  END
$$$$
default_name
  -OEChem-02102213163D

 32 32  0     1  0  0  0  0  0999 V2000
   -3.8405   -3.7518    1.6252 H   0  0  0  0  0  0  0  0  0  0  0  0
   -3.7965   -2.8768    0.9782 C   0  0  0  0  0  0  0  0  0  0  0  0
   -4.5465   -2.1527    1.2902 H   0  0  0  0  0  0  0  0  0  0  0  0
   -3.9745   -3.1748   -0.0538 H   0  0  0  0  0  0  0  0  0  0  0  0
   -2.4245   -2.2537    1.0882 C   0  0  0  0  0  0  0  0  0  0  0  0
   -1.5805   -2.7478    1.8242 O   0  0  0  0  0  0  0  0  0  0  0  0
   -2.2045   -1.1637    0.3562 N   0  0  0  0  0  0  0  0  0  0  0  0
   -2.9595   -0.7907   -0.2008 H   0  0  0  0  0  0  0  0  0  0  0  0
   -0.9485   -0.4087    0.3482 C   0  0  1  0  0  0  0  0  0  0  0  0
   -0.1408   -1.0795    0.0507 H   0  0  0  0  0  0  0  0  0  0  0  0
   -1.0432    0.7243   -0.6879 C   0  0  0  0  0  0  0  0  0  0  0  0
   -0.2279    1.4292   -0.5190 H   0  0  0  0  0  0  0  0  0  0  0  0
   -0.9106    0.3032   -1.6857 H   0  0  0  0  0  0  0  0  0  0  0  0
   -2.3487    1.4951   -0.6393 C   0  0  0  0  0  0  0  0  0  0  0  0
   -2.7326    2.1744    0.5325 C   0  0  0  0  0  0  0  0  0  0  0  0
   -2.1085    2.1315    1.4140 H   0  0  0  0  0  0  0  0  0  0  0  0
   -3.9248    2.9213    0.5569 C   0  0  0  0  0  0  0  0  0  0  0  0
   -4.2191    3.4400    1.4585 H   0  0  0  0  0  0  0  0  0  0  0  0
   -4.7338    2.9921   -0.5900 C   0  0  0  0  0  0  0  0  0  0  0  0
   -5.6509    3.5640   -0.5705 H   0  0  0  0  0  0  0  0  0  0  0  0
   -4.3538    2.3133   -1.7621 C   0  0  0  0  0  0  0  0  0  0  0  0
   -4.9782    2.3631   -2.6420 H   0  0  0  0  0  0  0  0  0  0  0  0
   -3.1639    1.5642   -1.7851 C   0  0  0  0  0  0  0  0  0  0  0  0
   -2.8744    1.0397   -2.6864 H   0  0  0  0  0  0  0  0  0  0  0  0
   -0.6196    0.1253    1.7539 C   0  0  0  0  0  0  0  0  0  0  0  0
    0.5216    0.0194    2.2054 O   0  0  0  0  0  0  0  0  0  0  0  0
   -1.6152    0.6924    2.4469 N   0  0  0  0  0  0  0  0  0  0  0  0
   -2.5345    0.6914    2.0318 H   0  0  0  0  0  0  0  0  0  0  0  0
   -1.4720    1.2390    3.7941 C   0  0  0  0  0  0  0  0  0  0  0  0
   -0.6345    1.9391    3.8219 H   0  0  0  0  0  0  0  0  0  0  0  0
   -2.3844    1.7580    4.0892 H   0  0  0  0  0  0  0  0  0  0  0  0
   -1.2733    0.4298    4.4995 H   0  0  0  0  0  0  0  0  0  0  0  0
  5  6  2  0  0  0  0
  5  7  1  0  0  0  0
  2  3  1  0  0  0  0
  2  4  1  0  0  0  0
  2  5  1  0  0  0  0
  1  2  1  0  0  0  0
 25 26  2  0  0  0  0
 25 27  1  0  0  0  0
 23 24  1  0  0  0  0
 21 22  1  0  0  0  0
 21 23  2  0  0  0  0
 19 20  1  0  0  0  0
 19 21  1  0  0  0  0
 17 18  1  0  0  0  0
 17 19  2  0  0  0  0
 15 16  1  0  0  0  0
 15 17  1  0  0  0  0
 14 15  2  0  0  0  0
 14 23  1  0  0  0  0
 11 12  1  0  0  0  0
 11 13  1  0  0  0  0
 11 14  1  0  0  0  0
  9 10  1  0  0  0  0
  9 11  1  0  0  0  0
  9 25  1  0  0  0  0
  7  8  1  0  0  0  0
  7  9  1  0  0  0  0
 29 30  1  0  0  0  0
 29 31  1  0  0  0  0
 29 32  1  0  0  0  0
 27 28  1  0  0  0  0
 27 29  1  0  0  0  0
M  END
$$$$
default_name
  -OEChem-02102213163D

 32 32  0     1  0  0  0  0  0999 V2000
   -3.8405   -3.7518    1.6252 H   0  0  0  0  0  0  0  0  0  0  0  0
   -3.7965   -2.8768    0.9782 C   0  0  0  0  0  0  0  0  0  0  0  0
   -4.5465   -2.1527    1.2902 H   0  0  0  0  0  0  0  0  0  0  0  0
   -3.9745   -3.1748   -0.0538 H   0  0  0  0  0  0  0  0  0  0  0  0
   -2.4245   -2.2537    1.0882 C   0  0  0  0  0  0  0  0  0  0  0  0
   -1.5805   -2.7478    1.8242 O   0  0  0  0  0  0  0  0  0  0  0  0
   -2.2045   -1.1637    0.3562 N   0  0  0  0  0  0  0  0  0  0  0  0
   -2.9595   -0.7907   -0.2008 H   0  0  0  0  0  0  0  0  0  0  0  0
   -0.9485   -0.4087    0.3482 C   0  0  1  0  0  0  0  0  0  0  0  0
   -0.1408   -1.0795    0.0507 H   0  0  0  0  0  0  0  0  0  0  0  0
   -1.0432    0.7243   -0.6879 C   0  0  0  0  0  0  0  0  0  0  0  0
   -0.2279    1.4292   -0.5190 H   0  0  0  0  0  0  0  0  0  0  0  0
   -0.9106    0.3032   -1.6857 H   0  0  0  0  0  0  0  0  0  0  0  0
   -2.3487    1.4951   -0.6393 C   0  0  0  0  0  0  0  0  0  0  0  0
   -2.5920    2.4214    0.3926 C   0  0  0  0  0  0  0  0  0  0  0  0
   -1.8573    2.5723    1.1709 H   0  0  0  0  0  0  0  0  0  0  0  0
   -3.7878    3.1628    0.4081 C   0  0  0  0  0  0  0  0  0  0  0  0
   -3.9738    3.8716    1.2027 H   0  0  0  0  0  0  0  0  0  0  0  0
   -4.7410    2.9810   -0.6083 C   0  0  0  0  0  0  0  0  0  0  0  0
   -5.6608    3.5489   -0.5951 H   0  0  0  0  0  0  0  0  0  0  0  0
   -4.5017    2.0551   -1.6400 C   0  0  0  0  0  0  0  0  0  0  0  0
   -5.2366    1.9113   -2.4184 H   0  0  0  0  0  0  0  0  0  0  0  0
   -3.3080    1.3120   -1.6534 C   0  0  0  0  0  0  0  0  0  0  0  0
   -3.1265    0.5975   -2.4459 H   0  0  0  0  0  0  0  0  0  0  0  0
   -0.6196    0.1253    1.7539 C   0  0  0  0  0  0  0  0  0  0  0  0
    0.5216    0.0194    2.2054 O   0  0  0  0  0  0  0  0  0  0  0  0
   -1.6152    0.6924    2.4469 N   0  0  0  0  0  0  0  0  0  0  0  0
   -2.5345    0.6914    2.0318 H   0  0  0  0  0  0  0  0  0  0  0  0
   -1.4720    1.2390    3.7941 C   0  0  0  0  0  0  0  0  0  0  0  0
   -0.6345    1.9391    3.8219 H   0  0  0  0  0  0  0  0  0  0  0  0
   -2.3844    1.7580    4.0892 H   0  0  0  0  0  0  0  0  0  0  0  0
   -1.2733    0.4298    4.4995 H   0  0  0  0  0  0  0  0  0  0  0  0
  5  6  2  0  0  0  0
  5  7  1  0  0  0  0
  2  3  1  0  0  0  0
  2  4  1  0  0  0  0
  2  5  1  0  0  0  0
  1  2  1  0  0  0  0
 25 26  2  0  0  0  0
 25 27  1  0  0  0  0
 23 24  1  0  0  0  0
 21 22  1  0  0  0  0
 21 23  2  0  0  0  0
 19 20  1  0  0  0  0
 19 21  1  0  0  0  0
 17 18  1  0  0  0  0
 17 19  2  0  0  0  0
 15 16  1  0  0  0  0
 15 17  1  0  0  0  0
 14 15  2  0  0  0  0
 14 23  1  0  0  0  0
 11 12  1  0  0  0  0
 11 13  1  0  0  0  0
 11 14  1  0  0  0  0
  9 10  1  0  0  0  0
  9 11  1  0  0  0  0
  9 25  1  0  0  0  0
  7  8  1  0  0  0  0
  7  9  1  0  0  0  0
 29 30  1  0  0  0  0
 29 31  1  0  0  0  0
 29 32  1  0  0  0  0
 27 28  1  0  0  0  0
 27 29  1  0  0  0  0
M  END
$$$$
default_name
  -OEChem-02102213163D

 32 32  0     1  0  0  0  0  0999 V2000
   -3.8405   -3.7518    1.6252 H   0  0  0  0  0  0  0  0  0  0  0  0
   -3.7965   -2.8768    0.9782 C   0  0  0  0  0  0  0  0  0  0  0  0
   -4.5465   -2.1527    1.2902 H   0  0  0  0  0  0  0  0  0  0  0  0
   -3.9745   -3.1748   -0.0538 H   0  0  0  0  0  0  0  0  0  0  0  0
   -2.4245   -2.2537    1.0882 C   0  0  0  0  0  0  0  0  0  0  0  0
   -1.5805   -2.7478    1.8242 O   0  0  0  0  0  0  0  0  0  0  0  0
   -2.2045   -1.1637    0.3562 N   0  0  0  0  0  0  0  0  0  0  0  0
   -2.9595   -0.7907   -0.2008 H   0  0  0  0  0  0  0  0  0  0  0  0
   -0.9485   -0.4087    0.3482 C   0  0  1  0  0  0  0  0  0  0  0  0
   -0.1408   -1.0795    0.0507 H   0  0  0  0  0  0  0  0  0  0  0  0
   -1.0432    0.7243   -0.6879 C   0  0  0  0  0  0  0  0  0  0  0  0
   -0.2279    1.4292   -0.5190 H   0  0  0  0  0  0  0  0  0  0  0  0
   -0.9106    0.3032   -1.6857 H   0  0  0  0  0  0  0  0  0  0  0  0
   -2.3487    1.4951   -0.6393 C   0  0  0  0  0  0  0  0  0  0  0  0
   -2.4766    2.6300    0.1839 C   0  0  0  0  0  0  0  0  0  0  0  0
   -1.6503    2.9461    0.8048 H   0  0  0  0  0  0  0  0  0  0  0  0
   -3.6770    3.3640    0.1925 C   0  0  0  0  0  0  0  0  0  0  0  0
   -3.7741    4.2336    0.8272 H   0  0  0  0  0  0  0  0  0  0  0  0
   -4.7503    2.9661   -0.6226 C   0  0  0  0  0  0  0  0  0  0  0  0
   -5.6734    3.5287   -0.6142 H   0  0  0  0  0  0  0  0  0  0  0  0
   -4.6263    1.8317   -1.4452 C   0  0  0  0  0  0  0  0  0  0  0  0
   -5.4531    1.5225   -2.0677 H   0  0  0  0  0  0  0  0  0  0  0  0
   -3.4277    1.0964   -1.4511 C   0  0  0  0  0  0  0  0  0  0  0  0
   -3.3347    0.2219   -2.0819 H   0  0  0  0  0  0  0  0  0  0  0  0
   -0.6196    0.1253    1.7539 C   0  0  0  0  0  0  0  0  0  0  0  0
    0.5216    0.0194    2.2054 O   0  0  0  0  0  0  0  0  0  0  0  0
   -1.6152    0.6924    2.4469 N   0  0  0  0  0  0  0  0  0  0  0  0
   -2.5345    0.6914    2.0318 H   0  0  0  0  0  0  0  0  0  0  0  0
   -1.4720    1.2390    3.7941 C   0  0  0  0  0  0  0  0  0  0  0  0
   -0.6345    1.9391    3.8219 H   0  0  0  0  0  0  0  0  0  0  0  0
   -2.3844    1.7580    4.0892 H   0  0  0  0  0  0  0  0  0  0  0  0
   -1.2733    0.4298    4.4995 H   0  0  0  0  0  0  0  0  0  0  0  0
  5  6  2  0  0  0  0
  5  7  1  0  0  0  0
  2  3  1  0  0  0  0
  2  4  1  0  0  0  0
  2  5  1  0  0  0  0
  1  2  1  0  0  0  0
 25 26  2  0  0  0  0
 25 27  1  0  0  0  0
 23 24  1  0  0  0  0
 21 22  1  0  0  0  0
 21 23  2  0  0  0  0
 19 20  1  0  0  0  0
 19 21  1  0  0  0  0
 17 18  1  0  0  0  0
 17 19  2  0  0  0  0
 15 16  1  0  0  0  0
 15 17  1  0  0  0  0
 14 15  2  0  0  0  0
 14 23  1  0  0  0  0
 11 12  1  0  0  0  0
 11 13  1  0  0  0  0
 11 14  1  0  0  0  0
  9 10  1  0  0  0  0
  9 11  1  0  0  0  0
  9 25  1  0  0  0  0
  7  8  1  0  0  0  0
  7  9  1  0  0  0  0
 29 30  1  0  0  0  0
 29 31  1  0  0  0  0
 29 32  1  0  0  0  0
 27 28  1  0  0  0  0
 27 29  1  0  0  0  0
M  END
$$$$
default_name
  -OEChem-02102213163D

 32 32  0     1  0  0  0  0  0999 V2000
   -3.8405   -3.7518    1.6252 H   0  0  0  0  0  0  0  0  0  0  0  0
   -3.7965   -2.8768    0.9782 C   0  0  0  0  0  0  0  0  0  0  0  0
   -4.5465   -2.1527    1.2902 H   0  0  0  0  0  0  0  0  0  0  0  0
   -3.9745   -3.1748   -0.0538 H   0  0  0  0  0  0  0  0  0  0  0  0
   -2.4245   -2.2537    1.0882 C   0  0  0  0  0  0  0  0  0  0  0  0
   -1.5805   -2.7478    1.8242 O   0  0  0  0  0  0  0  0  0  0  0  0
   -2.2045   -1.1637    0.3562 N   0  0  0  0  0  0  0  0  0  0  0  0
   -2.9595   -0.7907   -0.2008 H   0  0  0  0  0  0  0  0  0  0  0  0
   -0.9485   -0.4087    0.3482 C   0  0  1  0  0  0  0  0  0  0  0  0
   -0.1408   -1.0795    0.0507 H   0  0  0  0  0  0  0  0  0  0  0  0
   -1.0432    0.7243   -0.6879 C   0  0  0  0  0  0  0  0  0  0  0  0
   -0.2279    1.4292   -0.5190 H   0  0  0  0  0  0  0  0  0  0  0  0
   -0.9106    0.3032   -1.6857 H   0  0  0  0  0  0  0  0  0  0  0  0
   -2.3487    1.4951   -0.6393 C   0  0  0  0  0  0  0  0  0  0  0  0
   -2.3943    2.7860   -0.0794 C   0  0  0  0  0  0  0  0  0  0  0  0
   -1.5015    3.2273    0.3408 H   0  0  0  0  0  0  0  0  0  0  0  0
   -3.6001    3.5113   -0.0751 C   0  0  0  0  0  0  0  0  0  0  0  0
   -3.6335    4.5013    0.3577 H   0  0  0  0  0  0  0  0  0  0  0  0
   -4.7611    2.9485   -0.6319 C   0  0  0  0  0  0  0  0  0  0  0  0
   -5.6879    3.5048   -0.6264 H   0  0  0  0  0  0  0  0  0  0  0  0
   -4.7192    1.6582   -1.1908 C   0  0  0  0  0  0  0  0  0  0  0  0
   -5.6129    1.2233   -1.6139 H   0  0  0  0  0  0  0  0  0  0  0  0
   -3.5149    0.9323   -1.1920 C   0  0  0  0  0  0  0  0  0  0  0  0
   -3.4848   -0.0615   -1.6193 H   0  0  0  0  0  0  0  0  0  0  0  0
   -0.6196    0.1253    1.7539 C   0  0  0  0  0  0  0  0  0  0  0  0
    0.5216    0.0194    2.2054 O   0  0  0  0  0  0  0  0  0  0  0  0
   -1.6152    0.6924    2.4469 N   0  0  0  0  0  0  0  0  0  0  0  0
   -2.5345    0.6914    2.0318 H   0  0  0  0  0  0  0  0  0  0  0  0
   -1.4720    1.2390    3.7941 C   0  0  0  0  0  0  0  0  0  0  0  0
   -0.6345    1.9391    3.8219 H   0  0  0  0  0  0  0  0  0  0  0  0
   -2.3844    1.7580    4.0892 H   0  0  0  0  0  0  0  0  0  0  0  0
   -1.2733    0.4298    4.4995 H   0  0  0  0  0  0  0  0  0  0  0  0
  5  6  2  0  0  0  0
  5  7  1  0  0  0  0
  2  3  1  0  0  0  0
  2  4  1  0  0  0  0
  2  5  1  0  0  0  0
  1  2  1  0  0  0  0
 25 26  2  0  0  0  0
 25 27  1  0  0  0  0
 23 24  1  0  0  0  0
 21 22  1  0  0  0  0
 21 23  2  0  0  0  0
 19 20  1  0  0  0  0
 19 21  1  0  0  0  0
 17 18  1  0  0  0  0
 17 19  2  0  0  0  0
 15 16  1  0  0  0  0
 15 17  1  0  0  0  0
 14 15  2  0  0  0  0
 14 23  1  0  0  0  0
 11 12  1  0  0  0  0
 11 13  1  0  0  0  0
 11 14  1  0  0  0  0
  9 10  1  0  0  0  0
  9 11  1  0  0  0  0
  9 25  1  0  0  0  0
  7  8  1  0  0  0  0
  7  9  1  0  0  0  0
 29 30  1  0  0  0  0
 29 31  1  0  0  0  0
 29 32  1  0  0  0  0
 27 28  1  0  0  0  0
 27 29  1  0  0  0  0
M  END
$$$$
default_name
  -OEChem-02102213163D

 32 32  0     1  0  0  0  0  0999 V2000
   -3.8405   -3.7518    1.6252 H   0  0  0  0  0  0  0  0  0  0  0  0
   -3.7965   -2.8768    0.9782 C   0  0  0  0  0  0  0  0  0  0  0  0
   -4.5465   -2.1527    1.2902 H   0  0  0  0  0  0  0  0  0  0  0  0
   -3.9745   -3.1748   -0.0538 H   0  0  0  0  0  0  0  0  0  0  0  0
   -2.4245   -2.2537    1.0882 C   0  0  0  0  0  0  0  0  0  0  0  0
   -1.5805   -2.7478    1.8242 O   0  0  0  0  0  0  0  0  0  0  0  0
   -2.2045   -1.1637    0.3562 N   0  0  0  0  0  0  0  0  0  0  0  0
   -2.9595   -0.7907   -0.2008 H   0  0  0  0  0  0  0  0  0  0  0  0
   -0.9485   -0.4087    0.3482 C   0  0  1  0  0  0  0  0  0  0  0  0
   -0.1408   -1.0795    0.0507 H   0  0  0  0  0  0  0  0  0  0  0  0
   -1.0432    0.7243   -0.6879 C   0  0  0  0  0  0  0  0  0  0  0  0
   -0.2279    1.4292   -0.5190 H   0  0  0  0  0  0  0  0  0  0  0  0
   -0.9106    0.3032   -1.6857 H   0  0  0  0  0  0  0  0  0  0  0  0
   -2.3487    1.4951   -0.6393 C   0  0  0  0  0  0  0  0  0  0  0  0
   -2.3508    2.8787   -0.3792 C   0  0  0  0  0  0  0  0  0  0  0  0
   -1.4212    3.3967   -0.1897 H   0  0  0  0  0  0  0  0  0  0  0  0
   -3.5621    3.5946   -0.3765 C   0  0  0  0  0  0  0  0  0  0  0  0
   -3.5617    4.6564   -0.1740 H   0  0  0  0  0  0  0  0  0  0  0  0
   -4.7725    2.9293   -0.6355 C   0  0  0  0  0  0  0  0  0  0  0  0
   -5.7034    3.4789   -0.6311 H   0  0  0  0  0  0  0  0  0  0  0  0
   -4.7741    1.5466   -0.8942 C   0  0  0  0  0  0  0  0  0  0  0  0
   -5.7050    1.0341   -1.0880 H   0  0  0  0  0  0  0  0  0  0  0  0
   -3.5637    0.8308   -0.8936 C   0  0  0  0  0  0  0  0  0  0  0  0
   -3.5667   -0.2336   -1.0895 H   0  0  0  0  0  0  0  0  0  0  0  0
   -0.6196    0.1253    1.7539 C   0  0  0  0  0  0  0  0  0  0  0  0
    0.5216    0.0194    2.2054 O   0  0  0  0  0  0  0  0  0  0  0  0
   -1.6152    0.6924    2.4469 N   0  0  0  0  0  0  0  0  0  0  0  0
   -2.5345    0.6914    2.0318 H   0  0  0  0  0  0  0  0  0  0  0  0
   -1.4720    1.2390    3.7941 C   0  0  0  0  0  0  0  0  0  0  0  0
   -0.6345    1.9391    3.8219 H   0  0  0  0  0  0  0  0  0  0  0  0
   -2.3844    1.7580    4.0892 H   0  0  0  0  0  0  0  0  0  0  0  0
   -1.2733    0.4298    4.4995 H   0  0  0  0  0  0  0  0  0  0  0  0
  5  6  2  0  0  0  0
  5  7  1  0  0  0  0
  2  3  1  0  0  0  0
  2  4  1  0  0  0  0
  2  5  1  0  0  0  0
  1  2  1  0  0  0  0
 25 26  2  0  0  0  0
 25 27  1  0  0  0  0
 23 24  1  0  0  0  0
 21 22  1  0  0  0  0
 21 23  2  0  0  0  0
 19 20  1  0  0  0  0
 19 21  1  0  0  0  0
 17 18  1  0  0  0  0
 17 19  2  0  0  0  0
 15 16  1  0  0  0  0
 15 17  1  0  0  0  0
 14 15  2  0  0  0  0
 14 23  1  0  0  0  0
 11 12  1  0  0  0  0
 11 13  1  0  0  0  0
 11 14  1  0  0  0  0
  9 10  1  0  0  0  0
  9 11  1  0  0  0  0
  9 25  1  0  0  0  0
  7  8  1  0  0  0  0
  7  9  1  0  0  0  0
 29 30  1  0  0  0  0
 29 31  1  0  0  0  0
 29 32  1  0  0  0  0
 27 28  1  0  0  0  0
 27 29  1  0  0  0  0
M  END
$$$$
default_name
  -OEChem-02102213163D

 32 32  0     1  0  0  0  0  0999 V2000
   -3.8405   -3.7518    1.6252 H   0  0  0  0  0  0  0  0  0  0  0  0
   -3.7965   -2.8768    0.9782 C   0  0  0  0  0  0  0  0  0  0  0  0
   -4.5465   -2.1527    1.2902 H   0  0  0  0  0  0  0  0  0  0  0  0
   -3.9745   -3.1748   -0.0538 H   0  0  0  0  0  0  0  0  0  0  0  0
   -2.4245   -2.2537    1.0882 C   0  0  0  0  0  0  0  0  0  0  0  0
   -1.5805   -2.7478    1.8242 O   0  0  0  0  0  0  0  0  0  0  0  0
   -2.2045   -1.1637    0.3562 N   0  0  0  0  0  0  0  0  0  0  0  0
   -2.9595   -0.7907   -0.2008 H   0  0  0  0  0  0  0  0  0  0  0  0
   -0.9485   -0.4087    0.3482 C   0  0  1  0  0  0  0  0  0  0  0  0
   -0.1408   -1.0795    0.0507 H   0  0  0  0  0  0  0  0  0  0  0  0
   -1.0432    0.7243   -0.6879 C   0  0  0  0  0  0  0  0  0  0  0  0
   -0.2279    1.4292   -0.5190 H   0  0  0  0  0  0  0  0  0  0  0  0
   -0.9106    0.3032   -1.6857 H   0  0  0  0  0  0  0  0  0  0  0  0
   -2.3487    1.4951   -0.6393 C   0  0  0  0  0  0  0  0  0  0  0  0
   -2.3489    2.9018   -0.6952 C   0  0  0  0  0  0  0  0  0  0  0  0
   -1.4148    3.4430   -0.7504 H   0  0  0  0  0  0  0  0  0  0  0  0
   -3.5658    3.6082   -0.6912 C   0  0  0  0  0  0  0  0  0  0  0  0
   -3.5637    4.6884   -0.7316 H   0  0  0  0  0  0  0  0  0  0  0  0
   -4.7839    2.9099   -0.6332 C   0  0  0  0  0  0  0  0  0  0  0  0
   -5.7187    3.4527   -0.6277 H   0  0  0  0  0  0  0  0  0  0  0  0
   -4.7872    1.5043   -0.5757 C   0  0  0  0  0  0  0  0  0  0  0  0
   -5.7232    0.9677   -0.5256 H   0  0  0  0  0  0  0  0  0  0  0  0
   -3.5708    0.7988   -0.5764 C   0  0  0  0  0  0  0  0  0  0  0  0
   -3.5746   -0.2824   -0.5287 H   0  0  0  0  0  0  0  0  0  0  0  0
   -0.6196    0.1253    1.7539 C   0  0  0  0  0  0  0  0  0  0  0  0
    0.5216    0.0194    2.2054 O   0  0  0  0  0  0  0  0  0  0  0  0
   -1.6152    0.6924    2.4469 N   0  0  0  0  0  0  0  0  0  0  0  0
   -2.5345    0.6914    2.0318 H   0  0  0  0  0  0  0  0  0  0  0  0
   -1.4720    1.2390    3.7941 C   0  0  0  0  0  0  0  0  0  0  0  0
   -0.6345    1.9391    3.8219 H   0  0  0  0  0  0  0  0  0  0  0  0
   -2.3844    1.7580    4.0892 H   0  0  0  0  0  0  0  0  0  0  0  0
   -1.2733    0.4298    4.4995 H   0  0  0  0  0  0  0  0  0  0  0  0
  5  6  2  0  0  0  0
  5  7  1  0  0  0  0
  2  3  1  0  0  0  0
  2  4  1  0  0  0  0
  2  5  1  0  0  0  0
  1  2  1  0  0  0  0
 25 26  2  0  0  0  0
 25 27  1  0  0  0  0
 23 24  1  0  0  0  0
 21 22  1  0  0  0  0
 21 23  2  0  0  0  0
 19 20  1  0  0  0  0
 19 21  1  0  0  0  0
 17 18  1  0  0  0  0
 17 19  2  0  0  0  0
 15 16  1  0  0  0  0
 15 17  1  0  0  0  0
 14 15  2  0  0  0  0
 14 23  1  0  0  0  0
 11 12  1  0  0  0  0
 11 13  1  0  0  0  0
 11 14  1  0  0  0  0
  9 10  1  0  0  0  0
  9 11  1  0  0  0  0
  9 25  1  0  0  0  0
  7  8  1  0  0  0  0
  7  9  1  0  0  0  0
 29 30  1  0  0  0  0
 29 31  1  0  0  0  0
 29 32  1  0  0  0  0
 27 28  1  0  0  0  0
 27 29  1  0  0  0  0
M  END
$$$$
default_name
  -OEChem-02102213163D

 32 32  0     1  0  0  0  0  0999 V2000
   -3.8405   -3.7518    1.6252 H   0  0  0  0  0  0  0  0  0  0  0  0
   -3.7965   -2.8768    0.9782 C   0  0  0  0  0  0  0  0  0  0  0  0
   -4.5465   -2.1527    1.2902 H   0  0  0  0  0  0  0  0  0  0  0  0
   -3.9745   -3.1748   -0.0538 H   0  0  0  0  0  0  0  0  0  0  0  0
   -2.4245   -2.2537    1.0882 C   0  0  0  0  0  0  0  0  0  0  0  0
   -1.5805   -2.7478    1.8242 O   0  0  0  0  0  0  0  0  0  0  0  0
   -2.2045   -1.1637    0.3562 N   0  0  0  0  0  0  0  0  0  0  0  0
   -2.9595   -0.7907   -0.2008 H   0  0  0  0  0  0  0  0  0  0  0  0
   -0.9485   -0.4087    0.3482 C   0  0  1  0  0  0  0  0  0  0  0  0
   -0.1408   -1.0795    0.0507 H   0  0  0  0  0  0  0  0  0  0  0  0
   -1.0432    0.7243   -0.6879 C   0  0  0  0  0  0  0  0  0  0  0  0
   -0.2279    1.4292   -0.5190 H   0  0  0  0  0  0  0  0  0  0  0  0
   -0.9106    0.3032   -1.6857 H   0  0  0  0  0  0  0  0  0  0  0  0
   -2.3487    1.4951   -0.6393 C   0  0  0  0  0  0  0  0  0  0  0  0
   -2.3888    2.8538   -1.0058 C   0  0  0  0  0  0  0  0  0  0  0  0
   -1.4828    3.3628   -1.3031 H   0  0  0  0  0  0  0  0  0  0  0  0
   -3.6109    3.5512   -0.9977 C   0  0  0  0  0  0  0  0  0  0  0  0
   -3.6391    4.5951   -1.2770 H   0  0  0  0  0  0  0  0  0  0  0  0
   -4.7944    2.8916   -0.6252 C   0  0  0  0  0  0  0  0  0  0  0  0
   -5.7329    3.4281   -0.6166 H   0  0  0  0  0  0  0  0  0  0  0  0
   -4.7575    1.5344   -0.2569 C   0  0  0  0  0  0  0  0  0  0  0  0
   -5.6663    1.0286    0.0347 H   0  0  0  0  0  0  0  0  0  0  0  0
   -3.5356    0.8385   -0.2619 C   0  0  0  0  0  0  0  0  0  0  0  0
   -3.5080   -0.2047    0.0248 H   0  0  0  0  0  0  0  0  0  0  0  0
   -0.6196    0.1253    1.7539 C   0  0  0  0  0  0  0  0  0  0  0  0
    0.5216    0.0194    2.2054 O   0  0  0  0  0  0  0  0  0  0  0  0
   -1.6152    0.6924    2.4469 N   0  0  0  0  0  0  0  0  0  0  0  0
   -2.5345    0.6914    2.0318 H   0  0  0  0  0  0  0  0  0  0  0  0
   -1.4720    1.2390    3.7941 C   0  0  0  0  0  0  0  0  0  0  0  0
   -0.6345    1.9391    3.8219 H   0  0  0  0  0  0  0  0  0  0  0  0
   -2.3844    1.7580    4.0892 H   0  0  0  0  0  0  0  0  0  0  0  0
   -1.2733    0.4298    4.4995 H   0  0  0  0  0  0  0  0  0  0  0  0
  5  6  2  0  0  0  0
  5  7  1  0  0  0  0
  2  3  1  0  0  0  0
  2  4  1  0  0  0  0
  2  5  1  0  0  0  0
  1  2  1  0  0  0  0
 25 26  2  0  0  0  0
 25 27  1  0  0  0  0
 23 24  1  0  0  0  0
 21 22  1  0  0  0  0
 21 23  2  0  0  0  0
 19 20  1  0  0  0  0
 19 21  1  0  0  0  0
 17 18  1  0  0  0  0
 17 19  2  0  0  0  0
 15 16  1  0  0  0  0
 15 17  1  0  0  0  0
 14 15  2  0  0  0  0
 14 23  1  0  0  0  0
 11 12  1  0  0  0  0
 11 13  1  0  0  0  0
 11 14  1  0  0  0  0
  9 10  1  0  0  0  0
  9 11  1  0  0  0  0
  9 25  1  0  0  0  0
  7  8  1  0  0  0  0
  7  9  1  0  0  0  0
 29 30  1  0  0  0  0
 29 31  1  0  0  0  0
 29 32  1  0  0  0  0
 27 28  1  0  0  0  0
 27 29  1  0  0  0  0
M  END
$$$$
default_name
  -OEChem-02102213163D

 32 32  0     1  0  0  0  0  0999 V2000
   -3.8405   -3.7518    1.6252 H   0  0  0  0  0  0  0  0  0  0  0  0
   -3.7965   -2.8768    0.9782 C   0  0  0  0  0  0  0  0  0  0  0  0
   -4.5465   -2.1527    1.2902 H   0  0  0  0  0  0  0  0  0  0  0  0
   -3.9745   -3.1748   -0.0538 H   0  0  0  0  0  0  0  0  0  0  0  0
   -2.4245   -2.2537    1.0882 C   0  0  0  0  0  0  0  0  0  0  0  0
   -1.5805   -2.7478    1.8242 O   0  0  0  0  0  0  0  0  0  0  0  0
   -2.2045   -1.1637    0.3562 N   0  0  0  0  0  0  0  0  0  0  0  0
   -2.9595   -0.7907   -0.2008 H   0  0  0  0  0  0  0  0  0  0  0  0
   -0.9485   -0.4087    0.3482 C   0  0  1  0  0  0  0  0  0  0  0  0
   -0.1408   -1.0795    0.0507 H   0  0  0  0  0  0  0  0  0  0  0  0
   -1.0432    0.7243   -0.6879 C   0  0  0  0  0  0  0  0  0  0  0  0
   -0.2279    1.4292   -0.5190 H   0  0  0  0  0  0  0  0  0  0  0  0
   -0.9106    0.3032   -1.6857 H   0  0  0  0  0  0  0  0  0  0  0  0
   -2.3487    1.4951   -0.6393 C   0  0  0  0  0  0  0  0  0  0  0  0
   -2.4679    2.7379   -1.2899 C   0  0  0  0  0  0  0  0  0  0  0  0
   -1.6205    3.1616   -1.8102 H   0  0  0  0  0  0  0  0  0  0  0  0
   -3.6943    3.4275   -1.2751 C   0  0  0  0  0  0  0  0  0  0  0  0
   -3.7829    4.3828   -1.7732 H   0  0  0  0  0  0  0  0  0  0  0  0
   -4.8034    2.8756   -0.6119 C   0  0  0  0  0  0  0  0  0  0  0  0
   -5.7449    3.4066   -0.5986 H   0  0  0  0  0  0  0  0  0  0  0  0
   -4.6872    1.6347    0.0405 C   0  0  0  0  0  0  0  0  0  0  0  0
   -5.5382    1.2128    0.5549 H   0  0  0  0  0  0  0  0  0  0  0  0
   -3.4606    0.9472    0.0284 C   0  0  0  0  0  0  0  0  0  0  0  0
   -3.3716   -0.0058    0.5335 H   0  0  0  0  0  0  0  0  0  0  0  0
   -0.6196    0.1253    1.7539 C   0  0  0  0  0  0  0  0  0  0  0  0
    0.5216    0.0194    2.2054 O   0  0  0  0  0  0  0  0  0  0  0  0
   -1.6152    0.6924    2.4469 N   0  0  0  0  0  0  0  0  0  0  0  0
   -2.5345    0.6914    2.0318 H   0  0  0  0  0  0  0  0  0  0  0  0
   -1.4720    1.2390    3.7941 C   0  0  0  0  0  0  0  0  0  0  0  0
   -0.6345    1.9391    3.8219 H   0  0  0  0  0  0  0  0  0  0  0  0
   -2.3844    1.7580    4.0892 H   0  0  0  0  0  0  0  0  0  0  0  0
   -1.2733    0.4298    4.4995 H   0  0  0  0  0  0  0  0  0  0  0  0
  5  6  2  0  0  0  0
  5  7  1  0  0  0  0
  2  3  1  0  0  0  0
  2  4  1  0  0  0  0
  2  5  1  0  0  0  0
  1  2  1  0  0  0  0
 25 26  2  0  0  0  0
 25 27  1  0  0  0  0
 23 24  1  0  0  0  0
 21 22  1  0  0  0  0
 21 23  2  0  0  0  0
 19 20  1  0  0  0  0
 19 21  1  0  0  0  0
 17 18  1  0  0  0  0
 17 19  2  0  0  0  0
 15 16  1  0  0  0  0
 15 17  1  0  0  0  0
 14 15  2  0  0  0  0
 14 23  1  0  0  0  0
 11 12  1  0  0  0  0
 11 13  1  0  0  0  0
 11 14  1  0  0  0  0
  9 10  1  0  0  0  0
  9 11  1  0  0  0  0
  9 25  1  0  0  0  0
  7  8  1  0  0  0  0
  7  9  1  0  0  0  0
 29 30  1  0  0  0  0
 29 31  1  0  0  0  0
 29 32  1  0  0  0  0
 27 28  1  0  0  0  0
 27 29  1  0  0  0  0
M  END
$$$$
default_name
  -OEChem-02102213163D

 32 32  0     1  0  0  0  0  0999 V2000
   -3.8405   -3.7518    1.6252 H   0  0  0  0  0  0  0  0  0  0  0  0
   -3.7965   -2.8768    0.9782 C   0  0  0  0  0  0  0  0  0  0  0  0
   -4.5465   -2.1527    1.2902 H   0  0  0  0  0  0  0  0  0  0  0  0
   -3.9745   -3.1748   -0.0538 H   0  0  0  0  0  0  0  0  0  0  0  0
   -2.4245   -2.2537    1.0882 C   0  0  0  0  0  0  0  0  0  0  0  0
   -1.5805   -2.7478    1.8242 O   0  0  0  0  0  0  0  0  0  0  0  0
   -2.2045   -1.1637    0.3562 N   0  0  0  0  0  0  0  0  0  0  0  0
   -2.9595   -0.7907   -0.2008 H   0  0  0  0  0  0  0  0  0  0  0  0
   -0.9485   -0.4087    0.3482 C   0  0  1  0  0  0  0  0  0  0  0  0
   -0.1408   -1.0795    0.0507 H   0  0  0  0  0  0  0  0  0  0  0  0
   -1.0432    0.7243   -0.6879 C   0  0  0  0  0  0  0  0  0  0  0  0
   -0.1013    1.2746   -0.6996 H   0  0  0  0  0  0  0  0  0  0  0  0
   -1.1795    0.2875   -1.6784 H   0  0  0  0  0  0  0  0  0  0  0  0
   -2.1618    1.7127   -0.4185 C   0  0  0  0  0  0  0  0  0  0  0  0
   -2.3723    2.8045   -1.2819 C   0  0  0  0  0  0  0  0  0  0  0  0
   -1.7219    2.9579   -2.1314 H   0  0  0  0  0  0  0  0  0  0  0  0
   -3.4375    3.6937   -1.0486 C   0  0  0  0  0  0  0  0  0  0  0  0
   -3.5958    4.5329   -1.7113 H   0  0  0  0  0  0  0  0  0  0  0  0
   -4.2948    3.4921    0.0464 C   0  0  0  0  0  0  0  0  0  0  0  0
   -5.1118    4.1766    0.2270 H   0  0  0  0  0  0  0  0  0  0  0  0
   -4.0864    2.4029    0.9120 C   0  0  0  0  0  0  0  0  0  0  0  0
   -4.7419    2.2508    1.7569 H   0  0  0  0  0  0  0  0  0  0  0  0
   -3.0197    1.5163    0.6805 C   0  0  0  0  0  0  0  0  0  0  0  0
   -2.8584    0.6807    1.3491 H   0  0  0  0  0  0  0  0  0  0  0  0
   -0.6196    0.1253    1.7539 C   0  0  0  0  0  0  0  0  0  0  0  0
    0.5216    0.0194    2.2054 O   0  0  0  0  0  0  0  0  0  0  0  0
   -1.6152    0.6924    2.4469 N   0  0  0  0  0  0  0  0  0  0  0  0
   -2.5345    0.6914    2.0318 H   0  0  0  0  0  0  0  0  0  0  0  0
   -1.4720    1.2390    3.7941 C   0  0  0  0  0  0  0  0  0  0  0  0
   -0.6345    1.9391    3.8219 H   0  0  0  0  0  0  0  0  0  0  0  0
   -2.3844    1.7580    4.0892 H   0  0  0  0  0  0  0  0  0  0  0  0
   -1.2733    0.4298    4.4995 H   0  0  0  0  0  0  0  0  0  0  0  0
  5  6  2  0  0  0  0
  5  7  1  0  0  0  0
  2  3  1  0  0  0  0
  2  4  1  0  0  0  0
  2  5  1  0  0  0  0
  1  2  1  0  0  0  0
 25 26  2  0  0  0  0
 25 27  1  0  0  0  0
 23 24  1  0  0  0  0
 21 22  1  0  0  0  0
 21 23  2  0  0  0  0
 19 20  1  0  0  0  0
 19 21  1  0  0  0  0
 17 18  1  0  0  0  0
 17 19  2  0  0  0  0
 15 16  1  0  0  0  0
 15 17  1  0  0  0  0
 14 15  2  0  0  0  0
 14 23  1  0  0  0  0
 11 12  1  0  0  0  0
 11 13  1  0  0  0  0
 11 14  1  0  0  0  0
  9 10  1  0  0  0  0
  9 11  1  0  0  0  0
  9 25  1  0  0  0  0
  7  8  1  0  0  0  0
  7  9  1  0  0  0  0
 29 30  1  0  0  0  0
 29 31  1  0  0  0  0
 29 32  1  0  0  0  0
 27 28  1  0  0  0  0
 27 29  1  0  0  0  0
M  END
$$$$
default_name
  -OEChem-02102213163D

 32 32  0     1  0  0  0  0  0999 V2000
   -3.8405   -3.7518    1.6252 H   0  0  0  0  0  0  0  0  0  0  0  0
   -3.7965   -2.8768    0.9782 C   0  0  0  0  0  0  0  0  0  0  0  0
   -4.5465   -2.1527    1.2902 H   0  0  0  0  0  0  0  0  0  0  0  0
   -3.9745   -3.1748   -0.0538 H   0  0  0  0  0  0  0  0  0  0  0  0
   -2.4245   -2.2537    1.0882 C   0  0  0  0  0  0  0  0  0  0  0  0
   -1.5805   -2.7478    1.8242 O   0  0  0  0  0  0  0  0  0  0  0  0
   -2.2045   -1.1637    0.3562 N   0  0  0  0  0  0  0  0  0  0  0  0
   -2.9595   -0.7907   -0.2008 H   0  0  0  0  0  0  0  0  0  0  0  0
   -0.9485   -0.4087    0.3482 C   0  0  1  0  0  0  0  0  0  0  0  0
   -0.1408   -1.0795    0.0507 H   0  0  0  0  0  0  0  0  0  0  0  0
   -1.0432    0.7243   -0.6879 C   0  0  0  0  0  0  0  0  0  0  0  0
   -0.1013    1.2746   -0.6996 H   0  0  0  0  0  0  0  0  0  0  0  0
   -1.1795    0.2875   -1.6784 H   0  0  0  0  0  0  0  0  0  0  0  0
   -2.1618    1.7127   -0.4185 C   0  0  0  0  0  0  0  0  0  0  0  0
   -2.5789    2.6087   -1.4210 C   0  0  0  0  0  0  0  0  0  0  0  0
   -2.0876    2.6128   -2.3838 H   0  0  0  0  0  0  0  0  0  0  0  0
   -3.6447    3.4944   -1.1773 C   0  0  0  0  0  0  0  0  0  0  0  0
   -3.9616    4.1833   -1.9476 H   0  0  0  0  0  0  0  0  0  0  0  0
   -4.2963    3.4846    0.0677 C   0  0  0  0  0  0  0  0  0  0  0  0
   -5.1136    4.1667    0.2558 H   0  0  0  0  0  0  0  0  0  0  0  0
   -3.8811    2.5916    1.0723 C   0  0  0  0  0  0  0  0  0  0  0  0
   -4.3782    2.5877    2.0312 H   0  0  0  0  0  0  0  0  0  0  0  0
   -2.8137    1.7088    0.8295 C   0  0  0  0  0  0  0  0  0  0  0  0
   -2.4931    1.0246    1.6043 H   0  0  0  0  0  0  0  0  0  0  0  0
   -0.6196    0.1253    1.7539 C   0  0  0  0  0  0  0  0  0  0  0  0
    0.5216    0.0194    2.2054 O   0  0  0  0  0  0  0  0  0  0  0  0
   -1.6152    0.6924    2.4469 N   0  0  0  0  0  0  0  0  0  0  0  0
   -2.5345    0.6914    2.0318 H   0  0  0  0  0  0  0  0  0  0  0  0
   -1.4720    1.2390    3.7941 C   0  0  0  0  0  0  0  0  0  0  0  0
   -0.6345    1.9391    3.8219 H   0  0  0  0  0  0  0  0  0  0  0  0
   -2.3844    1.7580    4.0892 H   0  0  0  0  0  0  0  0  0  0  0  0
   -1.2733    0.4298    4.4995 H   0  0  0  0  0  0  0  0  0  0  0  0
  5  6  2  0  0  0  0
  5  7  1  0  0  0  0
  2  3  1  0  0  0  0
  2  4  1  0  0  0  0
  2  5  1  0  0  0  0
  1  2  1  0  0  0  0
 25 26  2  0  0  0  0
 25 27  1  0  0  0  0
 23 24  1  0  0  0  0
 21 22  1  0  0  0  0
 21 23  2  0  0  0  0
 19 20  1  0  0  0  0
 19 21  1  0  0  0  0
 17 18  1  0  0  0  0
 17 19  2  0  0  0  0
 15 16  1  0  0  0  0
 15 17  1  0  0  0  0
 14 15  2  0  0  0  0
 14 23  1  0  0  0  0
 11 12  1  0  0  0  0
 11 13  1  0  0  0  0
 11 14  1  0  0  0  0
  9 10  1  0  0  0  0
  9 11  1  0  0  0  0
  9 25  1  0  0  0  0
  7  8  1  0  0  0  0
  7  9  1  0  0  0  0
 29 30  1  0  0  0  0
 29 31  1  0  0  0  0
 29 32  1  0  0  0  0
 27 28  1  0  0  0  0
 27 29  1  0  0  0  0
M  END
$$$$
default_name
  -OEChem-02102213163D

 32 32  0     1  0  0  0  0  0999 V2000
   -3.8405   -3.7518    1.6252 H   0  0  0  0  0  0  0  0  0  0  0  0
   -3.7965   -2.8768    0.9782 C   0  0  0  0  0  0  0  0  0  0  0  0
   -4.5465   -2.1527    1.2902 H   0  0  0  0  0  0  0  0  0  0  0  0
   -3.9745   -3.1748   -0.0538 H   0  0  0  0  0  0  0  0  0  0  0  0
   -2.4245   -2.2537    1.0882 C   0  0  0  0  0  0  0  0  0  0  0  0
   -1.5805   -2.7478    1.8242 O   0  0  0  0  0  0  0  0  0  0  0  0
   -2.2045   -1.1637    0.3562 N   0  0  0  0  0  0  0  0  0  0  0  0
   -2.9595   -0.7907   -0.2008 H   0  0  0  0  0  0  0  0  0  0  0  0
   -0.9485   -0.4087    0.3482 C   0  0  1  0  0  0  0  0  0  0  0  0
   -0.1408   -1.0795    0.0507 H   0  0  0  0  0  0  0  0  0  0  0  0
   -1.0432    0.7243   -0.6879 C   0  0  0  0  0  0  0  0  0  0  0  0
   -0.1013    1.2746   -0.6996 H   0  0  0  0  0  0  0  0  0  0  0  0
   -1.1795    0.2875   -1.6784 H   0  0  0  0  0  0  0  0  0  0  0  0
   -2.1618    1.7127   -0.4185 C   0  0  0  0  0  0  0  0  0  0  0  0
   -2.7929    2.3834   -1.4832 C   0  0  0  0  0  0  0  0  0  0  0  0
   -2.4675    2.2145   -2.5001 H   0  0  0  0  0  0  0  0  0  0  0  0
   -3.8573    3.2677   -1.2286 C   0  0  0  0  0  0  0  0  0  0  0  0
   -4.3388    3.7837   -2.0474 H   0  0  0  0  0  0  0  0  0  0  0  0
   -4.2938    3.4814    0.0900 C   0  0  0  0  0  0  0  0  0  0  0  0
   -5.1100    4.1625    0.2858 H   0  0  0  0  0  0  0  0  0  0  0  0
   -3.6644    2.8138    1.1564 C   0  0  0  0  0  0  0  0  0  0  0  0
   -3.9962    2.9821    2.1705 H   0  0  0  0  0  0  0  0  0  0  0  0
   -2.5985    1.9327    0.9019 C   0  0  0  0  0  0  0  0  0  0  0  0
   -2.1129    1.4224    1.7235 H   0  0  0  0  0  0  0  0  0  0  0  0
   -0.6196    0.1253    1.7539 C   0  0  0  0  0  0  0  0  0  0  0  0
    0.5216    0.0194    2.2054 O   0  0  0  0  0  0  0  0  0  0  0  0
   -1.6152    0.6924    2.4469 N   0  0  0  0  0  0  0  0  0  0  0  0
   -2.5345    0.6914    2.0318 H   0  0  0  0  0  0  0  0  0  0  0  0
   -1.4720    1.2390    3.7941 C   0  0  0  0  0  0  0  0  0  0  0  0
   -0.6345    1.9391    3.8219 H   0  0  0  0  0  0  0  0  0  0  0  0
   -2.3844    1.7580    4.0892 H   0  0  0  0  0  0  0  0  0  0  0  0
   -1.2733    0.4298    4.4995 H   0  0  0  0  0  0  0  0  0  0  0  0
  5  6  2  0  0  0  0
  5  7  1  0  0  0  0
  2  3  1  0  0  0  0
  2  4  1  0  0  0  0
  2  5  1  0  0  0  0
  1  2  1  0  0  0  0
 25 26  2  0  0  0  0
 25 27  1  0  0  0  0
 23 24  1  0  0  0  0
 21 22  1  0  0  0  0
 21 23  2  0  0  0  0
 19 20  1  0  0  0  0
 19 21  1  0  0  0  0
 17 18  1  0  0  0  0
 17 19  2  0  0  0  0
 15 16  1  0  0  0  0
 15 17  1  0  0  0  0
 14 15  2  0  0  0  0
 14 23  1  0  0  0  0
 11 12  1  0  0  0  0
 11 13  1  0  0  0  0
 11 14  1  0  0  0  0
  9 10  1  0  0  0  0
  9 11  1  0  0  0  0
  9 25  1  0  0  0  0
  7  8  1  0  0  0  0
  7  9  1  0  0  0  0
 29 30  1  0  0  0  0
 29 31  1  0  0  0  0
 29 32  1  0  0  0  0
 27 28  1  0  0  0  0
 27 29  1  0  0  0  0
M  END
$$$$
default_name
  -OEChem-02102213163D

 32 32  0     1  0  0  0  0  0999 V2000
   -3.8405   -3.7518    1.6252 H   0  0  0  0  0  0  0  0  0  0  0  0
   -3.7965   -2.8768    0.9782 C   0  0  0  0  0  0  0  0  0  0  0  0
   -4.5465   -2.1527    1.2902 H   0  0  0  0  0  0  0  0  0  0  0  0
   -3.9745   -3.1748   -0.0538 H   0  0  0  0  0  0  0  0  0  0  0  0
   -2.4245   -2.2537    1.0882 C   0  0  0  0  0  0  0  0  0  0  0  0
   -1.5805   -2.7478    1.8242 O   0  0  0  0  0  0  0  0  0  0  0  0
   -2.2045   -1.1637    0.3562 N   0  0  0  0  0  0  0  0  0  0  0  0
   -2.9595   -0.7907   -0.2008 H   0  0  0  0  0  0  0  0  0  0  0  0
   -0.9485   -0.4087    0.3482 C   0  0  1  0  0  0  0  0  0  0  0  0
   -0.1408   -1.0795    0.0507 H   0  0  0  0  0  0  0  0  0  0  0  0
   -1.0432    0.7243   -0.6879 C   0  0  0  0  0  0  0  0  0  0  0  0
   -0.1013    1.2746   -0.6996 H   0  0  0  0  0  0  0  0  0  0  0  0
   -1.1795    0.2875   -1.6784 H   0  0  0  0  0  0  0  0  0  0  0  0
   -2.1618    1.7127   -0.4185 C   0  0  0  0  0  0  0  0  0  0  0  0
   -2.9997    2.1442   -1.4642 C   0  0  0  0  0  0  0  0  0  0  0  0
   -2.8358    1.7901   -2.4722 H   0  0  0  0  0  0  0  0  0  0  0  0
   -4.0609    3.0292   -1.1990 C   0  0  0  0  0  0  0  0  0  0  0  0
   -4.7015    3.3613   -2.0039 H   0  0  0  0  0  0  0  0  0  0  0  0
   -4.2874    3.4826    0.1116 C   0  0  0  0  0  0  0  0  0  0  0  0
   -5.1014    4.1644    0.3150 H   0  0  0  0  0  0  0  0  0  0  0  0
   -3.4511    3.0546    1.1587 C   0  0  0  0  0  0  0  0  0  0  0  0
   -3.6218    3.4073    2.1653 H   0  0  0  0  0  0  0  0  0  0  0  0
   -2.3886    2.1727    0.8928 C   0  0  0  0  0  0  0  0  0  0  0  0
   -1.7439    1.8468    1.6986 H   0  0  0  0  0  0  0  0  0  0  0  0
   -0.6196    0.1253    1.7539 C   0  0  0  0  0  0  0  0  0  0  0  0
    0.5216    0.0194    2.2054 O   0  0  0  0  0  0  0  0  0  0  0  0
   -1.6152    0.6924    2.4469 N   0  0  0  0  0  0  0  0  0  0  0  0
   -2.5345    0.6914    2.0318 H   0  0  0  0  0  0  0  0  0  0  0  0
   -1.4720    1.2390    3.7941 C   0  0  0  0  0  0  0  0  0  0  0  0
   -0.6345    1.9391    3.8219 H   0  0  0  0  0  0  0  0  0  0  0  0
   -2.3844    1.7580    4.0892 H   0  0  0  0  0  0  0  0  0  0  0  0
   -1.2733    0.4298    4.4995 H   0  0  0  0  0  0  0  0  0  0  0  0
  5  6  2  0  0  0  0
  5  7  1  0  0  0  0
  2  3  1  0  0  0  0
  2  4  1  0  0  0  0
  2  5  1  0  0  0  0
  1  2  1  0  0  0  0
 25 26  2  0  0  0  0
 25 27  1  0  0  0  0
 23 24  1  0  0  0  0
 21 22  1  0  0  0  0
 21 23  2  0  0  0  0
 19 20  1  0  0  0  0
 19 21  1  0  0  0  0
 17 18  1  0  0  0  0
 17 19  2  0  0  0  0
 15 16  1  0  0  0  0
 15 17  1  0  0  0  0
 14 15  2  0  0  0  0
 14 23  1  0  0  0  0
 11 12  1  0  0  0  0
 11 13  1  0  0  0  0
 11 14  1  0  0  0  0
  9 10  1  0  0  0  0
  9 11  1  0  0  0  0
  9 25  1  0  0  0  0
  7  8  1  0  0  0  0
  7  9  1  0  0  0  0
 29 30  1  0  0  0  0
 29 31  1  0  0  0  0
 29 32  1  0  0  0  0
 27 28  1  0  0  0  0
 27 29  1  0  0  0  0
M  END
$$$$
default_name
  -OEChem-02102213163D

 32 32  0     1  0  0  0  0  0999 V2000
   -3.8405   -3.7518    1.6252 H   0  0  0  0  0  0  0  0  0  0  0  0
   -3.7965   -2.8768    0.9782 C   0  0  0  0  0  0  0  0  0  0  0  0
   -4.5465   -2.1527    1.2902 H   0  0  0  0  0  0  0  0  0  0  0  0
   -3.9745   -3.1748   -0.0538 H   0  0  0  0  0  0  0  0  0  0  0  0
   -2.4245   -2.2537    1.0882 C   0  0  0  0  0  0  0  0  0  0  0  0
   -1.5805   -2.7478    1.8242 O   0  0  0  0  0  0  0  0  0  0  0  0
   -2.2045   -1.1637    0.3562 N   0  0  0  0  0  0  0  0  0  0  0  0
   -2.9595   -0.7907   -0.2008 H   0  0  0  0  0  0  0  0  0  0  0  0
   -0.9485   -0.4087    0.3482 C   0  0  1  0  0  0  0  0  0  0  0  0
   -0.1408   -1.0795    0.0507 H   0  0  0  0  0  0  0  0  0  0  0  0
   -1.0432    0.7243   -0.6879 C   0  0  0  0  0  0  0  0  0  0  0  0
   -0.1013    1.2746   -0.6996 H   0  0  0  0  0  0  0  0  0  0  0  0
   -1.1795    0.2875   -1.6784 H   0  0  0  0  0  0  0  0  0  0  0  0
   -2.1618    1.7127   -0.4185 C   0  0  0  0  0  0  0  0  0  0  0  0
   -3.1853    1.9072   -1.3653 C   0  0  0  0  0  0  0  0  0  0  0  0
   -3.1674    1.3685   -2.3023 H   0  0  0  0  0  0  0  0  0  0  0  0
   -4.2417    2.7951   -1.0906 C   0  0  0  0  0  0  0  0  0  0  0  0
   -5.0252    2.9449   -1.8201 H   0  0  0  0  0  0  0  0  0  0  0  0
   -4.2777    3.4882    0.1313 C   0  0  0  0  0  0  0  0  0  0  0  0
   -5.0881    4.1722    0.3414 H   0  0  0  0  0  0  0  0  0  0  0  0
   -3.2558    3.2973    1.0790 C   0  0  0  0  0  0  0  0  0  0  0  0
   -3.2805    3.8342    2.0160 H   0  0  0  0  0  0  0  0  0  0  0  0
   -2.1985    2.4124    0.8028 C   0  0  0  0  0  0  0  0  0  0  0  0
   -1.4112    2.2690    1.5313 H   0  0  0  0  0  0  0  0  0  0  0  0
   -0.6196    0.1253    1.7539 C   0  0  0  0  0  0  0  0  0  0  0  0
    0.5216    0.0194    2.2054 O   0  0  0  0  0  0  0  0  0  0  0  0
   -1.6152    0.6924    2.4469 N   0  0  0  0  0  0  0  0  0  0  0  0
   -2.5345    0.6914    2.0318 H   0  0  0  0  0  0  0  0  0  0  0  0
   -1.4720    1.2390    3.7941 C   0  0  0  0  0  0  0  0  0  0  0  0
   -0.6345    1.9391    3.8219 H   0  0  0  0  0  0  0  0  0  0  0  0
   -2.3844    1.7580    4.0892 H   0  0  0  0  0  0  0  0  0  0  0  0
   -1.2733    0.4298    4.4995 H   0  0  0  0  0  0  0  0  0  0  0  0
  5  6  2  0  0  0  0
  5  7  1  0  0  0  0
  2  3  1  0  0  0  0
  2  4  1  0  0  0  0
  2  5  1  0  0  0  0
  1  2  1  0  0  0  0
 25 26  2  0  0  0  0
 25 27  1  0  0  0  0
 23 24  1  0  0  0  0
 21 22  1  0  0  0  0
 21 23  2  0  0  0  0
 19 20  1  0  0  0  0
 19 21  1  0  0  0  0
 17 18  1  0  0  0  0
 17 19  2  0  0  0  0
 15 16  1  0  0  0  0
 15 17  1  0  0  0  0
 14 15  2  0  0  0  0
 14 23  1  0  0  0  0
 11 12  1  0  0  0  0
 11 13  1  0  0  0  0
 11 14  1  0  0  0  0
  9 10  1  0  0  0  0
  9 11  1  0  0  0  0
  9 25  1  0  0  0  0
  7  8  1  0  0  0  0
  7  9  1  0  0  0  0
 29 30  1  0  0  0  0
 29 31  1  0  0  0  0
 29 32  1  0  0  0  0
 27 28  1  0  0  0  0
 27 29  1  0  0  0  0
M  END
$$$$
default_name
  -OEChem-02102213163D

 32 32  0     1  0  0  0  0  0999 V2000
   -3.8405   -3.7518    1.6252 H   0  0  0  0  0  0  0  0  0  0  0  0
   -3.7965   -2.8768    0.9782 C   0  0  0  0  0  0  0  0  0  0  0  0
   -4.5465   -2.1527    1.2902 H   0  0  0  0  0  0  0  0  0  0  0  0
   -3.9745   -3.1748   -0.0538 H   0  0  0  0  0  0  0  0  0  0  0  0
   -2.4245   -2.2537    1.0882 C   0  0  0  0  0  0  0  0  0  0  0  0
   -1.5805   -2.7478    1.8242 O   0  0  0  0  0  0  0  0  0  0  0  0
   -2.2045   -1.1637    0.3562 N   0  0  0  0  0  0  0  0  0  0  0  0
   -2.9595   -0.7907   -0.2008 H   0  0  0  0  0  0  0  0  0  0  0  0
   -0.9485   -0.4087    0.3482 C   0  0  1  0  0  0  0  0  0  0  0  0
   -0.1408   -1.0795    0.0507 H   0  0  0  0  0  0  0  0  0  0  0  0
   -1.0432    0.7243   -0.6879 C   0  0  0  0  0  0  0  0  0  0  0  0
   -0.1013    1.2746   -0.6996 H   0  0  0  0  0  0  0  0  0  0  0  0
   -1.1795    0.2875   -1.6784 H   0  0  0  0  0  0  0  0  0  0  0  0
   -2.1618    1.7127   -0.4185 C   0  0  0  0  0  0  0  0  0  0  0  0
   -3.3370    1.6886   -1.1933 C   0  0  0  0  0  0  0  0  0  0  0  0
   -3.4396    0.9785   -2.0017 H   0  0  0  0  0  0  0  0  0  0  0  0
   -4.3872    2.5813   -0.9107 C   0  0  0  0  0  0  0  0  0  0  0  0
   -5.2876    2.5629   -1.5085 H   0  0  0  0  0  0  0  0  0  0  0  0
   -4.2653    3.4979    0.1475 C   0  0  0  0  0  0  0  0  0  0  0  0
   -5.0713    4.1853    0.3631 H   0  0  0  0  0  0  0  0  0  0  0  0
   -3.0918    3.5256    0.9228 C   0  0  0  0  0  0  0  0  0  0  0  0
   -2.9957    4.2337    1.7328 H   0  0  0  0  0  0  0  0  0  0  0  0
   -2.0411    2.6355    0.6380 C   0  0  0  0  0  0  0  0  0  0  0  0
   -1.1374    2.6601    1.2331 H   0  0  0  0  0  0  0  0  0  0  0  0
   -0.6196    0.1253    1.7539 C   0  0  0  0  0  0  0  0  0  0  0  0
    0.5216    0.0194    2.2054 O   0  0  0  0  0  0  0  0  0  0  0  0
   -1.6152    0.6924    2.4469 N   0  0  0  0  0  0  0  0  0  0  0  0
   -2.5345    0.6914    2.0318 H   0  0  0  0  0  0  0  0  0  0  0  0
   -1.4720    1.2390    3.7941 C   0  0  0  0  0  0  0  0  0  0  0  0
   -0.6345    1.9391    3.8219 H   0  0  0  0  0  0  0  0  0  0  0  0
   -2.3844    1.7580    4.0892 H   0  0  0  0  0  0  0  0  0  0  0  0
   -1.2733    0.4298    4.4995 H   0  0  0  0  0  0  0  0  0  0  0  0
  5  6  2  0  0  0  0
  5  7  1  0  0  0  0
  2  3  1  0  0  0  0
  2  4  1  0  0  0  0
  2  5  1  0  0  0  0
  1  2  1  0  0  0  0
 25 26  2  0  0  0  0
 25 27  1  0  0  0  0
 23 24  1  0  0  0  0
 21 22  1  0  0  0  0
 21 23  2  0  0  0  0
 19 20  1  0  0  0  0
 19 21  1  0  0  0  0
 17 18  1  0  0  0  0
 17 19  2  0  0  0  0
 15 16  1  0  0  0  0
 15 17  1  0  0  0  0
 14 15  2  0  0  0  0
 14 23  1  0  0  0  0
 11 12  1  0  0  0  0
 11 13  1  0  0  0  0
 11 14  1  0  0  0  0
  9 10  1  0  0  0  0
  9 11  1  0  0  0  0
  9 25  1  0  0  0  0
  7  8  1  0  0  0  0
  7  9  1  0  0  0  0
 29 30  1  0  0  0  0
 29 31  1  0  0  0  0
 29 32  1  0  0  0  0
 27 28  1  0  0  0  0
 27 29  1  0  0  0  0
M  END
$$$$
default_name
  -OEChem-02102213163D

 32 32  0     1  0  0  0  0  0999 V2000
   -3.8405   -3.7518    1.6252 H   0  0  0  0  0  0  0  0  0  0  0  0
   -3.7965   -2.8768    0.9782 C   0  0  0  0  0  0  0  0  0  0  0  0
   -4.5465   -2.1527    1.2902 H   0  0  0  0  0  0  0  0  0  0  0  0
   -3.9745   -3.1748   -0.0538 H   0  0  0  0  0  0  0  0  0  0  0  0
   -2.4245   -2.2537    1.0882 C   0  0  0  0  0  0  0  0  0  0  0  0
   -1.5805   -2.7478    1.8242 O   0  0  0  0  0  0  0  0  0  0  0  0
   -2.2045   -1.1637    0.3562 N   0  0  0  0  0  0  0  0  0  0  0  0
   -2.9595   -0.7907   -0.2008 H   0  0  0  0  0  0  0  0  0  0  0  0
   -0.9485   -0.4087    0.3482 C   0  0  1  0  0  0  0  0  0  0  0  0
   -0.1408   -1.0795    0.0507 H   0  0  0  0  0  0  0  0  0  0  0  0
   -1.0432    0.7243   -0.6879 C   0  0  0  0  0  0  0  0  0  0  0  0
   -0.1013    1.2746   -0.6996 H   0  0  0  0  0  0  0  0  0  0  0  0
   -1.1795    0.2875   -1.6784 H   0  0  0  0  0  0  0  0  0  0  0  0
   -2.1618    1.7127   -0.4185 C   0  0  0  0  0  0  0  0  0  0  0  0
   -3.4444    1.5033   -0.9598 C   0  0  0  0  0  0  0  0  0  0  0  0
   -3.6339    0.6466   -1.5910 H   0  0  0  0  0  0  0  0  0  0  0  0
   -4.4876    2.4025   -0.6715 C   0  0  0  0  0  0  0  0  0  0  0  0
   -5.4710    2.2413   -1.0903 H   0  0  0  0  0  0  0  0  0  0  0  0
   -4.2510    3.5108    0.1593 C   0  0  0  0  0  0  0  0  0  0  0  0
   -5.0519    4.2030    0.3788 H   0  0  0  0  0  0  0  0  0  0  0  0
   -2.9702    3.7238    0.7007 C   0  0  0  0  0  0  0  0  0  0  0  0
   -2.7868    4.5787    1.3349 H   0  0  0  0  0  0  0  0  0  0  0  0
   -1.9270    2.8268    0.4098 C   0  0  0  0  0  0  0  0  0  0  0  0
   -0.9412    2.9936    0.8241 H   0  0  0  0  0  0  0  0  0  0  0  0
   -0.6196    0.1253    1.7539 C   0  0  0  0  0  0  0  0  0  0  0  0
    0.5216    0.0194    2.2054 O   0  0  0  0  0  0  0  0  0  0  0  0
   -1.6152    0.6924    2.4469 N   0  0  0  0  0  0  0  0  0  0  0  0
   -2.5345    0.6914    2.0318 H   0  0  0  0  0  0  0  0  0  0  0  0
   -1.4720    1.2390    3.7941 C   0  0  0  0  0  0  0  0  0  0  0  0
   -0.6345    1.9391    3.8219 H   0  0  0  0  0  0  0  0  0  0  0  0
   -2.3844    1.7580    4.0892 H   0  0  0  0  0  0  0  0  0  0  0  0
   -1.2733    0.4298    4.4995 H   0  0  0  0  0  0  0  0  0  0  0  0
  5  6  2  0  0  0  0
  5  7  1  0  0  0  0
  2  3  1  0  0  0  0
  2  4  1  0  0  0  0
  2  5  1  0  0  0  0
  1  2  1  0  0  0  0
 25 26  2  0  0  0  0
 25 27  1  0  0  0  0
 23 24  1  0  0  0  0
 21 22  1  0  0  0  0
 21 23  2  0  0  0  0
 19 20  1  0  0  0  0
 19 21  1  0  0  0  0
 17 18  1  0  0  0  0
 17 19  2  0  0  0  0
 15 16  1  0  0  0  0
 15 17  1  0  0  0  0
 14 15  2  0  0  0  0
 14 23  1  0  0  0  0
 11 12  1  0  0  0  0
 11 13  1  0  0  0  0
 11 14  1  0  0  0  0
  9 10  1  0  0  0  0
  9 11  1  0  0  0  0
  9 25  1  0  0  0  0
  7  8  1  0  0  0  0
  7  9  1  0  0  0  0
 29 30  1  0  0  0  0
 29 31  1  0  0  0  0
 29 32  1  0  0  0  0
 27 28  1  0  0  0  0
 27 29  1  0  0  0  0
M  END
$$$$
default_name
  -OEChem-02102213163D

 32 32  0     1  0  0  0  0  0999 V2000
   -3.8405   -3.7518    1.6252 H   0  0  0  0  0  0  0  0  0  0  0  0
   -3.7965   -2.8768    0.9782 C   0  0  0  0  0  0  0  0  0  0  0  0
   -4.5465   -2.1527    1.2902 H   0  0  0  0  0  0  0  0  0  0  0  0
   -3.9745   -3.1748   -0.0538 H   0  0  0  0  0  0  0  0  0  0  0  0
   -2.4245   -2.2537    1.0882 C   0  0  0  0  0  0  0  0  0  0  0  0
   -1.5805   -2.7478    1.8242 O   0  0  0  0  0  0  0  0  0  0  0  0
   -2.2045   -1.1637    0.3562 N   0  0  0  0  0  0  0  0  0  0  0  0
   -2.9595   -0.7907   -0.2008 H   0  0  0  0  0  0  0  0  0  0  0  0
   -0.9485   -0.4087    0.3482 C   0  0  1  0  0  0  0  0  0  0  0  0
   -0.1408   -1.0795    0.0507 H   0  0  0  0  0  0  0  0  0  0  0  0
   -1.0432    0.7243   -0.6879 C   0  0  0  0  0  0  0  0  0  0  0  0
   -0.1013    1.2746   -0.6996 H   0  0  0  0  0  0  0  0  0  0  0  0
   -1.1795    0.2875   -1.6784 H   0  0  0  0  0  0  0  0  0  0  0  0
   -2.1618    1.7127   -0.4185 C   0  0  0  0  0  0  0  0  0  0  0  0
   -3.5003    1.3640   -0.6807 C   0  0  0  0  0  0  0  0  0  0  0  0
   -3.7370    0.3955   -1.0982 H   0  0  0  0  0  0  0  0  0  0  0  0
   -4.5360    2.2708   -0.3895 C   0  0  0  0  0  0  0  0  0  0  0  0
   -5.5629    2.0021   -0.5941 H   0  0  0  0  0  0  0  0  0  0  0  0
   -4.2358    3.5263    0.1658 C   0  0  0  0  0  0  0  0  0  0  0  0
   -5.0314    4.2239    0.3873 H   0  0  0  0  0  0  0  0  0  0  0  0
   -2.8993    3.8785    0.4277 C   0  0  0  0  0  0  0  0  0  0  0  0
   -2.6679    4.8456    0.8495 H   0  0  0  0  0  0  0  0  0  0  0  0
   -1.8642    2.9733    0.1335 C   0  0  0  0  0  0  0  0  0  0  0  0
   -0.8361    3.2467    0.3324 H   0  0  0  0  0  0  0  0  0  0  0  0
   -0.6196    0.1253    1.7539 C   0  0  0  0  0  0  0  0  0  0  0  0
    0.5216    0.0194    2.2054 O   0  0  0  0  0  0  0  0  0  0  0  0
   -1.6152    0.6924    2.4469 N   0  0  0  0  0  0  0  0  0  0  0  0
   -2.5345    0.6914    2.0318 H   0  0  0  0  0  0  0  0  0  0  0  0
   -1.4720    1.2390    3.7941 C   0  0  0  0  0  0  0  0  0  0  0  0
   -0.6345    1.9391    3.8219 H   0  0  0  0  0  0  0  0  0  0  0  0
   -2.3844    1.7580    4.0892 H   0  0  0  0  0  0  0  0  0  0  0  0
   -1.2733    0.4298    4.4995 H   0  0  0  0  0  0  0  0  0  0  0  0
  5  6  2  0  0  0  0
  5  7  1  0  0  0  0
  2  3  1  0  0  0  0
  2  4  1  0  0  0  0
  2  5  1  0  0  0  0
  1  2  1  0  0  0  0
 25 26  2  0  0  0  0
 25 27  1  0  0  0  0
 23 24  1  0  0  0  0
 21 22  1  0  0  0  0
 21 23  2  0  0  0  0
 19 20  1  0  0  0  0
 19 21  1  0  0  0  0
 17 18  1  0  0  0  0
 17 19  2  0  0  0  0
 15 16  1  0  0  0  0
 15 17  1  0  0  0  0
 14 15  2  0  0  0  0
 14 23  1  0  0  0  0
 11 12  1  0  0  0  0
 11 13  1  0  0  0  0
 11 14  1  0  0  0  0
  9 10  1  0  0  0  0
  9 11  1  0  0  0  0
  9 25  1  0  0  0  0
  7  8  1  0  0  0  0
  7  9  1  0  0  0  0
 29 30  1  0  0  0  0
 29 31  1  0  0  0  0
 29 32  1  0  0  0  0
 27 28  1  0  0  0  0
 27 29  1  0  0  0  0
M  END
$$$$
default_name
  -OEChem-02102213163D

 32 32  0     1  0  0  0  0  0999 V2000
   -3.8405   -3.7518    1.6252 H   0  0  0  0  0  0  0  0  0  0  0  0
   -3.7965   -2.8768    0.9782 C   0  0  0  0  0  0  0  0  0  0  0  0
   -4.5465   -2.1527    1.2902 H   0  0  0  0  0  0  0  0  0  0  0  0
   -3.9745   -3.1748   -0.0538 H   0  0  0  0  0  0  0  0  0  0  0  0
   -2.4245   -2.2537    1.0882 C   0  0  0  0  0  0  0  0  0  0  0  0
   -1.5805   -2.7478    1.8242 O   0  0  0  0  0  0  0  0  0  0  0  0
   -2.2045   -1.1637    0.3562 N   0  0  0  0  0  0  0  0  0  0  0  0
   -2.9595   -0.7907   -0.2008 H   0  0  0  0  0  0  0  0  0  0  0  0
   -0.9485   -0.4087    0.3482 C   0  0  1  0  0  0  0  0  0  0  0  0
   -0.1408   -1.0795    0.0507 H   0  0  0  0  0  0  0  0  0  0  0  0
   -1.0432    0.7243   -0.6879 C   0  0  0  0  0  0  0  0  0  0  0  0
   -0.1013    1.2746   -0.6996 H   0  0  0  0  0  0  0  0  0  0  0  0
   -1.1795    0.2875   -1.6784 H   0  0  0  0  0  0  0  0  0  0  0  0
   -2.1618    1.7127   -0.4185 C   0  0  0  0  0  0  0  0  0  0  0  0
   -3.5008    1.2801   -0.3752 C   0  0  0  0  0  0  0  0  0  0  0  0
   -3.7420    0.2422   -0.5569 H   0  0  0  0  0  0  0  0  0  0  0  0
   -4.5291    2.1952   -0.0838 C   0  0  0  0  0  0  0  0  0  0  0  0
   -5.5569    1.8615   -0.0536 H   0  0  0  0  0  0  0  0  0  0  0  0
   -4.2207    3.5431    0.1665 C   0  0  0  0  0  0  0  0  0  0  0  0
   -5.0111    4.2466    0.3881 H   0  0  0  0  0  0  0  0  0  0  0  0
   -2.8839    3.9790    0.1226 C   0  0  0  0  0  0  0  0  0  0  0  0
   -2.6472    5.0162    0.3097 H   0  0  0  0  0  0  0  0  0  0  0  0
   -1.8568    3.0649   -0.1718 C   0  0  0  0  0  0  0  0  0  0  0  0
   -0.8291    3.4022   -0.2086 H   0  0  0  0  0  0  0  0  0  0  0  0
   -0.6196    0.1253    1.7539 C   0  0  0  0  0  0  0  0  0  0  0  0
    0.5216    0.0194    2.2054 O   0  0  0  0  0  0  0  0  0  0  0  0
   -1.6152    0.6924    2.4469 N   0  0  0  0  0  0  0  0  0  0  0  0
   -2.5345    0.6914    2.0318 H   0  0  0  0  0  0  0  0  0  0  0  0
   -1.4720    1.2390    3.7941 C   0  0  0  0  0  0  0  0  0  0  0  0
   -0.6345    1.9391    3.8219 H   0  0  0  0  0  0  0  0  0  0  0  0
   -2.3844    1.7580    4.0892 H   0  0  0  0  0  0  0  0  0  0  0  0
   -1.2733    0.4298    4.4995 H   0  0  0  0  0  0  0  0  0  0  0  0
  5  6  2  0  0  0  0
  5  7  1  0  0  0  0
  2  3  1  0  0  0  0
  2  4  1  0  0  0  0
  2  5  1  0  0  0  0
  1  2  1  0  0  0  0
 25 26  2  0  0  0  0
 25 27  1  0  0  0  0
 23 24  1  0  0  0  0
 21 22  1  0  0  0  0
 21 23  2  0  0  0  0
 19 20  1  0  0  0  0
 19 21  1  0  0  0  0
 17 18  1  0  0  0  0
 17 19  2  0  0  0  0
 15 16  1  0  0  0  0
 15 17  1  0  0  0  0
 14 15  2  0  0  0  0
 14 23  1  0  0  0  0
 11 12  1  0  0  0  0
 11 13  1  0  0  0  0
 11 14  1  0  0  0  0
  9 10  1  0  0  0  0
  9 11  1  0  0  0  0
  9 25  1  0  0  0  0
  7  8  1  0  0  0  0
  7  9  1  0  0  0  0
 29 30  1  0  0  0  0
 29 31  1  0  0  0  0
 29 32  1  0  0  0  0
 27 28  1  0  0  0  0
 27 29  1  0  0  0  0
M  END
$$$$
default_name
  -OEChem-02102213163D

 32 32  0     1  0  0  0  0  0999 V2000
   -3.8405   -3.7518    1.6252 H   0  0  0  0  0  0  0  0  0  0  0  0
   -3.7965   -2.8768    0.9782 C   0  0  0  0  0  0  0  0  0  0  0  0
   -4.5465   -2.1527    1.2902 H   0  0  0  0  0  0  0  0  0  0  0  0
   -3.9745   -3.1748   -0.0538 H   0  0  0  0  0  0  0  0  0  0  0  0
   -2.4245   -2.2537    1.0882 C   0  0  0  0  0  0  0  0  0  0  0  0
   -1.5805   -2.7478    1.8242 O   0  0  0  0  0  0  0  0  0  0  0  0
   -2.2045   -1.1637    0.3562 N   0  0  0  0  0  0  0  0  0  0  0  0
   -2.9595   -0.7907   -0.2008 H   0  0  0  0  0  0  0  0  0  0  0  0
   -0.9485   -0.4087    0.3482 C   0  0  1  0  0  0  0  0  0  0  0  0
   -0.1408   -1.0795    0.0507 H   0  0  0  0  0  0  0  0  0  0  0  0
   -1.0432    0.7243   -0.6879 C   0  0  0  0  0  0  0  0  0  0  0  0
   -0.1013    1.2746   -0.6996 H   0  0  0  0  0  0  0  0  0  0  0  0
   -1.1795    0.2875   -1.6784 H   0  0  0  0  0  0  0  0  0  0  0  0
   -2.1618    1.7127   -0.4185 C   0  0  0  0  0  0  0  0  0  0  0  0
   -3.4459    1.2573   -0.0640 C   0  0  0  0  0  0  0  0  0  0  0  0
   -3.6485    0.1973   -0.0039 H   0  0  0  0  0  0  0  0  0  0  0  0
   -4.4675    2.1809    0.2248 C   0  0  0  0  0  0  0  0  0  0  0  0
   -5.4535    1.8291    0.4942 H   0  0  0  0  0  0  0  0  0  0  0  0
   -4.2068    3.5602    0.1615 C   0  0  0  0  0  0  0  0  0  0  0  0
   -4.9924    4.2697    0.3811 H   0  0  0  0  0  0  0  0  0  0  0  0
   -2.9252    4.0186   -0.1938 C   0  0  0  0  0  0  0  0  0  0  0  0
   -2.7261    5.0789   -0.2478 H   0  0  0  0  0  0  0  0  0  0  0  0
   -1.9053    3.0955   -0.4856 C   0  0  0  0  0  0  0  0  0  0  0  0
   -0.9207    3.4494   -0.7621 H   0  0  0  0  0  0  0  0  0  0  0  0
   -0.6196    0.1253    1.7539 C   0  0  0  0  0  0  0  0  0  0  0  0
    0.5216    0.0194    2.2054 O   0  0  0  0  0  0  0  0  0  0  0  0
   -1.6152    0.6924    2.4469 N   0  0  0  0  0  0  0  0  0  0  0  0
   -2.5345    0.6914    2.0318 H   0  0  0  0  0  0  0  0  0  0  0  0
   -1.4720    1.2390    3.7941 C   0  0  0  0  0  0  0  0  0  0  0  0
   -0.6345    1.9391    3.8219 H   0  0  0  0  0  0  0  0  0  0  0  0
   -2.3844    1.7580    4.0892 H   0  0  0  0  0  0  0  0  0  0  0  0
   -1.2733    0.4298    4.4995 H   0  0  0  0  0  0  0  0  0  0  0  0
  5  6  2  0  0  0  0
  5  7  1  0  0  0  0
  2  3  1  0  0  0  0
  2  4  1  0  0  0  0
  2  5  1  0  0  0  0
  1  2  1  0  0  0  0
 25 26  2  0  0  0  0
 25 27  1  0  0  0  0
 23 24  1  0  0  0  0
 21 22  1  0  0  0  0
 21 23  2  0  0  0  0
 19 20  1  0  0  0  0
 19 21  1  0  0  0  0
 17 18  1  0  0  0  0
 17 19  2  0  0  0  0
 15 16  1  0  0  0  0
 15 17  1  0  0  0  0
 14 15  2  0  0  0  0
 14 23  1  0  0  0  0
 11 12  1  0  0  0  0
 11 13  1  0  0  0  0
 11 14  1  0  0  0  0
  9 10  1  0  0  0  0
  9 11  1  0  0  0  0
  9 25  1  0  0  0  0
  7  8  1  0  0  0  0
  7  9  1  0  0  0  0
 29 30  1  0  0  0  0
 29 31  1  0  0  0  0
 29 32  1  0  0  0  0
 27 28  1  0  0  0  0
 27 29  1  0  0  0  0
M  END
$$$$
default_name
  -OEChem-02102213163D

 32 32  0     1  0  0  0  0  0999 V2000
   -3.8405   -3.7518    1.6252 H   0  0  0  0  0  0  0  0  0  0  0  0
   -3.7965   -2.8768    0.9782 C   0  0  0  0  0  0  0  0  0  0  0  0
   -4.5465   -2.1527    1.2902 H   0  0  0  0  0  0  0  0  0  0  0  0
   -3.9745   -3.1748   -0.0538 H   0  0  0  0  0  0  0  0  0  0  0  0
   -2.4245   -2.2537    1.0882 C   0  0  0  0  0  0  0  0  0  0  0  0
   -1.5805   -2.7478    1.8242 O   0  0  0  0  0  0  0  0  0  0  0  0
   -2.2045   -1.1637    0.3562 N   0  0  0  0  0  0  0  0  0  0  0  0
   -2.9595   -0.7907   -0.2008 H   0  0  0  0  0  0  0  0  0  0  0  0
   -0.9485   -0.4087    0.3482 C   0  0  1  0  0  0  0  0  0  0  0  0
   -0.1408   -1.0795    0.0507 H   0  0  0  0  0  0  0  0  0  0  0  0
   -1.0432    0.7243   -0.6879 C   0  0  0  0  0  0  0  0  0  0  0  0
   -0.1013    1.2746   -0.6996 H   0  0  0  0  0  0  0  0  0  0  0  0
   -1.1795    0.2875   -1.6784 H   0  0  0  0  0  0  0  0  0  0  0  0
   -2.1618    1.7127   -0.4185 C   0  0  0  0  0  0  0  0  0  0  0  0
   -3.3394    1.2973    0.2317 C   0  0  0  0  0  0  0  0  0  0  0  0
   -3.4628    0.2638    0.5231 H   0  0  0  0  0  0  0  0  0  0  0  0
   -4.3552    2.2287    0.5152 C   0  0  0  0  0  0  0  0  0  0  0  0
   -5.2597    1.9072    1.0122 H   0  0  0  0  0  0  0  0  0  0  0  0
   -4.1950    3.5764    0.1510 C   0  0  0  0  0  0  0  0  0  0  0  0
   -4.9766    4.2915    0.3667 H   0  0  0  0  0  0  0  0  0  0  0  0
   -3.0202    3.9945   -0.5001 C   0  0  0  0  0  0  0  0  0  0  0  0
   -2.8992    5.0294   -0.7850 H   0  0  0  0  0  0  0  0  0  0  0  0
   -2.0066    3.0629   -0.7862 C   0  0  0  0  0  0  0  0  0  0  0  0
   -1.1047    3.3851   -1.2902 H   0  0  0  0  0  0  0  0  0  0  0  0
   -0.6196    0.1253    1.7539 C   0  0  0  0  0  0  0  0  0  0  0  0
    0.5216    0.0194    2.2054 O   0  0  0  0  0  0  0  0  0  0  0  0
   -1.6152    0.6924    2.4469 N   0  0  0  0  0  0  0  0  0  0  0  0
   -2.5345    0.6914    2.0318 H   0  0  0  0  0  0  0  0  0  0  0  0
   -1.4720    1.2390    3.7941 C   0  0  0  0  0  0  0  0  0  0  0  0
   -0.6345    1.9391    3.8219 H   0  0  0  0  0  0  0  0  0  0  0  0
   -2.3844    1.7580    4.0892 H   0  0  0  0  0  0  0  0  0  0  0  0
   -1.2733    0.4298    4.4995 H   0  0  0  0  0  0  0  0  0  0  0  0
  5  6  2  0  0  0  0
  5  7  1  0  0  0  0
  2  3  1  0  0  0  0
  2  4  1  0  0  0  0
  2  5  1  0  0  0  0
  1  2  1  0  0  0  0
 25 26  2  0  0  0  0
 25 27  1  0  0  0  0
 23 24  1  0  0  0  0
 21 22  1  0  0  0  0
 21 23  2  0  0  0  0
 19 20  1  0  0  0  0
 19 21  1  0  0  0  0
 17 18  1  0  0  0  0
 17 19  2  0  0  0  0
 15 16  1  0  0  0  0
 15 17  1  0  0  0  0
 14 15  2  0  0  0  0
 14 23  1  0  0  0  0
 11 12  1  0  0  0  0
 11 13  1  0  0  0  0
 11 14  1  0  0  0  0
  9 10  1  0  0  0  0
  9 11  1  0  0  0  0
  9 25  1  0  0  0  0
  7  8  1  0  0  0  0
  7  9  1  0  0  0  0
 29 30  1  0  0  0  0
 29 31  1  0  0  0  0
 29 32  1  0  0  0  0
 27 28  1  0  0  0  0
 27 29  1  0  0  0  0
M  END
$$$$
default_name
  -OEChem-02102213163D

 32 32  0     1  0  0  0  0  0999 V2000
   -3.8405   -3.7518    1.6252 H   0  0  0  0  0  0  0  0  0  0  0  0
   -3.7965   -2.8768    0.9782 C   0  0  0  0  0  0  0  0  0  0  0  0
   -4.5465   -2.1527    1.2902 H   0  0  0  0  0  0  0  0  0  0  0  0
   -3.9745   -3.1748   -0.0538 H   0  0  0  0  0  0  0  0  0  0  0  0
   -2.4245   -2.2537    1.0882 C   0  0  0  0  0  0  0  0  0  0  0  0
   -1.5805   -2.7478    1.8242 O   0  0  0  0  0  0  0  0  0  0  0  0
   -2.2045   -1.1637    0.3562 N   0  0  0  0  0  0  0  0  0  0  0  0
   -2.9595   -0.7907   -0.2008 H   0  0  0  0  0  0  0  0  0  0  0  0
   -0.9485   -0.4087    0.3482 C   0  0  1  0  0  0  0  0  0  0  0  0
   -0.1408   -1.0795    0.0507 H   0  0  0  0  0  0  0  0  0  0  0  0
   -1.0432    0.7243   -0.6879 C   0  0  0  0  0  0  0  0  0  0  0  0
   -0.1013    1.2746   -0.6996 H   0  0  0  0  0  0  0  0  0  0  0  0
   -1.1795    0.2875   -1.6784 H   0  0  0  0  0  0  0  0  0  0  0  0
   -2.1618    1.7127   -0.4185 C   0  0  0  0  0  0  0  0  0  0  0  0
   -3.1884    1.3973    0.4918 C   0  0  0  0  0  0  0  0  0  0  0  0
   -3.1977    0.4371    0.9880 H   0  0  0  0  0  0  0  0  0  0  0  0
   -4.2001    2.3355    0.7676 C   0  0  0  0  0  0  0  0  0  0  0  0
   -4.9888    2.0903    1.4649 H   0  0  0  0  0  0  0  0  0  0  0  0
   -4.1861    3.5906    0.1358 C   0  0  0  0  0  0  0  0  0  0  0  0
   -4.9647    4.3106    0.3460 H   0  0  0  0  0  0  0  0  0  0  0  0
   -3.1626    3.9085   -0.7754 C   0  0  0  0  0  0  0  0  0  0  0  0
   -3.1548    4.8711   -1.2652 H   0  0  0  0  0  0  0  0  0  0  0  0
   -2.1536    2.9693   -1.0533 C   0  0  0  0  0  0  0  0  0  0  0  0
   -1.3685    3.2138   -1.7571 H   0  0  0  0  0  0  0  0  0  0  0  0
   -0.6196    0.1253    1.7539 C   0  0  0  0  0  0  0  0  0  0  0  0
    0.5216    0.0194    2.2054 O   0  0  0  0  0  0  0  0  0  0  0  0
   -1.6152    0.6924    2.4469 N   0  0  0  0  0  0  0  0  0  0  0  0
   -2.5345    0.6914    2.0318 H   0  0  0  0  0  0  0  0  0  0  0  0
   -1.4720    1.2390    3.7941 C   0  0  0  0  0  0  0  0  0  0  0  0
   -0.6345    1.9391    3.8219 H   0  0  0  0  0  0  0  0  0  0  0  0
   -2.3844    1.7580    4.0892 H   0  0  0  0  0  0  0  0  0  0  0  0
   -1.2733    0.4298    4.4995 H   0  0  0  0  0  0  0  0  0  0  0  0
  5  6  2  0  0  0  0
  5  7  1  0  0  0  0
  2  3  1  0  0  0  0
  2  4  1  0  0  0  0
  2  5  1  0  0  0  0
  1  2  1  0  0  0  0
 25 26  2  0  0  0  0
 25 27  1  0  0  0  0
 23 24  1  0  0  0  0
 21 22  1  0  0  0  0
 21 23  2  0  0  0  0
 19 20  1  0  0  0  0
 19 21  1  0  0  0  0
 17 18  1  0  0  0  0
 17 19  2  0  0  0  0
 15 16  1  0  0  0  0
 15 17  1  0  0  0  0
 14 15  2  0  0  0  0
 14 23  1  0  0  0  0
 11 12  1  0  0  0  0
 11 13  1  0  0  0  0
 11 14  1  0  0  0  0
  9 10  1  0  0  0  0
  9 11  1  0  0  0  0
  9 25  1  0  0  0  0
  7  8  1  0  0  0  0
  7  9  1  0  0  0  0
 29 30  1  0  0  0  0
 29 31  1  0  0  0  0
 29 32  1  0  0  0  0
 27 28  1  0  0  0  0
 27 29  1  0  0  0  0
M  END
$$$$
default_name
  -OEChem-02102213163D

 32 32  0     1  0  0  0  0  0999 V2000
   -3.8405   -3.7518    1.6252 H   0  0  0  0  0  0  0  0  0  0  0  0
   -3.7965   -2.8768    0.9782 C   0  0  0  0  0  0  0  0  0  0  0  0
   -4.5465   -2.1527    1.2902 H   0  0  0  0  0  0  0  0  0  0  0  0
   -3.9745   -3.1748   -0.0538 H   0  0  0  0  0  0  0  0  0  0  0  0
   -2.4245   -2.2537    1.0882 C   0  0  0  0  0  0  0  0  0  0  0  0
   -1.5805   -2.7478    1.8242 O   0  0  0  0  0  0  0  0  0  0  0  0
   -2.2045   -1.1637    0.3562 N   0  0  0  0  0  0  0  0  0  0  0  0
   -2.9595   -0.7907   -0.2008 H   0  0  0  0  0  0  0  0  0  0  0  0
   -0.9485   -0.4087    0.3482 C   0  0  1  0  0  0  0  0  0  0  0  0
   -0.1408   -1.0795    0.0507 H   0  0  0  0  0  0  0  0  0  0  0  0
   -1.0432    0.7243   -0.6879 C   0  0  0  0  0  0  0  0  0  0  0  0
   -0.1013    1.2746   -0.6996 H   0  0  0  0  0  0  0  0  0  0  0  0
   -1.1795    0.2875   -1.6784 H   0  0  0  0  0  0  0  0  0  0  0  0
   -2.1618    1.7127   -0.4185 C   0  0  0  0  0  0  0  0  0  0  0  0
   -3.0033    1.5504    0.6984 C   0  0  0  0  0  0  0  0  0  0  0  0
   -2.8711    0.7054    1.3594 H   0  0  0  0  0  0  0  0  0  0  0  0
   -4.0125    2.4940    0.9649 C   0  0  0  0  0  0  0  0  0  0  0  0
   -4.6592    2.3661    1.8216 H   0  0  0  0  0  0  0  0  0  0  0  0
   -4.1808    3.6019    0.1169 C   0  0  0  0  0  0  0  0  0  0  0  0
   -4.9576    4.3256    0.3204 H   0  0  0  0  0  0  0  0  0  0  0  0
   -3.3426    3.7663   -1.0008 C   0  0  0  0  0  0  0  0  0  0  0  0
   -3.4753    4.6149   -1.6557 H   0  0  0  0  0  0  0  0  0  0  0  0
   -2.3363    2.8213   -1.2687 C   0  0  0  0  0  0  0  0  0  0  0  0
   -1.6942    2.9471   -2.1308 H   0  0  0  0  0  0  0  0  0  0  0  0
   -0.6196    0.1253    1.7539 C   0  0  0  0  0  0  0  0  0  0  0  0
    0.5216    0.0194    2.2054 O   0  0  0  0  0  0  0  0  0  0  0  0
   -1.6152    0.6924    2.4469 N   0  0  0  0  0  0  0  0  0  0  0  0
   -2.5345    0.6914    2.0318 H   0  0  0  0  0  0  0  0  0  0  0  0
   -1.4720    1.2390    3.7941 C   0  0  0  0  0  0  0  0  0  0  0  0
   -0.6345    1.9391    3.8219 H   0  0  0  0  0  0  0  0  0  0  0  0
   -2.3844    1.7580    4.0892 H   0  0  0  0  0  0  0  0  0  0  0  0
   -1.2733    0.4298    4.4995 H   0  0  0  0  0  0  0  0  0  0  0  0
  5  6  2  0  0  0  0
  5  7  1  0  0  0  0
  2  3  1  0  0  0  0
  2  4  1  0  0  0  0
  2  5  1  0  0  0  0
  1  2  1  0  0  0  0
 25 26  2  0  0  0  0
 25 27  1  0  0  0  0
 23 24  1  0  0  0  0
 21 22  1  0  0  0  0
 21 23  2  0  0  0  0
 19 20  1  0  0  0  0
 19 21  1  0  0  0  0
 17 18  1  0  0  0  0
 17 19  2  0  0  0  0
 15 16  1  0  0  0  0
 15 17  1  0  0  0  0
 14 15  2  0  0  0  0
 14 23  1  0  0  0  0
 11 12  1  0  0  0  0
 11 13  1  0  0  0  0
 11 14  1  0  0  0  0
  9 10  1  0  0  0  0
  9 11  1  0  0  0  0
  9 25  1  0  0  0  0
  7  8  1  0  0  0  0
  7  9  1  0  0  0  0
 29 30  1  0  0  0  0
 29 31  1  0  0  0  0
 29 32  1  0  0  0  0
 27 28  1  0  0  0  0
 27 29  1  0  0  0  0
M  END
$$$$
default_name
  -OEChem-02102213163D

 32 32  0     1  0  0  0  0  0999 V2000
   -3.8405   -3.7518    1.6252 H   0  0  0  0  0  0  0  0  0  0  0  0
   -3.7965   -2.8768    0.9782 C   0  0  0  0  0  0  0  0  0  0  0  0
   -4.5465   -2.1527    1.2902 H   0  0  0  0  0  0  0  0  0  0  0  0
   -3.9745   -3.1748   -0.0538 H   0  0  0  0  0  0  0  0  0  0  0  0
   -2.4245   -2.2537    1.0882 C   0  0  0  0  0  0  0  0  0  0  0  0
   -1.5805   -2.7478    1.8242 O   0  0  0  0  0  0  0  0  0  0  0  0
   -2.2045   -1.1637    0.3562 N   0  0  0  0  0  0  0  0  0  0  0  0
   -2.9595   -0.7907   -0.2008 H   0  0  0  0  0  0  0  0  0  0  0  0
   -0.9485   -0.4087    0.3482 C   0  0  1  0  0  0  0  0  0  0  0  0
   -0.1408   -1.0795    0.0507 H   0  0  0  0  0  0  0  0  0  0  0  0
   -1.0432    0.7243   -0.6879 C   0  0  0  0  0  0  0  0  0  0  0  0
   -0.1013    1.2746   -0.6996 H   0  0  0  0  0  0  0  0  0  0  0  0
   -1.1795    0.2875   -1.6784 H   0  0  0  0  0  0  0  0  0  0  0  0
   -2.1618    1.7127   -0.4185 C   0  0  0  0  0  0  0  0  0  0  0  0
   -2.7968    1.7462    0.8376 C   0  0  0  0  0  0  0  0  0  0  0  0
   -2.5054    1.0505    1.6118 H   0  0  0  0  0  0  0  0  0  0  0  0
   -3.8053    2.6934    1.0936 C   0  0  0  0  0  0  0  0  0  0  0  0
   -4.2934    2.7157    2.0578 H   0  0  0  0  0  0  0  0  0  0  0  0
   -4.1793    3.6093    0.0957 C   0  0  0  0  0  0  0  0  0  0  0  0
   -4.9558    4.3355    0.2916 H   0  0  0  0  0  0  0  0  0  0  0  0
   -3.5479    3.5776   -1.1610 C   0  0  0  0  0  0  0  0  0  0  0  0
   -3.8390    4.2780   -1.9300 H   0  0  0  0  0  0  0  0  0  0  0  0
   -2.5423    2.6287   -1.4177 C   0  0  0  0  0  0  0  0  0  0  0  0
   -2.0596    2.6031   -2.3860 H   0  0  0  0  0  0  0  0  0  0  0  0
   -0.6196    0.1253    1.7539 C   0  0  0  0  0  0  0  0  0  0  0  0
    0.5216    0.0194    2.2054 O   0  0  0  0  0  0  0  0  0  0  0  0
   -1.6152    0.6924    2.4469 N   0  0  0  0  0  0  0  0  0  0  0  0
   -2.5345    0.6914    2.0318 H   0  0  0  0  0  0  0  0  0  0  0  0
   -1.4720    1.2390    3.7941 C   0  0  0  0  0  0  0  0  0  0  0  0
   -0.6345    1.9391    3.8219 H   0  0  0  0  0  0  0  0  0  0  0  0
   -2.3844    1.7580    4.0892 H   0  0  0  0  0  0  0  0  0  0  0  0
   -1.2733    0.4298    4.4995 H   0  0  0  0  0  0  0  0  0  0  0  0
  5  6  2  0  0  0  0
  5  7  1  0  0  0  0
  2  3  1  0  0  0  0
  2  4  1  0  0  0  0
  2  5  1  0  0  0  0
  1  2  1  0  0  0  0
 25 26  2  0  0  0  0
 25 27  1  0  0  0  0
 23 24  1  0  0  0  0
 21 22  1  0  0  0  0
 21 23  2  0  0  0  0
 19 20  1  0  0  0  0
 19 21  1  0  0  0  0
 17 18  1  0  0  0  0
 17 19  2  0  0  0  0
 15 16  1  0  0  0  0
 15 17  1  0  0  0  0
 14 15  2  0  0  0  0
 14 23  1  0  0  0  0
 11 12  1  0  0  0  0
 11 13  1  0  0  0  0
 11 14  1  0  0  0  0
  9 10  1  0  0  0  0
  9 11  1  0  0  0  0
  9 25  1  0  0  0  0
  7  8  1  0  0  0  0
  7  9  1  0  0  0  0
 29 30  1  0  0  0  0
 29 31  1  0  0  0  0
 29 32  1  0  0  0  0
 27 28  1  0  0  0  0
 27 29  1  0  0  0  0
M  END
$$$$
default_name
  -OEChem-02102213163D

 32 32  0     1  0  0  0  0  0999 V2000
   -3.8405   -3.7518    1.6252 H   0  0  0  0  0  0  0  0  0  0  0  0
   -3.7965   -2.8768    0.9782 C   0  0  0  0  0  0  0  0  0  0  0  0
   -4.5465   -2.1527    1.2902 H   0  0  0  0  0  0  0  0  0  0  0  0
   -3.9745   -3.1748   -0.0538 H   0  0  0  0  0  0  0  0  0  0  0  0
   -2.4245   -2.2537    1.0882 C   0  0  0  0  0  0  0  0  0  0  0  0
   -1.5805   -2.7478    1.8242 O   0  0  0  0  0  0  0  0  0  0  0  0
   -2.2045   -1.1637    0.3562 N   0  0  0  0  0  0  0  0  0  0  0  0
   -2.9595   -0.7907   -0.2008 H   0  0  0  0  0  0  0  0  0  0  0  0
   -0.9485   -0.4087    0.3482 C   0  0  1  0  0  0  0  0  0  0  0  0
   -0.1408   -1.0795    0.0507 H   0  0  0  0  0  0  0  0  0  0  0  0
   -1.0432    0.7243   -0.6879 C   0  0  0  0  0  0  0  0  0  0  0  0
   -0.1013    1.2746   -0.6996 H   0  0  0  0  0  0  0  0  0  0  0  0
   -1.1795    0.2875   -1.6784 H   0  0  0  0  0  0  0  0  0  0  0  0
   -2.1618    1.7127   -0.4185 C   0  0  0  0  0  0  0  0  0  0  0  0
   -2.5828    1.9714    0.8998 C   0  0  0  0  0  0  0  0  0  0  0  0
   -2.1254    1.4488    1.7280 H   0  0  0  0  0  0  0  0  0  0  0  0
   -3.5927    2.9201    1.1449 C   0  0  0  0  0  0  0  0  0  0  0  0
   -3.9162    3.1154    2.1576 H   0  0  0  0  0  0  0  0  0  0  0  0
   -4.1818    3.6126    0.0734 C   0  0  0  0  0  0  0  0  0  0  0  0
   -4.9594    4.3397    0.2616 H   0  0  0  0  0  0  0  0  0  0  0  0
   -3.7645    3.3553   -1.2452 C   0  0  0  0  0  0  0  0  0  0  0  0
   -4.2211    3.8836   -2.0693 H   0  0  0  0  0  0  0  0  0  0  0  0
   -2.7576    2.4048   -1.4901 C   0  0  0  0  0  0  0  0  0  0  0  0
   -2.4398    2.2054   -2.5052 H   0  0  0  0  0  0  0  0  0  0  0  0
   -0.6196    0.1253    1.7539 C   0  0  0  0  0  0  0  0  0  0  0  0
    0.5216    0.0194    2.2054 O   0  0  0  0  0  0  0  0  0  0  0  0
   -1.6152    0.6924    2.4469 N   0  0  0  0  0  0  0  0  0  0  0  0
   -2.5345    0.6914    2.0318 H   0  0  0  0  0  0  0  0  0  0  0  0
   -1.4720    1.2390    3.7941 C   0  0  0  0  0  0  0  0  0  0  0  0
   -0.6345    1.9391    3.8219 H   0  0  0  0  0  0  0  0  0  0  0  0
   -2.3844    1.7580    4.0892 H   0  0  0  0  0  0  0  0  0  0  0  0
   -1.2733    0.4298    4.4995 H   0  0  0  0  0  0  0  0  0  0  0  0
  5  6  2  0  0  0  0
  5  7  1  0  0  0  0
  2  3  1  0  0  0  0
  2  4  1  0  0  0  0
  2  5  1  0  0  0  0
  1  2  1  0  0  0  0
 25 26  2  0  0  0  0
 25 27  1  0  0  0  0
 23 24  1  0  0  0  0
 21 22  1  0  0  0  0
 21 23  2  0  0  0  0
 19 20  1  0  0  0  0
 19 21  1  0  0  0  0
 17 18  1  0  0  0  0
 17 19  2  0  0  0  0
 15 16  1  0  0  0  0
 15 17  1  0  0  0  0
 14 15  2  0  0  0  0
 14 23  1  0  0  0  0
 11 12  1  0  0  0  0
 11 13  1  0  0  0  0
 11 14  1  0  0  0  0
  9 10  1  0  0  0  0
  9 11  1  0  0  0  0
  9 25  1  0  0  0  0
  7  8  1  0  0  0  0
  7  9  1  0  0  0  0
 29 30  1  0  0  0  0
 29 31  1  0  0  0  0
 29 32  1  0  0  0  0
 27 28  1  0  0  0  0
 27 29  1  0  0  0  0
M  END
$$$$
default_name
  -OEChem-02102213163D

 32 32  0     1  0  0  0  0  0999 V2000
   -3.8405   -3.7518    1.6252 H   0  0  0  0  0  0  0  0  0  0  0  0
   -3.7965   -2.8768    0.9782 C   0  0  0  0  0  0  0  0  0  0  0  0
   -4.5465   -2.1527    1.2902 H   0  0  0  0  0  0  0  0  0  0  0  0
   -3.9745   -3.1748   -0.0538 H   0  0  0  0  0  0  0  0  0  0  0  0
   -2.4245   -2.2537    1.0882 C   0  0  0  0  0  0  0  0  0  0  0  0
   -1.5805   -2.7478    1.8242 O   0  0  0  0  0  0  0  0  0  0  0  0
   -2.2045   -1.1637    0.3562 N   0  0  0  0  0  0  0  0  0  0  0  0
   -2.9595   -0.7907   -0.2008 H   0  0  0  0  0  0  0  0  0  0  0  0
   -0.9485   -0.4087    0.3482 C   0  0  1  0  0  0  0  0  0  0  0  0
   -0.1408   -1.0795    0.0507 H   0  0  0  0  0  0  0  0  0  0  0  0
   -1.0432    0.7243   -0.6879 C   0  0  0  0  0  0  0  0  0  0  0  0
   -0.1013    1.2746   -0.6996 H   0  0  0  0  0  0  0  0  0  0  0  0
   -1.1795    0.2875   -1.6784 H   0  0  0  0  0  0  0  0  0  0  0  0
   -2.1618    1.7127   -0.4185 C   0  0  0  0  0  0  0  0  0  0  0  0
   -2.3759    2.2107    0.8808 C   0  0  0  0  0  0  0  0  0  0  0  0
   -1.7571    1.8733    1.7002 H   0  0  0  0  0  0  0  0  0  0  0  0
   -3.3891    3.1586    1.1153 C   0  0  0  0  0  0  0  0  0  0  0  0
   -3.5535    3.5378    2.1141 H   0  0  0  0  0  0  0  0  0  0  0  0
   -4.1881    3.6113    0.0517 C   0  0  0  0  0  0  0  0  0  0  0  0
   -4.9680    4.3378    0.2324 H   0  0  0  0  0  0  0  0  0  0  0  0
   -3.9778    3.1146   -1.2475 C   0  0  0  0  0  0  0  0  0  0  0  0
   -4.5955    3.4584   -2.0642 H   0  0  0  0  0  0  0  0  0  0  0  0
   -2.9674    2.1649   -1.4809 C   0  0  0  0  0  0  0  0  0  0  0  0
   -2.8088    1.7810   -2.4803 H   0  0  0  0  0  0  0  0  0  0  0  0
   -0.6196    0.1253    1.7539 C   0  0  0  0  0  0  0  0  0  0  0  0
    0.5216    0.0194    2.2054 O   0  0  0  0  0  0  0  0  0  0  0  0
   -1.6152    0.6924    2.4469 N   0  0  0  0  0  0  0  0  0  0  0  0
   -2.5345    0.6914    2.0318 H   0  0  0  0  0  0  0  0  0  0  0  0
   -1.4720    1.2390    3.7941 C   0  0  0  0  0  0  0  0  0  0  0  0
   -0.6345    1.9391    3.8219 H   0  0  0  0  0  0  0  0  0  0  0  0
   -2.3844    1.7580    4.0892 H   0  0  0  0  0  0  0  0  0  0  0  0
   -1.2733    0.4298    4.4995 H   0  0  0  0  0  0  0  0  0  0  0  0
  5  6  2  0  0  0  0
  5  7  1  0  0  0  0
  2  3  1  0  0  0  0
  2  4  1  0  0  0  0
  2  5  1  0  0  0  0
  1  2  1  0  0  0  0
 25 26  2  0  0  0  0
 25 27  1  0  0  0  0
 23 24  1  0  0  0  0
 21 22  1  0  0  0  0
 21 23  2  0  0  0  0
 19 20  1  0  0  0  0
 19 21  1  0  0  0  0
 17 18  1  0  0  0  0
 17 19  2  0  0  0  0
 15 16  1  0  0  0  0
 15 17  1  0  0  0  0
 14 15  2  0  0  0  0
 14 23  1  0  0  0  0
 11 12  1  0  0  0  0
 11 13  1  0  0  0  0
 11 14  1  0  0  0  0
  9 10  1  0  0  0  0
  9 11  1  0  0  0  0
  9 25  1  0  0  0  0
  7  8  1  0  0  0  0
  7  9  1  0  0  0  0
 29 30  1  0  0  0  0
 29 31  1  0  0  0  0
 29 32  1  0  0  0  0
 27 28  1  0  0  0  0
 27 29  1  0  0  0  0
M  END
$$$$
default_name
  -OEChem-02102213163D

 32 32  0     1  0  0  0  0  0999 V2000
   -3.8405   -3.7518    1.6252 H   0  0  0  0  0  0  0  0  0  0  0  0
   -3.7965   -2.8768    0.9782 C   0  0  0  0  0  0  0  0  0  0  0  0
   -4.5465   -2.1527    1.2902 H   0  0  0  0  0  0  0  0  0  0  0  0
   -3.9745   -3.1748   -0.0538 H   0  0  0  0  0  0  0  0  0  0  0  0
   -2.4245   -2.2537    1.0882 C   0  0  0  0  0  0  0  0  0  0  0  0
   -1.5805   -2.7478    1.8242 O   0  0  0  0  0  0  0  0  0  0  0  0
   -2.2045   -1.1637    0.3562 N   0  0  0  0  0  0  0  0  0  0  0  0
   -2.9595   -0.7907   -0.2008 H   0  0  0  0  0  0  0  0  0  0  0  0
   -0.9485   -0.4087    0.3482 C   0  0  1  0  0  0  0  0  0  0  0  0
   -0.1408   -1.0795    0.0507 H   0  0  0  0  0  0  0  0  0  0  0  0
   -1.0432    0.7243   -0.6879 C   0  0  0  0  0  0  0  0  0  0  0  0
   -0.1013    1.2746   -0.6996 H   0  0  0  0  0  0  0  0  0  0  0  0
   -1.1795    0.2875   -1.6784 H   0  0  0  0  0  0  0  0  0  0  0  0
   -2.1618    1.7127   -0.4185 C   0  0  0  0  0  0  0  0  0  0  0  0
   -2.1903    2.4477    0.7819 C   0  0  0  0  0  0  0  0  0  0  0  0
   -1.4256    2.2948    1.5302 H   0  0  0  0  0  0  0  0  0  0  0  0
   -3.2083    3.3927    1.0068 C   0  0  0  0  0  0  0  0  0  0  0  0
   -3.2298    3.9542    1.9303 H   0  0  0  0  0  0  0  0  0  0  0  0
   -4.1978    3.6057    0.0321 C   0  0  0  0  0  0  0  0  0  0  0  0
   -4.9813    4.3300    0.2060 H   0  0  0  0  0  0  0  0  0  0  0  0
   -4.1731    2.8718   -1.1678 C   0  0  0  0  0  0  0  0  0  0  0  0
   -4.9367    3.0315   -1.9149 H   0  0  0  0  0  0  0  0  0  0  0  0
   -3.1575    1.9252   -1.3910 C   0  0  0  0  0  0  0  0  0  0  0  0
   -3.1415    1.3588   -2.3131 H   0  0  0  0  0  0  0  0  0  0  0  0
   -0.6196    0.1253    1.7539 C   0  0  0  0  0  0  0  0  0  0  0  0
    0.5216    0.0194    2.2054 O   0  0  0  0  0  0  0  0  0  0  0  0
   -1.6152    0.6924    2.4469 N   0  0  0  0  0  0  0  0  0  0  0  0
   -2.5345    0.6914    2.0318 H   0  0  0  0  0  0  0  0  0  0  0  0
   -1.4720    1.2390    3.7941 C   0  0  0  0  0  0  0  0  0  0  0  0
   -0.6345    1.9391    3.8219 H   0  0  0  0  0  0  0  0  0  0  0  0
   -2.3844    1.7580    4.0892 H   0  0  0  0  0  0  0  0  0  0  0  0
   -1.2733    0.4298    4.4995 H   0  0  0  0  0  0  0  0  0  0  0  0
  5  6  2  0  0  0  0
  5  7  1  0  0  0  0
  2  3  1  0  0  0  0
  2  4  1  0  0  0  0
  2  5  1  0  0  0  0
  1  2  1  0  0  0  0
 25 26  2  0  0  0  0
 25 27  1  0  0  0  0
 23 24  1  0  0  0  0
 21 22  1  0  0  0  0
 21 23  2  0  0  0  0
 19 20  1  0  0  0  0
 19 21  1  0  0  0  0
 17 18  1  0  0  0  0
 17 19  2  0  0  0  0
 15 16  1  0  0  0  0
 15 17  1  0  0  0  0
 14 15  2  0  0  0  0
 14 23  1  0  0  0  0
 11 12  1  0  0  0  0
 11 13  1  0  0  0  0
 11 14  1  0  0  0  0
  9 10  1  0  0  0  0
  9 11  1  0  0  0  0
  9 25  1  0  0  0  0
  7  8  1  0  0  0  0
  7  9  1  0  0  0  0
 29 30  1  0  0  0  0
 29 31  1  0  0  0  0
 29 32  1  0  0  0  0
 27 28  1  0  0  0  0
 27 29  1  0  0  0  0
M  END
$$$$
default_name
  -OEChem-02102213163D

 32 32  0     1  0  0  0  0  0999 V2000
   -3.8405   -3.7518    1.6252 H   0  0  0  0  0  0  0  0  0  0  0  0
   -3.7965   -2.8768    0.9782 C   0  0  0  0  0  0  0  0  0  0  0  0
   -4.5465   -2.1527    1.2902 H   0  0  0  0  0  0  0  0  0  0  0  0
   -3.9745   -3.1748   -0.0538 H   0  0  0  0  0  0  0  0  0  0  0  0
   -2.4245   -2.2537    1.0882 C   0  0  0  0  0  0  0  0  0  0  0  0
   -1.5805   -2.7478    1.8242 O   0  0  0  0  0  0  0  0  0  0  0  0
   -2.2045   -1.1637    0.3562 N   0  0  0  0  0  0  0  0  0  0  0  0
   -2.9595   -0.7907   -0.2008 H   0  0  0  0  0  0  0  0  0  0  0  0
   -0.9485   -0.4087    0.3482 C   0  0  1  0  0  0  0  0  0  0  0  0
   -0.1408   -1.0795    0.0507 H   0  0  0  0  0  0  0  0  0  0  0  0
   -1.0432    0.7243   -0.6879 C   0  0  0  0  0  0  0  0  0  0  0  0
   -0.1013    1.2746   -0.6996 H   0  0  0  0  0  0  0  0  0  0  0  0
   -1.1795    0.2875   -1.6784 H   0  0  0  0  0  0  0  0  0  0  0  0
   -2.1618    1.7127   -0.4185 C   0  0  0  0  0  0  0  0  0  0  0  0
   -2.0387    2.6663    0.6098 C   0  0  0  0  0  0  0  0  0  0  0  0
   -1.1534    2.6849    1.2297 H   0  0  0  0  0  0  0  0  0  0  0  0
   -3.0628    3.6064    0.8269 C   0  0  0  0  0  0  0  0  0  0  0  0
   -2.9674    4.3362    1.6187 H   0  0  0  0  0  0  0  0  0  0  0  0
   -4.2103    3.5961    0.0158 C   0  0  0  0  0  0  0  0  0  0  0  0
   -4.9981    4.3169    0.1842 H   0  0  0  0  0  0  0  0  0  0  0  0
   -4.3372    2.6435   -1.0116 C   0  0  0  0  0  0  0  0  0  0  0  0
   -5.2215    2.6320   -1.6316 H   0  0  0  0  0  0  0  0  0  0  0  0
   -3.3150    1.7020   -1.2262 C   0  0  0  0  0  0  0  0  0  0  0  0
   -3.4153    0.9676   -2.0148 H   0  0  0  0  0  0  0  0  0  0  0  0
   -0.6196    0.1253    1.7539 C   0  0  0  0  0  0  0  0  0  0  0  0
    0.5216    0.0194    2.2054 O   0  0  0  0  0  0  0  0  0  0  0  0
   -1.6152    0.6924    2.4469 N   0  0  0  0  0  0  0  0  0  0  0  0
   -2.5345    0.6914    2.0318 H   0  0  0  0  0  0  0  0  0  0  0  0
   -1.4720    1.2390    3.7941 C   0  0  0  0  0  0  0  0  0  0  0  0
   -0.6345    1.9391    3.8219 H   0  0  0  0  0  0  0  0  0  0  0  0
   -2.3844    1.7580    4.0892 H   0  0  0  0  0  0  0  0  0  0  0  0
   -1.2733    0.4298    4.4995 H   0  0  0  0  0  0  0  0  0  0  0  0
  5  6  2  0  0  0  0
  5  7  1  0  0  0  0
  2  3  1  0  0  0  0
  2  4  1  0  0  0  0
  2  5  1  0  0  0  0
  1  2  1  0  0  0  0
 25 26  2  0  0  0  0
 25 27  1  0  0  0  0
 23 24  1  0  0  0  0
 21 22  1  0  0  0  0
 21 23  2  0  0  0  0
 19 20  1  0  0  0  0
 19 21  1  0  0  0  0
 17 18  1  0  0  0  0
 17 19  2  0  0  0  0
 15 16  1  0  0  0  0
 15 17  1  0  0  0  0
 14 15  2  0  0  0  0
 14 23  1  0  0  0  0
 11 12  1  0  0  0  0
 11 13  1  0  0  0  0
 11 14  1  0  0  0  0
  9 10  1  0  0  0  0
  9 11  1  0  0  0  0
  9 25  1  0  0  0  0
  7  8  1  0  0  0  0
  7  9  1  0  0  0  0
 29 30  1  0  0  0  0
 29 31  1  0  0  0  0
 29 32  1  0  0  0  0
 27 28  1  0  0  0  0
 27 29  1  0  0  0  0
M  END
$$$$
default_name
  -OEChem-02102213163D

 32 32  0     1  0  0  0  0  0999 V2000
   -3.8405   -3.7518    1.6252 H   0  0  0  0  0  0  0  0  0  0  0  0
   -3.7965   -2.8768    0.9782 C   0  0  0  0  0  0  0  0  0  0  0  0
   -4.5465   -2.1527    1.2902 H   0  0  0  0  0  0  0  0  0  0  0  0
   -3.9745   -3.1748   -0.0538 H   0  0  0  0  0  0  0  0  0  0  0  0
   -2.4245   -2.2537    1.0882 C   0  0  0  0  0  0  0  0  0  0  0  0
   -1.5805   -2.7478    1.8242 O   0  0  0  0  0  0  0  0  0  0  0  0
   -2.2045   -1.1637    0.3562 N   0  0  0  0  0  0  0  0  0  0  0  0
   -2.9595   -0.7907   -0.2008 H   0  0  0  0  0  0  0  0  0  0  0  0
   -0.9485   -0.4087    0.3482 C   0  0  1  0  0  0  0  0  0  0  0  0
   -0.1408   -1.0795    0.0507 H   0  0  0  0  0  0  0  0  0  0  0  0
   -1.0432    0.7243   -0.6879 C   0  0  0  0  0  0  0  0  0  0  0  0
   -0.1013    1.2746   -0.6996 H   0  0  0  0  0  0  0  0  0  0  0  0
   -1.1795    0.2875   -1.6784 H   0  0  0  0  0  0  0  0  0  0  0  0
   -2.1618    1.7127   -0.4185 C   0  0  0  0  0  0  0  0  0  0  0  0
   -1.9312    2.8516    0.3763 C   0  0  0  0  0  0  0  0  0  0  0  0
   -0.9591    3.0167    0.8190 H   0  0  0  0  0  0  0  0  0  0  0  0
   -2.9624    3.7852    0.5878 C   0  0  0  0  0  0  0  0  0  0  0  0
   -2.7840    4.6577    1.2005 H   0  0  0  0  0  0  0  0  0  0  0  0
   -4.2246    3.5831    0.0041 C   0  0  0  0  0  0  0  0  0  0  0  0
   -5.0175    4.2992    0.1685 H   0  0  0  0  0  0  0  0  0  0  0  0
   -4.4588    2.4453   -0.7894 C   0  0  0  0  0  0  0  0  0  0  0  0
   -5.4305    2.2870   -1.2338 H   0  0  0  0  0  0  0  0  0  0  0  0
   -3.4290    1.5108   -0.9979 C   0  0  0  0  0  0  0  0  0  0  0  0
   -3.6114    0.6341   -1.6059 H   0  0  0  0  0  0  0  0  0  0  0  0
   -0.6196    0.1253    1.7539 C   0  0  0  0  0  0  0  0  0  0  0  0
    0.5216    0.0194    2.2054 O   0  0  0  0  0  0  0  0  0  0  0  0
   -1.6152    0.6924    2.4469 N   0  0  0  0  0  0  0  0  0  0  0  0
   -2.5345    0.6914    2.0318 H   0  0  0  0  0  0  0  0  0  0  0  0
   -1.4720    1.2390    3.7941 C   0  0  0  0  0  0  0  0  0  0  0  0
   -0.6345    1.9391    3.8219 H   0  0  0  0  0  0  0  0  0  0  0  0
   -2.3844    1.7580    4.0892 H   0  0  0  0  0  0  0  0  0  0  0  0
   -1.2733    0.4298    4.4995 H   0  0  0  0  0  0  0  0  0  0  0  0
  5  6  2  0  0  0  0
  5  7  1  0  0  0  0
  2  3  1  0  0  0  0
  2  4  1  0  0  0  0
  2  5  1  0  0  0  0
  1  2  1  0  0  0  0
 25 26  2  0  0  0  0
 25 27  1  0  0  0  0
 23 24  1  0  0  0  0
 21 22  1  0  0  0  0
 21 23  2  0  0  0  0
 19 20  1  0  0  0  0
 19 21  1  0  0  0  0
 17 18  1  0  0  0  0
 17 19  2  0  0  0  0
 15 16  1  0  0  0  0
 15 17  1  0  0  0  0
 14 15  2  0  0  0  0
 14 23  1  0  0  0  0
 11 12  1  0  0  0  0
 11 13  1  0  0  0  0
 11 14  1  0  0  0  0
  9 10  1  0  0  0  0
  9 11  1  0  0  0  0
  9 25  1  0  0  0  0
  7  8  1  0  0  0  0
  7  9  1  0  0  0  0
 29 30  1  0  0  0  0
 29 31  1  0  0  0  0
 29 32  1  0  0  0  0
 27 28  1  0  0  0  0
 27 29  1  0  0  0  0
M  END
$$$$
default_name
  -OEChem-02102213163D

 32 32  0     1  0  0  0  0  0999 V2000
   -3.8405   -3.7518    1.6252 H   0  0  0  0  0  0  0  0  0  0  0  0
   -3.7965   -2.8768    0.9782 C   0  0  0  0  0  0  0  0  0  0  0  0
   -4.5465   -2.1527    1.2902 H   0  0  0  0  0  0  0  0  0  0  0  0
   -3.9745   -3.1748   -0.0538 H   0  0  0  0  0  0  0  0  0  0  0  0
   -2.4245   -2.2537    1.0882 C   0  0  0  0  0  0  0  0  0  0  0  0
   -1.5805   -2.7478    1.8242 O   0  0  0  0  0  0  0  0  0  0  0  0
   -2.2045   -1.1637    0.3562 N   0  0  0  0  0  0  0  0  0  0  0  0
   -2.9595   -0.7907   -0.2008 H   0  0  0  0  0  0  0  0  0  0  0  0
   -0.9485   -0.4087    0.3482 C   0  0  1  0  0  0  0  0  0  0  0  0
   -0.1408   -1.0795    0.0507 H   0  0  0  0  0  0  0  0  0  0  0  0
   -1.0432    0.7243   -0.6879 C   0  0  0  0  0  0  0  0  0  0  0  0
   -0.1013    1.2746   -0.6996 H   0  0  0  0  0  0  0  0  0  0  0  0
   -1.1795    0.2875   -1.6784 H   0  0  0  0  0  0  0  0  0  0  0  0
   -2.1618    1.7127   -0.4185 C   0  0  0  0  0  0  0  0  0  0  0  0
   -1.8753    2.9909    0.0973 C   0  0  0  0  0  0  0  0  0  0  0  0
   -0.8559    3.2678    0.3262 H   0  0  0  0  0  0  0  0  0  0  0  0
   -2.9140    3.9169    0.3058 C   0  0  0  0  0  0  0  0  0  0  0  0
   -2.6922    4.8970    0.7043 H   0  0  0  0  0  0  0  0  0  0  0  0
   -4.2398    3.5677   -0.0024 C   0  0  0  0  0  0  0  0  0  0  0  0
   -5.0380    4.2783    0.1600 H   0  0  0  0  0  0  0  0  0  0  0  0
   -4.5297    2.2907   -0.5165 C   0  0  0  0  0  0  0  0  0  0  0  0
   -5.5493    2.0201   -0.7484 H   0  0  0  0  0  0  0  0  0  0  0  0
   -3.4918    1.3643   -0.7217 C   0  0  0  0  0  0  0  0  0  0  0  0
   -3.7166    0.3810   -1.1141 H   0  0  0  0  0  0  0  0  0  0  0  0
   -0.6196    0.1253    1.7539 C   0  0  0  0  0  0  0  0  0  0  0  0
    0.5216    0.0194    2.2054 O   0  0  0  0  0  0  0  0  0  0  0  0
   -1.6152    0.6924    2.4469 N   0  0  0  0  0  0  0  0  0  0  0  0
   -2.5345    0.6914    2.0318 H   0  0  0  0  0  0  0  0  0  0  0  0
   -1.4720    1.2390    3.7941 C   0  0  0  0  0  0  0  0  0  0  0  0
   -0.6345    1.9391    3.8219 H   0  0  0  0  0  0  0  0  0  0  0  0
   -2.3844    1.7580    4.0892 H   0  0  0  0  0  0  0  0  0  0  0  0
   -1.2733    0.4298    4.4995 H   0  0  0  0  0  0  0  0  0  0  0  0
  5  6  2  0  0  0  0
  5  7  1  0  0  0  0
  2  3  1  0  0  0  0
  2  4  1  0  0  0  0
  2  5  1  0  0  0  0
  1  2  1  0  0  0  0
 25 26  2  0  0  0  0
 25 27  1  0  0  0  0
 23 24  1  0  0  0  0
 21 22  1  0  0  0  0
 21 23  2  0  0  0  0
 19 20  1  0  0  0  0
 19 21  1  0  0  0  0
 17 18  1  0  0  0  0
 17 19  2  0  0  0  0
 15 16  1  0  0  0  0
 15 17  1  0  0  0  0
 14 15  2  0  0  0  0
 14 23  1  0  0  0  0
 11 12  1  0  0  0  0
 11 13  1  0  0  0  0
 11 14  1  0  0  0  0
  9 10  1  0  0  0  0
  9 11  1  0  0  0  0
  9 25  1  0  0  0  0
  7  8  1  0  0  0  0
  7  9  1  0  0  0  0
 29 30  1  0  0  0  0
 29 31  1  0  0  0  0
 29 32  1  0  0  0  0
 27 28  1  0  0  0  0
 27 29  1  0  0  0  0
M  END
$$$$
default_name
  -OEChem-02102213163D

 32 32  0     1  0  0  0  0  0999 V2000
   -3.8405   -3.7518    1.6252 H   0  0  0  0  0  0  0  0  0  0  0  0
   -3.7965   -2.8768    0.9782 C   0  0  0  0  0  0  0  0  0  0  0  0
   -4.5465   -2.1527    1.2902 H   0  0  0  0  0  0  0  0  0  0  0  0
   -3.9745   -3.1748   -0.0538 H   0  0  0  0  0  0  0  0  0  0  0  0
   -2.4245   -2.2537    1.0882 C   0  0  0  0  0  0  0  0  0  0  0  0
   -1.5805   -2.7478    1.8242 O   0  0  0  0  0  0  0  0  0  0  0  0
   -2.2045   -1.1637    0.3562 N   0  0  0  0  0  0  0  0  0  0  0  0
   -2.9595   -0.7907   -0.2008 H   0  0  0  0  0  0  0  0  0  0  0  0
   -0.9485   -0.4087    0.3482 C   0  0  1  0  0  0  0  0  0  0  0  0
   -0.1408   -1.0795    0.0507 H   0  0  0  0  0  0  0  0  0  0  0  0
   -1.0432    0.7243   -0.6879 C   0  0  0  0  0  0  0  0  0  0  0  0
   -0.1013    1.2746   -0.6996 H   0  0  0  0  0  0  0  0  0  0  0  0
   -1.1795    0.2875   -1.6784 H   0  0  0  0  0  0  0  0  0  0  0  0
   -2.1618    1.7127   -0.4185 C   0  0  0  0  0  0  0  0  0  0  0  0
   -1.8748    3.0748   -0.2083 C   0  0  0  0  0  0  0  0  0  0  0  0
   -0.8509    3.4211   -0.2152 H   0  0  0  0  0  0  0  0  0  0  0  0
   -2.9209    3.9925    0.0001 C   0  0  0  0  0  0  0  0  0  0  0  0
   -2.6981    5.0376    0.1639 H   0  0  0  0  0  0  0  0  0  0  0  0
   -4.2548    3.5508   -0.0032 C   0  0  0  0  0  0  0  0  0  0  0  0
   -5.0583    4.2555    0.1593 H   0  0  0  0  0  0  0  0  0  0  0  0
   -4.5450    2.1901   -0.2114 C   0  0  0  0  0  0  0  0  0  0  0  0
   -5.5700    1.8495   -0.2086 H   0  0  0  0  0  0  0  0  0  0  0  0
   -3.4992    1.2727   -0.4163 C   0  0  0  0  0  0  0  0  0  0  0  0
   -3.7236    0.2256   -0.5731 H   0  0  0  0  0  0  0  0  0  0  0  0
   -0.6196    0.1253    1.7539 C   0  0  0  0  0  0  0  0  0  0  0  0
    0.5216    0.0194    2.2054 O   0  0  0  0  0  0  0  0  0  0  0  0
   -1.6152    0.6924    2.4469 N   0  0  0  0  0  0  0  0  0  0  0  0
   -2.5345    0.6914    2.0318 H   0  0  0  0  0  0  0  0  0  0  0  0
   -1.4720    1.2390    3.7941 C   0  0  0  0  0  0  0  0  0  0  0  0
   -0.6345    1.9391    3.8219 H   0  0  0  0  0  0  0  0  0  0  0  0
   -2.3844    1.7580    4.0892 H   0  0  0  0  0  0  0  0  0  0  0  0
   -1.2733    0.4298    4.4995 H   0  0  0  0  0  0  0  0  0  0  0  0
  5  6  2  0  0  0  0
  5  7  1  0  0  0  0
  2  3  1  0  0  0  0
  2  4  1  0  0  0  0
  2  5  1  0  0  0  0
  1  2  1  0  0  0  0
 25 26  2  0  0  0  0
 25 27  1  0  0  0  0
 23 24  1  0  0  0  0
 21 22  1  0  0  0  0
 21 23  2  0  0  0  0
 19 20  1  0  0  0  0
 19 21  1  0  0  0  0
 17 18  1  0  0  0  0
 17 19  2  0  0  0  0
 15 16  1  0  0  0  0
 15 17  1  0  0  0  0
 14 15  2  0  0  0  0
 14 23  1  0  0  0  0
 11 12  1  0  0  0  0
 11 13  1  0  0  0  0
 11 14  1  0  0  0  0
  9 10  1  0  0  0  0
  9 11  1  0  0  0  0
  9 25  1  0  0  0  0
  7  8  1  0  0  0  0
  7  9  1  0  0  0  0
 29 30  1  0  0  0  0
 29 31  1  0  0  0  0
 29 32  1  0  0  0  0
 27 28  1  0  0  0  0
 27 29  1  0  0  0  0
M  END
$$$$
default_name
  -OEChem-02102213163D

 32 32  0     1  0  0  0  0  0999 V2000
   -3.8405   -3.7518    1.6252 H   0  0  0  0  0  0  0  0  0  0  0  0
   -3.7965   -2.8768    0.9782 C   0  0  0  0  0  0  0  0  0  0  0  0
   -4.5465   -2.1527    1.2902 H   0  0  0  0  0  0  0  0  0  0  0  0
   -3.9745   -3.1748   -0.0538 H   0  0  0  0  0  0  0  0  0  0  0  0
   -2.4245   -2.2537    1.0882 C   0  0  0  0  0  0  0  0  0  0  0  0
   -1.5805   -2.7478    1.8242 O   0  0  0  0  0  0  0  0  0  0  0  0
   -2.2045   -1.1637    0.3562 N   0  0  0  0  0  0  0  0  0  0  0  0
   -2.9595   -0.7907   -0.2008 H   0  0  0  0  0  0  0  0  0  0  0  0
   -0.9485   -0.4087    0.3482 C   0  0  1  0  0  0  0  0  0  0  0  0
   -0.1408   -1.0795    0.0507 H   0  0  0  0  0  0  0  0  0  0  0  0
   -1.0432    0.7243   -0.6879 C   0  0  0  0  0  0  0  0  0  0  0  0
   -0.1013    1.2746   -0.6996 H   0  0  0  0  0  0  0  0  0  0  0  0
   -1.1795    0.2875   -1.6784 H   0  0  0  0  0  0  0  0  0  0  0  0
   -2.1618    1.7127   -0.4185 C   0  0  0  0  0  0  0  0  0  0  0  0
   -1.9297    3.0975   -0.5195 C   0  0  0  0  0  0  0  0  0  0  0  0
   -0.9445    3.4660   -0.7681 H   0  0  0  0  0  0  0  0  0  0  0  0
   -2.9825    4.0069   -0.3085 C   0  0  0  0  0  0  0  0  0  0  0  0
   -2.8015    5.0700   -0.3840 H   0  0  0  0  0  0  0  0  0  0  0  0
   -4.2687    3.5337    0.0019 C   0  0  0  0  0  0  0  0  0  0  0  0
   -5.0770    4.2325    0.1663 H   0  0  0  0  0  0  0  0  0  0  0  0
   -4.5037    2.1505    0.1051 C   0  0  0  0  0  0  0  0  0  0  0  0
   -5.4911    1.7868    0.3489 H   0  0  0  0  0  0  0  0  0  0  0  0
   -3.4507    1.2421   -0.1026 C   0  0  0  0  0  0  0  0  0  0  0  0
   -3.6320    0.1784   -0.0197 H   0  0  0  0  0  0  0  0  0  0  0  0
   -0.6196    0.1253    1.7539 C   0  0  0  0  0  0  0  0  0  0  0  0
    0.5216    0.0194    2.2054 O   0  0  0  0  0  0  0  0  0  0  0  0
   -1.6152    0.6924    2.4469 N   0  0  0  0  0  0  0  0  0  0  0  0
   -2.5345    0.6914    2.0318 H   0  0  0  0  0  0  0  0  0  0  0  0
   -1.4720    1.2390    3.7941 C   0  0  0  0  0  0  0  0  0  0  0  0
   -0.6345    1.9391    3.8219 H   0  0  0  0  0  0  0  0  0  0  0  0
   -2.3844    1.7580    4.0892 H   0  0  0  0  0  0  0  0  0  0  0  0
   -1.2733    0.4298    4.4995 H   0  0  0  0  0  0  0  0  0  0  0  0
  5  6  2  0  0  0  0
  5  7  1  0  0  0  0
  2  3  1  0  0  0  0
  2  4  1  0  0  0  0
  2  5  1  0  0  0  0
  1  2  1  0  0  0  0
 25 26  2  0  0  0  0
 25 27  1  0  0  0  0
 23 24  1  0  0  0  0
 21 22  1  0  0  0  0
 21 23  2  0  0  0  0
 19 20  1  0  0  0  0
 19 21  1  0  0  0  0
 17 18  1  0  0  0  0
 17 19  2  0  0  0  0
 15 16  1  0  0  0  0
 15 17  1  0  0  0  0
 14 15  2  0  0  0  0
 14 23  1  0  0  0  0
 11 12  1  0  0  0  0
 11 13  1  0  0  0  0
 11 14  1  0  0  0  0
  9 10  1  0  0  0  0
  9 11  1  0  0  0  0
  9 25  1  0  0  0  0
  7  8  1  0  0  0  0
  7  9  1  0  0  0  0
 29 30  1  0  0  0  0
 29 31  1  0  0  0  0
 29 32  1  0  0  0  0
 27 28  1  0  0  0  0
 27 29  1  0  0  0  0
M  END
$$$$
default_name
  -OEChem-02102213163D

 32 32  0     1  0  0  0  0  0999 V2000
   -3.8405   -3.7518    1.6252 H   0  0  0  0  0  0  0  0  0  0  0  0
   -3.7965   -2.8768    0.9782 C   0  0  0  0  0  0  0  0  0  0  0  0
   -4.5465   -2.1527    1.2902 H   0  0  0  0  0  0  0  0  0  0  0  0
   -3.9745   -3.1748   -0.0538 H   0  0  0  0  0  0  0  0  0  0  0  0
   -2.4245   -2.2537    1.0882 C   0  0  0  0  0  0  0  0  0  0  0  0
   -1.5805   -2.7478    1.8242 O   0  0  0  0  0  0  0  0  0  0  0  0
   -2.2045   -1.1637    0.3562 N   0  0  0  0  0  0  0  0  0  0  0  0
   -2.9595   -0.7907   -0.2008 H   0  0  0  0  0  0  0  0  0  0  0  0
   -0.9485   -0.4087    0.3482 C   0  0  1  0  0  0  0  0  0  0  0  0
   -0.1408   -1.0795    0.0507 H   0  0  0  0  0  0  0  0  0  0  0  0
   -1.0432    0.7243   -0.6879 C   0  0  0  0  0  0  0  0  0  0  0  0
   -0.1013    1.2746   -0.6996 H   0  0  0  0  0  0  0  0  0  0  0  0
   -1.1795    0.2875   -1.6784 H   0  0  0  0  0  0  0  0  0  0  0  0
   -2.1618    1.7127   -0.4185 C   0  0  0  0  0  0  0  0  0  0  0  0
   -2.0363    3.0576   -0.8152 C   0  0  0  0  0  0  0  0  0  0  0  0
   -1.1301    3.3996   -1.2951 H   0  0  0  0  0  0  0  0  0  0  0  0
   -3.0948    3.9590   -0.5989 C   0  0  0  0  0  0  0  0  0  0  0  0
   -2.9953    4.9919   -0.9020 H   0  0  0  0  0  0  0  0  0  0  0  0
   -4.2805    3.5175    0.0123 C   0  0  0  0  0  0  0  0  0  0  0  0
   -5.0928    4.2107    0.1806 H   0  0  0  0  0  0  0  0  0  0  0  0
   -4.4087    2.1746    0.4114 C   0  0  0  0  0  0  0  0  0  0  0  0
   -5.3180    1.8363    0.8861 H   0  0  0  0  0  0  0  0  0  0  0  0
   -3.3494    1.2747    0.1980 C   0  0  0  0  0  0  0  0  0  0  0  0
   -3.4480    0.2426    0.5085 H   0  0  0  0  0  0  0  0  0  0  0  0
   -0.6196    0.1253    1.7539 C   0  0  0  0  0  0  0  0  0  0  0  0
    0.5216    0.0194    2.2054 O   0  0  0  0  0  0  0  0  0  0  0  0
   -1.6152    0.6924    2.4469 N   0  0  0  0  0  0  0  0  0  0  0  0
   -2.5345    0.6914    2.0318 H   0  0  0  0  0  0  0  0  0  0  0  0
   -1.4720    1.2390    3.7941 C   0  0  0  0  0  0  0  0  0  0  0  0
   -0.6345    1.9391    3.8219 H   0  0  0  0  0  0  0  0  0  0  0  0
   -2.3844    1.7580    4.0892 H   0  0  0  0  0  0  0  0  0  0  0  0
   -1.2733    0.4298    4.4995 H   0  0  0  0  0  0  0  0  0  0  0  0
  5  6  2  0  0  0  0
  5  7  1  0  0  0  0
  2  3  1  0  0  0  0
  2  4  1  0  0  0  0
  2  5  1  0  0  0  0
  1  2  1  0  0  0  0
 25 26  2  0  0  0  0
 25 27  1  0  0  0  0
 23 24  1  0  0  0  0
 21 22  1  0  0  0  0
 21 23  2  0  0  0  0
 19 20  1  0  0  0  0
 19 21  1  0  0  0  0
 17 18  1  0  0  0  0
 17 19  2  0  0  0  0
 15 16  1  0  0  0  0
 15 17  1  0  0  0  0
 14 15  2  0  0  0  0
 14 23  1  0  0  0  0
 11 12  1  0  0  0  0
 11 13  1  0  0  0  0
 11 14  1  0  0  0  0
  9 10  1  0  0  0  0
  9 11  1  0  0  0  0
  9 25  1  0  0  0  0
  7  8  1  0  0  0  0
  7  9  1  0  0  0  0
 29 30  1  0  0  0  0
 29 31  1  0  0  0  0
 29 32  1  0  0  0  0
 27 28  1  0  0  0  0
 27 29  1  0  0  0  0
M  END
$$$$
default_name
  -OEChem-02102213163D

 32 32  0     1  0  0  0  0  0999 V2000
   -3.8405   -3.7518    1.6252 H   0  0  0  0  0  0  0  0  0  0  0  0
   -3.7965   -2.8768    0.9782 C   0  0  0  0  0  0  0  0  0  0  0  0
   -4.5465   -2.1527    1.2902 H   0  0  0  0  0  0  0  0  0  0  0  0
   -3.9745   -3.1748   -0.0538 H   0  0  0  0  0  0  0  0  0  0  0  0
   -2.4245   -2.2537    1.0882 C   0  0  0  0  0  0  0  0  0  0  0  0
   -1.5805   -2.7478    1.8242 O   0  0  0  0  0  0  0  0  0  0  0  0
   -2.2045   -1.1637    0.3562 N   0  0  0  0  0  0  0  0  0  0  0  0
   -2.9595   -0.7907   -0.2008 H   0  0  0  0  0  0  0  0  0  0  0  0
   -0.9485   -0.4087    0.3482 C   0  0  1  0  0  0  0  0  0  0  0  0
   -0.1408   -1.0795    0.0507 H   0  0  0  0  0  0  0  0  0  0  0  0
   -1.0432    0.7243   -0.6879 C   0  0  0  0  0  0  0  0  0  0  0  0
   -0.1013    1.2746   -0.6996 H   0  0  0  0  0  0  0  0  0  0  0  0
   -1.1795    0.2875   -1.6784 H   0  0  0  0  0  0  0  0  0  0  0  0
   -2.1618    1.7127   -0.4185 C   0  0  0  0  0  0  0  0  0  0  0  0
   -2.1872    2.9576   -1.0752 C   0  0  0  0  0  0  0  0  0  0  0  0
   -1.3953    3.2263   -1.7601 H   0  0  0  0  0  0  0  0  0  0  0  0
   -3.2500    3.8522   -0.8513 C   0  0  0  0  0  0  0  0  0  0  0  0
   -3.2662    4.8087   -1.3547 H   0  0  0  0  0  0  0  0  0  0  0  0
   -4.2894    3.5033    0.0275 C   0  0  0  0  0  0  0  0  0  0  0  0
   -5.1047    4.1916    0.2013 H   0  0  0  0  0  0  0  0  0  0  0  0
   -4.2663    2.2607    0.6866 C   0  0  0  0  0  0  0  0  0  0  0  0
   -5.0625    1.9946    1.3663 H   0  0  0  0  0  0  0  0  0  0  0  0
   -3.2025    1.3682    0.4651 C   0  0  0  0  0  0  0  0  0  0  0  0
   -3.1842    0.4139    0.9754 H   0  0  0  0  0  0  0  0  0  0  0  0
   -0.6196    0.1253    1.7539 C   0  0  0  0  0  0  0  0  0  0  0  0
    0.5216    0.0194    2.2054 O   0  0  0  0  0  0  0  0  0  0  0  0
   -1.6152    0.6924    2.4469 N   0  0  0  0  0  0  0  0  0  0  0  0
   -2.5345    0.6914    2.0318 H   0  0  0  0  0  0  0  0  0  0  0  0
   -1.4720    1.2390    3.7941 C   0  0  0  0  0  0  0  0  0  0  0  0
   -0.6345    1.9391    3.8219 H   0  0  0  0  0  0  0  0  0  0  0  0
   -2.3844    1.7580    4.0892 H   0  0  0  0  0  0  0  0  0  0  0  0
   -1.2733    0.4298    4.4995 H   0  0  0  0  0  0  0  0  0  0  0  0
  5  6  2  0  0  0  0
  5  7  1  0  0  0  0
  2  3  1  0  0  0  0
  2  4  1  0  0  0  0
  2  5  1  0  0  0  0
  1  2  1  0  0  0  0
 25 26  2  0  0  0  0
 25 27  1  0  0  0  0
 23 24  1  0  0  0  0
 21 22  1  0  0  0  0
 21 23  2  0  0  0  0
 19 20  1  0  0  0  0
 19 21  1  0  0  0  0
 17 18  1  0  0  0  0
 17 19  2  0  0  0  0
 15 16  1  0  0  0  0
 15 17  1  0  0  0  0
 14 15  2  0  0  0  0
 14 23  1  0  0  0  0
 11 12  1  0  0  0  0
 11 13  1  0  0  0  0
 11 14  1  0  0  0  0
  9 10  1  0  0  0  0
  9 11  1  0  0  0  0
  9 25  1  0  0  0  0
  7  8  1  0  0  0  0
  7  9  1  0  0  0  0
 29 30  1  0  0  0  0
 29 31  1  0  0  0  0
 29 32  1  0  0  0  0
 27 28  1  0  0  0  0
 27 29  1  0  0  0  0
M  END
$$$$
default_name
  -OEChem-02102213163D

 32 32  0     1  0  0  0  0  0999 V2000
   -3.8405   -3.7518    1.6252 H   0  0  0  0  0  0  0  0  0  0  0  0
   -3.7965   -2.8768    0.9782 C   0  0  0  0  0  0  0  0  0  0  0  0
   -4.5465   -2.1527    1.2902 H   0  0  0  0  0  0  0  0  0  0  0  0
   -3.9745   -3.1748   -0.0538 H   0  0  0  0  0  0  0  0  0  0  0  0
   -2.4245   -2.2537    1.0882 C   0  0  0  0  0  0  0  0  0  0  0  0
   -1.5805   -2.7478    1.8242 O   0  0  0  0  0  0  0  0  0  0  0  0
   -2.2045   -1.1637    0.3562 N   0  0  0  0  0  0  0  0  0  0  0  0
   -2.9595   -0.7907   -0.2008 H   0  0  0  0  0  0  0  0  0  0  0  0
   -0.9485   -0.4087    0.3482 C   0  0  1  0  0  0  0  0  0  0  0  0
   -0.1408   -1.0795    0.0507 H   0  0  0  0  0  0  0  0  0  0  0  0
   -1.0432    0.7243   -0.6879 C   0  0  0  0  0  0  0  0  0  0  0  0
   -0.0404    1.1004   -0.8956 H   0  0  0  0  0  0  0  0  0  0  0  0
   -1.4406    0.3192   -1.6198 H   0  0  0  0  0  0  0  0  0  0  0  0
   -1.9013    1.8937   -0.2443 C   0  0  0  0  0  0  0  0  0  0  0  0
   -2.0818    3.0064   -1.0876 C   0  0  0  0  0  0  0  0  0  0  0  0
   -1.5901    3.0439   -2.0495 H   0  0  0  0  0  0  0  0  0  0  0  0
   -2.9124    4.0689   -0.6863 C   0  0  0  0  0  0  0  0  0  0  0  0
   -3.0476    4.9235   -1.3343 H   0  0  0  0  0  0  0  0  0  0  0  0
   -3.5652    4.0201    0.5571 C   0  0  0  0  0  0  0  0  0  0  0  0
   -4.2014    4.8375    0.8664 H   0  0  0  0  0  0  0  0  0  0  0  0
   -3.3858    2.9104    1.4029 C   0  0  0  0  0  0  0  0  0  0  0  0
   -3.8831    2.8752    2.3611 H   0  0  0  0  0  0  0  0  0  0  0  0
   -2.5530    1.8502    1.0030 C   0  0  0  0  0  0  0  0  0  0  0  0
   -2.4131    0.9986    1.6561 H   0  0  0  0  0  0  0  0  0  0  0  0
   -0.6196    0.1253    1.7539 C   0  0  0  0  0  0  0  0  0  0  0  0
    0.5216    0.0194    2.2054 O   0  0  0  0  0  0  0  0  0  0  0  0
   -1.6152    0.6924    2.4469 N   0  0  0  0  0  0  0  0  0  0  0  0
   -2.5345    0.6914    2.0318 H   0  0  0  0  0  0  0  0  0  0  0  0
   -1.4720    1.2390    3.7941 C   0  0  0  0  0  0  0  0  0  0  0  0
   -0.6345    1.9391    3.8219 H   0  0  0  0  0  0  0  0  0  0  0  0
   -2.3844    1.7580    4.0892 H   0  0  0  0  0  0  0  0  0  0  0  0
   -1.2733    0.4298    4.4995 H   0  0  0  0  0  0  0  0  0  0  0  0
  5  6  2  0  0  0  0
  5  7  1  0  0  0  0
  2  3  1  0  0  0  0
  2  4  1  0  0  0  0
  2  5  1  0  0  0  0
  1  2  1  0  0  0  0
 25 26  2  0  0  0  0
 25 27  1  0  0  0  0
 23 24  1  0  0  0  0
 21 22  1  0  0  0  0
 21 23  2  0  0  0  0
 19 20  1  0  0  0  0
 19 21  1  0  0  0  0
 17 18  1  0  0  0  0
 17 19  2  0  0  0  0
 15 16  1  0  0  0  0
 15 17  1  0  0  0  0
 14 15  2  0  0  0  0
 14 23  1  0  0  0  0
 11 12  1  0  0  0  0
 11 13  1  0  0  0  0
 11 14  1  0  0  0  0
  9 10  1  0  0  0  0
  9 11  1  0  0  0  0
  9 25  1  0  0  0  0
  7  8  1  0  0  0  0
  7  9  1  0  0  0  0
 29 30  1  0  0  0  0
 29 31  1  0  0  0  0
 29 32  1  0  0  0  0
 27 28  1  0  0  0  0
 27 29  1  0  0  0  0
M  END
$$$$
default_name
  -OEChem-02102213163D

 32 32  0     1  0  0  0  0  0999 V2000
   -3.8405   -3.7518    1.6252 H   0  0  0  0  0  0  0  0  0  0  0  0
   -3.7965   -2.8768    0.9782 C   0  0  0  0  0  0  0  0  0  0  0  0
   -4.5465   -2.1527    1.2902 H   0  0  0  0  0  0  0  0  0  0  0  0
   -3.9745   -3.1748   -0.0538 H   0  0  0  0  0  0  0  0  0  0  0  0
   -2.4245   -2.2537    1.0882 C   0  0  0  0  0  0  0  0  0  0  0  0
   -1.5805   -2.7478    1.8242 O   0  0  0  0  0  0  0  0  0  0  0  0
   -2.2045   -1.1637    0.3562 N   0  0  0  0  0  0  0  0  0  0  0  0
   -2.9595   -0.7907   -0.2008 H   0  0  0  0  0  0  0  0  0  0  0  0
   -0.9485   -0.4087    0.3482 C   0  0  1  0  0  0  0  0  0  0  0  0
   -0.1408   -1.0795    0.0507 H   0  0  0  0  0  0  0  0  0  0  0  0
   -1.0432    0.7243   -0.6879 C   0  0  0  0  0  0  0  0  0  0  0  0
   -0.0404    1.1004   -0.8956 H   0  0  0  0  0  0  0  0  0  0  0  0
   -1.4406    0.3192   -1.6198 H   0  0  0  0  0  0  0  0  0  0  0  0
   -1.9013    1.8937   -0.2443 C   0  0  0  0  0  0  0  0  0  0  0  0
   -2.3419    2.8501   -1.1787 C   0  0  0  0  0  0  0  0  0  0  0  0
   -2.0515    2.7687   -2.2166 H   0  0  0  0  0  0  0  0  0  0  0  0
   -3.1717    3.9092   -0.7669 C   0  0  0  0  0  0  0  0  0  0  0  0
   -3.5068    4.6439   -1.4855 H   0  0  0  0  0  0  0  0  0  0  0  0
   -3.5638    4.0130    0.5786 C   0  0  0  0  0  0  0  0  0  0  0  0
   -4.1994    4.8280    0.8954 H   0  0  0  0  0  0  0  0  0  0  0  0
   -3.1240    3.0599    1.5152 C   0  0  0  0  0  0  0  0  0  0  0  0
   -3.4209    3.1425    2.5504 H   0  0  0  0  0  0  0  0  0  0  0  0
   -2.2921    2.0034    1.1039 C   0  0  0  0  0  0  0  0  0  0  0  0
   -1.9517    1.2727    1.8261 H   0  0  0  0  0  0  0  0  0  0  0  0
   -0.6196    0.1253    1.7539 C   0  0  0  0  0  0  0  0  0  0  0  0
    0.5216    0.0194    2.2054 O   0  0  0  0  0  0  0  0  0  0  0  0
   -1.6152    0.6924    2.4469 N   0  0  0  0  0  0  0  0  0  0  0  0
   -2.5345    0.6914    2.0318 H   0  0  0  0  0  0  0  0  0  0  0  0
   -1.4720    1.2390    3.7941 C   0  0  0  0  0  0  0  0  0  0  0  0
   -0.6345    1.9391    3.8219 H   0  0  0  0  0  0  0  0  0  0  0  0
   -2.3844    1.7580    4.0892 H   0  0  0  0  0  0  0  0  0  0  0  0
   -1.2733    0.4298    4.4995 H   0  0  0  0  0  0  0  0  0  0  0  0
  5  6  2  0  0  0  0
  5  7  1  0  0  0  0
  2  3  1  0  0  0  0
  2  4  1  0  0  0  0
  2  5  1  0  0  0  0
  1  2  1  0  0  0  0
 25 26  2  0  0  0  0
 25 27  1  0  0  0  0
 23 24  1  0  0  0  0
 21 22  1  0  0  0  0
 21 23  2  0  0  0  0
 19 20  1  0  0  0  0
 19 21  1  0  0  0  0
 17 18  1  0  0  0  0
 17 19  2  0  0  0  0
 15 16  1  0  0  0  0
 15 17  1  0  0  0  0
 14 15  2  0  0  0  0
 14 23  1  0  0  0  0
 11 12  1  0  0  0  0
 11 13  1  0  0  0  0
 11 14  1  0  0  0  0
  9 10  1  0  0  0  0
  9 11  1  0  0  0  0
  9 25  1  0  0  0  0
  7  8  1  0  0  0  0
  7  9  1  0  0  0  0
 29 30  1  0  0  0  0
 29 31  1  0  0  0  0
 29 32  1  0  0  0  0
 27 28  1  0  0  0  0
 27 29  1  0  0  0  0
M  END
$$$$
default_name
  -OEChem-02102213163D

 32 32  0     1  0  0  0  0  0999 V2000
   -3.8405   -3.7518    1.6252 H   0  0  0  0  0  0  0  0  0  0  0  0
   -3.7965   -2.8768    0.9782 C   0  0  0  0  0  0  0  0  0  0  0  0
   -4.5465   -2.1527    1.2902 H   0  0  0  0  0  0  0  0  0  0  0  0
   -3.9745   -3.1748   -0.0538 H   0  0  0  0  0  0  0  0  0  0  0  0
   -2.4245   -2.2537    1.0882 C   0  0  0  0  0  0  0  0  0  0  0  0
   -1.5805   -2.7478    1.8242 O   0  0  0  0  0  0  0  0  0  0  0  0
   -2.2045   -1.1637    0.3562 N   0  0  0  0  0  0  0  0  0  0  0  0
   -2.9595   -0.7907   -0.2008 H   0  0  0  0  0  0  0  0  0  0  0  0
   -0.9485   -0.4087    0.3482 C   0  0  1  0  0  0  0  0  0  0  0  0
   -0.1408   -1.0795    0.0507 H   0  0  0  0  0  0  0  0  0  0  0  0
   -1.0432    0.7243   -0.6879 C   0  0  0  0  0  0  0  0  0  0  0  0
   -0.0404    1.1004   -0.8956 H   0  0  0  0  0  0  0  0  0  0  0  0
   -1.4406    0.3192   -1.6198 H   0  0  0  0  0  0  0  0  0  0  0  0
   -1.9013    1.8937   -0.2443 C   0  0  0  0  0  0  0  0  0  0  0  0
   -2.5995    2.6661   -1.1918 C   0  0  0  0  0  0  0  0  0  0  0  0
   -2.5097    2.4435   -2.2457 H   0  0  0  0  0  0  0  0  0  0  0  0
   -3.4262    3.7235   -0.7695 C   0  0  0  0  0  0  0  0  0  0  0  0
   -3.9594    4.3169   -1.4989 H   0  0  0  0  0  0  0  0  0  0  0  0
   -3.5576    4.0093    0.6000 C   0  0  0  0  0  0  0  0  0  0  0  0
   -4.1909    4.8232    0.9243 H   0  0  0  0  0  0  0  0  0  0  0  0
   -2.8602    3.2405    1.5494 C   0  0  0  0  0  0  0  0  0  0  0  0
   -2.9569    3.4635    2.6019 H   0  0  0  0  0  0  0  0  0  0  0  0
   -2.0315    2.1859    1.1269 C   0  0  0  0  0  0  0  0  0  0  0  0
   -1.4929    1.5973    1.8581 H   0  0  0  0  0  0  0  0  0  0  0  0
   -0.6196    0.1253    1.7539 C   0  0  0  0  0  0  0  0  0  0  0  0
    0.5216    0.0194    2.2054 O   0  0  0  0  0  0  0  0  0  0  0  0
   -1.6152    0.6924    2.4469 N   0  0  0  0  0  0  0  0  0  0  0  0
   -2.5345    0.6914    2.0318 H   0  0  0  0  0  0  0  0  0  0  0  0
   -1.4720    1.2390    3.7941 C   0  0  0  0  0  0  0  0  0  0  0  0
   -0.6345    1.9391    3.8219 H   0  0  0  0  0  0  0  0  0  0  0  0
   -2.3844    1.7580    4.0892 H   0  0  0  0  0  0  0  0  0  0  0  0
   -1.2733    0.4298    4.4995 H   0  0  0  0  0  0  0  0  0  0  0  0
  5  6  2  0  0  0  0
  5  7  1  0  0  0  0
  2  3  1  0  0  0  0
  2  4  1  0  0  0  0
  2  5  1  0  0  0  0
  1  2  1  0  0  0  0
 25 26  2  0  0  0  0
 25 27  1  0  0  0  0
 23 24  1  0  0  0  0
 21 22  1  0  0  0  0
 21 23  2  0  0  0  0
 19 20  1  0  0  0  0
 19 21  1  0  0  0  0
 17 18  1  0  0  0  0
 17 19  2  0  0  0  0
 15 16  1  0  0  0  0
 15 17  1  0  0  0  0
 14 15  2  0  0  0  0
 14 23  1  0  0  0  0
 11 12  1  0  0  0  0
 11 13  1  0  0  0  0
 11 14  1  0  0  0  0
  9 10  1  0  0  0  0
  9 11  1  0  0  0  0
  9 25  1  0  0  0  0
  7  8  1  0  0  0  0
  7  9  1  0  0  0  0
 29 30  1  0  0  0  0
 29 31  1  0  0  0  0
 29 32  1  0  0  0  0
 27 28  1  0  0  0  0
 27 29  1  0  0  0  0
M  END
$$$$
default_name
  -OEChem-02102213163D

 32 32  0     1  0  0  0  0  0999 V2000
   -3.8405   -3.7518    1.6252 H   0  0  0  0  0  0  0  0  0  0  0  0
   -3.7965   -2.8768    0.9782 C   0  0  0  0  0  0  0  0  0  0  0  0
   -4.5465   -2.1527    1.2902 H   0  0  0  0  0  0  0  0  0  0  0  0
   -3.9745   -3.1748   -0.0538 H   0  0  0  0  0  0  0  0  0  0  0  0
   -2.4245   -2.2537    1.0882 C   0  0  0  0  0  0  0  0  0  0  0  0
   -1.5805   -2.7478    1.8242 O   0  0  0  0  0  0  0  0  0  0  0  0
   -2.2045   -1.1637    0.3562 N   0  0  0  0  0  0  0  0  0  0  0  0
   -2.9595   -0.7907   -0.2008 H   0  0  0  0  0  0  0  0  0  0  0  0
   -0.9485   -0.4087    0.3482 C   0  0  1  0  0  0  0  0  0  0  0  0
   -0.1408   -1.0795    0.0507 H   0  0  0  0  0  0  0  0  0  0  0  0
   -1.0432    0.7243   -0.6879 C   0  0  0  0  0  0  0  0  0  0  0  0
   -0.0404    1.1004   -0.8956 H   0  0  0  0  0  0  0  0  0  0  0  0
   -1.4406    0.3192   -1.6198 H   0  0  0  0  0  0  0  0  0  0  0  0
   -1.9013    1.8937   -0.2443 C   0  0  0  0  0  0  0  0  0  0  0  0
   -2.8370    2.4669   -1.1262 C   0  0  0  0  0  0  0  0  0  0  0  0
   -2.9335    2.0905   -2.1348 H   0  0  0  0  0  0  0  0  0  0  0  0
   -3.6584    3.5245   -0.6941 C   0  0  0  0  0  0  0  0  0  0  0  0
   -4.3744    3.9649   -1.3737 H   0  0  0  0  0  0  0  0  0  0  0  0
   -3.5472    4.0094    0.6201 C   0  0  0  0  0  0  0  0  0  0  0  0
   -4.1766    4.8235    0.9513 H   0  0  0  0  0  0  0  0  0  0  0  0
   -2.6121    3.4399    1.5035 C   0  0  0  0  0  0  0  0  0  0  0  0
   -2.5227    3.8162    2.5120 H   0  0  0  0  0  0  0  0  0  0  0  0
   -1.7891    2.3852    1.0704 C   0  0  0  0  0  0  0  0  0  0  0  0
   -1.0678    1.9502    1.7499 H   0  0  0  0  0  0  0  0  0  0  0  0
   -0.6196    0.1253    1.7539 C   0  0  0  0  0  0  0  0  0  0  0  0
    0.5216    0.0194    2.2054 O   0  0  0  0  0  0  0  0  0  0  0  0
   -1.6152    0.6924    2.4469 N   0  0  0  0  0  0  0  0  0  0  0  0
   -2.5345    0.6914    2.0318 H   0  0  0  0  0  0  0  0  0  0  0  0
   -1.4720    1.2390    3.7941 C   0  0  0  0  0  0  0  0  0  0  0  0
   -0.6345    1.9391    3.8219 H   0  0  0  0  0  0  0  0  0  0  0  0
   -2.3844    1.7580    4.0892 H   0  0  0  0  0  0  0  0  0  0  0  0
   -1.2733    0.4298    4.4995 H   0  0  0  0  0  0  0  0  0  0  0  0
  5  6  2  0  0  0  0
  5  7  1  0  0  0  0
  2  3  1  0  0  0  0
  2  4  1  0  0  0  0
  2  5  1  0  0  0  0
  1  2  1  0  0  0  0
 25 26  2  0  0  0  0
 25 27  1  0  0  0  0
 23 24  1  0  0  0  0
 21 22  1  0  0  0  0
 21 23  2  0  0  0  0
 19 20  1  0  0  0  0
 19 21  1  0  0  0  0
 17 18  1  0  0  0  0
 17 19  2  0  0  0  0
 15 16  1  0  0  0  0
 15 17  1  0  0  0  0
 14 15  2  0  0  0  0
 14 23  1  0  0  0  0
 11 12  1  0  0  0  0
 11 13  1  0  0  0  0
 11 14  1  0  0  0  0
  9 10  1  0  0  0  0
  9 11  1  0  0  0  0
  9 25  1  0  0  0  0
  7  8  1  0  0  0  0
  7  9  1  0  0  0  0
 29 30  1  0  0  0  0
 29 31  1  0  0  0  0
 29 32  1  0  0  0  0
 27 28  1  0  0  0  0
 27 29  1  0  0  0  0
M  END
$$$$
default_name
  -OEChem-02102213163D

 32 32  0     1  0  0  0  0  0999 V2000
   -3.8405   -3.7518    1.6252 H   0  0  0  0  0  0  0  0  0  0  0  0
   -3.7965   -2.8768    0.9782 C   0  0  0  0  0  0  0  0  0  0  0  0
   -4.5465   -2.1527    1.2902 H   0  0  0  0  0  0  0  0  0  0  0  0
   -3.9745   -3.1748   -0.0538 H   0  0  0  0  0  0  0  0  0  0  0  0
   -2.4245   -2.2537    1.0882 C   0  0  0  0  0  0  0  0  0  0  0  0
   -1.5805   -2.7478    1.8242 O   0  0  0  0  0  0  0  0  0  0  0  0
   -2.2045   -1.1637    0.3562 N   0  0  0  0  0  0  0  0  0  0  0  0
   -2.9595   -0.7907   -0.2008 H   0  0  0  0  0  0  0  0  0  0  0  0
   -0.9485   -0.4087    0.3482 C   0  0  1  0  0  0  0  0  0  0  0  0
   -0.1408   -1.0795    0.0507 H   0  0  0  0  0  0  0  0  0  0  0  0
   -1.0432    0.7243   -0.6879 C   0  0  0  0  0  0  0  0  0  0  0  0
   -0.0404    1.1004   -0.8956 H   0  0  0  0  0  0  0  0  0  0  0  0
   -1.4406    0.3192   -1.6198 H   0  0  0  0  0  0  0  0  0  0  0  0
   -1.9013    1.8937   -0.2443 C   0  0  0  0  0  0  0  0  0  0  0  0
   -3.0383    2.2661   -0.9862 C   0  0  0  0  0  0  0  0  0  0  0  0
   -3.2940    1.7336   -1.8914 H   0  0  0  0  0  0  0  0  0  0  0  0
   -3.8526    3.3257   -0.5458 C   0  0  0  0  0  0  0  0  0  0  0  0
   -4.7237    3.6117   -1.1184 H   0  0  0  0  0  0  0  0  0  0  0  0
   -3.5330    4.0132    0.6373 C   0  0  0  0  0  0  0  0  0  0  0  0
   -4.1574    4.8288    0.9744 H   0  0  0  0  0  0  0  0  0  0  0  0
   -2.3968    3.6446    1.3803 C   0  0  0  0  0  0  0  0  0  0  0  0
   -2.1480    4.1765    2.2869 H   0  0  0  0  0  0  0  0  0  0  0  0
   -1.5813    2.5878    0.9382 C   0  0  0  0  0  0  0  0  0  0  0  0
   -0.7056    2.3074    1.5089 H   0  0  0  0  0  0  0  0  0  0  0  0
   -0.6196    0.1253    1.7539 C   0  0  0  0  0  0  0  0  0  0  0  0
    0.5216    0.0194    2.2054 O   0  0  0  0  0  0  0  0  0  0  0  0
   -1.6152    0.6924    2.4469 N   0  0  0  0  0  0  0  0  0  0  0  0
   -2.5345    0.6914    2.0318 H   0  0  0  0  0  0  0  0  0  0  0  0
   -1.4720    1.2390    3.7941 C   0  0  0  0  0  0  0  0  0  0  0  0
   -0.6345    1.9391    3.8219 H   0  0  0  0  0  0  0  0  0  0  0  0
   -2.3844    1.7580    4.0892 H   0  0  0  0  0  0  0  0  0  0  0  0
   -1.2733    0.4298    4.4995 H   0  0  0  0  0  0  0  0  0  0  0  0
  5  6  2  0  0  0  0
  5  7  1  0  0  0  0
  2  3  1  0  0  0  0
  2  4  1  0  0  0  0
  2  5  1  0  0  0  0
  1  2  1  0  0  0  0
 25 26  2  0  0  0  0
 25 27  1  0  0  0  0
 23 24  1  0  0  0  0
 21 22  1  0  0  0  0
 21 23  2  0  0  0  0
 19 20  1  0  0  0  0
 19 21  1  0  0  0  0
 17 18  1  0  0  0  0
 17 19  2  0  0  0  0
 15 16  1  0  0  0  0
 15 17  1  0  0  0  0
 14 15  2  0  0  0  0
 14 23  1  0  0  0  0
 11 12  1  0  0  0  0
 11 13  1  0  0  0  0
 11 14  1  0  0  0  0
  9 10  1  0  0  0  0
  9 11  1  0  0  0  0
  9 25  1  0  0  0  0
  7  8  1  0  0  0  0
  7  9  1  0  0  0  0
 29 30  1  0  0  0  0
 29 31  1  0  0  0  0
 29 32  1  0  0  0  0
 27 28  1  0  0  0  0
 27 29  1  0  0  0  0
M  END
$$$$
default_name
  -OEChem-02102213163D

 32 32  0     1  0  0  0  0  0999 V2000
   -3.8405   -3.7518    1.6252 H   0  0  0  0  0  0  0  0  0  0  0  0
   -3.7965   -2.8768    0.9782 C   0  0  0  0  0  0  0  0  0  0  0  0
   -4.5465   -2.1527    1.2902 H   0  0  0  0  0  0  0  0  0  0  0  0
   -3.9745   -3.1748   -0.0538 H   0  0  0  0  0  0  0  0  0  0  0  0
   -2.4245   -2.2537    1.0882 C   0  0  0  0  0  0  0  0  0  0  0  0
   -1.5805   -2.7478    1.8242 O   0  0  0  0  0  0  0  0  0  0  0  0
   -2.2045   -1.1637    0.3562 N   0  0  0  0  0  0  0  0  0  0  0  0
   -2.9595   -0.7907   -0.2008 H   0  0  0  0  0  0  0  0  0  0  0  0
   -0.9485   -0.4087    0.3482 C   0  0  1  0  0  0  0  0  0  0  0  0
   -0.1408   -1.0795    0.0507 H   0  0  0  0  0  0  0  0  0  0  0  0
   -1.0432    0.7243   -0.6879 C   0  0  0  0  0  0  0  0  0  0  0  0
   -0.0404    1.1004   -0.8956 H   0  0  0  0  0  0  0  0  0  0  0  0
   -1.4406    0.3192   -1.6198 H   0  0  0  0  0  0  0  0  0  0  0  0
   -1.9013    1.8937   -0.2443 C   0  0  0  0  0  0  0  0  0  0  0  0
   -3.1895    2.0775   -0.7815 C   0  0  0  0  0  0  0  0  0  0  0  0
   -3.5666    1.3973   -1.5321 H   0  0  0  0  0  0  0  0  0  0  0  0
   -3.9956    3.1407   -0.3347 C   0  0  0  0  0  0  0  0  0  0  0  0
   -4.9834    3.2815   -0.7504 H   0  0  0  0  0  0  0  0  0  0  0  0
   -3.5163    4.0205    0.6506 C   0  0  0  0  0  0  0  0  0  0  0  0
   -4.1347    4.8388    0.9921 H   0  0  0  0  0  0  0  0  0  0  0  0
   -2.2289    3.8407    1.1885 C   0  0  0  0  0  0  0  0  0  0  0  0
   -1.8582    4.5200    1.9420 H   0  0  0  0  0  0  0  0  0  0  0  0
   -1.4223    2.7799    0.7394 C   0  0  0  0  0  0  0  0  0  0  0  0
   -0.4308    2.6446    1.1516 H   0  0  0  0  0  0  0  0  0  0  0  0
   -0.6196    0.1253    1.7539 C   0  0  0  0  0  0  0  0  0  0  0  0
    0.5216    0.0194    2.2054 O   0  0  0  0  0  0  0  0  0  0  0  0
   -1.6152    0.6924    2.4469 N   0  0  0  0  0  0  0  0  0  0  0  0
   -2.5345    0.6914    2.0318 H   0  0  0  0  0  0  0  0  0  0  0  0
   -1.4720    1.2390    3.7941 C   0  0  0  0  0  0  0  0  0  0  0  0
   -0.6345    1.9391    3.8219 H   0  0  0  0  0  0  0  0  0  0  0  0
   -2.3844    1.7580    4.0892 H   0  0  0  0  0  0  0  0  0  0  0  0
   -1.2733    0.4298    4.4995 H   0  0  0  0  0  0  0  0  0  0  0  0
  5  6  2  0  0  0  0
  5  7  1  0  0  0  0
  2  3  1  0  0  0  0
  2  4  1  0  0  0  0
  2  5  1  0  0  0  0
  1  2  1  0  0  0  0
 25 26  2  0  0  0  0
 25 27  1  0  0  0  0
 23 24  1  0  0  0  0
 21 22  1  0  0  0  0
 21 23  2  0  0  0  0
 19 20  1  0  0  0  0
 19 21  1  0  0  0  0
 17 18  1  0  0  0  0
 17 19  2  0  0  0  0
 15 16  1  0  0  0  0
 15 17  1  0  0  0  0
 14 15  2  0  0  0  0
 14 23  1  0  0  0  0
 11 12  1  0  0  0  0
 11 13  1  0  0  0  0
 11 14  1  0  0  0  0
  9 10  1  0  0  0  0
  9 11  1  0  0  0  0
  9 25  1  0  0  0  0
  7  8  1  0  0  0  0
  7  9  1  0  0  0  0
 29 30  1  0  0  0  0
 29 31  1  0  0  0  0
 29 32  1  0  0  0  0
 27 28  1  0  0  0  0
 27 29  1  0  0  0  0
M  END
$$$$
default_name
  -OEChem-02102213163D

 32 32  0     1  0  0  0  0  0999 V2000
   -3.8405   -3.7518    1.6252 H   0  0  0  0  0  0  0  0  0  0  0  0
   -3.7965   -2.8768    0.9782 C   0  0  0  0  0  0  0  0  0  0  0  0
   -4.5465   -2.1527    1.2902 H   0  0  0  0  0  0  0  0  0  0  0  0
   -3.9745   -3.1748   -0.0538 H   0  0  0  0  0  0  0  0  0  0  0  0
   -2.4245   -2.2537    1.0882 C   0  0  0  0  0  0  0  0  0  0  0  0
   -1.5805   -2.7478    1.8242 O   0  0  0  0  0  0  0  0  0  0  0  0
   -2.2045   -1.1637    0.3562 N   0  0  0  0  0  0  0  0  0  0  0  0
   -2.9595   -0.7907   -0.2008 H   0  0  0  0  0  0  0  0  0  0  0  0
   -0.9485   -0.4087    0.3482 C   0  0  1  0  0  0  0  0  0  0  0  0
   -0.1408   -1.0795    0.0507 H   0  0  0  0  0  0  0  0  0  0  0  0
   -1.0432    0.7243   -0.6879 C   0  0  0  0  0  0  0  0  0  0  0  0
   -0.0404    1.1004   -0.8956 H   0  0  0  0  0  0  0  0  0  0  0  0
   -1.4406    0.3192   -1.6198 H   0  0  0  0  0  0  0  0  0  0  0  0
   -1.9013    1.8937   -0.2443 C   0  0  0  0  0  0  0  0  0  0  0  0
   -3.2805    1.9137   -0.5259 C   0  0  0  0  0  0  0  0  0  0  0  0
   -3.7328    1.1043   -1.0814 H   0  0  0  0  0  0  0  0  0  0  0  0
   -4.0775    2.9821   -0.0752 C   0  0  0  0  0  0  0  0  0  0  0  0
   -5.1359    2.9968   -0.2948 H   0  0  0  0  0  0  0  0  0  0  0  0
   -3.4979    4.0308    0.6590 C   0  0  0  0  0  0  0  0  0  0  0  0
   -4.1099    4.8527    1.0033 H   0  0  0  0  0  0  0  0  0  0  0  0
   -2.1198    4.0146    0.9409 C   0  0  0  0  0  0  0  0  0  0  0  0
   -1.6731    4.8233    1.5006 H   0  0  0  0  0  0  0  0  0  0  0  0
   -1.3229    2.9484    0.4875 C   0  0  0  0  0  0  0  0  0  0  0  0
   -0.2622    2.9388    0.7022 H   0  0  0  0  0  0  0  0  0  0  0  0
   -0.6196    0.1253    1.7539 C   0  0  0  0  0  0  0  0  0  0  0  0
    0.5216    0.0194    2.2054 O   0  0  0  0  0  0  0  0  0  0  0  0
   -1.6152    0.6924    2.4469 N   0  0  0  0  0  0  0  0  0  0  0  0
   -2.5345    0.6914    2.0318 H   0  0  0  0  0  0  0  0  0  0  0  0
   -1.4720    1.2390    3.7941 C   0  0  0  0  0  0  0  0  0  0  0  0
   -0.6345    1.9391    3.8219 H   0  0  0  0  0  0  0  0  0  0  0  0
   -2.3844    1.7580    4.0892 H   0  0  0  0  0  0  0  0  0  0  0  0
   -1.2733    0.4298    4.4995 H   0  0  0  0  0  0  0  0  0  0  0  0
  5  6  2  0  0  0  0
  5  7  1  0  0  0  0
  2  3  1  0  0  0  0
  2  4  1  0  0  0  0
  2  5  1  0  0  0  0
  1  2  1  0  0  0  0
 25 26  2  0  0  0  0
 25 27  1  0  0  0  0
 23 24  1  0  0  0  0
 21 22  1  0  0  0  0
 21 23  2  0  0  0  0
 19 20  1  0  0  0  0
 19 21  1  0  0  0  0
 17 18  1  0  0  0  0
 17 19  2  0  0  0  0
 15 16  1  0  0  0  0
 15 17  1  0  0  0  0
 14 15  2  0  0  0  0
 14 23  1  0  0  0  0
 11 12  1  0  0  0  0
 11 13  1  0  0  0  0
 11 14  1  0  0  0  0
  9 10  1  0  0  0  0
  9 11  1  0  0  0  0
  9 25  1  0  0  0  0
  7  8  1  0  0  0  0
  7  9  1  0  0  0  0
 29 30  1  0  0  0  0
 29 31  1  0  0  0  0
 29 32  1  0  0  0  0
 27 28  1  0  0  0  0
 27 29  1  0  0  0  0
M  END
$$$$
default_name
  -OEChem-02102213163D

 32 32  0     1  0  0  0  0  0999 V2000
   -3.8405   -3.7518    1.6252 H   0  0  0  0  0  0  0  0  0  0  0  0
   -3.7965   -2.8768    0.9782 C   0  0  0  0  0  0  0  0  0  0  0  0
   -4.5465   -2.1527    1.2902 H   0  0  0  0  0  0  0  0  0  0  0  0
   -3.9745   -3.1748   -0.0538 H   0  0  0  0  0  0  0  0  0  0  0  0
   -2.4245   -2.2537    1.0882 C   0  0  0  0  0  0  0  0  0  0  0  0
   -1.5805   -2.7478    1.8242 O   0  0  0  0  0  0  0  0  0  0  0  0
   -2.2045   -1.1637    0.3562 N   0  0  0  0  0  0  0  0  0  0  0  0
   -2.9595   -0.7907   -0.2008 H   0  0  0  0  0  0  0  0  0  0  0  0
   -0.9485   -0.4087    0.3482 C   0  0  1  0  0  0  0  0  0  0  0  0
   -0.1408   -1.0795    0.0507 H   0  0  0  0  0  0  0  0  0  0  0  0
   -1.0432    0.7243   -0.6879 C   0  0  0  0  0  0  0  0  0  0  0  0
   -0.0404    1.1004   -0.8956 H   0  0  0  0  0  0  0  0  0  0  0  0
   -1.4406    0.3192   -1.6198 H   0  0  0  0  0  0  0  0  0  0  0  0
   -1.9013    1.8937   -0.2443 C   0  0  0  0  0  0  0  0  0  0  0  0
   -3.3050    1.7861   -0.2369 C   0  0  0  0  0  0  0  0  0  0  0  0
   -3.7812    0.8748   -0.5700 H   0  0  0  0  0  0  0  0  0  0  0  0
   -4.0929    2.8607    0.2151 C   0  0  0  0  0  0  0  0  0  0  0  0
   -5.1706    2.7770    0.2174 H   0  0  0  0  0  0  0  0  0  0  0  0
   -3.4793    4.0433    0.6620 C   0  0  0  0  0  0  0  0  0  0  0  0
   -4.0848    4.8697    1.0070 H   0  0  0  0  0  0  0  0  0  0  0  0
   -2.0770    4.1546    0.6546 C   0  0  0  0  0  0  0  0  0  0  0  0
   -1.6054    5.0656    0.9930 H   0  0  0  0  0  0  0  0  0  0  0  0
   -1.2899    3.0818    0.1997 C   0  0  0  0  0  0  0  0  0  0  0  0
   -0.2113    3.1700    0.1914 H   0  0  0  0  0  0  0  0  0  0  0  0
   -0.6196    0.1253    1.7539 C   0  0  0  0  0  0  0  0  0  0  0  0
    0.5216    0.0194    2.2054 O   0  0  0  0  0  0  0  0  0  0  0  0
   -1.6152    0.6924    2.4469 N   0  0  0  0  0  0  0  0  0  0  0  0
   -2.5345    0.6914    2.0318 H   0  0  0  0  0  0  0  0  0  0  0  0
   -1.4720    1.2390    3.7941 C   0  0  0  0  0  0  0  0  0  0  0  0
   -0.6345    1.9391    3.8219 H   0  0  0  0  0  0  0  0  0  0  0  0
   -2.3844    1.7580    4.0892 H   0  0  0  0  0  0  0  0  0  0  0  0
   -1.2733    0.4298    4.4995 H   0  0  0  0  0  0  0  0  0  0  0  0
  5  6  2  0  0  0  0
  5  7  1  0  0  0  0
  2  3  1  0  0  0  0
  2  4  1  0  0  0  0
  2  5  1  0  0  0  0
  1  2  1  0  0  0  0
 25 26  2  0  0  0  0
 25 27  1  0  0  0  0
 23 24  1  0  0  0  0
 21 22  1  0  0  0  0
 21 23  2  0  0  0  0
 19 20  1  0  0  0  0
 19 21  1  0  0  0  0
 17 18  1  0  0  0  0
 17 19  2  0  0  0  0
 15 16  1  0  0  0  0
 15 17  1  0  0  0  0
 14 15  2  0  0  0  0
 14 23  1  0  0  0  0
 11 12  1  0  0  0  0
 11 13  1  0  0  0  0
 11 14  1  0  0  0  0
  9 10  1  0  0  0  0
  9 11  1  0  0  0  0
  9 25  1  0  0  0  0
  7  8  1  0  0  0  0
  7  9  1  0  0  0  0
 29 30  1  0  0  0  0
 29 31  1  0  0  0  0
 29 32  1  0  0  0  0
 27 28  1  0  0  0  0
 27 29  1  0  0  0  0
M  END
$$$$
default_name
  -OEChem-02102213163D

 32 32  0     1  0  0  0  0  0999 V2000
   -3.8405   -3.7518    1.6252 H   0  0  0  0  0  0  0  0  0  0  0  0
   -3.7965   -2.8768    0.9782 C   0  0  0  0  0  0  0  0  0  0  0  0
   -4.5465   -2.1527    1.2902 H   0  0  0  0  0  0  0  0  0  0  0  0
   -3.9745   -3.1748   -0.0538 H   0  0  0  0  0  0  0  0  0  0  0  0
   -2.4245   -2.2537    1.0882 C   0  0  0  0  0  0  0  0  0  0  0  0
   -1.5805   -2.7478    1.8242 O   0  0  0  0  0  0  0  0  0  0  0  0
   -2.2045   -1.1637    0.3562 N   0  0  0  0  0  0  0  0  0  0  0  0
   -2.9595   -0.7907   -0.2008 H   0  0  0  0  0  0  0  0  0  0  0  0
   -0.9485   -0.4087    0.3482 C   0  0  1  0  0  0  0  0  0  0  0  0
   -0.1408   -1.0795    0.0507 H   0  0  0  0  0  0  0  0  0  0  0  0
   -1.0432    0.7243   -0.6879 C   0  0  0  0  0  0  0  0  0  0  0  0
   -0.0404    1.1004   -0.8956 H   0  0  0  0  0  0  0  0  0  0  0  0
   -1.4406    0.3192   -1.6198 H   0  0  0  0  0  0  0  0  0  0  0  0
   -1.9013    1.8937   -0.2443 C   0  0  0  0  0  0  0  0  0  0  0  0
   -3.2613    1.7034    0.0658 C   0  0  0  0  0  0  0  0  0  0  0  0
   -3.7085    0.7243   -0.0328 H   0  0  0  0  0  0  0  0  0  0  0  0
   -4.0406    2.7848    0.5163 C   0  0  0  0  0  0  0  0  0  0  0  0
   -5.0853    2.6370    0.7513 H   0  0  0  0  0  0  0  0  0  0  0  0
   -3.4617    4.0572    0.6593 C   0  0  0  0  0  0  0  0  0  0  0  0
   -4.0611    4.8885    1.0032 H   0  0  0  0  0  0  0  0  0  0  0  0
   -2.1034    4.2512    0.3490 C   0  0  0  0  0  0  0  0  0  0  0  0
   -1.6596    5.2304    0.4537 H   0  0  0  0  0  0  0  0  0  0  0  0
   -1.3256    3.1710   -0.1044 C   0  0  0  0  0  0  0  0  0  0  0  0
   -0.2816    3.3223   -0.3460 H   0  0  0  0  0  0  0  0  0  0  0  0
   -0.6196    0.1253    1.7539 C   0  0  0  0  0  0  0  0  0  0  0  0
    0.5216    0.0194    2.2054 O   0  0  0  0  0  0  0  0  0  0  0  0
   -1.6152    0.6924    2.4469 N   0  0  0  0  0  0  0  0  0  0  0  0
   -2.5345    0.6914    2.0318 H   0  0  0  0  0  0  0  0  0  0  0  0
   -1.4720    1.2390    3.7941 C   0  0  0  0  0  0  0  0  0  0  0  0
   -0.6345    1.9391    3.8219 H   0  0  0  0  0  0  0  0  0  0  0  0
   -2.3844    1.7580    4.0892 H   0  0  0  0  0  0  0  0  0  0  0  0
   -1.2733    0.4298    4.4995 H   0  0  0  0  0  0  0  0  0  0  0  0
  5  6  2  0  0  0  0
  5  7  1  0  0  0  0
  2  3  1  0  0  0  0
  2  4  1  0  0  0  0
  2  5  1  0  0  0  0
  1  2  1  0  0  0  0
 25 26  2  0  0  0  0
 25 27  1  0  0  0  0
 23 24  1  0  0  0  0
 21 22  1  0  0  0  0
 21 23  2  0  0  0  0
 19 20  1  0  0  0  0
 19 21  1  0  0  0  0
 17 18  1  0  0  0  0
 17 19  2  0  0  0  0
 15 16  1  0  0  0  0
 15 17  1  0  0  0  0
 14 15  2  0  0  0  0
 14 23  1  0  0  0  0
 11 12  1  0  0  0  0
 11 13  1  0  0  0  0
 11 14  1  0  0  0  0
  9 10  1  0  0  0  0
  9 11  1  0  0  0  0
  9 25  1  0  0  0  0
  7  8  1  0  0  0  0
  7  9  1  0  0  0  0
 29 30  1  0  0  0  0
 29 31  1  0  0  0  0
 29 32  1  0  0  0  0
 27 28  1  0  0  0  0
 27 29  1  0  0  0  0
M  END
$$$$
default_name
  -OEChem-02102213163D

 32 32  0     1  0  0  0  0  0999 V2000
   -3.8405   -3.7518    1.6252 H   0  0  0  0  0  0  0  0  0  0  0  0
   -3.7965   -2.8768    0.9782 C   0  0  0  0  0  0  0  0  0  0  0  0
   -4.5465   -2.1527    1.2902 H   0  0  0  0  0  0  0  0  0  0  0  0
   -3.9745   -3.1748   -0.0538 H   0  0  0  0  0  0  0  0  0  0  0  0
   -2.4245   -2.2537    1.0882 C   0  0  0  0  0  0  0  0  0  0  0  0
   -1.5805   -2.7478    1.8242 O   0  0  0  0  0  0  0  0  0  0  0  0
   -2.2045   -1.1637    0.3562 N   0  0  0  0  0  0  0  0  0  0  0  0
   -2.9595   -0.7907   -0.2008 H   0  0  0  0  0  0  0  0  0  0  0  0
   -0.9485   -0.4087    0.3482 C   0  0  1  0  0  0  0  0  0  0  0  0
   -0.1408   -1.0795    0.0507 H   0  0  0  0  0  0  0  0  0  0  0  0
   -1.0432    0.7243   -0.6879 C   0  0  0  0  0  0  0  0  0  0  0  0
   -0.0404    1.1004   -0.8956 H   0  0  0  0  0  0  0  0  0  0  0  0
   -1.4406    0.3192   -1.6198 H   0  0  0  0  0  0  0  0  0  0  0  0
   -1.9013    1.8937   -0.2443 C   0  0  0  0  0  0  0  0  0  0  0  0
   -3.1524    1.6710    0.3616 C   0  0  0  0  0  0  0  0  0  0  0  0
   -3.5197    0.6631    0.4937 H   0  0  0  0  0  0  0  0  0  0  0  0
   -3.9243    2.7595    0.8079 C   0  0  0  0  0  0  0  0  0  0  0  0
   -4.8858    2.5864    1.2705 H   0  0  0  0  0  0  0  0  0  0  0  0
   -3.4463    4.0716    0.6512 C   0  0  0  0  0  0  0  0  0  0  0  0
   -4.0404    4.9080    0.9920 H   0  0  0  0  0  0  0  0  0  0  0  0
   -2.1972    4.2978    0.0449 C   0  0  0  0  0  0  0  0  0  0  0  0
   -1.8321    5.3066   -0.0805 H   0  0  0  0  0  0  0  0  0  0  0  0
   -1.4275    3.2099   -0.4040 C   0  0  0  0  0  0  0  0  0  0  0  0
   -0.4682    3.3854   -0.8734 H   0  0  0  0  0  0  0  0  0  0  0  0
   -0.6196    0.1253    1.7539 C   0  0  0  0  0  0  0  0  0  0  0  0
    0.5216    0.0194    2.2054 O   0  0  0  0  0  0  0  0  0  0  0  0
   -1.6152    0.6924    2.4469 N   0  0  0  0  0  0  0  0  0  0  0  0
   -2.5345    0.6914    2.0318 H   0  0  0  0  0  0  0  0  0  0  0  0
   -1.4720    1.2390    3.7941 C   0  0  0  0  0  0  0  0  0  0  0  0
   -0.6345    1.9391    3.8219 H   0  0  0  0  0  0  0  0  0  0  0  0
   -2.3844    1.7580    4.0892 H   0  0  0  0  0  0  0  0  0  0  0  0
   -1.2733    0.4298    4.4995 H   0  0  0  0  0  0  0  0  0  0  0  0
  5  6  2  0  0  0  0
  5  7  1  0  0  0  0
  2  3  1  0  0  0  0
  2  4  1  0  0  0  0
  2  5  1  0  0  0  0
  1  2  1  0  0  0  0
 25 26  2  0  0  0  0
 25 27  1  0  0  0  0
 23 24  1  0  0  0  0
 21 22  1  0  0  0  0
 21 23  2  0  0  0  0
 19 20  1  0  0  0  0
 19 21  1  0  0  0  0
 17 18  1  0  0  0  0
 17 19  2  0  0  0  0
 15 16  1  0  0  0  0
 15 17  1  0  0  0  0
 14 15  2  0  0  0  0
 14 23  1  0  0  0  0
 11 12  1  0  0  0  0
 11 13  1  0  0  0  0
 11 14  1  0  0  0  0
  9 10  1  0  0  0  0
  9 11  1  0  0  0  0
  9 25  1  0  0  0  0
  7  8  1  0  0  0  0
  7  9  1  0  0  0  0
 29 30  1  0  0  0  0
 29 31  1  0  0  0  0
 29 32  1  0  0  0  0
 27 28  1  0  0  0  0
 27 29  1  0  0  0  0
M  END
$$$$
default_name
  -OEChem-02102213163D

 32 32  0     1  0  0  0  0  0999 V2000
   -3.8405   -3.7518    1.6252 H   0  0  0  0  0  0  0  0  0  0  0  0
   -3.7965   -2.8768    0.9782 C   0  0  0  0  0  0  0  0  0  0  0  0
   -4.5465   -2.1527    1.2902 H   0  0  0  0  0  0  0  0  0  0  0  0
   -3.9745   -3.1748   -0.0538 H   0  0  0  0  0  0  0  0  0  0  0  0
   -2.4245   -2.2537    1.0882 C   0  0  0  0  0  0  0  0  0  0  0  0
   -1.5805   -2.7478    1.8242 O   0  0  0  0  0  0  0  0  0  0  0  0
   -2.2045   -1.1637    0.3562 N   0  0  0  0  0  0  0  0  0  0  0  0
   -2.9595   -0.7907   -0.2008 H   0  0  0  0  0  0  0  0  0  0  0  0
   -0.9485   -0.4087    0.3482 C   0  0  1  0  0  0  0  0  0  0  0  0
   -0.1408   -1.0795    0.0507 H   0  0  0  0  0  0  0  0  0  0  0  0
   -1.0432    0.7243   -0.6879 C   0  0  0  0  0  0  0  0  0  0  0  0
   -0.0404    1.1004   -0.8956 H   0  0  0  0  0  0  0  0  0  0  0  0
   -1.4406    0.3192   -1.6198 H   0  0  0  0  0  0  0  0  0  0  0  0
   -1.9013    1.8937   -0.2443 C   0  0  0  0  0  0  0  0  0  0  0  0
   -2.9858    1.6913    0.6303 C   0  0  0  0  0  0  0  0  0  0  0  0
   -3.2277    0.6953    0.9735 H   0  0  0  0  0  0  0  0  0  0  0  0
   -3.7518    2.7866    1.0701 C   0  0  0  0  0  0  0  0  0  0  0  0
   -4.5857    2.6287    1.7396 H   0  0  0  0  0  0  0  0  0  0  0  0
   -3.4341    4.0855    0.6382 C   0  0  0  0  0  0  0  0  0  0  0  0
   -4.0241    4.9267    0.9742 H   0  0  0  0  0  0  0  0  0  0  0  0
   -2.3520    4.2911   -0.2369 C   0  0  0  0  0  0  0  0  0  0  0  0
   -2.1110    5.2888   -0.5733 H   0  0  0  0  0  0  0  0  0  0  0  0
   -1.5887    3.1959   -0.6789 C   0  0  0  0  0  0  0  0  0  0  0  0
   -0.7585    3.3551   -1.3547 H   0  0  0  0  0  0  0  0  0  0  0  0
   -0.6196    0.1253    1.7539 C   0  0  0  0  0  0  0  0  0  0  0  0
    0.5216    0.0194    2.2054 O   0  0  0  0  0  0  0  0  0  0  0  0
   -1.6152    0.6924    2.4469 N   0  0  0  0  0  0  0  0  0  0  0  0
   -2.5345    0.6914    2.0318 H   0  0  0  0  0  0  0  0  0  0  0  0
   -1.4720    1.2390    3.7941 C   0  0  0  0  0  0  0  0  0  0  0  0
   -0.6345    1.9391    3.8219 H   0  0  0  0  0  0  0  0  0  0  0  0
   -2.3844    1.7580    4.0892 H   0  0  0  0  0  0  0  0  0  0  0  0
   -1.2733    0.4298    4.4995 H   0  0  0  0  0  0  0  0  0  0  0  0
  5  6  2  0  0  0  0
  5  7  1  0  0  0  0
  2  3  1  0  0  0  0
  2  4  1  0  0  0  0
  2  5  1  0  0  0  0
  1  2  1  0  0  0  0
 25 26  2  0  0  0  0
 25 27  1  0  0  0  0
 23 24  1  0  0  0  0
 21 22  1  0  0  0  0
 21 23  2  0  0  0  0
 19 20  1  0  0  0  0
 19 21  1  0  0  0  0
 17 18  1  0  0  0  0
 17 19  2  0  0  0  0
 15 16  1  0  0  0  0
 15 17  1  0  0  0  0
 14 15  2  0  0  0  0
 14 23  1  0  0  0  0
 11 12  1  0  0  0  0
 11 13  1  0  0  0  0
 11 14  1  0  0  0  0
  9 10  1  0  0  0  0
  9 11  1  0  0  0  0
  9 25  1  0  0  0  0
  7  8  1  0  0  0  0
  7  9  1  0  0  0  0
 29 30  1  0  0  0  0
 29 31  1  0  0  0  0
 29 32  1  0  0  0  0
 27 28  1  0  0  0  0
 27 29  1  0  0  0  0
M  END
$$$$
default_name
  -OEChem-02102213163D

 32 32  0     1  0  0  0  0  0999 V2000
   -3.8405   -3.7518    1.6252 H   0  0  0  0  0  0  0  0  0  0  0  0
   -3.7965   -2.8768    0.9782 C   0  0  0  0  0  0  0  0  0  0  0  0
   -4.5465   -2.1527    1.2902 H   0  0  0  0  0  0  0  0  0  0  0  0
   -3.9745   -3.1748   -0.0538 H   0  0  0  0  0  0  0  0  0  0  0  0
   -2.4245   -2.2537    1.0882 C   0  0  0  0  0  0  0  0  0  0  0  0
   -1.5805   -2.7478    1.8242 O   0  0  0  0  0  0  0  0  0  0  0  0
   -2.2045   -1.1637    0.3562 N   0  0  0  0  0  0  0  0  0  0  0  0
   -2.9595   -0.7907   -0.2008 H   0  0  0  0  0  0  0  0  0  0  0  0
   -0.9485   -0.4087    0.3482 C   0  0  1  0  0  0  0  0  0  0  0  0
   -0.1408   -1.0795    0.0507 H   0  0  0  0  0  0  0  0  0  0  0  0
   -1.0432    0.7243   -0.6879 C   0  0  0  0  0  0  0  0  0  0  0  0
   -0.0404    1.1004   -0.8956 H   0  0  0  0  0  0  0  0  0  0  0  0
   -1.4406    0.3192   -1.6198 H   0  0  0  0  0  0  0  0  0  0  0  0
   -1.9013    1.8937   -0.2443 C   0  0  0  0  0  0  0  0  0  0  0  0
   -2.7727    1.7629    0.8536 C   0  0  0  0  0  0  0  0  0  0  0  0
   -2.8523    0.8189    1.3739 H   0  0  0  0  0  0  0  0  0  0  0  0
   -3.5350    2.8642    1.2850 C   0  0  0  0  0  0  0  0  0  0  0  0
   -4.2054    2.7609    2.1266 H   0  0  0  0  0  0  0  0  0  0  0  0
   -3.4260    4.0979    0.6211 C   0  0  0  0  0  0  0  0  0  0  0  0
   -4.0134    4.9434    0.9510 H   0  0  0  0  0  0  0  0  0  0  0  0
   -2.5573    4.2317   -0.4773 C   0  0  0  0  0  0  0  0  0  0  0  0
   -2.4774    5.1784   -0.9911 H   0  0  0  0  0  0  0  0  0  0  0  0
   -1.7981    3.1300   -0.9101 C   0  0  0  0  0  0  0  0  0  0  0  0
   -1.1327    3.2333   -1.7574 H   0  0  0  0  0  0  0  0  0  0  0  0
   -0.6196    0.1253    1.7539 C   0  0  0  0  0  0  0  0  0  0  0  0
    0.5216    0.0194    2.2054 O   0  0  0  0  0  0  0  0  0  0  0  0
   -1.6152    0.6924    2.4469 N   0  0  0  0  0  0  0  0  0  0  0  0
   -2.5345    0.6914    2.0318 H   0  0  0  0  0  0  0  0  0  0  0  0
   -1.4720    1.2390    3.7941 C   0  0  0  0  0  0  0  0  0  0  0  0
   -0.6345    1.9391    3.8219 H   0  0  0  0  0  0  0  0  0  0  0  0
   -2.3844    1.7580    4.0892 H   0  0  0  0  0  0  0  0  0  0  0  0
   -1.2733    0.4298    4.4995 H   0  0  0  0  0  0  0  0  0  0  0  0
  5  6  2  0  0  0  0
  5  7  1  0  0  0  0
  2  3  1  0  0  0  0
  2  4  1  0  0  0  0
  2  5  1  0  0  0  0
  1  2  1  0  0  0  0
 25 26  2  0  0  0  0
 25 27  1  0  0  0  0
 23 24  1  0  0  0  0
 21 22  1  0  0  0  0
 21 23  2  0  0  0  0
 19 20  1  0  0  0  0
 19 21  1  0  0  0  0
 17 18  1  0  0  0  0
 17 19  2  0  0  0  0
 15 16  1  0  0  0  0
 15 17  1  0  0  0  0
 14 15  2  0  0  0  0
 14 23  1  0  0  0  0
 11 12  1  0  0  0  0
 11 13  1  0  0  0  0
 11 14  1  0  0  0  0
  9 10  1  0  0  0  0
  9 11  1  0  0  0  0
  9 25  1  0  0  0  0
  7  8  1  0  0  0  0
  7  9  1  0  0  0  0
 29 30  1  0  0  0  0
 29 31  1  0  0  0  0
 29 32  1  0  0  0  0
 27 28  1  0  0  0  0
 27 29  1  0  0  0  0
M  END
$$$$
default_name
  -OEChem-02102213163D

 32 32  0     1  0  0  0  0  0999 V2000
   -3.8405   -3.7518    1.6252 H   0  0  0  0  0  0  0  0  0  0  0  0
   -3.7965   -2.8768    0.9782 C   0  0  0  0  0  0  0  0  0  0  0  0
   -4.5465   -2.1527    1.2902 H   0  0  0  0  0  0  0  0  0  0  0  0
   -3.9745   -3.1748   -0.0538 H   0  0  0  0  0  0  0  0  0  0  0  0
   -2.4245   -2.2537    1.0882 C   0  0  0  0  0  0  0  0  0  0  0  0
   -1.5805   -2.7478    1.8242 O   0  0  0  0  0  0  0  0  0  0  0  0
   -2.2045   -1.1637    0.3562 N   0  0  0  0  0  0  0  0  0  0  0  0
   -2.9595   -0.7907   -0.2008 H   0  0  0  0  0  0  0  0  0  0  0  0
   -0.9485   -0.4087    0.3482 C   0  0  1  0  0  0  0  0  0  0  0  0
   -0.1408   -1.0795    0.0507 H   0  0  0  0  0  0  0  0  0  0  0  0
   -1.0432    0.7243   -0.6879 C   0  0  0  0  0  0  0  0  0  0  0  0
   -0.0404    1.1004   -0.8956 H   0  0  0  0  0  0  0  0  0  0  0  0
   -1.4406    0.3192   -1.6198 H   0  0  0  0  0  0  0  0  0  0  0  0
   -1.9013    1.8937   -0.2443 C   0  0  0  0  0  0  0  0  0  0  0  0
   -2.5278    1.8809    1.0164 C   0  0  0  0  0  0  0  0  0  0  0  0
   -2.4191    1.0252    1.6678 H   0  0  0  0  0  0  0  0  0  0  0  0
   -3.2885    2.9871    1.4379 C   0  0  0  0  0  0  0  0  0  0  0  0
   -3.7708    2.9741    2.4052 H   0  0  0  0  0  0  0  0  0  0  0  0
   -3.4225    4.1081    0.6012 C   0  0  0  0  0  0  0  0  0  0  0  0
   -4.0089    4.9569    0.9241 H   0  0  0  0  0  0  0  0  0  0  0  0
   -2.7990    4.1235   -0.6598 C   0  0  0  0  0  0  0  0  0  0  0  0
   -2.9064    4.9829   -1.3053 H   0  0  0  0  0  0  0  0  0  0  0  0
   -2.0416    3.0166   -1.0821 C   0  0  0  0  0  0  0  0  0  0  0  0
   -1.5652    3.0284   -2.0538 H   0  0  0  0  0  0  0  0  0  0  0  0
   -0.6196    0.1253    1.7539 C   0  0  0  0  0  0  0  0  0  0  0  0
    0.5216    0.0194    2.2054 O   0  0  0  0  0  0  0  0  0  0  0  0
   -1.6152    0.6924    2.4469 N   0  0  0  0  0  0  0  0  0  0  0  0
   -2.5345    0.6914    2.0318 H   0  0  0  0  0  0  0  0  0  0  0  0
   -1.4720    1.2390    3.7941 C   0  0  0  0  0  0  0  0  0  0  0  0
   -0.6345    1.9391    3.8219 H   0  0  0  0  0  0  0  0  0  0  0  0
   -2.3844    1.7580    4.0892 H   0  0  0  0  0  0  0  0  0  0  0  0
   -1.2733    0.4298    4.4995 H   0  0  0  0  0  0  0  0  0  0  0  0
  5  6  2  0  0  0  0
  5  7  1  0  0  0  0
  2  3  1  0  0  0  0
  2  4  1  0  0  0  0
  2  5  1  0  0  0  0
  1  2  1  0  0  0  0
 25 26  2  0  0  0  0
 25 27  1  0  0  0  0
 23 24  1  0  0  0  0
 21 22  1  0  0  0  0
 21 23  2  0  0  0  0
 19 20  1  0  0  0  0
 19 21  1  0  0  0  0
 17 18  1  0  0  0  0
 17 19  2  0  0  0  0
 15 16  1  0  0  0  0
 15 17  1  0  0  0  0
 14 15  2  0  0  0  0
 14 23  1  0  0  0  0
 11 12  1  0  0  0  0
 11 13  1  0  0  0  0
 11 14  1  0  0  0  0
  9 10  1  0  0  0  0
  9 11  1  0  0  0  0
  9 25  1  0  0  0  0
  7  8  1  0  0  0  0
  7  9  1  0  0  0  0
 29 30  1  0  0  0  0
 29 31  1  0  0  0  0
 29 32  1  0  0  0  0
 27 28  1  0  0  0  0
 27 29  1  0  0  0  0
M  END
$$$$
default_name
  -OEChem-02102213163D

 32 32  0     1  0  0  0  0  0999 V2000
   -3.8405   -3.7518    1.6252 H   0  0  0  0  0  0  0  0  0  0  0  0
   -3.7965   -2.8768    0.9782 C   0  0  0  0  0  0  0  0  0  0  0  0
   -4.5465   -2.1527    1.2902 H   0  0  0  0  0  0  0  0  0  0  0  0
   -3.9745   -3.1748   -0.0538 H   0  0  0  0  0  0  0  0  0  0  0  0
   -2.4245   -2.2537    1.0882 C   0  0  0  0  0  0  0  0  0  0  0  0
   -1.5805   -2.7478    1.8242 O   0  0  0  0  0  0  0  0  0  0  0  0
   -2.2045   -1.1637    0.3562 N   0  0  0  0  0  0  0  0  0  0  0  0
   -2.9595   -0.7907   -0.2008 H   0  0  0  0  0  0  0  0  0  0  0  0
   -0.9485   -0.4087    0.3482 C   0  0  1  0  0  0  0  0  0  0  0  0
   -0.1408   -1.0795    0.0507 H   0  0  0  0  0  0  0  0  0  0  0  0
   -1.0432    0.7243   -0.6879 C   0  0  0  0  0  0  0  0  0  0  0  0
   -0.0404    1.1004   -0.8956 H   0  0  0  0  0  0  0  0  0  0  0  0
   -1.4406    0.3192   -1.6198 H   0  0  0  0  0  0  0  0  0  0  0  0
   -1.9013    1.8937   -0.2443 C   0  0  0  0  0  0  0  0  0  0  0  0
   -2.2677    2.0372    1.1074 C   0  0  0  0  0  0  0  0  0  0  0  0
   -1.9577    1.3004    1.8349 H   0  0  0  0  0  0  0  0  0  0  0  0
   -3.0292    3.1468    1.5184 C   0  0  0  0  0  0  0  0  0  0  0  0
   -3.3116    3.2537    2.5563 H   0  0  0  0  0  0  0  0  0  0  0  0
   -3.4239    4.1152    0.5798 C   0  0  0  0  0  0  0  0  0  0  0  0
   -4.0109    4.9664    0.8951 H   0  0  0  0  0  0  0  0  0  0  0  0
   -3.0607    3.9741   -0.7720 C   0  0  0  0  0  0  0  0  0  0  0  0
   -3.3686    4.7155   -1.4946 H   0  0  0  0  0  0  0  0  0  0  0  0
   -2.3025    2.8634   -1.1830 C   0  0  0  0  0  0  0  0  0  0  0  0
   -2.0266    2.7543   -2.2238 H   0  0  0  0  0  0  0  0  0  0  0  0
   -0.6196    0.1253    1.7539 C   0  0  0  0  0  0  0  0  0  0  0  0
    0.5216    0.0194    2.2054 O   0  0  0  0  0  0  0  0  0  0  0  0
   -1.6152    0.6924    2.4469 N   0  0  0  0  0  0  0  0  0  0  0  0
   -2.5345    0.6914    2.0318 H   0  0  0  0  0  0  0  0  0  0  0  0
   -1.4720    1.2390    3.7941 C   0  0  0  0  0  0  0  0  0  0  0  0
   -0.6345    1.9391    3.8219 H   0  0  0  0  0  0  0  0  0  0  0  0
   -2.3844    1.7580    4.0892 H   0  0  0  0  0  0  0  0  0  0  0  0
   -1.2733    0.4298    4.4995 H   0  0  0  0  0  0  0  0  0  0  0  0
  5  6  2  0  0  0  0
  5  7  1  0  0  0  0
  2  3  1  0  0  0  0
  2  4  1  0  0  0  0
  2  5  1  0  0  0  0
  1  2  1  0  0  0  0
 25 26  2  0  0  0  0
 25 27  1  0  0  0  0
 23 24  1  0  0  0  0
 21 22  1  0  0  0  0
 21 23  2  0  0  0  0
 19 20  1  0  0  0  0
 19 21  1  0  0  0  0
 17 18  1  0  0  0  0
 17 19  2  0  0  0  0
 15 16  1  0  0  0  0
 15 17  1  0  0  0  0
 14 15  2  0  0  0  0
 14 23  1  0  0  0  0
 11 12  1  0  0  0  0
 11 13  1  0  0  0  0
 11 14  1  0  0  0  0
  9 10  1  0  0  0  0
  9 11  1  0  0  0  0
  9 25  1  0  0  0  0
  7  8  1  0  0  0  0
  7  9  1  0  0  0  0
 29 30  1  0  0  0  0
 29 31  1  0  0  0  0
 29 32  1  0  0  0  0
 27 28  1  0  0  0  0
 27 29  1  0  0  0  0
M  END
$$$$
default_name
  -OEChem-02102213163D

 32 32  0     1  0  0  0  0  0999 V2000
   -3.8405   -3.7518    1.6252 H   0  0  0  0  0  0  0  0  0  0  0  0
   -3.7965   -2.8768    0.9782 C   0  0  0  0  0  0  0  0  0  0  0  0
   -4.5465   -2.1527    1.2902 H   0  0  0  0  0  0  0  0  0  0  0  0
   -3.9745   -3.1748   -0.0538 H   0  0  0  0  0  0  0  0  0  0  0  0
   -2.4245   -2.2537    1.0882 C   0  0  0  0  0  0  0  0  0  0  0  0
   -1.5805   -2.7478    1.8242 O   0  0  0  0  0  0  0  0  0  0  0  0
   -2.2045   -1.1637    0.3562 N   0  0  0  0  0  0  0  0  0  0  0  0
   -2.9595   -0.7907   -0.2008 H   0  0  0  0  0  0  0  0  0  0  0  0
   -0.9485   -0.4087    0.3482 C   0  0  1  0  0  0  0  0  0  0  0  0
   -0.1408   -1.0795    0.0507 H   0  0  0  0  0  0  0  0  0  0  0  0
   -1.0432    0.7243   -0.6879 C   0  0  0  0  0  0  0  0  0  0  0  0
   -0.0404    1.1004   -0.8956 H   0  0  0  0  0  0  0  0  0  0  0  0
   -1.4406    0.3192   -1.6198 H   0  0  0  0  0  0  0  0  0  0  0  0
   -1.9013    1.8937   -0.2443 C   0  0  0  0  0  0  0  0  0  0  0  0
   -2.0101    2.2212    1.1206 C   0  0  0  0  0  0  0  0  0  0  0  0
   -1.4995    1.6255    1.8641 H   0  0  0  0  0  0  0  0  0  0  0  0
   -2.7748    3.3325    1.5211 C   0  0  0  0  0  0  0  0  0  0  0  0
   -2.8591    3.5806    2.5698 H   0  0  0  0  0  0  0  0  0  0  0  0
   -3.4300    4.1188    0.5583 C   0  0  0  0  0  0  0  0  0  0  0  0
   -4.0194    4.9711    0.8662 H   0  0  0  0  0  0  0  0  0  0  0  0
   -3.3246    3.7935   -0.8063 C   0  0  0  0  0  0  0  0  0  0  0  0
   -3.8326    4.3946   -1.5460 H   0  0  0  0  0  0  0  0  0  0  0  0
   -2.5630    2.6809   -1.2059 C   0  0  0  0  0  0  0  0  0  0  0  0
   -2.4855    2.4297   -2.2558 H   0  0  0  0  0  0  0  0  0  0  0  0
   -0.6196    0.1253    1.7539 C   0  0  0  0  0  0  0  0  0  0  0  0
    0.5216    0.0194    2.2054 O   0  0  0  0  0  0  0  0  0  0  0  0
   -1.6152    0.6924    2.4469 N   0  0  0  0  0  0  0  0  0  0  0  0
   -2.5345    0.6914    2.0318 H   0  0  0  0  0  0  0  0  0  0  0  0
   -1.4720    1.2390    3.7941 C   0  0  0  0  0  0  0  0  0  0  0  0
   -0.6345    1.9391    3.8219 H   0  0  0  0  0  0  0  0  0  0  0  0
   -2.3844    1.7580    4.0892 H   0  0  0  0  0  0  0  0  0  0  0  0
   -1.2733    0.4298    4.4995 H   0  0  0  0  0  0  0  0  0  0  0  0
  5  6  2  0  0  0  0
  5  7  1  0  0  0  0
  2  3  1  0  0  0  0
  2  4  1  0  0  0  0
  2  5  1  0  0  0  0
  1  2  1  0  0  0  0
 25 26  2  0  0  0  0
 25 27  1  0  0  0  0
 23 24  1  0  0  0  0
 21 22  1  0  0  0  0
 21 23  2  0  0  0  0
 19 20  1  0  0  0  0
 19 21  1  0  0  0  0
 17 18  1  0  0  0  0
 17 19  2  0  0  0  0
 15 16  1  0  0  0  0
 15 17  1  0  0  0  0
 14 15  2  0  0  0  0
 14 23  1  0  0  0  0
 11 12  1  0  0  0  0
 11 13  1  0  0  0  0
 11 14  1  0  0  0  0
  9 10  1  0  0  0  0
  9 11  1  0  0  0  0
  9 25  1  0  0  0  0
  7  8  1  0  0  0  0
  7  9  1  0  0  0  0
 29 30  1  0  0  0  0
 29 31  1  0  0  0  0
 29 32  1  0  0  0  0
 27 28  1  0  0  0  0
 27 29  1  0  0  0  0
M  END
$$$$
default_name
  -OEChem-02102213163D

 32 32  0     1  0  0  0  0  0999 V2000
   -3.8405   -3.7518    1.6252 H   0  0  0  0  0  0  0  0  0  0  0  0
   -3.7965   -2.8768    0.9782 C   0  0  0  0  0  0  0  0  0  0  0  0
   -4.5465   -2.1527    1.2902 H   0  0  0  0  0  0  0  0  0  0  0  0
   -3.9745   -3.1748   -0.0538 H   0  0  0  0  0  0  0  0  0  0  0  0
   -2.4245   -2.2537    1.0882 C   0  0  0  0  0  0  0  0  0  0  0  0
   -1.5805   -2.7478    1.8242 O   0  0  0  0  0  0  0  0  0  0  0  0
   -2.2045   -1.1637    0.3562 N   0  0  0  0  0  0  0  0  0  0  0  0
   -2.9595   -0.7907   -0.2008 H   0  0  0  0  0  0  0  0  0  0  0  0
   -0.9485   -0.4087    0.3482 C   0  0  1  0  0  0  0  0  0  0  0  0
   -0.1408   -1.0795    0.0507 H   0  0  0  0  0  0  0  0  0  0  0  0
   -1.0432    0.7243   -0.6879 C   0  0  0  0  0  0  0  0  0  0  0  0
   -0.0404    1.1004   -0.8956 H   0  0  0  0  0  0  0  0  0  0  0  0
   -1.4406    0.3192   -1.6198 H   0  0  0  0  0  0  0  0  0  0  0  0
   -1.9013    1.8937   -0.2443 C   0  0  0  0  0  0  0  0  0  0  0  0
   -1.7726    2.4204    1.0550 C   0  0  0  0  0  0  0  0  0  0  0  0
   -1.0757    1.9786    1.7531 H   0  0  0  0  0  0  0  0  0  0  0  0
   -2.5425    3.5315    1.4457 C   0  0  0  0  0  0  0  0  0  0  0  0
   -2.4440    3.9327    2.4446 H   0  0  0  0  0  0  0  0  0  0  0  0
   -3.4405    4.1187    0.5383 C   0  0  0  0  0  0  0  0  0  0  0  0
   -4.0337    4.9709    0.8392 H   0  0  0  0  0  0  0  0  0  0  0  0
   -3.5726    3.5940   -0.7603 C   0  0  0  0  0  0  0  0  0  0  0  0
   -4.2668    4.0419   -1.4561 H   0  0  0  0  0  0  0  0  0  0  0  0
   -2.8055    2.4816   -1.1494 C   0  0  0  0  0  0  0  0  0  0  0  0
   -2.9105    2.0768   -2.1476 H   0  0  0  0  0  0  0  0  0  0  0  0
   -0.6196    0.1253    1.7539 C   0  0  0  0  0  0  0  0  0  0  0  0
    0.5216    0.0194    2.2054 O   0  0  0  0  0  0  0  0  0  0  0  0
   -1.6152    0.6924    2.4469 N   0  0  0  0  0  0  0  0  0  0  0  0
   -2.5345    0.6914    2.0318 H   0  0  0  0  0  0  0  0  0  0  0  0
   -1.4720    1.2390    3.7941 C   0  0  0  0  0  0  0  0  0  0  0  0
   -0.6345    1.9391    3.8219 H   0  0  0  0  0  0  0  0  0  0  0  0
   -2.3844    1.7580    4.0892 H   0  0  0  0  0  0  0  0  0  0  0  0
   -1.2733    0.4298    4.4995 H   0  0  0  0  0  0  0  0  0  0  0  0
  5  6  2  0  0  0  0
  5  7  1  0  0  0  0
  2  3  1  0  0  0  0
  2  4  1  0  0  0  0
  2  5  1  0  0  0  0
  1  2  1  0  0  0  0
 25 26  2  0  0  0  0
 25 27  1  0  0  0  0
 23 24  1  0  0  0  0
 21 22  1  0  0  0  0
 21 23  2  0  0  0  0
 19 20  1  0  0  0  0
 19 21  1  0  0  0  0
 17 18  1  0  0  0  0
 17 19  2  0  0  0  0
 15 16  1  0  0  0  0
 15 17  1  0  0  0  0
 14 15  2  0  0  0  0
 14 23  1  0  0  0  0
 11 12  1  0  0  0  0
 11 13  1  0  0  0  0
 11 14  1  0  0  0  0
  9 10  1  0  0  0  0
  9 11  1  0  0  0  0
  9 25  1  0  0  0  0
  7  8  1  0  0  0  0
  7  9  1  0  0  0  0
 29 30  1  0  0  0  0
 29 31  1  0  0  0  0
 29 32  1  0  0  0  0
 27 28  1  0  0  0  0
 27 29  1  0  0  0  0
M  END
$$$$
default_name
  -OEChem-02102213163D

 32 32  0     1  0  0  0  0  0999 V2000
   -3.8405   -3.7518    1.6252 H   0  0  0  0  0  0  0  0  0  0  0  0
   -3.7965   -2.8768    0.9782 C   0  0  0  0  0  0  0  0  0  0  0  0
   -4.5465   -2.1527    1.2902 H   0  0  0  0  0  0  0  0  0  0  0  0
   -3.9745   -3.1748   -0.0538 H   0  0  0  0  0  0  0  0  0  0  0  0
   -2.4245   -2.2537    1.0882 C   0  0  0  0  0  0  0  0  0  0  0  0
   -1.5805   -2.7478    1.8242 O   0  0  0  0  0  0  0  0  0  0  0  0
   -2.2045   -1.1637    0.3562 N   0  0  0  0  0  0  0  0  0  0  0  0
   -2.9595   -0.7907   -0.2008 H   0  0  0  0  0  0  0  0  0  0  0  0
   -0.9485   -0.4087    0.3482 C   0  0  1  0  0  0  0  0  0  0  0  0
   -0.1408   -1.0795    0.0507 H   0  0  0  0  0  0  0  0  0  0  0  0
   -1.0432    0.7243   -0.6879 C   0  0  0  0  0  0  0  0  0  0  0  0
   -0.0404    1.1004   -0.8956 H   0  0  0  0  0  0  0  0  0  0  0  0
   -1.4406    0.3192   -1.6198 H   0  0  0  0  0  0  0  0  0  0  0  0
   -1.9013    1.8937   -0.2443 C   0  0  0  0  0  0  0  0  0  0  0  0
   -1.5713    2.6212    0.9150 C   0  0  0  0  0  0  0  0  0  0  0  0
   -0.7152    2.3355    1.5097 H   0  0  0  0  0  0  0  0  0  0  0  0
   -2.3483    3.7302    1.2974 C   0  0  0  0  0  0  0  0  0  0  0  0
   -2.0947    4.2859    2.1893 H   0  0  0  0  0  0  0  0  0  0  0  0
   -3.4546    4.1149    0.5210 C   0  0  0  0  0  0  0  0  0  0  0  0
   -4.0529    4.9656    0.8161 H   0  0  0  0  0  0  0  0  0  0  0  0
   -3.7880    3.3893   -0.6372 C   0  0  0  0  0  0  0  0  0  0  0  0
   -4.6415    3.6815   -1.2310 H   0  0  0  0  0  0  0  0  0  0  0  0
   -3.0133    2.2790   -1.0172 C   0  0  0  0  0  0  0  0  0  0  0  0
   -3.2728    1.7195   -1.9066 H   0  0  0  0  0  0  0  0  0  0  0  0
   -0.6196    0.1253    1.7539 C   0  0  0  0  0  0  0  0  0  0  0  0
    0.5216    0.0194    2.2054 O   0  0  0  0  0  0  0  0  0  0  0  0
   -1.6152    0.6924    2.4469 N   0  0  0  0  0  0  0  0  0  0  0  0
   -2.5345    0.6914    2.0318 H   0  0  0  0  0  0  0  0  0  0  0  0
   -1.4720    1.2390    3.7941 C   0  0  0  0  0  0  0  0  0  0  0  0
   -0.6345    1.9391    3.8219 H   0  0  0  0  0  0  0  0  0  0  0  0
   -2.3844    1.7580    4.0892 H   0  0  0  0  0  0  0  0  0  0  0  0
   -1.2733    0.4298    4.4995 H   0  0  0  0  0  0  0  0  0  0  0  0
  5  6  2  0  0  0  0
  5  7  1  0  0  0  0
  2  3  1  0  0  0  0
  2  4  1  0  0  0  0
  2  5  1  0  0  0  0
  1  2  1  0  0  0  0
 25 26  2  0  0  0  0
 25 27  1  0  0  0  0
 23 24  1  0  0  0  0
 21 22  1  0  0  0  0
 21 23  2  0  0  0  0
 19 20  1  0  0  0  0
 19 21  1  0  0  0  0
 17 18  1  0  0  0  0
 17 19  2  0  0  0  0
 15 16  1  0  0  0  0
 15 17  1  0  0  0  0
 14 15  2  0  0  0  0
 14 23  1  0  0  0  0
 11 12  1  0  0  0  0
 11 13  1  0  0  0  0
 11 14  1  0  0  0  0
  9 10  1  0  0  0  0
  9 11  1  0  0  0  0
  9 25  1  0  0  0  0
  7  8  1  0  0  0  0
  7  9  1  0  0  0  0
 29 30  1  0  0  0  0
 29 31  1  0  0  0  0
 29 32  1  0  0  0  0
 27 28  1  0  0  0  0
 27 29  1  0  0  0  0
M  END
$$$$
default_name
  -OEChem-02102213163D

 32 32  0     1  0  0  0  0  0999 V2000
   -3.8405   -3.7518    1.6252 H   0  0  0  0  0  0  0  0  0  0  0  0
   -3.7965   -2.8768    0.9782 C   0  0  0  0  0  0  0  0  0  0  0  0
   -4.5465   -2.1527    1.2902 H   0  0  0  0  0  0  0  0  0  0  0  0
   -3.9745   -3.1748   -0.0538 H   0  0  0  0  0  0  0  0  0  0  0  0
   -2.4245   -2.2537    1.0882 C   0  0  0  0  0  0  0  0  0  0  0  0
   -1.5805   -2.7478    1.8242 O   0  0  0  0  0  0  0  0  0  0  0  0
   -2.2045   -1.1637    0.3562 N   0  0  0  0  0  0  0  0  0  0  0  0
   -2.9595   -0.7907   -0.2008 H   0  0  0  0  0  0  0  0  0  0  0  0
   -0.9485   -0.4087    0.3482 C   0  0  1  0  0  0  0  0  0  0  0  0
   -0.1408   -1.0795    0.0507 H   0  0  0  0  0  0  0  0  0  0  0  0
   -1.0432    0.7243   -0.6879 C   0  0  0  0  0  0  0  0  0  0  0  0
   -0.0404    1.1004   -0.8956 H   0  0  0  0  0  0  0  0  0  0  0  0
   -1.4406    0.3192   -1.6198 H   0  0  0  0  0  0  0  0  0  0  0  0
   -1.9013    1.8937   -0.2443 C   0  0  0  0  0  0  0  0  0  0  0  0
   -1.4201    2.8099    0.7103 C   0  0  0  0  0  0  0  0  0  0  0  0
   -0.4426    2.6718    1.1504 H   0  0  0  0  0  0  0  0  0  0  0  0
   -2.2053    3.9152    1.0863 C   0  0  0  0  0  0  0  0  0  0  0  0
   -1.8350    4.6160    1.8213 H   0  0  0  0  0  0  0  0  0  0  0  0
   -3.4714    4.1076    0.5077 C   0  0  0  0  0  0  0  0  0  0  0  0
   -4.0756    4.9556    0.7984 H   0  0  0  0  0  0  0  0  0  0  0  0
   -3.9559    3.1933   -0.4453 C   0  0  0  0  0  0  0  0  0  0  0  0
   -4.9313    3.3380   -0.8861 H   0  0  0  0  0  0  0  0  0  0  0  0
   -3.1723    2.0869   -0.8184 C   0  0  0  0  0  0  0  0  0  0  0  0
   -3.5475    1.3823   -1.5492 H   0  0  0  0  0  0  0  0  0  0  0  0
   -0.6196    0.1253    1.7539 C   0  0  0  0  0  0  0  0  0  0  0  0
    0.5216    0.0194    2.2054 O   0  0  0  0  0  0  0  0  0  0  0  0
   -1.6152    0.6924    2.4469 N   0  0  0  0  0  0  0  0  0  0  0  0
   -2.5345    0.6914    2.0318 H   0  0  0  0  0  0  0  0  0  0  0  0
   -1.4720    1.2390    3.7941 C   0  0  0  0  0  0  0  0  0  0  0  0
   -0.6345    1.9391    3.8219 H   0  0  0  0  0  0  0  0  0  0  0  0
   -2.3844    1.7580    4.0892 H   0  0  0  0  0  0  0  0  0  0  0  0
   -1.2733    0.4298    4.4995 H   0  0  0  0  0  0  0  0  0  0  0  0
  5  6  2  0  0  0  0
  5  7  1  0  0  0  0
  2  3  1  0  0  0  0
  2  4  1  0  0  0  0
  2  5  1  0  0  0  0
  1  2  1  0  0  0  0
 25 26  2  0  0  0  0
 25 27  1  0  0  0  0
 23 24  1  0  0  0  0
 21 22  1  0  0  0  0
 21 23  2  0  0  0  0
 19 20  1  0  0  0  0
 19 21  1  0  0  0  0
 17 18  1  0  0  0  0
 17 19  2  0  0  0  0
 15 16  1  0  0  0  0
 15 17  1  0  0  0  0
 14 15  2  0  0  0  0
 14 23  1  0  0  0  0
 11 12  1  0  0  0  0
 11 13  1  0  0  0  0
 11 14  1  0  0  0  0
  9 10  1  0  0  0  0
  9 11  1  0  0  0  0
  9 25  1  0  0  0  0
  7  8  1  0  0  0  0
  7  9  1  0  0  0  0
 29 30  1  0  0  0  0
 29 31  1  0  0  0  0
 29 32  1  0  0  0  0
 27 28  1  0  0  0  0
 27 29  1  0  0  0  0
M  END
$$$$
default_name
  -OEChem-02102213163D

 32 32  0     1  0  0  0  0  0999 V2000
   -3.8405   -3.7518    1.6252 H   0  0  0  0  0  0  0  0  0  0  0  0
   -3.7965   -2.8768    0.9782 C   0  0  0  0  0  0  0  0  0  0  0  0
   -4.5465   -2.1527    1.2902 H   0  0  0  0  0  0  0  0  0  0  0  0
   -3.9745   -3.1748   -0.0538 H   0  0  0  0  0  0  0  0  0  0  0  0
   -2.4245   -2.2537    1.0882 C   0  0  0  0  0  0  0  0  0  0  0  0
   -1.5805   -2.7478    1.8242 O   0  0  0  0  0  0  0  0  0  0  0  0
   -2.2045   -1.1637    0.3562 N   0  0  0  0  0  0  0  0  0  0  0  0
   -2.9595   -0.7907   -0.2008 H   0  0  0  0  0  0  0  0  0  0  0  0
   -0.9485   -0.4087    0.3482 C   0  0  1  0  0  0  0  0  0  0  0  0
   -0.1408   -1.0795    0.0507 H   0  0  0  0  0  0  0  0  0  0  0  0
   -1.0432    0.7243   -0.6879 C   0  0  0  0  0  0  0  0  0  0  0  0
   -0.0404    1.1004   -0.8956 H   0  0  0  0  0  0  0  0  0  0  0  0
   -1.4406    0.3192   -1.6198 H   0  0  0  0  0  0  0  0  0  0  0  0
   -1.9013    1.8937   -0.2443 C   0  0  0  0  0  0  0  0  0  0  0  0
   -1.3291    2.9736    0.4547 C   0  0  0  0  0  0  0  0  0  0  0  0
   -0.2764    2.9647    0.6997 H   0  0  0  0  0  0  0  0  0  0  0  0
   -2.1234    4.0738    0.8267 C   0  0  0  0  0  0  0  0  0  0  0  0
   -1.6826    4.9008    1.3656 H   0  0  0  0  0  0  0  0  0  0  0  0
   -3.4897    4.0974    0.4993 C   0  0  0  0  0  0  0  0  0  0  0  0
   -4.1004    4.9417    0.7872 H   0  0  0  0  0  0  0  0  0  0  0  0
   -4.0650    3.0193   -0.1978 C   0  0  0  0  0  0  0  0  0  0  0  0
   -5.1164    3.0348   -0.4448 H   0  0  0  0  0  0  0  0  0  0  0  0
   -3.2717    1.9184   -0.5666 C   0  0  0  0  0  0  0  0  0  0  0  0
   -3.7161    1.0881   -1.0998 H   0  0  0  0  0  0  0  0  0  0  0  0
   -0.6196    0.1253    1.7539 C   0  0  0  0  0  0  0  0  0  0  0  0
    0.5216    0.0194    2.2054 O   0  0  0  0  0  0  0  0  0  0  0  0
   -1.6152    0.6924    2.4469 N   0  0  0  0  0  0  0  0  0  0  0  0
   -2.5345    0.6914    2.0318 H   0  0  0  0  0  0  0  0  0  0  0  0
   -1.4720    1.2390    3.7941 C   0  0  0  0  0  0  0  0  0  0  0  0
   -0.6345    1.9391    3.8219 H   0  0  0  0  0  0  0  0  0  0  0  0
   -2.3844    1.7580    4.0892 H   0  0  0  0  0  0  0  0  0  0  0  0
   -1.2733    0.4298    4.4995 H   0  0  0  0  0  0  0  0  0  0  0  0
  5  6  2  0  0  0  0
  5  7  1  0  0  0  0
  2  3  1  0  0  0  0
  2  4  1  0  0  0  0
  2  5  1  0  0  0  0
  1  2  1  0  0  0  0
 25 26  2  0  0  0  0
 25 27  1  0  0  0  0
 23 24  1  0  0  0  0
 21 22  1  0  0  0  0
 21 23  2  0  0  0  0
 19 20  1  0  0  0  0
 19 21  1  0  0  0  0
 17 18  1  0  0  0  0
 17 19  2  0  0  0  0
 15 16  1  0  0  0  0
 15 17  1  0  0  0  0
 14 15  2  0  0  0  0
 14 23  1  0  0  0  0
 11 12  1  0  0  0  0
 11 13  1  0  0  0  0
 11 14  1  0  0  0  0
  9 10  1  0  0  0  0
  9 11  1  0  0  0  0
  9 25  1  0  0  0  0
  7  8  1  0  0  0  0
  7  9  1  0  0  0  0
 29 30  1  0  0  0  0
 29 31  1  0  0  0  0
 29 32  1  0  0  0  0
 27 28  1  0  0  0  0
 27 29  1  0  0  0  0
M  END
$$$$
default_name
  -OEChem-02102213163D

 32 32  0     1  0  0  0  0  0999 V2000
   -3.8405   -3.7518    1.6252 H   0  0  0  0  0  0  0  0  0  0  0  0
   -3.7965   -2.8768    0.9782 C   0  0  0  0  0  0  0  0  0  0  0  0
   -4.5465   -2.1527    1.2902 H   0  0  0  0  0  0  0  0  0  0  0  0
   -3.9745   -3.1748   -0.0538 H   0  0  0  0  0  0  0  0  0  0  0  0
   -2.4245   -2.2537    1.0882 C   0  0  0  0  0  0  0  0  0  0  0  0
   -1.5805   -2.7478    1.8242 O   0  0  0  0  0  0  0  0  0  0  0  0
   -2.2045   -1.1637    0.3562 N   0  0  0  0  0  0  0  0  0  0  0  0
   -2.9595   -0.7907   -0.2008 H   0  0  0  0  0  0  0  0  0  0  0  0
   -0.9485   -0.4087    0.3482 C   0  0  1  0  0  0  0  0  0  0  0  0
   -0.1408   -1.0795    0.0507 H   0  0  0  0  0  0  0  0  0  0  0  0
   -1.0432    0.7243   -0.6879 C   0  0  0  0  0  0  0  0  0  0  0  0
   -0.0404    1.1004   -0.8956 H   0  0  0  0  0  0  0  0  0  0  0  0
   -1.4406    0.3192   -1.6198 H   0  0  0  0  0  0  0  0  0  0  0  0
   -1.9013    1.8937   -0.2443 C   0  0  0  0  0  0  0  0  0  0  0  0
   -1.3046    3.1012    0.1657 C   0  0  0  0  0  0  0  0  0  0  0  0
   -0.2280    3.1943    0.1883 H   0  0  0  0  0  0  0  0  0  0  0  0
   -2.1080    4.1952    0.5365 C   0  0  0  0  0  0  0  0  0  0  0  0
   -1.6478    5.1206    0.8534 H   0  0  0  0  0  0  0  0  0  0  0  0
   -3.5083    4.0849    0.4963 C   0  0  0  0  0  0  0  0  0  0  0  0
   -4.1255    4.9247    0.7834 H   0  0  0  0  0  0  0  0  0  0  0  0
   -4.1077    2.8793    0.0886 C   0  0  0  0  0  0  0  0  0  0  0  0
   -5.1841    2.7925    0.0628 H   0  0  0  0  0  0  0  0  0  0  0  0
   -3.3046    1.7850   -0.2788 C   0  0  0  0  0  0  0  0  0  0  0  0
   -3.7670    0.8570   -0.5890 H   0  0  0  0  0  0  0  0  0  0  0  0
   -0.6196    0.1253    1.7539 C   0  0  0  0  0  0  0  0  0  0  0  0
    0.5216    0.0194    2.2054 O   0  0  0  0  0  0  0  0  0  0  0  0
   -1.6152    0.6924    2.4469 N   0  0  0  0  0  0  0  0  0  0  0  0
   -2.5345    0.6914    2.0318 H   0  0  0  0  0  0  0  0  0  0  0  0
   -1.4720    1.2390    3.7941 C   0  0  0  0  0  0  0  0  0  0  0  0
   -0.6345    1.9391    3.8219 H   0  0  0  0  0  0  0  0  0  0  0  0
   -2.3844    1.7580    4.0892 H   0  0  0  0  0  0  0  0  0  0  0  0
   -1.2733    0.4298    4.4995 H   0  0  0  0  0  0  0  0  0  0  0  0
  5  6  2  0  0  0  0
  5  7  1  0  0  0  0
  2  3  1  0  0  0  0
  2  4  1  0  0  0  0
  2  5  1  0  0  0  0
  1  2  1  0  0  0  0
 25 26  2  0  0  0  0
 25 27  1  0  0  0  0
 23 24  1  0  0  0  0
 21 22  1  0  0  0  0
 21 23  2  0  0  0  0
 19 20  1  0  0  0  0
 19 21  1  0  0  0  0
 17 18  1  0  0  0  0
 17 19  2  0  0  0  0
 15 16  1  0  0  0  0
 15 17  1  0  0  0  0
 14 15  2  0  0  0  0
 14 23  1  0  0  0  0
 11 12  1  0  0  0  0
 11 13  1  0  0  0  0
 11 14  1  0  0  0  0
  9 10  1  0  0  0  0
  9 11  1  0  0  0  0
  9 25  1  0  0  0  0
  7  8  1  0  0  0  0
  7  9  1  0  0  0  0
 29 30  1  0  0  0  0
 29 31  1  0  0  0  0
 29 32  1  0  0  0  0
 27 28  1  0  0  0  0
 27 29  1  0  0  0  0
M  END
$$$$
default_name
  -OEChem-02102213163D

 32 32  0     1  0  0  0  0  0999 V2000
   -3.8405   -3.7518    1.6252 H   0  0  0  0  0  0  0  0  0  0  0  0
   -3.7965   -2.8768    0.9782 C   0  0  0  0  0  0  0  0  0  0  0  0
   -4.5465   -2.1527    1.2902 H   0  0  0  0  0  0  0  0  0  0  0  0
   -3.9745   -3.1748   -0.0538 H   0  0  0  0  0  0  0  0  0  0  0  0
   -2.4245   -2.2537    1.0882 C   0  0  0  0  0  0  0  0  0  0  0  0
   -1.5805   -2.7478    1.8242 O   0  0  0  0  0  0  0  0  0  0  0  0
   -2.2045   -1.1637    0.3562 N   0  0  0  0  0  0  0  0  0  0  0  0
   -2.9595   -0.7907   -0.2008 H   0  0  0  0  0  0  0  0  0  0  0  0
   -0.9485   -0.4087    0.3482 C   0  0  1  0  0  0  0  0  0  0  0  0
   -0.1408   -1.0795    0.0507 H   0  0  0  0  0  0  0  0  0  0  0  0
   -1.0432    0.7243   -0.6879 C   0  0  0  0  0  0  0  0  0  0  0  0
   -0.0404    1.1004   -0.8956 H   0  0  0  0  0  0  0  0  0  0  0  0
   -1.4406    0.3192   -1.6198 H   0  0  0  0  0  0  0  0  0  0  0  0
   -1.9013    1.8937   -0.2443 C   0  0  0  0  0  0  0  0  0  0  0  0
   -1.3483    3.1840   -0.1370 C   0  0  0  0  0  0  0  0  0  0  0  0
   -0.3007    3.3448   -0.3489 H   0  0  0  0  0  0  0  0  0  0  0  0
   -2.1603    4.2712    0.2353 C   0  0  0  0  0  0  0  0  0  0  0  0
   -1.7331    5.2606    0.3195 H   0  0  0  0  0  0  0  0  0  0  0  0
   -3.5259    4.0709    0.4990 C   0  0  0  0  0  0  0  0  0  0  0  0
   -4.1492    4.9058    0.7873 H   0  0  0  0  0  0  0  0  0  0  0  0
   -4.0813    2.7827    0.3942 C   0  0  0  0  0  0  0  0  0  0  0  0
   -5.1299    2.6277    0.6022 H   0  0  0  0  0  0  0  0  0  0  0  0
   -3.2690    1.6958    0.0253 C   0  0  0  0  0  0  0  0  0  0  0  0
   -3.6967    0.7047   -0.0517 H   0  0  0  0  0  0  0  0  0  0  0  0
   -0.6196    0.1253    1.7539 C   0  0  0  0  0  0  0  0  0  0  0  0
    0.5216    0.0194    2.2054 O   0  0  0  0  0  0  0  0  0  0  0  0
   -1.6152    0.6924    2.4469 N   0  0  0  0  0  0  0  0  0  0  0  0
   -2.5345    0.6914    2.0318 H   0  0  0  0  0  0  0  0  0  0  0  0
   -1.4720    1.2390    3.7941 C   0  0  0  0  0  0  0  0  0  0  0  0
   -0.6345    1.9391    3.8219 H   0  0  0  0  0  0  0  0  0  0  0  0
   -2.3844    1.7580    4.0892 H   0  0  0  0  0  0  0  0  0  0  0  0
   -1.2733    0.4298    4.4995 H   0  0  0  0  0  0  0  0  0  0  0  0
  5  6  2  0  0  0  0
  5  7  1  0  0  0  0
  2  3  1  0  0  0  0
  2  4  1  0  0  0  0
  2  5  1  0  0  0  0
  1  2  1  0  0  0  0
 25 26  2  0  0  0  0
 25 27  1  0  0  0  0
 23 24  1  0  0  0  0
 21 22  1  0  0  0  0
 21 23  2  0  0  0  0
 19 20  1  0  0  0  0
 19 21  1  0  0  0  0
 17 18  1  0  0  0  0
 17 19  2  0  0  0  0
 15 16  1  0  0  0  0
 15 17  1  0  0  0  0
 14 15  2  0  0  0  0
 14 23  1  0  0  0  0
 11 12  1  0  0  0  0
 11 13  1  0  0  0  0
 11 14  1  0  0  0  0
  9 10  1  0  0  0  0
  9 11  1  0  0  0  0
  9 25  1  0  0  0  0
  7  8  1  0  0  0  0
  7  9  1  0  0  0  0
 29 30  1  0  0  0  0
 29 31  1  0  0  0  0
 29 32  1  0  0  0  0
 27 28  1  0  0  0  0
 27 29  1  0  0  0  0
M  END
$$$$
default_name
  -OEChem-02102213163D

 32 32  0     1  0  0  0  0  0999 V2000
   -3.8405   -3.7518    1.6252 H   0  0  0  0  0  0  0  0  0  0  0  0
   -3.7965   -2.8768    0.9782 C   0  0  0  0  0  0  0  0  0  0  0  0
   -4.5465   -2.1527    1.2902 H   0  0  0  0  0  0  0  0  0  0  0  0
   -3.9745   -3.1748   -0.0538 H   0  0  0  0  0  0  0  0  0  0  0  0
   -2.4245   -2.2537    1.0882 C   0  0  0  0  0  0  0  0  0  0  0  0
   -1.5805   -2.7478    1.8242 O   0  0  0  0  0  0  0  0  0  0  0  0
   -2.2045   -1.1637    0.3562 N   0  0  0  0  0  0  0  0  0  0  0  0
   -2.9595   -0.7907   -0.2008 H   0  0  0  0  0  0  0  0  0  0  0  0
   -0.9485   -0.4087    0.3482 C   0  0  1  0  0  0  0  0  0  0  0  0
   -0.1408   -1.0795    0.0507 H   0  0  0  0  0  0  0  0  0  0  0  0
   -1.0432    0.7243   -0.6879 C   0  0  0  0  0  0  0  0  0  0  0  0
   -0.0404    1.1004   -0.8956 H   0  0  0  0  0  0  0  0  0  0  0  0
   -1.4406    0.3192   -1.6198 H   0  0  0  0  0  0  0  0  0  0  0  0
   -1.9013    1.8937   -0.2443 C   0  0  0  0  0  0  0  0  0  0  0  0
   -1.4572    3.2163   -0.4328 C   0  0  0  0  0  0  0  0  0  0  0  0
   -0.4895    3.4060   -0.8754 H   0  0  0  0  0  0  0  0  0  0  0  0
   -2.2766    4.2964   -0.0564 C   0  0  0  0  0  0  0  0  0  0  0  0
   -1.9326    5.3112   -0.1996 H   0  0  0  0  0  0  0  0  0  0  0  0
   -3.5414    4.0565    0.5071 C   0  0  0  0  0  0  0  0  0  0  0  0
   -4.1699    4.8864    0.7985 H   0  0  0  0  0  0  0  0  0  0  0  0
   -3.9875    2.7362    0.6983 C   0  0  0  0  0  0  0  0  0  0  0  0
   -4.9574    2.5515    1.1364 H   0  0  0  0  0  0  0  0  0  0  0  0
   -3.1671    1.6569    0.3250 C   0  0  0  0  0  0  0  0  0  0  0  0
   -3.5101    0.6415    0.4757 H   0  0  0  0  0  0  0  0  0  0  0  0
   -0.6196    0.1253    1.7539 C   0  0  0  0  0  0  0  0  0  0  0  0
    0.5216    0.0194    2.2054 O   0  0  0  0  0  0  0  0  0  0  0  0
   -1.6152    0.6924    2.4469 N   0  0  0  0  0  0  0  0  0  0  0  0
   -2.5345    0.6914    2.0318 H   0  0  0  0  0  0  0  0  0  0  0  0
   -1.4720    1.2390    3.7941 C   0  0  0  0  0  0  0  0  0  0  0  0
   -0.6345    1.9391    3.8219 H   0  0  0  0  0  0  0  0  0  0  0  0
   -2.3844    1.7580    4.0892 H   0  0  0  0  0  0  0  0  0  0  0  0
   -1.2733    0.4298    4.4995 H   0  0  0  0  0  0  0  0  0  0  0  0
  5  6  2  0  0  0  0
  5  7  1  0  0  0  0
  2  3  1  0  0  0  0
  2  4  1  0  0  0  0
  2  5  1  0  0  0  0
  1  2  1  0  0  0  0
 25 26  2  0  0  0  0
 25 27  1  0  0  0  0
 23 24  1  0  0  0  0
 21 22  1  0  0  0  0
 21 23  2  0  0  0  0
 19 20  1  0  0  0  0
 19 21  1  0  0  0  0
 17 18  1  0  0  0  0
 17 19  2  0  0  0  0
 15 16  1  0  0  0  0
 15 17  1  0  0  0  0
 14 15  2  0  0  0  0
 14 23  1  0  0  0  0
 11 12  1  0  0  0  0
 11 13  1  0  0  0  0
 11 14  1  0  0  0  0
  9 10  1  0  0  0  0
  9 11  1  0  0  0  0
  9 25  1  0  0  0  0
  7  8  1  0  0  0  0
  7  9  1  0  0  0  0
 29 30  1  0  0  0  0
 29 31  1  0  0  0  0
 29 32  1  0  0  0  0
 27 28  1  0  0  0  0
 27 29  1  0  0  0  0
M  END
$$$$
default_name
  -OEChem-02102213163D

 32 32  0     1  0  0  0  0  0999 V2000
   -3.8405   -3.7518    1.6252 H   0  0  0  0  0  0  0  0  0  0  0  0
   -3.7965   -2.8768    0.9782 C   0  0  0  0  0  0  0  0  0  0  0  0
   -4.5465   -2.1527    1.2902 H   0  0  0  0  0  0  0  0  0  0  0  0
   -3.9745   -3.1748   -0.0538 H   0  0  0  0  0  0  0  0  0  0  0  0
   -2.4245   -2.2537    1.0882 C   0  0  0  0  0  0  0  0  0  0  0  0
   -1.5805   -2.7478    1.8242 O   0  0  0  0  0  0  0  0  0  0  0  0
   -2.2045   -1.1637    0.3562 N   0  0  0  0  0  0  0  0  0  0  0  0
   -2.9595   -0.7907   -0.2008 H   0  0  0  0  0  0  0  0  0  0  0  0
   -0.9485   -0.4087    0.3482 C   0  0  1  0  0  0  0  0  0  0  0  0
   -0.1408   -1.0795    0.0507 H   0  0  0  0  0  0  0  0  0  0  0  0
   -1.0432    0.7243   -0.6879 C   0  0  0  0  0  0  0  0  0  0  0  0
   -0.0404    1.1004   -0.8956 H   0  0  0  0  0  0  0  0  0  0  0  0
   -1.4406    0.3192   -1.6198 H   0  0  0  0  0  0  0  0  0  0  0  0
   -1.9013    1.8937   -0.2443 C   0  0  0  0  0  0  0  0  0  0  0  0
   -1.6238    3.1960   -0.7015 C   0  0  0  0  0  0  0  0  0  0  0  0
   -0.7815    3.3737   -1.3552 H   0  0  0  0  0  0  0  0  0  0  0  0
   -2.4491    4.2694   -0.3185 C   0  0  0  0  0  0  0  0  0  0  0  0
   -2.2327    5.2689   -0.6687 H   0  0  0  0  0  0  0  0  0  0  0  0
   -3.5535    4.0426    0.5202 C   0  0  0  0  0  0  0  0  0  0  0  0
   -4.1862    4.8677    0.8163 H   0  0  0  0  0  0  0  0  0  0  0  0
   -3.8327    2.7428    0.9801 C   0  0  0  0  0  0  0  0  0  0  0  0
   -4.6785    2.5693    1.6292 H   0  0  0  0  0  0  0  0  0  0  0  0
   -3.0059    1.6709    0.5999 C   0  0  0  0  0  0  0  0  0  0  0  0
   -3.2198    0.6719    0.9571 H   0  0  0  0  0  0  0  0  0  0  0  0
   -0.6196    0.1253    1.7539 C   0  0  0  0  0  0  0  0  0  0  0  0
    0.5216    0.0194    2.2054 O   0  0  0  0  0  0  0  0  0  0  0  0
   -1.6152    0.6924    2.4469 N   0  0  0  0  0  0  0  0  0  0  0  0
   -2.5345    0.6914    2.0318 H   0  0  0  0  0  0  0  0  0  0  0  0
   -1.4720    1.2390    3.7941 C   0  0  0  0  0  0  0  0  0  0  0  0
   -0.6345    1.9391    3.8219 H   0  0  0  0  0  0  0  0  0  0  0  0
   -2.3844    1.7580    4.0892 H   0  0  0  0  0  0  0  0  0  0  0  0
   -1.2733    0.4298    4.4995 H   0  0  0  0  0  0  0  0  0  0  0  0
  5  6  2  0  0  0  0
  5  7  1  0  0  0  0
  2  3  1  0  0  0  0
  2  4  1  0  0  0  0
  2  5  1  0  0  0  0
  1  2  1  0  0  0  0
 25 26  2  0  0  0  0
 25 27  1  0  0  0  0
 23 24  1  0  0  0  0
 21 22  1  0  0  0  0
 21 23  2  0  0  0  0
 19 20  1  0  0  0  0
 19 21  1  0  0  0  0
 17 18  1  0  0  0  0
 17 19  2  0  0  0  0
 15 16  1  0  0  0  0
 15 17  1  0  0  0  0
 14 15  2  0  0  0  0
 14 23  1  0  0  0  0
 11 12  1  0  0  0  0
 11 13  1  0  0  0  0
 11 14  1  0  0  0  0
  9 10  1  0  0  0  0
  9 11  1  0  0  0  0
  9 25  1  0  0  0  0
  7  8  1  0  0  0  0
  7  9  1  0  0  0  0
 29 30  1  0  0  0  0
 29 31  1  0  0  0  0
 29 32  1  0  0  0  0
 27 28  1  0  0  0  0
 27 29  1  0  0  0  0
M  END
$$$$
default_name
  -OEChem-02102213163D

 32 32  0     1  0  0  0  0  0999 V2000
   -3.8405   -3.7518    1.6252 H   0  0  0  0  0  0  0  0  0  0  0  0
   -3.7965   -2.8768    0.9782 C   0  0  0  0  0  0  0  0  0  0  0  0
   -4.5465   -2.1527    1.2902 H   0  0  0  0  0  0  0  0  0  0  0  0
   -3.9745   -3.1748   -0.0538 H   0  0  0  0  0  0  0  0  0  0  0  0
   -2.4245   -2.2537    1.0882 C   0  0  0  0  0  0  0  0  0  0  0  0
   -1.5805   -2.7478    1.8242 O   0  0  0  0  0  0  0  0  0  0  0  0
   -2.2045   -1.1637    0.3562 N   0  0  0  0  0  0  0  0  0  0  0  0
   -2.9595   -0.7907   -0.2008 H   0  0  0  0  0  0  0  0  0  0  0  0
   -0.9485   -0.4087    0.3482 C   0  0  1  0  0  0  0  0  0  0  0  0
   -0.1408   -1.0795    0.0507 H   0  0  0  0  0  0  0  0  0  0  0  0
   -1.0432    0.7243   -0.6879 C   0  0  0  0  0  0  0  0  0  0  0  0
   -0.0404    1.1004   -0.8956 H   0  0  0  0  0  0  0  0  0  0  0  0
   -1.4406    0.3192   -1.6198 H   0  0  0  0  0  0  0  0  0  0  0  0
   -1.9013    1.8937   -0.2443 C   0  0  0  0  0  0  0  0  0  0  0  0
   -1.8369    3.1244   -0.9249 C   0  0  0  0  0  0  0  0  0  0  0  0
   -1.1569    3.2502   -1.7556 H   0  0  0  0  0  0  0  0  0  0  0  0
   -2.6660    4.1918   -0.5334 C   0  0  0  0  0  0  0  0  0  0  0  0
   -2.6130    5.1367   -1.0557 H   0  0  0  0  0  0  0  0  0  0  0  0
   -3.5617    4.0302    0.5372 C   0  0  0  0  0  0  0  0  0  0  0  0
   -4.1969    4.8510    0.8395 H   0  0  0  0  0  0  0  0  0  0  0  0
   -3.6275    2.8023    1.2205 C   0  0  0  0  0  0  0  0  0  0  0  0
   -4.3120    2.6797    2.0469 H   0  0  0  0  0  0  0  0  0  0  0  0
   -2.7964    1.7368    0.8311 C   0  0  0  0  0  0  0  0  0  0  0  0
   -2.8457    0.7937    1.3597 H   0  0  0  0  0  0  0  0  0  0  0  0
   -0.6196    0.1253    1.7539 C   0  0  0  0  0  0  0  0  0  0  0  0
    0.5216    0.0194    2.2054 O   0  0  0  0  0  0  0  0  0  0  0  0
   -1.6152    0.6924    2.4469 N   0  0  0  0  0  0  0  0  0  0  0  0
   -2.5345    0.6914    2.0318 H   0  0  0  0  0  0  0  0  0  0  0  0
   -1.4720    1.2390    3.7941 C   0  0  0  0  0  0  0  0  0  0  0  0
   -0.6345    1.9391    3.8219 H   0  0  0  0  0  0  0  0  0  0  0  0
   -2.3844    1.7580    4.0892 H   0  0  0  0  0  0  0  0  0  0  0  0
   -1.2733    0.4298    4.4995 H   0  0  0  0  0  0  0  0  0  0  0  0
  5  6  2  0  0  0  0
  5  7  1  0  0  0  0
  2  3  1  0  0  0  0
  2  4  1  0  0  0  0
  2  5  1  0  0  0  0
  1  2  1  0  0  0  0
 25 26  2  0  0  0  0
 25 27  1  0  0  0  0
 23 24  1  0  0  0  0
 21 22  1  0  0  0  0
 21 23  2  0  0  0  0
 19 20  1  0  0  0  0
 19 21  1  0  0  0  0
 17 18  1  0  0  0  0
 17 19  2  0  0  0  0
 15 16  1  0  0  0  0
 15 17  1  0  0  0  0
 14 15  2  0  0  0  0
 14 23  1  0  0  0  0
 11 12  1  0  0  0  0
 11 13  1  0  0  0  0
 11 14  1  0  0  0  0
  9 10  1  0  0  0  0
  9 11  1  0  0  0  0
  9 25  1  0  0  0  0
  7  8  1  0  0  0  0
  7  9  1  0  0  0  0
 29 30  1  0  0  0  0
 29 31  1  0  0  0  0
 29 32  1  0  0  0  0
 27 28  1  0  0  0  0
 27 29  1  0  0  0  0
M  END
$$$$
default_name
  -OEChem-02102213163D

 32 32  0     1  0  0  0  0  0999 V2000
   -3.8405   -3.7518    1.6252 H   0  0  0  0  0  0  0  0  0  0  0  0
   -3.7965   -2.8768    0.9782 C   0  0  0  0  0  0  0  0  0  0  0  0
   -4.5465   -2.1527    1.2902 H   0  0  0  0  0  0  0  0  0  0  0  0
   -3.9745   -3.1748   -0.0538 H   0  0  0  0  0  0  0  0  0  0  0  0
   -2.4245   -2.2537    1.0882 C   0  0  0  0  0  0  0  0  0  0  0  0
   -1.5805   -2.7478    1.8242 O   0  0  0  0  0  0  0  0  0  0  0  0
   -2.2045   -1.1637    0.3562 N   0  0  0  0  0  0  0  0  0  0  0  0
   -2.9595   -0.7907   -0.2008 H   0  0  0  0  0  0  0  0  0  0  0  0
   -0.9485   -0.4087    0.3482 C   0  0  1  0  0  0  0  0  0  0  0  0
   -0.1408   -1.0795    0.0507 H   0  0  0  0  0  0  0  0  0  0  0  0
   -1.0432    0.7243   -0.6879 C   0  0  0  0  0  0  0  0  0  0  0  0
   -0.0494    0.9184   -1.0939 H   0  0  0  0  0  0  0  0  0  0  0  0
   -1.6760    0.3963   -1.5140 H   0  0  0  0  0  0  0  0  0  0  0  0
   -1.5849    2.0260   -0.1285 C   0  0  0  0  0  0  0  0  0  0  0  0
   -1.7290    3.1539   -0.9586 C   0  0  0  0  0  0  0  0  0  0  0  0
   -1.4322    3.1052   -1.9968 H   0  0  0  0  0  0  0  0  0  0  0  0
   -2.2708    4.3455   -0.4425 C   0  0  0  0  0  0  0  0  0  0  0  0
   -2.3781    5.2112   -1.0809 H   0  0  0  0  0  0  0  0  0  0  0  0
   -2.6710    4.4111    0.9030 C   0  0  0  0  0  0  0  0  0  0  0  0
   -3.0850    5.3273    1.3000 H   0  0  0  0  0  0  0  0  0  0  0  0
   -2.5270    3.2863    1.7355 C   0  0  0  0  0  0  0  0  0  0  0  0
   -2.8295    3.3382    2.7711 H   0  0  0  0  0  0  0  0  0  0  0  0
   -1.9824    2.0966    1.2203 C   0  0  0  0  0  0  0  0  0  0  0  0
   -1.8691    1.2330    1.8627 H   0  0  0  0  0  0  0  0  0  0  0  0
   -0.6196    0.1253    1.7539 C   0  0  0  0  0  0  0  0  0  0  0  0
    0.5216    0.0194    2.2054 O   0  0  0  0  0  0  0  0  0  0  0  0
   -1.6152    0.6924    2.4469 N   0  0  0  0  0  0  0  0  0  0  0  0
   -2.5345    0.6914    2.0318 H   0  0  0  0  0  0  0  0  0  0  0  0
   -1.4720    1.2390    3.7941 C   0  0  0  0  0  0  0  0  0  0  0  0
   -0.6345    1.9391    3.8219 H   0  0  0  0  0  0  0  0  0  0  0  0
   -2.3844    1.7580    4.0892 H   0  0  0  0  0  0  0  0  0  0  0  0
   -1.2733    0.4298    4.4995 H   0  0  0  0  0  0  0  0  0  0  0  0
  5  6  2  0  0  0  0
  5  7  1  0  0  0  0
  2  3  1  0  0  0  0
  2  4  1  0  0  0  0
  2  5  1  0  0  0  0
  1  2  1  0  0  0  0
 25 26  2  0  0  0  0
 25 27  1  0  0  0  0
 23 24  1  0  0  0  0
 21 22  1  0  0  0  0
 21 23  2  0  0  0  0
 19 20  1  0  0  0  0
 19 21  1  0  0  0  0
 17 18  1  0  0  0  0
 17 19  2  0  0  0  0
 15 16  1  0  0  0  0
 15 17  1  0  0  0  0
 14 15  2  0  0  0  0
 14 23  1  0  0  0  0
 11 12  1  0  0  0  0
 11 13  1  0  0  0  0
 11 14  1  0  0  0  0
  9 10  1  0  0  0  0
  9 11  1  0  0  0  0
  9 25  1  0  0  0  0
  7  8  1  0  0  0  0
  7  9  1  0  0  0  0
 29 30  1  0  0  0  0
 29 31  1  0  0  0  0
 29 32  1  0  0  0  0
 27 28  1  0  0  0  0
 27 29  1  0  0  0  0
M  END
$$$$
default_name
  -OEChem-02102213163D

 32 32  0     1  0  0  0  0  0999 V2000
   -3.8405   -3.7518    1.6252 H   0  0  0  0  0  0  0  0  0  0  0  0
   -3.7965   -2.8768    0.9782 C   0  0  0  0  0  0  0  0  0  0  0  0
   -4.5465   -2.1527    1.2902 H   0  0  0  0  0  0  0  0  0  0  0  0
   -3.9745   -3.1748   -0.0538 H   0  0  0  0  0  0  0  0  0  0  0  0
   -2.4245   -2.2537    1.0882 C   0  0  0  0  0  0  0  0  0  0  0  0
   -1.5805   -2.7478    1.8242 O   0  0  0  0  0  0  0  0  0  0  0  0
   -2.2045   -1.1637    0.3562 N   0  0  0  0  0  0  0  0  0  0  0  0
   -2.9595   -0.7907   -0.2008 H   0  0  0  0  0  0  0  0  0  0  0  0
   -0.9485   -0.4087    0.3482 C   0  0  1  0  0  0  0  0  0  0  0  0
   -0.1408   -1.0795    0.0507 H   0  0  0  0  0  0  0  0  0  0  0  0
   -1.0432    0.7243   -0.6879 C   0  0  0  0  0  0  0  0  0  0  0  0
   -0.0494    0.9184   -1.0939 H   0  0  0  0  0  0  0  0  0  0  0  0
   -1.6760    0.3963   -1.5140 H   0  0  0  0  0  0  0  0  0  0  0  0
   -1.5849    2.0260   -0.1285 C   0  0  0  0  0  0  0  0  0  0  0  0
   -2.0248    3.0459   -0.9936 C   0  0  0  0  0  0  0  0  0  0  0  0
   -1.9576    2.9157   -2.0645 H   0  0  0  0  0  0  0  0  0  0  0  0
   -2.5643    4.2340   -0.4672 C   0  0  0  0  0  0  0  0  0  0  0  0
   -2.8991    5.0169   -1.1332 H   0  0  0  0  0  0  0  0  0  0  0  0
   -2.6668    4.4038    0.9240 C   0  0  0  0  0  0  0  0  0  0  0  0
   -3.0791    5.3176    1.3284 H   0  0  0  0  0  0  0  0  0  0  0  0
   -2.2267    3.3873    1.7912 C   0  0  0  0  0  0  0  0  0  0  0  0
   -2.3004    3.5199    2.8606 H   0  0  0  0  0  0  0  0  0  0  0  0
   -1.6845    2.2014    1.2649 C   0  0  0  0  0  0  0  0  0  0  0  0
   -1.3433    1.4215    1.9332 H   0  0  0  0  0  0  0  0  0  0  0  0
   -0.6196    0.1253    1.7539 C   0  0  0  0  0  0  0  0  0  0  0  0
    0.5216    0.0194    2.2054 O   0  0  0  0  0  0  0  0  0  0  0  0
   -1.6152    0.6924    2.4469 N   0  0  0  0  0  0  0  0  0  0  0  0
   -2.5345    0.6914    2.0318 H   0  0  0  0  0  0  0  0  0  0  0  0
   -1.4720    1.2390    3.7941 C   0  0  0  0  0  0  0  0  0  0  0  0
   -0.6345    1.9391    3.8219 H   0  0  0  0  0  0  0  0  0  0  0  0
   -2.3844    1.7580    4.0892 H   0  0  0  0  0  0  0  0  0  0  0  0
   -1.2733    0.4298    4.4995 H   0  0  0  0  0  0  0  0  0  0  0  0
  5  6  2  0  0  0  0
  5  7  1  0  0  0  0
  2  3  1  0  0  0  0
  2  4  1  0  0  0  0
  2  5  1  0  0  0  0
  1  2  1  0  0  0  0
 25 26  2  0  0  0  0
 25 27  1  0  0  0  0
 23 24  1  0  0  0  0
 21 22  1  0  0  0  0
 21 23  2  0  0  0  0
 19 20  1  0  0  0  0
 19 21  1  0  0  0  0
 17 18  1  0  0  0  0
 17 19  2  0  0  0  0
 15 16  1  0  0  0  0
 15 17  1  0  0  0  0
 14 15  2  0  0  0  0
 14 23  1  0  0  0  0
 11 12  1  0  0  0  0
 11 13  1  0  0  0  0
 11 14  1  0  0  0  0
  9 10  1  0  0  0  0
  9 11  1  0  0  0  0
  9 25  1  0  0  0  0
  7  8  1  0  0  0  0
  7  9  1  0  0  0  0
 29 30  1  0  0  0  0
 29 31  1  0  0  0  0
 29 32  1  0  0  0  0
 27 28  1  0  0  0  0
 27 29  1  0  0  0  0
M  END
$$$$
default_name
  -OEChem-02102213163D

 32 32  0     1  0  0  0  0  0999 V2000
   -3.8405   -3.7518    1.6252 H   0  0  0  0  0  0  0  0  0  0  0  0
   -3.7965   -2.8768    0.9782 C   0  0  0  0  0  0  0  0  0  0  0  0
   -4.5465   -2.1527    1.2902 H   0  0  0  0  0  0  0  0  0  0  0  0
   -3.9745   -3.1748   -0.0538 H   0  0  0  0  0  0  0  0  0  0  0  0
   -2.4245   -2.2537    1.0882 C   0  0  0  0  0  0  0  0  0  0  0  0
   -1.5805   -2.7478    1.8242 O   0  0  0  0  0  0  0  0  0  0  0  0
   -2.2045   -1.1637    0.3562 N   0  0  0  0  0  0  0  0  0  0  0  0
   -2.9595   -0.7907   -0.2008 H   0  0  0  0  0  0  0  0  0  0  0  0
   -0.9485   -0.4087    0.3482 C   0  0  1  0  0  0  0  0  0  0  0  0
   -0.1408   -1.0795    0.0507 H   0  0  0  0  0  0  0  0  0  0  0  0
   -1.0432    0.7243   -0.6879 C   0  0  0  0  0  0  0  0  0  0  0  0
   -0.0494    0.9184   -1.0939 H   0  0  0  0  0  0  0  0  0  0  0  0
   -1.6760    0.3963   -1.5140 H   0  0  0  0  0  0  0  0  0  0  0  0
   -1.5849    2.0260   -0.1285 C   0  0  0  0  0  0  0  0  0  0  0  0
   -2.3079    2.9100   -0.9517 C   0  0  0  0  0  0  0  0  0  0  0  0
   -2.4620    2.6762   -1.9957 H   0  0  0  0  0  0  0  0  0  0  0  0
   -2.8427    4.0959   -0.4156 C   0  0  0  0  0  0  0  0  0  0  0  0
   -3.3954    4.7746   -1.0500 H   0  0  0  0  0  0  0  0  0  0  0  0
   -2.6573    4.3991    0.9440 C   0  0  0  0  0  0  0  0  0  0  0  0
   -3.0662    5.3114    1.3553 H   0  0  0  0  0  0  0  0  0  0  0  0
   -1.9340    3.5186    1.7690 C   0  0  0  0  0  0  0  0  0  0  0  0
   -1.7868    3.7542    2.8128 H   0  0  0  0  0  0  0  0  0  0  0  0
   -1.3969    2.3351    1.2321 C   0  0  0  0  0  0  0  0  0  0  0  0
   -0.8378    1.6603    1.8671 H   0  0  0  0  0  0  0  0  0  0  0  0
   -0.6196    0.1253    1.7539 C   0  0  0  0  0  0  0  0  0  0  0  0
    0.5216    0.0194    2.2054 O   0  0  0  0  0  0  0  0  0  0  0  0
   -1.6152    0.6924    2.4469 N   0  0  0  0  0  0  0  0  0  0  0  0
   -2.5345    0.6914    2.0318 H   0  0  0  0  0  0  0  0  0  0  0  0
   -1.4720    1.2390    3.7941 C   0  0  0  0  0  0  0  0  0  0  0  0
   -0.6345    1.9391    3.8219 H   0  0  0  0  0  0  0  0  0  0  0  0
   -2.3844    1.7580    4.0892 H   0  0  0  0  0  0  0  0  0  0  0  0
   -1.2733    0.4298    4.4995 H   0  0  0  0  0  0  0  0  0  0  0  0
  5  6  2  0  0  0  0
  5  7  1  0  0  0  0
  2  3  1  0  0  0  0
  2  4  1  0  0  0  0
  2  5  1  0  0  0  0
  1  2  1  0  0  0  0
 25 26  2  0  0  0  0
 25 27  1  0  0  0  0
 23 24  1  0  0  0  0
 21 22  1  0  0  0  0
 21 23  2  0  0  0  0
 19 20  1  0  0  0  0
 19 21  1  0  0  0  0
 17 18  1  0  0  0  0
 17 19  2  0  0  0  0
 15 16  1  0  0  0  0
 15 17  1  0  0  0  0
 14 15  2  0  0  0  0
 14 23  1  0  0  0  0
 11 12  1  0  0  0  0
 11 13  1  0  0  0  0
 11 14  1  0  0  0  0
  9 10  1  0  0  0  0
  9 11  1  0  0  0  0
  9 25  1  0  0  0  0
  7  8  1  0  0  0  0
  7  9  1  0  0  0  0
 29 30  1  0  0  0  0
 29 31  1  0  0  0  0
 29 32  1  0  0  0  0
 27 28  1  0  0  0  0
 27 29  1  0  0  0  0
M  END
$$$$
default_name
  -OEChem-02102213163D

 32 32  0     1  0  0  0  0  0999 V2000
   -3.8405   -3.7518    1.6252 H   0  0  0  0  0  0  0  0  0  0  0  0
   -3.7965   -2.8768    0.9782 C   0  0  0  0  0  0  0  0  0  0  0  0
   -4.5465   -2.1527    1.2902 H   0  0  0  0  0  0  0  0  0  0  0  0
   -3.9745   -3.1748   -0.0538 H   0  0  0  0  0  0  0  0  0  0  0  0
   -2.4245   -2.2537    1.0882 C   0  0  0  0  0  0  0  0  0  0  0  0
   -1.5805   -2.7478    1.8242 O   0  0  0  0  0  0  0  0  0  0  0  0
   -2.2045   -1.1637    0.3562 N   0  0  0  0  0  0  0  0  0  0  0  0
   -2.9595   -0.7907   -0.2008 H   0  0  0  0  0  0  0  0  0  0  0  0
   -0.9485   -0.4087    0.3482 C   0  0  1  0  0  0  0  0  0  0  0  0
   -0.1408   -1.0795    0.0507 H   0  0  0  0  0  0  0  0  0  0  0  0
   -1.0432    0.7243   -0.6879 C   0  0  0  0  0  0  0  0  0  0  0  0
   -0.0494    0.9184   -1.0939 H   0  0  0  0  0  0  0  0  0  0  0  0
   -1.6760    0.3963   -1.5140 H   0  0  0  0  0  0  0  0  0  0  0  0
   -1.5849    2.0260   -0.1285 C   0  0  0  0  0  0  0  0  0  0  0  0
   -2.5592    2.7556   -0.8358 C   0  0  0  0  0  0  0  0  0  0  0  0
   -2.9112    2.4031   -1.7951 H   0  0  0  0  0  0  0  0  0  0  0  0
   -3.0870    3.9408   -0.2911 C   0  0  0  0  0  0  0  0  0  0  0  0
   -3.8331    4.5009   -0.8370 H   0  0  0  0  0  0  0  0  0  0  0  0
   -2.6433    4.3973    0.9617 C   0  0  0  0  0  0  0  0  0  0  0  0
   -3.0471    5.3091    1.3790 H   0  0  0  0  0  0  0  0  0  0  0  0
   -1.6688    3.6714    1.6704 C   0  0  0  0  0  0  0  0  0  0  0  0
   -1.3237    4.0251    2.6309 H   0  0  0  0  0  0  0  0  0  0  0  0
   -1.1391    2.4888    1.1242 C   0  0  0  0  0  0  0  0  0  0  0  0
   -0.3870    1.9330    1.6689 H   0  0  0  0  0  0  0  0  0  0  0  0
   -0.6196    0.1253    1.7539 C   0  0  0  0  0  0  0  0  0  0  0  0
    0.5216    0.0194    2.2054 O   0  0  0  0  0  0  0  0  0  0  0  0
   -1.6152    0.6924    2.4469 N   0  0  0  0  0  0  0  0  0  0  0  0
   -2.5345    0.6914    2.0318 H   0  0  0  0  0  0  0  0  0  0  0  0
   -1.4720    1.2390    3.7941 C   0  0  0  0  0  0  0  0  0  0  0  0
   -0.6345    1.9391    3.8219 H   0  0  0  0  0  0  0  0  0  0  0  0
   -2.3844    1.7580    4.0892 H   0  0  0  0  0  0  0  0  0  0  0  0
   -1.2733    0.4298    4.4995 H   0  0  0  0  0  0  0  0  0  0  0  0
  5  6  2  0  0  0  0
  5  7  1  0  0  0  0
  2  3  1  0  0  0  0
  2  4  1  0  0  0  0
  2  5  1  0  0  0  0
  1  2  1  0  0  0  0
 25 26  2  0  0  0  0
 25 27  1  0  0  0  0
 23 24  1  0  0  0  0
 21 22  1  0  0  0  0
 21 23  2  0  0  0  0
 19 20  1  0  0  0  0
 19 21  1  0  0  0  0
 17 18  1  0  0  0  0
 17 19  2  0  0  0  0
 15 16  1  0  0  0  0
 15 17  1  0  0  0  0
 14 15  2  0  0  0  0
 14 23  1  0  0  0  0
 11 12  1  0  0  0  0
 11 13  1  0  0  0  0
 11 14  1  0  0  0  0
  9 10  1  0  0  0  0
  9 11  1  0  0  0  0
  9 25  1  0  0  0  0
  7  8  1  0  0  0  0
  7  9  1  0  0  0  0
 29 30  1  0  0  0  0
 29 31  1  0  0  0  0
 29 32  1  0  0  0  0
 27 28  1  0  0  0  0
 27 29  1  0  0  0  0
M  END
$$$$
default_name
  -OEChem-02102213163D

 32 32  0     1  0  0  0  0  0999 V2000
   -3.8405   -3.7518    1.6252 H   0  0  0  0  0  0  0  0  0  0  0  0
   -3.7965   -2.8768    0.9782 C   0  0  0  0  0  0  0  0  0  0  0  0
   -4.5465   -2.1527    1.2902 H   0  0  0  0  0  0  0  0  0  0  0  0
   -3.9745   -3.1748   -0.0538 H   0  0  0  0  0  0  0  0  0  0  0  0
   -2.4245   -2.2537    1.0882 C   0  0  0  0  0  0  0  0  0  0  0  0
   -1.5805   -2.7478    1.8242 O   0  0  0  0  0  0  0  0  0  0  0  0
   -2.2045   -1.1637    0.3562 N   0  0  0  0  0  0  0  0  0  0  0  0
   -2.9595   -0.7907   -0.2008 H   0  0  0  0  0  0  0  0  0  0  0  0
   -0.9485   -0.4087    0.3482 C   0  0  1  0  0  0  0  0  0  0  0  0
   -0.1408   -1.0795    0.0507 H   0  0  0  0  0  0  0  0  0  0  0  0
   -1.0432    0.7243   -0.6879 C   0  0  0  0  0  0  0  0  0  0  0  0
   -0.0494    0.9184   -1.0939 H   0  0  0  0  0  0  0  0  0  0  0  0
   -1.6760    0.3963   -1.5140 H   0  0  0  0  0  0  0  0  0  0  0  0
   -1.5849    2.0260   -0.1285 C   0  0  0  0  0  0  0  0  0  0  0  0
   -2.7614    2.5933   -0.6538 C   0  0  0  0  0  0  0  0  0  0  0  0
   -3.2743    2.1149   -1.4762 H   0  0  0  0  0  0  0  0  0  0  0  0
   -3.2805    3.7791   -0.1023 C   0  0  0  0  0  0  0  0  0  0  0  0
   -4.1826    4.2144   -0.5088 H   0  0  0  0  0  0  0  0  0  0  0  0
   -2.6257    4.3986    0.9758 C   0  0  0  0  0  0  0  0  0  0  0  0
   -3.0232    5.3109    1.3979 H   0  0  0  0  0  0  0  0  0  0  0  0
   -1.4490    3.8352    1.5021 C   0  0  0  0  0  0  0  0  0  0  0  0
   -0.9426    4.3141    2.3272 H   0  0  0  0  0  0  0  0  0  0  0  0
   -0.9287    2.6518    0.9486 C   0  0  0  0  0  0  0  0  0  0  0  0
   -0.0216    2.2212    1.3522 H   0  0  0  0  0  0  0  0  0  0  0  0
   -0.6196    0.1253    1.7539 C   0  0  0  0  0  0  0  0  0  0  0  0
    0.5216    0.0194    2.2054 O   0  0  0  0  0  0  0  0  0  0  0  0
   -1.6152    0.6924    2.4469 N   0  0  0  0  0  0  0  0  0  0  0  0
   -2.5345    0.6914    2.0318 H   0  0  0  0  0  0  0  0  0  0  0  0
   -1.4720    1.2390    3.7941 C   0  0  0  0  0  0  0  0  0  0  0  0
   -0.6345    1.9391    3.8219 H   0  0  0  0  0  0  0  0  0  0  0  0
   -2.3844    1.7580    4.0892 H   0  0  0  0  0  0  0  0  0  0  0  0
   -1.2733    0.4298    4.4995 H   0  0  0  0  0  0  0  0  0  0  0  0
  5  6  2  0  0  0  0
  5  7  1  0  0  0  0
  2  3  1  0  0  0  0
  2  4  1  0  0  0  0
  2  5  1  0  0  0  0
  1  2  1  0  0  0  0
 25 26  2  0  0  0  0
 25 27  1  0  0  0  0
 23 24  1  0  0  0  0
 21 22  1  0  0  0  0
 21 23  2  0  0  0  0
 19 20  1  0  0  0  0
 19 21  1  0  0  0  0
 17 18  1  0  0  0  0
 17 19  2  0  0  0  0
 15 16  1  0  0  0  0
 15 17  1  0  0  0  0
 14 15  2  0  0  0  0
 14 23  1  0  0  0  0
 11 12  1  0  0  0  0
 11 13  1  0  0  0  0
 11 14  1  0  0  0  0
  9 10  1  0  0  0  0
  9 11  1  0  0  0  0
  9 25  1  0  0  0  0
  7  8  1  0  0  0  0
  7  9  1  0  0  0  0
 29 30  1  0  0  0  0
 29 31  1  0  0  0  0
 29 32  1  0  0  0  0
 27 28  1  0  0  0  0
 27 29  1  0  0  0  0
M  END
$$$$
default_name
  -OEChem-02102213163D

 32 32  0     1  0  0  0  0  0999 V2000
   -3.8405   -3.7518    1.6252 H   0  0  0  0  0  0  0  0  0  0  0  0
   -3.7965   -2.8768    0.9782 C   0  0  0  0  0  0  0  0  0  0  0  0
   -4.5465   -2.1527    1.2902 H   0  0  0  0  0  0  0  0  0  0  0  0
   -3.9745   -3.1748   -0.0538 H   0  0  0  0  0  0  0  0  0  0  0  0
   -2.4245   -2.2537    1.0882 C   0  0  0  0  0  0  0  0  0  0  0  0
   -1.5805   -2.7478    1.8242 O   0  0  0  0  0  0  0  0  0  0  0  0
   -2.2045   -1.1637    0.3562 N   0  0  0  0  0  0  0  0  0  0  0  0
   -2.9595   -0.7907   -0.2008 H   0  0  0  0  0  0  0  0  0  0  0  0
   -0.9485   -0.4087    0.3482 C   0  0  1  0  0  0  0  0  0  0  0  0
   -0.1408   -1.0795    0.0507 H   0  0  0  0  0  0  0  0  0  0  0  0
   -1.0432    0.7243   -0.6879 C   0  0  0  0  0  0  0  0  0  0  0  0
   -0.0494    0.9184   -1.0939 H   0  0  0  0  0  0  0  0  0  0  0  0
   -1.6760    0.3963   -1.5140 H   0  0  0  0  0  0  0  0  0  0  0  0
   -1.5849    2.0260   -0.1285 C   0  0  0  0  0  0  0  0  0  0  0  0
   -2.9008    2.4339   -0.4181 C   0  0  0  0  0  0  0  0  0  0  0  0
   -3.5268    1.8314   -1.0610 H   0  0  0  0  0  0  0  0  0  0  0  0
   -3.4100    3.6220    0.1380 C   0  0  0  0  0  0  0  0  0  0  0  0
   -4.4198    3.9347   -0.0877 H   0  0  0  0  0  0  0  0  0  0  0  0
   -2.6057    4.4028    0.9854 C   0  0  0  0  0  0  0  0  0  0  0  0
   -2.9961    5.3167    1.4107 H   0  0  0  0  0  0  0  0  0  0  0  0
   -1.2898    3.9988    1.2756 C   0  0  0  0  0  0  0  0  0  0  0  0
   -0.6696    4.6017    1.9226 H   0  0  0  0  0  0  0  0  0  0  0  0
   -0.7801    2.8132    0.7171 C   0  0  0  0  0  0  0  0  0  0  0  0
    0.2335    2.5052    0.9384 H   0  0  0  0  0  0  0  0  0  0  0  0
   -0.6196    0.1253    1.7539 C   0  0  0  0  0  0  0  0  0  0  0  0
    0.5216    0.0194    2.2054 O   0  0  0  0  0  0  0  0  0  0  0  0
   -1.6152    0.6924    2.4469 N   0  0  0  0  0  0  0  0  0  0  0  0
   -2.5345    0.6914    2.0318 H   0  0  0  0  0  0  0  0  0  0  0  0
   -1.4720    1.2390    3.7941 C   0  0  0  0  0  0  0  0  0  0  0  0
   -0.6345    1.9391    3.8219 H   0  0  0  0  0  0  0  0  0  0  0  0
   -2.3844    1.7580    4.0892 H   0  0  0  0  0  0  0  0  0  0  0  0
   -1.2733    0.4298    4.4995 H   0  0  0  0  0  0  0  0  0  0  0  0
  5  6  2  0  0  0  0
  5  7  1  0  0  0  0
  2  3  1  0  0  0  0
  2  4  1  0  0  0  0
  2  5  1  0  0  0  0
  1  2  1  0  0  0  0
 25 26  2  0  0  0  0
 25 27  1  0  0  0  0
 23 24  1  0  0  0  0
 21 22  1  0  0  0  0
 21 23  2  0  0  0  0
 19 20  1  0  0  0  0
 19 21  1  0  0  0  0
 17 18  1  0  0  0  0
 17 19  2  0  0  0  0
 15 16  1  0  0  0  0
 15 17  1  0  0  0  0
 14 15  2  0  0  0  0
 14 23  1  0  0  0  0
 11 12  1  0  0  0  0
 11 13  1  0  0  0  0
 11 14  1  0  0  0  0
  9 10  1  0  0  0  0
  9 11  1  0  0  0  0
  9 25  1  0  0  0  0
  7  8  1  0  0  0  0
  7  9  1  0  0  0  0
 29 30  1  0  0  0  0
 29 31  1  0  0  0  0
 29 32  1  0  0  0  0
 27 28  1  0  0  0  0
 27 29  1  0  0  0  0
M  END
$$$$
default_name
  -OEChem-02102213163D

 32 32  0     1  0  0  0  0  0999 V2000
   -3.8405   -3.7518    1.6252 H   0  0  0  0  0  0  0  0  0  0  0  0
   -3.7965   -2.8768    0.9782 C   0  0  0  0  0  0  0  0  0  0  0  0
   -4.5465   -2.1527    1.2902 H   0  0  0  0  0  0  0  0  0  0  0  0
   -3.9745   -3.1748   -0.0538 H   0  0  0  0  0  0  0  0  0  0  0  0
   -2.4245   -2.2537    1.0882 C   0  0  0  0  0  0  0  0  0  0  0  0
   -1.5805   -2.7478    1.8242 O   0  0  0  0  0  0  0  0  0  0  0  0
   -2.2045   -1.1637    0.3562 N   0  0  0  0  0  0  0  0  0  0  0  0
   -2.9595   -0.7907   -0.2008 H   0  0  0  0  0  0  0  0  0  0  0  0
   -0.9485   -0.4087    0.3482 C   0  0  1  0  0  0  0  0  0  0  0  0
   -0.1408   -1.0795    0.0507 H   0  0  0  0  0  0  0  0  0  0  0  0
   -1.0432    0.7243   -0.6879 C   0  0  0  0  0  0  0  0  0  0  0  0
   -0.0494    0.9184   -1.0939 H   0  0  0  0  0  0  0  0  0  0  0  0
   -1.6760    0.3963   -1.5140 H   0  0  0  0  0  0  0  0  0  0  0  0
   -1.5849    2.0260   -0.1285 C   0  0  0  0  0  0  0  0  0  0  0  0
   -2.9679    2.2885   -0.1447 C   0  0  0  0  0  0  0  0  0  0  0  0
   -3.6514    1.5718   -0.5776 H   0  0  0  0  0  0  0  0  0  0  0  0
   -3.4667    3.4800    0.4134 C   0  0  0  0  0  0  0  0  0  0  0  0
   -4.5288    3.6808    0.3977 H   0  0  0  0  0  0  0  0  0  0  0  0
   -2.5846    4.4096    0.9899 C   0  0  0  0  0  0  0  0  0  0  0  0
   -2.9677    5.3261    1.4165 H   0  0  0  0  0  0  0  0  0  0  0  0
   -1.2019    4.1511    1.0063 C   0  0  0  0  0  0  0  0  0  0  0  0
   -0.5232    4.8680    1.4445 H   0  0  0  0  0  0  0  0  0  0  0  0
   -0.7034    2.9618    0.4455 C   0  0  0  0  0  0  0  0  0  0  0  0
    0.3609    2.7656    0.4558 H   0  0  0  0  0  0  0  0  0  0  0  0
   -0.6196    0.1253    1.7539 C   0  0  0  0  0  0  0  0  0  0  0  0
    0.5216    0.0194    2.2054 O   0  0  0  0  0  0  0  0  0  0  0  0
   -1.6152    0.6924    2.4469 N   0  0  0  0  0  0  0  0  0  0  0  0
   -2.5345    0.6914    2.0318 H   0  0  0  0  0  0  0  0  0  0  0  0
   -1.4720    1.2390    3.7941 C   0  0  0  0  0  0  0  0  0  0  0  0
   -0.6345    1.9391    3.8219 H   0  0  0  0  0  0  0  0  0  0  0  0
   -2.3844    1.7580    4.0892 H   0  0  0  0  0  0  0  0  0  0  0  0
   -1.2733    0.4298    4.4995 H   0  0  0  0  0  0  0  0  0  0  0  0
  5  6  2  0  0  0  0
  5  7  1  0  0  0  0
  2  3  1  0  0  0  0
  2  4  1  0  0  0  0
  2  5  1  0  0  0  0
  1  2  1  0  0  0  0
 25 26  2  0  0  0  0
 25 27  1  0  0  0  0
 23 24  1  0  0  0  0
 21 22  1  0  0  0  0
 21 23  2  0  0  0  0
 19 20  1  0  0  0  0
 19 21  1  0  0  0  0
 17 18  1  0  0  0  0
 17 19  2  0  0  0  0
 15 16  1  0  0  0  0
 15 17  1  0  0  0  0
 14 15  2  0  0  0  0
 14 23  1  0  0  0  0
 11 12  1  0  0  0  0
 11 13  1  0  0  0  0
 11 14  1  0  0  0  0
  9 10  1  0  0  0  0
  9 11  1  0  0  0  0
  9 25  1  0  0  0  0
  7  8  1  0  0  0  0
  7  9  1  0  0  0  0
 29 30  1  0  0  0  0
 29 31  1  0  0  0  0
 29 32  1  0  0  0  0
 27 28  1  0  0  0  0
 27 29  1  0  0  0  0
M  END
$$$$
default_name
  -OEChem-02102213163D

 32 32  0     1  0  0  0  0  0999 V2000
   -3.8405   -3.7518    1.6252 H   0  0  0  0  0  0  0  0  0  0  0  0
   -3.7965   -2.8768    0.9782 C   0  0  0  0  0  0  0  0  0  0  0  0
   -4.5465   -2.1527    1.2902 H   0  0  0  0  0  0  0  0  0  0  0  0
   -3.9745   -3.1748   -0.0538 H   0  0  0  0  0  0  0  0  0  0  0  0
   -2.4245   -2.2537    1.0882 C   0  0  0  0  0  0  0  0  0  0  0  0
   -1.5805   -2.7478    1.8242 O   0  0  0  0  0  0  0  0  0  0  0  0
   -2.2045   -1.1637    0.3562 N   0  0  0  0  0  0  0  0  0  0  0  0
   -2.9595   -0.7907   -0.2008 H   0  0  0  0  0  0  0  0  0  0  0  0
   -0.9485   -0.4087    0.3482 C   0  0  1  0  0  0  0  0  0  0  0  0
   -0.1408   -1.0795    0.0507 H   0  0  0  0  0  0  0  0  0  0  0  0
   -1.0432    0.7243   -0.6879 C   0  0  0  0  0  0  0  0  0  0  0  0
   -0.0494    0.9184   -1.0939 H   0  0  0  0  0  0  0  0  0  0  0  0
   -1.6760    0.3963   -1.5140 H   0  0  0  0  0  0  0  0  0  0  0  0
   -1.5849    2.0260   -0.1285 C   0  0  0  0  0  0  0  0  0  0  0  0
   -2.9581    2.1669    0.1478 C   0  0  0  0  0  0  0  0  0  0  0  0
   -3.6396    1.3539   -0.0591 H   0  0  0  0  0  0  0  0  0  0  0  0
   -3.4468    3.3629    0.7052 C   0  0  0  0  0  0  0  0  0  0  0  0
   -4.5020    3.4700    0.9142 H   0  0  0  0  0  0  0  0  0  0  0  0
   -2.5639    4.4187    0.9889 C   0  0  0  0  0  0  0  0  0  0  0  0
   -2.9398    5.3384    1.4149 H   0  0  0  0  0  0  0  0  0  0  0  0
   -1.1914    4.2817    0.7126 C   0  0  0  0  0  0  0  0  0  0  0  0
   -0.5134    5.0951    0.9256 H   0  0  0  0  0  0  0  0  0  0  0  0
   -0.7037    3.0876    0.1525 C   0  0  0  0  0  0  0  0  0  0  0  0
    0.3519    2.9847   -0.0627 H   0  0  0  0  0  0  0  0  0  0  0  0
   -0.6196    0.1253    1.7539 C   0  0  0  0  0  0  0  0  0  0  0  0
    0.5216    0.0194    2.2054 O   0  0  0  0  0  0  0  0  0  0  0  0
   -1.6152    0.6924    2.4469 N   0  0  0  0  0  0  0  0  0  0  0  0
   -2.5345    0.6914    2.0318 H   0  0  0  0  0  0  0  0  0  0  0  0
   -1.4720    1.2390    3.7941 C   0  0  0  0  0  0  0  0  0  0  0  0
   -0.6345    1.9391    3.8219 H   0  0  0  0  0  0  0  0  0  0  0  0
   -2.3844    1.7580    4.0892 H   0  0  0  0  0  0  0  0  0  0  0  0
   -1.2733    0.4298    4.4995 H   0  0  0  0  0  0  0  0  0  0  0  0
  5  6  2  0  0  0  0
  5  7  1  0  0  0  0
  2  3  1  0  0  0  0
  2  4  1  0  0  0  0
  2  5  1  0  0  0  0
  1  2  1  0  0  0  0
 25 26  2  0  0  0  0
 25 27  1  0  0  0  0
 23 24  1  0  0  0  0
 21 22  1  0  0  0  0
 21 23  2  0  0  0  0
 19 20  1  0  0  0  0
 19 21  1  0  0  0  0
 17 18  1  0  0  0  0
 17 19  2  0  0  0  0
 15 16  1  0  0  0  0
 15 17  1  0  0  0  0
 14 15  2  0  0  0  0
 14 23  1  0  0  0  0
 11 12  1  0  0  0  0
 11 13  1  0  0  0  0
 11 14  1  0  0  0  0
  9 10  1  0  0  0  0
  9 11  1  0  0  0  0
  9 25  1  0  0  0  0
  7  8  1  0  0  0  0
  7  9  1  0  0  0  0
 29 30  1  0  0  0  0
 29 31  1  0  0  0  0
 29 32  1  0  0  0  0
 27 28  1  0  0  0  0
 27 29  1  0  0  0  0
M  END
$$$$
default_name
  -OEChem-02102213163D

 32 32  0     1  0  0  0  0  0999 V2000
   -3.8405   -3.7518    1.6252 H   0  0  0  0  0  0  0  0  0  0  0  0
   -3.7965   -2.8768    0.9782 C   0  0  0  0  0  0  0  0  0  0  0  0
   -4.5465   -2.1527    1.2902 H   0  0  0  0  0  0  0  0  0  0  0  0
   -3.9745   -3.1748   -0.0538 H   0  0  0  0  0  0  0  0  0  0  0  0
   -2.4245   -2.2537    1.0882 C   0  0  0  0  0  0  0  0  0  0  0  0
   -1.5805   -2.7478    1.8242 O   0  0  0  0  0  0  0  0  0  0  0  0
   -2.2045   -1.1637    0.3562 N   0  0  0  0  0  0  0  0  0  0  0  0
   -2.9595   -0.7907   -0.2008 H   0  0  0  0  0  0  0  0  0  0  0  0
   -0.9485   -0.4087    0.3482 C   0  0  1  0  0  0  0  0  0  0  0  0
   -0.1408   -1.0795    0.0507 H   0  0  0  0  0  0  0  0  0  0  0  0
   -1.0432    0.7243   -0.6879 C   0  0  0  0  0  0  0  0  0  0  0  0
   -0.0494    0.9184   -1.0939 H   0  0  0  0  0  0  0  0  0  0  0  0
   -1.6760    0.3963   -1.5140 H   0  0  0  0  0  0  0  0  0  0  0  0
   -1.5849    2.0260   -0.1285 C   0  0  0  0  0  0  0  0  0  0  0  0
   -2.8721    2.0775    0.4393 C   0  0  0  0  0  0  0  0  0  0  0  0
   -3.4922    1.1924    0.4594 H   0  0  0  0  0  0  0  0  0  0  0  0
   -3.3516    3.2787    0.9934 C   0  0  0  0  0  0  0  0  0  0  0  0
   -4.3412    3.3167    1.4266 H   0  0  0  0  0  0  0  0  0  0  0  0
   -2.5450    4.4293    0.9825 C   0  0  0  0  0  0  0  0  0  0  0  0
   -2.9144    5.3528    1.4060 H   0  0  0  0  0  0  0  0  0  0  0  0
   -1.2589    4.3817    0.4145 C   0  0  0  0  0  0  0  0  0  0  0  0
   -0.6408    5.2675    0.4011 H   0  0  0  0  0  0  0  0  0  0  0  0
   -0.7812    3.1820   -0.1421 C   0  0  0  0  0  0  0  0  0  0  0  0
    0.2071    3.1475   -0.5818 H   0  0  0  0  0  0  0  0  0  0  0  0
   -0.6196    0.1253    1.7539 C   0  0  0  0  0  0  0  0  0  0  0  0
    0.5216    0.0194    2.2054 O   0  0  0  0  0  0  0  0  0  0  0  0
   -1.6152    0.6924    2.4469 N   0  0  0  0  0  0  0  0  0  0  0  0
   -2.5345    0.6914    2.0318 H   0  0  0  0  0  0  0  0  0  0  0  0
   -1.4720    1.2390    3.7941 C   0  0  0  0  0  0  0  0  0  0  0  0
   -0.6345    1.9391    3.8219 H   0  0  0  0  0  0  0  0  0  0  0  0
   -2.3844    1.7580    4.0892 H   0  0  0  0  0  0  0  0  0  0  0  0
   -1.2733    0.4298    4.4995 H   0  0  0  0  0  0  0  0  0  0  0  0
  5  6  2  0  0  0  0
  5  7  1  0  0  0  0
  2  3  1  0  0  0  0
  2  4  1  0  0  0  0
  2  5  1  0  0  0  0
  1  2  1  0  0  0  0
 25 26  2  0  0  0  0
 25 27  1  0  0  0  0
 23 24  1  0  0  0  0
 21 22  1  0  0  0  0
 21 23  2  0  0  0  0
 19 20  1  0  0  0  0
 19 21  1  0  0  0  0
 17 18  1  0  0  0  0
 17 19  2  0  0  0  0
 15 16  1  0  0  0  0
 15 17  1  0  0  0  0
 14 15  2  0  0  0  0
 14 23  1  0  0  0  0
 11 12  1  0  0  0  0
 11 13  1  0  0  0  0
 11 14  1  0  0  0  0
  9 10  1  0  0  0  0
  9 11  1  0  0  0  0
  9 25  1  0  0  0  0
  7  8  1  0  0  0  0
  7  9  1  0  0  0  0
 29 30  1  0  0  0  0
 29 31  1  0  0  0  0
 29 32  1  0  0  0  0
 27 28  1  0  0  0  0
 27 29  1  0  0  0  0
M  END
$$$$
default_name
  -OEChem-02102213163D

 32 32  0     1  0  0  0  0  0999 V2000
   -3.8405   -3.7518    1.6252 H   0  0  0  0  0  0  0  0  0  0  0  0
   -3.7965   -2.8768    0.9782 C   0  0  0  0  0  0  0  0  0  0  0  0
   -4.5465   -2.1527    1.2902 H   0  0  0  0  0  0  0  0  0  0  0  0
   -3.9745   -3.1748   -0.0538 H   0  0  0  0  0  0  0  0  0  0  0  0
   -2.4245   -2.2537    1.0882 C   0  0  0  0  0  0  0  0  0  0  0  0
   -1.5805   -2.7478    1.8242 O   0  0  0  0  0  0  0  0  0  0  0  0
   -2.2045   -1.1637    0.3562 N   0  0  0  0  0  0  0  0  0  0  0  0
   -2.9595   -0.7907   -0.2008 H   0  0  0  0  0  0  0  0  0  0  0  0
   -0.9485   -0.4087    0.3482 C   0  0  1  0  0  0  0  0  0  0  0  0
   -0.1408   -1.0795    0.0507 H   0  0  0  0  0  0  0  0  0  0  0  0
   -1.0432    0.7243   -0.6879 C   0  0  0  0  0  0  0  0  0  0  0  0
   -0.0494    0.9184   -1.0939 H   0  0  0  0  0  0  0  0  0  0  0  0
   -1.6760    0.3963   -1.5140 H   0  0  0  0  0  0  0  0  0  0  0  0
   -1.5849    2.0260   -0.1285 C   0  0  0  0  0  0  0  0  0  0  0  0
   -2.7157    2.0262    0.7101 C   0  0  0  0  0  0  0  0  0  0  0  0
   -3.2193    1.0984    0.9423 H   0  0  0  0  0  0  0  0  0  0  0  0
   -3.1876    3.2331    1.2584 C   0  0  0  0  0  0  0  0  0  0  0  0
   -4.0575    3.2313    1.9000 H   0  0  0  0  0  0  0  0  0  0  0  0
   -2.5292    4.4408    0.9711 C   0  0  0  0  0  0  0  0  0  0  0  0
   -2.8932    5.3683    1.3905 H   0  0  0  0  0  0  0  0  0  0  0  0
   -1.3998    4.4443    0.1323 C   0  0  0  0  0  0  0  0  0  0  0  0
   -0.8969    5.3733   -0.0930 H   0  0  0  0  0  0  0  0  0  0  0  0
   -0.9305    3.2385   -0.4182 C   0  0  0  0  0  0  0  0  0  0  0  0
   -0.0635    3.2430   -1.0661 H   0  0  0  0  0  0  0  0  0  0  0  0
   -0.6196    0.1253    1.7539 C   0  0  0  0  0  0  0  0  0  0  0  0
    0.5216    0.0194    2.2054 O   0  0  0  0  0  0  0  0  0  0  0  0
   -1.6152    0.6924    2.4469 N   0  0  0  0  0  0  0  0  0  0  0  0
   -2.5345    0.6914    2.0318 H   0  0  0  0  0  0  0  0  0  0  0  0
   -1.4720    1.2390    3.7941 C   0  0  0  0  0  0  0  0  0  0  0  0
   -0.6345    1.9391    3.8219 H   0  0  0  0  0  0  0  0  0  0  0  0
   -2.3844    1.7580    4.0892 H   0  0  0  0  0  0  0  0  0  0  0  0
   -1.2733    0.4298    4.4995 H   0  0  0  0  0  0  0  0  0  0  0  0
  5  6  2  0  0  0  0
  5  7  1  0  0  0  0
  2  3  1  0  0  0  0
  2  4  1  0  0  0  0
  2  5  1  0  0  0  0
  1  2  1  0  0  0  0
 25 26  2  0  0  0  0
 25 27  1  0  0  0  0
 23 24  1  0  0  0  0
 21 22  1  0  0  0  0
 21 23  2  0  0  0  0
 19 20  1  0  0  0  0
 19 21  1  0  0  0  0
 17 18  1  0  0  0  0
 17 19  2  0  0  0  0
 15 16  1  0  0  0  0
 15 17  1  0  0  0  0
 14 15  2  0  0  0  0
 14 23  1  0  0  0  0
 11 12  1  0  0  0  0
 11 13  1  0  0  0  0
 11 14  1  0  0  0  0
  9 10  1  0  0  0  0
  9 11  1  0  0  0  0
  9 25  1  0  0  0  0
  7  8  1  0  0  0  0
  7  9  1  0  0  0  0
 29 30  1  0  0  0  0
 29 31  1  0  0  0  0
 29 32  1  0  0  0  0
 27 28  1  0  0  0  0
 27 29  1  0  0  0  0
M  END
$$$$
default_name
  -OEChem-02102213163D

 32 32  0     1  0  0  0  0  0999 V2000
   -3.8405   -3.7518    1.6252 H   0  0  0  0  0  0  0  0  0  0  0  0
   -3.7965   -2.8768    0.9782 C   0  0  0  0  0  0  0  0  0  0  0  0
   -4.5465   -2.1527    1.2902 H   0  0  0  0  0  0  0  0  0  0  0  0
   -3.9745   -3.1748   -0.0538 H   0  0  0  0  0  0  0  0  0  0  0  0
   -2.4245   -2.2537    1.0882 C   0  0  0  0  0  0  0  0  0  0  0  0
   -1.5805   -2.7478    1.8242 O   0  0  0  0  0  0  0  0  0  0  0  0
   -2.2045   -1.1637    0.3562 N   0  0  0  0  0  0  0  0  0  0  0  0
   -2.9595   -0.7907   -0.2008 H   0  0  0  0  0  0  0  0  0  0  0  0
   -0.9485   -0.4087    0.3482 C   0  0  1  0  0  0  0  0  0  0  0  0
   -0.1408   -1.0795    0.0507 H   0  0  0  0  0  0  0  0  0  0  0  0
   -1.0432    0.7243   -0.6879 C   0  0  0  0  0  0  0  0  0  0  0  0
   -0.0494    0.9184   -1.0939 H   0  0  0  0  0  0  0  0  0  0  0  0
   -1.6760    0.3963   -1.5140 H   0  0  0  0  0  0  0  0  0  0  0  0
   -1.5849    2.0260   -0.1285 C   0  0  0  0  0  0  0  0  0  0  0  0
   -2.4996    2.0166    0.9416 C   0  0  0  0  0  0  0  0  0  0  0  0
   -2.8395    1.0784    1.3569 H   0  0  0  0  0  0  0  0  0  0  0  0
   -2.9659    3.2291    1.4822 C   0  0  0  0  0  0  0  0  0  0  0  0
   -3.6702    3.2196    2.3022 H   0  0  0  0  0  0  0  0  0  0  0  0
   -2.5175    4.4523    0.9555 C   0  0  0  0  0  0  0  0  0  0  0  0
   -2.8776    5.3838    1.3693 H   0  0  0  0  0  0  0  0  0  0  0  0
   -1.6047    4.4652   -0.1148 C   0  0  0  0  0  0  0  0  0  0  0  0
   -1.2641    5.4054   -0.5233 H   0  0  0  0  0  0  0  0  0  0  0  0
   -1.1413    3.2533   -0.6570 C   0  0  0  0  0  0  0  0  0  0  0  0
   -0.4417    3.2646   -1.4826 H   0  0  0  0  0  0  0  0  0  0  0  0
   -0.6196    0.1253    1.7539 C   0  0  0  0  0  0  0  0  0  0  0  0
    0.5216    0.0194    2.2054 O   0  0  0  0  0  0  0  0  0  0  0  0
   -1.6152    0.6924    2.4469 N   0  0  0  0  0  0  0  0  0  0  0  0
   -2.5345    0.6914    2.0318 H   0  0  0  0  0  0  0  0  0  0  0  0
   -1.4720    1.2390    3.7941 C   0  0  0  0  0  0  0  0  0  0  0  0
   -0.6345    1.9391    3.8219 H   0  0  0  0  0  0  0  0  0  0  0  0
   -2.3844    1.7580    4.0892 H   0  0  0  0  0  0  0  0  0  0  0  0
   -1.2733    0.4298    4.4995 H   0  0  0  0  0  0  0  0  0  0  0  0
  5  6  2  0  0  0  0
  5  7  1  0  0  0  0
  2  3  1  0  0  0  0
  2  4  1  0  0  0  0
  2  5  1  0  0  0  0
  1  2  1  0  0  0  0
 25 26  2  0  0  0  0
 25 27  1  0  0  0  0
 23 24  1  0  0  0  0
 21 22  1  0  0  0  0
 21 23  2  0  0  0  0
 19 20  1  0  0  0  0
 19 21  1  0  0  0  0
 17 18  1  0  0  0  0
 17 19  2  0  0  0  0
 15 16  1  0  0  0  0
 15 17  1  0  0  0  0
 14 15  2  0  0  0  0
 14 23  1  0  0  0  0
 11 12  1  0  0  0  0
 11 13  1  0  0  0  0
 11 14  1  0  0  0  0
  9 10  1  0  0  0  0
  9 11  1  0  0  0  0
  9 25  1  0  0  0  0
  7  8  1  0  0  0  0
  7  9  1  0  0  0  0
 29 30  1  0  0  0  0
 29 31  1  0  0  0  0
 29 32  1  0  0  0  0
 27 28  1  0  0  0  0
 27 29  1  0  0  0  0
M  END
$$$$
default_name
  -OEChem-02102213163D

 32 32  0     1  0  0  0  0  0999 V2000
   -3.8405   -3.7518    1.6252 H   0  0  0  0  0  0  0  0  0  0  0  0
   -3.7965   -2.8768    0.9782 C   0  0  0  0  0  0  0  0  0  0  0  0
   -4.5465   -2.1527    1.2902 H   0  0  0  0  0  0  0  0  0  0  0  0
   -3.9745   -3.1748   -0.0538 H   0  0  0  0  0  0  0  0  0  0  0  0
   -2.4245   -2.2537    1.0882 C   0  0  0  0  0  0  0  0  0  0  0  0
   -1.5805   -2.7478    1.8242 O   0  0  0  0  0  0  0  0  0  0  0  0
   -2.2045   -1.1637    0.3562 N   0  0  0  0  0  0  0  0  0  0  0  0
   -2.9595   -0.7907   -0.2008 H   0  0  0  0  0  0  0  0  0  0  0  0
   -0.9485   -0.4087    0.3482 C   0  0  1  0  0  0  0  0  0  0  0  0
   -0.1408   -1.0795    0.0507 H   0  0  0  0  0  0  0  0  0  0  0  0
   -1.0432    0.7243   -0.6879 C   0  0  0  0  0  0  0  0  0  0  0  0
   -0.0494    0.9184   -1.0939 H   0  0  0  0  0  0  0  0  0  0  0  0
   -1.6760    0.3963   -1.5140 H   0  0  0  0  0  0  0  0  0  0  0  0
   -1.5849    2.0260   -0.1285 C   0  0  0  0  0  0  0  0  0  0  0  0
   -2.2385    2.0494    1.1181 C   0  0  0  0  0  0  0  0  0  0  0  0
   -2.3786    1.1335    1.6748 H   0  0  0  0  0  0  0  0  0  0  0  0
   -2.7017    3.2672    1.6495 C   0  0  0  0  0  0  0  0  0  0  0  0
   -3.2056    3.2825    2.6057 H   0  0  0  0  0  0  0  0  0  0  0  0
   -2.5108    4.4631    0.9368 C   0  0  0  0  0  0  0  0  0  0  0  0
   -2.8688    5.3984    1.3440 H   0  0  0  0  0  0  0  0  0  0  0  0
   -1.8594    4.4431   -0.3099 C   0  0  0  0  0  0  0  0  0  0  0  0
   -1.7174    5.3615   -0.8603 H   0  0  0  0  0  0  0  0  0  0  0  0
   -1.3995    3.2255   -0.8421 C   0  0  0  0  0  0  0  0  0  0  0  0
   -0.9015    3.2109   -1.8029 H   0  0  0  0  0  0  0  0  0  0  0  0
   -0.6196    0.1253    1.7539 C   0  0  0  0  0  0  0  0  0  0  0  0
    0.5216    0.0194    2.2054 O   0  0  0  0  0  0  0  0  0  0  0  0
   -1.6152    0.6924    2.4469 N   0  0  0  0  0  0  0  0  0  0  0  0
   -2.5345    0.6914    2.0318 H   0  0  0  0  0  0  0  0  0  0  0  0
   -1.4720    1.2390    3.7941 C   0  0  0  0  0  0  0  0  0  0  0  0
   -0.6345    1.9391    3.8219 H   0  0  0  0  0  0  0  0  0  0  0  0
   -2.3844    1.7580    4.0892 H   0  0  0  0  0  0  0  0  0  0  0  0
   -1.2733    0.4298    4.4995 H   0  0  0  0  0  0  0  0  0  0  0  0
  5  6  2  0  0  0  0
  5  7  1  0  0  0  0
  2  3  1  0  0  0  0
  2  4  1  0  0  0  0
  2  5  1  0  0  0  0
  1  2  1  0  0  0  0
 25 26  2  0  0  0  0
 25 27  1  0  0  0  0
 23 24  1  0  0  0  0
 21 22  1  0  0  0  0
 21 23  2  0  0  0  0
 19 20  1  0  0  0  0
 19 21  1  0  0  0  0
 17 18  1  0  0  0  0
 17 19  2  0  0  0  0
 15 16  1  0  0  0  0
 15 17  1  0  0  0  0
 14 15  2  0  0  0  0
 14 23  1  0  0  0  0
 11 12  1  0  0  0  0
 11 13  1  0  0  0  0
 11 14  1  0  0  0  0
  9 10  1  0  0  0  0
  9 11  1  0  0  0  0
  9 25  1  0  0  0  0
  7  8  1  0  0  0  0
  7  9  1  0  0  0  0
 29 30  1  0  0  0  0
 29 31  1  0  0  0  0
 29 32  1  0  0  0  0
 27 28  1  0  0  0  0
 27 29  1  0  0  0  0
M  END
$$$$
default_name
  -OEChem-02102213163D

 32 32  0     1  0  0  0  0  0999 V2000
   -3.8405   -3.7518    1.6252 H   0  0  0  0  0  0  0  0  0  0  0  0
   -3.7965   -2.8768    0.9782 C   0  0  0  0  0  0  0  0  0  0  0  0
   -4.5465   -2.1527    1.2902 H   0  0  0  0  0  0  0  0  0  0  0  0
   -3.9745   -3.1748   -0.0538 H   0  0  0  0  0  0  0  0  0  0  0  0
   -2.4245   -2.2537    1.0882 C   0  0  0  0  0  0  0  0  0  0  0  0
   -1.5805   -2.7478    1.8242 O   0  0  0  0  0  0  0  0  0  0  0  0
   -2.2045   -1.1637    0.3562 N   0  0  0  0  0  0  0  0  0  0  0  0
   -2.9595   -0.7907   -0.2008 H   0  0  0  0  0  0  0  0  0  0  0  0
   -0.9485   -0.4087    0.3482 C   0  0  1  0  0  0  0  0  0  0  0  0
   -0.1408   -1.0795    0.0507 H   0  0  0  0  0  0  0  0  0  0  0  0
   -1.0432    0.7243   -0.6879 C   0  0  0  0  0  0  0  0  0  0  0  0
   -0.0494    0.9184   -1.0939 H   0  0  0  0  0  0  0  0  0  0  0  0
   -1.6760    0.3963   -1.5140 H   0  0  0  0  0  0  0  0  0  0  0  0
   -1.5849    2.0260   -0.1285 C   0  0  0  0  0  0  0  0  0  0  0  0
   -1.9503    2.1223    1.2276 C   0  0  0  0  0  0  0  0  0  0  0  0
   -1.8680    1.2602    1.8744 H   0  0  0  0  0  0  0  0  0  0  0  0
   -2.4130    3.3446    1.7489 C   0  0  0  0  0  0  0  0  0  0  0  0
   -2.6955    3.4157    2.7899 H   0  0  0  0  0  0  0  0  0  0  0  0
   -2.5095    4.4725    0.9163 C   0  0  0  0  0  0  0  0  0  0  0  0
   -2.8673    5.4110    1.3162 H   0  0  0  0  0  0  0  0  0  0  0  0
   -2.1466    4.3793   -0.4397 C   0  0  0  0  0  0  0  0  0  0  0  0
   -2.2259    5.2448   -1.0811 H   0  0  0  0  0  0  0  0  0  0  0  0
   -1.6873    3.1568   -0.9611 C   0  0  0  0  0  0  0  0  0  0  0  0
   -1.4117    3.0856   -2.0052 H   0  0  0  0  0  0  0  0  0  0  0  0
   -0.6196    0.1253    1.7539 C   0  0  0  0  0  0  0  0  0  0  0  0
    0.5216    0.0194    2.2054 O   0  0  0  0  0  0  0  0  0  0  0  0
   -1.6152    0.6924    2.4469 N   0  0  0  0  0  0  0  0  0  0  0  0
   -2.5345    0.6914    2.0318 H   0  0  0  0  0  0  0  0  0  0  0  0
   -1.4720    1.2390    3.7941 C   0  0  0  0  0  0  0  0  0  0  0  0
   -0.6345    1.9391    3.8219 H   0  0  0  0  0  0  0  0  0  0  0  0
   -2.3844    1.7580    4.0892 H   0  0  0  0  0  0  0  0  0  0  0  0
   -1.2733    0.4298    4.4995 H   0  0  0  0  0  0  0  0  0  0  0  0
  5  6  2  0  0  0  0
  5  7  1  0  0  0  0
  2  3  1  0  0  0  0
  2  4  1  0  0  0  0
  2  5  1  0  0  0  0
  1  2  1  0  0  0  0
 25 26  2  0  0  0  0
 25 27  1  0  0  0  0
 23 24  1  0  0  0  0
 21 22  1  0  0  0  0
 21 23  2  0  0  0  0
 19 20  1  0  0  0  0
 19 21  1  0  0  0  0
 17 18  1  0  0  0  0
 17 19  2  0  0  0  0
 15 16  1  0  0  0  0
 15 17  1  0  0  0  0
 14 15  2  0  0  0  0
 14 23  1  0  0  0  0
 11 12  1  0  0  0  0
 11 13  1  0  0  0  0
 11 14  1  0  0  0  0
  9 10  1  0  0  0  0
  9 11  1  0  0  0  0
  9 25  1  0  0  0  0
  7  8  1  0  0  0  0
  7  9  1  0  0  0  0
 29 30  1  0  0  0  0
 29 31  1  0  0  0  0
 29 32  1  0  0  0  0
 27 28  1  0  0  0  0
 27 29  1  0  0  0  0
M  END
$$$$
default_name
  -OEChem-02102213163D

 32 32  0     1  0  0  0  0  0999 V2000
   -3.8405   -3.7518    1.6252 H   0  0  0  0  0  0  0  0  0  0  0  0
   -3.7965   -2.8768    0.9782 C   0  0  0  0  0  0  0  0  0  0  0  0
   -4.5465   -2.1527    1.2902 H   0  0  0  0  0  0  0  0  0  0  0  0
   -3.9745   -3.1748   -0.0538 H   0  0  0  0  0  0  0  0  0  0  0  0
   -2.4245   -2.2537    1.0882 C   0  0  0  0  0  0  0  0  0  0  0  0
   -1.5805   -2.7478    1.8242 O   0  0  0  0  0  0  0  0  0  0  0  0
   -2.2045   -1.1637    0.3562 N   0  0  0  0  0  0  0  0  0  0  0  0
   -2.9595   -0.7907   -0.2008 H   0  0  0  0  0  0  0  0  0  0  0  0
   -0.9485   -0.4087    0.3482 C   0  0  1  0  0  0  0  0  0  0  0  0
   -0.1408   -1.0795    0.0507 H   0  0  0  0  0  0  0  0  0  0  0  0
   -1.0432    0.7243   -0.6879 C   0  0  0  0  0  0  0  0  0  0  0  0
   -0.0494    0.9184   -1.0939 H   0  0  0  0  0  0  0  0  0  0  0  0
   -1.6760    0.3963   -1.5140 H   0  0  0  0  0  0  0  0  0  0  0  0
   -1.5849    2.0260   -0.1285 C   0  0  0  0  0  0  0  0  0  0  0  0
   -1.6545    2.2304    1.2626 C   0  0  0  0  0  0  0  0  0  0  0  0
   -1.3426    1.4498    1.9421 H   0  0  0  0  0  0  0  0  0  0  0  0
   -2.1195    3.4561    1.7736 C   0  0  0  0  0  0  0  0  0  0  0  0
   -2.1745    3.6100    2.8421 H   0  0  0  0  0  0  0  0  0  0  0  0
   -2.5137    4.4798    0.8953 C   0  0  0  0  0  0  0  0  0  0  0  0
   -2.8732    5.4207    1.2879 H   0  0  0  0  0  0  0  0  0  0  0  0
   -2.4468    4.2783   -0.4954 C   0  0  0  0  0  0  0  0  0  0  0  0
   -2.7550    5.0631   -1.1706 H   0  0  0  0  0  0  0  0  0  0  0  0
   -1.9852    3.0520   -1.0057 C   0  0  0  0  0  0  0  0  0  0  0  0
   -1.9374    2.8971   -2.0757 H   0  0  0  0  0  0  0  0  0  0  0  0
   -0.6196    0.1253    1.7539 C   0  0  0  0  0  0  0  0  0  0  0  0
    0.5216    0.0194    2.2054 O   0  0  0  0  0  0  0  0  0  0  0  0
   -1.6152    0.6924    2.4469 N   0  0  0  0  0  0  0  0  0  0  0  0
   -2.5345    0.6914    2.0318 H   0  0  0  0  0  0  0  0  0  0  0  0
   -1.4720    1.2390    3.7941 C   0  0  0  0  0  0  0  0  0  0  0  0
   -0.6345    1.9391    3.8219 H   0  0  0  0  0  0  0  0  0  0  0  0
   -2.3844    1.7580    4.0892 H   0  0  0  0  0  0  0  0  0  0  0  0
   -1.2733    0.4298    4.4995 H   0  0  0  0  0  0  0  0  0  0  0  0
  5  6  2  0  0  0  0
  5  7  1  0  0  0  0
  2  3  1  0  0  0  0
  2  4  1  0  0  0  0
  2  5  1  0  0  0  0
  1  2  1  0  0  0  0
 25 26  2  0  0  0  0
 25 27  1  0  0  0  0
 23 24  1  0  0  0  0
 21 22  1  0  0  0  0
 21 23  2  0  0  0  0
 19 20  1  0  0  0  0
 19 21  1  0  0  0  0
 17 18  1  0  0  0  0
 17 19  2  0  0  0  0
 15 16  1  0  0  0  0
 15 17  1  0  0  0  0
 14 15  2  0  0  0  0
 14 23  1  0  0  0  0
 11 12  1  0  0  0  0
 11 13  1  0  0  0  0
 11 14  1  0  0  0  0
  9 10  1  0  0  0  0
  9 11  1  0  0  0  0
  9 25  1  0  0  0  0
  7  8  1  0  0  0  0
  7  9  1  0  0  0  0
 29 30  1  0  0  0  0
 29 31  1  0  0  0  0
 29 32  1  0  0  0  0
 27 28  1  0  0  0  0
 27 29  1  0  0  0  0
M  END
$$$$
default_name
  -OEChem-02102213163D

 32 32  0     1  0  0  0  0  0999 V2000
   -3.8405   -3.7518    1.6252 H   0  0  0  0  0  0  0  0  0  0  0  0
   -3.7965   -2.8768    0.9782 C   0  0  0  0  0  0  0  0  0  0  0  0
   -4.5465   -2.1527    1.2902 H   0  0  0  0  0  0  0  0  0  0  0  0
   -3.9745   -3.1748   -0.0538 H   0  0  0  0  0  0  0  0  0  0  0  0
   -2.4245   -2.2537    1.0882 C   0  0  0  0  0  0  0  0  0  0  0  0
   -1.5805   -2.7478    1.8242 O   0  0  0  0  0  0  0  0  0  0  0  0
   -2.2045   -1.1637    0.3562 N   0  0  0  0  0  0  0  0  0  0  0  0
   -2.9595   -0.7907   -0.2008 H   0  0  0  0  0  0  0  0  0  0  0  0
   -0.9485   -0.4087    0.3482 C   0  0  1  0  0  0  0  0  0  0  0  0
   -0.1408   -1.0795    0.0507 H   0  0  0  0  0  0  0  0  0  0  0  0
   -1.0432    0.7243   -0.6879 C   0  0  0  0  0  0  0  0  0  0  0  0
   -0.0494    0.9184   -1.0939 H   0  0  0  0  0  0  0  0  0  0  0  0
   -1.6760    0.3963   -1.5140 H   0  0  0  0  0  0  0  0  0  0  0  0
   -1.5849    2.0260   -0.1285 C   0  0  0  0  0  0  0  0  0  0  0  0
   -1.3713    2.3662    1.2207 C   0  0  0  0  0  0  0  0  0  0  0  0
   -0.8382    1.6893    1.8733 H   0  0  0  0  0  0  0  0  0  0  0  0
   -1.8411    3.5942    1.7219 C   0  0  0  0  0  0  0  0  0  0  0  0
   -1.6782    3.8523    2.7590 H   0  0  0  0  0  0  0  0  0  0  0  0
   -2.5231    4.4845    0.8753 C   0  0  0  0  0  0  0  0  0  0  0  0
   -2.8861    5.4269    1.2610 H   0  0  0  0  0  0  0  0  0  0  0  0
   -2.7396    4.1470   -0.4732 C   0  0  0  0  0  0  0  0  0  0  0  0
   -3.2685    4.8288   -1.1227 H   0  0  0  0  0  0  0  0  0  0  0  0
   -2.2728    2.9182   -0.9729 C   0  0  0  0  0  0  0  0  0  0  0  0
   -2.4429    2.6583   -2.0097 H   0  0  0  0  0  0  0  0  0  0  0  0
   -0.6196    0.1253    1.7539 C   0  0  0  0  0  0  0  0  0  0  0  0
    0.5216    0.0194    2.2054 O   0  0  0  0  0  0  0  0  0  0  0  0
   -1.6152    0.6924    2.4469 N   0  0  0  0  0  0  0  0  0  0  0  0
   -2.5345    0.6914    2.0318 H   0  0  0  0  0  0  0  0  0  0  0  0
   -1.4720    1.2390    3.7941 C   0  0  0  0  0  0  0  0  0  0  0  0
   -0.6345    1.9391    3.8219 H   0  0  0  0  0  0  0  0  0  0  0  0
   -2.3844    1.7580    4.0892 H   0  0  0  0  0  0  0  0  0  0  0  0
   -1.2733    0.4298    4.4995 H   0  0  0  0  0  0  0  0  0  0  0  0
  5  6  2  0  0  0  0
  5  7  1  0  0  0  0
  2  3  1  0  0  0  0
  2  4  1  0  0  0  0
  2  5  1  0  0  0  0
  1  2  1  0  0  0  0
 25 26  2  0  0  0  0
 25 27  1  0  0  0  0
 23 24  1  0  0  0  0
 21 22  1  0  0  0  0
 21 23  2  0  0  0  0
 19 20  1  0  0  0  0
 19 21  1  0  0  0  0
 17 18  1  0  0  0  0
 17 19  2  0  0  0  0
 15 16  1  0  0  0  0
 15 17  1  0  0  0  0
 14 15  2  0  0  0  0
 14 23  1  0  0  0  0
 11 12  1  0  0  0  0
 11 13  1  0  0  0  0
 11 14  1  0  0  0  0
  9 10  1  0  0  0  0
  9 11  1  0  0  0  0
  9 25  1  0  0  0  0
  7  8  1  0  0  0  0
  7  9  1  0  0  0  0
 29 30  1  0  0  0  0
 29 31  1  0  0  0  0
 29 32  1  0  0  0  0
 27 28  1  0  0  0  0
 27 29  1  0  0  0  0
M  END
$$$$
default_name
  -OEChem-02102213163D

 32 32  0     1  0  0  0  0  0999 V2000
   -3.8405   -3.7518    1.6252 H   0  0  0  0  0  0  0  0  0  0  0  0
   -3.7965   -2.8768    0.9782 C   0  0  0  0  0  0  0  0  0  0  0  0
   -4.5465   -2.1527    1.2902 H   0  0  0  0  0  0  0  0  0  0  0  0
   -3.9745   -3.1748   -0.0538 H   0  0  0  0  0  0  0  0  0  0  0  0
   -2.4245   -2.2537    1.0882 C   0  0  0  0  0  0  0  0  0  0  0  0
   -1.5805   -2.7478    1.8242 O   0  0  0  0  0  0  0  0  0  0  0  0
   -2.2045   -1.1637    0.3562 N   0  0  0  0  0  0  0  0  0  0  0  0
   -2.9595   -0.7907   -0.2008 H   0  0  0  0  0  0  0  0  0  0  0  0
   -0.9485   -0.4087    0.3482 C   0  0  1  0  0  0  0  0  0  0  0  0
   -0.1408   -1.0795    0.0507 H   0  0  0  0  0  0  0  0  0  0  0  0
   -1.0432    0.7243   -0.6879 C   0  0  0  0  0  0  0  0  0  0  0  0
   -0.0494    0.9184   -1.0939 H   0  0  0  0  0  0  0  0  0  0  0  0
   -1.6760    0.3963   -1.5140 H   0  0  0  0  0  0  0  0  0  0  0  0
   -1.5849    2.0260   -0.1285 C   0  0  0  0  0  0  0  0  0  0  0  0
   -1.1200    2.5206    1.1048 C   0  0  0  0  0  0  0  0  0  0  0  0
   -0.3891    1.9624    1.6727 H   0  0  0  0  0  0  0  0  0  0  0  0
   -1.5968    3.7493    1.5975 C   0  0  0  0  0  0  0  0  0  0  0  0
   -1.2405    4.1260    2.5460 H   0  0  0  0  0  0  0  0  0  0  0  0
   -2.5371    4.4863    0.8576 C   0  0  0  0  0  0  0  0  0  0  0  0
   -2.9051    5.4291    1.2372 H   0  0  0  0  0  0  0  0  0  0  0  0
   -3.0048    3.9942   -0.3745 C   0  0  0  0  0  0  0  0  0  0  0  0
   -3.7317    4.5579   -0.9408 H   0  0  0  0  0  0  0  0  0  0  0  0
   -2.5306    2.7646   -0.8650 C   0  0  0  0  0  0  0  0  0  0  0  0
   -2.8937    2.3855   -1.8115 H   0  0  0  0  0  0  0  0  0  0  0  0
   -0.6196    0.1253    1.7539 C   0  0  0  0  0  0  0  0  0  0  0  0
    0.5216    0.0194    2.2054 O   0  0  0  0  0  0  0  0  0  0  0  0
   -1.6152    0.6924    2.4469 N   0  0  0  0  0  0  0  0  0  0  0  0
   -2.5345    0.6914    2.0318 H   0  0  0  0  0  0  0  0  0  0  0  0
   -1.4720    1.2390    3.7941 C   0  0  0  0  0  0  0  0  0  0  0  0
   -0.6345    1.9391    3.8219 H   0  0  0  0  0  0  0  0  0  0  0  0
   -2.3844    1.7580    4.0892 H   0  0  0  0  0  0  0  0  0  0  0  0
   -1.2733    0.4298    4.4995 H   0  0  0  0  0  0  0  0  0  0  0  0
  5  6  2  0  0  0  0
  5  7  1  0  0  0  0
  2  3  1  0  0  0  0
  2  4  1  0  0  0  0
  2  5  1  0  0  0  0
  1  2  1  0  0  0  0
 25 26  2  0  0  0  0
 25 27  1  0  0  0  0
 23 24  1  0  0  0  0
 21 22  1  0  0  0  0
 21 23  2  0  0  0  0
 19 20  1  0  0  0  0
 19 21  1  0  0  0  0
 17 18  1  0  0  0  0
 17 19  2  0  0  0  0
 15 16  1  0  0  0  0
 15 17  1  0  0  0  0
 14 15  2  0  0  0  0
 14 23  1  0  0  0  0
 11 12  1  0  0  0  0
 11 13  1  0  0  0  0
 11 14  1  0  0  0  0
  9 10  1  0  0  0  0
  9 11  1  0  0  0  0
  9 25  1  0  0  0  0
  7  8  1  0  0  0  0
  7  9  1  0  0  0  0
 29 30  1  0  0  0  0
 29 31  1  0  0  0  0
 29 32  1  0  0  0  0
 27 28  1  0  0  0  0
 27 29  1  0  0  0  0
M  END
$$$$
default_name
  -OEChem-02102213163D

 32 32  0     1  0  0  0  0  0999 V2000
   -3.8405   -3.7518    1.6252 H   0  0  0  0  0  0  0  0  0  0  0  0
   -3.7965   -2.8768    0.9782 C   0  0  0  0  0  0  0  0  0  0  0  0
   -4.5465   -2.1527    1.2902 H   0  0  0  0  0  0  0  0  0  0  0  0
   -3.9745   -3.1748   -0.0538 H   0  0  0  0  0  0  0  0  0  0  0  0
   -2.4245   -2.2537    1.0882 C   0  0  0  0  0  0  0  0  0  0  0  0
   -1.5805   -2.7478    1.8242 O   0  0  0  0  0  0  0  0  0  0  0  0
   -2.2045   -1.1637    0.3562 N   0  0  0  0  0  0  0  0  0  0  0  0
   -2.9595   -0.7907   -0.2008 H   0  0  0  0  0  0  0  0  0  0  0  0
   -0.9485   -0.4087    0.3482 C   0  0  1  0  0  0  0  0  0  0  0  0
   -0.1408   -1.0795    0.0507 H   0  0  0  0  0  0  0  0  0  0  0  0
   -1.0432    0.7243   -0.6879 C   0  0  0  0  0  0  0  0  0  0  0  0
   -0.0494    0.9184   -1.0939 H   0  0  0  0  0  0  0  0  0  0  0  0
   -1.6760    0.3963   -1.5140 H   0  0  0  0  0  0  0  0  0  0  0  0
   -1.5849    2.0260   -0.1285 C   0  0  0  0  0  0  0  0  0  0  0  0
   -0.9178    2.6829    0.9228 C   0  0  0  0  0  0  0  0  0  0  0  0
   -0.0259    2.2505    1.3538 H   0  0  0  0  0  0  0  0  0  0  0  0
   -1.4033    3.9110    1.4087 C   0  0  0  0  0  0  0  0  0  0  0  0
   -0.8911    4.4125    2.2177 H   0  0  0  0  0  0  0  0  0  0  0  0
   -2.5547    4.4850    0.8434 C   0  0  0  0  0  0  0  0  0  0  0  0
   -2.9290    5.4273    1.2183 H   0  0  0  0  0  0  0  0  0  0  0  0
   -3.2246    3.8304   -0.2062 C   0  0  0  0  0  0  0  0  0  0  0  0
   -4.1127    4.2688   -0.6372 H   0  0  0  0  0  0  0  0  0  0  0  0
   -2.7410    2.6016   -0.6894 C   0  0  0  0  0  0  0  0  0  0  0  0
   -3.2592    2.0973   -1.4947 H   0  0  0  0  0  0  0  0  0  0  0  0
   -0.6196    0.1253    1.7539 C   0  0  0  0  0  0  0  0  0  0  0  0
    0.5216    0.0194    2.2054 O   0  0  0  0  0  0  0  0  0  0  0  0
   -1.6152    0.6924    2.4469 N   0  0  0  0  0  0  0  0  0  0  0  0
   -2.5345    0.6914    2.0318 H   0  0  0  0  0  0  0  0  0  0  0  0
   -1.4720    1.2390    3.7941 C   0  0  0  0  0  0  0  0  0  0  0  0
   -0.6345    1.9391    3.8219 H   0  0  0  0  0  0  0  0  0  0  0  0
   -2.3844    1.7580    4.0892 H   0  0  0  0  0  0  0  0  0  0  0  0
   -1.2733    0.4298    4.4995 H   0  0  0  0  0  0  0  0  0  0  0  0
  5  6  2  0  0  0  0
  5  7  1  0  0  0  0
  2  3  1  0  0  0  0
  2  4  1  0  0  0  0
  2  5  1  0  0  0  0
  1  2  1  0  0  0  0
 25 26  2  0  0  0  0
 25 27  1  0  0  0  0
 23 24  1  0  0  0  0
 21 22  1  0  0  0  0
 21 23  2  0  0  0  0
 19 20  1  0  0  0  0
 19 21  1  0  0  0  0
 17 18  1  0  0  0  0
 17 19  2  0  0  0  0
 15 16  1  0  0  0  0
 15 17  1  0  0  0  0
 14 15  2  0  0  0  0
 14 23  1  0  0  0  0
 11 12  1  0  0  0  0
 11 13  1  0  0  0  0
 11 14  1  0  0  0  0
  9 10  1  0  0  0  0
  9 11  1  0  0  0  0
  9 25  1  0  0  0  0
  7  8  1  0  0  0  0
  7  9  1  0  0  0  0
 29 30  1  0  0  0  0
 29 31  1  0  0  0  0
 29 32  1  0  0  0  0
 27 28  1  0  0  0  0
 27 29  1  0  0  0  0
M  END
$$$$
default_name
  -OEChem-02102213163D

 32 32  0     1  0  0  0  0  0999 V2000
   -3.8405   -3.7518    1.6252 H   0  0  0  0  0  0  0  0  0  0  0  0
   -3.7965   -2.8768    0.9782 C   0  0  0  0  0  0  0  0  0  0  0  0
   -4.5465   -2.1527    1.2902 H   0  0  0  0  0  0  0  0  0  0  0  0
   -3.9745   -3.1748   -0.0538 H   0  0  0  0  0  0  0  0  0  0  0  0
   -2.4245   -2.2537    1.0882 C   0  0  0  0  0  0  0  0  0  0  0  0
   -1.5805   -2.7478    1.8242 O   0  0  0  0  0  0  0  0  0  0  0  0
   -2.2045   -1.1637    0.3562 N   0  0  0  0  0  0  0  0  0  0  0  0
   -2.9595   -0.7907   -0.2008 H   0  0  0  0  0  0  0  0  0  0  0  0
   -0.9485   -0.4087    0.3482 C   0  0  1  0  0  0  0  0  0  0  0  0
   -0.1408   -1.0795    0.0507 H   0  0  0  0  0  0  0  0  0  0  0  0
   -1.0432    0.7243   -0.6879 C   0  0  0  0  0  0  0  0  0  0  0  0
   -0.0494    0.9184   -1.0939 H   0  0  0  0  0  0  0  0  0  0  0  0
   -1.6760    0.3963   -1.5140 H   0  0  0  0  0  0  0  0  0  0  0  0
   -1.5849    2.0260   -0.1285 C   0  0  0  0  0  0  0  0  0  0  0  0
   -0.7784    2.8423    0.6871 C   0  0  0  0  0  0  0  0  0  0  0  0
    0.2266    2.5340    0.9386 H   0  0  0  0  0  0  0  0  0  0  0  0
   -1.2738    4.0682    1.1684 C   0  0  0  0  0  0  0  0  0  0  0  0
   -0.6538    4.6922    1.7966 H   0  0  0  0  0  0  0  0  0  0  0  0
   -2.5747    4.4808    0.8338 C   0  0  0  0  0  0  0  0  0  0  0  0
   -2.9561    5.4215    1.2056 H   0  0  0  0  0  0  0  0  0  0  0  0
   -3.3838    3.6668    0.0203 C   0  0  0  0  0  0  0  0  0  0  0  0
   -4.3857    3.9813   -0.2325 H   0  0  0  0  0  0  0  0  0  0  0  0
   -2.8896    2.4402   -0.4579 C   0  0  0  0  0  0  0  0  0  0  0  0
   -3.5142    1.8134   -1.0809 H   0  0  0  0  0  0  0  0  0  0  0  0
   -0.6196    0.1253    1.7539 C   0  0  0  0  0  0  0  0  0  0  0  0
    0.5216    0.0194    2.2054 O   0  0  0  0  0  0  0  0  0  0  0  0
   -1.6152    0.6924    2.4469 N   0  0  0  0  0  0  0  0  0  0  0  0
   -2.5345    0.6914    2.0318 H   0  0  0  0  0  0  0  0  0  0  0  0
   -1.4720    1.2390    3.7941 C   0  0  0  0  0  0  0  0  0  0  0  0
   -0.6345    1.9391    3.8219 H   0  0  0  0  0  0  0  0  0  0  0  0
   -2.3844    1.7580    4.0892 H   0  0  0  0  0  0  0  0  0  0  0  0
   -1.2733    0.4298    4.4995 H   0  0  0  0  0  0  0  0  0  0  0  0
  5  6  2  0  0  0  0
  5  7  1  0  0  0  0
  2  3  1  0  0  0  0
  2  4  1  0  0  0  0
  2  5  1  0  0  0  0
  1  2  1  0  0  0  0
 25 26  2  0  0  0  0
 25 27  1  0  0  0  0
 23 24  1  0  0  0  0
 21 22  1  0  0  0  0
 21 23  2  0  0  0  0
 19 20  1  0  0  0  0
 19 21  1  0  0  0  0
 17 18  1  0  0  0  0
 17 19  2  0  0  0  0
 15 16  1  0  0  0  0
 15 17  1  0  0  0  0
 14 15  2  0  0  0  0
 14 23  1  0  0  0  0
 11 12  1  0  0  0  0
 11 13  1  0  0  0  0
 11 14  1  0  0  0  0
  9 10  1  0  0  0  0
  9 11  1  0  0  0  0
  9 25  1  0  0  0  0
  7  8  1  0  0  0  0
  7  9  1  0  0  0  0
 29 30  1  0  0  0  0
 29 31  1  0  0  0  0
 29 32  1  0  0  0  0
 27 28  1  0  0  0  0
 27 29  1  0  0  0  0
M  END
$$$$
default_name
  -OEChem-02102213163D

 32 32  0     1  0  0  0  0  0999 V2000
   -3.8405   -3.7518    1.6252 H   0  0  0  0  0  0  0  0  0  0  0  0
   -3.7965   -2.8768    0.9782 C   0  0  0  0  0  0  0  0  0  0  0  0
   -4.5465   -2.1527    1.2902 H   0  0  0  0  0  0  0  0  0  0  0  0
   -3.9745   -3.1748   -0.0538 H   0  0  0  0  0  0  0  0  0  0  0  0
   -2.4245   -2.2537    1.0882 C   0  0  0  0  0  0  0  0  0  0  0  0
   -1.5805   -2.7478    1.8242 O   0  0  0  0  0  0  0  0  0  0  0  0
   -2.2045   -1.1637    0.3562 N   0  0  0  0  0  0  0  0  0  0  0  0
   -2.9595   -0.7907   -0.2008 H   0  0  0  0  0  0  0  0  0  0  0  0
   -0.9485   -0.4087    0.3482 C   0  0  1  0  0  0  0  0  0  0  0  0
   -0.1408   -1.0795    0.0507 H   0  0  0  0  0  0  0  0  0  0  0  0
   -1.0432    0.7243   -0.6879 C   0  0  0  0  0  0  0  0  0  0  0  0
   -0.0494    0.9184   -1.0939 H   0  0  0  0  0  0  0  0  0  0  0  0
   -1.6760    0.3963   -1.5140 H   0  0  0  0  0  0  0  0  0  0  0  0
   -1.5849    2.0260   -0.1285 C   0  0  0  0  0  0  0  0  0  0  0  0
   -0.7113    2.9877    0.4137 C   0  0  0  0  0  0  0  0  0  0  0  0
    0.3512    2.7936    0.4552 H   0  0  0  0  0  0  0  0  0  0  0  0
   -1.2171    4.2101    0.8930 C   0  0  0  0  0  0  0  0  0  0  0  0
   -0.5448    4.9461    1.3113 H   0  0  0  0  0  0  0  0  0  0  0  0
   -2.5958    4.4739    0.8294 C   0  0  0  0  0  0  0  0  0  0  0  0
   -2.9846    5.4122    1.1998 H   0  0  0  0  0  0  0  0  0  0  0  0
   -3.4717    3.5145    0.2895 C   0  0  0  0  0  0  0  0  0  0  0  0
   -4.5322    3.7149    0.2456 H   0  0  0  0  0  0  0  0  0  0  0  0
   -2.9664    2.2916   -0.1863 C   0  0  0  0  0  0  0  0  0  0  0  0
   -3.6416    1.5530   -0.5983 H   0  0  0  0  0  0  0  0  0  0  0  0
   -0.6196    0.1253    1.7539 C   0  0  0  0  0  0  0  0  0  0  0  0
    0.5216    0.0194    2.2054 O   0  0  0  0  0  0  0  0  0  0  0  0
   -1.6152    0.6924    2.4469 N   0  0  0  0  0  0  0  0  0  0  0  0
   -2.5345    0.6914    2.0318 H   0  0  0  0  0  0  0  0  0  0  0  0
   -1.4720    1.2390    3.7941 C   0  0  0  0  0  0  0  0  0  0  0  0
   -0.6345    1.9391    3.8219 H   0  0  0  0  0  0  0  0  0  0  0  0
   -2.3844    1.7580    4.0892 H   0  0  0  0  0  0  0  0  0  0  0  0
   -1.2733    0.4298    4.4995 H   0  0  0  0  0  0  0  0  0  0  0  0
  5  6  2  0  0  0  0
  5  7  1  0  0  0  0
  2  3  1  0  0  0  0
  2  4  1  0  0  0  0
  2  5  1  0  0  0  0
  1  2  1  0  0  0  0
 25 26  2  0  0  0  0
 25 27  1  0  0  0  0
 23 24  1  0  0  0  0
 21 22  1  0  0  0  0
 21 23  2  0  0  0  0
 19 20  1  0  0  0  0
 19 21  1  0  0  0  0
 17 18  1  0  0  0  0
 17 19  2  0  0  0  0
 15 16  1  0  0  0  0
 15 17  1  0  0  0  0
 14 15  2  0  0  0  0
 14 23  1  0  0  0  0
 11 12  1  0  0  0  0
 11 13  1  0  0  0  0
 11 14  1  0  0  0  0
  9 10  1  0  0  0  0
  9 11  1  0  0  0  0
  9 25  1  0  0  0  0
  7  8  1  0  0  0  0
  7  9  1  0  0  0  0
 29 30  1  0  0  0  0
 29 31  1  0  0  0  0
 29 32  1  0  0  0  0
 27 28  1  0  0  0  0
 27 29  1  0  0  0  0
M  END
$$$$
default_name
  -OEChem-02102213163D

 32 32  0     1  0  0  0  0  0999 V2000
   -3.8405   -3.7518    1.6252 H   0  0  0  0  0  0  0  0  0  0  0  0
   -3.7965   -2.8768    0.9782 C   0  0  0  0  0  0  0  0  0  0  0  0
   -4.5465   -2.1527    1.2902 H   0  0  0  0  0  0  0  0  0  0  0  0
   -3.9745   -3.1748   -0.0538 H   0  0  0  0  0  0  0  0  0  0  0  0
   -2.4245   -2.2537    1.0882 C   0  0  0  0  0  0  0  0  0  0  0  0
   -1.5805   -2.7478    1.8242 O   0  0  0  0  0  0  0  0  0  0  0  0
   -2.2045   -1.1637    0.3562 N   0  0  0  0  0  0  0  0  0  0  0  0
   -2.9595   -0.7907   -0.2008 H   0  0  0  0  0  0  0  0  0  0  0  0
   -0.9485   -0.4087    0.3482 C   0  0  1  0  0  0  0  0  0  0  0  0
   -0.1408   -1.0795    0.0507 H   0  0  0  0  0  0  0  0  0  0  0  0
   -1.0432    0.7243   -0.6879 C   0  0  0  0  0  0  0  0  0  0  0  0
   -0.0494    0.9184   -1.0939 H   0  0  0  0  0  0  0  0  0  0  0  0
   -1.6760    0.3963   -1.5140 H   0  0  0  0  0  0  0  0  0  0  0  0
   -1.5849    2.0260   -0.1285 C   0  0  0  0  0  0  0  0  0  0  0  0
   -0.7211    3.1093    0.1212 C   0  0  0  0  0  0  0  0  0  0  0  0
    0.3394    3.0116   -0.0633 H   0  0  0  0  0  0  0  0  0  0  0  0
   -1.2370    4.3272    0.6012 C   0  0  0  0  0  0  0  0  0  0  0  0
   -0.5717    5.1569    0.7948 H   0  0  0  0  0  0  0  0  0  0  0  0
   -2.6165    4.4649    0.8304 C   0  0  0  0  0  0  0  0  0  0  0  0
   -3.0125    5.3999    1.2014 H   0  0  0  0  0  0  0  0  0  0  0  0
   -3.4822    3.3839    0.5832 C   0  0  0  0  0  0  0  0  0  0  0  0
   -4.5420    3.4878    0.7645 H   0  0  0  0  0  0  0  0  0  0  0  0
   -2.9660    2.1658    0.1067 C   0  0  0  0  0  0  0  0  0  0  0  0
   -3.6326    1.3339   -0.0798 H   0  0  0  0  0  0  0  0  0  0  0  0
   -0.6196    0.1253    1.7539 C   0  0  0  0  0  0  0  0  0  0  0  0
    0.5216    0.0194    2.2054 O   0  0  0  0  0  0  0  0  0  0  0  0
   -1.6152    0.6924    2.4469 N   0  0  0  0  0  0  0  0  0  0  0  0
   -2.5345    0.6914    2.0318 H   0  0  0  0  0  0  0  0  0  0  0  0
   -1.4720    1.2390    3.7941 C   0  0  0  0  0  0  0  0  0  0  0  0
   -0.6345    1.9391    3.8219 H   0  0  0  0  0  0  0  0  0  0  0  0
   -2.3844    1.7580    4.0892 H   0  0  0  0  0  0  0  0  0  0  0  0
   -1.2733    0.4298    4.4995 H   0  0  0  0  0  0  0  0  0  0  0  0
  5  6  2  0  0  0  0
  5  7  1  0  0  0  0
  2  3  1  0  0  0  0
  2  4  1  0  0  0  0
  2  5  1  0  0  0  0
  1  2  1  0  0  0  0
 25 26  2  0  0  0  0
 25 27  1  0  0  0  0
 23 24  1  0  0  0  0
 21 22  1  0  0  0  0
 21 23  2  0  0  0  0
 19 20  1  0  0  0  0
 19 21  1  0  0  0  0
 17 18  1  0  0  0  0
 17 19  2  0  0  0  0
 15 16  1  0  0  0  0
 15 17  1  0  0  0  0
 14 15  2  0  0  0  0
 14 23  1  0  0  0  0
 11 12  1  0  0  0  0
 11 13  1  0  0  0  0
 11 14  1  0  0  0  0
  9 10  1  0  0  0  0
  9 11  1  0  0  0  0
  9 25  1  0  0  0  0
  7  8  1  0  0  0  0
  7  9  1  0  0  0  0
 29 30  1  0  0  0  0
 29 31  1  0  0  0  0
 29 32  1  0  0  0  0
 27 28  1  0  0  0  0
 27 29  1  0  0  0  0
M  END
$$$$
default_name
  -OEChem-02102213163D

 32 32  0     1  0  0  0  0  0999 V2000
   -3.8405   -3.7518    1.6252 H   0  0  0  0  0  0  0  0  0  0  0  0
   -3.7965   -2.8768    0.9782 C   0  0  0  0  0  0  0  0  0  0  0  0
   -4.5465   -2.1527    1.2902 H   0  0  0  0  0  0  0  0  0  0  0  0
   -3.9745   -3.1748   -0.0538 H   0  0  0  0  0  0  0  0  0  0  0  0
   -2.4245   -2.2537    1.0882 C   0  0  0  0  0  0  0  0  0  0  0  0
   -1.5805   -2.7478    1.8242 O   0  0  0  0  0  0  0  0  0  0  0  0
   -2.2045   -1.1637    0.3562 N   0  0  0  0  0  0  0  0  0  0  0  0
   -2.9595   -0.7907   -0.2008 H   0  0  0  0  0  0  0  0  0  0  0  0
   -0.9485   -0.4087    0.3482 C   0  0  1  0  0  0  0  0  0  0  0  0
   -0.1408   -1.0795    0.0507 H   0  0  0  0  0  0  0  0  0  0  0  0
   -1.0432    0.7243   -0.6879 C   0  0  0  0  0  0  0  0  0  0  0  0
   -0.0494    0.9184   -1.0939 H   0  0  0  0  0  0  0  0  0  0  0  0
   -1.6760    0.3963   -1.5140 H   0  0  0  0  0  0  0  0  0  0  0  0
   -1.5849    2.0260   -0.1285 C   0  0  0  0  0  0  0  0  0  0  0  0
   -0.8072    3.1987   -0.1703 C   0  0  0  0  0  0  0  0  0  0  0  0
    0.1920    3.1730   -0.5818 H   0  0  0  0  0  0  0  0  0  0  0  0
   -1.3322    4.4114    0.3130 C   0  0  0  0  0  0  0  0  0  0  0  0
   -0.7324    5.3102    0.2824 H   0  0  0  0  0  0  0  0  0  0  0  0
   -2.6354    4.4543    0.8368 C   0  0  0  0  0  0  0  0  0  0  0  0
   -3.0379    5.3855    1.2102 H   0  0  0  0  0  0  0  0  0  0  0  0
   -3.4147    3.2839    0.8814 C   0  0  0  0  0  0  0  0  0  0  0  0
   -4.4145    3.3155    1.2889 H   0  0  0  0  0  0  0  0  0  0  0  0
   -2.8886    2.0714    0.4013 C   0  0  0  0  0  0  0  0  0  0  0  0
   -3.4879    1.1711    0.4393 H   0  0  0  0  0  0  0  0  0  0  0  0
   -0.6196    0.1253    1.7539 C   0  0  0  0  0  0  0  0  0  0  0  0
    0.5216    0.0194    2.2054 O   0  0  0  0  0  0  0  0  0  0  0  0
   -1.6152    0.6924    2.4469 N   0  0  0  0  0  0  0  0  0  0  0  0
   -2.5345    0.6914    2.0318 H   0  0  0  0  0  0  0  0  0  0  0  0
   -1.4720    1.2390    3.7941 C   0  0  0  0  0  0  0  0  0  0  0  0
   -0.6345    1.9391    3.8219 H   0  0  0  0  0  0  0  0  0  0  0  0
   -2.3844    1.7580    4.0892 H   0  0  0  0  0  0  0  0  0  0  0  0
   -1.2733    0.4298    4.4995 H   0  0  0  0  0  0  0  0  0  0  0  0
  5  6  2  0  0  0  0
  5  7  1  0  0  0  0
  2  3  1  0  0  0  0
  2  4  1  0  0  0  0
  2  5  1  0  0  0  0
  1  2  1  0  0  0  0
 25 26  2  0  0  0  0
 25 27  1  0  0  0  0
 23 24  1  0  0  0  0
 21 22  1  0  0  0  0
 21 23  2  0  0  0  0
 19 20  1  0  0  0  0
 19 21  1  0  0  0  0
 17 18  1  0  0  0  0
 17 19  2  0  0  0  0
 15 16  1  0  0  0  0
 15 17  1  0  0  0  0
 14 15  2  0  0  0  0
 14 23  1  0  0  0  0
 11 12  1  0  0  0  0
 11 13  1  0  0  0  0
 11 14  1  0  0  0  0
  9 10  1  0  0  0  0
  9 11  1  0  0  0  0
  9 25  1  0  0  0  0
  7  8  1  0  0  0  0
  7  9  1  0  0  0  0
 29 30  1  0  0  0  0
 29 31  1  0  0  0  0
 29 32  1  0  0  0  0
 27 28  1  0  0  0  0
 27 29  1  0  0  0  0
M  END
$$$$
default_name
  -OEChem-02102213163D

 32 32  0     1  0  0  0  0  0999 V2000
   -3.8405   -3.7518    1.6252 H   0  0  0  0  0  0  0  0  0  0  0  0
   -3.7965   -2.8768    0.9782 C   0  0  0  0  0  0  0  0  0  0  0  0
   -4.5465   -2.1527    1.2902 H   0  0  0  0  0  0  0  0  0  0  0  0
   -3.9745   -3.1748   -0.0538 H   0  0  0  0  0  0  0  0  0  0  0  0
   -2.4245   -2.2537    1.0882 C   0  0  0  0  0  0  0  0  0  0  0  0
   -1.5805   -2.7478    1.8242 O   0  0  0  0  0  0  0  0  0  0  0  0
   -2.2045   -1.1637    0.3562 N   0  0  0  0  0  0  0  0  0  0  0  0
   -2.9595   -0.7907   -0.2008 H   0  0  0  0  0  0  0  0  0  0  0  0
   -0.9485   -0.4087    0.3482 C   0  0  1  0  0  0  0  0  0  0  0  0
   -0.1408   -1.0795    0.0507 H   0  0  0  0  0  0  0  0  0  0  0  0
   -1.0432    0.7243   -0.6879 C   0  0  0  0  0  0  0  0  0  0  0  0
   -0.0494    0.9184   -1.0939 H   0  0  0  0  0  0  0  0  0  0  0  0
   -1.6760    0.3963   -1.5140 H   0  0  0  0  0  0  0  0  0  0  0  0
   -1.5849    2.0260   -0.1285 C   0  0  0  0  0  0  0  0  0  0  0  0
   -0.9636    3.2500   -0.4410 C   0  0  0  0  0  0  0  0  0  0  0  0
   -0.0809    3.2670   -1.0647 H   0  0  0  0  0  0  0  0  0  0  0  0
   -1.4962    4.4571    0.0480 C   0  0  0  0  0  0  0  0  0  0  0  0
   -1.0161    5.3956   -0.1911 H   0  0  0  0  0  0  0  0  0  0  0  0
   -2.6513    4.4428    0.8482 C   0  0  0  0  0  0  0  0  0  0  0  0
   -3.0591    5.3700    1.2258 H   0  0  0  0  0  0  0  0  0  0  0  0
   -3.2738    3.2213    1.1636 C   0  0  0  0  0  0  0  0  0  0  0  0
   -4.1585    3.2097    1.7831 H   0  0  0  0  0  0  0  0  0  0  0  0
   -2.7393    2.0149    0.6774 C   0  0  0  0  0  0  0  0  0  0  0  0
   -3.2172    1.0756    0.9236 H   0  0  0  0  0  0  0  0  0  0  0  0
   -0.6196    0.1253    1.7539 C   0  0  0  0  0  0  0  0  0  0  0  0
    0.5216    0.0194    2.2054 O   0  0  0  0  0  0  0  0  0  0  0  0
   -1.6152    0.6924    2.4469 N   0  0  0  0  0  0  0  0  0  0  0  0
   -2.5345    0.6914    2.0318 H   0  0  0  0  0  0  0  0  0  0  0  0
   -1.4720    1.2390    3.7941 C   0  0  0  0  0  0  0  0  0  0  0  0
   -0.6345    1.9391    3.8219 H   0  0  0  0  0  0  0  0  0  0  0  0
   -2.3844    1.7580    4.0892 H   0  0  0  0  0  0  0  0  0  0  0  0
   -1.2733    0.4298    4.4995 H   0  0  0  0  0  0  0  0  0  0  0  0
  5  6  2  0  0  0  0
  5  7  1  0  0  0  0
  2  3  1  0  0  0  0
  2  4  1  0  0  0  0
  2  5  1  0  0  0  0
  1  2  1  0  0  0  0
 25 26  2  0  0  0  0
 25 27  1  0  0  0  0
 23 24  1  0  0  0  0
 21 22  1  0  0  0  0
 21 23  2  0  0  0  0
 19 20  1  0  0  0  0
 19 21  1  0  0  0  0
 17 18  1  0  0  0  0
 17 19  2  0  0  0  0
 15 16  1  0  0  0  0
 15 17  1  0  0  0  0
 14 15  2  0  0  0  0
 14 23  1  0  0  0  0
 11 12  1  0  0  0  0
 11 13  1  0  0  0  0
 11 14  1  0  0  0  0
  9 10  1  0  0  0  0
  9 11  1  0  0  0  0
  9 25  1  0  0  0  0
  7  8  1  0  0  0  0
  7  9  1  0  0  0  0
 29 30  1  0  0  0  0
 29 31  1  0  0  0  0
 29 32  1  0  0  0  0
 27 28  1  0  0  0  0
 27 29  1  0  0  0  0
M  END
$$$$
default_name
  -OEChem-02102213163D

 32 32  0     1  0  0  0  0  0999 V2000
   -3.8405   -3.7518    1.6252 H   0  0  0  0  0  0  0  0  0  0  0  0
   -3.7965   -2.8768    0.9782 C   0  0  0  0  0  0  0  0  0  0  0  0
   -4.5465   -2.1527    1.2902 H   0  0  0  0  0  0  0  0  0  0  0  0
   -3.9745   -3.1748   -0.0538 H   0  0  0  0  0  0  0  0  0  0  0  0
   -2.4245   -2.2537    1.0882 C   0  0  0  0  0  0  0  0  0  0  0  0
   -1.5805   -2.7478    1.8242 O   0  0  0  0  0  0  0  0  0  0  0  0
   -2.2045   -1.1637    0.3562 N   0  0  0  0  0  0  0  0  0  0  0  0
   -2.9595   -0.7907   -0.2008 H   0  0  0  0  0  0  0  0  0  0  0  0
   -0.9485   -0.4087    0.3482 C   0  0  1  0  0  0  0  0  0  0  0  0
   -0.1408   -1.0795    0.0507 H   0  0  0  0  0  0  0  0  0  0  0  0
   -1.0432    0.7243   -0.6879 C   0  0  0  0  0  0  0  0  0  0  0  0
   -0.0494    0.9184   -1.0939 H   0  0  0  0  0  0  0  0  0  0  0  0
   -1.6760    0.3963   -1.5140 H   0  0  0  0  0  0  0  0  0  0  0  0
   -1.5849    2.0260   -0.1285 C   0  0  0  0  0  0  0  0  0  0  0  0
   -1.1797    3.2596   -0.6726 C   0  0  0  0  0  0  0  0  0  0  0  0
   -0.4608    3.2871   -1.4793 H   0  0  0  0  0  0  0  0  0  0  0  0
   -1.7179    4.4610   -0.1758 C   0  0  0  0  0  0  0  0  0  0  0  0
   -1.4034    5.4073   -0.5932 H   0  0  0  0  0  0  0  0  0  0  0  0
   -2.6629    4.4312    0.8637 C   0  0  0  0  0  0  0  0  0  0  0  0
   -3.0747    5.3544    1.2469 H   0  0  0  0  0  0  0  0  0  0  0  0
   -3.0689    3.2004    1.4106 C   0  0  0  0  0  0  0  0  0  0  0  0
   -3.7913    3.1776    2.2134 H   0  0  0  0  0  0  0  0  0  0  0  0
   -2.5284    2.0001    0.9162 C   0  0  0  0  0  0  0  0  0  0  0  0
   -2.8391    1.0539    1.3401 H   0  0  0  0  0  0  0  0  0  0  0  0
   -0.6196    0.1253    1.7539 C   0  0  0  0  0  0  0  0  0  0  0  0
    0.5216    0.0194    2.2054 O   0  0  0  0  0  0  0  0  0  0  0  0
   -1.6152    0.6924    2.4469 N   0  0  0  0  0  0  0  0  0  0  0  0
   -2.5345    0.6914    2.0318 H   0  0  0  0  0  0  0  0  0  0  0  0
   -1.4720    1.2390    3.7941 C   0  0  0  0  0  0  0  0  0  0  0  0
   -0.6345    1.9391    3.8219 H   0  0  0  0  0  0  0  0  0  0  0  0
   -2.3844    1.7580    4.0892 H   0  0  0  0  0  0  0  0  0  0  0  0
   -1.2733    0.4298    4.4995 H   0  0  0  0  0  0  0  0  0  0  0  0
  5  6  2  0  0  0  0
  5  7  1  0  0  0  0
  2  3  1  0  0  0  0
  2  4  1  0  0  0  0
  2  5  1  0  0  0  0
  1  2  1  0  0  0  0
 25 26  2  0  0  0  0
 25 27  1  0  0  0  0
 23 24  1  0  0  0  0
 21 22  1  0  0  0  0
 21 23  2  0  0  0  0
 19 20  1  0  0  0  0
 19 21  1  0  0  0  0
 17 18  1  0  0  0  0
 17 19  2  0  0  0  0
 15 16  1  0  0  0  0
 15 17  1  0  0  0  0
 14 15  2  0  0  0  0
 14 23  1  0  0  0  0
 11 12  1  0  0  0  0
 11 13  1  0  0  0  0
 11 14  1  0  0  0  0
  9 10  1  0  0  0  0
  9 11  1  0  0  0  0
  9 25  1  0  0  0  0
  7  8  1  0  0  0  0
  7  9  1  0  0  0  0
 29 30  1  0  0  0  0
 29 31  1  0  0  0  0
 29 32  1  0  0  0  0
 27 28  1  0  0  0  0
 27 29  1  0  0  0  0
M  END
$$$$
default_name
  -OEChem-02102213163D

 32 32  0     1  0  0  0  0  0999 V2000
   -3.8405   -3.7518    1.6252 H   0  0  0  0  0  0  0  0  0  0  0  0
   -3.7965   -2.8768    0.9782 C   0  0  0  0  0  0  0  0  0  0  0  0
   -4.5465   -2.1527    1.2902 H   0  0  0  0  0  0  0  0  0  0  0  0
   -3.9745   -3.1748   -0.0538 H   0  0  0  0  0  0  0  0  0  0  0  0
   -2.4245   -2.2537    1.0882 C   0  0  0  0  0  0  0  0  0  0  0  0
   -1.5805   -2.7478    1.8242 O   0  0  0  0  0  0  0  0  0  0  0  0
   -2.2045   -1.1637    0.3562 N   0  0  0  0  0  0  0  0  0  0  0  0
   -2.9595   -0.7907   -0.2008 H   0  0  0  0  0  0  0  0  0  0  0  0
   -0.9485   -0.4087    0.3482 C   0  0  1  0  0  0  0  0  0  0  0  0
   -0.1408   -1.0795    0.0507 H   0  0  0  0  0  0  0  0  0  0  0  0
   -1.0432    0.7243   -0.6879 C   0  0  0  0  0  0  0  0  0  0  0  0
   -0.0494    0.9184   -1.0939 H   0  0  0  0  0  0  0  0  0  0  0  0
   -1.6760    0.3963   -1.5140 H   0  0  0  0  0  0  0  0  0  0  0  0
   -1.5849    2.0260   -0.1285 C   0  0  0  0  0  0  0  0  0  0  0  0
   -1.4407    3.2268   -0.8491 C   0  0  0  0  0  0  0  0  0  0  0  0
   -0.9217    3.2319   -1.7972 H   0  0  0  0  0  0  0  0  0  0  0  0
   -1.9821    4.4230   -0.3431 C   0  0  0  0  0  0  0  0  0  0  0  0
   -1.8680    5.3444   -0.8967 H   0  0  0  0  0  0  0  0  0  0  0  0
   -2.6697    4.4204    0.8824 C   0  0  0  0  0  0  0  0  0  0  0  0
   -3.0835    5.3399    1.2723 H   0  0  0  0  0  0  0  0  0  0  0  0
   -2.8142    3.2225    1.6057 C   0  0  0  0  0  0  0  0  0  0  0  0
   -3.3380    3.2214    2.5503 H   0  0  0  0  0  0  0  0  0  0  0  0
   -2.2702    2.0279    1.1013 C   0  0  0  0  0  0  0  0  0  0  0  0
   -2.3792    1.1076    1.6604 H   0  0  0  0  0  0  0  0  0  0  0  0
   -0.6196    0.1253    1.7539 C   0  0  0  0  0  0  0  0  0  0  0  0
    0.5216    0.0194    2.2054 O   0  0  0  0  0  0  0  0  0  0  0  0
   -1.6152    0.6924    2.4469 N   0  0  0  0  0  0  0  0  0  0  0  0
   -2.5345    0.6914    2.0318 H   0  0  0  0  0  0  0  0  0  0  0  0
   -1.4720    1.2390    3.7941 C   0  0  0  0  0  0  0  0  0  0  0  0
   -0.6345    1.9391    3.8219 H   0  0  0  0  0  0  0  0  0  0  0  0
   -2.3844    1.7580    4.0892 H   0  0  0  0  0  0  0  0  0  0  0  0
   -1.2733    0.4298    4.4995 H   0  0  0  0  0  0  0  0  0  0  0  0
  5  6  2  0  0  0  0
  5  7  1  0  0  0  0
  2  3  1  0  0  0  0
  2  4  1  0  0  0  0
  2  5  1  0  0  0  0
  1  2  1  0  0  0  0
 25 26  2  0  0  0  0
 25 27  1  0  0  0  0
 23 24  1  0  0  0  0
 21 22  1  0  0  0  0
 21 23  2  0  0  0  0
 19 20  1  0  0  0  0
 19 21  1  0  0  0  0
 17 18  1  0  0  0  0
 17 19  2  0  0  0  0
 15 16  1  0  0  0  0
 15 17  1  0  0  0  0
 14 15  2  0  0  0  0
 14 23  1  0  0  0  0
 11 12  1  0  0  0  0
 11 13  1  0  0  0  0
 11 14  1  0  0  0  0
  9 10  1  0  0  0  0
  9 11  1  0  0  0  0
  9 25  1  0  0  0  0
  7  8  1  0  0  0  0
  7  9  1  0  0  0  0
 29 30  1  0  0  0  0
 29 31  1  0  0  0  0
 29 32  1  0  0  0  0
 27 28  1  0  0  0  0
 27 29  1  0  0  0  0
M  END
$$$$
default_name
  -OEChem-02102213163D

 32 32  0     1  0  0  0  0  0999 V2000
   -3.8405   -3.7518    1.6252 H   0  0  0  0  0  0  0  0  0  0  0  0
   -3.7965   -2.8768    0.9782 C   0  0  0  0  0  0  0  0  0  0  0  0
   -4.5465   -2.1527    1.2902 H   0  0  0  0  0  0  0  0  0  0  0  0
   -3.9745   -3.1748   -0.0538 H   0  0  0  0  0  0  0  0  0  0  0  0
   -2.4245   -2.2537    1.0882 C   0  0  0  0  0  0  0  0  0  0  0  0
   -1.5805   -2.7478    1.8242 O   0  0  0  0  0  0  0  0  0  0  0  0
   -2.2045   -1.1637    0.3562 N   0  0  0  0  0  0  0  0  0  0  0  0
   -2.9595   -0.7907   -0.2008 H   0  0  0  0  0  0  0  0  0  0  0  0
   -0.9485   -0.4087    0.3482 C   0  0  1  0  0  0  0  0  0  0  0  0
   -0.1408   -1.0795    0.0507 H   0  0  0  0  0  0  0  0  0  0  0  0
   -1.0432    0.7243   -0.6879 C   0  0  0  0  0  0  0  0  0  0  0  0
   -0.1275    0.7409   -1.2807 H   0  0  0  0  0  0  0  0  0  0  0  0
   -1.8699    0.5135   -1.3681 H   0  0  0  0  0  0  0  0  0  0  0  0
   -1.2342    2.1004   -0.0792 C   0  0  0  0  0  0  0  0  0  0  0  0
   -1.3379    3.2369   -0.9036 C   0  0  0  0  0  0  0  0  0  0  0  0
   -1.2590    3.1378   -1.9770 H   0  0  0  0  0  0  0  0  0  0  0  0
   -1.5563    4.5047   -0.3337 C   0  0  0  0  0  0  0  0  0  0  0  0
   -1.6330    5.3764   -0.9683 H   0  0  0  0  0  0  0  0  0  0  0  0
   -1.6732    4.6383    1.0603 C   0  0  0  0  0  0  0  0  0  0  0  0
   -1.8386    5.6127    1.4983 H   0  0  0  0  0  0  0  0  0  0  0  0
   -1.5685    3.5049    1.8870 C   0  0  0  0  0  0  0  0  0  0  0  0
   -1.6529    3.6082    2.9589 H   0  0  0  0  0  0  0  0  0  0  0  0
   -1.3470    2.2385    1.3174 C   0  0  0  0  0  0  0  0  0  0  0  0
   -1.2633    1.3678    1.9548 H   0  0  0  0  0  0  0  0  0  0  0  0
   -0.6196    0.1253    1.7539 C   0  0  0  0  0  0  0  0  0  0  0  0
    0.5216    0.0194    2.2054 O   0  0  0  0  0  0  0  0  0  0  0  0
   -1.6152    0.6924    2.4469 N   0  0  0  0  0  0  0  0  0  0  0  0
   -2.5345    0.6914    2.0318 H   0  0  0  0  0  0  0  0  0  0  0  0
   -1.4720    1.2390    3.7941 C   0  0  0  0  0  0  0  0  0  0  0  0
   -0.6345    1.9391    3.8219 H   0  0  0  0  0  0  0  0  0  0  0  0
   -2.3844    1.7580    4.0892 H   0  0  0  0  0  0  0  0  0  0  0  0
   -1.2733    0.4298    4.4995 H   0  0  0  0  0  0  0  0  0  0  0  0
  5  6  2  0  0  0  0
  5  7  1  0  0  0  0
  2  3  1  0  0  0  0
  2  4  1  0  0  0  0
  2  5  1  0  0  0  0
  1  2  1  0  0  0  0
 25 26  2  0  0  0  0
 25 27  1  0  0  0  0
 23 24  1  0  0  0  0
 21 22  1  0  0  0  0
 21 23  2  0  0  0  0
 19 20  1  0  0  0  0
 19 21  1  0  0  0  0
 17 18  1  0  0  0  0
 17 19  2  0  0  0  0
 15 16  1  0  0  0  0
 15 17  1  0  0  0  0
 14 15  2  0  0  0  0
 14 23  1  0  0  0  0
 11 12  1  0  0  0  0
 11 13  1  0  0  0  0
 11 14  1  0  0  0  0
  9 10  1  0  0  0  0
  9 11  1  0  0  0  0
  9 25  1  0  0  0  0
  7  8  1  0  0  0  0
  7  9  1  0  0  0  0
 29 30  1  0  0  0  0
 29 31  1  0  0  0  0
 29 32  1  0  0  0  0
 27 28  1  0  0  0  0
 27 29  1  0  0  0  0
M  END
$$$$
default_name
  -OEChem-02102213163D

 32 32  0     1  0  0  0  0  0999 V2000
   -3.8405   -3.7518    1.6252 H   0  0  0  0  0  0  0  0  0  0  0  0
   -3.7965   -2.8768    0.9782 C   0  0  0  0  0  0  0  0  0  0  0  0
   -4.5465   -2.1527    1.2902 H   0  0  0  0  0  0  0  0  0  0  0  0
   -3.9745   -3.1748   -0.0538 H   0  0  0  0  0  0  0  0  0  0  0  0
   -2.4245   -2.2537    1.0882 C   0  0  0  0  0  0  0  0  0  0  0  0
   -1.5805   -2.7478    1.8242 O   0  0  0  0  0  0  0  0  0  0  0  0
   -2.2045   -1.1637    0.3562 N   0  0  0  0  0  0  0  0  0  0  0  0
   -2.9595   -0.7907   -0.2008 H   0  0  0  0  0  0  0  0  0  0  0  0
   -0.9485   -0.4087    0.3482 C   0  0  1  0  0  0  0  0  0  0  0  0
   -0.1408   -1.0795    0.0507 H   0  0  0  0  0  0  0  0  0  0  0  0
   -1.0432    0.7243   -0.6879 C   0  0  0  0  0  0  0  0  0  0  0  0
   -0.1275    0.7409   -1.2807 H   0  0  0  0  0  0  0  0  0  0  0  0
   -1.8699    0.5135   -1.3681 H   0  0  0  0  0  0  0  0  0  0  0  0
   -1.2342    2.1004   -0.0792 C   0  0  0  0  0  0  0  0  0  0  0  0
   -1.6490    3.1826   -0.8784 C   0  0  0  0  0  0  0  0  0  0  0  0
   -1.8123    3.0437   -1.9378 H   0  0  0  0  0  0  0  0  0  0  0  0
   -1.8639    4.4466   -0.2987 C   0  0  0  0  0  0  0  0  0  0  0  0
   -2.1799    5.2768   -0.9147 H   0  0  0  0  0  0  0  0  0  0  0  0
   -1.6663    4.6304    1.0803 C   0  0  0  0  0  0  0  0  0  0  0  0
   -1.8291    5.6021    1.5253 H   0  0  0  0  0  0  0  0  0  0  0  0
   -1.2503    3.5515    1.8816 C   0  0  0  0  0  0  0  0  0  0  0  0
   -1.0932    3.6939    2.9407 H   0  0  0  0  0  0  0  0  0  0  0  0
   -1.0325    2.2892    1.3014 C   0  0  0  0  0  0  0  0  0  0  0  0
   -0.7093    1.4609    1.9183 H   0  0  0  0  0  0  0  0  0  0  0  0
   -0.6196    0.1253    1.7539 C   0  0  0  0  0  0  0  0  0  0  0  0
    0.5216    0.0194    2.2054 O   0  0  0  0  0  0  0  0  0  0  0  0
   -1.6152    0.6924    2.4469 N   0  0  0  0  0  0  0  0  0  0  0  0
   -2.5345    0.6914    2.0318 H   0  0  0  0  0  0  0  0  0  0  0  0
   -1.4720    1.2390    3.7941 C   0  0  0  0  0  0  0  0  0  0  0  0
   -0.6345    1.9391    3.8219 H   0  0  0  0  0  0  0  0  0  0  0  0
   -2.3844    1.7580    4.0892 H   0  0  0  0  0  0  0  0  0  0  0  0
   -1.2733    0.4298    4.4995 H   0  0  0  0  0  0  0  0  0  0  0  0
  5  6  2  0  0  0  0
  5  7  1  0  0  0  0
  2  3  1  0  0  0  0
  2  4  1  0  0  0  0
  2  5  1  0  0  0  0
  1  2  1  0  0  0  0
 25 26  2  0  0  0  0
 25 27  1  0  0  0  0
 23 24  1  0  0  0  0
 21 22  1  0  0  0  0
 21 23  2  0  0  0  0
 19 20  1  0  0  0  0
 19 21  1  0  0  0  0
 17 18  1  0  0  0  0
 17 19  2  0  0  0  0
 15 16  1  0  0  0  0
 15 17  1  0  0  0  0
 14 15  2  0  0  0  0
 14 23  1  0  0  0  0
 11 12  1  0  0  0  0
 11 13  1  0  0  0  0
 11 14  1  0  0  0  0
  9 10  1  0  0  0  0
  9 11  1  0  0  0  0
  9 25  1  0  0  0  0
  7  8  1  0  0  0  0
  7  9  1  0  0  0  0
 29 30  1  0  0  0  0
 29 31  1  0  0  0  0
 29 32  1  0  0  0  0
 27 28  1  0  0  0  0
 27 29  1  0  0  0  0
M  END
$$$$
default_name
  -OEChem-02102213163D

 32 32  0     1  0  0  0  0  0999 V2000
   -3.8405   -3.7518    1.6252 H   0  0  0  0  0  0  0  0  0  0  0  0
   -3.7965   -2.8768    0.9782 C   0  0  0  0  0  0  0  0  0  0  0  0
   -4.5465   -2.1527    1.2902 H   0  0  0  0  0  0  0  0  0  0  0  0
   -3.9745   -3.1748   -0.0538 H   0  0  0  0  0  0  0  0  0  0  0  0
   -2.4245   -2.2537    1.0882 C   0  0  0  0  0  0  0  0  0  0  0  0
   -1.5805   -2.7478    1.8242 O   0  0  0  0  0  0  0  0  0  0  0  0
   -2.2045   -1.1637    0.3562 N   0  0  0  0  0  0  0  0  0  0  0  0
   -2.9595   -0.7907   -0.2008 H   0  0  0  0  0  0  0  0  0  0  0  0
   -0.9485   -0.4087    0.3482 C   0  0  1  0  0  0  0  0  0  0  0  0
   -0.1408   -1.0795    0.0507 H   0  0  0  0  0  0  0  0  0  0  0  0
   -1.0432    0.7243   -0.6879 C   0  0  0  0  0  0  0  0  0  0  0  0
   -0.1275    0.7409   -1.2807 H   0  0  0  0  0  0  0  0  0  0  0  0
   -1.8699    0.5135   -1.3681 H   0  0  0  0  0  0  0  0  0  0  0  0
   -1.2342    2.1004   -0.0792 C   0  0  0  0  0  0  0  0  0  0  0  0
   -1.9380    3.0986   -0.7793 C   0  0  0  0  0  0  0  0  0  0  0  0
   -2.3278    2.8966   -1.7670 H   0  0  0  0  0  0  0  0  0  0  0  0
   -2.1467    4.3596   -0.1908 C   0  0  0  0  0  0  0  0  0  0  0  0
   -2.6852    5.1255   -0.7312 H   0  0  0  0  0  0  0  0  0  0  0  0
   -1.6542    4.6241    1.0984 C   0  0  0  0  0  0  0  0  0  0  0  0
   -1.8125    5.5937    1.5495 H   0  0  0  0  0  0  0  0  0  0  0  0
   -0.9491    3.6294    1.8001 C   0  0  0  0  0  0  0  0  0  0  0  0
   -0.5657    3.8343    2.7889 H   0  0  0  0  0  0  0  0  0  0  0  0
   -0.7378    2.3704    1.2104 C   0  0  0  0  0  0  0  0  0  0  0  0
   -0.1923    1.6071    1.7500 H   0  0  0  0  0  0  0  0  0  0  0  0
   -0.6196    0.1253    1.7539 C   0  0  0  0  0  0  0  0  0  0  0  0
    0.5216    0.0194    2.2054 O   0  0  0  0  0  0  0  0  0  0  0  0
   -1.6152    0.6924    2.4469 N   0  0  0  0  0  0  0  0  0  0  0  0
   -2.5345    0.6914    2.0318 H   0  0  0  0  0  0  0  0  0  0  0  0
   -1.4720    1.2390    3.7941 C   0  0  0  0  0  0  0  0  0  0  0  0
   -0.6345    1.9391    3.8219 H   0  0  0  0  0  0  0  0  0  0  0  0
   -2.3844    1.7580    4.0892 H   0  0  0  0  0  0  0  0  0  0  0  0
   -1.2733    0.4298    4.4995 H   0  0  0  0  0  0  0  0  0  0  0  0
  5  6  2  0  0  0  0
  5  7  1  0  0  0  0
  2  3  1  0  0  0  0
  2  4  1  0  0  0  0
  2  5  1  0  0  0  0
  1  2  1  0  0  0  0
 25 26  2  0  0  0  0
 25 27  1  0  0  0  0
 23 24  1  0  0  0  0
 21 22  1  0  0  0  0
 21 23  2  0  0  0  0
 19 20  1  0  0  0  0
 19 21  1  0  0  0  0
 17 18  1  0  0  0  0
 17 19  2  0  0  0  0
 15 16  1  0  0  0  0
 15 17  1  0  0  0  0
 14 15  2  0  0  0  0
 14 23  1  0  0  0  0
 11 12  1  0  0  0  0
 11 13  1  0  0  0  0
 11 14  1  0  0  0  0
  9 10  1  0  0  0  0
  9 11  1  0  0  0  0
  9 25  1  0  0  0  0
  7  8  1  0  0  0  0
  7  9  1  0  0  0  0
 29 30  1  0  0  0  0
 29 31  1  0  0  0  0
 29 32  1  0  0  0  0
 27 28  1  0  0  0  0
 27 29  1  0  0  0  0
M  END
$$$$
default_name
  -OEChem-02102213163D

 32 32  0     1  0  0  0  0  0999 V2000
   -3.8405   -3.7518    1.6252 H   0  0  0  0  0  0  0  0  0  0  0  0
   -3.7965   -2.8768    0.9782 C   0  0  0  0  0  0  0  0  0  0  0  0
   -4.5465   -2.1527    1.2902 H   0  0  0  0  0  0  0  0  0  0  0  0
   -3.9745   -3.1748   -0.0538 H   0  0  0  0  0  0  0  0  0  0  0  0
   -2.4245   -2.2537    1.0882 C   0  0  0  0  0  0  0  0  0  0  0  0
   -1.5805   -2.7478    1.8242 O   0  0  0  0  0  0  0  0  0  0  0  0
   -2.2045   -1.1637    0.3562 N   0  0  0  0  0  0  0  0  0  0  0  0
   -2.9595   -0.7907   -0.2008 H   0  0  0  0  0  0  0  0  0  0  0  0
   -0.9485   -0.4087    0.3482 C   0  0  1  0  0  0  0  0  0  0  0  0
   -0.1408   -1.0795    0.0507 H   0  0  0  0  0  0  0  0  0  0  0  0
   -1.0432    0.7243   -0.6879 C   0  0  0  0  0  0  0  0  0  0  0  0
   -0.1275    0.7409   -1.2807 H   0  0  0  0  0  0  0  0  0  0  0  0
   -1.8699    0.5135   -1.3681 H   0  0  0  0  0  0  0  0  0  0  0  0
   -1.2342    2.1004   -0.0792 C   0  0  0  0  0  0  0  0  0  0  0  0
   -2.1852    2.9908   -0.6129 C   0  0  0  0  0  0  0  0  0  0  0  0
   -2.7703    2.7065   -1.4761 H   0  0  0  0  0  0  0  0  0  0  0  0
   -2.3856    4.2497   -0.0174 C   0  0  0  0  0  0  0  0  0  0  0  0
   -3.1145    4.9329   -0.4303 H   0  0  0  0  0  0  0  0  0  0  0  0
   -1.6376    4.6199    1.1131 C   0  0  0  0  0  0  0  0  0  0  0  0
   -1.7899    5.5881    1.5692 H   0  0  0  0  0  0  0  0  0  0  0  0
   -0.6854    3.7332    1.6481 C   0  0  0  0  0  0  0  0  0  0  0  0
   -0.1065    4.0197    2.5138 H   0  0  0  0  0  0  0  0  0  0  0  0
   -0.4830    2.4764    1.0507 C   0  0  0  0  0  0  0  0  0  0  0  0
    0.2522    1.7965    1.4612 H   0  0  0  0  0  0  0  0  0  0  0  0
   -0.6196    0.1253    1.7539 C   0  0  0  0  0  0  0  0  0  0  0  0
    0.5216    0.0194    2.2054 O   0  0  0  0  0  0  0  0  0  0  0  0
   -1.6152    0.6924    2.4469 N   0  0  0  0  0  0  0  0  0  0  0  0
   -2.5345    0.6914    2.0318 H   0  0  0  0  0  0  0  0  0  0  0  0
   -1.4720    1.2390    3.7941 C   0  0  0  0  0  0  0  0  0  0  0  0
   -0.6345    1.9391    3.8219 H   0  0  0  0  0  0  0  0  0  0  0  0
   -2.3844    1.7580    4.0892 H   0  0  0  0  0  0  0  0  0  0  0  0
   -1.2733    0.4298    4.4995 H   0  0  0  0  0  0  0  0  0  0  0  0
  5  6  2  0  0  0  0
  5  7  1  0  0  0  0
  2  3  1  0  0  0  0
  2  4  1  0  0  0  0
  2  5  1  0  0  0  0
  1  2  1  0  0  0  0
 25 26  2  0  0  0  0
 25 27  1  0  0  0  0
 23 24  1  0  0  0  0
 21 22  1  0  0  0  0
 21 23  2  0  0  0  0
 19 20  1  0  0  0  0
 19 21  1  0  0  0  0
 17 18  1  0  0  0  0
 17 19  2  0  0  0  0
 15 16  1  0  0  0  0
 15 17  1  0  0  0  0
 14 15  2  0  0  0  0
 14 23  1  0  0  0  0
 11 12  1  0  0  0  0
 11 13  1  0  0  0  0
 11 14  1  0  0  0  0
  9 10  1  0  0  0  0
  9 11  1  0  0  0  0
  9 25  1  0  0  0  0
  7  8  1  0  0  0  0
  7  9  1  0  0  0  0
 29 30  1  0  0  0  0
 29 31  1  0  0  0  0
 29 32  1  0  0  0  0
 27 28  1  0  0  0  0
 27 29  1  0  0  0  0
M  END
$$$$
default_name
  -OEChem-02102213163D

 32 32  0     1  0  0  0  0  0999 V2000
   -3.8405   -3.7518    1.6252 H   0  0  0  0  0  0  0  0  0  0  0  0
   -3.7965   -2.8768    0.9782 C   0  0  0  0  0  0  0  0  0  0  0  0
   -4.5465   -2.1527    1.2902 H   0  0  0  0  0  0  0  0  0  0  0  0
   -3.9745   -3.1748   -0.0538 H   0  0  0  0  0  0  0  0  0  0  0  0
   -2.4245   -2.2537    1.0882 C   0  0  0  0  0  0  0  0  0  0  0  0
   -1.5805   -2.7478    1.8242 O   0  0  0  0  0  0  0  0  0  0  0  0
   -2.2045   -1.1637    0.3562 N   0  0  0  0  0  0  0  0  0  0  0  0
   -2.9595   -0.7907   -0.2008 H   0  0  0  0  0  0  0  0  0  0  0  0
   -0.9485   -0.4087    0.3482 C   0  0  1  0  0  0  0  0  0  0  0  0
   -0.1408   -1.0795    0.0507 H   0  0  0  0  0  0  0  0  0  0  0  0
   -1.0432    0.7243   -0.6879 C   0  0  0  0  0  0  0  0  0  0  0  0
   -0.1275    0.7409   -1.2807 H   0  0  0  0  0  0  0  0  0  0  0  0
   -1.8699    0.5135   -1.3681 H   0  0  0  0  0  0  0  0  0  0  0  0
   -1.2342    2.1004   -0.0792 C   0  0  0  0  0  0  0  0  0  0  0  0
   -2.3736    2.8663   -0.3907 C   0  0  0  0  0  0  0  0  0  0  0  0
   -3.1097    2.4864   -1.0851 H   0  0  0  0  0  0  0  0  0  0  0  0
   -2.5642    4.1244    0.2098 C   0  0  0  0  0  0  0  0  0  0  0  0
   -3.4386    4.7120   -0.0327 H   0  0  0  0  0  0  0  0  0  0  0  0
   -1.6176    4.6180    1.1236 C   0  0  0  0  0  0  0  0  0  0  0  0
   -1.7629    5.5857    1.5832 H   0  0  0  0  0  0  0  0  0  0  0  0
   -0.4771    3.8559    1.4359 C   0  0  0  0  0  0  0  0  0  0  0  0
    0.2533    4.2376    2.1342 H   0  0  0  0  0  0  0  0  0  0  0  0
   -0.2853    2.6001    0.8331 C   0  0  0  0  0  0  0  0  0  0  0  0
    0.5942    2.0162    1.0717 H   0  0  0  0  0  0  0  0  0  0  0  0
   -0.6196    0.1253    1.7539 C   0  0  0  0  0  0  0  0  0  0  0  0
    0.5216    0.0194    2.2054 O   0  0  0  0  0  0  0  0  0  0  0  0
   -1.6152    0.6924    2.4469 N   0  0  0  0  0  0  0  0  0  0  0  0
   -2.5345    0.6914    2.0318 H   0  0  0  0  0  0  0  0  0  0  0  0
   -1.4720    1.2390    3.7941 C   0  0  0  0  0  0  0  0  0  0  0  0
   -0.6345    1.9391    3.8219 H   0  0  0  0  0  0  0  0  0  0  0  0
   -2.3844    1.7580    4.0892 H   0  0  0  0  0  0  0  0  0  0  0  0
   -1.2733    0.4298    4.4995 H   0  0  0  0  0  0  0  0  0  0  0  0
  5  6  2  0  0  0  0
  5  7  1  0  0  0  0
  2  3  1  0  0  0  0
  2  4  1  0  0  0  0
  2  5  1  0  0  0  0
  1  2  1  0  0  0  0
 25 26  2  0  0  0  0
 25 27  1  0  0  0  0
 23 24  1  0  0  0  0
 21 22  1  0  0  0  0
 21 23  2  0  0  0  0
 19 20  1  0  0  0  0
 19 21  1  0  0  0  0
 17 18  1  0  0  0  0
 17 19  2  0  0  0  0
 15 16  1  0  0  0  0
 15 17  1  0  0  0  0
 14 15  2  0  0  0  0
 14 23  1  0  0  0  0
 11 12  1  0  0  0  0
 11 13  1  0  0  0  0
 11 14  1  0  0  0  0
  9 10  1  0  0  0  0
  9 11  1  0  0  0  0
  9 25  1  0  0  0  0
  7  8  1  0  0  0  0
  7  9  1  0  0  0  0
 29 30  1  0  0  0  0
 29 31  1  0  0  0  0
 29 32  1  0  0  0  0
 27 28  1  0  0  0  0
 27 29  1  0  0  0  0
M  END
$$$$
default_name
  -OEChem-02102213163D

 32 32  0     1  0  0  0  0  0999 V2000
   -3.8405   -3.7518    1.6252 H   0  0  0  0  0  0  0  0  0  0  0  0
   -3.7965   -2.8768    0.9782 C   0  0  0  0  0  0  0  0  0  0  0  0
   -4.5465   -2.1527    1.2902 H   0  0  0  0  0  0  0  0  0  0  0  0
   -3.9745   -3.1748   -0.0538 H   0  0  0  0  0  0  0  0  0  0  0  0
   -2.4245   -2.2537    1.0882 C   0  0  0  0  0  0  0  0  0  0  0  0
   -1.5805   -2.7478    1.8242 O   0  0  0  0  0  0  0  0  0  0  0  0
   -2.2045   -1.1637    0.3562 N   0  0  0  0  0  0  0  0  0  0  0  0
   -2.9595   -0.7907   -0.2008 H   0  0  0  0  0  0  0  0  0  0  0  0
   -0.9485   -0.4087    0.3482 C   0  0  1  0  0  0  0  0  0  0  0  0
   -0.1408   -1.0795    0.0507 H   0  0  0  0  0  0  0  0  0  0  0  0
   -1.0432    0.7243   -0.6879 C   0  0  0  0  0  0  0  0  0  0  0  0
   -0.1275    0.7409   -1.2807 H   0  0  0  0  0  0  0  0  0  0  0  0
   -1.8699    0.5135   -1.3681 H   0  0  0  0  0  0  0  0  0  0  0  0
   -1.2342    2.1004   -0.0792 C   0  0  0  0  0  0  0  0  0  0  0  0
   -2.4905    2.7337   -0.1277 C   0  0  0  0  0  0  0  0  0  0  0  0
   -3.3229    2.2513   -0.6205 H   0  0  0  0  0  0  0  0  0  0  0  0
   -2.6703    3.9923    0.4753 C   0  0  0  0  0  0  0  0  0  0  0  0
   -3.6352    4.4780    0.4347 H   0  0  0  0  0  0  0  0  0  0  0  0
   -1.5957    4.6186    1.1291 C   0  0  0  0  0  0  0  0  0  0  0  0
   -1.7333    5.5866    1.5904 H   0  0  0  0  0  0  0  0  0  0  0  0
   -0.3385    3.9892    1.1782 C   0  0  0  0  0  0  0  0  0  0  0  0
    0.4890    4.4730    1.6760 H   0  0  0  0  0  0  0  0  0  0  0  0
   -0.1583    2.7330    0.5725 C   0  0  0  0  0  0  0  0  0  0  0  0
    0.8102    2.2513    0.6080 H   0  0  0  0  0  0  0  0  0  0  0  0
   -0.6196    0.1253    1.7539 C   0  0  0  0  0  0  0  0  0  0  0  0
    0.5216    0.0194    2.2054 O   0  0  0  0  0  0  0  0  0  0  0  0
   -1.6152    0.6924    2.4469 N   0  0  0  0  0  0  0  0  0  0  0  0
   -2.5345    0.6914    2.0318 H   0  0  0  0  0  0  0  0  0  0  0  0
   -1.4720    1.2390    3.7941 C   0  0  0  0  0  0  0  0  0  0  0  0
   -0.6345    1.9391    3.8219 H   0  0  0  0  0  0  0  0  0  0  0  0
   -2.3844    1.7580    4.0892 H   0  0  0  0  0  0  0  0  0  0  0  0
   -1.2733    0.4298    4.4995 H   0  0  0  0  0  0  0  0  0  0  0  0
  5  6  2  0  0  0  0
  5  7  1  0  0  0  0
  2  3  1  0  0  0  0
  2  4  1  0  0  0  0
  2  5  1  0  0  0  0
  1  2  1  0  0  0  0
 25 26  2  0  0  0  0
 25 27  1  0  0  0  0
 23 24  1  0  0  0  0
 21 22  1  0  0  0  0
 21 23  2  0  0  0  0
 19 20  1  0  0  0  0
 19 21  1  0  0  0  0
 17 18  1  0  0  0  0
 17 19  2  0  0  0  0
 15 16  1  0  0  0  0
 15 17  1  0  0  0  0
 14 15  2  0  0  0  0
 14 23  1  0  0  0  0
 11 12  1  0  0  0  0
 11 13  1  0  0  0  0
 11 14  1  0  0  0  0
  9 10  1  0  0  0  0
  9 11  1  0  0  0  0
  9 25  1  0  0  0  0
  7  8  1  0  0  0  0
  7  9  1  0  0  0  0
 29 30  1  0  0  0  0
 29 31  1  0  0  0  0
 29 32  1  0  0  0  0
 27 28  1  0  0  0  0
 27 29  1  0  0  0  0
M  END
$$$$
default_name
  -OEChem-02102213163D

 32 32  0     1  0  0  0  0  0999 V2000
   -3.8405   -3.7518    1.6252 H   0  0  0  0  0  0  0  0  0  0  0  0
   -3.7965   -2.8768    0.9782 C   0  0  0  0  0  0  0  0  0  0  0  0
   -4.5465   -2.1527    1.2902 H   0  0  0  0  0  0  0  0  0  0  0  0
   -3.9745   -3.1748   -0.0538 H   0  0  0  0  0  0  0  0  0  0  0  0
   -2.4245   -2.2537    1.0882 C   0  0  0  0  0  0  0  0  0  0  0  0
   -1.5805   -2.7478    1.8242 O   0  0  0  0  0  0  0  0  0  0  0  0
   -2.2045   -1.1637    0.3562 N   0  0  0  0  0  0  0  0  0  0  0  0
   -2.9595   -0.7907   -0.2008 H   0  0  0  0  0  0  0  0  0  0  0  0
   -0.9485   -0.4087    0.3482 C   0  0  1  0  0  0  0  0  0  0  0  0
   -0.1408   -1.0795    0.0507 H   0  0  0  0  0  0  0  0  0  0  0  0
   -1.0432    0.7243   -0.6879 C   0  0  0  0  0  0  0  0  0  0  0  0
   -0.1275    0.7409   -1.2807 H   0  0  0  0  0  0  0  0  0  0  0  0
   -1.8699    0.5135   -1.3681 H   0  0  0  0  0  0  0  0  0  0  0  0
   -1.2342    2.1004   -0.0792 C   0  0  0  0  0  0  0  0  0  0  0  0
   -2.5280    2.6021    0.1581 C   0  0  0  0  0  0  0  0  0  0  0  0
   -3.3952    2.0172   -0.1140 H   0  0  0  0  0  0  0  0  0  0  0  0
   -2.6968    3.8622    0.7610 C   0  0  0  0  0  0  0  0  0  0  0  0
   -3.6911    4.2467    0.9400 H   0  0  0  0  0  0  0  0  0  0  0  0
   -1.5733    4.6216    1.1293 C   0  0  0  0  0  0  0  0  0  0  0  0
   -1.7030    5.5908    1.5904 H   0  0  0  0  0  0  0  0  0  0  0  0
   -0.2790    4.1239    0.8923 C   0  0  0  0  0  0  0  0  0  0  0  0
    0.5847    4.7099    1.1703 H   0  0  0  0  0  0  0  0  0  0  0  0
   -0.1106    2.8660    0.2867 C   0  0  0  0  0  0  0  0  0  0  0  0
    0.8856    2.4857    0.1018 H   0  0  0  0  0  0  0  0  0  0  0  0
   -0.6196    0.1253    1.7539 C   0  0  0  0  0  0  0  0  0  0  0  0
    0.5216    0.0194    2.2054 O   0  0  0  0  0  0  0  0  0  0  0  0
   -1.6152    0.6924    2.4469 N   0  0  0  0  0  0  0  0  0  0  0  0
   -2.5345    0.6914    2.0318 H   0  0  0  0  0  0  0  0  0  0  0  0
   -1.4720    1.2390    3.7941 C   0  0  0  0  0  0  0  0  0  0  0  0
   -0.6345    1.9391    3.8219 H   0  0  0  0  0  0  0  0  0  0  0  0
   -2.3844    1.7580    4.0892 H   0  0  0  0  0  0  0  0  0  0  0  0
   -1.2733    0.4298    4.4995 H   0  0  0  0  0  0  0  0  0  0  0  0
  5  6  2  0  0  0  0
  5  7  1  0  0  0  0
  2  3  1  0  0  0  0
  2  4  1  0  0  0  0
  2  5  1  0  0  0  0
  1  2  1  0  0  0  0
 25 26  2  0  0  0  0
 25 27  1  0  0  0  0
 23 24  1  0  0  0  0
 21 22  1  0  0  0  0
 21 23  2  0  0  0  0
 19 20  1  0  0  0  0
 19 21  1  0  0  0  0
 17 18  1  0  0  0  0
 17 19  2  0  0  0  0
 15 16  1  0  0  0  0
 15 17  1  0  0  0  0
 14 15  2  0  0  0  0
 14 23  1  0  0  0  0
 11 12  1  0  0  0  0
 11 13  1  0  0  0  0
 11 14  1  0  0  0  0
  9 10  1  0  0  0  0
  9 11  1  0  0  0  0
  9 25  1  0  0  0  0
  7  8  1  0  0  0  0
  7  9  1  0  0  0  0
 29 30  1  0  0  0  0
 29 31  1  0  0  0  0
 29 32  1  0  0  0  0
 27 28  1  0  0  0  0
 27 29  1  0  0  0  0
M  END
$$$$
default_name
  -OEChem-02102213163D

 32 32  0     1  0  0  0  0  0999 V2000
   -3.8405   -3.7518    1.6252 H   0  0  0  0  0  0  0  0  0  0  0  0
   -3.7965   -2.8768    0.9782 C   0  0  0  0  0  0  0  0  0  0  0  0
   -4.5465   -2.1527    1.2902 H   0  0  0  0  0  0  0  0  0  0  0  0
   -3.9745   -3.1748   -0.0538 H   0  0  0  0  0  0  0  0  0  0  0  0
   -2.4245   -2.2537    1.0882 C   0  0  0  0  0  0  0  0  0  0  0  0
   -1.5805   -2.7478    1.8242 O   0  0  0  0  0  0  0  0  0  0  0  0
   -2.2045   -1.1637    0.3562 N   0  0  0  0  0  0  0  0  0  0  0  0
   -2.9595   -0.7907   -0.2008 H   0  0  0  0  0  0  0  0  0  0  0  0
   -0.9485   -0.4087    0.3482 C   0  0  1  0  0  0  0  0  0  0  0  0
   -0.1408   -1.0795    0.0507 H   0  0  0  0  0  0  0  0  0  0  0  0
   -1.0432    0.7243   -0.6879 C   0  0  0  0  0  0  0  0  0  0  0  0
   -0.1275    0.7409   -1.2807 H   0  0  0  0  0  0  0  0  0  0  0  0
   -1.8699    0.5135   -1.3681 H   0  0  0  0  0  0  0  0  0  0  0  0
   -1.2342    2.1004   -0.0792 C   0  0  0  0  0  0  0  0  0  0  0  0
   -2.4833    2.4804    0.4472 C   0  0  0  0  0  0  0  0  0  0  0  0
   -3.3219    1.8001    0.3999 H   0  0  0  0  0  0  0  0  0  0  0  0
   -2.6418    3.7432    1.0474 C   0  0  0  0  0  0  0  0  0  0  0  0
   -3.6025    4.0340    1.4487 H   0  0  0  0  0  0  0  0  0  0  0  0
   -1.5519    4.6269    1.1241 C   0  0  0  0  0  0  0  0  0  0  0  0
   -1.6743    5.5980    1.5831 H   0  0  0  0  0  0  0  0  0  0  0  0
   -0.3027    4.2509    0.5977 C   0  0  0  0  0  0  0  0  0  0  0  0
    0.5337    4.9322    0.6517 H   0  0  0  0  0  0  0  0  0  0  0  0
   -0.1455    2.9902   -0.0050 C   0  0  0  0  0  0  0  0  0  0  0  0
    0.8152    2.7035   -0.4126 H   0  0  0  0  0  0  0  0  0  0  0  0
   -0.6196    0.1253    1.7539 C   0  0  0  0  0  0  0  0  0  0  0  0
    0.5216    0.0194    2.2054 O   0  0  0  0  0  0  0  0  0  0  0  0
   -1.6152    0.6924    2.4469 N   0  0  0  0  0  0  0  0  0  0  0  0
   -2.5345    0.6914    2.0318 H   0  0  0  0  0  0  0  0  0  0  0  0
   -1.4720    1.2390    3.7941 C   0  0  0  0  0  0  0  0  0  0  0  0
   -0.6345    1.9391    3.8219 H   0  0  0  0  0  0  0  0  0  0  0  0
   -2.3844    1.7580    4.0892 H   0  0  0  0  0  0  0  0  0  0  0  0
   -1.2733    0.4298    4.4995 H   0  0  0  0  0  0  0  0  0  0  0  0
  5  6  2  0  0  0  0
  5  7  1  0  0  0  0
  2  3  1  0  0  0  0
  2  4  1  0  0  0  0
  2  5  1  0  0  0  0
  1  2  1  0  0  0  0
 25 26  2  0  0  0  0
 25 27  1  0  0  0  0
 23 24  1  0  0  0  0
 21 22  1  0  0  0  0
 21 23  2  0  0  0  0
 19 20  1  0  0  0  0
 19 21  1  0  0  0  0
 17 18  1  0  0  0  0
 17 19  2  0  0  0  0
 15 16  1  0  0  0  0
 15 17  1  0  0  0  0
 14 15  2  0  0  0  0
 14 23  1  0  0  0  0
 11 12  1  0  0  0  0
 11 13  1  0  0  0  0
 11 14  1  0  0  0  0
  9 10  1  0  0  0  0
  9 11  1  0  0  0  0
  9 25  1  0  0  0  0
  7  8  1  0  0  0  0
  7  9  1  0  0  0  0
 29 30  1  0  0  0  0
 29 31  1  0  0  0  0
 29 32  1  0  0  0  0
 27 28  1  0  0  0  0
 27 29  1  0  0  0  0
M  END
$$$$
default_name
  -OEChem-02102213163D

 32 32  0     1  0  0  0  0  0999 V2000
   -3.8405   -3.7518    1.6252 H   0  0  0  0  0  0  0  0  0  0  0  0
   -3.7965   -2.8768    0.9782 C   0  0  0  0  0  0  0  0  0  0  0  0
   -4.5465   -2.1527    1.2902 H   0  0  0  0  0  0  0  0  0  0  0  0
   -3.9745   -3.1748   -0.0538 H   0  0  0  0  0  0  0  0  0  0  0  0
   -2.4245   -2.2537    1.0882 C   0  0  0  0  0  0  0  0  0  0  0  0
   -1.5805   -2.7478    1.8242 O   0  0  0  0  0  0  0  0  0  0  0  0
   -2.2045   -1.1637    0.3562 N   0  0  0  0  0  0  0  0  0  0  0  0
   -2.9595   -0.7907   -0.2008 H   0  0  0  0  0  0  0  0  0  0  0  0
   -0.9485   -0.4087    0.3482 C   0  0  1  0  0  0  0  0  0  0  0  0
   -0.1408   -1.0795    0.0507 H   0  0  0  0  0  0  0  0  0  0  0  0
   -1.0432    0.7243   -0.6879 C   0  0  0  0  0  0  0  0  0  0  0  0
   -0.1275    0.7409   -1.2807 H   0  0  0  0  0  0  0  0  0  0  0  0
   -1.8699    0.5135   -1.3681 H   0  0  0  0  0  0  0  0  0  0  0  0
   -1.2342    2.1004   -0.0792 C   0  0  0  0  0  0  0  0  0  0  0  0
   -2.3597    2.3769    0.7199 C   0  0  0  0  0  0  0  0  0  0  0  0
   -3.1079    1.6147    0.8860 H   0  0  0  0  0  0  0  0  0  0  0  0
   -2.5090    3.6432    1.3150 C   0  0  0  0  0  0  0  0  0  0  0  0
   -3.3753    3.8543    1.9262 H   0  0  0  0  0  0  0  0  0  0  0  0
   -1.5330    4.6341    1.1139 C   0  0  0  0  0  0  0  0  0  0  0  0
   -1.6490    5.6077    1.5692 H   0  0  0  0  0  0  0  0  0  0  0  0
   -0.4079    4.3615    0.3147 C   0  0  0  0  0  0  0  0  0  0  0  0
    0.3397    5.1248    0.1555 H   0  0  0  0  0  0  0  0  0  0  0  0
   -0.2606    3.0970   -0.2826 C   0  0  0  0  0  0  0  0  0  0  0  0
    0.6038    2.8897   -0.8999 H   0  0  0  0  0  0  0  0  0  0  0  0
   -0.6196    0.1253    1.7539 C   0  0  0  0  0  0  0  0  0  0  0  0
    0.5216    0.0194    2.2054 O   0  0  0  0  0  0  0  0  0  0  0  0
   -1.6152    0.6924    2.4469 N   0  0  0  0  0  0  0  0  0  0  0  0
   -2.5345    0.6914    2.0318 H   0  0  0  0  0  0  0  0  0  0  0  0
   -1.4720    1.2390    3.7941 C   0  0  0  0  0  0  0  0  0  0  0  0
   -0.6345    1.9391    3.8219 H   0  0  0  0  0  0  0  0  0  0  0  0
   -2.3844    1.7580    4.0892 H   0  0  0  0  0  0  0  0  0  0  0  0
   -1.2733    0.4298    4.4995 H   0  0  0  0  0  0  0  0  0  0  0  0
  5  6  2  0  0  0  0
  5  7  1  0  0  0  0
  2  3  1  0  0  0  0
  2  4  1  0  0  0  0
  2  5  1  0  0  0  0
  1  2  1  0  0  0  0
 25 26  2  0  0  0  0
 25 27  1  0  0  0  0
 23 24  1  0  0  0  0
 21 22  1  0  0  0  0
 21 23  2  0  0  0  0
 19 20  1  0  0  0  0
 19 21  1  0  0  0  0
 17 18  1  0  0  0  0
 17 19  2  0  0  0  0
 15 16  1  0  0  0  0
 15 17  1  0  0  0  0
 14 15  2  0  0  0  0
 14 23  1  0  0  0  0
 11 12  1  0  0  0  0
 11 13  1  0  0  0  0
 11 14  1  0  0  0  0
  9 10  1  0  0  0  0
  9 11  1  0  0  0  0
  9 25  1  0  0  0  0
  7  8  1  0  0  0  0
  7  9  1  0  0  0  0
 29 30  1  0  0  0  0
 29 31  1  0  0  0  0
 29 32  1  0  0  0  0
 27 28  1  0  0  0  0
 27 29  1  0  0  0  0
M  END
$$$$
default_name
  -OEChem-02102213163D

 32 32  0     1  0  0  0  0  0999 V2000
   -3.8405   -3.7518    1.6252 H   0  0  0  0  0  0  0  0  0  0  0  0
   -3.7965   -2.8768    0.9782 C   0  0  0  0  0  0  0  0  0  0  0  0
   -4.5465   -2.1527    1.2902 H   0  0  0  0  0  0  0  0  0  0  0  0
   -3.9745   -3.1748   -0.0538 H   0  0  0  0  0  0  0  0  0  0  0  0
   -2.4245   -2.2537    1.0882 C   0  0  0  0  0  0  0  0  0  0  0  0
   -1.5805   -2.7478    1.8242 O   0  0  0  0  0  0  0  0  0  0  0  0
   -2.2045   -1.1637    0.3562 N   0  0  0  0  0  0  0  0  0  0  0  0
   -2.9595   -0.7907   -0.2008 H   0  0  0  0  0  0  0  0  0  0  0  0
   -0.9485   -0.4087    0.3482 C   0  0  1  0  0  0  0  0  0  0  0  0
   -0.1408   -1.0795    0.0507 H   0  0  0  0  0  0  0  0  0  0  0  0
   -1.0432    0.7243   -0.6879 C   0  0  0  0  0  0  0  0  0  0  0  0
   -0.1275    0.7409   -1.2807 H   0  0  0  0  0  0  0  0  0  0  0  0
   -1.8699    0.5135   -1.3681 H   0  0  0  0  0  0  0  0  0  0  0  0
   -1.2342    2.1004   -0.0792 C   0  0  0  0  0  0  0  0  0  0  0  0
   -2.1655    2.2987    0.9578 C   0  0  0  0  0  0  0  0  0  0  0  0
   -2.7677    1.4738    1.3114 H   0  0  0  0  0  0  0  0  0  0  0  0
   -2.3075    3.5692    1.5456 C   0  0  0  0  0  0  0  0  0  0  0  0
   -3.0250    3.7198    2.3399 H   0  0  0  0  0  0  0  0  0  0  0  0
   -1.5179    4.6426    1.0994 C   0  0  0  0  0  0  0  0  0  0  0  0
   -1.6288    5.6192    1.5494 H   0  0  0  0  0  0  0  0  0  0  0  0
   -0.5874    4.4483    0.0623 C   0  0  0  0  0  0  0  0  0  0  0  0
    0.0157    5.2745   -0.2845 H   0  0  0  0  0  0  0  0  0  0  0  0
   -0.4481    3.1792   -0.5271 C   0  0  0  0  0  0  0  0  0  0  0  0
    0.2658    3.0318   -1.3271 H   0  0  0  0  0  0  0  0  0  0  0  0
   -0.6196    0.1253    1.7539 C   0  0  0  0  0  0  0  0  0  0  0  0
    0.5216    0.0194    2.2054 O   0  0  0  0  0  0  0  0  0  0  0  0
   -1.6152    0.6924    2.4469 N   0  0  0  0  0  0  0  0  0  0  0  0
   -2.5345    0.6914    2.0318 H   0  0  0  0  0  0  0  0  0  0  0  0
   -1.4720    1.2390    3.7941 C   0  0  0  0  0  0  0  0  0  0  0  0
   -0.6345    1.9391    3.8219 H   0  0  0  0  0  0  0  0  0  0  0  0
   -2.3844    1.7580    4.0892 H   0  0  0  0  0  0  0  0  0  0  0  0
   -1.2733    0.4298    4.4995 H   0  0  0  0  0  0  0  0  0  0  0  0
  5  6  2  0  0  0  0
  5  7  1  0  0  0  0
  2  3  1  0  0  0  0
  2  4  1  0  0  0  0
  2  5  1  0  0  0  0
  1  2  1  0  0  0  0
 25 26  2  0  0  0  0
 25 27  1  0  0  0  0
 23 24  1  0  0  0  0
 21 22  1  0  0  0  0
 21 23  2  0  0  0  0
 19 20  1  0  0  0  0
 19 21  1  0  0  0  0
 17 18  1  0  0  0  0
 17 19  2  0  0  0  0
 15 16  1  0  0  0  0
 15 17  1  0  0  0  0
 14 15  2  0  0  0  0
 14 23  1  0  0  0  0
 11 12  1  0  0  0  0
 11 13  1  0  0  0  0
 11 14  1  0  0  0  0
  9 10  1  0  0  0  0
  9 11  1  0  0  0  0
  9 25  1  0  0  0  0
  7  8  1  0  0  0  0
  7  9  1  0  0  0  0
 29 30  1  0  0  0  0
 29 31  1  0  0  0  0
 29 32  1  0  0  0  0
 27 28  1  0  0  0  0
 27 29  1  0  0  0  0
M  END
$$$$
default_name
  -OEChem-02102213163D

 32 32  0     1  0  0  0  0  0999 V2000
   -3.8405   -3.7518    1.6252 H   0  0  0  0  0  0  0  0  0  0  0  0
   -3.7965   -2.8768    0.9782 C   0  0  0  0  0  0  0  0  0  0  0  0
   -4.5465   -2.1527    1.2902 H   0  0  0  0  0  0  0  0  0  0  0  0
   -3.9745   -3.1748   -0.0538 H   0  0  0  0  0  0  0  0  0  0  0  0
   -2.4245   -2.2537    1.0882 C   0  0  0  0  0  0  0  0  0  0  0  0
   -1.5805   -2.7478    1.8242 O   0  0  0  0  0  0  0  0  0  0  0  0
   -2.2045   -1.1637    0.3562 N   0  0  0  0  0  0  0  0  0  0  0  0
   -2.9595   -0.7907   -0.2008 H   0  0  0  0  0  0  0  0  0  0  0  0
   -0.9485   -0.4087    0.3482 C   0  0  1  0  0  0  0  0  0  0  0  0
   -0.1408   -1.0795    0.0507 H   0  0  0  0  0  0  0  0  0  0  0  0
   -1.0432    0.7243   -0.6879 C   0  0  0  0  0  0  0  0  0  0  0  0
   -0.1275    0.7409   -1.2807 H   0  0  0  0  0  0  0  0  0  0  0  0
   -1.8699    0.5135   -1.3681 H   0  0  0  0  0  0  0  0  0  0  0  0
   -1.2342    2.1004   -0.0792 C   0  0  0  0  0  0  0  0  0  0  0  0
   -1.9139    2.2510    1.1444 C   0  0  0  0  0  0  0  0  0  0  0  0
   -2.3246    1.3868    1.6471 H   0  0  0  0  0  0  0  0  0  0  0  0
   -2.0511    3.5261    1.7234 C   0  0  0  0  0  0  0  0  0  0  0  0
   -2.5756    3.6399    2.6617 H   0  0  0  0  0  0  0  0  0  0  0  0
   -1.5077    4.6519    1.0815 C   0  0  0  0  0  0  0  0  0  0  0  0
   -1.6151    5.6318    1.5252 H   0  0  0  0  0  0  0  0  0  0  0  0
   -0.8291    4.5051   -0.1420 C   0  0  0  0  0  0  0  0  0  0  0  0
   -0.4161    5.3711   -0.6383 H   0  0  0  0  0  0  0  0  0  0  0  0
   -0.6951    3.2311   -0.7220 C   0  0  0  0  0  0  0  0  0  0  0  0
   -0.1758    3.1200   -1.6650 H   0  0  0  0  0  0  0  0  0  0  0  0
   -0.6196    0.1253    1.7539 C   0  0  0  0  0  0  0  0  0  0  0  0
    0.5216    0.0194    2.2054 O   0  0  0  0  0  0  0  0  0  0  0  0
   -1.6152    0.6924    2.4469 N   0  0  0  0  0  0  0  0  0  0  0  0
   -2.5345    0.6914    2.0318 H   0  0  0  0  0  0  0  0  0  0  0  0
   -1.4720    1.2390    3.7941 C   0  0  0  0  0  0  0  0  0  0  0  0
   -0.6345    1.9391    3.8219 H   0  0  0  0  0  0  0  0  0  0  0  0
   -2.3844    1.7580    4.0892 H   0  0  0  0  0  0  0  0  0  0  0  0
   -1.2733    0.4298    4.4995 H   0  0  0  0  0  0  0  0  0  0  0  0
  5  6  2  0  0  0  0
  5  7  1  0  0  0  0
  2  3  1  0  0  0  0
  2  4  1  0  0  0  0
  2  5  1  0  0  0  0
  1  2  1  0  0  0  0
 25 26  2  0  0  0  0
 25 27  1  0  0  0  0
 23 24  1  0  0  0  0
 21 22  1  0  0  0  0
 21 23  2  0  0  0  0
 19 20  1  0  0  0  0
 19 21  1  0  0  0  0
 17 18  1  0  0  0  0
 17 19  2  0  0  0  0
 15 16  1  0  0  0  0
 15 17  1  0  0  0  0
 14 15  2  0  0  0  0
 14 23  1  0  0  0  0
 11 12  1  0  0  0  0
 11 13  1  0  0  0  0
 11 14  1  0  0  0  0
  9 10  1  0  0  0  0
  9 11  1  0  0  0  0
  9 25  1  0  0  0  0
  7  8  1  0  0  0  0
  7  9  1  0  0  0  0
 29 30  1  0  0  0  0
 29 31  1  0  0  0  0
 29 32  1  0  0  0  0
 27 28  1  0  0  0  0
 27 29  1  0  0  0  0
M  END
$$$$
default_name
  -OEChem-02102213163D

 32 32  0     1  0  0  0  0  0999 V2000
   -3.8405   -3.7518    1.6252 H   0  0  0  0  0  0  0  0  0  0  0  0
   -3.7965   -2.8768    0.9782 C   0  0  0  0  0  0  0  0  0  0  0  0
   -4.5465   -2.1527    1.2902 H   0  0  0  0  0  0  0  0  0  0  0  0
   -3.9745   -3.1748   -0.0538 H   0  0  0  0  0  0  0  0  0  0  0  0
   -2.4245   -2.2537    1.0882 C   0  0  0  0  0  0  0  0  0  0  0  0
   -1.5805   -2.7478    1.8242 O   0  0  0  0  0  0  0  0  0  0  0  0
   -2.2045   -1.1637    0.3562 N   0  0  0  0  0  0  0  0  0  0  0  0
   -2.9595   -0.7907   -0.2008 H   0  0  0  0  0  0  0  0  0  0  0  0
   -0.9485   -0.4087    0.3482 C   0  0  1  0  0  0  0  0  0  0  0  0
   -0.1408   -1.0795    0.0507 H   0  0  0  0  0  0  0  0  0  0  0  0
   -1.0432    0.7243   -0.6879 C   0  0  0  0  0  0  0  0  0  0  0  0
   -0.1275    0.7409   -1.2807 H   0  0  0  0  0  0  0  0  0  0  0  0
   -1.8699    0.5135   -1.3681 H   0  0  0  0  0  0  0  0  0  0  0  0
   -1.2342    2.1004   -0.0792 C   0  0  0  0  0  0  0  0  0  0  0  0
   -1.6221    2.2372    1.2672 C   0  0  0  0  0  0  0  0  0  0  0  0
   -1.8088    1.3597    1.8700 H   0  0  0  0  0  0  0  0  0  0  0  0
   -1.7572    3.5170    1.8363 C   0  0  0  0  0  0  0  0  0  0  0  0
   -2.0577    3.6198    2.8696 H   0  0  0  0  0  0  0  0  0  0  0  0
   -1.5029    4.6614    1.0615 C   0  0  0  0  0  0  0  0  0  0  0  0
   -1.6089    5.6446    1.4982 H   0  0  0  0  0  0  0  0  0  0  0  0
   -1.1165    4.5283   -0.2846 C   0  0  0  0  0  0  0  0  0  0  0  0
   -0.9263    5.4080   -0.8818 H   0  0  0  0  0  0  0  0  0  0  0  0
   -0.9848    3.2493   -0.8540 C   0  0  0  0  0  0  0  0  0  0  0  0
   -0.6908    3.1483   -1.8906 H   0  0  0  0  0  0  0  0  0  0  0  0
   -0.6196    0.1253    1.7539 C   0  0  0  0  0  0  0  0  0  0  0  0
    0.5216    0.0194    2.2054 O   0  0  0  0  0  0  0  0  0  0  0  0
   -1.6152    0.6924    2.4469 N   0  0  0  0  0  0  0  0  0  0  0  0
   -2.5345    0.6914    2.0318 H   0  0  0  0  0  0  0  0  0  0  0  0
   -1.4720    1.2390    3.7941 C   0  0  0  0  0  0  0  0  0  0  0  0
   -0.6345    1.9391    3.8219 H   0  0  0  0  0  0  0  0  0  0  0  0
   -2.3844    1.7580    4.0892 H   0  0  0  0  0  0  0  0  0  0  0  0
   -1.2733    0.4298    4.4995 H   0  0  0  0  0  0  0  0  0  0  0  0
  5  6  2  0  0  0  0
  5  7  1  0  0  0  0
  2  3  1  0  0  0  0
  2  4  1  0  0  0  0
  2  5  1  0  0  0  0
  1  2  1  0  0  0  0
 25 26  2  0  0  0  0
 25 27  1  0  0  0  0
 23 24  1  0  0  0  0
 21 22  1  0  0  0  0
 21 23  2  0  0  0  0
 19 20  1  0  0  0  0
 19 21  1  0  0  0  0
 17 18  1  0  0  0  0
 17 19  2  0  0  0  0
 15 16  1  0  0  0  0
 15 17  1  0  0  0  0
 14 15  2  0  0  0  0
 14 23  1  0  0  0  0
 11 12  1  0  0  0  0
 11 13  1  0  0  0  0
 11 14  1  0  0  0  0
  9 10  1  0  0  0  0
  9 11  1  0  0  0  0
  9 25  1  0  0  0  0
  7  8  1  0  0  0  0
  7  9  1  0  0  0  0
 29 30  1  0  0  0  0
 29 31  1  0  0  0  0
 29 32  1  0  0  0  0
 27 28  1  0  0  0  0
 27 29  1  0  0  0  0
M  END
$$$$
default_name
  -OEChem-02102213163D

 32 32  0     1  0  0  0  0  0999 V2000
   -3.8405   -3.7518    1.6252 H   0  0  0  0  0  0  0  0  0  0  0  0
   -3.7965   -2.8768    0.9782 C   0  0  0  0  0  0  0  0  0  0  0  0
   -4.5465   -2.1527    1.2902 H   0  0  0  0  0  0  0  0  0  0  0  0
   -3.9745   -3.1748   -0.0538 H   0  0  0  0  0  0  0  0  0  0  0  0
   -2.4245   -2.2537    1.0882 C   0  0  0  0  0  0  0  0  0  0  0  0
   -1.5805   -2.7478    1.8242 O   0  0  0  0  0  0  0  0  0  0  0  0
   -2.2045   -1.1637    0.3562 N   0  0  0  0  0  0  0  0  0  0  0  0
   -2.9595   -0.7907   -0.2008 H   0  0  0  0  0  0  0  0  0  0  0  0
   -0.9485   -0.4087    0.3482 C   0  0  1  0  0  0  0  0  0  0  0  0
   -0.1408   -1.0795    0.0507 H   0  0  0  0  0  0  0  0  0  0  0  0
   -1.0432    0.7243   -0.6879 C   0  0  0  0  0  0  0  0  0  0  0  0
   -0.1275    0.7409   -1.2807 H   0  0  0  0  0  0  0  0  0  0  0  0
   -1.8699    0.5135   -1.3681 H   0  0  0  0  0  0  0  0  0  0  0  0
   -1.2342    2.1004   -0.0792 C   0  0  0  0  0  0  0  0  0  0  0  0
   -1.3100    2.2582    1.3177 C   0  0  0  0  0  0  0  0  0  0  0  0
   -1.2553    1.3944    1.9652 H   0  0  0  0  0  0  0  0  0  0  0  0
   -1.4458    3.5423    1.8767 C   0  0  0  0  0  0  0  0  0  0  0  0
   -1.5065    3.6610    2.9494 H   0  0  0  0  0  0  0  0  0  0  0  0
   -1.5040    4.6704    1.0408 C   0  0  0  0  0  0  0  0  0  0  0  0
   -1.6106    5.6568    1.4702 H   0  0  0  0  0  0  0  0  0  0  0  0
   -1.4300    4.5162   -0.3555 C   0  0  0  0  0  0  0  0  0  0  0  0
   -1.4801    5.3827   -0.9984 H   0  0  0  0  0  0  0  0  0  0  0  0
   -1.2976    3.2324   -0.9140 C   0  0  0  0  0  0  0  0  0  0  0  0
   -1.2441    3.1148   -1.9885 H   0  0  0  0  0  0  0  0  0  0  0  0
   -0.6196    0.1253    1.7539 C   0  0  0  0  0  0  0  0  0  0  0  0
    0.5216    0.0194    2.2054 O   0  0  0  0  0  0  0  0  0  0  0  0
   -1.6152    0.6924    2.4469 N   0  0  0  0  0  0  0  0  0  0  0  0
   -2.5345    0.6914    2.0318 H   0  0  0  0  0  0  0  0  0  0  0  0
   -1.4720    1.2390    3.7941 C   0  0  0  0  0  0  0  0  0  0  0  0
   -0.6345    1.9391    3.8219 H   0  0  0  0  0  0  0  0  0  0  0  0
   -2.3844    1.7580    4.0892 H   0  0  0  0  0  0  0  0  0  0  0  0
   -1.2733    0.4298    4.4995 H   0  0  0  0  0  0  0  0  0  0  0  0
  5  6  2  0  0  0  0
  5  7  1  0  0  0  0
  2  3  1  0  0  0  0
  2  4  1  0  0  0  0
  2  5  1  0  0  0  0
  1  2  1  0  0  0  0
 25 26  2  0  0  0  0
 25 27  1  0  0  0  0
 23 24  1  0  0  0  0
 21 22  1  0  0  0  0
 21 23  2  0  0  0  0
 19 20  1  0  0  0  0
 19 21  1  0  0  0  0
 17 18  1  0  0  0  0
 17 19  2  0  0  0  0
 15 16  1  0  0  0  0
 15 17  1  0  0  0  0
 14 15  2  0  0  0  0
 14 23  1  0  0  0  0
 11 12  1  0  0  0  0
 11 13  1  0  0  0  0
 11 14  1  0  0  0  0
  9 10  1  0  0  0  0
  9 11  1  0  0  0  0
  9 25  1  0  0  0  0
  7  8  1  0  0  0  0
  7  9  1  0  0  0  0
 29 30  1  0  0  0  0
 29 31  1  0  0  0  0
 29 32  1  0  0  0  0
 27 28  1  0  0  0  0
 27 29  1  0  0  0  0
M  END
$$$$
default_name
  -OEChem-02102213163D

 32 32  0     1  0  0  0  0  0999 V2000
   -3.8405   -3.7518    1.6252 H   0  0  0  0  0  0  0  0  0  0  0  0
   -3.7965   -2.8768    0.9782 C   0  0  0  0  0  0  0  0  0  0  0  0
   -4.5465   -2.1527    1.2902 H   0  0  0  0  0  0  0  0  0  0  0  0
   -3.9745   -3.1748   -0.0538 H   0  0  0  0  0  0  0  0  0  0  0  0
   -2.4245   -2.2537    1.0882 C   0  0  0  0  0  0  0  0  0  0  0  0
   -1.5805   -2.7478    1.8242 O   0  0  0  0  0  0  0  0  0  0  0  0
   -2.2045   -1.1637    0.3562 N   0  0  0  0  0  0  0  0  0  0  0  0
   -2.9595   -0.7907   -0.2008 H   0  0  0  0  0  0  0  0  0  0  0  0
   -0.9485   -0.4087    0.3482 C   0  0  1  0  0  0  0  0  0  0  0  0
   -0.1408   -1.0795    0.0507 H   0  0  0  0  0  0  0  0  0  0  0  0
   -1.0432    0.7243   -0.6879 C   0  0  0  0  0  0  0  0  0  0  0  0
   -0.1275    0.7409   -1.2807 H   0  0  0  0  0  0  0  0  0  0  0  0
   -1.8699    0.5135   -1.3681 H   0  0  0  0  0  0  0  0  0  0  0  0
   -1.2342    2.1004   -0.0792 C   0  0  0  0  0  0  0  0  0  0  0  0
   -0.9989    2.3125    1.2925 C   0  0  0  0  0  0  0  0  0  0  0  0
   -0.7020    1.4886    1.9260 H   0  0  0  0  0  0  0  0  0  0  0  0
   -1.1382    3.6005    1.8417 C   0  0  0  0  0  0  0  0  0  0  0  0
   -0.9596    3.7606    2.8957 H   0  0  0  0  0  0  0  0  0  0  0  0
   -1.5108    4.6783    1.0208 C   0  0  0  0  0  0  0  0  0  0  0  0
   -1.6201    5.6674    1.4432 H   0  0  0  0  0  0  0  0  0  0  0  0
   -1.7481    4.4696   -0.3501 C   0  0  0  0  0  0  0  0  0  0  0  0
   -2.0398    5.2970   -0.9802 H   0  0  0  0  0  0  0  0  0  0  0  0
   -1.6120    3.1817   -0.8980 C   0  0  0  0  0  0  0  0  0  0  0  0
   -1.7982    3.0218   -1.9520 H   0  0  0  0  0  0  0  0  0  0  0  0
   -0.6196    0.1253    1.7539 C   0  0  0  0  0  0  0  0  0  0  0  0
    0.5216    0.0194    2.2054 O   0  0  0  0  0  0  0  0  0  0  0  0
   -1.6152    0.6924    2.4469 N   0  0  0  0  0  0  0  0  0  0  0  0
   -2.5345    0.6914    2.0318 H   0  0  0  0  0  0  0  0  0  0  0  0
   -1.4720    1.2390    3.7941 C   0  0  0  0  0  0  0  0  0  0  0  0
   -0.6345    1.9391    3.8219 H   0  0  0  0  0  0  0  0  0  0  0  0
   -2.3844    1.7580    4.0892 H   0  0  0  0  0  0  0  0  0  0  0  0
   -1.2733    0.4298    4.4995 H   0  0  0  0  0  0  0  0  0  0  0  0
  5  6  2  0  0  0  0
  5  7  1  0  0  0  0
  2  3  1  0  0  0  0
  2  4  1  0  0  0  0
  2  5  1  0  0  0  0
  1  2  1  0  0  0  0
 25 26  2  0  0  0  0
 25 27  1  0  0  0  0
 23 24  1  0  0  0  0
 21 22  1  0  0  0  0
 21 23  2  0  0  0  0
 19 20  1  0  0  0  0
 19 21  1  0  0  0  0
 17 18  1  0  0  0  0
 17 19  2  0  0  0  0
 15 16  1  0  0  0  0
 15 17  1  0  0  0  0
 14 15  2  0  0  0  0
 14 23  1  0  0  0  0
 11 12  1  0  0  0  0
 11 13  1  0  0  0  0
 11 14  1  0  0  0  0
  9 10  1  0  0  0  0
  9 11  1  0  0  0  0
  9 25  1  0  0  0  0
  7  8  1  0  0  0  0
  7  9  1  0  0  0  0
 29 30  1  0  0  0  0
 29 31  1  0  0  0  0
 29 32  1  0  0  0  0
 27 28  1  0  0  0  0
 27 29  1  0  0  0  0
M  END
$$$$
default_name
  -OEChem-02102213163D

 32 32  0     1  0  0  0  0  0999 V2000
   -3.8405   -3.7518    1.6252 H   0  0  0  0  0  0  0  0  0  0  0  0
   -3.7965   -2.8768    0.9782 C   0  0  0  0  0  0  0  0  0  0  0  0
   -4.5465   -2.1527    1.2902 H   0  0  0  0  0  0  0  0  0  0  0  0
   -3.9745   -3.1748   -0.0538 H   0  0  0  0  0  0  0  0  0  0  0  0
   -2.4245   -2.2537    1.0882 C   0  0  0  0  0  0  0  0  0  0  0  0
   -1.5805   -2.7478    1.8242 O   0  0  0  0  0  0  0  0  0  0  0  0
   -2.2045   -1.1637    0.3562 N   0  0  0  0  0  0  0  0  0  0  0  0
   -2.9595   -0.7907   -0.2008 H   0  0  0  0  0  0  0  0  0  0  0  0
   -0.9485   -0.4087    0.3482 C   0  0  1  0  0  0  0  0  0  0  0  0
   -0.1408   -1.0795    0.0507 H   0  0  0  0  0  0  0  0  0  0  0  0
   -1.0432    0.7243   -0.6879 C   0  0  0  0  0  0  0  0  0  0  0  0
   -0.1275    0.7409   -1.2807 H   0  0  0  0  0  0  0  0  0  0  0  0
   -1.8699    0.5135   -1.3681 H   0  0  0  0  0  0  0  0  0  0  0  0
   -1.2342    2.1004   -0.0792 C   0  0  0  0  0  0  0  0  0  0  0  0
   -0.7099    2.3964    1.1934 C   0  0  0  0  0  0  0  0  0  0  0  0
   -0.1865    1.6357    1.7551 H   0  0  0  0  0  0  0  0  0  0  0  0
   -0.8553    3.6874    1.7338 C   0  0  0  0  0  0  0  0  0  0  0  0
   -0.4542    3.9119    2.7122 H   0  0  0  0  0  0  0  0  0  0  0  0
   -1.5229    4.6846    1.0027 C   0  0  0  0  0  0  0  0  0  0  0  0
   -1.6367    5.6758    1.4190 H   0  0  0  0  0  0  0  0  0  0  0  0
   -2.0493    4.3918   -0.2685 C   0  0  0  0  0  0  0  0  0  0  0  0
   -2.5673    5.1566   -0.8283 H   0  0  0  0  0  0  0  0  0  0  0  0
   -1.9067    3.1006   -0.8070 C   0  0  0  0  0  0  0  0  0  0  0  0
   -2.3151    2.8756   -1.7837 H   0  0  0  0  0  0  0  0  0  0  0  0
   -0.6196    0.1253    1.7539 C   0  0  0  0  0  0  0  0  0  0  0  0
    0.5216    0.0194    2.2054 O   0  0  0  0  0  0  0  0  0  0  0  0
   -1.6152    0.6924    2.4469 N   0  0  0  0  0  0  0  0  0  0  0  0
   -2.5345    0.6914    2.0318 H   0  0  0  0  0  0  0  0  0  0  0  0
   -1.4720    1.2390    3.7941 C   0  0  0  0  0  0  0  0  0  0  0  0
   -0.6345    1.9391    3.8219 H   0  0  0  0  0  0  0  0  0  0  0  0
   -2.3844    1.7580    4.0892 H   0  0  0  0  0  0  0  0  0  0  0  0
   -1.2733    0.4298    4.4995 H   0  0  0  0  0  0  0  0  0  0  0  0
  5  6  2  0  0  0  0
  5  7  1  0  0  0  0
  2  3  1  0  0  0  0
  2  4  1  0  0  0  0
  2  5  1  0  0  0  0
  1  2  1  0  0  0  0
 25 26  2  0  0  0  0
 25 27  1  0  0  0  0
 23 24  1  0  0  0  0
 21 22  1  0  0  0  0
 21 23  2  0  0  0  0
 19 20  1  0  0  0  0
 19 21  1  0  0  0  0
 17 18  1  0  0  0  0
 17 19  2  0  0  0  0
 15 16  1  0  0  0  0
 15 17  1  0  0  0  0
 14 15  2  0  0  0  0
 14 23  1  0  0  0  0
 11 12  1  0  0  0  0
 11 13  1  0  0  0  0
 11 14  1  0  0  0  0
  9 10  1  0  0  0  0
  9 11  1  0  0  0  0
  9 25  1  0  0  0  0
  7  8  1  0  0  0  0
  7  9  1  0  0  0  0
 29 30  1  0  0  0  0
 29 31  1  0  0  0  0
 29 32  1  0  0  0  0
 27 28  1  0  0  0  0
 27 29  1  0  0  0  0
M  END
$$$$
default_name
  -OEChem-02102213163D

 32 32  0     1  0  0  0  0  0999 V2000
   -3.8405   -3.7518    1.6252 H   0  0  0  0  0  0  0  0  0  0  0  0
   -3.7965   -2.8768    0.9782 C   0  0  0  0  0  0  0  0  0  0  0  0
   -4.5465   -2.1527    1.2902 H   0  0  0  0  0  0  0  0  0  0  0  0
   -3.9745   -3.1748   -0.0538 H   0  0  0  0  0  0  0  0  0  0  0  0
   -2.4245   -2.2537    1.0882 C   0  0  0  0  0  0  0  0  0  0  0  0
   -1.5805   -2.7478    1.8242 O   0  0  0  0  0  0  0  0  0  0  0  0
   -2.2045   -1.1637    0.3562 N   0  0  0  0  0  0  0  0  0  0  0  0
   -2.9595   -0.7907   -0.2008 H   0  0  0  0  0  0  0  0  0  0  0  0
   -0.9485   -0.4087    0.3482 C   0  0  1  0  0  0  0  0  0  0  0  0
   -0.1408   -1.0795    0.0507 H   0  0  0  0  0  0  0  0  0  0  0  0
   -1.0432    0.7243   -0.6879 C   0  0  0  0  0  0  0  0  0  0  0  0
   -0.1275    0.7409   -1.2807 H   0  0  0  0  0  0  0  0  0  0  0  0
   -1.8699    0.5135   -1.3681 H   0  0  0  0  0  0  0  0  0  0  0  0
   -1.2342    2.1004   -0.0792 C   0  0  0  0  0  0  0  0  0  0  0  0
   -0.4628    2.5043    1.0270 C   0  0  0  0  0  0  0  0  0  0  0  0
    0.2560    1.8257    1.4643 H   0  0  0  0  0  0  0  0  0  0  0  0
   -0.6164    3.7973    1.5604 C   0  0  0  0  0  0  0  0  0  0  0  0
   -0.0249    4.1045    2.4114 H   0  0  0  0  0  0  0  0  0  0  0  0
   -1.5396    4.6889    0.9880 C   0  0  0  0  0  0  0  0  0  0  0  0
   -1.6593    5.6814    1.3992 H   0  0  0  0  0  0  0  0  0  0  0  0
   -2.3130    4.2879   -0.1166 C   0  0  0  0  0  0  0  0  0  0  0  0
   -3.0266    4.9712   -0.5533 H   0  0  0  0  0  0  0  0  0  0  0  0
   -2.1616    2.9946   -0.6473 C   0  0  0  0  0  0  0  0  0  0  0  0
   -2.7597    2.6862   -1.4949 H   0  0  0  0  0  0  0  0  0  0  0  0
   -0.6196    0.1253    1.7539 C   0  0  0  0  0  0  0  0  0  0  0  0
    0.5216    0.0194    2.2054 O   0  0  0  0  0  0  0  0  0  0  0  0
   -1.6152    0.6924    2.4469 N   0  0  0  0  0  0  0  0  0  0  0  0
   -2.5345    0.6914    2.0318 H   0  0  0  0  0  0  0  0  0  0  0  0
   -1.4720    1.2390    3.7941 C   0  0  0  0  0  0  0  0  0  0  0  0
   -0.6345    1.9391    3.8219 H   0  0  0  0  0  0  0  0  0  0  0  0
   -2.3844    1.7580    4.0892 H   0  0  0  0  0  0  0  0  0  0  0  0
   -1.2733    0.4298    4.4995 H   0  0  0  0  0  0  0  0  0  0  0  0
  5  6  2  0  0  0  0
  5  7  1  0  0  0  0
  2  3  1  0  0  0  0
  2  4  1  0  0  0  0
  2  5  1  0  0  0  0
  1  2  1  0  0  0  0
 25 26  2  0  0  0  0
 25 27  1  0  0  0  0
 23 24  1  0  0  0  0
 21 22  1  0  0  0  0
 21 23  2  0  0  0  0
 19 20  1  0  0  0  0
 19 21  1  0  0  0  0
 17 18  1  0  0  0  0
 17 19  2  0  0  0  0
 15 16  1  0  0  0  0
 15 17  1  0  0  0  0
 14 15  2  0  0  0  0
 14 23  1  0  0  0  0
 11 12  1  0  0  0  0
 11 13  1  0  0  0  0
 11 14  1  0  0  0  0
  9 10  1  0  0  0  0
  9 11  1  0  0  0  0
  9 25  1  0  0  0  0
  7  8  1  0  0  0  0
  7  9  1  0  0  0  0
 29 30  1  0  0  0  0
 29 31  1  0  0  0  0
 29 32  1  0  0  0  0
 27 28  1  0  0  0  0
 27 29  1  0  0  0  0
M  END
$$$$
default_name
  -OEChem-02102213163D

 32 32  0     1  0  0  0  0  0999 V2000
   -3.8405   -3.7518    1.6252 H   0  0  0  0  0  0  0  0  0  0  0  0
   -3.7965   -2.8768    0.9782 C   0  0  0  0  0  0  0  0  0  0  0  0
   -4.5465   -2.1527    1.2902 H   0  0  0  0  0  0  0  0  0  0  0  0
   -3.9745   -3.1748   -0.0538 H   0  0  0  0  0  0  0  0  0  0  0  0
   -2.4245   -2.2537    1.0882 C   0  0  0  0  0  0  0  0  0  0  0  0
   -1.5805   -2.7478    1.8242 O   0  0  0  0  0  0  0  0  0  0  0  0
   -2.2045   -1.1637    0.3562 N   0  0  0  0  0  0  0  0  0  0  0  0
   -2.9595   -0.7907   -0.2008 H   0  0  0  0  0  0  0  0  0  0  0  0
   -0.9485   -0.4087    0.3482 C   0  0  1  0  0  0  0  0  0  0  0  0
   -0.1408   -1.0795    0.0507 H   0  0  0  0  0  0  0  0  0  0  0  0
   -1.0432    0.7243   -0.6879 C   0  0  0  0  0  0  0  0  0  0  0  0
   -0.1275    0.7409   -1.2807 H   0  0  0  0  0  0  0  0  0  0  0  0
   -1.8699    0.5135   -1.3681 H   0  0  0  0  0  0  0  0  0  0  0  0
   -1.2342    2.1004   -0.0792 C   0  0  0  0  0  0  0  0  0  0  0  0
   -0.2743    2.6288    0.8048 C   0  0  0  0  0  0  0  0  0  0  0  0
    0.5954    2.0458    1.0732 H   0  0  0  0  0  0  0  0  0  0  0  0
   -0.4378    3.9226    1.3331 C   0  0  0  0  0  0  0  0  0  0  0  0
    0.2991    4.3254    2.0138 H   0  0  0  0  0  0  0  0  0  0  0  0
   -1.5595    4.6907    0.9775 C   0  0  0  0  0  0  0  0  0  0  0  0
   -1.6863    5.6838    1.3853 H   0  0  0  0  0  0  0  0  0  0  0  0
   -2.5213    4.1652    0.0956 C   0  0  0  0  0  0  0  0  0  0  0  0
   -3.3863    4.7534   -0.1737 H   0  0  0  0  0  0  0  0  0  0  0  0
   -2.3593    2.8709   -0.4297 C   0  0  0  0  0  0  0  0  0  0  0  0
   -3.1016    2.4665   -1.1055 H   0  0  0  0  0  0  0  0  0  0  0  0
   -0.6196    0.1253    1.7539 C   0  0  0  0  0  0  0  0  0  0  0  0
    0.5216    0.0194    2.2054 O   0  0  0  0  0  0  0  0  0  0  0  0
   -1.6152    0.6924    2.4469 N   0  0  0  0  0  0  0  0  0  0  0  0
   -2.5345    0.6914    2.0318 H   0  0  0  0  0  0  0  0  0  0  0  0
   -1.4720    1.2390    3.7941 C   0  0  0  0  0  0  0  0  0  0  0  0
   -0.6345    1.9391    3.8219 H   0  0  0  0  0  0  0  0  0  0  0  0
   -2.3844    1.7580    4.0892 H   0  0  0  0  0  0  0  0  0  0  0  0
   -1.2733    0.4298    4.4995 H   0  0  0  0  0  0  0  0  0  0  0  0
  5  6  2  0  0  0  0
  5  7  1  0  0  0  0
  2  3  1  0  0  0  0
  2  4  1  0  0  0  0
  2  5  1  0  0  0  0
  1  2  1  0  0  0  0
 25 26  2  0  0  0  0
 25 27  1  0  0  0  0
 23 24  1  0  0  0  0
 21 22  1  0  0  0  0
 21 23  2  0  0  0  0
 19 20  1  0  0  0  0
 19 21  1  0  0  0  0
 17 18  1  0  0  0  0
 17 19  2  0  0  0  0
 15 16  1  0  0  0  0
 15 17  1  0  0  0  0
 14 15  2  0  0  0  0
 14 23  1  0  0  0  0
 11 12  1  0  0  0  0
 11 13  1  0  0  0  0
 11 14  1  0  0  0  0
  9 10  1  0  0  0  0
  9 11  1  0  0  0  0
  9 25  1  0  0  0  0
  7  8  1  0  0  0  0
  7  9  1  0  0  0  0
 29 30  1  0  0  0  0
 29 31  1  0  0  0  0
 29 32  1  0  0  0  0
 27 28  1  0  0  0  0
 27 29  1  0  0  0  0
M  END
$$$$
default_name
  -OEChem-02102213163D

 32 32  0     1  0  0  0  0  0999 V2000
   -3.8405   -3.7518    1.6252 H   0  0  0  0  0  0  0  0  0  0  0  0
   -3.7965   -2.8768    0.9782 C   0  0  0  0  0  0  0  0  0  0  0  0
   -4.5465   -2.1527    1.2902 H   0  0  0  0  0  0  0  0  0  0  0  0
   -3.9745   -3.1748   -0.0538 H   0  0  0  0  0  0  0  0  0  0  0  0
   -2.4245   -2.2537    1.0882 C   0  0  0  0  0  0  0  0  0  0  0  0
   -1.5805   -2.7478    1.8242 O   0  0  0  0  0  0  0  0  0  0  0  0
   -2.2045   -1.1637    0.3562 N   0  0  0  0  0  0  0  0  0  0  0  0
   -2.9595   -0.7907   -0.2008 H   0  0  0  0  0  0  0  0  0  0  0  0
   -0.9485   -0.4087    0.3482 C   0  0  1  0  0  0  0  0  0  0  0  0
   -0.1408   -1.0795    0.0507 H   0  0  0  0  0  0  0  0  0  0  0  0
   -1.0432    0.7243   -0.6879 C   0  0  0  0  0  0  0  0  0  0  0  0
   -0.1275    0.7409   -1.2807 H   0  0  0  0  0  0  0  0  0  0  0  0
   -1.8699    0.5135   -1.3681 H   0  0  0  0  0  0  0  0  0  0  0  0
   -1.2342    2.1004   -0.0792 C   0  0  0  0  0  0  0  0  0  0  0  0
   -0.1574    2.7613    0.5418 C   0  0  0  0  0  0  0  0  0  0  0  0
    0.8086    2.2809    0.6086 H   0  0  0  0  0  0  0  0  0  0  0  0
   -0.3317    4.0548    1.0676 C   0  0  0  0  0  0  0  0  0  0  0  0
    0.4957    4.5594    1.5464 H   0  0  0  0  0  0  0  0  0  0  0  0
   -1.5814    4.6901    0.9720 C   0  0  0  0  0  0  0  0  0  0  0  0
   -1.7159    5.6829    1.3780 H   0  0  0  0  0  0  0  0  0  0  0  0
   -2.6599    4.0319    0.3534 C   0  0  0  0  0  0  0  0  0  0  0  0
   -3.6221    4.5180    0.2846 H   0  0  0  0  0  0  0  0  0  0  0  0
   -2.4863    2.7380   -0.1691 C   0  0  0  0  0  0  0  0  0  0  0  0
   -3.3177    2.2314   -0.6418 H   0  0  0  0  0  0  0  0  0  0  0  0
   -0.6196    0.1253    1.7539 C   0  0  0  0  0  0  0  0  0  0  0  0
    0.5216    0.0194    2.2054 O   0  0  0  0  0  0  0  0  0  0  0  0
   -1.6152    0.6924    2.4469 N   0  0  0  0  0  0  0  0  0  0  0  0
   -2.5345    0.6914    2.0318 H   0  0  0  0  0  0  0  0  0  0  0  0
   -1.4720    1.2390    3.7941 C   0  0  0  0  0  0  0  0  0  0  0  0
   -0.6345    1.9391    3.8219 H   0  0  0  0  0  0  0  0  0  0  0  0
   -2.3844    1.7580    4.0892 H   0  0  0  0  0  0  0  0  0  0  0  0
   -1.2733    0.4298    4.4995 H   0  0  0  0  0  0  0  0  0  0  0  0
  5  6  2  0  0  0  0
  5  7  1  0  0  0  0
  2  3  1  0  0  0  0
  2  4  1  0  0  0  0
  2  5  1  0  0  0  0
  1  2  1  0  0  0  0
 25 26  2  0  0  0  0
 25 27  1  0  0  0  0
 23 24  1  0  0  0  0
 21 22  1  0  0  0  0
 21 23  2  0  0  0  0
 19 20  1  0  0  0  0
 19 21  1  0  0  0  0
 17 18  1  0  0  0  0
 17 19  2  0  0  0  0
 15 16  1  0  0  0  0
 15 17  1  0  0  0  0
 14 15  2  0  0  0  0
 14 23  1  0  0  0  0
 11 12  1  0  0  0  0
 11 13  1  0  0  0  0
 11 14  1  0  0  0  0
  9 10  1  0  0  0  0
  9 11  1  0  0  0  0
  9 25  1  0  0  0  0
  7  8  1  0  0  0  0
  7  9  1  0  0  0  0
 29 30  1  0  0  0  0
 29 31  1  0  0  0  0
 29 32  1  0  0  0  0
 27 28  1  0  0  0  0
 27 29  1  0  0  0  0
M  END
$$$$
default_name
  -OEChem-02102213163D

 32 32  0     1  0  0  0  0  0999 V2000
   -3.8405   -3.7518    1.6252 H   0  0  0  0  0  0  0  0  0  0  0  0
   -3.7965   -2.8768    0.9782 C   0  0  0  0  0  0  0  0  0  0  0  0
   -4.5465   -2.1527    1.2902 H   0  0  0  0  0  0  0  0  0  0  0  0
   -3.9745   -3.1748   -0.0538 H   0  0  0  0  0  0  0  0  0  0  0  0
   -2.4245   -2.2537    1.0882 C   0  0  0  0  0  0  0  0  0  0  0  0
   -1.5805   -2.7478    1.8242 O   0  0  0  0  0  0  0  0  0  0  0  0
   -2.2045   -1.1637    0.3562 N   0  0  0  0  0  0  0  0  0  0  0  0
   -2.9595   -0.7907   -0.2008 H   0  0  0  0  0  0  0  0  0  0  0  0
   -0.9485   -0.4087    0.3482 C   0  0  1  0  0  0  0  0  0  0  0  0
   -0.1408   -1.0795    0.0507 H   0  0  0  0  0  0  0  0  0  0  0  0
   -1.0432    0.7243   -0.6879 C   0  0  0  0  0  0  0  0  0  0  0  0
   -0.1275    0.7409   -1.2807 H   0  0  0  0  0  0  0  0  0  0  0  0
   -1.8699    0.5135   -1.3681 H   0  0  0  0  0  0  0  0  0  0  0  0
   -1.2342    2.1004   -0.0792 C   0  0  0  0  0  0  0  0  0  0  0  0
   -0.1200    2.8930    0.2560 C   0  0  0  0  0  0  0  0  0  0  0  0
    0.8809    2.5150    0.1022 H   0  0  0  0  0  0  0  0  0  0  0  0
   -0.3053    4.1848    0.7820 C   0  0  0  0  0  0  0  0  0  0  0  0
    0.5516    4.7907    1.0411 H   0  0  0  0  0  0  0  0  0  0  0  0
   -1.6038    4.6871    0.9718 C   0  0  0  0  0  0  0  0  0  0  0  0
   -1.7462    5.6787    1.3781 H   0  0  0  0  0  0  0  0  0  0  0  0
   -2.7194    3.8972    0.6393 C   0  0  0  0  0  0  0  0  0  0  0  0
   -3.7177    4.2810    0.7902 H   0  0  0  0  0  0  0  0  0  0  0  0
   -2.5339    2.6049    0.1168 C   0  0  0  0  0  0  0  0  0  0  0  0
   -3.3930    1.9970   -0.1355 H   0  0  0  0  0  0  0  0  0  0  0  0
   -0.6196    0.1253    1.7539 C   0  0  0  0  0  0  0  0  0  0  0  0
    0.5216    0.0194    2.2054 O   0  0  0  0  0  0  0  0  0  0  0  0
   -1.6152    0.6924    2.4469 N   0  0  0  0  0  0  0  0  0  0  0  0
   -2.5345    0.6914    2.0318 H   0  0  0  0  0  0  0  0  0  0  0  0
   -1.4720    1.2390    3.7941 C   0  0  0  0  0  0  0  0  0  0  0  0
   -0.6345    1.9391    3.8219 H   0  0  0  0  0  0  0  0  0  0  0  0
   -2.3844    1.7580    4.0892 H   0  0  0  0  0  0  0  0  0  0  0  0
   -1.2733    0.4298    4.4995 H   0  0  0  0  0  0  0  0  0  0  0  0
  5  6  2  0  0  0  0
  5  7  1  0  0  0  0
  2  3  1  0  0  0  0
  2  4  1  0  0  0  0
  2  5  1  0  0  0  0
  1  2  1  0  0  0  0
 25 26  2  0  0  0  0
 25 27  1  0  0  0  0
 23 24  1  0  0  0  0
 21 22  1  0  0  0  0
 21 23  2  0  0  0  0
 19 20  1  0  0  0  0
 19 21  1  0  0  0  0
 17 18  1  0  0  0  0
 17 19  2  0  0  0  0
 15 16  1  0  0  0  0
 15 17  1  0  0  0  0
 14 15  2  0  0  0  0
 14 23  1  0  0  0  0
 11 12  1  0  0  0  0
 11 13  1  0  0  0  0
 11 14  1  0  0  0  0
  9 10  1  0  0  0  0
  9 11  1  0  0  0  0
  9 25  1  0  0  0  0
  7  8  1  0  0  0  0
  7  9  1  0  0  0  0
 29 30  1  0  0  0  0
 29 31  1  0  0  0  0
 29 32  1  0  0  0  0
 27 28  1  0  0  0  0
 27 29  1  0  0  0  0
M  END
$$$$
default_name
  -OEChem-02102213163D

 32 32  0     1  0  0  0  0  0999 V2000
   -3.8405   -3.7518    1.6252 H   0  0  0  0  0  0  0  0  0  0  0  0
   -3.7965   -2.8768    0.9782 C   0  0  0  0  0  0  0  0  0  0  0  0
   -4.5465   -2.1527    1.2902 H   0  0  0  0  0  0  0  0  0  0  0  0
   -3.9745   -3.1748   -0.0538 H   0  0  0  0  0  0  0  0  0  0  0  0
   -2.4245   -2.2537    1.0882 C   0  0  0  0  0  0  0  0  0  0  0  0
   -1.5805   -2.7478    1.8242 O   0  0  0  0  0  0  0  0  0  0  0  0
   -2.2045   -1.1637    0.3562 N   0  0  0  0  0  0  0  0  0  0  0  0
   -2.9595   -0.7907   -0.2008 H   0  0  0  0  0  0  0  0  0  0  0  0
   -0.9485   -0.4087    0.3482 C   0  0  1  0  0  0  0  0  0  0  0  0
   -0.1408   -1.0795    0.0507 H   0  0  0  0  0  0  0  0  0  0  0  0
   -1.0432    0.7243   -0.6879 C   0  0  0  0  0  0  0  0  0  0  0  0
   -0.1275    0.7409   -1.2807 H   0  0  0  0  0  0  0  0  0  0  0  0
   -1.8699    0.5135   -1.3681 H   0  0  0  0  0  0  0  0  0  0  0  0
   -1.2342    2.1004   -0.0792 C   0  0  0  0  0  0  0  0  0  0  0  0
   -0.1646    3.0147   -0.0331 C   0  0  0  0  0  0  0  0  0  0  0  0
    0.8076    2.7321   -0.4117 H   0  0  0  0  0  0  0  0  0  0  0  0
   -0.3603    4.3039    0.4956 C   0  0  0  0  0  0  0  0  0  0  0  0
    0.4630    5.0034    0.5324 H   0  0  0  0  0  0  0  0  0  0  0  0
   -1.6252    4.6818    0.9770 C   0  0  0  0  0  0  0  0  0  0  0  0
   -1.7749    5.6715    1.3853 H   0  0  0  0  0  0  0  0  0  0  0  0
   -2.6958    3.7702    0.9338 C   0  0  0  0  0  0  0  0  0  0  0  0
   -3.6668    4.0587    1.3088 H   0  0  0  0  0  0  0  0  0  0  0  0
   -2.4990    2.4807    0.4084 C   0  0  0  0  0  0  0  0  0  0  0  0
   -3.3226    1.7792    0.3788 H   0  0  0  0  0  0  0  0  0  0  0  0
   -0.6196    0.1253    1.7539 C   0  0  0  0  0  0  0  0  0  0  0  0
    0.5216    0.0194    2.2054 O   0  0  0  0  0  0  0  0  0  0  0  0
   -1.6152    0.6924    2.4469 N   0  0  0  0  0  0  0  0  0  0  0  0
   -2.5345    0.6914    2.0318 H   0  0  0  0  0  0  0  0  0  0  0  0
   -1.4720    1.2390    3.7941 C   0  0  0  0  0  0  0  0  0  0  0  0
   -0.6345    1.9391    3.8219 H   0  0  0  0  0  0  0  0  0  0  0  0
   -2.3844    1.7580    4.0892 H   0  0  0  0  0  0  0  0  0  0  0  0
   -1.2733    0.4298    4.4995 H   0  0  0  0  0  0  0  0  0  0  0  0
  5  6  2  0  0  0  0
  5  7  1  0  0  0  0
  2  3  1  0  0  0  0
  2  4  1  0  0  0  0
  2  5  1  0  0  0  0
  1  2  1  0  0  0  0
 25 26  2  0  0  0  0
 25 27  1  0  0  0  0
 23 24  1  0  0  0  0
 21 22  1  0  0  0  0
 21 23  2  0  0  0  0
 19 20  1  0  0  0  0
 19 21  1  0  0  0  0
 17 18  1  0  0  0  0
 17 19  2  0  0  0  0
 15 16  1  0  0  0  0
 15 17  1  0  0  0  0
 14 15  2  0  0  0  0
 14 23  1  0  0  0  0
 11 12  1  0  0  0  0
 11 13  1  0  0  0  0
 11 14  1  0  0  0  0
  9 10  1  0  0  0  0
  9 11  1  0  0  0  0
  9 25  1  0  0  0  0
  7  8  1  0  0  0  0
  7  9  1  0  0  0  0
 29 30  1  0  0  0  0
 29 31  1  0  0  0  0
 29 32  1  0  0  0  0
 27 28  1  0  0  0  0
 27 29  1  0  0  0  0
M  END
$$$$
default_name
  -OEChem-02102213163D

 32 32  0     1  0  0  0  0  0999 V2000
   -3.8405   -3.7518    1.6252 H   0  0  0  0  0  0  0  0  0  0  0  0
   -3.7965   -2.8768    0.9782 C   0  0  0  0  0  0  0  0  0  0  0  0
   -4.5465   -2.1527    1.2902 H   0  0  0  0  0  0  0  0  0  0  0  0
   -3.9745   -3.1748   -0.0538 H   0  0  0  0  0  0  0  0  0  0  0  0
   -2.4245   -2.2537    1.0882 C   0  0  0  0  0  0  0  0  0  0  0  0
   -1.5805   -2.7478    1.8242 O   0  0  0  0  0  0  0  0  0  0  0  0
   -2.2045   -1.1637    0.3562 N   0  0  0  0  0  0  0  0  0  0  0  0
   -2.9595   -0.7907   -0.2008 H   0  0  0  0  0  0  0  0  0  0  0  0
   -0.9485   -0.4087    0.3482 C   0  0  1  0  0  0  0  0  0  0  0  0
   -0.1408   -1.0795    0.0507 H   0  0  0  0  0  0  0  0  0  0  0  0
   -1.0432    0.7243   -0.6879 C   0  0  0  0  0  0  0  0  0  0  0  0
   -0.1275    0.7409   -1.2807 H   0  0  0  0  0  0  0  0  0  0  0  0
   -1.8699    0.5135   -1.3681 H   0  0  0  0  0  0  0  0  0  0  0  0
   -1.2342    2.1004   -0.0792 C   0  0  0  0  0  0  0  0  0  0  0  0
   -0.2882    3.1182   -0.3058 C   0  0  0  0  0  0  0  0  0  0  0  0
    0.5936    2.9175   -0.8979 H   0  0  0  0  0  0  0  0  0  0  0  0
   -0.4931    4.4038    0.2280 C   0  0  0  0  0  0  0  0  0  0  0  0
    0.2358    5.1831    0.0549 H   0  0  0  0  0  0  0  0  0  0  0  0
   -1.6441    4.6747    0.9872 C   0  0  0  0  0  0  0  0  0  0  0  0
   -1.8003    5.6618    1.3993 H   0  0  0  0  0  0  0  0  0  0  0  0
   -2.5906    3.6596    1.2168 C   0  0  0  0  0  0  0  0  0  0  0  0
   -3.4727    3.8661    1.8050 H   0  0  0  0  0  0  0  0  0  0  0  0
   -2.3839    2.3739    0.6860 C   0  0  0  0  0  0  0  0  0  0  0  0
   -3.1112    1.5930    0.8662 H   0  0  0  0  0  0  0  0  0  0  0  0
   -0.6196    0.1253    1.7539 C   0  0  0  0  0  0  0  0  0  0  0  0
    0.5216    0.0194    2.2054 O   0  0  0  0  0  0  0  0  0  0  0  0
   -1.6152    0.6924    2.4469 N   0  0  0  0  0  0  0  0  0  0  0  0
   -2.5345    0.6914    2.0318 H   0  0  0  0  0  0  0  0  0  0  0  0
   -1.4720    1.2390    3.7941 C   0  0  0  0  0  0  0  0  0  0  0  0
   -0.6345    1.9391    3.8219 H   0  0  0  0  0  0  0  0  0  0  0  0
   -2.3844    1.7580    4.0892 H   0  0  0  0  0  0  0  0  0  0  0  0
   -1.2733    0.4298    4.4995 H   0  0  0  0  0  0  0  0  0  0  0  0
  5  6  2  0  0  0  0
  5  7  1  0  0  0  0
  2  3  1  0  0  0  0
  2  4  1  0  0  0  0
  2  5  1  0  0  0  0
  1  2  1  0  0  0  0
 25 26  2  0  0  0  0
 25 27  1  0  0  0  0
 23 24  1  0  0  0  0
 21 22  1  0  0  0  0
 21 23  2  0  0  0  0
 19 20  1  0  0  0  0
 19 21  1  0  0  0  0
 17 18  1  0  0  0  0
 17 19  2  0  0  0  0
 15 16  1  0  0  0  0
 15 17  1  0  0  0  0
 14 15  2  0  0  0  0
 14 23  1  0  0  0  0
 11 12  1  0  0  0  0
 11 13  1  0  0  0  0
 11 14  1  0  0  0  0
  9 10  1  0  0  0  0
  9 11  1  0  0  0  0
  9 25  1  0  0  0  0
  7  8  1  0  0  0  0
  7  9  1  0  0  0  0
 29 30  1  0  0  0  0
 29 31  1  0  0  0  0
 29 32  1  0  0  0  0
 27 28  1  0  0  0  0
 27 29  1  0  0  0  0
M  END
$$$$
default_name
  -OEChem-02102213163D

 32 32  0     1  0  0  0  0  0999 V2000
   -3.8405   -3.7518    1.6252 H   0  0  0  0  0  0  0  0  0  0  0  0
   -3.7965   -2.8768    0.9782 C   0  0  0  0  0  0  0  0  0  0  0  0
   -4.5465   -2.1527    1.2902 H   0  0  0  0  0  0  0  0  0  0  0  0
   -3.9745   -3.1748   -0.0538 H   0  0  0  0  0  0  0  0  0  0  0  0
   -2.4245   -2.2537    1.0882 C   0  0  0  0  0  0  0  0  0  0  0  0
   -1.5805   -2.7478    1.8242 O   0  0  0  0  0  0  0  0  0  0  0  0
   -2.2045   -1.1637    0.3562 N   0  0  0  0  0  0  0  0  0  0  0  0
   -2.9595   -0.7907   -0.2008 H   0  0  0  0  0  0  0  0  0  0  0  0
   -0.9485   -0.4087    0.3482 C   0  0  1  0  0  0  0  0  0  0  0  0
   -0.1408   -1.0795    0.0507 H   0  0  0  0  0  0  0  0  0  0  0  0
   -1.0432    0.7243   -0.6879 C   0  0  0  0  0  0  0  0  0  0  0  0
   -0.1275    0.7409   -1.2807 H   0  0  0  0  0  0  0  0  0  0  0  0
   -1.8699    0.5135   -1.3681 H   0  0  0  0  0  0  0  0  0  0  0  0
   -1.2342    2.1004   -0.0792 C   0  0  0  0  0  0  0  0  0  0  0  0
   -0.4824    3.1964   -0.5436 C   0  0  0  0  0  0  0  0  0  0  0  0
    0.2534    3.0585   -1.3233 H   0  0  0  0  0  0  0  0  0  0  0  0
   -0.6945    4.4779   -0.0026 C   0  0  0  0  0  0  0  0  0  0  0  0
   -0.1144    5.3175   -0.3588 H   0  0  0  0  0  0  0  0  0  0  0  0
   -1.6592    4.6662    1.0017 C   0  0  0  0  0  0  0  0  0  0  0  0
   -1.8204    5.6503    1.4191 H   0  0  0  0  0  0  0  0  0  0  0  0
   -2.4110    3.5729    1.4692 C   0  0  0  0  0  0  0  0  0  0  0  0
   -3.1487    3.7165    2.2450 H   0  0  0  0  0  0  0  0  0  0  0  0
   -2.1965    2.2918    0.9306 C   0  0  0  0  0  0  0  0  0  0  0  0
   -2.7732    1.4509    1.2934 H   0  0  0  0  0  0  0  0  0  0  0  0
   -0.6196    0.1253    1.7539 C   0  0  0  0  0  0  0  0  0  0  0  0
    0.5216    0.0194    2.2054 O   0  0  0  0  0  0  0  0  0  0  0  0
   -1.6152    0.6924    2.4469 N   0  0  0  0  0  0  0  0  0  0  0  0
   -2.5345    0.6914    2.0318 H   0  0  0  0  0  0  0  0  0  0  0  0
   -1.4720    1.2390    3.7941 C   0  0  0  0  0  0  0  0  0  0  0  0
   -0.6345    1.9391    3.8219 H   0  0  0  0  0  0  0  0  0  0  0  0
   -2.3844    1.7580    4.0892 H   0  0  0  0  0  0  0  0  0  0  0  0
   -1.2733    0.4298    4.4995 H   0  0  0  0  0  0  0  0  0  0  0  0
  5  6  2  0  0  0  0
  5  7  1  0  0  0  0
  2  3  1  0  0  0  0
  2  4  1  0  0  0  0
  2  5  1  0  0  0  0
  1  2  1  0  0  0  0
 25 26  2  0  0  0  0
 25 27  1  0  0  0  0
 23 24  1  0  0  0  0
 21 22  1  0  0  0  0
 21 23  2  0  0  0  0
 19 20  1  0  0  0  0
 19 21  1  0  0  0  0
 17 18  1  0  0  0  0
 17 19  2  0  0  0  0
 15 16  1  0  0  0  0
 15 17  1  0  0  0  0
 14 15  2  0  0  0  0
 14 23  1  0  0  0  0
 11 12  1  0  0  0  0
 11 13  1  0  0  0  0
 11 14  1  0  0  0  0
  9 10  1  0  0  0  0
  9 11  1  0  0  0  0
  9 25  1  0  0  0  0
  7  8  1  0  0  0  0
  7  9  1  0  0  0  0
 29 30  1  0  0  0  0
 29 31  1  0  0  0  0
 29 32  1  0  0  0  0
 27 28  1  0  0  0  0
 27 29  1  0  0  0  0
M  END
$$$$
default_name
  -OEChem-02102213163D

 32 32  0     1  0  0  0  0  0999 V2000
   -3.8405   -3.7518    1.6252 H   0  0  0  0  0  0  0  0  0  0  0  0
   -3.7965   -2.8768    0.9782 C   0  0  0  0  0  0  0  0  0  0  0  0
   -4.5465   -2.1527    1.2902 H   0  0  0  0  0  0  0  0  0  0  0  0
   -3.9745   -3.1748   -0.0538 H   0  0  0  0  0  0  0  0  0  0  0  0
   -2.4245   -2.2537    1.0882 C   0  0  0  0  0  0  0  0  0  0  0  0
   -1.5805   -2.7478    1.8242 O   0  0  0  0  0  0  0  0  0  0  0  0
   -2.2045   -1.1637    0.3562 N   0  0  0  0  0  0  0  0  0  0  0  0
   -2.9595   -0.7907   -0.2008 H   0  0  0  0  0  0  0  0  0  0  0  0
   -0.9485   -0.4087    0.3482 C   0  0  1  0  0  0  0  0  0  0  0  0
   -0.1408   -1.0795    0.0507 H   0  0  0  0  0  0  0  0  0  0  0  0
   -1.0432    0.7243   -0.6879 C   0  0  0  0  0  0  0  0  0  0  0  0
   -0.1275    0.7409   -1.2807 H   0  0  0  0  0  0  0  0  0  0  0  0
   -1.8699    0.5135   -1.3681 H   0  0  0  0  0  0  0  0  0  0  0  0
   -1.2342    2.1004   -0.0792 C   0  0  0  0  0  0  0  0  0  0  0  0
   -0.7340    3.2441   -0.7303 C   0  0  0  0  0  0  0  0  0  0  0  0
   -0.1897    3.1455   -1.6589 H   0  0  0  0  0  0  0  0  0  0  0  0
   -0.9510    4.5209   -0.1804 C   0  0  0  0  0  0  0  0  0  0  0  0
   -0.5638    5.3975   -0.6806 H   0  0  0  0  0  0  0  0  0  0  0  0
   -1.6695    4.6568    1.0196 C   0  0  0  0  0  0  0  0  0  0  0  0
   -1.8341    5.6377    1.4433 H   0  0  0  0  0  0  0  0  0  0  0  0
   -2.1693    3.5160    1.6736 C   0  0  0  0  0  0  0  0  0  0  0  0
   -2.7169    3.6199    2.5988 H   0  0  0  0  0  0  0  0  0  0  0  0
   -1.9495    2.2398    1.1255 C   0  0  0  0  0  0  0  0  0  0  0  0
   -2.3317    1.3627    1.6313 H   0  0  0  0  0  0  0  0  0  0  0  0
   -0.6196    0.1253    1.7539 C   0  0  0  0  0  0  0  0  0  0  0  0
    0.5216    0.0194    2.2054 O   0  0  0  0  0  0  0  0  0  0  0  0
   -1.6152    0.6924    2.4469 N   0  0  0  0  0  0  0  0  0  0  0  0
   -2.5345    0.6914    2.0318 H   0  0  0  0  0  0  0  0  0  0  0  0
   -1.4720    1.2390    3.7941 C   0  0  0  0  0  0  0  0  0  0  0  0
   -0.6345    1.9391    3.8219 H   0  0  0  0  0  0  0  0  0  0  0  0
   -2.3844    1.7580    4.0892 H   0  0  0  0  0  0  0  0  0  0  0  0
   -1.2733    0.4298    4.4995 H   0  0  0  0  0  0  0  0  0  0  0  0
  5  6  2  0  0  0  0
  5  7  1  0  0  0  0
  2  3  1  0  0  0  0
  2  4  1  0  0  0  0
  2  5  1  0  0  0  0
  1  2  1  0  0  0  0
 25 26  2  0  0  0  0
 25 27  1  0  0  0  0
 23 24  1  0  0  0  0
 21 22  1  0  0  0  0
 21 23  2  0  0  0  0
 19 20  1  0  0  0  0
 19 21  1  0  0  0  0
 17 18  1  0  0  0  0
 17 19  2  0  0  0  0
 15 16  1  0  0  0  0
 15 17  1  0  0  0  0
 14 15  2  0  0  0  0
 14 23  1  0  0  0  0
 11 12  1  0  0  0  0
 11 13  1  0  0  0  0
 11 14  1  0  0  0  0
  9 10  1  0  0  0  0
  9 11  1  0  0  0  0
  9 25  1  0  0  0  0
  7  8  1  0  0  0  0
  7  9  1  0  0  0  0
 29 30  1  0  0  0  0
 29 31  1  0  0  0  0
 29 32  1  0  0  0  0
 27 28  1  0  0  0  0
 27 29  1  0  0  0  0
M  END
$$$$
default_name
  -OEChem-02102213163D

 32 32  0     1  0  0  0  0  0999 V2000
   -3.8405   -3.7518    1.6252 H   0  0  0  0  0  0  0  0  0  0  0  0
   -3.7965   -2.8768    0.9782 C   0  0  0  0  0  0  0  0  0  0  0  0
   -4.5465   -2.1527    1.2902 H   0  0  0  0  0  0  0  0  0  0  0  0
   -3.9745   -3.1748   -0.0538 H   0  0  0  0  0  0  0  0  0  0  0  0
   -2.4245   -2.2537    1.0882 C   0  0  0  0  0  0  0  0  0  0  0  0
   -1.5805   -2.7478    1.8242 O   0  0  0  0  0  0  0  0  0  0  0  0
   -2.2045   -1.1637    0.3562 N   0  0  0  0  0  0  0  0  0  0  0  0
   -2.9595   -0.7907   -0.2008 H   0  0  0  0  0  0  0  0  0  0  0  0
   -0.9485   -0.4087    0.3482 C   0  0  1  0  0  0  0  0  0  0  0  0
   -0.1408   -1.0795    0.0507 H   0  0  0  0  0  0  0  0  0  0  0  0
   -1.0432    0.7243   -0.6879 C   0  0  0  0  0  0  0  0  0  0  0  0
   -0.1275    0.7409   -1.2807 H   0  0  0  0  0  0  0  0  0  0  0  0
   -1.8699    0.5135   -1.3681 H   0  0  0  0  0  0  0  0  0  0  0  0
   -1.2342    2.1004   -0.0792 C   0  0  0  0  0  0  0  0  0  0  0  0
   -1.0258    3.2579   -0.8531 C   0  0  0  0  0  0  0  0  0  0  0  0
   -0.7055    3.1725   -1.8819 H   0  0  0  0  0  0  0  0  0  0  0  0
   -1.2449    4.5301   -0.2933 C   0  0  0  0  0  0  0  0  0  0  0  0
   -1.0818    5.4176   -0.8885 H   0  0  0  0  0  0  0  0  0  0  0  0
   -1.6742    4.6473    1.0396 C   0  0  0  0  0  0  0  0  0  0  0  0
   -1.8403    5.6249    1.4703 H   0  0  0  0  0  0  0  0  0  0  0  0
   -1.8819    3.4928    1.8161 C   0  0  0  0  0  0  0  0  0  0  0  0
   -2.2067    3.5829    2.8423 H   0  0  0  0  0  0  0  0  0  0  0  0
   -1.6597    2.2217    1.2574 C   0  0  0  0  0  0  0  0  0  0  0  0
   -1.8167    1.3344    1.8569 H   0  0  0  0  0  0  0  0  0  0  0  0
   -0.6196    0.1253    1.7539 C   0  0  0  0  0  0  0  0  0  0  0  0
    0.5216    0.0194    2.2054 O   0  0  0  0  0  0  0  0  0  0  0  0
   -1.6152    0.6924    2.4469 N   0  0  0  0  0  0  0  0  0  0  0  0
   -2.5345    0.6914    2.0318 H   0  0  0  0  0  0  0  0  0  0  0  0
   -1.4720    1.2390    3.7941 C   0  0  0  0  0  0  0  0  0  0  0  0
   -0.6345    1.9391    3.8219 H   0  0  0  0  0  0  0  0  0  0  0  0
   -2.3844    1.7580    4.0892 H   0  0  0  0  0  0  0  0  0  0  0  0
   -1.2733    0.4298    4.4995 H   0  0  0  0  0  0  0  0  0  0  0  0
  5  6  2  0  0  0  0
  5  7  1  0  0  0  0
  2  3  1  0  0  0  0
  2  4  1  0  0  0  0
  2  5  1  0  0  0  0
  1  2  1  0  0  0  0
 25 26  2  0  0  0  0
 25 27  1  0  0  0  0
 23 24  1  0  0  0  0
 21 22  1  0  0  0  0
 21 23  2  0  0  0  0
 19 20  1  0  0  0  0
 19 21  1  0  0  0  0
 17 18  1  0  0  0  0
 17 19  2  0  0  0  0
 15 16  1  0  0  0  0
 15 17  1  0  0  0  0
 14 15  2  0  0  0  0
 14 23  1  0  0  0  0
 11 12  1  0  0  0  0
 11 13  1  0  0  0  0
 11 14  1  0  0  0  0
  9 10  1  0  0  0  0
  9 11  1  0  0  0  0
  9 25  1  0  0  0  0
  7  8  1  0  0  0  0
  7  9  1  0  0  0  0
 29 30  1  0  0  0  0
 29 31  1  0  0  0  0
 29 32  1  0  0  0  0
 27 28  1  0  0  0  0
 27 29  1  0  0  0  0
M  END
$$$$
default_name
  -OEChem-02102213163D

 32 32  0     1  0  0  0  0  0999 V2000
   -3.8405   -3.7518    1.6252 H   0  0  0  0  0  0  0  0  0  0  0  0
   -3.7965   -2.8768    0.9782 C   0  0  0  0  0  0  0  0  0  0  0  0
   -4.5465   -2.1527    1.2902 H   0  0  0  0  0  0  0  0  0  0  0  0
   -3.9745   -3.1748   -0.0538 H   0  0  0  0  0  0  0  0  0  0  0  0
   -2.4245   -2.2537    1.0882 C   0  0  0  0  0  0  0  0  0  0  0  0
   -1.5805   -2.7478    1.8242 O   0  0  0  0  0  0  0  0  0  0  0  0
   -2.2045   -1.1637    0.3562 N   0  0  0  0  0  0  0  0  0  0  0  0
   -2.9595   -0.7907   -0.2008 H   0  0  0  0  0  0  0  0  0  0  0  0
   -0.9485   -0.4087    0.3482 C   0  0  1  0  0  0  0  0  0  0  0  0
   -0.1408   -1.0795    0.0507 H   0  0  0  0  0  0  0  0  0  0  0  0
   -1.0432    0.7243   -0.6879 C   0  0  0  0  0  0  0  0  0  0  0  0
   -0.2696    0.5802   -1.4435 H   0  0  0  0  0  0  0  0  0  0  0  0
   -2.0088    0.6629   -1.1921 H   0  0  0  0  0  0  0  0  0  0  0  0
   -0.8730    2.1120   -0.0996 C   0  0  0  0  0  0  0  0  0  0  0  0
   -0.9351    3.2498   -0.9263 C   0  0  0  0  0  0  0  0  0  0  0  0
   -1.0822    3.1394   -1.9914 H   0  0  0  0  0  0  0  0  0  0  0  0
   -0.8176    4.5357   -0.3673 C   0  0  0  0  0  0  0  0  0  0  0  0
   -0.8630    5.4079   -1.0043 H   0  0  0  0  0  0  0  0  0  0  0  0
   -0.6397    4.6864    1.0184 C   0  0  0  0  0  0  0  0  0  0  0  0
   -0.5471    5.6743    1.4475 H   0  0  0  0  0  0  0  0  0  0  0  0
   -0.5757    3.5515    1.8472 C   0  0  0  0  0  0  0  0  0  0  0  0
   -0.4335    3.6669    2.9117 H   0  0  0  0  0  0  0  0  0  0  0  0
   -0.6899    2.2664    1.2879 C   0  0  0  0  0  0  0  0  0  0  0  0
   -0.6371    1.3939    1.9261 H   0  0  0  0  0  0  0  0  0  0  0  0
   -0.6196    0.1253    1.7539 C   0  0  0  0  0  0  0  0  0  0  0  0
    0.5216    0.0194    2.2054 O   0  0  0  0  0  0  0  0  0  0  0  0
   -1.6152    0.6924    2.4469 N   0  0  0  0  0  0  0  0  0  0  0  0
   -2.5345    0.6914    2.0318 H   0  0  0  0  0  0  0  0  0  0  0  0
   -1.4720    1.2390    3.7941 C   0  0  0  0  0  0  0  0  0  0  0  0
   -0.6345    1.9391    3.8219 H   0  0  0  0  0  0  0  0  0  0  0  0
   -2.3844    1.7580    4.0892 H   0  0  0  0  0  0  0  0  0  0  0  0
   -1.2733    0.4298    4.4995 H   0  0  0  0  0  0  0  0  0  0  0  0
  5  6  2  0  0  0  0
  5  7  1  0  0  0  0
  2  3  1  0  0  0  0
  2  4  1  0  0  0  0
  2  5  1  0  0  0  0
  1  2  1  0  0  0  0
 25 26  2  0  0  0  0
 25 27  1  0  0  0  0
 23 24  1  0  0  0  0
 21 22  1  0  0  0  0
 21 23  2  0  0  0  0
 19 20  1  0  0  0  0
 19 21  1  0  0  0  0
 17 18  1  0  0  0  0
 17 19  2  0  0  0  0
 15 16  1  0  0  0  0
 15 17  1  0  0  0  0
 14 15  2  0  0  0  0
 14 23  1  0  0  0  0
 11 12  1  0  0  0  0
 11 13  1  0  0  0  0
 11 14  1  0  0  0  0
  9 10  1  0  0  0  0
  9 11  1  0  0  0  0
  9 25  1  0  0  0  0
  7  8  1  0  0  0  0
  7  9  1  0  0  0  0
 29 30  1  0  0  0  0
 29 31  1  0  0  0  0
 29 32  1  0  0  0  0
 27 28  1  0  0  0  0
 27 29  1  0  0  0  0
M  END
$$$$
default_name
  -OEChem-02102213163D

 32 32  0     1  0  0  0  0  0999 V2000
   -3.8405   -3.7518    1.6252 H   0  0  0  0  0  0  0  0  0  0  0  0
   -3.7965   -2.8768    0.9782 C   0  0  0  0  0  0  0  0  0  0  0  0
   -4.5465   -2.1527    1.2902 H   0  0  0  0  0  0  0  0  0  0  0  0
   -3.9745   -3.1748   -0.0538 H   0  0  0  0  0  0  0  0  0  0  0  0
   -2.4245   -2.2537    1.0882 C   0  0  0  0  0  0  0  0  0  0  0  0
   -1.5805   -2.7478    1.8242 O   0  0  0  0  0  0  0  0  0  0  0  0
   -2.2045   -1.1637    0.3562 N   0  0  0  0  0  0  0  0  0  0  0  0
   -2.9595   -0.7907   -0.2008 H   0  0  0  0  0  0  0  0  0  0  0  0
   -0.9485   -0.4087    0.3482 C   0  0  1  0  0  0  0  0  0  0  0  0
   -0.1408   -1.0795    0.0507 H   0  0  0  0  0  0  0  0  0  0  0  0
   -1.0432    0.7243   -0.6879 C   0  0  0  0  0  0  0  0  0  0  0  0
   -0.2696    0.5802   -1.4435 H   0  0  0  0  0  0  0  0  0  0  0  0
   -2.0088    0.6629   -1.1921 H   0  0  0  0  0  0  0  0  0  0  0  0
   -0.8730    2.1120   -0.0996 C   0  0  0  0  0  0  0  0  0  0  0  0
   -1.2403    3.2510   -0.8410 C   0  0  0  0  0  0  0  0  0  0  0  0
   -1.6255    3.1440   -1.8452 H   0  0  0  0  0  0  0  0  0  0  0  0
   -1.1181    4.5325   -0.2729 C   0  0  0  0  0  0  0  0  0  0  0  0
   -1.3983    5.4060   -0.8448 H   0  0  0  0  0  0  0  0  0  0  0  0
   -0.6306    4.6774    1.0371 C   0  0  0  0  0  0  0  0  0  0  0  0
   -0.5346    5.6621    1.4726 H   0  0  0  0  0  0  0  0  0  0  0  0
   -0.2613    3.5414    1.7801 C   0  0  0  0  0  0  0  0  0  0  0  0
    0.1185    3.6529    2.7851 H   0  0  0  0  0  0  0  0  0  0  0  0
   -0.3804    2.2610    1.2110 C   0  0  0  0  0  0  0  0  0  0  0  0
   -0.0928    1.3881    1.7824 H   0  0  0  0  0  0  0  0  0  0  0  0
   -0.6196    0.1253    1.7539 C   0  0  0  0  0  0  0  0  0  0  0  0
    0.5216    0.0194    2.2054 O   0  0  0  0  0  0  0  0  0  0  0  0
   -1.6152    0.6924    2.4469 N   0  0  0  0  0  0  0  0  0  0  0  0
   -2.5345    0.6914    2.0318 H   0  0  0  0  0  0  0  0  0  0  0  0
   -1.4720    1.2390    3.7941 C   0  0  0  0  0  0  0  0  0  0  0  0
   -0.6345    1.9391    3.8219 H   0  0  0  0  0  0  0  0  0  0  0  0
   -2.3844    1.7580    4.0892 H   0  0  0  0  0  0  0  0  0  0  0  0
   -1.2733    0.4298    4.4995 H   0  0  0  0  0  0  0  0  0  0  0  0
  5  6  2  0  0  0  0
  5  7  1  0  0  0  0
  2  3  1  0  0  0  0
  2  4  1  0  0  0  0
  2  5  1  0  0  0  0
  1  2  1  0  0  0  0
 25 26  2  0  0  0  0
 25 27  1  0  0  0  0
 23 24  1  0  0  0  0
 21 22  1  0  0  0  0
 21 23  2  0  0  0  0
 19 20  1  0  0  0  0
 19 21  1  0  0  0  0
 17 18  1  0  0  0  0
 17 19  2  0  0  0  0
 15 16  1  0  0  0  0
 15 17  1  0  0  0  0
 14 15  2  0  0  0  0
 14 23  1  0  0  0  0
 11 12  1  0  0  0  0
 11 13  1  0  0  0  0
 11 14  1  0  0  0  0
  9 10  1  0  0  0  0
  9 11  1  0  0  0  0
  9 25  1  0  0  0  0
  7  8  1  0  0  0  0
  7  9  1  0  0  0  0
 29 30  1  0  0  0  0
 29 31  1  0  0  0  0
 29 32  1  0  0  0  0
 27 28  1  0  0  0  0
 27 29  1  0  0  0  0
M  END
$$$$
default_name
  -OEChem-02102213163D

 32 32  0     1  0  0  0  0  0999 V2000
   -3.8405   -3.7518    1.6252 H   0  0  0  0  0  0  0  0  0  0  0  0
   -3.7965   -2.8768    0.9782 C   0  0  0  0  0  0  0  0  0  0  0  0
   -4.5465   -2.1527    1.2902 H   0  0  0  0  0  0  0  0  0  0  0  0
   -3.9745   -3.1748   -0.0538 H   0  0  0  0  0  0  0  0  0  0  0  0
   -2.4245   -2.2537    1.0882 C   0  0  0  0  0  0  0  0  0  0  0  0
   -1.5805   -2.7478    1.8242 O   0  0  0  0  0  0  0  0  0  0  0  0
   -2.2045   -1.1637    0.3562 N   0  0  0  0  0  0  0  0  0  0  0  0
   -2.9595   -0.7907   -0.2008 H   0  0  0  0  0  0  0  0  0  0  0  0
   -0.9485   -0.4087    0.3482 C   0  0  1  0  0  0  0  0  0  0  0  0
   -0.1408   -1.0795    0.0507 H   0  0  0  0  0  0  0  0  0  0  0  0
   -1.0432    0.7243   -0.6879 C   0  0  0  0  0  0  0  0  0  0  0  0
   -0.2696    0.5802   -1.4435 H   0  0  0  0  0  0  0  0  0  0  0  0
   -2.0088    0.6629   -1.1921 H   0  0  0  0  0  0  0  0  0  0  0  0
   -0.8730    2.1120   -0.0996 C   0  0  0  0  0  0  0  0  0  0  0  0
   -1.5149    3.2191   -0.6862 C   0  0  0  0  0  0  0  0  0  0  0  0
   -2.1161    3.0897   -1.5751 H   0  0  0  0  0  0  0  0  0  0  0  0
   -1.3857    4.4966   -0.1106 C   0  0  0  0  0  0  0  0  0  0  0  0
   -1.8773    5.3457   -0.5642 H   0  0  0  0  0  0  0  0  0  0  0  0
   -0.6165    4.6690    1.0527 C   0  0  0  0  0  0  0  0  0  0  0  0
   -0.5154    5.6509    1.4935 H   0  0  0  0  0  0  0  0  0  0  0  0
    0.0275    3.5651    1.6406 C   0  0  0  0  0  0  0  0  0  0  0  0
    0.6232    3.6985    2.5317 H   0  0  0  0  0  0  0  0  0  0  0  0
   -0.0992    2.2892    1.0632 C   0  0  0  0  0  0  0  0  0  0  0  0
    0.3995    1.4413    1.5146 H   0  0  0  0  0  0  0  0  0  0  0  0
   -0.6196    0.1253    1.7539 C   0  0  0  0  0  0  0  0  0  0  0  0
    0.5216    0.0194    2.2054 O   0  0  0  0  0  0  0  0  0  0  0  0
   -1.6152    0.6924    2.4469 N   0  0  0  0  0  0  0  0  0  0  0  0
   -2.5345    0.6914    2.0318 H   0  0  0  0  0  0  0  0  0  0  0  0
   -1.4720    1.2390    3.7941 C   0  0  0  0  0  0  0  0  0  0  0  0
   -0.6345    1.9391    3.8219 H   0  0  0  0  0  0  0  0  0  0  0  0
   -2.3844    1.7580    4.0892 H   0  0  0  0  0  0  0  0  0  0  0  0
   -1.2733    0.4298    4.4995 H   0  0  0  0  0  0  0  0  0  0  0  0
  5  6  2  0  0  0  0
  5  7  1  0  0  0  0
  2  3  1  0  0  0  0
  2  4  1  0  0  0  0
  2  5  1  0  0  0  0
  1  2  1  0  0  0  0
 25 26  2  0  0  0  0
 25 27  1  0  0  0  0
 23 24  1  0  0  0  0
 21 22  1  0  0  0  0
 21 23  2  0  0  0  0
 19 20  1  0  0  0  0
 19 21  1  0  0  0  0
 17 18  1  0  0  0  0
 17 19  2  0  0  0  0
 15 16  1  0  0  0  0
 15 17  1  0  0  0  0
 14 15  2  0  0  0  0
 14 23  1  0  0  0  0
 11 12  1  0  0  0  0
 11 13  1  0  0  0  0
 11 14  1  0  0  0  0
  9 10  1  0  0  0  0
  9 11  1  0  0  0  0
  9 25  1  0  0  0  0
  7  8  1  0  0  0  0
  7  9  1  0  0  0  0
 29 30  1  0  0  0  0
 29 31  1  0  0  0  0
 29 32  1  0  0  0  0
 27 28  1  0  0  0  0
 27 29  1  0  0  0  0
M  END
$$$$
default_name
  -OEChem-02102213163D

 32 32  0     1  0  0  0  0  0999 V2000
   -3.8405   -3.7518    1.6252 H   0  0  0  0  0  0  0  0  0  0  0  0
   -3.7965   -2.8768    0.9782 C   0  0  0  0  0  0  0  0  0  0  0  0
   -4.5465   -2.1527    1.2902 H   0  0  0  0  0  0  0  0  0  0  0  0
   -3.9745   -3.1748   -0.0538 H   0  0  0  0  0  0  0  0  0  0  0  0
   -2.4245   -2.2537    1.0882 C   0  0  0  0  0  0  0  0  0  0  0  0
   -1.5805   -2.7478    1.8242 O   0  0  0  0  0  0  0  0  0  0  0  0
   -2.2045   -1.1637    0.3562 N   0  0  0  0  0  0  0  0  0  0  0  0
   -2.9595   -0.7907   -0.2008 H   0  0  0  0  0  0  0  0  0  0  0  0
   -0.9485   -0.4087    0.3482 C   0  0  1  0  0  0  0  0  0  0  0  0
   -0.1408   -1.0795    0.0507 H   0  0  0  0  0  0  0  0  0  0  0  0
   -1.0432    0.7243   -0.6879 C   0  0  0  0  0  0  0  0  0  0  0  0
   -0.2696    0.5802   -1.4435 H   0  0  0  0  0  0  0  0  0  0  0  0
   -2.0088    0.6629   -1.1921 H   0  0  0  0  0  0  0  0  0  0  0  0
   -0.8730    2.1120   -0.0996 C   0  0  0  0  0  0  0  0  0  0  0  0
   -1.7404    3.1562   -0.4726 C   0  0  0  0  0  0  0  0  0  0  0  0
   -2.5205    2.9801   -1.1997 H   0  0  0  0  0  0  0  0  0  0  0  0
   -1.6021    4.4302    0.1084 C   0  0  0  0  0  0  0  0  0  0  0  0
   -2.2676    5.2313   -0.1814 H   0  0  0  0  0  0  0  0  0  0  0  0
   -0.5984    4.6619    1.0642 C   0  0  0  0  0  0  0  0  0  0  0  0
   -0.4907    5.6414    1.5088 H   0  0  0  0  0  0  0  0  0  0  0  0
    0.2710    3.6211    1.4381 C   0  0  0  0  0  0  0  0  0  0  0  0
    1.0460    3.8005    2.1687 H   0  0  0  0  0  0  0  0  0  0  0  0
    0.1347    2.3489    0.8548 C   0  0  0  0  0  0  0  0  0  0  0  0
    0.8063    1.5498    1.1409 H   0  0  0  0  0  0  0  0  0  0  0  0
   -0.6196    0.1253    1.7539 C   0  0  0  0  0  0  0  0  0  0  0  0
    0.5216    0.0194    2.2054 O   0  0  0  0  0  0  0  0  0  0  0  0
   -1.6152    0.6924    2.4469 N   0  0  0  0  0  0  0  0  0  0  0  0
   -2.5345    0.6914    2.0318 H   0  0  0  0  0  0  0  0  0  0  0  0
   -1.4720    1.2390    3.7941 C   0  0  0  0  0  0  0  0  0  0  0  0
   -0.6345    1.9391    3.8219 H   0  0  0  0  0  0  0  0  0  0  0  0
   -2.3844    1.7580    4.0892 H   0  0  0  0  0  0  0  0  0  0  0  0
   -1.2733    0.4298    4.4995 H   0  0  0  0  0  0  0  0  0  0  0  0
  5  6  2  0  0  0  0
  5  7  1  0  0  0  0
  2  3  1  0  0  0  0
  2  4  1  0  0  0  0
  2  5  1  0  0  0  0
  1  2  1  0  0  0  0
 25 26  2  0  0  0  0
 25 27  1  0  0  0  0
 23 24  1  0  0  0  0
 21 22  1  0  0  0  0
 21 23  2  0  0  0  0
 19 20  1  0  0  0  0
 19 21  1  0  0  0  0
 17 18  1  0  0  0  0
 17 19  2  0  0  0  0
 15 16  1  0  0  0  0
 15 17  1  0  0  0  0
 14 15  2  0  0  0  0
 14 23  1  0  0  0  0
 11 12  1  0  0  0  0
 11 13  1  0  0  0  0
 11 14  1  0  0  0  0
  9 10  1  0  0  0  0
  9 11  1  0  0  0  0
  9 25  1  0  0  0  0
  7  8  1  0  0  0  0
  7  9  1  0  0  0  0
 29 30  1  0  0  0  0
 29 31  1  0  0  0  0
 29 32  1  0  0  0  0
 27 28  1  0  0  0  0
 27 29  1  0  0  0  0
M  END
$$$$
default_name
  -OEChem-02102213163D

 32 32  0     1  0  0  0  0  0999 V2000
   -3.8405   -3.7518    1.6252 H   0  0  0  0  0  0  0  0  0  0  0  0
   -3.7965   -2.8768    0.9782 C   0  0  0  0  0  0  0  0  0  0  0  0
   -4.5465   -2.1527    1.2902 H   0  0  0  0  0  0  0  0  0  0  0  0
   -3.9745   -3.1748   -0.0538 H   0  0  0  0  0  0  0  0  0  0  0  0
   -2.4245   -2.2537    1.0882 C   0  0  0  0  0  0  0  0  0  0  0  0
   -1.5805   -2.7478    1.8242 O   0  0  0  0  0  0  0  0  0  0  0  0
   -2.2045   -1.1637    0.3562 N   0  0  0  0  0  0  0  0  0  0  0  0
   -2.9595   -0.7907   -0.2008 H   0  0  0  0  0  0  0  0  0  0  0  0
   -0.9485   -0.4087    0.3482 C   0  0  1  0  0  0  0  0  0  0  0  0
   -0.1408   -1.0795    0.0507 H   0  0  0  0  0  0  0  0  0  0  0  0
   -1.0432    0.7243   -0.6879 C   0  0  0  0  0  0  0  0  0  0  0  0
   -0.2696    0.5802   -1.4435 H   0  0  0  0  0  0  0  0  0  0  0  0
   -2.0088    0.6629   -1.1921 H   0  0  0  0  0  0  0  0  0  0  0  0
   -0.8730    2.1120   -0.0996 C   0  0  0  0  0  0  0  0  0  0  0  0
   -1.9013    3.0666   -0.2148 C   0  0  0  0  0  0  0  0  0  0  0  0
   -2.8113    2.8228   -0.7445 H   0  0  0  0  0  0  0  0  0  0  0  0
   -1.7527    4.3381    0.3693 C   0  0  0  0  0  0  0  0  0  0  0  0
   -2.5424    5.0705    0.2774 H   0  0  0  0  0  0  0  0  0  0  0  0
   -0.5774    4.6566    1.0707 C   0  0  0  0  0  0  0  0  0  0  0  0
   -0.4623    5.6342    1.5175 H   0  0  0  0  0  0  0  0  0  0  0  0
    0.4526    3.7055    1.1865 C   0  0  0  0  0  0  0  0  0  0  0  0
    1.3583    3.9520    1.7210 H   0  0  0  0  0  0  0  0  0  0  0  0
    0.3052    2.4361    0.5998 C   0  0  0  0  0  0  0  0  0  0  0  0
    1.0998    1.7064    0.6867 H   0  0  0  0  0  0  0  0  0  0  0  0
   -0.6196    0.1253    1.7539 C   0  0  0  0  0  0  0  0  0  0  0  0
    0.5216    0.0194    2.2054 O   0  0  0  0  0  0  0  0  0  0  0  0
   -1.6152    0.6924    2.4469 N   0  0  0  0  0  0  0  0  0  0  0  0
   -2.5345    0.6914    2.0318 H   0  0  0  0  0  0  0  0  0  0  0  0
   -1.4720    1.2390    3.7941 C   0  0  0  0  0  0  0  0  0  0  0  0
   -0.6345    1.9391    3.8219 H   0  0  0  0  0  0  0  0  0  0  0  0
   -2.3844    1.7580    4.0892 H   0  0  0  0  0  0  0  0  0  0  0  0
   -1.2733    0.4298    4.4995 H   0  0  0  0  0  0  0  0  0  0  0  0
  5  6  2  0  0  0  0
  5  7  1  0  0  0  0
  2  3  1  0  0  0  0
  2  4  1  0  0  0  0
  2  5  1  0  0  0  0
  1  2  1  0  0  0  0
 25 26  2  0  0  0  0
 25 27  1  0  0  0  0
 23 24  1  0  0  0  0
 21 22  1  0  0  0  0
 21 23  2  0  0  0  0
 19 20  1  0  0  0  0
 19 21  1  0  0  0  0
 17 18  1  0  0  0  0
 17 19  2  0  0  0  0
 15 16  1  0  0  0  0
 15 17  1  0  0  0  0
 14 15  2  0  0  0  0
 14 23  1  0  0  0  0
 11 12  1  0  0  0  0
 11 13  1  0  0  0  0
 11 14  1  0  0  0  0
  9 10  1  0  0  0  0
  9 11  1  0  0  0  0
  9 25  1  0  0  0  0
  7  8  1  0  0  0  0
  7  9  1  0  0  0  0
 29 30  1  0  0  0  0
 29 31  1  0  0  0  0
 29 32  1  0  0  0  0
 27 28  1  0  0  0  0
 27 29  1  0  0  0  0
M  END
$$$$
default_name
  -OEChem-02102213163D

 32 32  0     1  0  0  0  0  0999 V2000
   -3.8405   -3.7518    1.6252 H   0  0  0  0  0  0  0  0  0  0  0  0
   -3.7965   -2.8768    0.9782 C   0  0  0  0  0  0  0  0  0  0  0  0
   -4.5465   -2.1527    1.2902 H   0  0  0  0  0  0  0  0  0  0  0  0
   -3.9745   -3.1748   -0.0538 H   0  0  0  0  0  0  0  0  0  0  0  0
   -2.4245   -2.2537    1.0882 C   0  0  0  0  0  0  0  0  0  0  0  0
   -1.5805   -2.7478    1.8242 O   0  0  0  0  0  0  0  0  0  0  0  0
   -2.2045   -1.1637    0.3562 N   0  0  0  0  0  0  0  0  0  0  0  0
   -2.9595   -0.7907   -0.2008 H   0  0  0  0  0  0  0  0  0  0  0  0
   -0.9485   -0.4087    0.3482 C   0  0  1  0  0  0  0  0  0  0  0  0
   -0.1408   -1.0795    0.0507 H   0  0  0  0  0  0  0  0  0  0  0  0
   -1.0432    0.7243   -0.6879 C   0  0  0  0  0  0  0  0  0  0  0  0
   -0.2696    0.5802   -1.4435 H   0  0  0  0  0  0  0  0  0  0  0  0
   -2.0088    0.6629   -1.1921 H   0  0  0  0  0  0  0  0  0  0  0  0
   -0.8730    2.1120   -0.0996 C   0  0  0  0  0  0  0  0  0  0  0  0
   -1.9866    2.9564    0.0697 C   0  0  0  0  0  0  0  0  0  0  0  0
   -2.9687    2.6284   -0.2405 H   0  0  0  0  0  0  0  0  0  0  0  0
   -1.8270    4.2264    0.6543 C   0  0  0  0  0  0  0  0  0  0  0  0
   -2.6830    4.8742    0.7810 H   0  0  0  0  0  0  0  0  0  0  0  0
   -0.5551    4.6533    1.0720 C   0  0  0  0  0  0  0  0  0  0  0  0
   -0.4322    5.6299    1.5189 H   0  0  0  0  0  0  0  0  0  0  0  0
    0.5601    3.8126    0.9029 C   0  0  0  0  0  0  0  0  0  0  0  0
    1.5387    4.1428    1.2189 H   0  0  0  0  0  0  0  0  0  0  0  0
    0.4008    2.5448    0.3157 C   0  0  0  0  0  0  0  0  0  0  0  0
    1.2601    1.9003    0.1831 H   0  0  0  0  0  0  0  0  0  0  0  0
   -0.6196    0.1253    1.7539 C   0  0  0  0  0  0  0  0  0  0  0  0
    0.5216    0.0194    2.2054 O   0  0  0  0  0  0  0  0  0  0  0  0
   -1.6152    0.6924    2.4469 N   0  0  0  0  0  0  0  0  0  0  0  0
   -2.5345    0.6914    2.0318 H   0  0  0  0  0  0  0  0  0  0  0  0
   -1.4720    1.2390    3.7941 C   0  0  0  0  0  0  0  0  0  0  0  0
   -0.6345    1.9391    3.8219 H   0  0  0  0  0  0  0  0  0  0  0  0
   -2.3844    1.7580    4.0892 H   0  0  0  0  0  0  0  0  0  0  0  0
   -1.2733    0.4298    4.4995 H   0  0  0  0  0  0  0  0  0  0  0  0
  5  6  2  0  0  0  0
  5  7  1  0  0  0  0
  2  3  1  0  0  0  0
  2  4  1  0  0  0  0
  2  5  1  0  0  0  0
  1  2  1  0  0  0  0
 25 26  2  0  0  0  0
 25 27  1  0  0  0  0
 23 24  1  0  0  0  0
 21 22  1  0  0  0  0
 21 23  2  0  0  0  0
 19 20  1  0  0  0  0
 19 21  1  0  0  0  0
 17 18  1  0  0  0  0
 17 19  2  0  0  0  0
 15 16  1  0  0  0  0
 15 17  1  0  0  0  0
 14 15  2  0  0  0  0
 14 23  1  0  0  0  0
 11 12  1  0  0  0  0
 11 13  1  0  0  0  0
 11 14  1  0  0  0  0
  9 10  1  0  0  0  0
  9 11  1  0  0  0  0
  9 25  1  0  0  0  0
  7  8  1  0  0  0  0
  7  9  1  0  0  0  0
 29 30  1  0  0  0  0
 29 31  1  0  0  0  0
 29 32  1  0  0  0  0
 27 28  1  0  0  0  0
 27 29  1  0  0  0  0
M  END
$$$$
default_name
  -OEChem-02102213163D

 32 32  0     1  0  0  0  0  0999 V2000
   -3.8405   -3.7518    1.6252 H   0  0  0  0  0  0  0  0  0  0  0  0
   -3.7965   -2.8768    0.9782 C   0  0  0  0  0  0  0  0  0  0  0  0
   -4.5465   -2.1527    1.2902 H   0  0  0  0  0  0  0  0  0  0  0  0
   -3.9745   -3.1748   -0.0538 H   0  0  0  0  0  0  0  0  0  0  0  0
   -2.4245   -2.2537    1.0882 C   0  0  0  0  0  0  0  0  0  0  0  0
   -1.5805   -2.7478    1.8242 O   0  0  0  0  0  0  0  0  0  0  0  0
   -2.2045   -1.1637    0.3562 N   0  0  0  0  0  0  0  0  0  0  0  0
   -2.9595   -0.7907   -0.2008 H   0  0  0  0  0  0  0  0  0  0  0  0
   -0.9485   -0.4087    0.3482 C   0  0  1  0  0  0  0  0  0  0  0  0
   -0.1408   -1.0795    0.0507 H   0  0  0  0  0  0  0  0  0  0  0  0
   -1.0432    0.7243   -0.6879 C   0  0  0  0  0  0  0  0  0  0  0  0
   -0.2696    0.5802   -1.4435 H   0  0  0  0  0  0  0  0  0  0  0  0
   -2.0088    0.6629   -1.1921 H   0  0  0  0  0  0  0  0  0  0  0  0
   -0.8730    2.1120   -0.0996 C   0  0  0  0  0  0  0  0  0  0  0  0
   -1.9906    2.8332    0.3616 C   0  0  0  0  0  0  0  0  0  0  0  0
   -2.9818    2.4102    0.2779 H   0  0  0  0  0  0  0  0  0  0  0  0
   -1.8202    4.1027    0.9439 C   0  0  0  0  0  0  0  0  0  0  0  0
   -2.6800    4.6559    1.2950 H   0  0  0  0  0  0  0  0  0  0  0  0
   -0.5329    4.6524    1.0678 C   0  0  0  0  0  0  0  0  0  0  0  0
   -0.4022    5.6287    1.5130 H   0  0  0  0  0  0  0  0  0  0  0  0
    0.5859    3.9350    0.6066 C   0  0  0  0  0  0  0  0  0  0  0  0
    1.5750    4.3597    0.6968 H   0  0  0  0  0  0  0  0  0  0  0  0
    0.4150    2.6677    0.0217 C   0  0  0  0  0  0  0  0  0  0  0  0
    1.2762    2.1183   -0.3357 H   0  0  0  0  0  0  0  0  0  0  0  0
   -0.6196    0.1253    1.7539 C   0  0  0  0  0  0  0  0  0  0  0  0
    0.5216    0.0194    2.2054 O   0  0  0  0  0  0  0  0  0  0  0  0
   -1.6152    0.6924    2.4469 N   0  0  0  0  0  0  0  0  0  0  0  0
   -2.5345    0.6914    2.0318 H   0  0  0  0  0  0  0  0  0  0  0  0
   -1.4720    1.2390    3.7941 C   0  0  0  0  0  0  0  0  0  0  0  0
   -0.6345    1.9391    3.8219 H   0  0  0  0  0  0  0  0  0  0  0  0
   -2.3844    1.7580    4.0892 H   0  0  0  0  0  0  0  0  0  0  0  0
   -1.2733    0.4298    4.4995 H   0  0  0  0  0  0  0  0  0  0  0  0
  5  6  2  0  0  0  0
  5  7  1  0  0  0  0
  2  3  1  0  0  0  0
  2  4  1  0  0  0  0
  2  5  1  0  0  0  0
  1  2  1  0  0  0  0
 25 26  2  0  0  0  0
 25 27  1  0  0  0  0
 23 24  1  0  0  0  0
 21 22  1  0  0  0  0
 21 23  2  0  0  0  0
 19 20  1  0  0  0  0
 19 21  1  0  0  0  0
 17 18  1  0  0  0  0
 17 19  2  0  0  0  0
 15 16  1  0  0  0  0
 15 17  1  0  0  0  0
 14 15  2  0  0  0  0
 14 23  1  0  0  0  0
 11 12  1  0  0  0  0
 11 13  1  0  0  0  0
 11 14  1  0  0  0  0
  9 10  1  0  0  0  0
  9 11  1  0  0  0  0
  9 25  1  0  0  0  0
  7  8  1  0  0  0  0
  7  9  1  0  0  0  0
 29 30  1  0  0  0  0
 29 31  1  0  0  0  0
 29 32  1  0  0  0  0
 27 28  1  0  0  0  0
 27 29  1  0  0  0  0
M  END
$$$$
default_name
  -OEChem-02102213163D

 32 32  0     1  0  0  0  0  0999 V2000
   -3.8405   -3.7518    1.6252 H   0  0  0  0  0  0  0  0  0  0  0  0
   -3.7965   -2.8768    0.9782 C   0  0  0  0  0  0  0  0  0  0  0  0
   -4.5465   -2.1527    1.2902 H   0  0  0  0  0  0  0  0  0  0  0  0
   -3.9745   -3.1748   -0.0538 H   0  0  0  0  0  0  0  0  0  0  0  0
   -2.4245   -2.2537    1.0882 C   0  0  0  0  0  0  0  0  0  0  0  0
   -1.5805   -2.7478    1.8242 O   0  0  0  0  0  0  0  0  0  0  0  0
   -2.2045   -1.1637    0.3562 N   0  0  0  0  0  0  0  0  0  0  0  0
   -2.9595   -0.7907   -0.2008 H   0  0  0  0  0  0  0  0  0  0  0  0
   -0.9485   -0.4087    0.3482 C   0  0  1  0  0  0  0  0  0  0  0  0
   -0.1408   -1.0795    0.0507 H   0  0  0  0  0  0  0  0  0  0  0  0
   -1.0432    0.7243   -0.6879 C   0  0  0  0  0  0  0  0  0  0  0  0
   -0.2696    0.5802   -1.4435 H   0  0  0  0  0  0  0  0  0  0  0  0
   -2.0088    0.6629   -1.1921 H   0  0  0  0  0  0  0  0  0  0  0  0
   -0.8730    2.1120   -0.0996 C   0  0  0  0  0  0  0  0  0  0  0  0
   -1.9130    2.7052    0.6409 C   0  0  0  0  0  0  0  0  0  0  0  0
   -2.8498    2.1830    0.7755 H   0  0  0  0  0  0  0  0  0  0  0  0
   -1.7326    3.9756    1.2185 C   0  0  0  0  0  0  0  0  0  0  0  0
   -2.5334    4.4304    1.7845 H   0  0  0  0  0  0  0  0  0  0  0  0
   -0.5123    4.6538    1.0585 C   0  0  0  0  0  0  0  0  0  0  0  0
   -0.3746    5.6308    1.5002 H   0  0  0  0  0  0  0  0  0  0  0  0
    0.5284    4.0645    0.3179 C   0  0  0  0  0  0  0  0  0  0  0  0
    1.4646    4.5880    0.1902 H   0  0  0  0  0  0  0  0  0  0  0  0
    0.3467    2.7964   -0.2620 C   0  0  0  0  0  0  0  0  0  0  0  0
    1.1470    2.3455   -0.8343 H   0  0  0  0  0  0  0  0  0  0  0  0
   -0.6196    0.1253    1.7539 C   0  0  0  0  0  0  0  0  0  0  0  0
    0.5216    0.0194    2.2054 O   0  0  0  0  0  0  0  0  0  0  0  0
   -1.6152    0.6924    2.4469 N   0  0  0  0  0  0  0  0  0  0  0  0
   -2.5345    0.6914    2.0318 H   0  0  0  0  0  0  0  0  0  0  0  0
   -1.4720    1.2390    3.7941 C   0  0  0  0  0  0  0  0  0  0  0  0
   -0.6345    1.9391    3.8219 H   0  0  0  0  0  0  0  0  0  0  0  0
   -2.3844    1.7580    4.0892 H   0  0  0  0  0  0  0  0  0  0  0  0
   -1.2733    0.4298    4.4995 H   0  0  0  0  0  0  0  0  0  0  0  0
  5  6  2  0  0  0  0
  5  7  1  0  0  0  0
  2  3  1  0  0  0  0
  2  4  1  0  0  0  0
  2  5  1  0  0  0  0
  1  2  1  0  0  0  0
 25 26  2  0  0  0  0
 25 27  1  0  0  0  0
 23 24  1  0  0  0  0
 21 22  1  0  0  0  0
 21 23  2  0  0  0  0
 19 20  1  0  0  0  0
 19 21  1  0  0  0  0
 17 18  1  0  0  0  0
 17 19  2  0  0  0  0
 15 16  1  0  0  0  0
 15 17  1  0  0  0  0
 14 15  2  0  0  0  0
 14 23  1  0  0  0  0
 11 12  1  0  0  0  0
 11 13  1  0  0  0  0
 11 14  1  0  0  0  0
  9 10  1  0  0  0  0
  9 11  1  0  0  0  0
  9 25  1  0  0  0  0
  7  8  1  0  0  0  0
  7  9  1  0  0  0  0
 29 30  1  0  0  0  0
 29 31  1  0  0  0  0
 29 32  1  0  0  0  0
 27 28  1  0  0  0  0
 27 29  1  0  0  0  0
M  END
$$$$
default_name
  -OEChem-02102213163D

 32 32  0     1  0  0  0  0  0999 V2000
   -3.8405   -3.7518    1.6252 H   0  0  0  0  0  0  0  0  0  0  0  0
   -3.7965   -2.8768    0.9782 C   0  0  0  0  0  0  0  0  0  0  0  0
   -4.5465   -2.1527    1.2902 H   0  0  0  0  0  0  0  0  0  0  0  0
   -3.9745   -3.1748   -0.0538 H   0  0  0  0  0  0  0  0  0  0  0  0
   -2.4245   -2.2537    1.0882 C   0  0  0  0  0  0  0  0  0  0  0  0
   -1.5805   -2.7478    1.8242 O   0  0  0  0  0  0  0  0  0  0  0  0
   -2.2045   -1.1637    0.3562 N   0  0  0  0  0  0  0  0  0  0  0  0
   -2.9595   -0.7907   -0.2008 H   0  0  0  0  0  0  0  0  0  0  0  0
   -0.9485   -0.4087    0.3482 C   0  0  1  0  0  0  0  0  0  0  0  0
   -0.1408   -1.0795    0.0507 H   0  0  0  0  0  0  0  0  0  0  0  0
   -1.0432    0.7243   -0.6879 C   0  0  0  0  0  0  0  0  0  0  0  0
   -0.2696    0.5802   -1.4435 H   0  0  0  0  0  0  0  0  0  0  0  0
   -2.0088    0.6629   -1.1921 H   0  0  0  0  0  0  0  0  0  0  0  0
   -0.8730    2.1120   -0.0996 C   0  0  0  0  0  0  0  0  0  0  0  0
   -1.7591    2.5813    0.8886 C   0  0  0  0  0  0  0  0  0  0  0  0
   -2.5816    1.9624    1.2182 H   0  0  0  0  0  0  0  0  0  0  0  0
   -1.5702    3.8536    1.4592 C   0  0  0  0  0  0  0  0  0  0  0  0
   -2.2533    4.2131    2.2160 H   0  0  0  0  0  0  0  0  0  0  0  0
   -0.4948    4.6575    1.0447 C   0  0  0  0  0  0  0  0  0  0  0  0
   -0.3511    5.6359    1.4814 H   0  0  0  0  0  0  0  0  0  0  0  0
    0.3916    4.1921    0.0564 C   0  0  0  0  0  0  0  0  0  0  0  0
    1.2151    4.8122   -0.2663 H   0  0  0  0  0  0  0  0  0  0  0  0
    0.2007    2.9220   -0.5161 C   0  0  0  0  0  0  0  0  0  0  0  0
    0.8813    2.5665   -1.2787 H   0  0  0  0  0  0  0  0  0  0  0  0
   -0.6196    0.1253    1.7539 C   0  0  0  0  0  0  0  0  0  0  0  0
    0.5216    0.0194    2.2054 O   0  0  0  0  0  0  0  0  0  0  0  0
   -1.6152    0.6924    2.4469 N   0  0  0  0  0  0  0  0  0  0  0  0
   -2.5345    0.6914    2.0318 H   0  0  0  0  0  0  0  0  0  0  0  0
   -1.4720    1.2390    3.7941 C   0  0  0  0  0  0  0  0  0  0  0  0
   -0.6345    1.9391    3.8219 H   0  0  0  0  0  0  0  0  0  0  0  0
   -2.3844    1.7580    4.0892 H   0  0  0  0  0  0  0  0  0  0  0  0
   -1.2733    0.4298    4.4995 H   0  0  0  0  0  0  0  0  0  0  0  0
  5  6  2  0  0  0  0
  5  7  1  0  0  0  0
  2  3  1  0  0  0  0
  2  4  1  0  0  0  0
  2  5  1  0  0  0  0
  1  2  1  0  0  0  0
 25 26  2  0  0  0  0
 25 27  1  0  0  0  0
 23 24  1  0  0  0  0
 21 22  1  0  0  0  0
 21 23  2  0  0  0  0
 19 20  1  0  0  0  0
 19 21  1  0  0  0  0
 17 18  1  0  0  0  0
 17 19  2  0  0  0  0
 15 16  1  0  0  0  0
 15 17  1  0  0  0  0
 14 15  2  0  0  0  0
 14 23  1  0  0  0  0
 11 12  1  0  0  0  0
 11 13  1  0  0  0  0
 11 14  1  0  0  0  0
  9 10  1  0  0  0  0
  9 11  1  0  0  0  0
  9 25  1  0  0  0  0
  7  8  1  0  0  0  0
  7  9  1  0  0  0  0
 29 30  1  0  0  0  0
 29 31  1  0  0  0  0
 29 32  1  0  0  0  0
 27 28  1  0  0  0  0
 27 29  1  0  0  0  0
M  END
$$$$
default_name
  -OEChem-02102213163D

 32 32  0     1  0  0  0  0  0999 V2000
   -3.8405   -3.7518    1.6252 H   0  0  0  0  0  0  0  0  0  0  0  0
   -3.7965   -2.8768    0.9782 C   0  0  0  0  0  0  0  0  0  0  0  0
   -4.5465   -2.1527    1.2902 H   0  0  0  0  0  0  0  0  0  0  0  0
   -3.9745   -3.1748   -0.0538 H   0  0  0  0  0  0  0  0  0  0  0  0
   -2.4245   -2.2537    1.0882 C   0  0  0  0  0  0  0  0  0  0  0  0
   -1.5805   -2.7478    1.8242 O   0  0  0  0  0  0  0  0  0  0  0  0
   -2.2045   -1.1637    0.3562 N   0  0  0  0  0  0  0  0  0  0  0  0
   -2.9595   -0.7907   -0.2008 H   0  0  0  0  0  0  0  0  0  0  0  0
   -0.9485   -0.4087    0.3482 C   0  0  1  0  0  0  0  0  0  0  0  0
   -0.1408   -1.0795    0.0507 H   0  0  0  0  0  0  0  0  0  0  0  0
   -1.0432    0.7243   -0.6879 C   0  0  0  0  0  0  0  0  0  0  0  0
   -0.2696    0.5802   -1.4435 H   0  0  0  0  0  0  0  0  0  0  0  0
   -2.0088    0.6629   -1.1921 H   0  0  0  0  0  0  0  0  0  0  0  0
   -0.8730    2.1120   -0.0996 C   0  0  0  0  0  0  0  0  0  0  0  0
   -1.5393    2.4699    1.0878 C   0  0  0  0  0  0  0  0  0  0  0  0
   -2.1957    1.7634    1.5759 H   0  0  0  0  0  0  0  0  0  0  0  0
   -1.3441    3.7450    1.6498 C   0  0  0  0  0  0  0  0  0  0  0  0
   -1.8587    4.0188    2.5602 H   0  0  0  0  0  0  0  0  0  0  0  0
   -0.4816    4.6633    1.0273 C   0  0  0  0  0  0  0  0  0  0  0  0
   -0.3334    5.6437    1.4578 H   0  0  0  0  0  0  0  0  0  0  0  0
    0.1846    4.3093   -0.1601 C   0  0  0  0  0  0  0  0  0  0  0  0
    0.8434    5.0169   -0.6417 H   0  0  0  0  0  0  0  0  0  0  0  0
   -0.0132    3.0361   -0.7234 C   0  0  0  0  0  0  0  0  0  0  0  0
    0.4973    2.7662   -1.6387 H   0  0  0  0  0  0  0  0  0  0  0  0
   -0.6196    0.1253    1.7539 C   0  0  0  0  0  0  0  0  0  0  0  0
    0.5216    0.0194    2.2054 O   0  0  0  0  0  0  0  0  0  0  0  0
   -1.6152    0.6924    2.4469 N   0  0  0  0  0  0  0  0  0  0  0  0
   -2.5345    0.6914    2.0318 H   0  0  0  0  0  0  0  0  0  0  0  0
   -1.4720    1.2390    3.7941 C   0  0  0  0  0  0  0  0  0  0  0  0
   -0.6345    1.9391    3.8219 H   0  0  0  0  0  0  0  0  0  0  0  0
   -2.3844    1.7580    4.0892 H   0  0  0  0  0  0  0  0  0  0  0  0
   -1.2733    0.4298    4.4995 H   0  0  0  0  0  0  0  0  0  0  0  0
  5  6  2  0  0  0  0
  5  7  1  0  0  0  0
  2  3  1  0  0  0  0
  2  4  1  0  0  0  0
  2  5  1  0  0  0  0
  1  2  1  0  0  0  0
 25 26  2  0  0  0  0
 25 27  1  0  0  0  0
 23 24  1  0  0  0  0
 21 22  1  0  0  0  0
 21 23  2  0  0  0  0
 19 20  1  0  0  0  0
 19 21  1  0  0  0  0
 17 18  1  0  0  0  0
 17 19  2  0  0  0  0
 15 16  1  0  0  0  0
 15 17  1  0  0  0  0
 14 15  2  0  0  0  0
 14 23  1  0  0  0  0
 11 12  1  0  0  0  0
 11 13  1  0  0  0  0
 11 14  1  0  0  0  0
  9 10  1  0  0  0  0
  9 11  1  0  0  0  0
  9 25  1  0  0  0  0
  7  8  1  0  0  0  0
  7  9  1  0  0  0  0
 29 30  1  0  0  0  0
 29 31  1  0  0  0  0
 29 32  1  0  0  0  0
 27 28  1  0  0  0  0
 27 29  1  0  0  0  0
M  END
$$$$
default_name
  -OEChem-02102213163D

 32 32  0     1  0  0  0  0  0999 V2000
   -3.8405   -3.7518    1.6252 H   0  0  0  0  0  0  0  0  0  0  0  0
   -3.7965   -2.8768    0.9782 C   0  0  0  0  0  0  0  0  0  0  0  0
   -4.5465   -2.1527    1.2902 H   0  0  0  0  0  0  0  0  0  0  0  0
   -3.9745   -3.1748   -0.0538 H   0  0  0  0  0  0  0  0  0  0  0  0
   -2.4245   -2.2537    1.0882 C   0  0  0  0  0  0  0  0  0  0  0  0
   -1.5805   -2.7478    1.8242 O   0  0  0  0  0  0  0  0  0  0  0  0
   -2.2045   -1.1637    0.3562 N   0  0  0  0  0  0  0  0  0  0  0  0
   -2.9595   -0.7907   -0.2008 H   0  0  0  0  0  0  0  0  0  0  0  0
   -0.9485   -0.4087    0.3482 C   0  0  1  0  0  0  0  0  0  0  0  0
   -0.1408   -1.0795    0.0507 H   0  0  0  0  0  0  0  0  0  0  0  0
   -1.0432    0.7243   -0.6879 C   0  0  0  0  0  0  0  0  0  0  0  0
   -0.2696    0.5802   -1.4435 H   0  0  0  0  0  0  0  0  0  0  0  0
   -2.0088    0.6629   -1.1921 H   0  0  0  0  0  0  0  0  0  0  0  0
   -0.8730    2.1120   -0.0996 C   0  0  0  0  0  0  0  0  0  0  0  0
   -1.2686    2.3786    1.2249 C   0  0  0  0  0  0  0  0  0  0  0  0
   -1.7182    1.5995    1.8243 H   0  0  0  0  0  0  0  0  0  0  0  0
   -1.0697    3.6574    1.7772 C   0  0  0  0  0  0  0  0  0  0  0  0
   -1.3765    3.8607    2.7935 H   0  0  0  0  0  0  0  0  0  0  0  0
   -0.4734    4.6706    1.0075 C   0  0  0  0  0  0  0  0  0  0  0  0
   -0.3227    5.6538    1.4310 H   0  0  0  0  0  0  0  0  0  0  0  0
   -0.0783    4.4080   -0.3169 C   0  0  0  0  0  0  0  0  0  0  0  0
    0.3750    5.1883   -0.9104 H   0  0  0  0  0  0  0  0  0  0  0  0
   -0.2803    3.1309   -0.8696 C   0  0  0  0  0  0  0  0  0  0  0  0
    0.0211    2.9311   -1.8897 H   0  0  0  0  0  0  0  0  0  0  0  0
   -0.6196    0.1253    1.7539 C   0  0  0  0  0  0  0  0  0  0  0  0
    0.5216    0.0194    2.2054 O   0  0  0  0  0  0  0  0  0  0  0  0
   -1.6152    0.6924    2.4469 N   0  0  0  0  0  0  0  0  0  0  0  0
   -2.5345    0.6914    2.0318 H   0  0  0  0  0  0  0  0  0  0  0  0
   -1.4720    1.2390    3.7941 C   0  0  0  0  0  0  0  0  0  0  0  0
   -0.6345    1.9391    3.8219 H   0  0  0  0  0  0  0  0  0  0  0  0
   -2.3844    1.7580    4.0892 H   0  0  0  0  0  0  0  0  0  0  0  0
   -1.2733    0.4298    4.4995 H   0  0  0  0  0  0  0  0  0  0  0  0
  5  6  2  0  0  0  0
  5  7  1  0  0  0  0
  2  3  1  0  0  0  0
  2  4  1  0  0  0  0
  2  5  1  0  0  0  0
  1  2  1  0  0  0  0
 25 26  2  0  0  0  0
 25 27  1  0  0  0  0
 23 24  1  0  0  0  0
 21 22  1  0  0  0  0
 21 23  2  0  0  0  0
 19 20  1  0  0  0  0
 19 21  1  0  0  0  0
 17 18  1  0  0  0  0
 17 19  2  0  0  0  0
 15 16  1  0  0  0  0
 15 17  1  0  0  0  0
 14 15  2  0  0  0  0
 14 23  1  0  0  0  0
 11 12  1  0  0  0  0
 11 13  1  0  0  0  0
 11 14  1  0  0  0  0
  9 10  1  0  0  0  0
  9 11  1  0  0  0  0
  9 25  1  0  0  0  0
  7  8  1  0  0  0  0
  7  9  1  0  0  0  0
 29 30  1  0  0  0  0
 29 31  1  0  0  0  0
 29 32  1  0  0  0  0
 27 28  1  0  0  0  0
 27 29  1  0  0  0  0
M  END
$$$$
default_name
  -OEChem-02102213163D

 32 32  0     1  0  0  0  0  0999 V2000
   -3.8405   -3.7518    1.6252 H   0  0  0  0  0  0  0  0  0  0  0  0
   -3.7965   -2.8768    0.9782 C   0  0  0  0  0  0  0  0  0  0  0  0
   -4.5465   -2.1527    1.2902 H   0  0  0  0  0  0  0  0  0  0  0  0
   -3.9745   -3.1748   -0.0538 H   0  0  0  0  0  0  0  0  0  0  0  0
   -2.4245   -2.2537    1.0882 C   0  0  0  0  0  0  0  0  0  0  0  0
   -1.5805   -2.7478    1.8242 O   0  0  0  0  0  0  0  0  0  0  0  0
   -2.2045   -1.1637    0.3562 N   0  0  0  0  0  0  0  0  0  0  0  0
   -2.9595   -0.7907   -0.2008 H   0  0  0  0  0  0  0  0  0  0  0  0
   -0.9485   -0.4087    0.3482 C   0  0  1  0  0  0  0  0  0  0  0  0
   -0.1408   -1.0795    0.0507 H   0  0  0  0  0  0  0  0  0  0  0  0
   -1.0432    0.7243   -0.6879 C   0  0  0  0  0  0  0  0  0  0  0  0
   -0.2696    0.5802   -1.4435 H   0  0  0  0  0  0  0  0  0  0  0  0
   -2.0088    0.6629   -1.1921 H   0  0  0  0  0  0  0  0  0  0  0  0
   -0.8730    2.1120   -0.0996 C   0  0  0  0  0  0  0  0  0  0  0  0
   -0.9656    2.3136    1.2906 C   0  0  0  0  0  0  0  0  0  0  0  0
   -1.1817    1.4820    1.9464 H   0  0  0  0  0  0  0  0  0  0  0  0
   -0.7656    3.5965    1.8327 C   0  0  0  0  0  0  0  0  0  0  0  0
   -0.8397    3.7496    2.9002 H   0  0  0  0  0  0  0  0  0  0  0  0
   -0.4710    4.6792    0.9867 C   0  0  0  0  0  0  0  0  0  0  0  0
   -0.3197    5.6653    1.4029 H   0  0  0  0  0  0  0  0  0  0  0  0
   -0.3793    4.4815   -0.4031 C   0  0  0  0  0  0  0  0  0  0  0  0
   -0.1582    5.3146   -1.0541 H   0  0  0  0  0  0  0  0  0  0  0  0
   -0.5824    3.1998   -0.9449 C   0  0  0  0  0  0  0  0  0  0  0  0
   -0.5149    3.0497   -2.0145 H   0  0  0  0  0  0  0  0  0  0  0  0
   -0.6196    0.1253    1.7539 C   0  0  0  0  0  0  0  0  0  0  0  0
    0.5216    0.0194    2.2054 O   0  0  0  0  0  0  0  0  0  0  0  0
   -1.6152    0.6924    2.4469 N   0  0  0  0  0  0  0  0  0  0  0  0
   -2.5345    0.6914    2.0318 H   0  0  0  0  0  0  0  0  0  0  0  0
   -1.4720    1.2390    3.7941 C   0  0  0  0  0  0  0  0  0  0  0  0
   -0.6345    1.9391    3.8219 H   0  0  0  0  0  0  0  0  0  0  0  0
   -2.3844    1.7580    4.0892 H   0  0  0  0  0  0  0  0  0  0  0  0
   -1.2733    0.4298    4.4995 H   0  0  0  0  0  0  0  0  0  0  0  0
  5  6  2  0  0  0  0
  5  7  1  0  0  0  0
  2  3  1  0  0  0  0
  2  4  1  0  0  0  0
  2  5  1  0  0  0  0
  1  2  1  0  0  0  0
 25 26  2  0  0  0  0
 25 27  1  0  0  0  0
 23 24  1  0  0  0  0
 21 22  1  0  0  0  0
 21 23  2  0  0  0  0
 19 20  1  0  0  0  0
 19 21  1  0  0  0  0
 17 18  1  0  0  0  0
 17 19  2  0  0  0  0
 15 16  1  0  0  0  0
 15 17  1  0  0  0  0
 14 15  2  0  0  0  0
 14 23  1  0  0  0  0
 11 12  1  0  0  0  0
 11 13  1  0  0  0  0
 11 14  1  0  0  0  0
  9 10  1  0  0  0  0
  9 11  1  0  0  0  0
  9 25  1  0  0  0  0
  7  8  1  0  0  0  0
  7  9  1  0  0  0  0
 29 30  1  0  0  0  0
 29 31  1  0  0  0  0
 29 32  1  0  0  0  0
 27 28  1  0  0  0  0
 27 29  1  0  0  0  0
M  END
$$$$
default_name
  -OEChem-02102213163D

 32 32  0     1  0  0  0  0  0999 V2000
   -3.8405   -3.7518    1.6252 H   0  0  0  0  0  0  0  0  0  0  0  0
   -3.7965   -2.8768    0.9782 C   0  0  0  0  0  0  0  0  0  0  0  0
   -4.5465   -2.1527    1.2902 H   0  0  0  0  0  0  0  0  0  0  0  0
   -3.9745   -3.1748   -0.0538 H   0  0  0  0  0  0  0  0  0  0  0  0
   -2.4245   -2.2537    1.0882 C   0  0  0  0  0  0  0  0  0  0  0  0
   -1.5805   -2.7478    1.8242 O   0  0  0  0  0  0  0  0  0  0  0  0
   -2.2045   -1.1637    0.3562 N   0  0  0  0  0  0  0  0  0  0  0  0
   -2.9595   -0.7907   -0.2008 H   0  0  0  0  0  0  0  0  0  0  0  0
   -0.9485   -0.4087    0.3482 C   0  0  1  0  0  0  0  0  0  0  0  0
   -0.1408   -1.0795    0.0507 H   0  0  0  0  0  0  0  0  0  0  0  0
   -1.0432    0.7243   -0.6879 C   0  0  0  0  0  0  0  0  0  0  0  0
   -0.2696    0.5802   -1.4435 H   0  0  0  0  0  0  0  0  0  0  0  0
   -2.0088    0.6629   -1.1921 H   0  0  0  0  0  0  0  0  0  0  0  0
   -0.8730    2.1120   -0.0996 C   0  0  0  0  0  0  0  0  0  0  0  0
   -0.6508    2.2792    1.2805 C   0  0  0  0  0  0  0  0  0  0  0  0
   -0.6228    1.4187    1.9339 H   0  0  0  0  0  0  0  0  0  0  0  0
   -0.4527    3.5667    1.8126 C   0  0  0  0  0  0  0  0  0  0  0  0
   -0.2848    3.6931    2.8729 H   0  0  0  0  0  0  0  0  0  0  0  0
   -0.4745    4.6883    0.9662 C   0  0  0  0  0  0  0  0  0  0  0  0
   -0.3247    5.6776    1.3754 H   0  0  0  0  0  0  0  0  0  0  0  0
   -0.6978    4.5248   -0.4130 C   0  0  0  0  0  0  0  0  0  0  0  0
   -0.7200    5.3873   -1.0629 H   0  0  0  0  0  0  0  0  0  0  0  0
   -0.8990    3.2383   -0.9440 C   0  0  0  0  0  0  0  0  0  0  0  0
   -1.0740    3.1142   -2.0048 H   0  0  0  0  0  0  0  0  0  0  0  0
   -0.6196    0.1253    1.7539 C   0  0  0  0  0  0  0  0  0  0  0  0
    0.5216    0.0194    2.2054 O   0  0  0  0  0  0  0  0  0  0  0  0
   -1.6152    0.6924    2.4469 N   0  0  0  0  0  0  0  0  0  0  0  0
   -2.5345    0.6914    2.0318 H   0  0  0  0  0  0  0  0  0  0  0  0
   -1.4720    1.2390    3.7941 C   0  0  0  0  0  0  0  0  0  0  0  0
   -0.6345    1.9391    3.8219 H   0  0  0  0  0  0  0  0  0  0  0  0
   -2.3844    1.7580    4.0892 H   0  0  0  0  0  0  0  0  0  0  0  0
   -1.2733    0.4298    4.4995 H   0  0  0  0  0  0  0  0  0  0  0  0
  5  6  2  0  0  0  0
  5  7  1  0  0  0  0
  2  3  1  0  0  0  0
  2  4  1  0  0  0  0
  2  5  1  0  0  0  0
  1  2  1  0  0  0  0
 25 26  2  0  0  0  0
 25 27  1  0  0  0  0
 23 24  1  0  0  0  0
 21 22  1  0  0  0  0
 21 23  2  0  0  0  0
 19 20  1  0  0  0  0
 19 21  1  0  0  0  0
 17 18  1  0  0  0  0
 17 19  2  0  0  0  0
 15 16  1  0  0  0  0
 15 17  1  0  0  0  0
 14 15  2  0  0  0  0
 14 23  1  0  0  0  0
 11 12  1  0  0  0  0
 11 13  1  0  0  0  0
 11 14  1  0  0  0  0
  9 10  1  0  0  0  0
  9 11  1  0  0  0  0
  9 25  1  0  0  0  0
  7  8  1  0  0  0  0
  7  9  1  0  0  0  0
 29 30  1  0  0  0  0
 29 31  1  0  0  0  0
 29 32  1  0  0  0  0
 27 28  1  0  0  0  0
 27 29  1  0  0  0  0
M  END
$$$$
default_name
  -OEChem-02102213163D

 32 32  0     1  0  0  0  0  0999 V2000
   -3.8405   -3.7518    1.6252 H   0  0  0  0  0  0  0  0  0  0  0  0
   -3.7965   -2.8768    0.9782 C   0  0  0  0  0  0  0  0  0  0  0  0
   -4.5465   -2.1527    1.2902 H   0  0  0  0  0  0  0  0  0  0  0  0
   -3.9745   -3.1748   -0.0538 H   0  0  0  0  0  0  0  0  0  0  0  0
   -2.4245   -2.2537    1.0882 C   0  0  0  0  0  0  0  0  0  0  0  0
   -1.5805   -2.7478    1.8242 O   0  0  0  0  0  0  0  0  0  0  0  0
   -2.2045   -1.1637    0.3562 N   0  0  0  0  0  0  0  0  0  0  0  0
   -2.9595   -0.7907   -0.2008 H   0  0  0  0  0  0  0  0  0  0  0  0
   -0.9485   -0.4087    0.3482 C   0  0  1  0  0  0  0  0  0  0  0  0
   -0.1408   -1.0795    0.0507 H   0  0  0  0  0  0  0  0  0  0  0  0
   -1.0432    0.7243   -0.6879 C   0  0  0  0  0  0  0  0  0  0  0  0
   -0.2696    0.5802   -1.4435 H   0  0  0  0  0  0  0  0  0  0  0  0
   -2.0088    0.6629   -1.1921 H   0  0  0  0  0  0  0  0  0  0  0  0
   -0.8730    2.1120   -0.0996 C   0  0  0  0  0  0  0  0  0  0  0  0
   -0.3456    2.2780    1.1951 C   0  0  0  0  0  0  0  0  0  0  0  0
   -0.0795    1.4141    1.7877 H   0  0  0  0  0  0  0  0  0  0  0  0
   -0.1522    3.5699    1.7181 C   0  0  0  0  0  0  0  0  0  0  0  0
    0.2505    3.6951    2.7135 H   0  0  0  0  0  0  0  0  0  0  0  0
   -0.4836    4.6973    0.9476 C   0  0  0  0  0  0  0  0  0  0  0  0
   -0.3371    5.6897    1.3504 H   0  0  0  0  0  0  0  0  0  0  0  0
   -1.0122    4.5349   -0.3459 C   0  0  0  0  0  0  0  0  0  0  0  0
   -1.2720    5.4013   -0.9363 H   0  0  0  0  0  0  0  0  0  0  0  0
   -1.2085    3.2437   -0.8671 C   0  0  0  0  0  0  0  0  0  0  0  0
   -1.6183    3.1200   -1.8611 H   0  0  0  0  0  0  0  0  0  0  0  0
   -0.6196    0.1253    1.7539 C   0  0  0  0  0  0  0  0  0  0  0  0
    0.5216    0.0194    2.2054 O   0  0  0  0  0  0  0  0  0  0  0  0
   -1.6152    0.6924    2.4469 N   0  0  0  0  0  0  0  0  0  0  0  0
   -2.5345    0.6914    2.0318 H   0  0  0  0  0  0  0  0  0  0  0  0
   -1.4720    1.2390    3.7941 C   0  0  0  0  0  0  0  0  0  0  0  0
   -0.6345    1.9391    3.8219 H   0  0  0  0  0  0  0  0  0  0  0  0
   -2.3844    1.7580    4.0892 H   0  0  0  0  0  0  0  0  0  0  0  0
   -1.2733    0.4298    4.4995 H   0  0  0  0  0  0  0  0  0  0  0  0
  5  6  2  0  0  0  0
  5  7  1  0  0  0  0
  2  3  1  0  0  0  0
  2  4  1  0  0  0  0
  2  5  1  0  0  0  0
  1  2  1  0  0  0  0
 25 26  2  0  0  0  0
 25 27  1  0  0  0  0
 23 24  1  0  0  0  0
 21 22  1  0  0  0  0
 21 23  2  0  0  0  0
 19 20  1  0  0  0  0
 19 21  1  0  0  0  0
 17 18  1  0  0  0  0
 17 19  2  0  0  0  0
 15 16  1  0  0  0  0
 15 17  1  0  0  0  0
 14 15  2  0  0  0  0
 14 23  1  0  0  0  0
 11 12  1  0  0  0  0
 11 13  1  0  0  0  0
 11 14  1  0  0  0  0
  9 10  1  0  0  0  0
  9 11  1  0  0  0  0
  9 25  1  0  0  0  0
  7  8  1  0  0  0  0
  7  9  1  0  0  0  0
 29 30  1  0  0  0  0
 29 31  1  0  0  0  0
 29 32  1  0  0  0  0
 27 28  1  0  0  0  0
 27 29  1  0  0  0  0
M  END
$$$$
default_name
  -OEChem-02102213163D

 32 32  0     1  0  0  0  0  0999 V2000
   -3.8405   -3.7518    1.6252 H   0  0  0  0  0  0  0  0  0  0  0  0
   -3.7965   -2.8768    0.9782 C   0  0  0  0  0  0  0  0  0  0  0  0
   -4.5465   -2.1527    1.2902 H   0  0  0  0  0  0  0  0  0  0  0  0
   -3.9745   -3.1748   -0.0538 H   0  0  0  0  0  0  0  0  0  0  0  0
   -2.4245   -2.2537    1.0882 C   0  0  0  0  0  0  0  0  0  0  0  0
   -1.5805   -2.7478    1.8242 O   0  0  0  0  0  0  0  0  0  0  0  0
   -2.2045   -1.1637    0.3562 N   0  0  0  0  0  0  0  0  0  0  0  0
   -2.9595   -0.7907   -0.2008 H   0  0  0  0  0  0  0  0  0  0  0  0
   -0.9485   -0.4087    0.3482 C   0  0  1  0  0  0  0  0  0  0  0  0
   -0.1408   -1.0795    0.0507 H   0  0  0  0  0  0  0  0  0  0  0  0
   -1.0432    0.7243   -0.6879 C   0  0  0  0  0  0  0  0  0  0  0  0
   -0.2696    0.5802   -1.4435 H   0  0  0  0  0  0  0  0  0  0  0  0
   -2.0088    0.6629   -1.1921 H   0  0  0  0  0  0  0  0  0  0  0  0
   -0.8730    2.1120   -0.0996 C   0  0  0  0  0  0  0  0  0  0  0  0
   -0.0710    2.3099    1.0404 C   0  0  0  0  0  0  0  0  0  0  0  0
    0.4111    1.4684    1.5176 H   0  0  0  0  0  0  0  0  0  0  0  0
    0.1154    3.6058    1.5559 C   0  0  0  0  0  0  0  0  0  0  0  0
    0.7295    3.7553    2.4328 H   0  0  0  0  0  0  0  0  0  0  0  0
   -0.4977    4.7056    0.9320 C   0  0  0  0  0  0  0  0  0  0  0  0
   -0.3564    5.7009    1.3295 H   0  0  0  0  0  0  0  0  0  0  0  0
   -1.3009    4.5111   -0.2064 C   0  0  0  0  0  0  0  0  0  0  0  0
   -1.7767    5.3557   -0.6829 H   0  0  0  0  0  0  0  0  0  0  0  0
   -1.4897    3.2155   -0.7194 C   0  0  0  0  0  0  0  0  0  0  0  0
   -2.1106    3.0669   -1.5933 H   0  0  0  0  0  0  0  0  0  0  0  0
   -0.6196    0.1253    1.7539 C   0  0  0  0  0  0  0  0  0  0  0  0
    0.5216    0.0194    2.2054 O   0  0  0  0  0  0  0  0  0  0  0  0
   -1.6152    0.6924    2.4469 N   0  0  0  0  0  0  0  0  0  0  0  0
   -2.5345    0.6914    2.0318 H   0  0  0  0  0  0  0  0  0  0  0  0
   -1.4720    1.2390    3.7941 C   0  0  0  0  0  0  0  0  0  0  0  0
   -0.6345    1.9391    3.8219 H   0  0  0  0  0  0  0  0  0  0  0  0
   -2.3844    1.7580    4.0892 H   0  0  0  0  0  0  0  0  0  0  0  0
   -1.2733    0.4298    4.4995 H   0  0  0  0  0  0  0  0  0  0  0  0
  5  6  2  0  0  0  0
  5  7  1  0  0  0  0
  2  3  1  0  0  0  0
  2  4  1  0  0  0  0
  2  5  1  0  0  0  0
  1  2  1  0  0  0  0
 25 26  2  0  0  0  0
 25 27  1  0  0  0  0
 23 24  1  0  0  0  0
 21 22  1  0  0  0  0
 21 23  2  0  0  0  0
 19 20  1  0  0  0  0
 19 21  1  0  0  0  0
 17 18  1  0  0  0  0
 17 19  2  0  0  0  0
 15 16  1  0  0  0  0
 15 17  1  0  0  0  0
 14 15  2  0  0  0  0
 14 23  1  0  0  0  0
 11 12  1  0  0  0  0
 11 13  1  0  0  0  0
 11 14  1  0  0  0  0
  9 10  1  0  0  0  0
  9 11  1  0  0  0  0
  9 25  1  0  0  0  0
  7  8  1  0  0  0  0
  7  9  1  0  0  0  0
 29 30  1  0  0  0  0
 29 31  1  0  0  0  0
 29 32  1  0  0  0  0
 27 28  1  0  0  0  0
 27 29  1  0  0  0  0
M  END
$$$$
default_name
  -OEChem-02102213163D

 32 32  0     1  0  0  0  0  0999 V2000
   -3.8405   -3.7518    1.6252 H   0  0  0  0  0  0  0  0  0  0  0  0
   -3.7965   -2.8768    0.9782 C   0  0  0  0  0  0  0  0  0  0  0  0
   -4.5465   -2.1527    1.2902 H   0  0  0  0  0  0  0  0  0  0  0  0
   -3.9745   -3.1748   -0.0538 H   0  0  0  0  0  0  0  0  0  0  0  0
   -2.4245   -2.2537    1.0882 C   0  0  0  0  0  0  0  0  0  0  0  0
   -1.5805   -2.7478    1.8242 O   0  0  0  0  0  0  0  0  0  0  0  0
   -2.2045   -1.1637    0.3562 N   0  0  0  0  0  0  0  0  0  0  0  0
   -2.9595   -0.7907   -0.2008 H   0  0  0  0  0  0  0  0  0  0  0  0
   -0.9485   -0.4087    0.3482 C   0  0  1  0  0  0  0  0  0  0  0  0
   -0.1408   -1.0795    0.0507 H   0  0  0  0  0  0  0  0  0  0  0  0
   -1.0432    0.7243   -0.6879 C   0  0  0  0  0  0  0  0  0  0  0  0
   -0.2696    0.5802   -1.4435 H   0  0  0  0  0  0  0  0  0  0  0  0
   -2.0088    0.6629   -1.1921 H   0  0  0  0  0  0  0  0  0  0  0  0
   -0.8730    2.1120   -0.0996 C   0  0  0  0  0  0  0  0  0  0  0  0
    0.1545    2.3728    0.8268 C   0  0  0  0  0  0  0  0  0  0  0  0
    0.8155    1.5780    1.1422 H   0  0  0  0  0  0  0  0  0  0  0  0
    0.3318    3.6722    1.3368 C   0  0  0  0  0  0  0  0  0  0  0  0
    1.1198    3.8697    2.0500 H   0  0  0  0  0  0  0  0  0  0  0  0
   -0.5158    4.7127    0.9205 C   0  0  0  0  0  0  0  0  0  0  0  0
   -0.3810    5.7105    1.3142 H   0  0  0  0  0  0  0  0  0  0  0  0
   -1.5445    4.4552   -0.0039 C   0  0  0  0  0  0  0  0  0  0  0  0
   -2.1996    5.2537   -0.3199 H   0  0  0  0  0  0  0  0  0  0  0  0
   -1.7236    3.1558   -0.5110 C   0  0  0  0  0  0  0  0  0  0  0  0
   -2.5174    2.9583   -1.2195 H   0  0  0  0  0  0  0  0  0  0  0  0
   -0.6196    0.1253    1.7539 C   0  0  0  0  0  0  0  0  0  0  0  0
    0.5216    0.0194    2.2054 O   0  0  0  0  0  0  0  0  0  0  0  0
   -1.6152    0.6924    2.4469 N   0  0  0  0  0  0  0  0  0  0  0  0
   -2.5345    0.6914    2.0318 H   0  0  0  0  0  0  0  0  0  0  0  0
   -1.4720    1.2390    3.7941 C   0  0  0  0  0  0  0  0  0  0  0  0
   -0.6345    1.9391    3.8219 H   0  0  0  0  0  0  0  0  0  0  0  0
   -2.3844    1.7580    4.0892 H   0  0  0  0  0  0  0  0  0  0  0  0
   -1.2733    0.4298    4.4995 H   0  0  0  0  0  0  0  0  0  0  0  0
  5  6  2  0  0  0  0
  5  7  1  0  0  0  0
  2  3  1  0  0  0  0
  2  4  1  0  0  0  0
  2  5  1  0  0  0  0
  1  2  1  0  0  0  0
 25 26  2  0  0  0  0
 25 27  1  0  0  0  0
 23 24  1  0  0  0  0
 21 22  1  0  0  0  0
 21 23  2  0  0  0  0
 19 20  1  0  0  0  0
 19 21  1  0  0  0  0
 17 18  1  0  0  0  0
 17 19  2  0  0  0  0
 15 16  1  0  0  0  0
 15 17  1  0  0  0  0
 14 15  2  0  0  0  0
 14 23  1  0  0  0  0
 11 12  1  0  0  0  0
 11 13  1  0  0  0  0
 11 14  1  0  0  0  0
  9 10  1  0  0  0  0
  9 11  1  0  0  0  0
  9 25  1  0  0  0  0
  7  8  1  0  0  0  0
  7  9  1  0  0  0  0
 29 30  1  0  0  0  0
 29 31  1  0  0  0  0
 29 32  1  0  0  0  0
 27 28  1  0  0  0  0
 27 29  1  0  0  0  0
M  END
$$$$
default_name
  -OEChem-02102213163D

 32 32  0     1  0  0  0  0  0999 V2000
   -3.8405   -3.7518    1.6252 H   0  0  0  0  0  0  0  0  0  0  0  0
   -3.7965   -2.8768    0.9782 C   0  0  0  0  0  0  0  0  0  0  0  0
   -4.5465   -2.1527    1.2902 H   0  0  0  0  0  0  0  0  0  0  0  0
   -3.9745   -3.1748   -0.0538 H   0  0  0  0  0  0  0  0  0  0  0  0
   -2.4245   -2.2537    1.0882 C   0  0  0  0  0  0  0  0  0  0  0  0
   -1.5805   -2.7478    1.8242 O   0  0  0  0  0  0  0  0  0  0  0  0
   -2.2045   -1.1637    0.3562 N   0  0  0  0  0  0  0  0  0  0  0  0
   -2.9595   -0.7907   -0.2008 H   0  0  0  0  0  0  0  0  0  0  0  0
   -0.9485   -0.4087    0.3482 C   0  0  1  0  0  0  0  0  0  0  0  0
   -0.1408   -1.0795    0.0507 H   0  0  0  0  0  0  0  0  0  0  0  0
   -1.0432    0.7243   -0.6879 C   0  0  0  0  0  0  0  0  0  0  0  0
   -0.2696    0.5802   -1.4435 H   0  0  0  0  0  0  0  0  0  0  0  0
   -2.0088    0.6629   -1.1921 H   0  0  0  0  0  0  0  0  0  0  0  0
   -0.8730    2.1120   -0.0996 C   0  0  0  0  0  0  0  0  0  0  0  0
    0.3154    2.4624    0.5690 C   0  0  0  0  0  0  0  0  0  0  0  0
    1.1064    1.7353    0.6870 H   0  0  0  0  0  0  0  0  0  0  0  0
    0.4824    3.7643    1.0759 C   0  0  0  0  0  0  0  0  0  0  0  0
    1.3946    4.0306    1.5912 H   0  0  0  0  0  0  0  0  0  0  0  0
   -0.5368    4.7181    0.9139 C   0  0  0  0  0  0  0  0  0  0  0  0
   -0.4094    5.7176    1.3055 H   0  0  0  0  0  0  0  0  0  0  0  0
   -1.7261    4.3708    0.2477 C   0  0  0  0  0  0  0  0  0  0  0  0
   -2.5118    5.1022    0.1278 H   0  0  0  0  0  0  0  0  0  0  0  0
   -1.8941    3.0686   -0.2560 C   0  0  0  0  0  0  0  0  0  0  0  0
   -2.8109    2.8017   -0.7654 H   0  0  0  0  0  0  0  0  0  0  0  0
   -0.6196    0.1253    1.7539 C   0  0  0  0  0  0  0  0  0  0  0  0
    0.5216    0.0194    2.2054 O   0  0  0  0  0  0  0  0  0  0  0  0
   -1.6152    0.6924    2.4469 N   0  0  0  0  0  0  0  0  0  0  0  0
   -2.5345    0.6914    2.0318 H   0  0  0  0  0  0  0  0  0  0  0  0
   -1.4720    1.2390    3.7941 C   0  0  0  0  0  0  0  0  0  0  0  0
   -0.6345    1.9391    3.8219 H   0  0  0  0  0  0  0  0  0  0  0  0
   -2.3844    1.7580    4.0892 H   0  0  0  0  0  0  0  0  0  0  0  0
   -1.2733    0.4298    4.4995 H   0  0  0  0  0  0  0  0  0  0  0  0
  5  6  2  0  0  0  0
  5  7  1  0  0  0  0
  2  3  1  0  0  0  0
  2  4  1  0  0  0  0
  2  5  1  0  0  0  0
  1  2  1  0  0  0  0
 25 26  2  0  0  0  0
 25 27  1  0  0  0  0
 23 24  1  0  0  0  0
 21 22  1  0  0  0  0
 21 23  2  0  0  0  0
 19 20  1  0  0  0  0
 19 21  1  0  0  0  0
 17 18  1  0  0  0  0
 17 19  2  0  0  0  0
 15 16  1  0  0  0  0
 15 17  1  0  0  0  0
 14 15  2  0  0  0  0
 14 23  1  0  0  0  0
 11 12  1  0  0  0  0
 11 13  1  0  0  0  0
 11 14  1  0  0  0  0
  9 10  1  0  0  0  0
  9 11  1  0  0  0  0
  9 25  1  0  0  0  0
  7  8  1  0  0  0  0
  7  9  1  0  0  0  0
 29 30  1  0  0  0  0
 29 31  1  0  0  0  0
 29 32  1  0  0  0  0
 27 28  1  0  0  0  0
 27 29  1  0  0  0  0
M  END
$$$$
default_name
  -OEChem-02102213163D

 32 32  0     1  0  0  0  0  0999 V2000
   -3.8405   -3.7518    1.6252 H   0  0  0  0  0  0  0  0  0  0  0  0
   -3.7965   -2.8768    0.9782 C   0  0  0  0  0  0  0  0  0  0  0  0
   -4.5465   -2.1527    1.2902 H   0  0  0  0  0  0  0  0  0  0  0  0
   -3.9745   -3.1748   -0.0538 H   0  0  0  0  0  0  0  0  0  0  0  0
   -2.4245   -2.2537    1.0882 C   0  0  0  0  0  0  0  0  0  0  0  0
   -1.5805   -2.7478    1.8242 O   0  0  0  0  0  0  0  0  0  0  0  0
   -2.2045   -1.1637    0.3562 N   0  0  0  0  0  0  0  0  0  0  0  0
   -2.9595   -0.7907   -0.2008 H   0  0  0  0  0  0  0  0  0  0  0  0
   -0.9485   -0.4087    0.3482 C   0  0  1  0  0  0  0  0  0  0  0  0
   -0.1408   -1.0795    0.0507 H   0  0  0  0  0  0  0  0  0  0  0  0
   -1.0432    0.7243   -0.6879 C   0  0  0  0  0  0  0  0  0  0  0  0
   -0.2696    0.5802   -1.4435 H   0  0  0  0  0  0  0  0  0  0  0  0
   -2.0088    0.6629   -1.1921 H   0  0  0  0  0  0  0  0  0  0  0  0
   -0.8730    2.1120   -0.0996 C   0  0  0  0  0  0  0  0  0  0  0  0
    0.4007    2.5726    0.2844 C   0  0  0  0  0  0  0  0  0  0  0  0
    1.2637    1.9297    0.1830 H   0  0  0  0  0  0  0  0  0  0  0  0
    0.5568    3.8760    0.7910 C   0  0  0  0  0  0  0  0  0  0  0  0
    1.5353    4.2268    1.0876 H   0  0  0  0  0  0  0  0  0  0  0  0
   -0.5591    4.7214    0.9127 C   0  0  0  0  0  0  0  0  0  0  0  0
   -0.4396    5.7219    1.3041 H   0  0  0  0  0  0  0  0  0  0  0  0
   -1.8335    4.2637    0.5313 C   0  0  0  0  0  0  0  0  0  0  0  0
   -2.6922    4.9115    0.6299 H   0  0  0  0  0  0  0  0  0  0  0  0
   -1.9897    2.9599    0.0282 C   0  0  0  0  0  0  0  0  0  0  0  0
   -2.9712    2.6079   -0.2618 H   0  0  0  0  0  0  0  0  0  0  0  0
   -0.6196    0.1253    1.7539 C   0  0  0  0  0  0  0  0  0  0  0  0
    0.5216    0.0194    2.2054 O   0  0  0  0  0  0  0  0  0  0  0  0
   -1.6152    0.6924    2.4469 N   0  0  0  0  0  0  0  0  0  0  0  0
   -2.5345    0.6914    2.0318 H   0  0  0  0  0  0  0  0  0  0  0  0
   -1.4720    1.2390    3.7941 C   0  0  0  0  0  0  0  0  0  0  0  0
   -0.6345    1.9391    3.8219 H   0  0  0  0  0  0  0  0  0  0  0  0
   -2.3844    1.7580    4.0892 H   0  0  0  0  0  0  0  0  0  0  0  0
   -1.2733    0.4298    4.4995 H   0  0  0  0  0  0  0  0  0  0  0  0
  5  6  2  0  0  0  0
  5  7  1  0  0  0  0
  2  3  1  0  0  0  0
  2  4  1  0  0  0  0
  2  5  1  0  0  0  0
  1  2  1  0  0  0  0
 25 26  2  0  0  0  0
 25 27  1  0  0  0  0
 23 24  1  0  0  0  0
 21 22  1  0  0  0  0
 21 23  2  0  0  0  0
 19 20  1  0  0  0  0
 19 21  1  0  0  0  0
 17 18  1  0  0  0  0
 17 19  2  0  0  0  0
 15 16  1  0  0  0  0
 15 17  1  0  0  0  0
 14 15  2  0  0  0  0
 14 23  1  0  0  0  0
 11 12  1  0  0  0  0
 11 13  1  0  0  0  0
 11 14  1  0  0  0  0
  9 10  1  0  0  0  0
  9 11  1  0  0  0  0
  9 25  1  0  0  0  0
  7  8  1  0  0  0  0
  7  9  1  0  0  0  0
 29 30  1  0  0  0  0
 29 31  1  0  0  0  0
 29 32  1  0  0  0  0
 27 28  1  0  0  0  0
 27 29  1  0  0  0  0
M  END
$$$$
default_name
  -OEChem-02102213163D

 32 32  0     1  0  0  0  0  0999 V2000
   -3.8405   -3.7518    1.6252 H   0  0  0  0  0  0  0  0  0  0  0  0
   -3.7965   -2.8768    0.9782 C   0  0  0  0  0  0  0  0  0  0  0  0
   -4.5465   -2.1527    1.2902 H   0  0  0  0  0  0  0  0  0  0  0  0
   -3.9745   -3.1748   -0.0538 H   0  0  0  0  0  0  0  0  0  0  0  0
   -2.4245   -2.2537    1.0882 C   0  0  0  0  0  0  0  0  0  0  0  0
   -1.5805   -2.7478    1.8242 O   0  0  0  0  0  0  0  0  0  0  0  0
   -2.2045   -1.1637    0.3562 N   0  0  0  0  0  0  0  0  0  0  0  0
   -2.9595   -0.7907   -0.2008 H   0  0  0  0  0  0  0  0  0  0  0  0
   -0.9485   -0.4087    0.3482 C   0  0  1  0  0  0  0  0  0  0  0  0
   -0.1408   -1.0795    0.0507 H   0  0  0  0  0  0  0  0  0  0  0  0
   -1.0432    0.7243   -0.6879 C   0  0  0  0  0  0  0  0  0  0  0  0
   -0.2696    0.5802   -1.4435 H   0  0  0  0  0  0  0  0  0  0  0  0
   -2.0088    0.6629   -1.1921 H   0  0  0  0  0  0  0  0  0  0  0  0
   -0.8730    2.1120   -0.0996 C   0  0  0  0  0  0  0  0  0  0  0  0
    0.4047    2.6959   -0.0075 C   0  0  0  0  0  0  0  0  0  0  0  0
    1.2768    2.1479   -0.3354 H   0  0  0  0  0  0  0  0  0  0  0  0
    0.5499    3.9997    0.5013 C   0  0  0  0  0  0  0  0  0  0  0  0
    1.5322    4.4451    0.5736 H   0  0  0  0  0  0  0  0  0  0  0  0
   -0.5813    4.7223    0.9169 C   0  0  0  0  0  0  0  0  0  0  0  0
   -0.4695    5.7231    1.3099 H   0  0  0  0  0  0  0  0  0  0  0  0
   -1.8594    4.1413    0.8275 C   0  0  0  0  0  0  0  0  0  0  0  0
   -2.7285    4.6945    1.1520 H   0  0  0  0  0  0  0  0  0  0  0  0
   -2.0039    2.8370    0.3221 C   0  0  0  0  0  0  0  0  0  0  0  0
   -2.9873    2.3899    0.2570 H   0  0  0  0  0  0  0  0  0  0  0  0
   -0.6196    0.1253    1.7539 C   0  0  0  0  0  0  0  0  0  0  0  0
    0.5216    0.0194    2.2054 O   0  0  0  0  0  0  0  0  0  0  0  0
   -1.6152    0.6924    2.4469 N   0  0  0  0  0  0  0  0  0  0  0  0
   -2.5345    0.6914    2.0318 H   0  0  0  0  0  0  0  0  0  0  0  0
   -1.4720    1.2390    3.7941 C   0  0  0  0  0  0  0  0  0  0  0  0
   -0.6345    1.9391    3.8219 H   0  0  0  0  0  0  0  0  0  0  0  0
   -2.3844    1.7580    4.0892 H   0  0  0  0  0  0  0  0  0  0  0  0
   -1.2733    0.4298    4.4995 H   0  0  0  0  0  0  0  0  0  0  0  0
  5  6  2  0  0  0  0
  5  7  1  0  0  0  0
  2  3  1  0  0  0  0
  2  4  1  0  0  0  0
  2  5  1  0  0  0  0
  1  2  1  0  0  0  0
 25 26  2  0  0  0  0
 25 27  1  0  0  0  0
 23 24  1  0  0  0  0
 21 22  1  0  0  0  0
 21 23  2  0  0  0  0
 19 20  1  0  0  0  0
 19 21  1  0  0  0  0
 17 18  1  0  0  0  0
 17 19  2  0  0  0  0
 15 16  1  0  0  0  0
 15 17  1  0  0  0  0
 14 15  2  0  0  0  0
 14 23  1  0  0  0  0
 11 12  1  0  0  0  0
 11 13  1  0  0  0  0
 11 14  1  0  0  0  0
  9 10  1  0  0  0  0
  9 11  1  0  0  0  0
  9 25  1  0  0  0  0
  7  8  1  0  0  0  0
  7  9  1  0  0  0  0
 29 30  1  0  0  0  0
 29 31  1  0  0  0  0
 29 32  1  0  0  0  0
 27 28  1  0  0  0  0
 27 29  1  0  0  0  0
M  END
$$$$
default_name
  -OEChem-02102213163D

 32 32  0     1  0  0  0  0  0999 V2000
   -3.8405   -3.7518    1.6252 H   0  0  0  0  0  0  0  0  0  0  0  0
   -3.7965   -2.8768    0.9782 C   0  0  0  0  0  0  0  0  0  0  0  0
   -4.5465   -2.1527    1.2902 H   0  0  0  0  0  0  0  0  0  0  0  0
   -3.9745   -3.1748   -0.0538 H   0  0  0  0  0  0  0  0  0  0  0  0
   -2.4245   -2.2537    1.0882 C   0  0  0  0  0  0  0  0  0  0  0  0
   -1.5805   -2.7478    1.8242 O   0  0  0  0  0  0  0  0  0  0  0  0
   -2.2045   -1.1637    0.3562 N   0  0  0  0  0  0  0  0  0  0  0  0
   -2.9595   -0.7907   -0.2008 H   0  0  0  0  0  0  0  0  0  0  0  0
   -0.9485   -0.4087    0.3482 C   0  0  1  0  0  0  0  0  0  0  0  0
   -0.1408   -1.0795    0.0507 H   0  0  0  0  0  0  0  0  0  0  0  0
   -1.0432    0.7243   -0.6879 C   0  0  0  0  0  0  0  0  0  0  0  0
   -0.2696    0.5802   -1.4435 H   0  0  0  0  0  0  0  0  0  0  0  0
   -2.0088    0.6629   -1.1921 H   0  0  0  0  0  0  0  0  0  0  0  0
   -0.8730    2.1120   -0.0996 C   0  0  0  0  0  0  0  0  0  0  0  0
    0.3271    2.8238   -0.2867 C   0  0  0  0  0  0  0  0  0  0  0  0
    1.1448    2.3751   -0.8330 H   0  0  0  0  0  0  0  0  0  0  0  0
    0.4623    4.1268    0.2268 C   0  0  0  0  0  0  0  0  0  0  0  0
    1.3856    4.6706    0.0842 H   0  0  0  0  0  0  0  0  0  0  0  0
   -0.6019    4.7209    0.9262 C   0  0  0  0  0  0  0  0  0  0  0  0
   -0.4971    5.7211    1.3227 H   0  0  0  0  0  0  0  0  0  0  0  0
   -1.8019    4.0118    1.1163 C   0  0  0  0  0  0  0  0  0  0  0  0
   -2.6181    4.4662    1.6586 H   0  0  0  0  0  0  0  0  0  0  0  0
   -1.9356    2.7083    0.6058 C   0  0  0  0  0  0  0  0  0  0  0  0
   -2.8581    2.1626    0.7556 H   0  0  0  0  0  0  0  0  0  0  0  0
   -0.6196    0.1253    1.7539 C   0  0  0  0  0  0  0  0  0  0  0  0
    0.5216    0.0194    2.2054 O   0  0  0  0  0  0  0  0  0  0  0  0
   -1.6152    0.6924    2.4469 N   0  0  0  0  0  0  0  0  0  0  0  0
   -2.5345    0.6914    2.0318 H   0  0  0  0  0  0  0  0  0  0  0  0
   -1.4720    1.2390    3.7941 C   0  0  0  0  0  0  0  0  0  0  0  0
   -0.6345    1.9391    3.8219 H   0  0  0  0  0  0  0  0  0  0  0  0
   -2.3844    1.7580    4.0892 H   0  0  0  0  0  0  0  0  0  0  0  0
   -1.2733    0.4298    4.4995 H   0  0  0  0  0  0  0  0  0  0  0  0
  5  6  2  0  0  0  0
  5  7  1  0  0  0  0
  2  3  1  0  0  0  0
  2  4  1  0  0  0  0
  2  5  1  0  0  0  0
  1  2  1  0  0  0  0
 25 26  2  0  0  0  0
 25 27  1  0  0  0  0
 23 24  1  0  0  0  0
 21 22  1  0  0  0  0
 21 23  2  0  0  0  0
 19 20  1  0  0  0  0
 19 21  1  0  0  0  0
 17 18  1  0  0  0  0
 17 19  2  0  0  0  0
 15 16  1  0  0  0  0
 15 17  1  0  0  0  0
 14 15  2  0  0  0  0
 14 23  1  0  0  0  0
 11 12  1  0  0  0  0
 11 13  1  0  0  0  0
 11 14  1  0  0  0  0
  9 10  1  0  0  0  0
  9 11  1  0  0  0  0
  9 25  1  0  0  0  0
  7  8  1  0  0  0  0
  7  9  1  0  0  0  0
 29 30  1  0  0  0  0
 29 31  1  0  0  0  0
 29 32  1  0  0  0  0
 27 28  1  0  0  0  0
 27 29  1  0  0  0  0
M  END
$$$$
default_name
  -OEChem-02102213163D

 32 32  0     1  0  0  0  0  0999 V2000
   -3.8405   -3.7518    1.6252 H   0  0  0  0  0  0  0  0  0  0  0  0
   -3.7965   -2.8768    0.9782 C   0  0  0  0  0  0  0  0  0  0  0  0
   -4.5465   -2.1527    1.2902 H   0  0  0  0  0  0  0  0  0  0  0  0
   -3.9745   -3.1748   -0.0538 H   0  0  0  0  0  0  0  0  0  0  0  0
   -2.4245   -2.2537    1.0882 C   0  0  0  0  0  0  0  0  0  0  0  0
   -1.5805   -2.7478    1.8242 O   0  0  0  0  0  0  0  0  0  0  0  0
   -2.2045   -1.1637    0.3562 N   0  0  0  0  0  0  0  0  0  0  0  0
   -2.9595   -0.7907   -0.2008 H   0  0  0  0  0  0  0  0  0  0  0  0
   -0.9485   -0.4087    0.3482 C   0  0  1  0  0  0  0  0  0  0  0  0
   -0.1408   -1.0795    0.0507 H   0  0  0  0  0  0  0  0  0  0  0  0
   -1.0432    0.7243   -0.6879 C   0  0  0  0  0  0  0  0  0  0  0  0
   -0.2696    0.5802   -1.4435 H   0  0  0  0  0  0  0  0  0  0  0  0
   -2.0088    0.6629   -1.1921 H   0  0  0  0  0  0  0  0  0  0  0  0
   -0.8730    2.1120   -0.0996 C   0  0  0  0  0  0  0  0  0  0  0  0
    0.1732    2.9477   -0.5344 C   0  0  0  0  0  0  0  0  0  0  0  0
    0.8766    2.5956   -1.2757 H   0  0  0  0  0  0  0  0  0  0  0  0
    0.2999    4.2488   -0.0140 C   0  0  0  0  0  0  0  0  0  0  0  0
    1.1055    4.8880   -0.3474 H   0  0  0  0  0  0  0  0  0  0  0  0
   -0.6194    4.7172    0.9400 C   0  0  0  0  0  0  0  0  0  0  0  0
   -0.5206    5.7160    1.3416 H   0  0  0  0  0  0  0  0  0  0  0  0
   -1.6651    3.8841    1.3778 C   0  0  0  0  0  0  0  0  0  0  0  0
   -2.3686    4.2420    2.1151 H   0  0  0  0  0  0  0  0  0  0  0  0
   -1.7895    2.5827    0.8600 C   0  0  0  0  0  0  0  0  0  0  0  0
   -2.5924    1.9416    1.2001 H   0  0  0  0  0  0  0  0  0  0  0  0
   -0.6196    0.1253    1.7539 C   0  0  0  0  0  0  0  0  0  0  0  0
    0.5216    0.0194    2.2054 O   0  0  0  0  0  0  0  0  0  0  0  0
   -1.6152    0.6924    2.4469 N   0  0  0  0  0  0  0  0  0  0  0  0
   -2.5345    0.6914    2.0318 H   0  0  0  0  0  0  0  0  0  0  0  0
   -1.4720    1.2390    3.7941 C   0  0  0  0  0  0  0  0  0  0  0  0
   -0.6345    1.9391    3.8219 H   0  0  0  0  0  0  0  0  0  0  0  0
   -2.3844    1.7580    4.0892 H   0  0  0  0  0  0  0  0  0  0  0  0
   -1.2733    0.4298    4.4995 H   0  0  0  0  0  0  0  0  0  0  0  0
  5  6  2  0  0  0  0
  5  7  1  0  0  0  0
  2  3  1  0  0  0  0
  2  4  1  0  0  0  0
  2  5  1  0  0  0  0
  1  2  1  0  0  0  0
 25 26  2  0  0  0  0
 25 27  1  0  0  0  0
 23 24  1  0  0  0  0
 21 22  1  0  0  0  0
 21 23  2  0  0  0  0
 19 20  1  0  0  0  0
 19 21  1  0  0  0  0
 17 18  1  0  0  0  0
 17 19  2  0  0  0  0
 15 16  1  0  0  0  0
 15 17  1  0  0  0  0
 14 15  2  0  0  0  0
 14 23  1  0  0  0  0
 11 12  1  0  0  0  0
 11 13  1  0  0  0  0
 11 14  1  0  0  0  0
  9 10  1  0  0  0  0
  9 11  1  0  0  0  0
  9 25  1  0  0  0  0
  7  8  1  0  0  0  0
  7  9  1  0  0  0  0
 29 30  1  0  0  0  0
 29 31  1  0  0  0  0
 29 32  1  0  0  0  0
 27 28  1  0  0  0  0
 27 29  1  0  0  0  0
M  END
$$$$
default_name
  -OEChem-02102213163D

 32 32  0     1  0  0  0  0  0999 V2000
   -3.8405   -3.7518    1.6252 H   0  0  0  0  0  0  0  0  0  0  0  0
   -3.7965   -2.8768    0.9782 C   0  0  0  0  0  0  0  0  0  0  0  0
   -4.5465   -2.1527    1.2902 H   0  0  0  0  0  0  0  0  0  0  0  0
   -3.9745   -3.1748   -0.0538 H   0  0  0  0  0  0  0  0  0  0  0  0
   -2.4245   -2.2537    1.0882 C   0  0  0  0  0  0  0  0  0  0  0  0
   -1.5805   -2.7478    1.8242 O   0  0  0  0  0  0  0  0  0  0  0  0
   -2.2045   -1.1637    0.3562 N   0  0  0  0  0  0  0  0  0  0  0  0
   -2.9595   -0.7907   -0.2008 H   0  0  0  0  0  0  0  0  0  0  0  0
   -0.9485   -0.4087    0.3482 C   0  0  1  0  0  0  0  0  0  0  0  0
   -0.1408   -1.0795    0.0507 H   0  0  0  0  0  0  0  0  0  0  0  0
   -1.0432    0.7243   -0.6879 C   0  0  0  0  0  0  0  0  0  0  0  0
   -0.2696    0.5802   -1.4435 H   0  0  0  0  0  0  0  0  0  0  0  0
   -2.0088    0.6629   -1.1921 H   0  0  0  0  0  0  0  0  0  0  0  0
   -0.8730    2.1120   -0.0996 C   0  0  0  0  0  0  0  0  0  0  0  0
   -0.0466    3.0591   -0.7336 C   0  0  0  0  0  0  0  0  0  0  0  0
    0.4907    2.7947   -1.6334 H   0  0  0  0  0  0  0  0  0  0  0  0
    0.0738    4.3574   -0.2046 C   0  0  0  0  0  0  0  0  0  0  0  0
    0.7109    5.0823   -0.6915 H   0  0  0  0  0  0  0  0  0  0  0  0
   -0.6327    4.7114    0.9574 C   0  0  0  0  0  0  0  0  0  0  0  0
   -0.5383    5.7081    1.3652 H   0  0  0  0  0  0  0  0  0  0  0  0
   -1.4581    3.7669    1.5943 C   0  0  0  0  0  0  0  0  0  0  0  0
   -1.9970    4.0373    2.4905 H   0  0  0  0  0  0  0  0  0  0  0  0
   -1.5757    2.4686    1.0672 C   0  0  0  0  0  0  0  0  0  0  0  0
   -2.2084    1.7419    1.5600 H   0  0  0  0  0  0  0  0  0  0  0  0
   -0.6196    0.1253    1.7539 C   0  0  0  0  0  0  0  0  0  0  0  0
    0.5216    0.0194    2.2054 O   0  0  0  0  0  0  0  0  0  0  0  0
   -1.6152    0.6924    2.4469 N   0  0  0  0  0  0  0  0  0  0  0  0
   -2.5345    0.6914    2.0318 H   0  0  0  0  0  0  0  0  0  0  0  0
   -1.4720    1.2390    3.7941 C   0  0  0  0  0  0  0  0  0  0  0  0
   -0.6345    1.9391    3.8219 H   0  0  0  0  0  0  0  0  0  0  0  0
   -2.3844    1.7580    4.0892 H   0  0  0  0  0  0  0  0  0  0  0  0
   -1.2733    0.4298    4.4995 H   0  0  0  0  0  0  0  0  0  0  0  0
  5  6  2  0  0  0  0
  5  7  1  0  0  0  0
  2  3  1  0  0  0  0
  2  4  1  0  0  0  0
  2  5  1  0  0  0  0
  1  2  1  0  0  0  0
 25 26  2  0  0  0  0
 25 27  1  0  0  0  0
 23 24  1  0  0  0  0
 21 22  1  0  0  0  0
 21 23  2  0  0  0  0
 19 20  1  0  0  0  0
 19 21  1  0  0  0  0
 17 18  1  0  0  0  0
 17 19  2  0  0  0  0
 15 16  1  0  0  0  0
 15 17  1  0  0  0  0
 14 15  2  0  0  0  0
 14 23  1  0  0  0  0
 11 12  1  0  0  0  0
 11 13  1  0  0  0  0
 11 14  1  0  0  0  0
  9 10  1  0  0  0  0
  9 11  1  0  0  0  0
  9 25  1  0  0  0  0
  7  8  1  0  0  0  0
  7  9  1  0  0  0  0
 29 30  1  0  0  0  0
 29 31  1  0  0  0  0
 29 32  1  0  0  0  0
 27 28  1  0  0  0  0
 27 29  1  0  0  0  0
M  END
$$$$
default_name
  -OEChem-02102213163D

 32 32  0     1  0  0  0  0  0999 V2000
   -3.8405   -3.7518    1.6252 H   0  0  0  0  0  0  0  0  0  0  0  0
   -3.7965   -2.8768    0.9782 C   0  0  0  0  0  0  0  0  0  0  0  0
   -4.5465   -2.1527    1.2902 H   0  0  0  0  0  0  0  0  0  0  0  0
   -3.9745   -3.1748   -0.0538 H   0  0  0  0  0  0  0  0  0  0  0  0
   -2.4245   -2.2537    1.0882 C   0  0  0  0  0  0  0  0  0  0  0  0
   -1.5805   -2.7478    1.8242 O   0  0  0  0  0  0  0  0  0  0  0  0
   -2.2045   -1.1637    0.3562 N   0  0  0  0  0  0  0  0  0  0  0  0
   -2.9595   -0.7907   -0.2008 H   0  0  0  0  0  0  0  0  0  0  0  0
   -0.9485   -0.4087    0.3482 C   0  0  1  0  0  0  0  0  0  0  0  0
   -0.1408   -1.0795    0.0507 H   0  0  0  0  0  0  0  0  0  0  0  0
   -1.0432    0.7243   -0.6879 C   0  0  0  0  0  0  0  0  0  0  0  0
   -0.2696    0.5802   -1.4435 H   0  0  0  0  0  0  0  0  0  0  0  0
   -2.0088    0.6629   -1.1921 H   0  0  0  0  0  0  0  0  0  0  0  0
   -0.8730    2.1120   -0.0996 C   0  0  0  0  0  0  0  0  0  0  0  0
   -0.3173    3.1504   -0.8707 C   0  0  0  0  0  0  0  0  0  0  0  0
    0.0132    2.9585   -1.8818 H   0  0  0  0  0  0  0  0  0  0  0  0
   -0.2006    4.4450   -0.3319 C   0  0  0  0  0  0  0  0  0  0  0  0
    0.2288    5.2404   -0.9249 H   0  0  0  0  0  0  0  0  0  0  0  0
   -0.6408    4.7040    0.9772 C   0  0  0  0  0  0  0  0  0  0  0  0
   -0.5490    5.6981    1.3919 H   0  0  0  0  0  0  0  0  0  0  0  0
   -1.1952    3.6682    1.7510 C   0  0  0  0  0  0  0  0  0  0  0  0
   -1.5286    3.8659    2.7592 H   0  0  0  0  0  0  0  0  0  0  0  0
   -1.3086    2.3738    1.2134 C   0  0  0  0  0  0  0  0  0  0  0  0
   -1.7322    1.5771    1.8110 H   0  0  0  0  0  0  0  0  0  0  0  0
   -0.6196    0.1253    1.7539 C   0  0  0  0  0  0  0  0  0  0  0  0
    0.5216    0.0194    2.2054 O   0  0  0  0  0  0  0  0  0  0  0  0
   -1.6152    0.6924    2.4469 N   0  0  0  0  0  0  0  0  0  0  0  0
   -2.5345    0.6914    2.0318 H   0  0  0  0  0  0  0  0  0  0  0  0
   -1.4720    1.2390    3.7941 C   0  0  0  0  0  0  0  0  0  0  0  0
   -0.6345    1.9391    3.8219 H   0  0  0  0  0  0  0  0  0  0  0  0
   -2.3844    1.7580    4.0892 H   0  0  0  0  0  0  0  0  0  0  0  0
   -1.2733    0.4298    4.4995 H   0  0  0  0  0  0  0  0  0  0  0  0
  5  6  2  0  0  0  0
  5  7  1  0  0  0  0
  2  3  1  0  0  0  0
  2  4  1  0  0  0  0
  2  5  1  0  0  0  0
  1  2  1  0  0  0  0
 25 26  2  0  0  0  0
 25 27  1  0  0  0  0
 23 24  1  0  0  0  0
 21 22  1  0  0  0  0
 21 23  2  0  0  0  0
 19 20  1  0  0  0  0
 19 21  1  0  0  0  0
 17 18  1  0  0  0  0
 17 19  2  0  0  0  0
 15 16  1  0  0  0  0
 15 17  1  0  0  0  0
 14 15  2  0  0  0  0
 14 23  1  0  0  0  0
 11 12  1  0  0  0  0
 11 13  1  0  0  0  0
 11 14  1  0  0  0  0
  9 10  1  0  0  0  0
  9 11  1  0  0  0  0
  9 25  1  0  0  0  0
  7  8  1  0  0  0  0
  7  9  1  0  0  0  0
 29 30  1  0  0  0  0
 29 31  1  0  0  0  0
 29 32  1  0  0  0  0
 27 28  1  0  0  0  0
 27 29  1  0  0  0  0
M  END
$$$$
default_name
  -OEChem-02102213163D

 32 32  0     1  0  0  0  0  0999 V2000
   -3.8405   -3.7518    1.6252 H   0  0  0  0  0  0  0  0  0  0  0  0
   -3.7965   -2.8768    0.9782 C   0  0  0  0  0  0  0  0  0  0  0  0
   -4.5465   -2.1527    1.2902 H   0  0  0  0  0  0  0  0  0  0  0  0
   -3.9745   -3.1748   -0.0538 H   0  0  0  0  0  0  0  0  0  0  0  0
   -2.4245   -2.2537    1.0882 C   0  0  0  0  0  0  0  0  0  0  0  0
   -1.5805   -2.7478    1.8242 O   0  0  0  0  0  0  0  0  0  0  0  0
   -2.2045   -1.1637    0.3562 N   0  0  0  0  0  0  0  0  0  0  0  0
   -2.9595   -0.7907   -0.2008 H   0  0  0  0  0  0  0  0  0  0  0  0
   -0.9485   -0.4087    0.3482 C   0  0  1  0  0  0  0  0  0  0  0  0
   -0.1408   -1.0795    0.0507 H   0  0  0  0  0  0  0  0  0  0  0  0
   -1.0432    0.7243   -0.6879 C   0  0  0  0  0  0  0  0  0  0  0  0
   -0.2696    0.5802   -1.4435 H   0  0  0  0  0  0  0  0  0  0  0  0
   -2.0088    0.6629   -1.1921 H   0  0  0  0  0  0  0  0  0  0  0  0
   -0.8730    2.1120   -0.0996 C   0  0  0  0  0  0  0  0  0  0  0  0
   -0.6203    3.2155   -0.9365 C   0  0  0  0  0  0  0  0  0  0  0  0
   -0.5233    3.0761   -2.0039 H   0  0  0  0  0  0  0  0  0  0  0  0
   -0.5047    4.5059   -0.3875 C   0  0  0  0  0  0  0  0  0  0  0  0
   -0.3081    5.3514   -1.0316 H   0  0  0  0  0  0  0  0  0  0  0  0
   -0.6432    4.6955    0.9980 C   0  0  0  0  0  0  0  0  0  0  0  0
   -0.5520    5.6865    1.4200 H   0  0  0  0  0  0  0  0  0  0  0  0
   -0.8942    3.5948    1.8373 C   0  0  0  0  0  0  0  0  0  0  0  0
   -0.9953    3.7396    2.9029 H   0  0  0  0  0  0  0  0  0  0  0  0
   -1.0065    2.3049    1.2887 C   0  0  0  0  0  0  0  0  0  0  0  0
   -1.1963    1.4584    1.9358 H   0  0  0  0  0  0  0  0  0  0  0  0
   -0.6196    0.1253    1.7539 C   0  0  0  0  0  0  0  0  0  0  0  0
    0.5216    0.0194    2.2054 O   0  0  0  0  0  0  0  0  0  0  0  0
   -1.6152    0.6924    2.4469 N   0  0  0  0  0  0  0  0  0  0  0  0
   -2.5345    0.6914    2.0318 H   0  0  0  0  0  0  0  0  0  0  0  0
   -1.4720    1.2390    3.7941 C   0  0  0  0  0  0  0  0  0  0  0  0
   -0.6345    1.9391    3.8219 H   0  0  0  0  0  0  0  0  0  0  0  0
   -2.3844    1.7580    4.0892 H   0  0  0  0  0  0  0  0  0  0  0  0
   -1.2733    0.4298    4.4995 H   0  0  0  0  0  0  0  0  0  0  0  0
  5  6  2  0  0  0  0
  5  7  1  0  0  0  0
  2  3  1  0  0  0  0
  2  4  1  0  0  0  0
  2  5  1  0  0  0  0
  1  2  1  0  0  0  0
 25 26  2  0  0  0  0
 25 27  1  0  0  0  0
 23 24  1  0  0  0  0
 21 22  1  0  0  0  0
 21 23  2  0  0  0  0
 19 20  1  0  0  0  0
 19 21  1  0  0  0  0
 17 18  1  0  0  0  0
 17 19  2  0  0  0  0
 15 16  1  0  0  0  0
 15 17  1  0  0  0  0
 14 15  2  0  0  0  0
 14 23  1  0  0  0  0
 11 12  1  0  0  0  0
 11 13  1  0  0  0  0
 11 14  1  0  0  0  0
  9 10  1  0  0  0  0
  9 11  1  0  0  0  0
  9 25  1  0  0  0  0
  7  8  1  0  0  0  0
  7  9  1  0  0  0  0
 29 30  1  0  0  0  0
 29 31  1  0  0  0  0
 29 32  1  0  0  0  0
 27 28  1  0  0  0  0
 27 29  1  0  0  0  0
M  END
$$$$
default_name
  -OEChem-02102213163D

 32 32  0     1  0  0  0  0  0999 V2000
   -3.8405   -3.7518    1.6252 H   0  0  0  0  0  0  0  0  0  0  0  0
   -3.7965   -2.8768    0.9782 C   0  0  0  0  0  0  0  0  0  0  0  0
   -4.5465   -2.1527    1.2902 H   0  0  0  0  0  0  0  0  0  0  0  0
   -3.9745   -3.1748   -0.0538 H   0  0  0  0  0  0  0  0  0  0  0  0
   -2.4245   -2.2537    1.0882 C   0  0  0  0  0  0  0  0  0  0  0  0
   -1.5805   -2.7478    1.8242 O   0  0  0  0  0  0  0  0  0  0  0  0
   -2.2045   -1.1637    0.3562 N   0  0  0  0  0  0  0  0  0  0  0  0
   -2.9595   -0.7907   -0.2008 H   0  0  0  0  0  0  0  0  0  0  0  0
   -0.9485   -0.4087    0.3482 C   0  0  1  0  0  0  0  0  0  0  0  0
   -0.1408   -1.0795    0.0507 H   0  0  0  0  0  0  0  0  0  0  0  0
   -1.0432    0.7243   -0.6879 C   0  0  0  0  0  0  0  0  0  0  0  0
   -0.4658    0.4471   -1.5711 H   0  0  0  0  0  0  0  0  0  0  0  0
   -2.0835    0.8342   -0.9979 H   0  0  0  0  0  0  0  0  0  0  0  0
   -0.5260    2.0598   -0.1883 C   0  0  0  0  0  0  0  0  0  0  0  0
   -0.5482    3.1916   -1.0252 C   0  0  0  0  0  0  0  0  0  0  0  0
   -0.9139    3.1099   -2.0391 H   0  0  0  0  0  0  0  0  0  0  0  0
   -0.1051    4.4363   -0.5411 C   0  0  0  0  0  0  0  0  0  0  0  0
   -0.1206    5.3035   -1.1863 H   0  0  0  0  0  0  0  0  0  0  0  0
    0.3589    4.5520    0.7802 C   0  0  0  0  0  0  0  0  0  0  0  0
    0.7015    5.5078    1.1514 H   0  0  0  0  0  0  0  0  0  0  0  0
    0.3838    3.4227    1.6187 C   0  0  0  0  0  0  0  0  0  0  0  0
    0.7455    3.5103    2.6327 H   0  0  0  0  0  0  0  0  0  0  0  0
   -0.0560    2.1783    1.1336 C   0  0  0  0  0  0  0  0  0  0  0  0
   -0.0331    1.3095    1.7786 H   0  0  0  0  0  0  0  0  0  0  0  0
   -0.6196    0.1253    1.7539 C   0  0  0  0  0  0  0  0  0  0  0  0
    0.5216    0.0194    2.2054 O   0  0  0  0  0  0  0  0  0  0  0  0
   -1.6152    0.6924    2.4469 N   0  0  0  0  0  0  0  0  0  0  0  0
   -2.5345    0.6914    2.0318 H   0  0  0  0  0  0  0  0  0  0  0  0
   -1.4720    1.2390    3.7941 C   0  0  0  0  0  0  0  0  0  0  0  0
   -0.6345    1.9391    3.8219 H   0  0  0  0  0  0  0  0  0  0  0  0
   -2.3844    1.7580    4.0892 H   0  0  0  0  0  0  0  0  0  0  0  0
   -1.2733    0.4298    4.4995 H   0  0  0  0  0  0  0  0  0  0  0  0
  5  6  2  0  0  0  0
  5  7  1  0  0  0  0
  2  3  1  0  0  0  0
  2  4  1  0  0  0  0
  2  5  1  0  0  0  0
  1  2  1  0  0  0  0
 25 26  2  0  0  0  0
 25 27  1  0  0  0  0
 23 24  1  0  0  0  0
 21 22  1  0  0  0  0
 21 23  2  0  0  0  0
 19 20  1  0  0  0  0
 19 21  1  0  0  0  0
 17 18  1  0  0  0  0
 17 19  2  0  0  0  0
 15 16  1  0  0  0  0
 15 17  1  0  0  0  0
 14 15  2  0  0  0  0
 14 23  1  0  0  0  0
 11 12  1  0  0  0  0
 11 13  1  0  0  0  0
 11 14  1  0  0  0  0
  9 10  1  0  0  0  0
  9 11  1  0  0  0  0
  9 25  1  0  0  0  0
  7  8  1  0  0  0  0
  7  9  1  0  0  0  0
 29 30  1  0  0  0  0
 29 31  1  0  0  0  0
 29 32  1  0  0  0  0
 27 28  1  0  0  0  0
 27 29  1  0  0  0  0
M  END
$$$$
default_name
  -OEChem-02102213163D

 32 32  0     1  0  0  0  0  0999 V2000
   -3.8405   -3.7518    1.6252 H   0  0  0  0  0  0  0  0  0  0  0  0
   -3.7965   -2.8768    0.9782 C   0  0  0  0  0  0  0  0  0  0  0  0
   -4.5465   -2.1527    1.2902 H   0  0  0  0  0  0  0  0  0  0  0  0
   -3.9745   -3.1748   -0.0538 H   0  0  0  0  0  0  0  0  0  0  0  0
   -2.4245   -2.2537    1.0882 C   0  0  0  0  0  0  0  0  0  0  0  0
   -1.5805   -2.7478    1.8242 O   0  0  0  0  0  0  0  0  0  0  0  0
   -2.2045   -1.1637    0.3562 N   0  0  0  0  0  0  0  0  0  0  0  0
   -2.9595   -0.7907   -0.2008 H   0  0  0  0  0  0  0  0  0  0  0  0
   -0.9485   -0.4087    0.3482 C   0  0  1  0  0  0  0  0  0  0  0  0
   -0.1408   -1.0795    0.0507 H   0  0  0  0  0  0  0  0  0  0  0  0
   -1.0432    0.7243   -0.6879 C   0  0  0  0  0  0  0  0  0  0  0  0
   -0.4658    0.4471   -1.5711 H   0  0  0  0  0  0  0  0  0  0  0  0
   -2.0835    0.8342   -0.9979 H   0  0  0  0  0  0  0  0  0  0  0  0
   -0.5260    2.0598   -0.1883 C   0  0  0  0  0  0  0  0  0  0  0  0
   -0.8264    3.2464   -0.8838 C   0  0  0  0  0  0  0  0  0  0  0  0
   -1.4099    3.2098   -1.7929 H   0  0  0  0  0  0  0  0  0  0  0  0
   -0.3778    4.4859   -0.3915 C   0  0  0  0  0  0  0  0  0  0  0  0
   -0.6074    5.3956   -0.9285 H   0  0  0  0  0  0  0  0  0  0  0  0
    0.3697    4.5415    0.7971 C   0  0  0  0  0  0  0  0  0  0  0  0
    0.7163    5.4936    1.1740 H   0  0  0  0  0  0  0  0  0  0  0  0
    0.6729    3.3575    1.4937 C   0  0  0  0  0  0  0  0  0  0  0  0
    1.2521    3.3996    2.4044 H   0  0  0  0  0  0  0  0  0  0  0  0
    0.2273    2.1187    0.9997 C   0  0  0  0  0  0  0  0  0  0  0  0
    0.4641    1.2082    1.5348 H   0  0  0  0  0  0  0  0  0  0  0  0
   -0.6196    0.1253    1.7539 C   0  0  0  0  0  0  0  0  0  0  0  0
    0.5216    0.0194    2.2054 O   0  0  0  0  0  0  0  0  0  0  0  0
   -1.6152    0.6924    2.4469 N   0  0  0  0  0  0  0  0  0  0  0  0
   -2.5345    0.6914    2.0318 H   0  0  0  0  0  0  0  0  0  0  0  0
   -1.4720    1.2390    3.7941 C   0  0  0  0  0  0  0  0  0  0  0  0
   -0.6345    1.9391    3.8219 H   0  0  0  0  0  0  0  0  0  0  0  0
   -2.3844    1.7580    4.0892 H   0  0  0  0  0  0  0  0  0  0  0  0
   -1.2733    0.4298    4.4995 H   0  0  0  0  0  0  0  0  0  0  0  0
  5  6  2  0  0  0  0
  5  7  1  0  0  0  0
  2  3  1  0  0  0  0
  2  4  1  0  0  0  0
  2  5  1  0  0  0  0
  1  2  1  0  0  0  0
 25 26  2  0  0  0  0
 25 27  1  0  0  0  0
 23 24  1  0  0  0  0
 21 22  1  0  0  0  0
 21 23  2  0  0  0  0
 19 20  1  0  0  0  0
 19 21  1  0  0  0  0
 17 18  1  0  0  0  0
 17 19  2  0  0  0  0
 15 16  1  0  0  0  0
 15 17  1  0  0  0  0
 14 15  2  0  0  0  0
 14 23  1  0  0  0  0
 11 12  1  0  0  0  0
 11 13  1  0  0  0  0
 11 14  1  0  0  0  0
  9 10  1  0  0  0  0
  9 11  1  0  0  0  0
  9 25  1  0  0  0  0
  7  8  1  0  0  0  0
  7  9  1  0  0  0  0
 29 30  1  0  0  0  0
 29 31  1  0  0  0  0
 29 32  1  0  0  0  0
 27 28  1  0  0  0  0
 27 29  1  0  0  0  0
M  END
$$$$
default_name
  -OEChem-02102213163D

 32 32  0     1  0  0  0  0  0999 V2000
   -3.8405   -3.7518    1.6252 H   0  0  0  0  0  0  0  0  0  0  0  0
   -3.7965   -2.8768    0.9782 C   0  0  0  0  0  0  0  0  0  0  0  0
   -4.5465   -2.1527    1.2902 H   0  0  0  0  0  0  0  0  0  0  0  0
   -3.9745   -3.1748   -0.0538 H   0  0  0  0  0  0  0  0  0  0  0  0
   -2.4245   -2.2537    1.0882 C   0  0  0  0  0  0  0  0  0  0  0  0
   -1.5805   -2.7478    1.8242 O   0  0  0  0  0  0  0  0  0  0  0  0
   -2.2045   -1.1637    0.3562 N   0  0  0  0  0  0  0  0  0  0  0  0
   -2.9595   -0.7907   -0.2008 H   0  0  0  0  0  0  0  0  0  0  0  0
   -0.9485   -0.4087    0.3482 C   0  0  1  0  0  0  0  0  0  0  0  0
   -0.1408   -1.0795    0.0507 H   0  0  0  0  0  0  0  0  0  0  0  0
   -1.0432    0.7243   -0.6879 C   0  0  0  0  0  0  0  0  0  0  0  0
   -0.4658    0.4471   -1.5711 H   0  0  0  0  0  0  0  0  0  0  0  0
   -2.0835    0.8342   -0.9979 H   0  0  0  0  0  0  0  0  0  0  0  0
   -0.5260    2.0598   -0.1883 C   0  0  0  0  0  0  0  0  0  0  0  0
   -1.0675    3.2632   -0.6789 C   0  0  0  0  0  0  0  0  0  0  0  0
   -1.8413    3.2424   -1.4333 H   0  0  0  0  0  0  0  0  0  0  0  0
   -0.6114    4.4974   -0.1805 C   0  0  0  0  0  0  0  0  0  0  0  0
   -1.0267    5.4203   -0.5604 H   0  0  0  0  0  0  0  0  0  0  0  0
    0.3849    4.5308    0.8100 C   0  0  0  0  0  0  0  0  0  0  0  0
    0.7369    5.4792    1.1912 H   0  0  0  0  0  0  0  0  0  0  0  0
    0.9292    3.3303    1.3013 C   0  0  0  0  0  0  0  0  0  0  0  0
    1.6988    3.3559    2.0588 H   0  0  0  0  0  0  0  0  0  0  0  0
    0.4755    2.0970    0.8006 C   0  0  0  0  0  0  0  0  0  0  0  0
    0.8974    1.1742    1.1771 H   0  0  0  0  0  0  0  0  0  0  0  0
   -0.6196    0.1253    1.7539 C   0  0  0  0  0  0  0  0  0  0  0  0
    0.5216    0.0194    2.2054 O   0  0  0  0  0  0  0  0  0  0  0  0
   -1.6152    0.6924    2.4469 N   0  0  0  0  0  0  0  0  0  0  0  0
   -2.5345    0.6914    2.0318 H   0  0  0  0  0  0  0  0  0  0  0  0
   -1.4720    1.2390    3.7941 C   0  0  0  0  0  0  0  0  0  0  0  0
   -0.6345    1.9391    3.8219 H   0  0  0  0  0  0  0  0  0  0  0  0
   -2.3844    1.7580    4.0892 H   0  0  0  0  0  0  0  0  0  0  0  0
   -1.2733    0.4298    4.4995 H   0  0  0  0  0  0  0  0  0  0  0  0
  5  6  2  0  0  0  0
  5  7  1  0  0  0  0
  2  3  1  0  0  0  0
  2  4  1  0  0  0  0
  2  5  1  0  0  0  0
  1  2  1  0  0  0  0
 25 26  2  0  0  0  0
 25 27  1  0  0  0  0
 23 24  1  0  0  0  0
 21 22  1  0  0  0  0
 21 23  2  0  0  0  0
 19 20  1  0  0  0  0
 19 21  1  0  0  0  0
 17 18  1  0  0  0  0
 17 19  2  0  0  0  0
 15 16  1  0  0  0  0
 15 17  1  0  0  0  0
 14 15  2  0  0  0  0
 14 23  1  0  0  0  0
 11 12  1  0  0  0  0
 11 13  1  0  0  0  0
 11 14  1  0  0  0  0
  9 10  1  0  0  0  0
  9 11  1  0  0  0  0
  9 25  1  0  0  0  0
  7  8  1  0  0  0  0
  7  9  1  0  0  0  0
 29 30  1  0  0  0  0
 29 31  1  0  0  0  0
 29 32  1  0  0  0  0
 27 28  1  0  0  0  0
 27 29  1  0  0  0  0
M  END
$$$$
default_name
  -OEChem-02102213163D

 32 32  0     1  0  0  0  0  0999 V2000
   -3.8405   -3.7518    1.6252 H   0  0  0  0  0  0  0  0  0  0  0  0
   -3.7965   -2.8768    0.9782 C   0  0  0  0  0  0  0  0  0  0  0  0
   -4.5465   -2.1527    1.2902 H   0  0  0  0  0  0  0  0  0  0  0  0
   -3.9745   -3.1748   -0.0538 H   0  0  0  0  0  0  0  0  0  0  0  0
   -2.4245   -2.2537    1.0882 C   0  0  0  0  0  0  0  0  0  0  0  0
   -1.5805   -2.7478    1.8242 O   0  0  0  0  0  0  0  0  0  0  0  0
   -2.2045   -1.1637    0.3562 N   0  0  0  0  0  0  0  0  0  0  0  0
   -2.9595   -0.7907   -0.2008 H   0  0  0  0  0  0  0  0  0  0  0  0
   -0.9485   -0.4087    0.3482 C   0  0  1  0  0  0  0  0  0  0  0  0
   -0.1408   -1.0795    0.0507 H   0  0  0  0  0  0  0  0  0  0  0  0
   -1.0432    0.7243   -0.6879 C   0  0  0  0  0  0  0  0  0  0  0  0
   -0.4658    0.4471   -1.5711 H   0  0  0  0  0  0  0  0  0  0  0  0
   -2.0835    0.8342   -0.9979 H   0  0  0  0  0  0  0  0  0  0  0  0
   -0.5260    2.0598   -0.1883 C   0  0  0  0  0  0  0  0  0  0  0  0
   -1.2552    3.2407   -0.4246 C   0  0  0  0  0  0  0  0  0  0  0  0
   -2.1789    3.2053   -0.9847 H   0  0  0  0  0  0  0  0  0  0  0  0
   -0.7899    4.4700    0.0776 C   0  0  0  0  0  0  0  0  0  0  0  0
   -1.3500    5.3759   -0.1071 H   0  0  0  0  0  0  0  0  0  0  0  0
    0.4034    4.5206    0.8181 C   0  0  0  0  0  0  0  0  0  0  0  0
    0.7620    5.4654    1.2019 H   0  0  0  0  0  0  0  0  0  0  0  0
    1.1352    3.3427    1.0547 C   0  0  0  0  0  0  0  0  0  0  0  0
    2.0552    3.3823    1.6192 H   0  0  0  0  0  0  0  0  0  0  0  0
    0.6717    2.1149    0.5499 C   0  0  0  0  0  0  0  0  0  0  0  0
    1.2374    1.2099    0.7297 H   0  0  0  0  0  0  0  0  0  0  0  0
   -0.6196    0.1253    1.7539 C   0  0  0  0  0  0  0  0  0  0  0  0
    0.5216    0.0194    2.2054 O   0  0  0  0  0  0  0  0  0  0  0  0
   -1.6152    0.6924    2.4469 N   0  0  0  0  0  0  0  0  0  0  0  0
   -2.5345    0.6914    2.0318 H   0  0  0  0  0  0  0  0  0  0  0  0
   -1.4720    1.2390    3.7941 C   0  0  0  0  0  0  0  0  0  0  0  0
   -0.6345    1.9391    3.8219 H   0  0  0  0  0  0  0  0  0  0  0  0
   -2.3844    1.7580    4.0892 H   0  0  0  0  0  0  0  0  0  0  0  0
   -1.2733    0.4298    4.4995 H   0  0  0  0  0  0  0  0  0  0  0  0
  5  6  2  0  0  0  0
  5  7  1  0  0  0  0
  2  3  1  0  0  0  0
  2  4  1  0  0  0  0
  2  5  1  0  0  0  0
  1  2  1  0  0  0  0
 25 26  2  0  0  0  0
 25 27  1  0  0  0  0
 23 24  1  0  0  0  0
 21 22  1  0  0  0  0
 21 23  2  0  0  0  0
 19 20  1  0  0  0  0
 19 21  1  0  0  0  0
 17 18  1  0  0  0  0
 17 19  2  0  0  0  0
 15 16  1  0  0  0  0
 15 17  1  0  0  0  0
 14 15  2  0  0  0  0
 14 23  1  0  0  0  0
 11 12  1  0  0  0  0
 11 13  1  0  0  0  0
 11 14  1  0  0  0  0
  9 10  1  0  0  0  0
  9 11  1  0  0  0  0
  9 25  1  0  0  0  0
  7  8  1  0  0  0  0
  7  9  1  0  0  0  0
 29 30  1  0  0  0  0
 29 31  1  0  0  0  0
 29 32  1  0  0  0  0
 27 28  1  0  0  0  0
 27 29  1  0  0  0  0
M  END
$$$$
default_name
  -OEChem-02102213163D

 32 32  0     1  0  0  0  0  0999 V2000
   -3.8405   -3.7518    1.6252 H   0  0  0  0  0  0  0  0  0  0  0  0
   -3.7965   -2.8768    0.9782 C   0  0  0  0  0  0  0  0  0  0  0  0
   -4.5465   -2.1527    1.2902 H   0  0  0  0  0  0  0  0  0  0  0  0
   -3.9745   -3.1748   -0.0538 H   0  0  0  0  0  0  0  0  0  0  0  0
   -2.4245   -2.2537    1.0882 C   0  0  0  0  0  0  0  0  0  0  0  0
   -1.5805   -2.7478    1.8242 O   0  0  0  0  0  0  0  0  0  0  0  0
   -2.2045   -1.1637    0.3562 N   0  0  0  0  0  0  0  0  0  0  0  0
   -2.9595   -0.7907   -0.2008 H   0  0  0  0  0  0  0  0  0  0  0  0
   -0.9485   -0.4087    0.3482 C   0  0  1  0  0  0  0  0  0  0  0  0
   -0.1408   -1.0795    0.0507 H   0  0  0  0  0  0  0  0  0  0  0  0
   -1.0432    0.7243   -0.6879 C   0  0  0  0  0  0  0  0  0  0  0  0
   -0.4658    0.4471   -1.5711 H   0  0  0  0  0  0  0  0  0  0  0  0
   -2.0835    0.8342   -0.9979 H   0  0  0  0  0  0  0  0  0  0  0  0
   -0.5260    2.0598   -0.1883 C   0  0  0  0  0  0  0  0  0  0  0  0
   -1.3765    3.1805   -0.1382 C   0  0  0  0  0  0  0  0  0  0  0  0
   -2.3996    3.1011   -0.4778 H   0  0  0  0  0  0  0  0  0  0  0  0
   -0.9011    4.4055    0.3652 C   0  0  0  0  0  0  0  0  0  0  0  0
   -1.5551    5.2655    0.4004 H   0  0  0  0  0  0  0  0  0  0  0  0
    0.4240    4.5117    0.8208 C   0  0  0  0  0  0  0  0  0  0  0  0
    0.7899    5.4534    1.2053 H   0  0  0  0  0  0  0  0  0  0  0  0
    1.2770    3.3941    0.7706 C   0  0  0  0  0  0  0  0  0  0  0  0
    2.2971    3.4770    1.1157 H   0  0  0  0  0  0  0  0  0  0  0  0
    0.8025    2.1710    0.2645 C   0  0  0  0  0  0  0  0  0  0  0  0
    1.4607    1.3129    0.2234 H   0  0  0  0  0  0  0  0  0  0  0  0
   -0.6196    0.1253    1.7539 C   0  0  0  0  0  0  0  0  0  0  0  0
    0.5216    0.0194    2.2054 O   0  0  0  0  0  0  0  0  0  0  0  0
   -1.6152    0.6924    2.4469 N   0  0  0  0  0  0  0  0  0  0  0  0
   -2.5345    0.6914    2.0318 H   0  0  0  0  0  0  0  0  0  0  0  0
   -1.4720    1.2390    3.7941 C   0  0  0  0  0  0  0  0  0  0  0  0
   -0.6345    1.9391    3.8219 H   0  0  0  0  0  0  0  0  0  0  0  0
   -2.3844    1.7580    4.0892 H   0  0  0  0  0  0  0  0  0  0  0  0
   -1.2733    0.4298    4.4995 H   0  0  0  0  0  0  0  0  0  0  0  0
  5  6  2  0  0  0  0
  5  7  1  0  0  0  0
  2  3  1  0  0  0  0
  2  4  1  0  0  0  0
  2  5  1  0  0  0  0
  1  2  1  0  0  0  0
 25 26  2  0  0  0  0
 25 27  1  0  0  0  0
 23 24  1  0  0  0  0
 21 22  1  0  0  0  0
 21 23  2  0  0  0  0
 19 20  1  0  0  0  0
 19 21  1  0  0  0  0
 17 18  1  0  0  0  0
 17 19  2  0  0  0  0
 15 16  1  0  0  0  0
 15 17  1  0  0  0  0
 14 15  2  0  0  0  0
 14 23  1  0  0  0  0
 11 12  1  0  0  0  0
 11 13  1  0  0  0  0
 11 14  1  0  0  0  0
  9 10  1  0  0  0  0
  9 11  1  0  0  0  0
  9 25  1  0  0  0  0
  7  8  1  0  0  0  0
  7  9  1  0  0  0  0
 29 30  1  0  0  0  0
 29 31  1  0  0  0  0
 29 32  1  0  0  0  0
 27 28  1  0  0  0  0
 27 29  1  0  0  0  0
M  END
$$$$
default_name
  -OEChem-02102213163D

 32 32  0     1  0  0  0  0  0999 V2000
   -3.8405   -3.7518    1.6252 H   0  0  0  0  0  0  0  0  0  0  0  0
   -3.7965   -2.8768    0.9782 C   0  0  0  0  0  0  0  0  0  0  0  0
   -4.5465   -2.1527    1.2902 H   0  0  0  0  0  0  0  0  0  0  0  0
   -3.9745   -3.1748   -0.0538 H   0  0  0  0  0  0  0  0  0  0  0  0
   -2.4245   -2.2537    1.0882 C   0  0  0  0  0  0  0  0  0  0  0  0
   -1.5805   -2.7478    1.8242 O   0  0  0  0  0  0  0  0  0  0  0  0
   -2.2045   -1.1637    0.3562 N   0  0  0  0  0  0  0  0  0  0  0  0
   -2.9595   -0.7907   -0.2008 H   0  0  0  0  0  0  0  0  0  0  0  0
   -0.9485   -0.4087    0.3482 C   0  0  1  0  0  0  0  0  0  0  0  0
   -0.1408   -1.0795    0.0507 H   0  0  0  0  0  0  0  0  0  0  0  0
   -1.0432    0.7243   -0.6879 C   0  0  0  0  0  0  0  0  0  0  0  0
   -0.4658    0.4471   -1.5711 H   0  0  0  0  0  0  0  0  0  0  0  0
   -2.0835    0.8342   -0.9979 H   0  0  0  0  0  0  0  0  0  0  0  0
   -0.5260    2.0598   -0.1883 C   0  0  0  0  0  0  0  0  0  0  0  0
   -1.4234    3.0868    0.1609 C   0  0  0  0  0  0  0  0  0  0  0  0
   -2.4884    2.9369    0.0530 H   0  0  0  0  0  0  0  0  0  0  0  0
   -0.9376    4.3083    0.6626 C   0  0  0  0  0  0  0  0  0  0  0  0
   -1.6282    5.0965    0.9277 H   0  0  0  0  0  0  0  0  0  0  0  0
    0.4452    4.5045    0.8179 C   0  0  0  0  0  0  0  0  0  0  0  0
    0.8185    5.4438    1.2011 H   0  0  0  0  0  0  0  0  0  0  0  0
    1.3448    3.4809    0.4685 C   0  0  0  0  0  0  0  0  0  0  0  0
    2.4080    3.6335    0.5826 H   0  0  0  0  0  0  0  0  0  0  0  0
    0.8591    2.2615   -0.0360 C   0  0  0  0  0  0  0  0  0  0  0  0
    1.5524    1.4760   -0.3076 H   0  0  0  0  0  0  0  0  0  0  0  0
   -0.6196    0.1253    1.7539 C   0  0  0  0  0  0  0  0  0  0  0  0
    0.5216    0.0194    2.2054 O   0  0  0  0  0  0  0  0  0  0  0  0
   -1.6152    0.6924    2.4469 N   0  0  0  0  0  0  0  0  0  0  0  0
   -2.5345    0.6914    2.0318 H   0  0  0  0  0  0  0  0  0  0  0  0
   -1.4720    1.2390    3.7941 C   0  0  0  0  0  0  0  0  0  0  0  0
   -0.6345    1.9391    3.8219 H   0  0  0  0  0  0  0  0  0  0  0  0
   -2.3844    1.7580    4.0892 H   0  0  0  0  0  0  0  0  0  0  0  0
   -1.2733    0.4298    4.4995 H   0  0  0  0  0  0  0  0  0  0  0  0
  5  6  2  0  0  0  0
  5  7  1  0  0  0  0
  2  3  1  0  0  0  0
  2  4  1  0  0  0  0
  2  5  1  0  0  0  0
  1  2  1  0  0  0  0
 25 26  2  0  0  0  0
 25 27  1  0  0  0  0
 23 24  1  0  0  0  0
 21 22  1  0  0  0  0
 21 23  2  0  0  0  0
 19 20  1  0  0  0  0
 19 21  1  0  0  0  0
 17 18  1  0  0  0  0
 17 19  2  0  0  0  0
 15 16  1  0  0  0  0
 15 17  1  0  0  0  0
 14 15  2  0  0  0  0
 14 23  1  0  0  0  0
 11 12  1  0  0  0  0
 11 13  1  0  0  0  0
 11 14  1  0  0  0  0
  9 10  1  0  0  0  0
  9 11  1  0  0  0  0
  9 25  1  0  0  0  0
  7  8  1  0  0  0  0
  7  9  1  0  0  0  0
 29 30  1  0  0  0  0
 29 31  1  0  0  0  0
 29 32  1  0  0  0  0
 27 28  1  0  0  0  0
 27 29  1  0  0  0  0
M  END
$$$$
default_name
  -OEChem-02102213163D

 32 32  0     1  0  0  0  0  0999 V2000
   -3.8405   -3.7518    1.6252 H   0  0  0  0  0  0  0  0  0  0  0  0
   -3.7965   -2.8768    0.9782 C   0  0  0  0  0  0  0  0  0  0  0  0
   -4.5465   -2.1527    1.2902 H   0  0  0  0  0  0  0  0  0  0  0  0
   -3.9745   -3.1748   -0.0538 H   0  0  0  0  0  0  0  0  0  0  0  0
   -2.4245   -2.2537    1.0882 C   0  0  0  0  0  0  0  0  0  0  0  0
   -1.5805   -2.7478    1.8242 O   0  0  0  0  0  0  0  0  0  0  0  0
   -2.2045   -1.1637    0.3562 N   0  0  0  0  0  0  0  0  0  0  0  0
   -2.9595   -0.7907   -0.2008 H   0  0  0  0  0  0  0  0  0  0  0  0
   -0.9485   -0.4087    0.3482 C   0  0  1  0  0  0  0  0  0  0  0  0
   -0.1408   -1.0795    0.0507 H   0  0  0  0  0  0  0  0  0  0  0  0
   -1.0432    0.7243   -0.6879 C   0  0  0  0  0  0  0  0  0  0  0  0
   -0.4658    0.4471   -1.5711 H   0  0  0  0  0  0  0  0  0  0  0  0
   -2.0835    0.8342   -0.9979 H   0  0  0  0  0  0  0  0  0  0  0  0
   -0.5260    2.0598   -0.1883 C   0  0  0  0  0  0  0  0  0  0  0  0
   -1.3925    2.9659    0.4521 C   0  0  0  0  0  0  0  0  0  0  0  0
   -2.4392    2.7239    0.5714 H   0  0  0  0  0  0  0  0  0  0  0  0
   -0.8967    4.1851    0.9496 C   0  0  0  0  0  0  0  0  0  0  0  0
   -1.5643    4.8806    1.4387 H   0  0  0  0  0  0  0  0  0  0  0  0
    0.4657    4.4997    0.8096 C   0  0  0  0  0  0  0  0  0  0  0  0
    0.8461    5.4374    1.1897 H   0  0  0  0  0  0  0  0  0  0  0  0
    1.3340    3.5972    0.1688 C   0  0  0  0  0  0  0  0  0  0  0  0
    2.3802    3.8412    0.0563 H   0  0  0  0  0  0  0  0  0  0  0  0
    0.8376    2.3803   -0.3312 C   0  0  0  0  0  0  0  0  0  0  0  0
    1.5059    1.6883   -0.8269 H   0  0  0  0  0  0  0  0  0  0  0  0
   -0.6196    0.1253    1.7539 C   0  0  0  0  0  0  0  0  0  0  0  0
    0.5216    0.0194    2.2054 O   0  0  0  0  0  0  0  0  0  0  0  0
   -1.6152    0.6924    2.4469 N   0  0  0  0  0  0  0  0  0  0  0  0
   -2.5345    0.6914    2.0318 H   0  0  0  0  0  0  0  0  0  0  0  0
   -1.4720    1.2390    3.7941 C   0  0  0  0  0  0  0  0  0  0  0  0
   -0.6345    1.9391    3.8219 H   0  0  0  0  0  0  0  0  0  0  0  0
   -2.3844    1.7580    4.0892 H   0  0  0  0  0  0  0  0  0  0  0  0
   -1.2733    0.4298    4.4995 H   0  0  0  0  0  0  0  0  0  0  0  0
  5  6  2  0  0  0  0
  5  7  1  0  0  0  0
  2  3  1  0  0  0  0
  2  4  1  0  0  0  0
  2  5  1  0  0  0  0
  1  2  1  0  0  0  0
 25 26  2  0  0  0  0
 25 27  1  0  0  0  0
 23 24  1  0  0  0  0
 21 22  1  0  0  0  0
 21 23  2  0  0  0  0
 19 20  1  0  0  0  0
 19 21  1  0  0  0  0
 17 18  1  0  0  0  0
 17 19  2  0  0  0  0
 15 16  1  0  0  0  0
 15 17  1  0  0  0  0
 14 15  2  0  0  0  0
 14 23  1  0  0  0  0
 11 12  1  0  0  0  0
 11 13  1  0  0  0  0
 11 14  1  0  0  0  0
  9 10  1  0  0  0  0
  9 11  1  0  0  0  0
  9 25  1  0  0  0  0
  7  8  1  0  0  0  0
  7  9  1  0  0  0  0
 29 30  1  0  0  0  0
 29 31  1  0  0  0  0
 29 32  1  0  0  0  0
 27 28  1  0  0  0  0
 27 29  1  0  0  0  0
M  END
$$$$
default_name
  -OEChem-02102213163D

 32 32  0     1  0  0  0  0  0999 V2000
   -3.8405   -3.7518    1.6252 H   0  0  0  0  0  0  0  0  0  0  0  0
   -3.7965   -2.8768    0.9782 C   0  0  0  0  0  0  0  0  0  0  0  0
   -4.5465   -2.1527    1.2902 H   0  0  0  0  0  0  0  0  0  0  0  0
   -3.9745   -3.1748   -0.0538 H   0  0  0  0  0  0  0  0  0  0  0  0
   -2.4245   -2.2537    1.0882 C   0  0  0  0  0  0  0  0  0  0  0  0
   -1.5805   -2.7478    1.8242 O   0  0  0  0  0  0  0  0  0  0  0  0
   -2.2045   -1.1637    0.3562 N   0  0  0  0  0  0  0  0  0  0  0  0
   -2.9595   -0.7907   -0.2008 H   0  0  0  0  0  0  0  0  0  0  0  0
   -0.9485   -0.4087    0.3482 C   0  0  1  0  0  0  0  0  0  0  0  0
   -0.1408   -1.0795    0.0507 H   0  0  0  0  0  0  0  0  0  0  0  0
   -1.0432    0.7243   -0.6879 C   0  0  0  0  0  0  0  0  0  0  0  0
   -0.4658    0.4471   -1.5711 H   0  0  0  0  0  0  0  0  0  0  0  0
   -2.0835    0.8342   -0.9979 H   0  0  0  0  0  0  0  0  0  0  0  0
   -0.5260    2.0598   -0.1883 C   0  0  0  0  0  0  0  0  0  0  0  0
   -1.2860    2.8260    0.7157 C   0  0  0  0  0  0  0  0  0  0  0  0
   -2.2553    2.4766    1.0422 H   0  0  0  0  0  0  0  0  0  0  0  0
   -0.7813    4.0443    1.2067 C   0  0  0  0  0  0  0  0  0  0  0  0
   -1.3676    4.6323    1.8988 H   0  0  0  0  0  0  0  0  0  0  0  0
    0.4840    4.4975    0.7965 C   0  0  0  0  0  0  0  0  0  0  0  0
    0.8707    5.4346    1.1719 H   0  0  0  0  0  0  0  0  0  0  0  0
    1.2454    3.7350   -0.1079 C   0  0  0  0  0  0  0  0  0  0  0  0
    2.2157    4.0859   -0.4275 H   0  0  0  0  0  0  0  0  0  0  0  0
    0.7393    2.5192   -0.6009 C   0  0  0  0  0  0  0  0  0  0  0  0
    1.3246    1.9352   -1.2993 H   0  0  0  0  0  0  0  0  0  0  0  0
   -0.6196    0.1253    1.7539 C   0  0  0  0  0  0  0  0  0  0  0  0
    0.5216    0.0194    2.2054 O   0  0  0  0  0  0  0  0  0  0  0  0
   -1.6152    0.6924    2.4469 N   0  0  0  0  0  0  0  0  0  0  0  0
   -2.5345    0.6914    2.0318 H   0  0  0  0  0  0  0  0  0  0  0  0
   -1.4720    1.2390    3.7941 C   0  0  0  0  0  0  0  0  0  0  0  0
   -0.6345    1.9391    3.8219 H   0  0  0  0  0  0  0  0  0  0  0  0
   -2.3844    1.7580    4.0892 H   0  0  0  0  0  0  0  0  0  0  0  0
   -1.2733    0.4298    4.4995 H   0  0  0  0  0  0  0  0  0  0  0  0
  5  6  2  0  0  0  0
  5  7  1  0  0  0  0
  2  3  1  0  0  0  0
  2  4  1  0  0  0  0
  2  5  1  0  0  0  0
  1  2  1  0  0  0  0
 25 26  2  0  0  0  0
 25 27  1  0  0  0  0
 23 24  1  0  0  0  0
 21 22  1  0  0  0  0
 21 23  2  0  0  0  0
 19 20  1  0  0  0  0
 19 21  1  0  0  0  0
 17 18  1  0  0  0  0
 17 19  2  0  0  0  0
 15 16  1  0  0  0  0
 15 17  1  0  0  0  0
 14 15  2  0  0  0  0
 14 23  1  0  0  0  0
 11 12  1  0  0  0  0
 11 13  1  0  0  0  0
 11 14  1  0  0  0  0
  9 10  1  0  0  0  0
  9 11  1  0  0  0  0
  9 25  1  0  0  0  0
  7  8  1  0  0  0  0
  7  9  1  0  0  0  0
 29 30  1  0  0  0  0
 29 31  1  0  0  0  0
 29 32  1  0  0  0  0
 27 28  1  0  0  0  0
 27 29  1  0  0  0  0
M  END
$$$$
default_name
  -OEChem-02102213163D

 32 32  0     1  0  0  0  0  0999 V2000
   -3.8405   -3.7518    1.6252 H   0  0  0  0  0  0  0  0  0  0  0  0
   -3.7965   -2.8768    0.9782 C   0  0  0  0  0  0  0  0  0  0  0  0
   -4.5465   -2.1527    1.2902 H   0  0  0  0  0  0  0  0  0  0  0  0
   -3.9745   -3.1748   -0.0538 H   0  0  0  0  0  0  0  0  0  0  0  0
   -2.4245   -2.2537    1.0882 C   0  0  0  0  0  0  0  0  0  0  0  0
   -1.5805   -2.7478    1.8242 O   0  0  0  0  0  0  0  0  0  0  0  0
   -2.2045   -1.1637    0.3562 N   0  0  0  0  0  0  0  0  0  0  0  0
   -2.9595   -0.7907   -0.2008 H   0  0  0  0  0  0  0  0  0  0  0  0
   -0.9485   -0.4087    0.3482 C   0  0  1  0  0  0  0  0  0  0  0  0
   -0.1408   -1.0795    0.0507 H   0  0  0  0  0  0  0  0  0  0  0  0
   -1.0432    0.7243   -0.6879 C   0  0  0  0  0  0  0  0  0  0  0  0
   -0.4658    0.4471   -1.5711 H   0  0  0  0  0  0  0  0  0  0  0  0
   -2.0835    0.8342   -0.9979 H   0  0  0  0  0  0  0  0  0  0  0  0
   -0.5260    2.0598   -0.1883 C   0  0  0  0  0  0  0  0  0  0  0  0
   -1.1111    2.6768    0.9337 C   0  0  0  0  0  0  0  0  0  0  0  0
   -1.9494    2.2119    1.4332 H   0  0  0  0  0  0  0  0  0  0  0  0
   -0.5993    3.8954    1.4162 C   0  0  0  0  0  0  0  0  0  0  0  0
   -1.0517    4.3687    2.2764 H   0  0  0  0  0  0  0  0  0  0  0  0
    0.4989    4.4981    0.7795 C   0  0  0  0  0  0  0  0  0  0  0  0
    0.8906    5.4355    1.1488 H   0  0  0  0  0  0  0  0  0  0  0  0
    1.0850    3.8850   -0.3429 C   0  0  0  0  0  0  0  0  0  0  0  0
    1.9257    4.3509   -0.8357 H   0  0  0  0  0  0  0  0  0  0  0  0
    0.5712    2.6688   -0.8268 C   0  0  0  0  0  0  0  0  0  0  0  0
    1.0209    2.1999   -1.6924 H   0  0  0  0  0  0  0  0  0  0  0  0
   -0.6196    0.1253    1.7539 C   0  0  0  0  0  0  0  0  0  0  0  0
    0.5216    0.0194    2.2054 O   0  0  0  0  0  0  0  0  0  0  0  0
   -1.6152    0.6924    2.4469 N   0  0  0  0  0  0  0  0  0  0  0  0
   -2.5345    0.6914    2.0318 H   0  0  0  0  0  0  0  0  0  0  0  0
   -1.4720    1.2390    3.7941 C   0  0  0  0  0  0  0  0  0  0  0  0
   -0.6345    1.9391    3.8219 H   0  0  0  0  0  0  0  0  0  0  0  0
   -2.3844    1.7580    4.0892 H   0  0  0  0  0  0  0  0  0  0  0  0
   -1.2733    0.4298    4.4995 H   0  0  0  0  0  0  0  0  0  0  0  0
  5  6  2  0  0  0  0
  5  7  1  0  0  0  0
  2  3  1  0  0  0  0
  2  4  1  0  0  0  0
  2  5  1  0  0  0  0
  1  2  1  0  0  0  0
 25 26  2  0  0  0  0
 25 27  1  0  0  0  0
 23 24  1  0  0  0  0
 21 22  1  0  0  0  0
 21 23  2  0  0  0  0
 19 20  1  0  0  0  0
 19 21  1  0  0  0  0
 17 18  1  0  0  0  0
 17 19  2  0  0  0  0
 15 16  1  0  0  0  0
 15 17  1  0  0  0  0
 14 15  2  0  0  0  0
 14 23  1  0  0  0  0
 11 12  1  0  0  0  0
 11 13  1  0  0  0  0
 11 14  1  0  0  0  0
  9 10  1  0  0  0  0
  9 11  1  0  0  0  0
  9 25  1  0  0  0  0
  7  8  1  0  0  0  0
  7  9  1  0  0  0  0
 29 30  1  0  0  0  0
 29 31  1  0  0  0  0
 29 32  1  0  0  0  0
 27 28  1  0  0  0  0
 27 29  1  0  0  0  0
M  END
$$$$
default_name
  -OEChem-02102213163D

 32 32  0     1  0  0  0  0  0999 V2000
   -3.8405   -3.7518    1.6252 H   0  0  0  0  0  0  0  0  0  0  0  0
   -3.7965   -2.8768    0.9782 C   0  0  0  0  0  0  0  0  0  0  0  0
   -4.5465   -2.1527    1.2902 H   0  0  0  0  0  0  0  0  0  0  0  0
   -3.9745   -3.1748   -0.0538 H   0  0  0  0  0  0  0  0  0  0  0  0
   -2.4245   -2.2537    1.0882 C   0  0  0  0  0  0  0  0  0  0  0  0
   -1.5805   -2.7478    1.8242 O   0  0  0  0  0  0  0  0  0  0  0  0
   -2.2045   -1.1637    0.3562 N   0  0  0  0  0  0  0  0  0  0  0  0
   -2.9595   -0.7907   -0.2008 H   0  0  0  0  0  0  0  0  0  0  0  0
   -0.9485   -0.4087    0.3482 C   0  0  1  0  0  0  0  0  0  0  0  0
   -0.1408   -1.0795    0.0507 H   0  0  0  0  0  0  0  0  0  0  0  0
   -1.0432    0.7243   -0.6879 C   0  0  0  0  0  0  0  0  0  0  0  0
   -0.4658    0.4471   -1.5711 H   0  0  0  0  0  0  0  0  0  0  0  0
   -2.0835    0.8342   -0.9979 H   0  0  0  0  0  0  0  0  0  0  0  0
   -0.5260    2.0598   -0.1883 C   0  0  0  0  0  0  0  0  0  0  0  0
   -0.8798    2.5282    1.0913 C   0  0  0  0  0  0  0  0  0  0  0  0
   -1.5422    1.9477    1.7177 H   0  0  0  0  0  0  0  0  0  0  0  0
   -0.3630    3.7486    1.5640 C   0  0  0  0  0  0  0  0  0  0  0  0
   -0.6380    4.1077    2.5458 H   0  0  0  0  0  0  0  0  0  0  0  0
    0.5094    4.5014    0.7597 C   0  0  0  0  0  0  0  0  0  0  0  0
    0.9046    5.4401    1.1220 H   0  0  0  0  0  0  0  0  0  0  0  0
    0.8638    4.0370   -0.5200 C   0  0  0  0  0  0  0  0  0  0  0  0
    1.5300    4.6182   -1.1406 H   0  0  0  0  0  0  0  0  0  0  0  0
    0.3445    2.8190   -0.9935 C   0  0  0  0  0  0  0  0  0  0  0  0
    0.6152    2.4644   -1.9795 H   0  0  0  0  0  0  0  0  0  0  0  0
   -0.6196    0.1253    1.7539 C   0  0  0  0  0  0  0  0  0  0  0  0
    0.5216    0.0194    2.2054 O   0  0  0  0  0  0  0  0  0  0  0  0
   -1.6152    0.6924    2.4469 N   0  0  0  0  0  0  0  0  0  0  0  0
   -2.5345    0.6914    2.0318 H   0  0  0  0  0  0  0  0  0  0  0  0
   -1.4720    1.2390    3.7941 C   0  0  0  0  0  0  0  0  0  0  0  0
   -0.6345    1.9391    3.8219 H   0  0  0  0  0  0  0  0  0  0  0  0
   -2.3844    1.7580    4.0892 H   0  0  0  0  0  0  0  0  0  0  0  0
   -1.2733    0.4298    4.4995 H   0  0  0  0  0  0  0  0  0  0  0  0
  5  6  2  0  0  0  0
  5  7  1  0  0  0  0
  2  3  1  0  0  0  0
  2  4  1  0  0  0  0
  2  5  1  0  0  0  0
  1  2  1  0  0  0  0
 25 26  2  0  0  0  0
 25 27  1  0  0  0  0
 23 24  1  0  0  0  0
 21 22  1  0  0  0  0
 21 23  2  0  0  0  0
 19 20  1  0  0  0  0
 19 21  1  0  0  0  0
 17 18  1  0  0  0  0
 17 19  2  0  0  0  0
 15 16  1  0  0  0  0
 15 17  1  0  0  0  0
 14 15  2  0  0  0  0
 14 23  1  0  0  0  0
 11 12  1  0  0  0  0
 11 13  1  0  0  0  0
 11 14  1  0  0  0  0
  9 10  1  0  0  0  0
  9 11  1  0  0  0  0
  9 25  1  0  0  0  0
  7  8  1  0  0  0  0
  7  9  1  0  0  0  0
 29 30  1  0  0  0  0
 29 31  1  0  0  0  0
 29 32  1  0  0  0  0
 27 28  1  0  0  0  0
 27 29  1  0  0  0  0
M  END
$$$$
default_name
  -OEChem-02102213163D

 32 32  0     1  0  0  0  0  0999 V2000
   -3.8405   -3.7518    1.6252 H   0  0  0  0  0  0  0  0  0  0  0  0
   -3.7965   -2.8768    0.9782 C   0  0  0  0  0  0  0  0  0  0  0  0
   -4.5465   -2.1527    1.2902 H   0  0  0  0  0  0  0  0  0  0  0  0
   -3.9745   -3.1748   -0.0538 H   0  0  0  0  0  0  0  0  0  0  0  0
   -2.4245   -2.2537    1.0882 C   0  0  0  0  0  0  0  0  0  0  0  0
   -1.5805   -2.7478    1.8242 O   0  0  0  0  0  0  0  0  0  0  0  0
   -2.2045   -1.1637    0.3562 N   0  0  0  0  0  0  0  0  0  0  0  0
   -2.9595   -0.7907   -0.2008 H   0  0  0  0  0  0  0  0  0  0  0  0
   -0.9485   -0.4087    0.3482 C   0  0  1  0  0  0  0  0  0  0  0  0
   -0.1408   -1.0795    0.0507 H   0  0  0  0  0  0  0  0  0  0  0  0
   -1.0432    0.7243   -0.6879 C   0  0  0  0  0  0  0  0  0  0  0  0
   -0.4658    0.4471   -1.5711 H   0  0  0  0  0  0  0  0  0  0  0  0
   -2.0835    0.8342   -0.9979 H   0  0  0  0  0  0  0  0  0  0  0  0
   -0.5260    2.0598   -0.1883 C   0  0  0  0  0  0  0  0  0  0  0  0
   -0.6078    2.3906    1.1776 C   0  0  0  0  0  0  0  0  0  0  0  0
   -1.0616    1.7022    1.8765 H   0  0  0  0  0  0  0  0  0  0  0  0
   -0.0885    3.6139    1.6400 C   0  0  0  0  0  0  0  0  0  0  0  0
   -0.1547    3.8670    2.6888 H   0  0  0  0  0  0  0  0  0  0  0  0
    0.5147    4.5073    0.7385 C   0  0  0  0  0  0  0  0  0  0  0  0
    0.9115    5.4482    1.0934 H   0  0  0  0  0  0  0  0  0  0  0  0
    0.5967    4.1805   -0.6273 C   0  0  0  0  0  0  0  0  0  0  0  0
    1.0555    4.8695   -1.3212 H   0  0  0  0  0  0  0  0  0  0  0  0
    0.0747    2.9594   -1.0896 C   0  0  0  0  0  0  0  0  0  0  0  0
    0.1355    2.7106   -2.1411 H   0  0  0  0  0  0  0  0  0  0  0  0
   -0.6196    0.1253    1.7539 C   0  0  0  0  0  0  0  0  0  0  0  0
    0.5216    0.0194    2.2054 O   0  0  0  0  0  0  0  0  0  0  0  0
   -1.6152    0.6924    2.4469 N   0  0  0  0  0  0  0  0  0  0  0  0
   -2.5345    0.6914    2.0318 H   0  0  0  0  0  0  0  0  0  0  0  0
   -1.4720    1.2390    3.7941 C   0  0  0  0  0  0  0  0  0  0  0  0
   -0.6345    1.9391    3.8219 H   0  0  0  0  0  0  0  0  0  0  0  0
   -2.3844    1.7580    4.0892 H   0  0  0  0  0  0  0  0  0  0  0  0
   -1.2733    0.4298    4.4995 H   0  0  0  0  0  0  0  0  0  0  0  0
  5  6  2  0  0  0  0
  5  7  1  0  0  0  0
  2  3  1  0  0  0  0
  2  4  1  0  0  0  0
  2  5  1  0  0  0  0
  1  2  1  0  0  0  0
 25 26  2  0  0  0  0
 25 27  1  0  0  0  0
 23 24  1  0  0  0  0
 21 22  1  0  0  0  0
 21 23  2  0  0  0  0
 19 20  1  0  0  0  0
 19 21  1  0  0  0  0
 17 18  1  0  0  0  0
 17 19  2  0  0  0  0
 15 16  1  0  0  0  0
 15 17  1  0  0  0  0
 14 15  2  0  0  0  0
 14 23  1  0  0  0  0
 11 12  1  0  0  0  0
 11 13  1  0  0  0  0
 11 14  1  0  0  0  0
  9 10  1  0  0  0  0
  9 11  1  0  0  0  0
  9 25  1  0  0  0  0
  7  8  1  0  0  0  0
  7  9  1  0  0  0  0
 29 30  1  0  0  0  0
 29 31  1  0  0  0  0
 29 32  1  0  0  0  0
 27 28  1  0  0  0  0
 27 29  1  0  0  0  0
M  END
$$$$
default_name
  -OEChem-02102213163D

 32 32  0     1  0  0  0  0  0999 V2000
   -3.8405   -3.7518    1.6252 H   0  0  0  0  0  0  0  0  0  0  0  0
   -3.7965   -2.8768    0.9782 C   0  0  0  0  0  0  0  0  0  0  0  0
   -4.5465   -2.1527    1.2902 H   0  0  0  0  0  0  0  0  0  0  0  0
   -3.9745   -3.1748   -0.0538 H   0  0  0  0  0  0  0  0  0  0  0  0
   -2.4245   -2.2537    1.0882 C   0  0  0  0  0  0  0  0  0  0  0  0
   -1.5805   -2.7478    1.8242 O   0  0  0  0  0  0  0  0  0  0  0  0
   -2.2045   -1.1637    0.3562 N   0  0  0  0  0  0  0  0  0  0  0  0
   -2.9595   -0.7907   -0.2008 H   0  0  0  0  0  0  0  0  0  0  0  0
   -0.9485   -0.4087    0.3482 C   0  0  1  0  0  0  0  0  0  0  0  0
   -0.1408   -1.0795    0.0507 H   0  0  0  0  0  0  0  0  0  0  0  0
   -1.0432    0.7243   -0.6879 C   0  0  0  0  0  0  0  0  0  0  0  0
   -0.4658    0.4471   -1.5711 H   0  0  0  0  0  0  0  0  0  0  0  0
   -2.0835    0.8342   -0.9979 H   0  0  0  0  0  0  0  0  0  0  0  0
   -0.5260    2.0598   -0.1883 C   0  0  0  0  0  0  0  0  0  0  0  0
   -0.3136    2.2732    1.1869 C   0  0  0  0  0  0  0  0  0  0  0  0
   -0.5402    1.4920    1.8987 H   0  0  0  0  0  0  0  0  0  0  0  0
    0.2053    3.5005    1.6389 C   0  0  0  0  0  0  0  0  0  0  0  0
    0.3652    3.6632    2.6956 H   0  0  0  0  0  0  0  0  0  0  0  0
    0.5145    4.5153    0.7174 C   0  0  0  0  0  0  0  0  0  0  0  0
    0.9110    5.4590    1.0649 H   0  0  0  0  0  0  0  0  0  0  0  0
    0.3021    4.3059   -0.6574 C   0  0  0  0  0  0  0  0  0  0  0  0
    0.5346    5.0878   -1.3655 H   0  0  0  0  0  0  0  0  0  0  0  0
   -0.2197    3.0805   -1.1085 C   0  0  0  0  0  0  0  0  0  0  0  0
   -0.3858    2.9219   -2.1662 H   0  0  0  0  0  0  0  0  0  0  0  0
   -0.6196    0.1253    1.7539 C   0  0  0  0  0  0  0  0  0  0  0  0
    0.5216    0.0194    2.2054 O   0  0  0  0  0  0  0  0  0  0  0  0
   -1.6152    0.6924    2.4469 N   0  0  0  0  0  0  0  0  0  0  0  0
   -2.5345    0.6914    2.0318 H   0  0  0  0  0  0  0  0  0  0  0  0
   -1.4720    1.2390    3.7941 C   0  0  0  0  0  0  0  0  0  0  0  0
   -0.6345    1.9391    3.8219 H   0  0  0  0  0  0  0  0  0  0  0  0
   -2.3844    1.7580    4.0892 H   0  0  0  0  0  0  0  0  0  0  0  0
   -1.2733    0.4298    4.4995 H   0  0  0  0  0  0  0  0  0  0  0  0
  5  6  2  0  0  0  0
  5  7  1  0  0  0  0
  2  3  1  0  0  0  0
  2  4  1  0  0  0  0
  2  5  1  0  0  0  0
  1  2  1  0  0  0  0
 25 26  2  0  0  0  0
 25 27  1  0  0  0  0
 23 24  1  0  0  0  0
 21 22  1  0  0  0  0
 21 23  2  0  0  0  0
 19 20  1  0  0  0  0
 19 21  1  0  0  0  0
 17 18  1  0  0  0  0
 17 19  2  0  0  0  0
 15 16  1  0  0  0  0
 15 17  1  0  0  0  0
 14 15  2  0  0  0  0
 14 23  1  0  0  0  0
 11 12  1  0  0  0  0
 11 13  1  0  0  0  0
 11 14  1  0  0  0  0
  9 10  1  0  0  0  0
  9 11  1  0  0  0  0
  9 25  1  0  0  0  0
  7  8  1  0  0  0  0
  7  9  1  0  0  0  0
 29 30  1  0  0  0  0
 29 31  1  0  0  0  0
 29 32  1  0  0  0  0
 27 28  1  0  0  0  0
 27 29  1  0  0  0  0
M  END
$$$$
default_name
  -OEChem-02102213163D

 32 32  0     1  0  0  0  0  0999 V2000
   -3.8405   -3.7518    1.6252 H   0  0  0  0  0  0  0  0  0  0  0  0
   -3.7965   -2.8768    0.9782 C   0  0  0  0  0  0  0  0  0  0  0  0
   -4.5465   -2.1527    1.2902 H   0  0  0  0  0  0  0  0  0  0  0  0
   -3.9745   -3.1748   -0.0538 H   0  0  0  0  0  0  0  0  0  0  0  0
   -2.4245   -2.2537    1.0882 C   0  0  0  0  0  0  0  0  0  0  0  0
   -1.5805   -2.7478    1.8242 O   0  0  0  0  0  0  0  0  0  0  0  0
   -2.2045   -1.1637    0.3562 N   0  0  0  0  0  0  0  0  0  0  0  0
   -2.9595   -0.7907   -0.2008 H   0  0  0  0  0  0  0  0  0  0  0  0
   -0.9485   -0.4087    0.3482 C   0  0  1  0  0  0  0  0  0  0  0  0
   -0.1408   -1.0795    0.0507 H   0  0  0  0  0  0  0  0  0  0  0  0
   -1.0432    0.7243   -0.6879 C   0  0  0  0  0  0  0  0  0  0  0  0
   -0.4658    0.4471   -1.5711 H   0  0  0  0  0  0  0  0  0  0  0  0
   -2.0835    0.8342   -0.9979 H   0  0  0  0  0  0  0  0  0  0  0  0
   -0.5260    2.0598   -0.1883 C   0  0  0  0  0  0  0  0  0  0  0  0
   -0.0174    2.1841    1.1185 C   0  0  0  0  0  0  0  0  0  0  0  0
   -0.0135    1.3314    1.7828 H   0  0  0  0  0  0  0  0  0  0  0  0
    0.4986    3.4161    1.5609 C   0  0  0  0  0  0  0  0  0  0  0  0
    0.8863    3.5100    2.5656 H   0  0  0  0  0  0  0  0  0  0  0  0
    0.5088    4.5248    0.6977 C   0  0  0  0  0  0  0  0  0  0  0  0
    0.9031    5.4720    1.0384 H   0  0  0  0  0  0  0  0  0  0  0  0
   -0.0001    4.4045   -0.6083 C   0  0  0  0  0  0  0  0  0  0  0  0
    0.0027    5.2581   -1.2702 H   0  0  0  0  0  0  0  0  0  0  0  0
   -0.5187    3.1740   -1.0491 C   0  0  0  0  0  0  0  0  0  0  0  0
   -0.9129    3.0836   -2.0529 H   0  0  0  0  0  0  0  0  0  0  0  0
   -0.6196    0.1253    1.7539 C   0  0  0  0  0  0  0  0  0  0  0  0
    0.5216    0.0194    2.2054 O   0  0  0  0  0  0  0  0  0  0  0  0
   -1.6152    0.6924    2.4469 N   0  0  0  0  0  0  0  0  0  0  0  0
   -2.5345    0.6914    2.0318 H   0  0  0  0  0  0  0  0  0  0  0  0
   -1.4720    1.2390    3.7941 C   0  0  0  0  0  0  0  0  0  0  0  0
   -0.6345    1.9391    3.8219 H   0  0  0  0  0  0  0  0  0  0  0  0
   -2.3844    1.7580    4.0892 H   0  0  0  0  0  0  0  0  0  0  0  0
   -1.2733    0.4298    4.4995 H   0  0  0  0  0  0  0  0  0  0  0  0
  5  6  2  0  0  0  0
  5  7  1  0  0  0  0
  2  3  1  0  0  0  0
  2  4  1  0  0  0  0
  2  5  1  0  0  0  0
  1  2  1  0  0  0  0
 25 26  2  0  0  0  0
 25 27  1  0  0  0  0
 23 24  1  0  0  0  0
 21 22  1  0  0  0  0
 21 23  2  0  0  0  0
 19 20  1  0  0  0  0
 19 21  1  0  0  0  0
 17 18  1  0  0  0  0
 17 19  2  0  0  0  0
 15 16  1  0  0  0  0
 15 17  1  0  0  0  0
 14 15  2  0  0  0  0
 14 23  1  0  0  0  0
 11 12  1  0  0  0  0
 11 13  1  0  0  0  0
 11 14  1  0  0  0  0
  9 10  1  0  0  0  0
  9 11  1  0  0  0  0
  9 25  1  0  0  0  0
  7  8  1  0  0  0  0
  7  9  1  0  0  0  0
 29 30  1  0  0  0  0
 29 31  1  0  0  0  0
 29 32  1  0  0  0  0
 27 28  1  0  0  0  0
 27 29  1  0  0  0  0
M  END
$$$$
default_name
  -OEChem-02102213163D

 32 32  0     1  0  0  0  0  0999 V2000
   -3.8405   -3.7518    1.6252 H   0  0  0  0  0  0  0  0  0  0  0  0
   -3.7965   -2.8768    0.9782 C   0  0  0  0  0  0  0  0  0  0  0  0
   -4.5465   -2.1527    1.2902 H   0  0  0  0  0  0  0  0  0  0  0  0
   -3.9745   -3.1748   -0.0538 H   0  0  0  0  0  0  0  0  0  0  0  0
   -2.4245   -2.2537    1.0882 C   0  0  0  0  0  0  0  0  0  0  0  0
   -1.5805   -2.7478    1.8242 O   0  0  0  0  0  0  0  0  0  0  0  0
   -2.2045   -1.1637    0.3562 N   0  0  0  0  0  0  0  0  0  0  0  0
   -2.9595   -0.7907   -0.2008 H   0  0  0  0  0  0  0  0  0  0  0  0
   -0.9485   -0.4087    0.3482 C   0  0  1  0  0  0  0  0  0  0  0  0
   -0.1408   -1.0795    0.0507 H   0  0  0  0  0  0  0  0  0  0  0  0
   -1.0432    0.7243   -0.6879 C   0  0  0  0  0  0  0  0  0  0  0  0
   -0.4658    0.4471   -1.5711 H   0  0  0  0  0  0  0  0  0  0  0  0
   -2.0835    0.8342   -0.9979 H   0  0  0  0  0  0  0  0  0  0  0  0
   -0.5260    2.0598   -0.1883 C   0  0  0  0  0  0  0  0  0  0  0  0
    0.2608    2.1293    0.9770 C   0  0  0  0  0  0  0  0  0  0  0  0
    0.4824    1.2314    1.5366 H   0  0  0  0  0  0  0  0  0  0  0  0
    0.7713    3.3665    1.4113 C   0  0  0  0  0  0  0  0  0  0  0  0
    1.3731    3.4179    2.3078 H   0  0  0  0  0  0  0  0  0  0  0  0
    0.4980    4.5353    0.6808 C   0  0  0  0  0  0  0  0  0  0  0  0
    0.8883    5.4862    1.0158 H   0  0  0  0  0  0  0  0  0  0  0  0
   -0.2891    4.4697   -0.4833 C   0  0  0  0  0  0  0  0  0  0  0  0
   -0.5038    5.3689   -1.0419 H   0  0  0  0  0  0  0  0  0  0  0  0
   -0.8019    3.2336   -0.9152 C   0  0  0  0  0  0  0  0  0  0  0  0
   -1.4101    3.1850   -1.8091 H   0  0  0  0  0  0  0  0  0  0  0  0
   -0.6196    0.1253    1.7539 C   0  0  0  0  0  0  0  0  0  0  0  0
    0.5216    0.0194    2.2054 O   0  0  0  0  0  0  0  0  0  0  0  0
   -1.6152    0.6924    2.4469 N   0  0  0  0  0  0  0  0  0  0  0  0
   -2.5345    0.6914    2.0318 H   0  0  0  0  0  0  0  0  0  0  0  0
   -1.4720    1.2390    3.7941 C   0  0  0  0  0  0  0  0  0  0  0  0
   -0.6345    1.9391    3.8219 H   0  0  0  0  0  0  0  0  0  0  0  0
   -2.3844    1.7580    4.0892 H   0  0  0  0  0  0  0  0  0  0  0  0
   -1.2733    0.4298    4.4995 H   0  0  0  0  0  0  0  0  0  0  0  0
  5  6  2  0  0  0  0
  5  7  1  0  0  0  0
  2  3  1  0  0  0  0
  2  4  1  0  0  0  0
  2  5  1  0  0  0  0
  1  2  1  0  0  0  0
 25 26  2  0  0  0  0
 25 27  1  0  0  0  0
 23 24  1  0  0  0  0
 21 22  1  0  0  0  0
 21 23  2  0  0  0  0
 19 20  1  0  0  0  0
 19 21  1  0  0  0  0
 17 18  1  0  0  0  0
 17 19  2  0  0  0  0
 15 16  1  0  0  0  0
 15 17  1  0  0  0  0
 14 15  2  0  0  0  0
 14 23  1  0  0  0  0
 11 12  1  0  0  0  0
 11 13  1  0  0  0  0
 11 14  1  0  0  0  0
  9 10  1  0  0  0  0
  9 11  1  0  0  0  0
  9 25  1  0  0  0  0
  7  8  1  0  0  0  0
  7  9  1  0  0  0  0
 29 30  1  0  0  0  0
 29 31  1  0  0  0  0
 29 32  1  0  0  0  0
 27 28  1  0  0  0  0
 27 29  1  0  0  0  0
M  END
$$$$
default_name
  -OEChem-02102213163D

 32 32  0     1  0  0  0  0  0999 V2000
   -3.8405   -3.7518    1.6252 H   0  0  0  0  0  0  0  0  0  0  0  0
   -3.7965   -2.8768    0.9782 C   0  0  0  0  0  0  0  0  0  0  0  0
   -4.5465   -2.1527    1.2902 H   0  0  0  0  0  0  0  0  0  0  0  0
   -3.9745   -3.1748   -0.0538 H   0  0  0  0  0  0  0  0  0  0  0  0
   -2.4245   -2.2537    1.0882 C   0  0  0  0  0  0  0  0  0  0  0  0
   -1.5805   -2.7478    1.8242 O   0  0  0  0  0  0  0  0  0  0  0  0
   -2.2045   -1.1637    0.3562 N   0  0  0  0  0  0  0  0  0  0  0  0
   -2.9595   -0.7907   -0.2008 H   0  0  0  0  0  0  0  0  0  0  0  0
   -0.9485   -0.4087    0.3482 C   0  0  1  0  0  0  0  0  0  0  0  0
   -0.1408   -1.0795    0.0507 H   0  0  0  0  0  0  0  0  0  0  0  0
   -1.0432    0.7243   -0.6879 C   0  0  0  0  0  0  0  0  0  0  0  0
   -0.4658    0.4471   -1.5711 H   0  0  0  0  0  0  0  0  0  0  0  0
   -2.0835    0.8342   -0.9979 H   0  0  0  0  0  0  0  0  0  0  0  0
   -0.5260    2.0598   -0.1883 C   0  0  0  0  0  0  0  0  0  0  0  0
    0.5019    2.1125    0.7722 C   0  0  0  0  0  0  0  0  0  0  0  0
    0.9139    1.1989    1.1770 H   0  0  0  0  0  0  0  0  0  0  0  0
    1.0049    3.3550    1.2003 C   0  0  0  0  0  0  0  0  0  0  0  0
    1.7924    3.3932    1.9398 H   0  0  0  0  0  0  0  0  0  0  0  0
    0.4828    4.5460    0.6679 C   0  0  0  0  0  0  0  0  0  0  0  0
    0.8677    5.5006    0.9986 H   0  0  0  0  0  0  0  0  0  0  0  0
   -0.5454    4.4970   -0.2909 C   0  0  0  0  0  0  0  0  0  0  0  0
   -0.9506    5.4125   -0.6962 H   0  0  0  0  0  0  0  0  0  0  0  0
   -1.0501    3.2553   -0.7161 C   0  0  0  0  0  0  0  0  0  0  0  0
   -1.8435    3.2190   -1.4514 H   0  0  0  0  0  0  0  0  0  0  0  0
   -0.6196    0.1253    1.7539 C   0  0  0  0  0  0  0  0  0  0  0  0
    0.5216    0.0194    2.2054 O   0  0  0  0  0  0  0  0  0  0  0  0
   -1.6152    0.6924    2.4469 N   0  0  0  0  0  0  0  0  0  0  0  0
   -2.5345    0.6914    2.0318 H   0  0  0  0  0  0  0  0  0  0  0  0
   -1.4720    1.2390    3.7941 C   0  0  0  0  0  0  0  0  0  0  0  0
   -0.6345    1.9391    3.8219 H   0  0  0  0  0  0  0  0  0  0  0  0
   -2.3844    1.7580    4.0892 H   0  0  0  0  0  0  0  0  0  0  0  0
   -1.2733    0.4298    4.4995 H   0  0  0  0  0  0  0  0  0  0  0  0
  5  6  2  0  0  0  0
  5  7  1  0  0  0  0
  2  3  1  0  0  0  0
  2  4  1  0  0  0  0
  2  5  1  0  0  0  0
  1  2  1  0  0  0  0
 25 26  2  0  0  0  0
 25 27  1  0  0  0  0
 23 24  1  0  0  0  0
 21 22  1  0  0  0  0
 21 23  2  0  0  0  0
 19 20  1  0  0  0  0
 19 21  1  0  0  0  0
 17 18  1  0  0  0  0
 17 19  2  0  0  0  0
 15 16  1  0  0  0  0
 15 17  1  0  0  0  0
 14 15  2  0  0  0  0
 14 23  1  0  0  0  0
 11 12  1  0  0  0  0
 11 13  1  0  0  0  0
 11 14  1  0  0  0  0
  9 10  1  0  0  0  0
  9 11  1  0  0  0  0
  9 25  1  0  0  0  0
  7  8  1  0  0  0  0
  7  9  1  0  0  0  0
 29 30  1  0  0  0  0
 29 31  1  0  0  0  0
 29 32  1  0  0  0  0
 27 28  1  0  0  0  0
 27 29  1  0  0  0  0
M  END
$$$$
default_name
  -OEChem-02102213163D

 32 32  0     1  0  0  0  0  0999 V2000
   -3.8405   -3.7518    1.6252 H   0  0  0  0  0  0  0  0  0  0  0  0
   -3.7965   -2.8768    0.9782 C   0  0  0  0  0  0  0  0  0  0  0  0
   -4.5465   -2.1527    1.2902 H   0  0  0  0  0  0  0  0  0  0  0  0
   -3.9745   -3.1748   -0.0538 H   0  0  0  0  0  0  0  0  0  0  0  0
   -2.4245   -2.2537    1.0882 C   0  0  0  0  0  0  0  0  0  0  0  0
   -1.5805   -2.7478    1.8242 O   0  0  0  0  0  0  0  0  0  0  0  0
   -2.2045   -1.1637    0.3562 N   0  0  0  0  0  0  0  0  0  0  0  0
   -2.9595   -0.7907   -0.2008 H   0  0  0  0  0  0  0  0  0  0  0  0
   -0.9485   -0.4087    0.3482 C   0  0  1  0  0  0  0  0  0  0  0  0
   -0.1408   -1.0795    0.0507 H   0  0  0  0  0  0  0  0  0  0  0  0
   -1.0432    0.7243   -0.6879 C   0  0  0  0  0  0  0  0  0  0  0  0
   -0.4658    0.4471   -1.5711 H   0  0  0  0  0  0  0  0  0  0  0  0
   -2.0835    0.8342   -0.9979 H   0  0  0  0  0  0  0  0  0  0  0  0
   -0.5260    2.0598   -0.1883 C   0  0  0  0  0  0  0  0  0  0  0  0
    0.6896    2.1350    0.5179 C   0  0  0  0  0  0  0  0  0  0  0  0
    1.2514    1.2360    0.7284 H   0  0  0  0  0  0  0  0  0  0  0  0
    1.1834    3.3824    0.9422 C   0  0  0  0  0  0  0  0  0  0  0  0
    2.1157    3.4376    1.4865 H   0  0  0  0  0  0  0  0  0  0  0  0
    0.4643    4.5562    0.6598 C   0  0  0  0  0  0  0  0  0  0  0  0
    0.8426    5.5143    0.9879 H   0  0  0  0  0  0  0  0  0  0  0  0
   -0.7514    4.4845   -0.0443 C   0  0  0  0  0  0  0  0  0  0  0  0
   -1.3070    5.3861   -0.2567 H   0  0  0  0  0  0  0  0  0  0  0  0
   -1.2463    3.2374   -0.4654 C   0  0  0  0  0  0  0  0  0  0  0  0
   -2.1834    3.1833   -1.0041 H   0  0  0  0  0  0  0  0  0  0  0  0
   -0.6196    0.1253    1.7539 C   0  0  0  0  0  0  0  0  0  0  0  0
    0.5216    0.0194    2.2054 O   0  0  0  0  0  0  0  0  0  0  0  0
   -1.6152    0.6924    2.4469 N   0  0  0  0  0  0  0  0  0  0  0  0
   -2.5345    0.6914    2.0318 H   0  0  0  0  0  0  0  0  0  0  0  0
   -1.4720    1.2390    3.7941 C   0  0  0  0  0  0  0  0  0  0  0  0
   -0.6345    1.9391    3.8219 H   0  0  0  0  0  0  0  0  0  0  0  0
   -2.3844    1.7580    4.0892 H   0  0  0  0  0  0  0  0  0  0  0  0
   -1.2733    0.4298    4.4995 H   0  0  0  0  0  0  0  0  0  0  0  0
  5  6  2  0  0  0  0
  5  7  1  0  0  0  0
  2  3  1  0  0  0  0
  2  4  1  0  0  0  0
  2  5  1  0  0  0  0
  1  2  1  0  0  0  0
 25 26  2  0  0  0  0
 25 27  1  0  0  0  0
 23 24  1  0  0  0  0
 21 22  1  0  0  0  0
 21 23  2  0  0  0  0
 19 20  1  0  0  0  0
 19 21  1  0  0  0  0
 17 18  1  0  0  0  0
 17 19  2  0  0  0  0
 15 16  1  0  0  0  0
 15 17  1  0  0  0  0
 14 15  2  0  0  0  0
 14 23  1  0  0  0  0
 11 12  1  0  0  0  0
 11 13  1  0  0  0  0
 11 14  1  0  0  0  0
  9 10  1  0  0  0  0
  9 11  1  0  0  0  0
  9 25  1  0  0  0  0
  7  8  1  0  0  0  0
  7  9  1  0  0  0  0
 29 30  1  0  0  0  0
 29 31  1  0  0  0  0
 29 32  1  0  0  0  0
 27 28  1  0  0  0  0
 27 29  1  0  0  0  0
M  END
$$$$
default_name
  -OEChem-02102213163D

 32 32  0     1  0  0  0  0  0999 V2000
   -3.8405   -3.7518    1.6252 H   0  0  0  0  0  0  0  0  0  0  0  0
   -3.7965   -2.8768    0.9782 C   0  0  0  0  0  0  0  0  0  0  0  0
   -4.5465   -2.1527    1.2902 H   0  0  0  0  0  0  0  0  0  0  0  0
   -3.9745   -3.1748   -0.0538 H   0  0  0  0  0  0  0  0  0  0  0  0
   -2.4245   -2.2537    1.0882 C   0  0  0  0  0  0  0  0  0  0  0  0
   -1.5805   -2.7478    1.8242 O   0  0  0  0  0  0  0  0  0  0  0  0
   -2.2045   -1.1637    0.3562 N   0  0  0  0  0  0  0  0  0  0  0  0
   -2.9595   -0.7907   -0.2008 H   0  0  0  0  0  0  0  0  0  0  0  0
   -0.9485   -0.4087    0.3482 C   0  0  1  0  0  0  0  0  0  0  0  0
   -0.1408   -1.0795    0.0507 H   0  0  0  0  0  0  0  0  0  0  0  0
   -1.0432    0.7243   -0.6879 C   0  0  0  0  0  0  0  0  0  0  0  0
   -0.4658    0.4471   -1.5711 H   0  0  0  0  0  0  0  0  0  0  0  0
   -2.0835    0.8342   -0.9979 H   0  0  0  0  0  0  0  0  0  0  0  0
   -0.5260    2.0598   -0.1883 C   0  0  0  0  0  0  0  0  0  0  0  0
    0.8109    2.1952    0.2314 C   0  0  0  0  0  0  0  0  0  0  0  0
    1.4721    1.3402    0.2215 H   0  0  0  0  0  0  0  0  0  0  0  0
    1.2946    3.4469    0.6546 C   0  0  0  0  0  0  0  0  0  0  0  0
    2.3208    3.5481    0.9789 H   0  0  0  0  0  0  0  0  0  0  0  0
    0.4437    4.5652    0.6571 C   0  0  0  0  0  0  0  0  0  0  0  0
    0.8147    5.5264    0.9845 H   0  0  0  0  0  0  0  0  0  0  0  0
   -0.8932    4.4331    0.2398 C   0  0  0  0  0  0  0  0  0  0  0  0
   -1.5489    5.2914    0.2468 H   0  0  0  0  0  0  0  0  0  0  0  0
   -1.3772    3.1813   -0.1800 C   0  0  0  0  0  0  0  0  0  0  0  0
   -2.4068    3.0803   -0.4977 H   0  0  0  0  0  0  0  0  0  0  0  0
   -0.6196    0.1253    1.7539 C   0  0  0  0  0  0  0  0  0  0  0  0
    0.5216    0.0194    2.2054 O   0  0  0  0  0  0  0  0  0  0  0  0
   -1.6152    0.6924    2.4469 N   0  0  0  0  0  0  0  0  0  0  0  0
   -2.5345    0.6914    2.0318 H   0  0  0  0  0  0  0  0  0  0  0  0
   -1.4720    1.2390    3.7941 C   0  0  0  0  0  0  0  0  0  0  0  0
   -0.6345    1.9391    3.8219 H   0  0  0  0  0  0  0  0  0  0  0  0
   -2.3844    1.7580    4.0892 H   0  0  0  0  0  0  0  0  0  0  0  0
   -1.2733    0.4298    4.4995 H   0  0  0  0  0  0  0  0  0  0  0  0
  5  6  2  0  0  0  0
  5  7  1  0  0  0  0
  2  3  1  0  0  0  0
  2  4  1  0  0  0  0
  2  5  1  0  0  0  0
  1  2  1  0  0  0  0
 25 26  2  0  0  0  0
 25 27  1  0  0  0  0
 23 24  1  0  0  0  0
 21 22  1  0  0  0  0
 21 23  2  0  0  0  0
 19 20  1  0  0  0  0
 19 21  1  0  0  0  0
 17 18  1  0  0  0  0
 17 19  2  0  0  0  0
 15 16  1  0  0  0  0
 15 17  1  0  0  0  0
 14 15  2  0  0  0  0
 14 23  1  0  0  0  0
 11 12  1  0  0  0  0
 11 13  1  0  0  0  0
 11 14  1  0  0  0  0
  9 10  1  0  0  0  0
  9 11  1  0  0  0  0
  9 25  1  0  0  0  0
  7  8  1  0  0  0  0
  7  9  1  0  0  0  0
 29 30  1  0  0  0  0
 29 31  1  0  0  0  0
 29 32  1  0  0  0  0
 27 28  1  0  0  0  0
 27 29  1  0  0  0  0
M  END
$$$$
default_name
  -OEChem-02102213163D

 32 32  0     1  0  0  0  0  0999 V2000
   -3.8405   -3.7518    1.6252 H   0  0  0  0  0  0  0  0  0  0  0  0
   -3.7965   -2.8768    0.9782 C   0  0  0  0  0  0  0  0  0  0  0  0
   -4.5465   -2.1527    1.2902 H   0  0  0  0  0  0  0  0  0  0  0  0
   -3.9745   -3.1748   -0.0538 H   0  0  0  0  0  0  0  0  0  0  0  0
   -2.4245   -2.2537    1.0882 C   0  0  0  0  0  0  0  0  0  0  0  0
   -1.5805   -2.7478    1.8242 O   0  0  0  0  0  0  0  0  0  0  0  0
   -2.2045   -1.1637    0.3562 N   0  0  0  0  0  0  0  0  0  0  0  0
   -2.9595   -0.7907   -0.2008 H   0  0  0  0  0  0  0  0  0  0  0  0
   -0.9485   -0.4087    0.3482 C   0  0  1  0  0  0  0  0  0  0  0  0
   -0.1408   -1.0795    0.0507 H   0  0  0  0  0  0  0  0  0  0  0  0
   -1.0432    0.7243   -0.6879 C   0  0  0  0  0  0  0  0  0  0  0  0
   -0.4658    0.4471   -1.5711 H   0  0  0  0  0  0  0  0  0  0  0  0
   -2.0835    0.8342   -0.9979 H   0  0  0  0  0  0  0  0  0  0  0  0
   -0.5260    2.0598   -0.1883 C   0  0  0  0  0  0  0  0  0  0  0  0
    0.8578    2.2889   -0.0676 C   0  0  0  0  0  0  0  0  0  0  0  0
    1.5609    1.5044   -0.3093 H   0  0  0  0  0  0  0  0  0  0  0  0
    1.3311    3.5441    0.3572 C   0  0  0  0  0  0  0  0  0  0  0  0
    2.3939    3.7170    0.4517 H   0  0  0  0  0  0  0  0  0  0  0  0
    0.4225    4.5724    0.6600 C   0  0  0  0  0  0  0  0  0  0  0  0
    0.7860    5.5359    0.9887 H   0  0  0  0  0  0  0  0  0  0  0  0
   -0.9610    4.3463    0.5419 C   0  0  0  0  0  0  0  0  0  0  0  0
   -1.6597    5.1349    0.7799 H   0  0  0  0  0  0  0  0  0  0  0  0
   -1.4338    3.0908    0.1205 C   0  0  0  0  0  0  0  0  0  0  0  0
   -2.4984    2.9172    0.0333 H   0  0  0  0  0  0  0  0  0  0  0  0
   -0.6196    0.1253    1.7539 C   0  0  0  0  0  0  0  0  0  0  0  0
    0.5216    0.0194    2.2054 O   0  0  0  0  0  0  0  0  0  0  0  0
   -1.6152    0.6924    2.4469 N   0  0  0  0  0  0  0  0  0  0  0  0
   -2.5345    0.6914    2.0318 H   0  0  0  0  0  0  0  0  0  0  0  0
   -1.4720    1.2390    3.7941 C   0  0  0  0  0  0  0  0  0  0  0  0
   -0.6345    1.9391    3.8219 H   0  0  0  0  0  0  0  0  0  0  0  0
   -2.3844    1.7580    4.0892 H   0  0  0  0  0  0  0  0  0  0  0  0
   -1.2733    0.4298    4.4995 H   0  0  0  0  0  0  0  0  0  0  0  0
  5  6  2  0  0  0  0
  5  7  1  0  0  0  0
  2  3  1  0  0  0  0
  2  4  1  0  0  0  0
  2  5  1  0  0  0  0
  1  2  1  0  0  0  0
 25 26  2  0  0  0  0
 25 27  1  0  0  0  0
 23 24  1  0  0  0  0
 21 22  1  0  0  0  0
 21 23  2  0  0  0  0
 19 20  1  0  0  0  0
 19 21  1  0  0  0  0
 17 18  1  0  0  0  0
 17 19  2  0  0  0  0
 15 16  1  0  0  0  0
 15 17  1  0  0  0  0
 14 15  2  0  0  0  0
 14 23  1  0  0  0  0
 11 12  1  0  0  0  0
 11 13  1  0  0  0  0
 11 14  1  0  0  0  0
  9 10  1  0  0  0  0
  9 11  1  0  0  0  0
  9 25  1  0  0  0  0
  7  8  1  0  0  0  0
  7  9  1  0  0  0  0
 29 30  1  0  0  0  0
 29 31  1  0  0  0  0
 29 32  1  0  0  0  0
 27 28  1  0  0  0  0
 27 29  1  0  0  0  0
M  END
$$$$
default_name
  -OEChem-02102213163D

 32 32  0     1  0  0  0  0  0999 V2000
   -3.8405   -3.7518    1.6252 H   0  0  0  0  0  0  0  0  0  0  0  0
   -3.7965   -2.8768    0.9782 C   0  0  0  0  0  0  0  0  0  0  0  0
   -4.5465   -2.1527    1.2902 H   0  0  0  0  0  0  0  0  0  0  0  0
   -3.9745   -3.1748   -0.0538 H   0  0  0  0  0  0  0  0  0  0  0  0
   -2.4245   -2.2537    1.0882 C   0  0  0  0  0  0  0  0  0  0  0  0
   -1.5805   -2.7478    1.8242 O   0  0  0  0  0  0  0  0  0  0  0  0
   -2.2045   -1.1637    0.3562 N   0  0  0  0  0  0  0  0  0  0  0  0
   -2.9595   -0.7907   -0.2008 H   0  0  0  0  0  0  0  0  0  0  0  0
   -0.9485   -0.4087    0.3482 C   0  0  1  0  0  0  0  0  0  0  0  0
   -0.1408   -1.0795    0.0507 H   0  0  0  0  0  0  0  0  0  0  0  0
   -1.0432    0.7243   -0.6879 C   0  0  0  0  0  0  0  0  0  0  0  0
   -0.4658    0.4471   -1.5711 H   0  0  0  0  0  0  0  0  0  0  0  0
   -2.0835    0.8342   -0.9979 H   0  0  0  0  0  0  0  0  0  0  0  0
   -0.5260    2.0598   -0.1883 C   0  0  0  0  0  0  0  0  0  0  0  0
    0.8269    2.4098   -0.3588 C   0  0  0  0  0  0  0  0  0  0  0  0
    1.5117    1.7174   -0.8277 H   0  0  0  0  0  0  0  0  0  0  0  0
    1.2902    3.6673    0.0702 C   0  0  0  0  0  0  0  0  0  0  0  0
    2.3300    3.9330   -0.0594 H   0  0  0  0  0  0  0  0  0  0  0  0
    0.4020    4.5772    0.6683 C   0  0  0  0  0  0  0  0  0  0  0  0
    0.7585    5.5423    1.0000 H   0  0  0  0  0  0  0  0  0  0  0  0
   -0.9502    4.2301    0.8416 C   0  0  0  0  0  0  0  0  0  0  0  0
   -1.6319    4.9273    1.3062 H   0  0  0  0  0  0  0  0  0  0  0  0
   -1.4122    2.9720    0.4157 C   0  0  0  0  0  0  0  0  0  0  0  0
   -2.4520    2.7049    0.5526 H   0  0  0  0  0  0  0  0  0  0  0  0
   -0.6196    0.1253    1.7539 C   0  0  0  0  0  0  0  0  0  0  0  0
    0.5216    0.0194    2.2054 O   0  0  0  0  0  0  0  0  0  0  0  0
   -1.6152    0.6924    2.4469 N   0  0  0  0  0  0  0  0  0  0  0  0
   -2.5345    0.6914    2.0318 H   0  0  0  0  0  0  0  0  0  0  0  0
   -1.4720    1.2390    3.7941 C   0  0  0  0  0  0  0  0  0  0  0  0
   -0.6345    1.9391    3.8219 H   0  0  0  0  0  0  0  0  0  0  0  0
   -2.3844    1.7580    4.0892 H   0  0  0  0  0  0  0  0  0  0  0  0
   -1.2733    0.4298    4.4995 H   0  0  0  0  0  0  0  0  0  0  0  0
  5  6  2  0  0  0  0
  5  7  1  0  0  0  0
  2  3  1  0  0  0  0
  2  4  1  0  0  0  0
  2  5  1  0  0  0  0
  1  2  1  0  0  0  0
 25 26  2  0  0  0  0
 25 27  1  0  0  0  0
 23 24  1  0  0  0  0
 21 22  1  0  0  0  0
 21 23  2  0  0  0  0
 19 20  1  0  0  0  0
 19 21  1  0  0  0  0
 17 18  1  0  0  0  0
 17 19  2  0  0  0  0
 15 16  1  0  0  0  0
 15 17  1  0  0  0  0
 14 15  2  0  0  0  0
 14 23  1  0  0  0  0
 11 12  1  0  0  0  0
 11 13  1  0  0  0  0
 11 14  1  0  0  0  0
  9 10  1  0  0  0  0
  9 11  1  0  0  0  0
  9 25  1  0  0  0  0
  7  8  1  0  0  0  0
  7  9  1  0  0  0  0
 29 30  1  0  0  0  0
 29 31  1  0  0  0  0
 29 32  1  0  0  0  0
 27 28  1  0  0  0  0
 27 29  1  0  0  0  0
M  END
$$$$
default_name
  -OEChem-02102213163D

 32 32  0     1  0  0  0  0  0999 V2000
   -3.8405   -3.7518    1.6252 H   0  0  0  0  0  0  0  0  0  0  0  0
   -3.7965   -2.8768    0.9782 C   0  0  0  0  0  0  0  0  0  0  0  0
   -4.5465   -2.1527    1.2902 H   0  0  0  0  0  0  0  0  0  0  0  0
   -3.9745   -3.1748   -0.0538 H   0  0  0  0  0  0  0  0  0  0  0  0
   -2.4245   -2.2537    1.0882 C   0  0  0  0  0  0  0  0  0  0  0  0
   -1.5805   -2.7478    1.8242 O   0  0  0  0  0  0  0  0  0  0  0  0
   -2.2045   -1.1637    0.3562 N   0  0  0  0  0  0  0  0  0  0  0  0
   -2.9595   -0.7907   -0.2008 H   0  0  0  0  0  0  0  0  0  0  0  0
   -0.9485   -0.4087    0.3482 C   0  0  1  0  0  0  0  0  0  0  0  0
   -0.1408   -1.0795    0.0507 H   0  0  0  0  0  0  0  0  0  0  0  0
   -1.0432    0.7243   -0.6879 C   0  0  0  0  0  0  0  0  0  0  0  0
   -0.4658    0.4471   -1.5711 H   0  0  0  0  0  0  0  0  0  0  0  0
   -2.0835    0.8342   -0.9979 H   0  0  0  0  0  0  0  0  0  0  0  0
   -0.5260    2.0598   -0.1883 C   0  0  0  0  0  0  0  0  0  0  0  0
    0.7204    2.5497   -0.6224 C   0  0  0  0  0  0  0  0  0  0  0  0
    1.3279    1.9647   -1.2985 H   0  0  0  0  0  0  0  0  0  0  0  0
    1.1748    3.8081   -0.1869 C   0  0  0  0  0  0  0  0  0  0  0  0
    2.1333    4.1812   -0.5194 H   0  0  0  0  0  0  0  0  0  0  0  0
    0.3837    4.5794    0.6814 C   0  0  0  0  0  0  0  0  0  0  0  0
    0.7339    5.5452    1.0179 H   0  0  0  0  0  0  0  0  0  0  0  0
   -0.8616    4.0922    1.1183 C   0  0  0  0  0  0  0  0  0  0  0  0
   -1.4674    4.6826    1.7900 H   0  0  0  0  0  0  0  0  0  0  0  0
   -1.3140    2.8331    0.6854 C   0  0  0  0  0  0  0  0  0  0  0  0
   -2.2707    2.4580    1.0250 H   0  0  0  0  0  0  0  0  0  0  0  0
   -0.6196    0.1253    1.7539 C   0  0  0  0  0  0  0  0  0  0  0  0
    0.5216    0.0194    2.2054 O   0  0  0  0  0  0  0  0  0  0  0  0
   -1.6152    0.6924    2.4469 N   0  0  0  0  0  0  0  0  0  0  0  0
   -2.5345    0.6914    2.0318 H   0  0  0  0  0  0  0  0  0  0  0  0
   -1.4720    1.2390    3.7941 C   0  0  0  0  0  0  0  0  0  0  0  0
   -0.6345    1.9391    3.8219 H   0  0  0  0  0  0  0  0  0  0  0  0
   -2.3844    1.7580    4.0892 H   0  0  0  0  0  0  0  0  0  0  0  0
   -1.2733    0.4298    4.4995 H   0  0  0  0  0  0  0  0  0  0  0  0
  5  6  2  0  0  0  0
  5  7  1  0  0  0  0
  2  3  1  0  0  0  0
  2  4  1  0  0  0  0
  2  5  1  0  0  0  0
  1  2  1  0  0  0  0
 25 26  2  0  0  0  0
 25 27  1  0  0  0  0
 23 24  1  0  0  0  0
 21 22  1  0  0  0  0
 21 23  2  0  0  0  0
 19 20  1  0  0  0  0
 19 21  1  0  0  0  0
 17 18  1  0  0  0  0
 17 19  2  0  0  0  0
 15 16  1  0  0  0  0
 15 17  1  0  0  0  0
 14 15  2  0  0  0  0
 14 23  1  0  0  0  0
 11 12  1  0  0  0  0
 11 13  1  0  0  0  0
 11 14  1  0  0  0  0
  9 10  1  0  0  0  0
  9 11  1  0  0  0  0
  9 25  1  0  0  0  0
  7  8  1  0  0  0  0
  7  9  1  0  0  0  0
 29 30  1  0  0  0  0
 29 31  1  0  0  0  0
 29 32  1  0  0  0  0
 27 28  1  0  0  0  0
 27 29  1  0  0  0  0
M  END
$$$$
default_name
  -OEChem-02102213163D

 32 32  0     1  0  0  0  0  0999 V2000
   -3.8405   -3.7518    1.6252 H   0  0  0  0  0  0  0  0  0  0  0  0
   -3.7965   -2.8768    0.9782 C   0  0  0  0  0  0  0  0  0  0  0  0
   -4.5465   -2.1527    1.2902 H   0  0  0  0  0  0  0  0  0  0  0  0
   -3.9745   -3.1748   -0.0538 H   0  0  0  0  0  0  0  0  0  0  0  0
   -2.4245   -2.2537    1.0882 C   0  0  0  0  0  0  0  0  0  0  0  0
   -1.5805   -2.7478    1.8242 O   0  0  0  0  0  0  0  0  0  0  0  0
   -2.2045   -1.1637    0.3562 N   0  0  0  0  0  0  0  0  0  0  0  0
   -2.9595   -0.7907   -0.2008 H   0  0  0  0  0  0  0  0  0  0  0  0
   -0.9485   -0.4087    0.3482 C   0  0  1  0  0  0  0  0  0  0  0  0
   -0.1408   -1.0795    0.0507 H   0  0  0  0  0  0  0  0  0  0  0  0
   -1.0432    0.7243   -0.6879 C   0  0  0  0  0  0  0  0  0  0  0  0
   -0.4658    0.4471   -1.5711 H   0  0  0  0  0  0  0  0  0  0  0  0
   -2.0835    0.8342   -0.9979 H   0  0  0  0  0  0  0  0  0  0  0  0
   -0.5260    2.0598   -0.1883 C   0  0  0  0  0  0  0  0  0  0  0  0
    0.5455    2.6990   -0.8405 C   0  0  0  0  0  0  0  0  0  0  0  0
    1.0219    2.2294   -1.6895 H   0  0  0  0  0  0  0  0  0  0  0  0
    0.9928    3.9570   -0.3964 C   0  0  0  0  0  0  0  0  0  0  0  0
    1.8174    4.4448   -0.8970 H   0  0  0  0  0  0  0  0  0  0  0  0
    0.3688    4.5788    0.6984 C   0  0  0  0  0  0  0  0  0  0  0  0
    0.7139    5.5443    1.0410 H   0  0  0  0  0  0  0  0  0  0  0  0
   -0.7012    3.9422    1.3533 C   0  0  0  0  0  0  0  0  0  0  0  0
   -1.1775    4.4176    2.1982 H   0  0  0  0  0  0  0  0  0  0  0  0
   -1.1458    2.6835    0.9113 C   0  0  0  0  0  0  0  0  0  0  0  0
   -1.9669    2.1933    1.4181 H   0  0  0  0  0  0  0  0  0  0  0  0
   -0.6196    0.1253    1.7539 C   0  0  0  0  0  0  0  0  0  0  0  0
    0.5216    0.0194    2.2054 O   0  0  0  0  0  0  0  0  0  0  0  0
   -1.6152    0.6924    2.4469 N   0  0  0  0  0  0  0  0  0  0  0  0
   -2.5345    0.6914    2.0318 H   0  0  0  0  0  0  0  0  0  0  0  0
   -1.4720    1.2390    3.7941 C   0  0  0  0  0  0  0  0  0  0  0  0
   -0.6345    1.9391    3.8219 H   0  0  0  0  0  0  0  0  0  0  0  0
   -2.3844    1.7580    4.0892 H   0  0  0  0  0  0  0  0  0  0  0  0
   -1.2733    0.4298    4.4995 H   0  0  0  0  0  0  0  0  0  0  0  0
  5  6  2  0  0  0  0
  5  7  1  0  0  0  0
  2  3  1  0  0  0  0
  2  4  1  0  0  0  0
  2  5  1  0  0  0  0
  1  2  1  0  0  0  0
 25 26  2  0  0  0  0
 25 27  1  0  0  0  0
 23 24  1  0  0  0  0
 21 22  1  0  0  0  0
 21 23  2  0  0  0  0
 19 20  1  0  0  0  0
 19 21  1  0  0  0  0
 17 18  1  0  0  0  0
 17 19  2  0  0  0  0
 15 16  1  0  0  0  0
 15 17  1  0  0  0  0
 14 15  2  0  0  0  0
 14 23  1  0  0  0  0
 11 12  1  0  0  0  0
 11 13  1  0  0  0  0
 11 14  1  0  0  0  0
  9 10  1  0  0  0  0
  9 11  1  0  0  0  0
  9 25  1  0  0  0  0
  7  8  1  0  0  0  0
  7  9  1  0  0  0  0
 29 30  1  0  0  0  0
 29 31  1  0  0  0  0
 29 32  1  0  0  0  0
 27 28  1  0  0  0  0
 27 29  1  0  0  0  0
M  END
$$$$
default_name
  -OEChem-02102213163D

 32 32  0     1  0  0  0  0  0999 V2000
   -3.8405   -3.7518    1.6252 H   0  0  0  0  0  0  0  0  0  0  0  0
   -3.7965   -2.8768    0.9782 C   0  0  0  0  0  0  0  0  0  0  0  0
   -4.5465   -2.1527    1.2902 H   0  0  0  0  0  0  0  0  0  0  0  0
   -3.9745   -3.1748   -0.0538 H   0  0  0  0  0  0  0  0  0  0  0  0
   -2.4245   -2.2537    1.0882 C   0  0  0  0  0  0  0  0  0  0  0  0
   -1.5805   -2.7478    1.8242 O   0  0  0  0  0  0  0  0  0  0  0  0
   -2.2045   -1.1637    0.3562 N   0  0  0  0  0  0  0  0  0  0  0  0
   -2.9595   -0.7907   -0.2008 H   0  0  0  0  0  0  0  0  0  0  0  0
   -0.9485   -0.4087    0.3482 C   0  0  1  0  0  0  0  0  0  0  0  0
   -0.1408   -1.0795    0.0507 H   0  0  0  0  0  0  0  0  0  0  0  0
   -1.0432    0.7243   -0.6879 C   0  0  0  0  0  0  0  0  0  0  0  0
   -0.4658    0.4471   -1.5711 H   0  0  0  0  0  0  0  0  0  0  0  0
   -2.0835    0.8342   -0.9979 H   0  0  0  0  0  0  0  0  0  0  0  0
   -0.5260    2.0598   -0.1883 C   0  0  0  0  0  0  0  0  0  0  0  0
    0.3142    2.8475   -0.9980 C   0  0  0  0  0  0  0  0  0  0  0  0
    0.6148    2.4935   -1.9741 H   0  0  0  0  0  0  0  0  0  0  0  0
    0.7565    4.1038   -0.5442 C   0  0  0  0  0  0  0  0  0  0  0  0
    1.4037    4.7058   -1.1665 H   0  0  0  0  0  0  0  0  0  0  0  0
    0.3583    4.5754    0.7182 C   0  0  0  0  0  0  0  0  0  0  0  0
    0.7000    5.5396    1.0678 H   0  0  0  0  0  0  0  0  0  0  0  0
   -0.4800    3.7903    1.5304 C   0  0  0  0  0  0  0  0  0  0  0  0
   -0.7817    4.1503    2.5031 H   0  0  0  0  0  0  0  0  0  0  0  0
   -0.9191    2.5333    1.0780 C   0  0  0  0  0  0  0  0  0  0  0  0
   -1.5613    1.9288    1.7052 H   0  0  0  0  0  0  0  0  0  0  0  0
   -0.6196    0.1253    1.7539 C   0  0  0  0  0  0  0  0  0  0  0  0
    0.5216    0.0194    2.2054 O   0  0  0  0  0  0  0  0  0  0  0  0
   -1.6152    0.6924    2.4469 N   0  0  0  0  0  0  0  0  0  0  0  0
   -2.5345    0.6914    2.0318 H   0  0  0  0  0  0  0  0  0  0  0  0
   -1.4720    1.2390    3.7941 C   0  0  0  0  0  0  0  0  0  0  0  0
   -0.6345    1.9391    3.8219 H   0  0  0  0  0  0  0  0  0  0  0  0
   -2.3844    1.7580    4.0892 H   0  0  0  0  0  0  0  0  0  0  0  0
   -1.2733    0.4298    4.4995 H   0  0  0  0  0  0  0  0  0  0  0  0
  5  6  2  0  0  0  0
  5  7  1  0  0  0  0
  2  3  1  0  0  0  0
  2  4  1  0  0  0  0
  2  5  1  0  0  0  0
  1  2  1  0  0  0  0
 25 26  2  0  0  0  0
 25 27  1  0  0  0  0
 23 24  1  0  0  0  0
 21 22  1  0  0  0  0
 21 23  2  0  0  0  0
 19 20  1  0  0  0  0
 19 21  1  0  0  0  0
 17 18  1  0  0  0  0
 17 19  2  0  0  0  0
 15 16  1  0  0  0  0
 15 17  1  0  0  0  0
 14 15  2  0  0  0  0
 14 23  1  0  0  0  0
 11 12  1  0  0  0  0
 11 13  1  0  0  0  0
 11 14  1  0  0  0  0
  9 10  1  0  0  0  0
  9 11  1  0  0  0  0
  9 25  1  0  0  0  0
  7  8  1  0  0  0  0
  7  9  1  0  0  0  0
 29 30  1  0  0  0  0
 29 31  1  0  0  0  0
 29 32  1  0  0  0  0
 27 28  1  0  0  0  0
 27 29  1  0  0  0  0
M  END
$$$$
default_name
  -OEChem-02102213163D

 32 32  0     1  0  0  0  0  0999 V2000
   -3.8405   -3.7518    1.6252 H   0  0  0  0  0  0  0  0  0  0  0  0
   -3.7965   -2.8768    0.9782 C   0  0  0  0  0  0  0  0  0  0  0  0
   -4.5465   -2.1527    1.2902 H   0  0  0  0  0  0  0  0  0  0  0  0
   -3.9745   -3.1748   -0.0538 H   0  0  0  0  0  0  0  0  0  0  0  0
   -2.4245   -2.2537    1.0882 C   0  0  0  0  0  0  0  0  0  0  0  0
   -1.5805   -2.7478    1.8242 O   0  0  0  0  0  0  0  0  0  0  0  0
   -2.2045   -1.1637    0.3562 N   0  0  0  0  0  0  0  0  0  0  0  0
   -2.9595   -0.7907   -0.2008 H   0  0  0  0  0  0  0  0  0  0  0  0
   -0.9485   -0.4087    0.3482 C   0  0  1  0  0  0  0  0  0  0  0  0
   -0.1408   -1.0795    0.0507 H   0  0  0  0  0  0  0  0  0  0  0  0
   -1.0432    0.7243   -0.6879 C   0  0  0  0  0  0  0  0  0  0  0  0
   -0.4658    0.4471   -1.5711 H   0  0  0  0  0  0  0  0  0  0  0  0
   -2.0835    0.8342   -0.9979 H   0  0  0  0  0  0  0  0  0  0  0  0
   -0.5260    2.0598   -0.1883 C   0  0  0  0  0  0  0  0  0  0  0  0
    0.0422    2.9851   -1.0844 C   0  0  0  0  0  0  0  0  0  0  0  0
    0.1341    2.7391   -2.1329 H   0  0  0  0  0  0  0  0  0  0  0  0
    0.4820    4.2385   -0.6202 C   0  0  0  0  0  0  0  0  0  0  0  0
    0.9204    4.9465   -1.3095 H   0  0  0  0  0  0  0  0  0  0  0  0
    0.3530    4.5696    0.7394 C   0  0  0  0  0  0  0  0  0  0  0  0
    0.6931    5.5316    1.0964 H   0  0  0  0  0  0  0  0  0  0  0  0
   -0.2130    3.6467    1.6377 C   0  0  0  0  0  0  0  0  0  0  0  0
   -0.3072    3.8989    2.6837 H   0  0  0  0  0  0  0  0  0  0  0  0
   -0.6494    2.3929    1.1741 C   0  0  0  0  0  0  0  0  0  0  0  0
   -1.0816    1.6825    1.8668 H   0  0  0  0  0  0  0  0  0  0  0  0
   -0.6196    0.1253    1.7539 C   0  0  0  0  0  0  0  0  0  0  0  0
    0.5216    0.0194    2.2054 O   0  0  0  0  0  0  0  0  0  0  0  0
   -1.6152    0.6924    2.4469 N   0  0  0  0  0  0  0  0  0  0  0  0
   -2.5345    0.6914    2.0318 H   0  0  0  0  0  0  0  0  0  0  0  0
   -1.4720    1.2390    3.7941 C   0  0  0  0  0  0  0  0  0  0  0  0
   -0.6345    1.9391    3.8219 H   0  0  0  0  0  0  0  0  0  0  0  0
   -2.3844    1.7580    4.0892 H   0  0  0  0  0  0  0  0  0  0  0  0
   -1.2733    0.4298    4.4995 H   0  0  0  0  0  0  0  0  0  0  0  0
  5  6  2  0  0  0  0
  5  7  1  0  0  0  0
  2  3  1  0  0  0  0
  2  4  1  0  0  0  0
  2  5  1  0  0  0  0
  1  2  1  0  0  0  0
 25 26  2  0  0  0  0
 25 27  1  0  0  0  0
 23 24  1  0  0  0  0
 21 22  1  0  0  0  0
 21 23  2  0  0  0  0
 19 20  1  0  0  0  0
 19 21  1  0  0  0  0
 17 18  1  0  0  0  0
 17 19  2  0  0  0  0
 15 16  1  0  0  0  0
 15 17  1  0  0  0  0
 14 15  2  0  0  0  0
 14 23  1  0  0  0  0
 11 12  1  0  0  0  0
 11 13  1  0  0  0  0
 11 14  1  0  0  0  0
  9 10  1  0  0  0  0
  9 11  1  0  0  0  0
  9 25  1  0  0  0  0
  7  8  1  0  0  0  0
  7  9  1  0  0  0  0
 29 30  1  0  0  0  0
 29 31  1  0  0  0  0
 29 32  1  0  0  0  0
 27 28  1  0  0  0  0
 27 29  1  0  0  0  0
M  END
$$$$
default_name
  -OEChem-02102213163D

 32 32  0     1  0  0  0  0  0999 V2000
   -3.8405   -3.7518    1.6252 H   0  0  0  0  0  0  0  0  0  0  0  0
   -3.7965   -2.8768    0.9782 C   0  0  0  0  0  0  0  0  0  0  0  0
   -4.5465   -2.1527    1.2902 H   0  0  0  0  0  0  0  0  0  0  0  0
   -3.9745   -3.1748   -0.0538 H   0  0  0  0  0  0  0  0  0  0  0  0
   -2.4245   -2.2537    1.0882 C   0  0  0  0  0  0  0  0  0  0  0  0
   -1.5805   -2.7478    1.8242 O   0  0  0  0  0  0  0  0  0  0  0  0
   -2.2045   -1.1637    0.3562 N   0  0  0  0  0  0  0  0  0  0  0  0
   -2.9595   -0.7907   -0.2008 H   0  0  0  0  0  0  0  0  0  0  0  0
   -0.9485   -0.4087    0.3482 C   0  0  1  0  0  0  0  0  0  0  0  0
   -0.1408   -1.0795    0.0507 H   0  0  0  0  0  0  0  0  0  0  0  0
   -1.0432    0.7243   -0.6879 C   0  0  0  0  0  0  0  0  0  0  0  0
   -0.4658    0.4471   -1.5711 H   0  0  0  0  0  0  0  0  0  0  0  0
   -2.0835    0.8342   -0.9979 H   0  0  0  0  0  0  0  0  0  0  0  0
   -0.5260    2.0598   -0.1883 C   0  0  0  0  0  0  0  0  0  0  0  0
   -0.2520    3.1025   -1.0937 C   0  0  0  0  0  0  0  0  0  0  0  0
   -0.3873    2.9493   -2.1550 H   0  0  0  0  0  0  0  0  0  0  0  0
    0.1882    4.3519   -0.6191 C   0  0  0  0  0  0  0  0  0  0  0  0
    0.4005    5.1503   -1.3162 H   0  0  0  0  0  0  0  0  0  0  0  0
    0.3532    4.5616    0.7605 C   0  0  0  0  0  0  0  0  0  0  0  0
    0.6936    5.5208    1.1249 H   0  0  0  0  0  0  0  0  0  0  0  0
    0.0817    3.5213    1.6678 C   0  0  0  0  0  0  0  0  0  0  0  0
    0.2137    3.6807    2.7280 H   0  0  0  0  0  0  0  0  0  0  0  0
   -0.3550    2.2718    1.1931 C   0  0  0  0  0  0  0  0  0  0  0  0
   -0.5603    1.4713    1.8919 H   0  0  0  0  0  0  0  0  0  0  0  0
   -0.6196    0.1253    1.7539 C   0  0  0  0  0  0  0  0  0  0  0  0
    0.5216    0.0194    2.2054 O   0  0  0  0  0  0  0  0  0  0  0  0
   -1.6152    0.6924    2.4469 N   0  0  0  0  0  0  0  0  0  0  0  0
   -2.5345    0.6914    2.0318 H   0  0  0  0  0  0  0  0  0  0  0  0
   -1.4720    1.2390    3.7941 C   0  0  0  0  0  0  0  0  0  0  0  0
   -0.6345    1.9391    3.8219 H   0  0  0  0  0  0  0  0  0  0  0  0
   -2.3844    1.7580    4.0892 H   0  0  0  0  0  0  0  0  0  0  0  0
   -1.2733    0.4298    4.4995 H   0  0  0  0  0  0  0  0  0  0  0  0
  5  6  2  0  0  0  0
  5  7  1  0  0  0  0
  2  3  1  0  0  0  0
  2  4  1  0  0  0  0
  2  5  1  0  0  0  0
  1  2  1  0  0  0  0
 25 26  2  0  0  0  0
 25 27  1  0  0  0  0
 23 24  1  0  0  0  0
 21 22  1  0  0  0  0
 21 23  2  0  0  0  0
 19 20  1  0  0  0  0
 19 21  1  0  0  0  0
 17 18  1  0  0  0  0
 17 19  2  0  0  0  0
 15 16  1  0  0  0  0
 15 17  1  0  0  0  0
 14 15  2  0  0  0  0
 14 23  1  0  0  0  0
 11 12  1  0  0  0  0
 11 13  1  0  0  0  0
 11 14  1  0  0  0  0
  9 10  1  0  0  0  0
  9 11  1  0  0  0  0
  9 25  1  0  0  0  0
  7  8  1  0  0  0  0
  7  9  1  0  0  0  0
 29 30  1  0  0  0  0
 29 31  1  0  0  0  0
 29 32  1  0  0  0  0
 27 28  1  0  0  0  0
 27 29  1  0  0  0  0
M  END
$$$$
default_name
  -OEChem-02102213163D

 32 32  0     1  0  0  0  0  0999 V2000
   -3.8405   -3.7518    1.6252 H   0  0  0  0  0  0  0  0  0  0  0  0
   -3.7965   -2.8768    0.9782 C   0  0  0  0  0  0  0  0  0  0  0  0
   -4.5465   -2.1527    1.2902 H   0  0  0  0  0  0  0  0  0  0  0  0
   -3.9745   -3.1748   -0.0538 H   0  0  0  0  0  0  0  0  0  0  0  0
   -2.4245   -2.2537    1.0882 C   0  0  0  0  0  0  0  0  0  0  0  0
   -1.5805   -2.7478    1.8242 O   0  0  0  0  0  0  0  0  0  0  0  0
   -2.2045   -1.1637    0.3562 N   0  0  0  0  0  0  0  0  0  0  0  0
   -2.9595   -0.7907   -0.2008 H   0  0  0  0  0  0  0  0  0  0  0  0
   -0.9485   -0.4087    0.3482 C   0  0  1  0  0  0  0  0  0  0  0  0
   -0.1408   -1.0795    0.0507 H   0  0  0  0  0  0  0  0  0  0  0  0
   -1.0432    0.7243   -0.6879 C   0  0  0  0  0  0  0  0  0  0  0  0
   -0.7029    0.3508   -1.6548 H   0  0  0  0  0  0  0  0  0  0  0  0
   -2.0887    1.0157   -0.7989 H   0  0  0  0  0  0  0  0  0  0  0  0
   -0.2168    1.9476   -0.3393 C   0  0  0  0  0  0  0  0  0  0  0  0
   -0.2035    3.0665   -1.1936 C   0  0  0  0  0  0  0  0  0  0  0  0
   -0.7656    3.0512   -2.1167 H   0  0  0  0  0  0  0  0  0  0  0  0
    0.5326    4.2133   -0.8433 C   0  0  0  0  0  0  0  0  0  0  0  0
    0.5436    5.0704   -1.5019 H   0  0  0  0  0  0  0  0  0  0  0  0
    1.2546    4.2443    0.3619 C   0  0  0  0  0  0  0  0  0  0  0  0
    1.8220    5.1246    0.6299 H   0  0  0  0  0  0  0  0  0  0  0  0
    1.2446    3.1274    1.2171 C   0  0  0  0  0  0  0  0  0  0  0  0
    1.8039    3.1491    2.1409 H   0  0  0  0  0  0  0  0  0  0  0  0
    0.5116    1.9802    0.8651 C   0  0  0  0  0  0  0  0  0  0  0  0
    0.5074    1.1204    1.5223 H   0  0  0  0  0  0  0  0  0  0  0  0
   -0.6196    0.1253    1.7539 C   0  0  0  0  0  0  0  0  0  0  0  0
    0.5216    0.0194    2.2054 O   0  0  0  0  0  0  0  0  0  0  0  0
   -1.6152    0.6924    2.4469 N   0  0  0  0  0  0  0  0  0  0  0  0
   -2.5345    0.6914    2.0318 H   0  0  0  0  0  0  0  0  0  0  0  0
   -1.4720    1.2390    3.7941 C   0  0  0  0  0  0  0  0  0  0  0  0
   -0.6345    1.9391    3.8219 H   0  0  0  0  0  0  0  0  0  0  0  0
   -2.3844    1.7580    4.0892 H   0  0  0  0  0  0  0  0  0  0  0  0
   -1.2733    0.4298    4.4995 H   0  0  0  0  0  0  0  0  0  0  0  0
  5  6  2  0  0  0  0
  5  7  1  0  0  0  0
  2  3  1  0  0  0  0
  2  4  1  0  0  0  0
  2  5  1  0  0  0  0
  1  2  1  0  0  0  0
 25 26  2  0  0  0  0
 25 27  1  0  0  0  0
 23 24  1  0  0  0  0
 21 22  1  0  0  0  0
 21 23  2  0  0  0  0
 19 20  1  0  0  0  0
 19 21  1  0  0  0  0
 17 18  1  0  0  0  0
 17 19  2  0  0  0  0
 15 16  1  0  0  0  0
 15 17  1  0  0  0  0
 14 15  2  0  0  0  0
 14 23  1  0  0  0  0
 11 12  1  0  0  0  0
 11 13  1  0  0  0  0
 11 14  1  0  0  0  0
  9 10  1  0  0  0  0
  9 11  1  0  0  0  0
  9 25  1  0  0  0  0
  7  8  1  0  0  0  0
  7  9  1  0  0  0  0
 29 30  1  0  0  0  0
 29 31  1  0  0  0  0
 29 32  1  0  0  0  0
 27 28  1  0  0  0  0
 27 29  1  0  0  0  0
M  END
$$$$
default_name
  -OEChem-02102213163D

 32 32  0     1  0  0  0  0  0999 V2000
   -3.8405   -3.7518    1.6252 H   0  0  0  0  0  0  0  0  0  0  0  0
   -3.7965   -2.8768    0.9782 C   0  0  0  0  0  0  0  0  0  0  0  0
   -4.5465   -2.1527    1.2902 H   0  0  0  0  0  0  0  0  0  0  0  0
   -3.9745   -3.1748   -0.0538 H   0  0  0  0  0  0  0  0  0  0  0  0
   -2.4245   -2.2537    1.0882 C   0  0  0  0  0  0  0  0  0  0  0  0
   -1.5805   -2.7478    1.8242 O   0  0  0  0  0  0  0  0  0  0  0  0
   -2.2045   -1.1637    0.3562 N   0  0  0  0  0  0  0  0  0  0  0  0
   -2.9595   -0.7907   -0.2008 H   0  0  0  0  0  0  0  0  0  0  0  0
   -0.9485   -0.4087    0.3482 C   0  0  1  0  0  0  0  0  0  0  0  0
   -0.1408   -1.0795    0.0507 H   0  0  0  0  0  0  0  0  0  0  0  0
   -1.0432    0.7243   -0.6879 C   0  0  0  0  0  0  0  0  0  0  0  0
   -0.7029    0.3508   -1.6548 H   0  0  0  0  0  0  0  0  0  0  0  0
   -2.0887    1.0157   -0.7989 H   0  0  0  0  0  0  0  0  0  0  0  0
   -0.2168    1.9476   -0.3393 C   0  0  0  0  0  0  0  0  0  0  0  0
   -0.4356    3.1692   -1.0040 C   0  0  0  0  0  0  0  0  0  0  0  0
   -1.1802    3.2366   -1.7846 H   0  0  0  0  0  0  0  0  0  0  0  0
    0.3065    4.3100   -0.6464 C   0  0  0  0  0  0  0  0  0  0  0  0
    0.1387    5.2464   -1.1598 H   0  0  0  0  0  0  0  0  0  0  0  0
    1.2665    4.2321    0.3768 C   0  0  0  0  0  0  0  0  0  0  0  0
    1.8382    5.1080    0.6498 H   0  0  0  0  0  0  0  0  0  0  0  0
    1.4886    3.0126    1.0419 C   0  0  0  0  0  0  0  0  0  0  0  0
    2.2303    2.9512    1.8247 H   0  0  0  0  0  0  0  0  0  0  0  0
    0.7492    1.8718    0.6821 C   0  0  0  0  0  0  0  0  0  0  0  0
    0.9234    0.9334    1.1923 H   0  0  0  0  0  0  0  0  0  0  0  0
   -0.6196    0.1253    1.7539 C   0  0  0  0  0  0  0  0  0  0  0  0
    0.5216    0.0194    2.2054 O   0  0  0  0  0  0  0  0  0  0  0  0
   -1.6152    0.6924    2.4469 N   0  0  0  0  0  0  0  0  0  0  0  0
   -2.5345    0.6914    2.0318 H   0  0  0  0  0  0  0  0  0  0  0  0
   -1.4720    1.2390    3.7941 C   0  0  0  0  0  0  0  0  0  0  0  0
   -0.6345    1.9391    3.8219 H   0  0  0  0  0  0  0  0  0  0  0  0
   -2.3844    1.7580    4.0892 H   0  0  0  0  0  0  0  0  0  0  0  0
   -1.2733    0.4298    4.4995 H   0  0  0  0  0  0  0  0  0  0  0  0
  5  6  2  0  0  0  0
  5  7  1  0  0  0  0
  2  3  1  0  0  0  0
  2  4  1  0  0  0  0
  2  5  1  0  0  0  0
  1  2  1  0  0  0  0
 25 26  2  0  0  0  0
 25 27  1  0  0  0  0
 23 24  1  0  0  0  0
 21 22  1  0  0  0  0
 21 23  2  0  0  0  0
 19 20  1  0  0  0  0
 19 21  1  0  0  0  0
 17 18  1  0  0  0  0
 17 19  2  0  0  0  0
 15 16  1  0  0  0  0
 15 17  1  0  0  0  0
 14 15  2  0  0  0  0
 14 23  1  0  0  0  0
 11 12  1  0  0  0  0
 11 13  1  0  0  0  0
 11 14  1  0  0  0  0
  9 10  1  0  0  0  0
  9 11  1  0  0  0  0
  9 25  1  0  0  0  0
  7  8  1  0  0  0  0
  7  9  1  0  0  0  0
 29 30  1  0  0  0  0
 29 31  1  0  0  0  0
 29 32  1  0  0  0  0
 27 28  1  0  0  0  0
 27 29  1  0  0  0  0
M  END
$$$$
default_name
  -OEChem-02102213163D

 32 32  0     1  0  0  0  0  0999 V2000
   -3.8405   -3.7518    1.6252 H   0  0  0  0  0  0  0  0  0  0  0  0
   -3.7965   -2.8768    0.9782 C   0  0  0  0  0  0  0  0  0  0  0  0
   -4.5465   -2.1527    1.2902 H   0  0  0  0  0  0  0  0  0  0  0  0
   -3.9745   -3.1748   -0.0538 H   0  0  0  0  0  0  0  0  0  0  0  0
   -2.4245   -2.2537    1.0882 C   0  0  0  0  0  0  0  0  0  0  0  0
   -1.5805   -2.7478    1.8242 O   0  0  0  0  0  0  0  0  0  0  0  0
   -2.2045   -1.1637    0.3562 N   0  0  0  0  0  0  0  0  0  0  0  0
   -2.9595   -0.7907   -0.2008 H   0  0  0  0  0  0  0  0  0  0  0  0
   -0.9485   -0.4087    0.3482 C   0  0  1  0  0  0  0  0  0  0  0  0
   -0.1408   -1.0795    0.0507 H   0  0  0  0  0  0  0  0  0  0  0  0
   -1.0432    0.7243   -0.6879 C   0  0  0  0  0  0  0  0  0  0  0  0
   -0.7029    0.3508   -1.6548 H   0  0  0  0  0  0  0  0  0  0  0  0
   -2.0887    1.0157   -0.7989 H   0  0  0  0  0  0  0  0  0  0  0  0
   -0.2168    1.9476   -0.3393 C   0  0  0  0  0  0  0  0  0  0  0  0
   -0.6263    3.2279   -0.7578 C   0  0  0  0  0  0  0  0  0  0  0  0
   -1.5223    3.3442   -1.3511 H   0  0  0  0  0  0  0  0  0  0  0  0
    0.1234    4.3622   -0.3955 C   0  0  0  0  0  0  0  0  0  0  0  0
   -0.1914    5.3441   -0.7201 H   0  0  0  0  0  0  0  0  0  0  0  0
    1.2818    4.2189    0.3869 C   0  0  0  0  0  0  0  0  0  0  0  0
    1.8590    5.0901    0.6633 H   0  0  0  0  0  0  0  0  0  0  0  0
    1.6945    2.9408    0.8055 C   0  0  0  0  0  0  0  0  0  0  0  0
    2.5879    2.8300    1.4024 H   0  0  0  0  0  0  0  0  0  0  0  0
    0.9470    1.8071    0.4405 C   0  0  0  0  0  0  0  0  0  0  0  0
    1.2674    0.8241    0.7604 H   0  0  0  0  0  0  0  0  0  0  0  0
   -0.6196    0.1253    1.7539 C   0  0  0  0  0  0  0  0  0  0  0  0
    0.5216    0.0194    2.2054 O   0  0  0  0  0  0  0  0  0  0  0  0
   -1.6152    0.6924    2.4469 N   0  0  0  0  0  0  0  0  0  0  0  0
   -2.5345    0.6914    2.0318 H   0  0  0  0  0  0  0  0  0  0  0  0
   -1.4720    1.2390    3.7941 C   0  0  0  0  0  0  0  0  0  0  0  0
   -0.6345    1.9391    3.8219 H   0  0  0  0  0  0  0  0  0  0  0  0
   -2.3844    1.7580    4.0892 H   0  0  0  0  0  0  0  0  0  0  0  0
   -1.2733    0.4298    4.4995 H   0  0  0  0  0  0  0  0  0  0  0  0
  5  6  2  0  0  0  0
  5  7  1  0  0  0  0
  2  3  1  0  0  0  0
  2  4  1  0  0  0  0
  2  5  1  0  0  0  0
  1  2  1  0  0  0  0
 25 26  2  0  0  0  0
 25 27  1  0  0  0  0
 23 24  1  0  0  0  0
 21 22  1  0  0  0  0
 21 23  2  0  0  0  0
 19 20  1  0  0  0  0
 19 21  1  0  0  0  0
 17 18  1  0  0  0  0
 17 19  2  0  0  0  0
 15 16  1  0  0  0  0
 15 17  1  0  0  0  0
 14 15  2  0  0  0  0
 14 23  1  0  0  0  0
 11 12  1  0  0  0  0
 11 13  1  0  0  0  0
 11 14  1  0  0  0  0
  9 10  1  0  0  0  0
  9 11  1  0  0  0  0
  9 25  1  0  0  0  0
  7  8  1  0  0  0  0
  7  9  1  0  0  0  0
 29 30  1  0  0  0  0
 29 31  1  0  0  0  0
 29 32  1  0  0  0  0
 27 28  1  0  0  0  0
 27 29  1  0  0  0  0
M  END
$$$$
default_name
  -OEChem-02102213163D

 32 32  0     1  0  0  0  0  0999 V2000
   -3.8405   -3.7518    1.6252 H   0  0  0  0  0  0  0  0  0  0  0  0
   -3.7965   -2.8768    0.9782 C   0  0  0  0  0  0  0  0  0  0  0  0
   -4.5465   -2.1527    1.2902 H   0  0  0  0  0  0  0  0  0  0  0  0
   -3.9745   -3.1748   -0.0538 H   0  0  0  0  0  0  0  0  0  0  0  0
   -2.4245   -2.2537    1.0882 C   0  0  0  0  0  0  0  0  0  0  0  0
   -1.5805   -2.7478    1.8242 O   0  0  0  0  0  0  0  0  0  0  0  0
   -2.2045   -1.1637    0.3562 N   0  0  0  0  0  0  0  0  0  0  0  0
   -2.9595   -0.7907   -0.2008 H   0  0  0  0  0  0  0  0  0  0  0  0
   -0.9485   -0.4087    0.3482 C   0  0  1  0  0  0  0  0  0  0  0  0
   -0.1408   -1.0795    0.0507 H   0  0  0  0  0  0  0  0  0  0  0  0
   -1.0432    0.7243   -0.6879 C   0  0  0  0  0  0  0  0  0  0  0  0
   -0.7029    0.3508   -1.6548 H   0  0  0  0  0  0  0  0  0  0  0  0
   -2.0887    1.0157   -0.7989 H   0  0  0  0  0  0  0  0  0  0  0  0
   -0.2168    1.9476   -0.3393 C   0  0  0  0  0  0  0  0  0  0  0  0
   -0.7626    3.2385   -0.4720 C   0  0  0  0  0  0  0  0  0  0  0  0
   -1.7687    3.3666   -0.8458 H   0  0  0  0  0  0  0  0  0  0  0  0
   -0.0042    4.3663   -0.1075 C   0  0  0  0  0  0  0  0  0  0  0  0
   -0.4243    5.3568   -0.2126 H   0  0  0  0  0  0  0  0  0  0  0  0
    1.2994    4.2056    0.3917 C   0  0  0  0  0  0  0  0  0  0  0  0
    1.8829    5.0722    0.6694 H   0  0  0  0  0  0  0  0  0  0  0  0
    1.8484    2.9171    0.5241 C   0  0  0  0  0  0  0  0  0  0  0  0
    2.8524    2.7937    0.9027 H   0  0  0  0  0  0  0  0  0  0  0  0
    1.0915    1.7904    0.1567 C   0  0  0  0  0  0  0  0  0  0  0  0
    1.5161    0.7999    0.2559 H   0  0  0  0  0  0  0  0  0  0  0  0
   -0.6196    0.1253    1.7539 C   0  0  0  0  0  0  0  0  0  0  0  0
    0.5216    0.0194    2.2054 O   0  0  0  0  0  0  0  0  0  0  0  0
   -1.6152    0.6924    2.4469 N   0  0  0  0  0  0  0  0  0  0  0  0
   -2.5345    0.6914    2.0318 H   0  0  0  0  0  0  0  0  0  0  0  0
   -1.4720    1.2390    3.7941 C   0  0  0  0  0  0  0  0  0  0  0  0
   -0.6345    1.9391    3.8219 H   0  0  0  0  0  0  0  0  0  0  0  0
   -2.3844    1.7580    4.0892 H   0  0  0  0  0  0  0  0  0  0  0  0
   -1.2733    0.4298    4.4995 H   0  0  0  0  0  0  0  0  0  0  0  0
  5  6  2  0  0  0  0
  5  7  1  0  0  0  0
  2  3  1  0  0  0  0
  2  4  1  0  0  0  0
  2  5  1  0  0  0  0
  1  2  1  0  0  0  0
 25 26  2  0  0  0  0
 25 27  1  0  0  0  0
 23 24  1  0  0  0  0
 21 22  1  0  0  0  0
 21 23  2  0  0  0  0
 19 20  1  0  0  0  0
 19 21  1  0  0  0  0
 17 18  1  0  0  0  0
 17 19  2  0  0  0  0
 15 16  1  0  0  0  0
 15 17  1  0  0  0  0
 14 15  2  0  0  0  0
 14 23  1  0  0  0  0
 11 12  1  0  0  0  0
 11 13  1  0  0  0  0
 11 14  1  0  0  0  0
  9 10  1  0  0  0  0
  9 11  1  0  0  0  0
  9 25  1  0  0  0  0
  7  8  1  0  0  0  0
  7  9  1  0  0  0  0
 29 30  1  0  0  0  0
 29 31  1  0  0  0  0
 29 32  1  0  0  0  0
 27 28  1  0  0  0  0
 27 29  1  0  0  0  0
M  END
$$$$
default_name
  -OEChem-02102213163D

 32 32  0     1  0  0  0  0  0999 V2000
   -3.8405   -3.7518    1.6252 H   0  0  0  0  0  0  0  0  0  0  0  0
   -3.7965   -2.8768    0.9782 C   0  0  0  0  0  0  0  0  0  0  0  0
   -4.5465   -2.1527    1.2902 H   0  0  0  0  0  0  0  0  0  0  0  0
   -3.9745   -3.1748   -0.0538 H   0  0  0  0  0  0  0  0  0  0  0  0
   -2.4245   -2.2537    1.0882 C   0  0  0  0  0  0  0  0  0  0  0  0
   -1.5805   -2.7478    1.8242 O   0  0  0  0  0  0  0  0  0  0  0  0
   -2.2045   -1.1637    0.3562 N   0  0  0  0  0  0  0  0  0  0  0  0
   -2.9595   -0.7907   -0.2008 H   0  0  0  0  0  0  0  0  0  0  0  0
   -0.9485   -0.4087    0.3482 C   0  0  1  0  0  0  0  0  0  0  0  0
   -0.1408   -1.0795    0.0507 H   0  0  0  0  0  0  0  0  0  0  0  0
   -1.0432    0.7243   -0.6879 C   0  0  0  0  0  0  0  0  0  0  0  0
   -0.7029    0.3508   -1.6548 H   0  0  0  0  0  0  0  0  0  0  0  0
   -2.0887    1.0157   -0.7989 H   0  0  0  0  0  0  0  0  0  0  0  0
   -0.2168    1.9476   -0.3393 C   0  0  0  0  0  0  0  0  0  0  0  0
   -0.8352    3.2004   -0.1660 C   0  0  0  0  0  0  0  0  0  0  0  0
   -1.9025    3.3024   -0.3031 H   0  0  0  0  0  0  0  0  0  0  0  0
   -0.0676    4.3221    0.1978 C   0  0  0  0  0  0  0  0  0  0  0  0
   -0.5441    5.2837    0.3279 H   0  0  0  0  0  0  0  0  0  0  0  0
    1.3183    4.1931    0.3907 C   0  0  0  0  0  0  0  0  0  0  0  0
    1.9084    5.0555    0.6679 H   0  0  0  0  0  0  0  0  0  0  0  0
    1.9396    2.9430    0.2168 C   0  0  0  0  0  0  0  0  0  0  0  0
    3.0058    2.8449    0.3597 H   0  0  0  0  0  0  0  0  0  0  0  0
    1.1728    1.8229   -0.1500 C   0  0  0  0  0  0  0  0  0  0  0  0
    1.6525    0.8624   -0.2867 H   0  0  0  0  0  0  0  0  0  0  0  0
   -0.6196    0.1253    1.7539 C   0  0  0  0  0  0  0  0  0  0  0  0
    0.5216    0.0194    2.2054 O   0  0  0  0  0  0  0  0  0  0  0  0
   -1.6152    0.6924    2.4469 N   0  0  0  0  0  0  0  0  0  0  0  0
   -2.5345    0.6914    2.0318 H   0  0  0  0  0  0  0  0  0  0  0  0
   -1.4720    1.2390    3.7941 C   0  0  0  0  0  0  0  0  0  0  0  0
   -0.6345    1.9391    3.8219 H   0  0  0  0  0  0  0  0  0  0  0  0
   -2.3844    1.7580    4.0892 H   0  0  0  0  0  0  0  0  0  0  0  0
   -1.2733    0.4298    4.4995 H   0  0  0  0  0  0  0  0  0  0  0  0
  5  6  2  0  0  0  0
  5  7  1  0  0  0  0
  2  3  1  0  0  0  0
  2  4  1  0  0  0  0
  2  5  1  0  0  0  0
  1  2  1  0  0  0  0
 25 26  2  0  0  0  0
 25 27  1  0  0  0  0
 23 24  1  0  0  0  0
 21 22  1  0  0  0  0
 21 23  2  0  0  0  0
 19 20  1  0  0  0  0
 19 21  1  0  0  0  0
 17 18  1  0  0  0  0
 17 19  2  0  0  0  0
 15 16  1  0  0  0  0
 15 17  1  0  0  0  0
 14 15  2  0  0  0  0
 14 23  1  0  0  0  0
 11 12  1  0  0  0  0
 11 13  1  0  0  0  0
 11 14  1  0  0  0  0
  9 10  1  0  0  0  0
  9 11  1  0  0  0  0
  9 25  1  0  0  0  0
  7  8  1  0  0  0  0
  7  9  1  0  0  0  0
 29 30  1  0  0  0  0
 29 31  1  0  0  0  0
 29 32  1  0  0  0  0
 27 28  1  0  0  0  0
 27 29  1  0  0  0  0
M  END
$$$$
default_name
  -OEChem-02102213163D

 32 32  0     1  0  0  0  0  0999 V2000
   -3.8405   -3.7518    1.6252 H   0  0  0  0  0  0  0  0  0  0  0  0
   -3.7965   -2.8768    0.9782 C   0  0  0  0  0  0  0  0  0  0  0  0
   -4.5465   -2.1527    1.2902 H   0  0  0  0  0  0  0  0  0  0  0  0
   -3.9745   -3.1748   -0.0538 H   0  0  0  0  0  0  0  0  0  0  0  0
   -2.4245   -2.2537    1.0882 C   0  0  0  0  0  0  0  0  0  0  0  0
   -1.5805   -2.7478    1.8242 O   0  0  0  0  0  0  0  0  0  0  0  0
   -2.2045   -1.1637    0.3562 N   0  0  0  0  0  0  0  0  0  0  0  0
   -2.9595   -0.7907   -0.2008 H   0  0  0  0  0  0  0  0  0  0  0  0
   -0.9485   -0.4087    0.3482 C   0  0  1  0  0  0  0  0  0  0  0  0
   -0.1408   -1.0795    0.0507 H   0  0  0  0  0  0  0  0  0  0  0  0
   -1.0432    0.7243   -0.6879 C   0  0  0  0  0  0  0  0  0  0  0  0
   -0.7029    0.3508   -1.6548 H   0  0  0  0  0  0  0  0  0  0  0  0
   -2.0887    1.0157   -0.7989 H   0  0  0  0  0  0  0  0  0  0  0  0
   -0.2168    1.9476   -0.3393 C   0  0  0  0  0  0  0  0  0  0  0  0
   -0.8393    3.1160    0.1394 C   0  0  0  0  0  0  0  0  0  0  0  0
   -1.9147    3.1559    0.2400 H   0  0  0  0  0  0  0  0  0  0  0  0
   -0.0625    4.2326    0.4998 C   0  0  0  0  0  0  0  0  0  0  0  0
   -0.5426    5.1297    0.8648 H   0  0  0  0  0  0  0  0  0  0  0  0
    1.3370    4.1823    0.3841 C   0  0  0  0  0  0  0  0  0  0  0  0
    1.9336    5.0410    0.6587 H   0  0  0  0  0  0  0  0  0  0  0  0
    1.9621    3.0168   -0.0954 C   0  0  0  0  0  0  0  0  0  0  0  0
    3.0375    2.9800   -0.1896 H   0  0  0  0  0  0  0  0  0  0  0  0
    1.1853    1.9023   -0.4586 C   0  0  0  0  0  0  0  0  0  0  0  0
    1.6672    1.0074   -0.8305 H   0  0  0  0  0  0  0  0  0  0  0  0
   -0.6196    0.1253    1.7539 C   0  0  0  0  0  0  0  0  0  0  0  0
    0.5216    0.0194    2.2054 O   0  0  0  0  0  0  0  0  0  0  0  0
   -1.6152    0.6924    2.4469 N   0  0  0  0  0  0  0  0  0  0  0  0
   -2.5345    0.6914    2.0318 H   0  0  0  0  0  0  0  0  0  0  0  0
   -1.4720    1.2390    3.7941 C   0  0  0  0  0  0  0  0  0  0  0  0
   -0.6345    1.9391    3.8219 H   0  0  0  0  0  0  0  0  0  0  0  0
   -2.3844    1.7580    4.0892 H   0  0  0  0  0  0  0  0  0  0  0  0
   -1.2733    0.4298    4.4995 H   0  0  0  0  0  0  0  0  0  0  0  0
  5  6  2  0  0  0  0
  5  7  1  0  0  0  0
  2  3  1  0  0  0  0
  2  4  1  0  0  0  0
  2  5  1  0  0  0  0
  1  2  1  0  0  0  0
 25 26  2  0  0  0  0
 25 27  1  0  0  0  0
 23 24  1  0  0  0  0
 21 22  1  0  0  0  0
 21 23  2  0  0  0  0
 19 20  1  0  0  0  0
 19 21  1  0  0  0  0
 17 18  1  0  0  0  0
 17 19  2  0  0  0  0
 15 16  1  0  0  0  0
 15 17  1  0  0  0  0
 14 15  2  0  0  0  0
 14 23  1  0  0  0  0
 11 12  1  0  0  0  0
 11 13  1  0  0  0  0
 11 14  1  0  0  0  0
  9 10  1  0  0  0  0
  9 11  1  0  0  0  0
  9 25  1  0  0  0  0
  7  8  1  0  0  0  0
  7  9  1  0  0  0  0
 29 30  1  0  0  0  0
 29 31  1  0  0  0  0
 29 32  1  0  0  0  0
 27 28  1  0  0  0  0
 27 29  1  0  0  0  0
M  END
$$$$
default_name
  -OEChem-02102213163D

 32 32  0     1  0  0  0  0  0999 V2000
   -3.8405   -3.7518    1.6252 H   0  0  0  0  0  0  0  0  0  0  0  0
   -3.7965   -2.8768    0.9782 C   0  0  0  0  0  0  0  0  0  0  0  0
   -4.5465   -2.1527    1.2902 H   0  0  0  0  0  0  0  0  0  0  0  0
   -3.9745   -3.1748   -0.0538 H   0  0  0  0  0  0  0  0  0  0  0  0
   -2.4245   -2.2537    1.0882 C   0  0  0  0  0  0  0  0  0  0  0  0
   -1.5805   -2.7478    1.8242 O   0  0  0  0  0  0  0  0  0  0  0  0
   -2.2045   -1.1637    0.3562 N   0  0  0  0  0  0  0  0  0  0  0  0
   -2.9595   -0.7907   -0.2008 H   0  0  0  0  0  0  0  0  0  0  0  0
   -0.9485   -0.4087    0.3482 C   0  0  1  0  0  0  0  0  0  0  0  0
   -0.1408   -1.0795    0.0507 H   0  0  0  0  0  0  0  0  0  0  0  0
   -1.0432    0.7243   -0.6879 C   0  0  0  0  0  0  0  0  0  0  0  0
   -0.7029    0.3508   -1.6548 H   0  0  0  0  0  0  0  0  0  0  0  0
   -2.0887    1.0157   -0.7989 H   0  0  0  0  0  0  0  0  0  0  0  0
   -0.2168    1.9476   -0.3393 C   0  0  0  0  0  0  0  0  0  0  0  0
   -0.7744    2.9913    0.4234 C   0  0  0  0  0  0  0  0  0  0  0  0
   -1.8044    2.9370    0.7465 H   0  0  0  0  0  0  0  0  0  0  0  0
    0.0108    4.1038    0.7778 C   0  0  0  0  0  0  0  0  0  0  0  0
   -0.4200    4.9053    1.3613 H   0  0  0  0  0  0  0  0  0  0  0  0
    1.3544    4.1740    0.3722 C   0  0  0  0  0  0  0  0  0  0  0  0
    1.9570    5.0298    0.6425 H   0  0  0  0  0  0  0  0  0  0  0  0
    1.9142    3.1335   -0.3913 C   0  0  0  0  0  0  0  0  0  0  0  0
    2.9455    3.1898   -0.7077 H   0  0  0  0  0  0  0  0  0  0  0  0
    1.1283    2.0233   -0.7481 C   0  0  0  0  0  0  0  0  0  0  0  0
    1.5593    1.2251   -1.3383 H   0  0  0  0  0  0  0  0  0  0  0  0
   -0.6196    0.1253    1.7539 C   0  0  0  0  0  0  0  0  0  0  0  0
    0.5216    0.0194    2.2054 O   0  0  0  0  0  0  0  0  0  0  0  0
   -1.6152    0.6924    2.4469 N   0  0  0  0  0  0  0  0  0  0  0  0
   -2.5345    0.6914    2.0318 H   0  0  0  0  0  0  0  0  0  0  0  0
   -1.4720    1.2390    3.7941 C   0  0  0  0  0  0  0  0  0  0  0  0
   -0.6345    1.9391    3.8219 H   0  0  0  0  0  0  0  0  0  0  0  0
   -2.3844    1.7580    4.0892 H   0  0  0  0  0  0  0  0  0  0  0  0
   -1.2733    0.4298    4.4995 H   0  0  0  0  0  0  0  0  0  0  0  0
  5  6  2  0  0  0  0
  5  7  1  0  0  0  0
  2  3  1  0  0  0  0
  2  4  1  0  0  0  0
  2  5  1  0  0  0  0
  1  2  1  0  0  0  0
 25 26  2  0  0  0  0
 25 27  1  0  0  0  0
 23 24  1  0  0  0  0
 21 22  1  0  0  0  0
 21 23  2  0  0  0  0
 19 20  1  0  0  0  0
 19 21  1  0  0  0  0
 17 18  1  0  0  0  0
 17 19  2  0  0  0  0
 15 16  1  0  0  0  0
 15 17  1  0  0  0  0
 14 15  2  0  0  0  0
 14 23  1  0  0  0  0
 11 12  1  0  0  0  0
 11 13  1  0  0  0  0
 11 14  1  0  0  0  0
  9 10  1  0  0  0  0
  9 11  1  0  0  0  0
  9 25  1  0  0  0  0
  7  8  1  0  0  0  0
  7  9  1  0  0  0  0
 29 30  1  0  0  0  0
 29 31  1  0  0  0  0
 29 32  1  0  0  0  0
 27 28  1  0  0  0  0
 27 29  1  0  0  0  0
M  END
$$$$
default_name
  -OEChem-02102213163D

 32 32  0     1  0  0  0  0  0999 V2000
   -3.8405   -3.7518    1.6252 H   0  0  0  0  0  0  0  0  0  0  0  0
   -3.7965   -2.8768    0.9782 C   0  0  0  0  0  0  0  0  0  0  0  0
   -4.5465   -2.1527    1.2902 H   0  0  0  0  0  0  0  0  0  0  0  0
   -3.9745   -3.1748   -0.0538 H   0  0  0  0  0  0  0  0  0  0  0  0
   -2.4245   -2.2537    1.0882 C   0  0  0  0  0  0  0  0  0  0  0  0
   -1.5805   -2.7478    1.8242 O   0  0  0  0  0  0  0  0  0  0  0  0
   -2.2045   -1.1637    0.3562 N   0  0  0  0  0  0  0  0  0  0  0  0
   -2.9595   -0.7907   -0.2008 H   0  0  0  0  0  0  0  0  0  0  0  0
   -0.9485   -0.4087    0.3482 C   0  0  1  0  0  0  0  0  0  0  0  0
   -0.1408   -1.0795    0.0507 H   0  0  0  0  0  0  0  0  0  0  0  0
   -1.0432    0.7243   -0.6879 C   0  0  0  0  0  0  0  0  0  0  0  0
   -0.7029    0.3508   -1.6548 H   0  0  0  0  0  0  0  0  0  0  0  0
   -2.0887    1.0157   -0.7989 H   0  0  0  0  0  0  0  0  0  0  0  0
   -0.2168    1.9476   -0.3393 C   0  0  0  0  0  0  0  0  0  0  0  0
   -0.6450    2.8346    0.6665 C   0  0  0  0  0  0  0  0  0  0  0  0
   -1.5791    2.6608    1.1818 H   0  0  0  0  0  0  0  0  0  0  0  0
    0.1473    3.9446    1.0128 C   0  0  0  0  0  0  0  0  0  0  0  0
   -0.1846    4.6259    1.7837 H   0  0  0  0  0  0  0  0  0  0  0  0
    1.3692    4.1686    0.3560 C   0  0  0  0  0  0  0  0  0  0  0  0
    1.9768    5.0227    0.6204 H   0  0  0  0  0  0  0  0  0  0  0  0
    1.7993    3.2850   -0.6506 C   0  0  0  0  0  0  0  0  0  0  0  0
    2.7359    3.4601   -1.1594 H   0  0  0  0  0  0  0  0  0  0  0  0
    1.0057    2.1776   -0.9988 C   0  0  0  0  0  0  0  0  0  0  0  0
    1.3361    1.5005   -1.7757 H   0  0  0  0  0  0  0  0  0  0  0  0
   -0.6196    0.1253    1.7539 C   0  0  0  0  0  0  0  0  0  0  0  0
    0.5216    0.0194    2.2054 O   0  0  0  0  0  0  0  0  0  0  0  0
   -1.6152    0.6924    2.4469 N   0  0  0  0  0  0  0  0  0  0  0  0
   -2.5345    0.6914    2.0318 H   0  0  0  0  0  0  0  0  0  0  0  0
   -1.4720    1.2390    3.7941 C   0  0  0  0  0  0  0  0  0  0  0  0
   -0.6345    1.9391    3.8219 H   0  0  0  0  0  0  0  0  0  0  0  0
   -2.3844    1.7580    4.0892 H   0  0  0  0  0  0  0  0  0  0  0  0
   -1.2733    0.4298    4.4995 H   0  0  0  0  0  0  0  0  0  0  0  0
  5  6  2  0  0  0  0
  5  7  1  0  0  0  0
  2  3  1  0  0  0  0
  2  4  1  0  0  0  0
  2  5  1  0  0  0  0
  1  2  1  0  0  0  0
 25 26  2  0  0  0  0
 25 27  1  0  0  0  0
 23 24  1  0  0  0  0
 21 22  1  0  0  0  0
 21 23  2  0  0  0  0
 19 20  1  0  0  0  0
 19 21  1  0  0  0  0
 17 18  1  0  0  0  0
 17 19  2  0  0  0  0
 15 16  1  0  0  0  0
 15 17  1  0  0  0  0
 14 15  2  0  0  0  0
 14 23  1  0  0  0  0
 11 12  1  0  0  0  0
 11 13  1  0  0  0  0
 11 14  1  0  0  0  0
  9 10  1  0  0  0  0
  9 11  1  0  0  0  0
  9 25  1  0  0  0  0
  7  8  1  0  0  0  0
  7  9  1  0  0  0  0
 29 30  1  0  0  0  0
 29 31  1  0  0  0  0
 29 32  1  0  0  0  0
 27 28  1  0  0  0  0
 27 29  1  0  0  0  0
M  END
$$$$
default_name
  -OEChem-02102213163D

 32 32  0     1  0  0  0  0  0999 V2000
   -3.8405   -3.7518    1.6252 H   0  0  0  0  0  0  0  0  0  0  0  0
   -3.7965   -2.8768    0.9782 C   0  0  0  0  0  0  0  0  0  0  0  0
   -4.5465   -2.1527    1.2902 H   0  0  0  0  0  0  0  0  0  0  0  0
   -3.9745   -3.1748   -0.0538 H   0  0  0  0  0  0  0  0  0  0  0  0
   -2.4245   -2.2537    1.0882 C   0  0  0  0  0  0  0  0  0  0  0  0
   -1.5805   -2.7478    1.8242 O   0  0  0  0  0  0  0  0  0  0  0  0
   -2.2045   -1.1637    0.3562 N   0  0  0  0  0  0  0  0  0  0  0  0
   -2.9595   -0.7907   -0.2008 H   0  0  0  0  0  0  0  0  0  0  0  0
   -0.9485   -0.4087    0.3482 C   0  0  1  0  0  0  0  0  0  0  0  0
   -0.1408   -1.0795    0.0507 H   0  0  0  0  0  0  0  0  0  0  0  0
   -1.0432    0.7243   -0.6879 C   0  0  0  0  0  0  0  0  0  0  0  0
   -0.7029    0.3508   -1.6548 H   0  0  0  0  0  0  0  0  0  0  0  0
   -2.0887    1.0157   -0.7989 H   0  0  0  0  0  0  0  0  0  0  0  0
   -0.2168    1.9476   -0.3393 C   0  0  0  0  0  0  0  0  0  0  0  0
   -0.4600    2.6567    0.8523 C   0  0  0  0  0  0  0  0  0  0  0  0
   -1.2543    2.3460    1.5163 H   0  0  0  0  0  0  0  0  0  0  0  0
    0.3377    3.7658    1.1889 C   0  0  0  0  0  0  0  0  0  0  0  0
    0.1476    4.3105    2.1031 H   0  0  0  0  0  0  0  0  0  0  0  0
    1.3804    4.1666    0.3364 C   0  0  0  0  0  0  0  0  0  0  0  0
    1.9918    5.0202    0.5940 H   0  0  0  0  0  0  0  0  0  0  0  0
    1.6252    3.4611   -0.8558 C   0  0  0  0  0  0  0  0  0  0  0  0
    2.4232    3.7723   -1.5138 H   0  0  0  0  0  0  0  0  0  0  0  0
    0.8257    2.3547   -1.1936 C   0  0  0  0  0  0  0  0  0  0  0  0
    1.0128    1.8149   -2.1127 H   0  0  0  0  0  0  0  0  0  0  0  0
   -0.6196    0.1253    1.7539 C   0  0  0  0  0  0  0  0  0  0  0  0
    0.5216    0.0194    2.2054 O   0  0  0  0  0  0  0  0  0  0  0  0
   -1.6152    0.6924    2.4469 N   0  0  0  0  0  0  0  0  0  0  0  0
   -2.5345    0.6914    2.0318 H   0  0  0  0  0  0  0  0  0  0  0  0
   -1.4720    1.2390    3.7941 C   0  0  0  0  0  0  0  0  0  0  0  0
   -0.6345    1.9391    3.8219 H   0  0  0  0  0  0  0  0  0  0  0  0
   -2.3844    1.7580    4.0892 H   0  0  0  0  0  0  0  0  0  0  0  0
   -1.2733    0.4298    4.4995 H   0  0  0  0  0  0  0  0  0  0  0  0
  5  6  2  0  0  0  0
  5  7  1  0  0  0  0
  2  3  1  0  0  0  0
  2  4  1  0  0  0  0
  2  5  1  0  0  0  0
  1  2  1  0  0  0  0
 25 26  2  0  0  0  0
 25 27  1  0  0  0  0
 23 24  1  0  0  0  0
 21 22  1  0  0  0  0
 21 23  2  0  0  0  0
 19 20  1  0  0  0  0
 19 21  1  0  0  0  0
 17 18  1  0  0  0  0
 17 19  2  0  0  0  0
 15 16  1  0  0  0  0
 15 17  1  0  0  0  0
 14 15  2  0  0  0  0
 14 23  1  0  0  0  0
 11 12  1  0  0  0  0
 11 13  1  0  0  0  0
 11 14  1  0  0  0  0
  9 10  1  0  0  0  0
  9 11  1  0  0  0  0
  9 25  1  0  0  0  0
  7  8  1  0  0  0  0
  7  9  1  0  0  0  0
 29 30  1  0  0  0  0
 29 31  1  0  0  0  0
 29 32  1  0  0  0  0
 27 28  1  0  0  0  0
 27 29  1  0  0  0  0
M  END
$$$$
default_name
  -OEChem-02102213163D

 32 32  0     1  0  0  0  0  0999 V2000
   -3.8405   -3.7518    1.6252 H   0  0  0  0  0  0  0  0  0  0  0  0
   -3.7965   -2.8768    0.9782 C   0  0  0  0  0  0  0  0  0  0  0  0
   -4.5465   -2.1527    1.2902 H   0  0  0  0  0  0  0  0  0  0  0  0
   -3.9745   -3.1748   -0.0538 H   0  0  0  0  0  0  0  0  0  0  0  0
   -2.4245   -2.2537    1.0882 C   0  0  0  0  0  0  0  0  0  0  0  0
   -1.5805   -2.7478    1.8242 O   0  0  0  0  0  0  0  0  0  0  0  0
   -2.2045   -1.1637    0.3562 N   0  0  0  0  0  0  0  0  0  0  0  0
   -2.9595   -0.7907   -0.2008 H   0  0  0  0  0  0  0  0  0  0  0  0
   -0.9485   -0.4087    0.3482 C   0  0  1  0  0  0  0  0  0  0  0  0
   -0.1408   -1.0795    0.0507 H   0  0  0  0  0  0  0  0  0  0  0  0
   -1.0432    0.7243   -0.6879 C   0  0  0  0  0  0  0  0  0  0  0  0
   -0.7029    0.3508   -1.6548 H   0  0  0  0  0  0  0  0  0  0  0  0
   -2.0887    1.0157   -0.7989 H   0  0  0  0  0  0  0  0  0  0  0  0
   -0.2168    1.9476   -0.3393 C   0  0  0  0  0  0  0  0  0  0  0  0
   -0.2320    2.4697    0.9680 C   0  0  0  0  0  0  0  0  0  0  0  0
   -0.8519    2.0141    1.7272 H   0  0  0  0  0  0  0  0  0  0  0  0
    0.5690    3.5796    1.2941 C   0  0  0  0  0  0  0  0  0  0  0  0
    0.5539    3.9805    2.2979 H   0  0  0  0  0  0  0  0  0  0  0  0
    1.3873    4.1681    0.3149 C   0  0  0  0  0  0  0  0  0  0  0  0
    2.0009    5.0223    0.5649 H   0  0  0  0  0  0  0  0  0  0  0  0
    1.4037    3.6498   -0.9928 C   0  0  0  0  0  0  0  0  0  0  0  0
    2.0285    4.1053   -1.7469 H   0  0  0  0  0  0  0  0  0  0  0  0
    0.6006    2.5425   -1.3192 C   0  0  0  0  0  0  0  0  0  0  0  0
    0.6116    2.1469   -2.3265 H   0  0  0  0  0  0  0  0  0  0  0  0
   -0.6196    0.1253    1.7539 C   0  0  0  0  0  0  0  0  0  0  0  0
    0.5216    0.0194    2.2054 O   0  0  0  0  0  0  0  0  0  0  0  0
   -1.6152    0.6924    2.4469 N   0  0  0  0  0  0  0  0  0  0  0  0
   -2.5345    0.6914    2.0318 H   0  0  0  0  0  0  0  0  0  0  0  0
   -1.4720    1.2390    3.7941 C   0  0  0  0  0  0  0  0  0  0  0  0
   -0.6345    1.9391    3.8219 H   0  0  0  0  0  0  0  0  0  0  0  0
   -2.3844    1.7580    4.0892 H   0  0  0  0  0  0  0  0  0  0  0  0
   -1.2733    0.4298    4.4995 H   0  0  0  0  0  0  0  0  0  0  0  0
  5  6  2  0  0  0  0
  5  7  1  0  0  0  0
  2  3  1  0  0  0  0
  2  4  1  0  0  0  0
  2  5  1  0  0  0  0
  1  2  1  0  0  0  0
 25 26  2  0  0  0  0
 25 27  1  0  0  0  0
 23 24  1  0  0  0  0
 21 22  1  0  0  0  0
 21 23  2  0  0  0  0
 19 20  1  0  0  0  0
 19 21  1  0  0  0  0
 17 18  1  0  0  0  0
 17 19  2  0  0  0  0
 15 16  1  0  0  0  0
 15 17  1  0  0  0  0
 14 15  2  0  0  0  0
 14 23  1  0  0  0  0
 11 12  1  0  0  0  0
 11 13  1  0  0  0  0
 11 14  1  0  0  0  0
  9 10  1  0  0  0  0
  9 11  1  0  0  0  0
  9 25  1  0  0  0  0
  7  8  1  0  0  0  0
  7  9  1  0  0  0  0
 29 30  1  0  0  0  0
 29 31  1  0  0  0  0
 29 32  1  0  0  0  0
 27 28  1  0  0  0  0
 27 29  1  0  0  0  0
M  END
$$$$
default_name
  -OEChem-02102213163D

 32 32  0     1  0  0  0  0  0999 V2000
   -3.8405   -3.7518    1.6252 H   0  0  0  0  0  0  0  0  0  0  0  0
   -3.7965   -2.8768    0.9782 C   0  0  0  0  0  0  0  0  0  0  0  0
   -4.5465   -2.1527    1.2902 H   0  0  0  0  0  0  0  0  0  0  0  0
   -3.9745   -3.1748   -0.0538 H   0  0  0  0  0  0  0  0  0  0  0  0
   -2.4245   -2.2537    1.0882 C   0  0  0  0  0  0  0  0  0  0  0  0
   -1.5805   -2.7478    1.8242 O   0  0  0  0  0  0  0  0  0  0  0  0
   -2.2045   -1.1637    0.3562 N   0  0  0  0  0  0  0  0  0  0  0  0
   -2.9595   -0.7907   -0.2008 H   0  0  0  0  0  0  0  0  0  0  0  0
   -0.9485   -0.4087    0.3482 C   0  0  1  0  0  0  0  0  0  0  0  0
   -0.1408   -1.0795    0.0507 H   0  0  0  0  0  0  0  0  0  0  0  0
   -1.0432    0.7243   -0.6879 C   0  0  0  0  0  0  0  0  0  0  0  0
   -0.7029    0.3508   -1.6548 H   0  0  0  0  0  0  0  0  0  0  0  0
   -2.0887    1.0157   -0.7989 H   0  0  0  0  0  0  0  0  0  0  0  0
   -0.2168    1.9476   -0.3393 C   0  0  0  0  0  0  0  0  0  0  0  0
    0.0236    2.2862    1.0058 C   0  0  0  0  0  0  0  0  0  0  0  0
   -0.3995    1.6877    1.8002 H   0  0  0  0  0  0  0  0  0  0  0  0
    0.8254    3.3987    1.3211 C   0  0  0  0  0  0  0  0  0  0  0  0
    1.0067    3.6585    2.3546 H   0  0  0  0  0  0  0  0  0  0  0  0
    1.3894    4.1729    0.2930 C   0  0  0  0  0  0  0  0  0  0  0  0
    2.0035    5.0290    0.5353 H   0  0  0  0  0  0  0  0  0  0  0  0
    1.1499    3.8382   -1.0522 C   0  0  0  0  0  0  0  0  0  0  0  0
    1.5789    4.4364   -1.8427 H   0  0  0  0  0  0  0  0  0  0  0  0
    0.3459    2.7283   -1.3670 C   0  0  0  0  0  0  0  0  0  0  0  0
    0.1596    2.4738   -2.4023 H   0  0  0  0  0  0  0  0  0  0  0  0
   -0.6196    0.1253    1.7539 C   0  0  0  0  0  0  0  0  0  0  0  0
    0.5216    0.0194    2.2054 O   0  0  0  0  0  0  0  0  0  0  0  0
   -1.6152    0.6924    2.4469 N   0  0  0  0  0  0  0  0  0  0  0  0
   -2.5345    0.6914    2.0318 H   0  0  0  0  0  0  0  0  0  0  0  0
   -1.4720    1.2390    3.7941 C   0  0  0  0  0  0  0  0  0  0  0  0
   -0.6345    1.9391    3.8219 H   0  0  0  0  0  0  0  0  0  0  0  0
   -2.3844    1.7580    4.0892 H   0  0  0  0  0  0  0  0  0  0  0  0
   -1.2733    0.4298    4.4995 H   0  0  0  0  0  0  0  0  0  0  0  0
  5  6  2  0  0  0  0
  5  7  1  0  0  0  0
  2  3  1  0  0  0  0
  2  4  1  0  0  0  0
  2  5  1  0  0  0  0
  1  2  1  0  0  0  0
 25 26  2  0  0  0  0
 25 27  1  0  0  0  0
 23 24  1  0  0  0  0
 21 22  1  0  0  0  0
 21 23  2  0  0  0  0
 19 20  1  0  0  0  0
 19 21  1  0  0  0  0
 17 18  1  0  0  0  0
 17 19  2  0  0  0  0
 15 16  1  0  0  0  0
 15 17  1  0  0  0  0
 14 15  2  0  0  0  0
 14 23  1  0  0  0  0
 11 12  1  0  0  0  0
 11 13  1  0  0  0  0
 11 14  1  0  0  0  0
  9 10  1  0  0  0  0
  9 11  1  0  0  0  0
  9 25  1  0  0  0  0
  7  8  1  0  0  0  0
  7  9  1  0  0  0  0
 29 30  1  0  0  0  0
 29 31  1  0  0  0  0
 29 32  1  0  0  0  0
 27 28  1  0  0  0  0
 27 29  1  0  0  0  0
M  END
$$$$
default_name
  -OEChem-02102213163D

 32 32  0     1  0  0  0  0  0999 V2000
   -3.8405   -3.7518    1.6252 H   0  0  0  0  0  0  0  0  0  0  0  0
   -3.7965   -2.8768    0.9782 C   0  0  0  0  0  0  0  0  0  0  0  0
   -4.5465   -2.1527    1.2902 H   0  0  0  0  0  0  0  0  0  0  0  0
   -3.9745   -3.1748   -0.0538 H   0  0  0  0  0  0  0  0  0  0  0  0
   -2.4245   -2.2537    1.0882 C   0  0  0  0  0  0  0  0  0  0  0  0
   -1.5805   -2.7478    1.8242 O   0  0  0  0  0  0  0  0  0  0  0  0
   -2.2045   -1.1637    0.3562 N   0  0  0  0  0  0  0  0  0  0  0  0
   -2.9595   -0.7907   -0.2008 H   0  0  0  0  0  0  0  0  0  0  0  0
   -0.9485   -0.4087    0.3482 C   0  0  1  0  0  0  0  0  0  0  0  0
   -0.1408   -1.0795    0.0507 H   0  0  0  0  0  0  0  0  0  0  0  0
   -1.0432    0.7243   -0.6879 C   0  0  0  0  0  0  0  0  0  0  0  0
   -0.7029    0.3508   -1.6548 H   0  0  0  0  0  0  0  0  0  0  0  0
   -2.0887    1.0157   -0.7989 H   0  0  0  0  0  0  0  0  0  0  0  0
   -0.2168    1.9476   -0.3393 C   0  0  0  0  0  0  0  0  0  0  0  0
    0.2893    2.1189    0.9631 C   0  0  0  0  0  0  0  0  0  0  0  0
    0.0722    1.3890    1.7302 H   0  0  0  0  0  0  0  0  0  0  0  0
    1.0895    3.2354    1.2682 C   0  0  0  0  0  0  0  0  0  0  0  0
    1.4750    3.3664    2.2696 H   0  0  0  0  0  0  0  0  0  0  0  0
    1.3865    4.1808    0.2720 C   0  0  0  0  0  0  0  0  0  0  0  0
    1.9994    5.0398    0.5070 H   0  0  0  0  0  0  0  0  0  0  0  0
    0.8811    4.0134   -1.0302 C   0  0  0  0  0  0  0  0  0  0  0  0
    1.1048    4.7429   -1.7947 H   0  0  0  0  0  0  0  0  0  0  0  0
    0.0787    2.8993   -1.3339 C   0  0  0  0  0  0  0  0  0  0  0  0
   -0.3122    2.7734   -2.3352 H   0  0  0  0  0  0  0  0  0  0  0  0
   -0.6196    0.1253    1.7539 C   0  0  0  0  0  0  0  0  0  0  0  0
    0.5216    0.0194    2.2054 O   0  0  0  0  0  0  0  0  0  0  0  0
   -1.6152    0.6924    2.4469 N   0  0  0  0  0  0  0  0  0  0  0  0
   -2.5345    0.6914    2.0318 H   0  0  0  0  0  0  0  0  0  0  0  0
   -1.4720    1.2390    3.7941 C   0  0  0  0  0  0  0  0  0  0  0  0
   -0.6345    1.9391    3.8219 H   0  0  0  0  0  0  0  0  0  0  0  0
   -2.3844    1.7580    4.0892 H   0  0  0  0  0  0  0  0  0  0  0  0
   -1.2733    0.4298    4.4995 H   0  0  0  0  0  0  0  0  0  0  0  0
  5  6  2  0  0  0  0
  5  7  1  0  0  0  0
  2  3  1  0  0  0  0
  2  4  1  0  0  0  0
  2  5  1  0  0  0  0
  1  2  1  0  0  0  0
 25 26  2  0  0  0  0
 25 27  1  0  0  0  0
 23 24  1  0  0  0  0
 21 22  1  0  0  0  0
 21 23  2  0  0  0  0
 19 20  1  0  0  0  0
 19 21  1  0  0  0  0
 17 18  1  0  0  0  0
 17 19  2  0  0  0  0
 15 16  1  0  0  0  0
 15 17  1  0  0  0  0
 14 15  2  0  0  0  0
 14 23  1  0  0  0  0
 11 12  1  0  0  0  0
 11 13  1  0  0  0  0
 11 14  1  0  0  0  0
  9 10  1  0  0  0  0
  9 11  1  0  0  0  0
  9 25  1  0  0  0  0
  7  8  1  0  0  0  0
  7  9  1  0  0  0  0
 29 30  1  0  0  0  0
 29 31  1  0  0  0  0
 29 32  1  0  0  0  0
 27 28  1  0  0  0  0
 27 29  1  0  0  0  0
M  END
$$$$
default_name
  -OEChem-02102213163D

 32 32  0     1  0  0  0  0  0999 V2000
   -3.8405   -3.7518    1.6252 H   0  0  0  0  0  0  0  0  0  0  0  0
   -3.7965   -2.8768    0.9782 C   0  0  0  0  0  0  0  0  0  0  0  0
   -4.5465   -2.1527    1.2902 H   0  0  0  0  0  0  0  0  0  0  0  0
   -3.9745   -3.1748   -0.0538 H   0  0  0  0  0  0  0  0  0  0  0  0
   -2.4245   -2.2537    1.0882 C   0  0  0  0  0  0  0  0  0  0  0  0
   -1.5805   -2.7478    1.8242 O   0  0  0  0  0  0  0  0  0  0  0  0
   -2.2045   -1.1637    0.3562 N   0  0  0  0  0  0  0  0  0  0  0  0
   -2.9595   -0.7907   -0.2008 H   0  0  0  0  0  0  0  0  0  0  0  0
   -0.9485   -0.4087    0.3482 C   0  0  1  0  0  0  0  0  0  0  0  0
   -0.1408   -1.0795    0.0507 H   0  0  0  0  0  0  0  0  0  0  0  0
   -1.0432    0.7243   -0.6879 C   0  0  0  0  0  0  0  0  0  0  0  0
   -0.7029    0.3508   -1.6548 H   0  0  0  0  0  0  0  0  0  0  0  0
   -2.0887    1.0157   -0.7989 H   0  0  0  0  0  0  0  0  0  0  0  0
   -0.2168    1.9476   -0.3393 C   0  0  0  0  0  0  0  0  0  0  0  0
    0.5470    1.9791    0.8428 C   0  0  0  0  0  0  0  0  0  0  0  0
    0.5309    1.1384    1.5220 H   0  0  0  0  0  0  0  0  0  0  0  0
    1.3433    3.1008    1.1389 C   0  0  0  0  0  0  0  0  0  0  0  0
    1.9270    3.1240    2.0485 H   0  0  0  0  0  0  0  0  0  0  0  0
    1.3789    4.1913    0.2534 C   0  0  0  0  0  0  0  0  0  0  0  0
    1.9889    5.0540    0.4821 H   0  0  0  0  0  0  0  0  0  0  0  0
    0.6157    4.1636   -0.9280 C   0  0  0  0  0  0  0  0  0  0  0  0
    0.6388    5.0040   -1.6061 H   0  0  0  0  0  0  0  0  0  0  0  0
   -0.1826    3.0439   -1.2220 C   0  0  0  0  0  0  0  0  0  0  0  0
   -0.7718    3.0253   -2.1296 H   0  0  0  0  0  0  0  0  0  0  0  0
   -0.6196    0.1253    1.7539 C   0  0  0  0  0  0  0  0  0  0  0  0
    0.5216    0.0194    2.2054 O   0  0  0  0  0  0  0  0  0  0  0  0
   -1.6152    0.6924    2.4469 N   0  0  0  0  0  0  0  0  0  0  0  0
   -2.5345    0.6914    2.0318 H   0  0  0  0  0  0  0  0  0  0  0  0
   -1.4720    1.2390    3.7941 C   0  0  0  0  0  0  0  0  0  0  0  0
   -0.6345    1.9391    3.8219 H   0  0  0  0  0  0  0  0  0  0  0  0
   -2.3844    1.7580    4.0892 H   0  0  0  0  0  0  0  0  0  0  0  0
   -1.2733    0.4298    4.4995 H   0  0  0  0  0  0  0  0  0  0  0  0
  5  6  2  0  0  0  0
  5  7  1  0  0  0  0
  2  3  1  0  0  0  0
  2  4  1  0  0  0  0
  2  5  1  0  0  0  0
  1  2  1  0  0  0  0
 25 26  2  0  0  0  0
 25 27  1  0  0  0  0
 23 24  1  0  0  0  0
 21 22  1  0  0  0  0
 21 23  2  0  0  0  0
 19 20  1  0  0  0  0
 19 21  1  0  0  0  0
 17 18  1  0  0  0  0
 17 19  2  0  0  0  0
 15 16  1  0  0  0  0
 15 17  1  0  0  0  0
 14 15  2  0  0  0  0
 14 23  1  0  0  0  0
 11 12  1  0  0  0  0
 11 13  1  0  0  0  0
 11 14  1  0  0  0  0
  9 10  1  0  0  0  0
  9 11  1  0  0  0  0
  9 25  1  0  0  0  0
  7  8  1  0  0  0  0
  7  9  1  0  0  0  0
 29 30  1  0  0  0  0
 29 31  1  0  0  0  0
 29 32  1  0  0  0  0
 27 28  1  0  0  0  0
 27 29  1  0  0  0  0
M  END
$$$$
default_name
  -OEChem-02102213163D

 32 32  0     1  0  0  0  0  0999 V2000
   -3.8405   -3.7518    1.6252 H   0  0  0  0  0  0  0  0  0  0  0  0
   -3.7965   -2.8768    0.9782 C   0  0  0  0  0  0  0  0  0  0  0  0
   -4.5465   -2.1527    1.2902 H   0  0  0  0  0  0  0  0  0  0  0  0
   -3.9745   -3.1748   -0.0538 H   0  0  0  0  0  0  0  0  0  0  0  0
   -2.4245   -2.2537    1.0882 C   0  0  0  0  0  0  0  0  0  0  0  0
   -1.5805   -2.7478    1.8242 O   0  0  0  0  0  0  0  0  0  0  0  0
   -2.2045   -1.1637    0.3562 N   0  0  0  0  0  0  0  0  0  0  0  0
   -2.9595   -0.7907   -0.2008 H   0  0  0  0  0  0  0  0  0  0  0  0
   -0.9485   -0.4087    0.3482 C   0  0  1  0  0  0  0  0  0  0  0  0
   -0.1408   -1.0795    0.0507 H   0  0  0  0  0  0  0  0  0  0  0  0
   -1.0432    0.7243   -0.6879 C   0  0  0  0  0  0  0  0  0  0  0  0
   -0.7029    0.3508   -1.6548 H   0  0  0  0  0  0  0  0  0  0  0  0
   -2.0887    1.0157   -0.7989 H   0  0  0  0  0  0  0  0  0  0  0  0
   -0.2168    1.9476   -0.3393 C   0  0  0  0  0  0  0  0  0  0  0  0
    0.7791    1.8764    0.6532 C   0  0  0  0  0  0  0  0  0  0  0  0
    0.9455    0.9531    1.1898 H   0  0  0  0  0  0  0  0  0  0  0  0
    1.5694    3.0041    0.9421 C   0  0  0  0  0  0  0  0  0  0  0  0
    2.3319    2.9480    1.7064 H   0  0  0  0  0  0  0  0  0  0  0  0
    1.3670    4.2035    0.2385 C   0  0  0  0  0  0  0  0  0  0  0  0
    1.9727    5.0706    0.4622 H   0  0  0  0  0  0  0  0  0  0  0  0
    0.3717    4.2785   -0.7528 C   0  0  0  0  0  0  0  0  0  0  0  0
    0.2124    5.2020   -1.2899 H   0  0  0  0  0  0  0  0  0  0  0  0
   -0.4202    3.1523   -1.0390 C   0  0  0  0  0  0  0  0  0  0  0  0
   -1.1878    3.2122   -1.7996 H   0  0  0  0  0  0  0  0  0  0  0  0
   -0.6196    0.1253    1.7539 C   0  0  0  0  0  0  0  0  0  0  0  0
    0.5216    0.0194    2.2054 O   0  0  0  0  0  0  0  0  0  0  0  0
   -1.6152    0.6924    2.4469 N   0  0  0  0  0  0  0  0  0  0  0  0
   -2.5345    0.6914    2.0318 H   0  0  0  0  0  0  0  0  0  0  0  0
   -1.4720    1.2390    3.7941 C   0  0  0  0  0  0  0  0  0  0  0  0
   -0.6345    1.9391    3.8219 H   0  0  0  0  0  0  0  0  0  0  0  0
   -2.3844    1.7580    4.0892 H   0  0  0  0  0  0  0  0  0  0  0  0
   -1.2733    0.4298    4.4995 H   0  0  0  0  0  0  0  0  0  0  0  0
  5  6  2  0  0  0  0
  5  7  1  0  0  0  0
  2  3  1  0  0  0  0
  2  4  1  0  0  0  0
  2  5  1  0  0  0  0
  1  2  1  0  0  0  0
 25 26  2  0  0  0  0
 25 27  1  0  0  0  0
 23 24  1  0  0  0  0
 21 22  1  0  0  0  0
 21 23  2  0  0  0  0
 19 20  1  0  0  0  0
 19 21  1  0  0  0  0
 17 18  1  0  0  0  0
 17 19  2  0  0  0  0
 15 16  1  0  0  0  0
 15 17  1  0  0  0  0
 14 15  2  0  0  0  0
 14 23  1  0  0  0  0
 11 12  1  0  0  0  0
 11 13  1  0  0  0  0
 11 14  1  0  0  0  0
  9 10  1  0  0  0  0
  9 11  1  0  0  0  0
  9 25  1  0  0  0  0
  7  8  1  0  0  0  0
  7  9  1  0  0  0  0
 29 30  1  0  0  0  0
 29 31  1  0  0  0  0
 29 32  1  0  0  0  0
 27 28  1  0  0  0  0
 27 29  1  0  0  0  0
M  END
$$$$
default_name
  -OEChem-02102213163D

 32 32  0     1  0  0  0  0  0999 V2000
   -3.8405   -3.7518    1.6252 H   0  0  0  0  0  0  0  0  0  0  0  0
   -3.7965   -2.8768    0.9782 C   0  0  0  0  0  0  0  0  0  0  0  0
   -4.5465   -2.1527    1.2902 H   0  0  0  0  0  0  0  0  0  0  0  0
   -3.9745   -3.1748   -0.0538 H   0  0  0  0  0  0  0  0  0  0  0  0
   -2.4245   -2.2537    1.0882 C   0  0  0  0  0  0  0  0  0  0  0  0
   -1.5805   -2.7478    1.8242 O   0  0  0  0  0  0  0  0  0  0  0  0
   -2.2045   -1.1637    0.3562 N   0  0  0  0  0  0  0  0  0  0  0  0
   -2.9595   -0.7907   -0.2008 H   0  0  0  0  0  0  0  0  0  0  0  0
   -0.9485   -0.4087    0.3482 C   0  0  1  0  0  0  0  0  0  0  0  0
   -0.1408   -1.0795    0.0507 H   0  0  0  0  0  0  0  0  0  0  0  0
   -1.0432    0.7243   -0.6879 C   0  0  0  0  0  0  0  0  0  0  0  0
   -0.7029    0.3508   -1.6548 H   0  0  0  0  0  0  0  0  0  0  0  0
   -2.0887    1.0157   -0.7989 H   0  0  0  0  0  0  0  0  0  0  0  0
   -0.2168    1.9476   -0.3393 C   0  0  0  0  0  0  0  0  0  0  0  0
    0.9698    1.8177    0.4070 C   0  0  0  0  0  0  0  0  0  0  0  0
    1.2876    0.8455    0.7563 H   0  0  0  0  0  0  0  0  0  0  0  0
    1.7526    2.9519    0.6912 C   0  0  0  0  0  0  0  0  0  0  0  0
    2.6620    2.8504    1.2666 H   0  0  0  0  0  0  0  0  0  0  0  0
    1.3518    4.2168    0.2284 C   0  0  0  0  0  0  0  0  0  0  0  0
    1.9520    5.0884    0.4487 H   0  0  0  0  0  0  0  0  0  0  0  0
    0.1658    4.3502   -0.5164 C   0  0  0  0  0  0  0  0  0  0  0  0
   -0.1452    5.3232   -0.8676 H   0  0  0  0  0  0  0  0  0  0  0  0
   -0.6180    3.2171   -0.7974 C   0  0  0  0  0  0  0  0  0  0  0  0
   -1.5319    3.3216   -1.3676 H   0  0  0  0  0  0  0  0  0  0  0  0
   -0.6196    0.1253    1.7539 C   0  0  0  0  0  0  0  0  0  0  0  0
    0.5216    0.0194    2.2054 O   0  0  0  0  0  0  0  0  0  0  0  0
   -1.6152    0.6924    2.4469 N   0  0  0  0  0  0  0  0  0  0  0  0
   -2.5345    0.6914    2.0318 H   0  0  0  0  0  0  0  0  0  0  0  0
   -1.4720    1.2390    3.7941 C   0  0  0  0  0  0  0  0  0  0  0  0
   -0.6345    1.9391    3.8219 H   0  0  0  0  0  0  0  0  0  0  0  0
   -2.3844    1.7580    4.0892 H   0  0  0  0  0  0  0  0  0  0  0  0
   -1.2733    0.4298    4.4995 H   0  0  0  0  0  0  0  0  0  0  0  0
  5  6  2  0  0  0  0
  5  7  1  0  0  0  0
  2  3  1  0  0  0  0
  2  4  1  0  0  0  0
  2  5  1  0  0  0  0
  1  2  1  0  0  0  0
 25 26  2  0  0  0  0
 25 27  1  0  0  0  0
 23 24  1  0  0  0  0
 21 22  1  0  0  0  0
 21 23  2  0  0  0  0
 19 20  1  0  0  0  0
 19 21  1  0  0  0  0
 17 18  1  0  0  0  0
 17 19  2  0  0  0  0
 15 16  1  0  0  0  0
 15 17  1  0  0  0  0
 14 15  2  0  0  0  0
 14 23  1  0  0  0  0
 11 12  1  0  0  0  0
 11 13  1  0  0  0  0
 11 14  1  0  0  0  0
  9 10  1  0  0  0  0
  9 11  1  0  0  0  0
  9 25  1  0  0  0  0
  7  8  1  0  0  0  0
  7  9  1  0  0  0  0
 29 30  1  0  0  0  0
 29 31  1  0  0  0  0
 29 32  1  0  0  0  0
 27 28  1  0  0  0  0
 27 29  1  0  0  0  0
M  END
$$$$
default_name
  -OEChem-02102213163D

 32 32  0     1  0  0  0  0  0999 V2000
   -3.8405   -3.7518    1.6252 H   0  0  0  0  0  0  0  0  0  0  0  0
   -3.7965   -2.8768    0.9782 C   0  0  0  0  0  0  0  0  0  0  0  0
   -4.5465   -2.1527    1.2902 H   0  0  0  0  0  0  0  0  0  0  0  0
   -3.9745   -3.1748   -0.0538 H   0  0  0  0  0  0  0  0  0  0  0  0
   -2.4245   -2.2537    1.0882 C   0  0  0  0  0  0  0  0  0  0  0  0
   -1.5805   -2.7478    1.8242 O   0  0  0  0  0  0  0  0  0  0  0  0
   -2.2045   -1.1637    0.3562 N   0  0  0  0  0  0  0  0  0  0  0  0
   -2.9595   -0.7907   -0.2008 H   0  0  0  0  0  0  0  0  0  0  0  0
   -0.9485   -0.4087    0.3482 C   0  0  1  0  0  0  0  0  0  0  0  0
   -0.1408   -1.0795    0.0507 H   0  0  0  0  0  0  0  0  0  0  0  0
   -1.0432    0.7243   -0.6879 C   0  0  0  0  0  0  0  0  0  0  0  0
   -0.7029    0.3508   -1.6548 H   0  0  0  0  0  0  0  0  0  0  0  0
   -2.0887    1.0157   -0.7989 H   0  0  0  0  0  0  0  0  0  0  0  0
   -0.2168    1.9476   -0.3393 C   0  0  0  0  0  0  0  0  0  0  0  0
    1.1061    1.8071    0.1212 C   0  0  0  0  0  0  0  0  0  0  0  0
    1.5340    0.8231    0.2510 H   0  0  0  0  0  0  0  0  0  0  0  0
    1.8802    2.9478    0.4032 C   0  0  0  0  0  0  0  0  0  0  0  0
    2.8949    2.8376    0.7592 H   0  0  0  0  0  0  0  0  0  0  0  0
    1.3341    4.2301    0.2236 C   0  0  0  0  0  0  0  0  0  0  0  0
    1.9281    5.1064    0.4426 H   0  0  0  0  0  0  0  0  0  0  0  0
    0.0120    4.3739   -0.2350 C   0  0  0  0  0  0  0  0  0  0  0  0
   -0.4097    5.3594   -0.3679 H   0  0  0  0  0  0  0  0  0  0  0  0
   -0.7625    3.2338   -0.5136 C   0  0  0  0  0  0  0  0  0  0  0  0
   -1.7806    3.3458   -0.8632 H   0  0  0  0  0  0  0  0  0  0  0  0
   -0.6196    0.1253    1.7539 C   0  0  0  0  0  0  0  0  0  0  0  0
    0.5216    0.0194    2.2054 O   0  0  0  0  0  0  0  0  0  0  0  0
   -1.6152    0.6924    2.4469 N   0  0  0  0  0  0  0  0  0  0  0  0
   -2.5345    0.6914    2.0318 H   0  0  0  0  0  0  0  0  0  0  0  0
   -1.4720    1.2390    3.7941 C   0  0  0  0  0  0  0  0  0  0  0  0
   -0.6345    1.9391    3.8219 H   0  0  0  0  0  0  0  0  0  0  0  0
   -2.3844    1.7580    4.0892 H   0  0  0  0  0  0  0  0  0  0  0  0
   -1.2733    0.4298    4.4995 H   0  0  0  0  0  0  0  0  0  0  0  0
  5  6  2  0  0  0  0
  5  7  1  0  0  0  0
  2  3  1  0  0  0  0
  2  4  1  0  0  0  0
  2  5  1  0  0  0  0
  1  2  1  0  0  0  0
 25 26  2  0  0  0  0
 25 27  1  0  0  0  0
 23 24  1  0  0  0  0
 21 22  1  0  0  0  0
 21 23  2  0  0  0  0
 19 20  1  0  0  0  0
 19 21  1  0  0  0  0
 17 18  1  0  0  0  0
 17 19  2  0  0  0  0
 15 16  1  0  0  0  0
 15 17  1  0  0  0  0
 14 15  2  0  0  0  0
 14 23  1  0  0  0  0
 11 12  1  0  0  0  0
 11 13  1  0  0  0  0
 11 14  1  0  0  0  0
  9 10  1  0  0  0  0
  9 11  1  0  0  0  0
  9 25  1  0  0  0  0
  7  8  1  0  0  0  0
  7  9  1  0  0  0  0
 29 30  1  0  0  0  0
 29 31  1  0  0  0  0
 29 32  1  0  0  0  0
 27 28  1  0  0  0  0
 27 29  1  0  0  0  0
M  END
$$$$
default_name
  -OEChem-02102213163D

 32 32  0     1  0  0  0  0  0999 V2000
   -3.8405   -3.7518    1.6252 H   0  0  0  0  0  0  0  0  0  0  0  0
   -3.7965   -2.8768    0.9782 C   0  0  0  0  0  0  0  0  0  0  0  0
   -4.5465   -2.1527    1.2902 H   0  0  0  0  0  0  0  0  0  0  0  0
   -3.9745   -3.1748   -0.0538 H   0  0  0  0  0  0  0  0  0  0  0  0
   -2.4245   -2.2537    1.0882 C   0  0  0  0  0  0  0  0  0  0  0  0
   -1.5805   -2.7478    1.8242 O   0  0  0  0  0  0  0  0  0  0  0  0
   -2.2045   -1.1637    0.3562 N   0  0  0  0  0  0  0  0  0  0  0  0
   -2.9595   -0.7907   -0.2008 H   0  0  0  0  0  0  0  0  0  0  0  0
   -0.9485   -0.4087    0.3482 C   0  0  1  0  0  0  0  0  0  0  0  0
   -0.1408   -1.0795    0.0507 H   0  0  0  0  0  0  0  0  0  0  0  0
   -1.0432    0.7243   -0.6879 C   0  0  0  0  0  0  0  0  0  0  0  0
   -0.7029    0.3508   -1.6548 H   0  0  0  0  0  0  0  0  0  0  0  0
   -2.0887    1.0157   -0.7989 H   0  0  0  0  0  0  0  0  0  0  0  0
   -0.2168    1.9476   -0.3393 C   0  0  0  0  0  0  0  0  0  0  0  0
    1.1787    1.8452   -0.1848 C   0  0  0  0  0  0  0  0  0  0  0  0
    1.6678    0.8873   -0.2917 H   0  0  0  0  0  0  0  0  0  0  0  0
    1.9435    2.9920    0.0979 C   0  0  0  0  0  0  0  0  0  0  0  0
    3.0147    2.9108    0.2186 H   0  0  0  0  0  0  0  0  0  0  0  0
    1.3152    4.2425    0.2246 C   0  0  0  0  0  0  0  0  0  0  0  0
    1.9026    5.1231    0.4441 H   0  0  0  0  0  0  0  0  0  0  0  0
   -0.0793    4.3480    0.0723 C   0  0  0  0  0  0  0  0  0  0  0  0
   -0.5631    5.3083    0.1751 H   0  0  0  0  0  0  0  0  0  0  0  0
   -0.8437    3.2013   -0.2069 C   0  0  0  0  0  0  0  0  0  0  0  0
   -1.9169    3.2832   -0.3205 H   0  0  0  0  0  0  0  0  0  0  0  0
   -0.6196    0.1253    1.7539 C   0  0  0  0  0  0  0  0  0  0  0  0
    0.5216    0.0194    2.2054 O   0  0  0  0  0  0  0  0  0  0  0  0
   -1.6152    0.6924    2.4469 N   0  0  0  0  0  0  0  0  0  0  0  0
   -2.5345    0.6914    2.0318 H   0  0  0  0  0  0  0  0  0  0  0  0
   -1.4720    1.2390    3.7941 C   0  0  0  0  0  0  0  0  0  0  0  0
   -0.6345    1.9391    3.8219 H   0  0  0  0  0  0  0  0  0  0  0  0
   -2.3844    1.7580    4.0892 H   0  0  0  0  0  0  0  0  0  0  0  0
   -1.2733    0.4298    4.4995 H   0  0  0  0  0  0  0  0  0  0  0  0
  5  6  2  0  0  0  0
  5  7  1  0  0  0  0
  2  3  1  0  0  0  0
  2  4  1  0  0  0  0
  2  5  1  0  0  0  0
  1  2  1  0  0  0  0
 25 26  2  0  0  0  0
 25 27  1  0  0  0  0
 23 24  1  0  0  0  0
 21 22  1  0  0  0  0
 21 23  2  0  0  0  0
 19 20  1  0  0  0  0
 19 21  1  0  0  0  0
 17 18  1  0  0  0  0
 17 19  2  0  0  0  0
 15 16  1  0  0  0  0
 15 17  1  0  0  0  0
 14 15  2  0  0  0  0
 14 23  1  0  0  0  0
 11 12  1  0  0  0  0
 11 13  1  0  0  0  0
 11 14  1  0  0  0  0
  9 10  1  0  0  0  0
  9 11  1  0  0  0  0
  9 25  1  0  0  0  0
  7  8  1  0  0  0  0
  7  9  1  0  0  0  0
 29 30  1  0  0  0  0
 29 31  1  0  0  0  0
 29 32  1  0  0  0  0
 27 28  1  0  0  0  0
 27 29  1  0  0  0  0
M  END
$$$$
default_name
  -OEChem-02102213163D

 32 32  0     1  0  0  0  0  0999 V2000
   -3.8405   -3.7518    1.6252 H   0  0  0  0  0  0  0  0  0  0  0  0
   -3.7965   -2.8768    0.9782 C   0  0  0  0  0  0  0  0  0  0  0  0
   -4.5465   -2.1527    1.2902 H   0  0  0  0  0  0  0  0  0  0  0  0
   -3.9745   -3.1748   -0.0538 H   0  0  0  0  0  0  0  0  0  0  0  0
   -2.4245   -2.2537    1.0882 C   0  0  0  0  0  0  0  0  0  0  0  0
   -1.5805   -2.7478    1.8242 O   0  0  0  0  0  0  0  0  0  0  0  0
   -2.2045   -1.1637    0.3562 N   0  0  0  0  0  0  0  0  0  0  0  0
   -2.9595   -0.7907   -0.2008 H   0  0  0  0  0  0  0  0  0  0  0  0
   -0.9485   -0.4087    0.3482 C   0  0  1  0  0  0  0  0  0  0  0  0
   -0.1408   -1.0795    0.0507 H   0  0  0  0  0  0  0  0  0  0  0  0
   -1.0432    0.7243   -0.6879 C   0  0  0  0  0  0  0  0  0  0  0  0
   -0.7029    0.3508   -1.6548 H   0  0  0  0  0  0  0  0  0  0  0  0
   -2.0887    1.0157   -0.7989 H   0  0  0  0  0  0  0  0  0  0  0  0
   -0.2168    1.9476   -0.3393 C   0  0  0  0  0  0  0  0  0  0  0  0
    1.1827    1.9296   -0.4902 C   0  0  0  0  0  0  0  0  0  0  0  0
    1.6800    1.0338   -0.8347 H   0  0  0  0  0  0  0  0  0  0  0  0
    1.9384    3.0815   -0.2041 C   0  0  0  0  0  0  0  0  0  0  0  0
    3.0132    3.0647   -0.3182 H   0  0  0  0  0  0  0  0  0  0  0  0
    1.2965    4.2533    0.2312 C   0  0  0  0  0  0  0  0  0  0  0  0
    1.8773    5.1376    0.4533 H   0  0  0  0  0  0  0  0  0  0  0  0
   -0.1017    4.2742    0.3845 C   0  0  0  0  0  0  0  0  0  0  0  0
   -0.5948    5.1732    0.7244 H   0  0  0  0  0  0  0  0  0  0  0  0
   -0.8563    3.1218    0.1017 C   0  0  0  0  0  0  0  0  0  0  0  0
   -1.9316    3.1382    0.2232 H   0  0  0  0  0  0  0  0  0  0  0  0
   -0.6196    0.1253    1.7539 C   0  0  0  0  0  0  0  0  0  0  0  0
    0.5216    0.0194    2.2054 O   0  0  0  0  0  0  0  0  0  0  0  0
   -1.6152    0.6924    2.4469 N   0  0  0  0  0  0  0  0  0  0  0  0
   -2.5345    0.6914    2.0318 H   0  0  0  0  0  0  0  0  0  0  0  0
   -1.4720    1.2390    3.7941 C   0  0  0  0  0  0  0  0  0  0  0  0
   -0.6345    1.9391    3.8219 H   0  0  0  0  0  0  0  0  0  0  0  0
   -2.3844    1.7580    4.0892 H   0  0  0  0  0  0  0  0  0  0  0  0
   -1.2733    0.4298    4.4995 H   0  0  0  0  0  0  0  0  0  0  0  0
  5  6  2  0  0  0  0
  5  7  1  0  0  0  0
  2  3  1  0  0  0  0
  2  4  1  0  0  0  0
  2  5  1  0  0  0  0
  1  2  1  0  0  0  0
 25 26  2  0  0  0  0
 25 27  1  0  0  0  0
 23 24  1  0  0  0  0
 21 22  1  0  0  0  0
 21 23  2  0  0  0  0
 19 20  1  0  0  0  0
 19 21  1  0  0  0  0
 17 18  1  0  0  0  0
 17 19  2  0  0  0  0
 15 16  1  0  0  0  0
 15 17  1  0  0  0  0
 14 15  2  0  0  0  0
 14 23  1  0  0  0  0
 11 12  1  0  0  0  0
 11 13  1  0  0  0  0
 11 14  1  0  0  0  0
  9 10  1  0  0  0  0
  9 11  1  0  0  0  0
  9 25  1  0  0  0  0
  7  8  1  0  0  0  0
  7  9  1  0  0  0  0
 29 30  1  0  0  0  0
 29 31  1  0  0  0  0
 29 32  1  0  0  0  0
 27 28  1  0  0  0  0
 27 29  1  0  0  0  0
M  END
$$$$
default_name
  -OEChem-02102213163D

 32 32  0     1  0  0  0  0  0999 V2000
   -3.8405   -3.7518    1.6252 H   0  0  0  0  0  0  0  0  0  0  0  0
   -3.7965   -2.8768    0.9782 C   0  0  0  0  0  0  0  0  0  0  0  0
   -4.5465   -2.1527    1.2902 H   0  0  0  0  0  0  0  0  0  0  0  0
   -3.9745   -3.1748   -0.0538 H   0  0  0  0  0  0  0  0  0  0  0  0
   -2.4245   -2.2537    1.0882 C   0  0  0  0  0  0  0  0  0  0  0  0
   -1.5805   -2.7478    1.8242 O   0  0  0  0  0  0  0  0  0  0  0  0
   -2.2045   -1.1637    0.3562 N   0  0  0  0  0  0  0  0  0  0  0  0
   -2.9595   -0.7907   -0.2008 H   0  0  0  0  0  0  0  0  0  0  0  0
   -0.9485   -0.4087    0.3482 C   0  0  1  0  0  0  0  0  0  0  0  0
   -0.1408   -1.0795    0.0507 H   0  0  0  0  0  0  0  0  0  0  0  0
   -1.0432    0.7243   -0.6879 C   0  0  0  0  0  0  0  0  0  0  0  0
   -0.7029    0.3508   -1.6548 H   0  0  0  0  0  0  0  0  0  0  0  0
   -2.0887    1.0157   -0.7989 H   0  0  0  0  0  0  0  0  0  0  0  0
   -0.2168    1.9476   -0.3393 C   0  0  0  0  0  0  0  0  0  0  0  0
    1.1179    2.0543   -0.7742 C   0  0  0  0  0  0  0  0  0  0  0  0
    1.5697    1.2527   -1.3412 H   0  0  0  0  0  0  0  0  0  0  0  0
    1.8651    3.2103   -0.4821 C   0  0  0  0  0  0  0  0  0  0  0  0
    2.8906    3.2891   -0.8147 H   0  0  0  0  0  0  0  0  0  0  0  0
    1.2791    4.2616    0.2431 C   0  0  0  0  0  0  0  0  0  0  0  0
    1.8540    5.1487    0.4695 H   0  0  0  0  0  0  0  0  0  0  0  0
   -0.0539    4.1576    0.6804 C   0  0  0  0  0  0  0  0  0  0  0  0
   -0.5027    4.9633    1.2425 H   0  0  0  0  0  0  0  0  0  0  0  0
   -0.7993    3.0008    0.3912 C   0  0  0  0  0  0  0  0  0  0  0  0
   -1.8237    2.9206    0.7311 H   0  0  0  0  0  0  0  0  0  0  0  0
   -0.6196    0.1253    1.7539 C   0  0  0  0  0  0  0  0  0  0  0  0
    0.5216    0.0194    2.2054 O   0  0  0  0  0  0  0  0  0  0  0  0
   -1.6152    0.6924    2.4469 N   0  0  0  0  0  0  0  0  0  0  0  0
   -2.5345    0.6914    2.0318 H   0  0  0  0  0  0  0  0  0  0  0  0
   -1.4720    1.2390    3.7941 C   0  0  0  0  0  0  0  0  0  0  0  0
   -0.6345    1.9391    3.8219 H   0  0  0  0  0  0  0  0  0  0  0  0
   -2.3844    1.7580    4.0892 H   0  0  0  0  0  0  0  0  0  0  0  0
   -1.2733    0.4298    4.4995 H   0  0  0  0  0  0  0  0  0  0  0  0
  5  6  2  0  0  0  0
  5  7  1  0  0  0  0
  2  3  1  0  0  0  0
  2  4  1  0  0  0  0
  2  5  1  0  0  0  0
  1  2  1  0  0  0  0
 25 26  2  0  0  0  0
 25 27  1  0  0  0  0
 23 24  1  0  0  0  0
 21 22  1  0  0  0  0
 21 23  2  0  0  0  0
 19 20  1  0  0  0  0
 19 21  1  0  0  0  0
 17 18  1  0  0  0  0
 17 19  2  0  0  0  0
 15 16  1  0  0  0  0
 15 17  1  0  0  0  0
 14 15  2  0  0  0  0
 14 23  1  0  0  0  0
 11 12  1  0  0  0  0
 11 13  1  0  0  0  0
 11 14  1  0  0  0  0
  9 10  1  0  0  0  0
  9 11  1  0  0  0  0
  9 25  1  0  0  0  0
  7  8  1  0  0  0  0
  7  9  1  0  0  0  0
 29 30  1  0  0  0  0
 29 31  1  0  0  0  0
 29 32  1  0  0  0  0
 27 28  1  0  0  0  0
 27 29  1  0  0  0  0
M  END
$$$$
default_name
  -OEChem-02102213163D

 32 32  0     1  0  0  0  0  0999 V2000
   -3.8405   -3.7518    1.6252 H   0  0  0  0  0  0  0  0  0  0  0  0
   -3.7965   -2.8768    0.9782 C   0  0  0  0  0  0  0  0  0  0  0  0
   -4.5465   -2.1527    1.2902 H   0  0  0  0  0  0  0  0  0  0  0  0
   -3.9745   -3.1748   -0.0538 H   0  0  0  0  0  0  0  0  0  0  0  0
   -2.4245   -2.2537    1.0882 C   0  0  0  0  0  0  0  0  0  0  0  0
   -1.5805   -2.7478    1.8242 O   0  0  0  0  0  0  0  0  0  0  0  0
   -2.2045   -1.1637    0.3562 N   0  0  0  0  0  0  0  0  0  0  0  0
   -2.9595   -0.7907   -0.2008 H   0  0  0  0  0  0  0  0  0  0  0  0
   -0.9485   -0.4087    0.3482 C   0  0  1  0  0  0  0  0  0  0  0  0
   -0.1408   -1.0795    0.0507 H   0  0  0  0  0  0  0  0  0  0  0  0
   -1.0432    0.7243   -0.6879 C   0  0  0  0  0  0  0  0  0  0  0  0
   -0.7029    0.3508   -1.6548 H   0  0  0  0  0  0  0  0  0  0  0  0
   -2.0887    1.0157   -0.7989 H   0  0  0  0  0  0  0  0  0  0  0  0
   -0.2168    1.9476   -0.3393 C   0  0  0  0  0  0  0  0  0  0  0  0
    0.9885    2.2110   -1.0173 C   0  0  0  0  0  0  0  0  0  0  0  0
    1.3445    1.5289   -1.7765 H   0  0  0  0  0  0  0  0  0  0  0  0
    1.7286    3.3695   -0.7171 C   0  0  0  0  0  0  0  0  0  0  0  0
    2.6552    3.5685   -1.2371 H   0  0  0  0  0  0  0  0  0  0  0  0
    1.2643    4.2670    0.2593 C   0  0  0  0  0  0  0  0  0  0  0  0
    1.8341    5.1558    0.4916 H   0  0  0  0  0  0  0  0  0  0  0  0
    0.0610    4.0060    0.9397 C   0  0  0  0  0  0  0  0  0  0  0  0
   -0.2932    4.6931    1.6942 H   0  0  0  0  0  0  0  0  0  0  0  0
   -0.6767    2.8465    0.6419 C   0  0  0  0  0  0  0  0  0  0  0  0
   -1.6005    2.6452    1.1684 H   0  0  0  0  0  0  0  0  0  0  0  0
   -0.6196    0.1253    1.7539 C   0  0  0  0  0  0  0  0  0  0  0  0
    0.5216    0.0194    2.2054 O   0  0  0  0  0  0  0  0  0  0  0  0
   -1.6152    0.6924    2.4469 N   0  0  0  0  0  0  0  0  0  0  0  0
   -2.5345    0.6914    2.0318 H   0  0  0  0  0  0  0  0  0  0  0  0
   -1.4720    1.2390    3.7941 C   0  0  0  0  0  0  0  0  0  0  0  0
   -0.6345    1.9391    3.8219 H   0  0  0  0  0  0  0  0  0  0  0  0
   -2.3844    1.7580    4.0892 H   0  0  0  0  0  0  0  0  0  0  0  0
   -1.2733    0.4298    4.4995 H   0  0  0  0  0  0  0  0  0  0  0  0
  5  6  2  0  0  0  0
  5  7  1  0  0  0  0
  2  3  1  0  0  0  0
  2  4  1  0  0  0  0
  2  5  1  0  0  0  0
  1  2  1  0  0  0  0
 25 26  2  0  0  0  0
 25 27  1  0  0  0  0
 23 24  1  0  0  0  0
 21 22  1  0  0  0  0
 21 23  2  0  0  0  0
 19 20  1  0  0  0  0
 19 21  1  0  0  0  0
 17 18  1  0  0  0  0
 17 19  2  0  0  0  0
 15 16  1  0  0  0  0
 15 17  1  0  0  0  0
 14 15  2  0  0  0  0
 14 23  1  0  0  0  0
 11 12  1  0  0  0  0
 11 13  1  0  0  0  0
 11 14  1  0  0  0  0
  9 10  1  0  0  0  0
  9 11  1  0  0  0  0
  9 25  1  0  0  0  0
  7  8  1  0  0  0  0
  7  9  1  0  0  0  0
 29 30  1  0  0  0  0
 29 31  1  0  0  0  0
 29 32  1  0  0  0  0
 27 28  1  0  0  0  0
 27 29  1  0  0  0  0
M  END
$$$$
default_name
  -OEChem-02102213163D

 32 32  0     1  0  0  0  0  0999 V2000
   -3.8405   -3.7518    1.6252 H   0  0  0  0  0  0  0  0  0  0  0  0
   -3.7965   -2.8768    0.9782 C   0  0  0  0  0  0  0  0  0  0  0  0
   -4.5465   -2.1527    1.2902 H   0  0  0  0  0  0  0  0  0  0  0  0
   -3.9745   -3.1748   -0.0538 H   0  0  0  0  0  0  0  0  0  0  0  0
   -2.4245   -2.2537    1.0882 C   0  0  0  0  0  0  0  0  0  0  0  0
   -1.5805   -2.7478    1.8242 O   0  0  0  0  0  0  0  0  0  0  0  0
   -2.2045   -1.1637    0.3562 N   0  0  0  0  0  0  0  0  0  0  0  0
   -2.9595   -0.7907   -0.2008 H   0  0  0  0  0  0  0  0  0  0  0  0
   -0.9485   -0.4087    0.3482 C   0  0  1  0  0  0  0  0  0  0  0  0
   -0.1408   -1.0795    0.0507 H   0  0  0  0  0  0  0  0  0  0  0  0
   -1.0432    0.7243   -0.6879 C   0  0  0  0  0  0  0  0  0  0  0  0
   -0.7029    0.3508   -1.6548 H   0  0  0  0  0  0  0  0  0  0  0  0
   -2.0887    1.0157   -0.7989 H   0  0  0  0  0  0  0  0  0  0  0  0
   -0.2168    1.9476   -0.3393 C   0  0  0  0  0  0  0  0  0  0  0  0
    0.8035    2.3889   -1.2031 C   0  0  0  0  0  0  0  0  0  0  0  0
    1.0196    1.8437   -2.1110 H   0  0  0  0  0  0  0  0  0  0  0  0
    1.5382    3.5483   -0.8932 C   0  0  0  0  0  0  0  0  0  0  0  0
    2.3230    3.8839   -1.5566 H   0  0  0  0  0  0  0  0  0  0  0  0
    1.2531    4.2690    0.2789 C   0  0  0  0  0  0  0  0  0  0  0  0
    1.8192    5.1584    0.5180 H   0  0  0  0  0  0  0  0  0  0  0  0
    0.2352    3.8299    1.1449 C   0  0  0  0  0  0  0  0  0  0  0  0
    0.0195    4.3808    2.0486 H   0  0  0  0  0  0  0  0  0  0  0  0
   -0.4967    2.6694    0.8367 C   0  0  0  0  0  0  0  0  0  0  0  0
   -1.2773    2.3308    1.5054 H   0  0  0  0  0  0  0  0  0  0  0  0
   -0.6196    0.1253    1.7539 C   0  0  0  0  0  0  0  0  0  0  0  0
    0.5216    0.0194    2.2054 O   0  0  0  0  0  0  0  0  0  0  0  0
   -1.6152    0.6924    2.4469 N   0  0  0  0  0  0  0  0  0  0  0  0
   -2.5345    0.6914    2.0318 H   0  0  0  0  0  0  0  0  0  0  0  0
   -1.4720    1.2390    3.7941 C   0  0  0  0  0  0  0  0  0  0  0  0
   -0.6345    1.9391    3.8219 H   0  0  0  0  0  0  0  0  0  0  0  0
   -2.3844    1.7580    4.0892 H   0  0  0  0  0  0  0  0  0  0  0  0
   -1.2733    0.4298    4.4995 H   0  0  0  0  0  0  0  0  0  0  0  0
  5  6  2  0  0  0  0
  5  7  1  0  0  0  0
  2  3  1  0  0  0  0
  2  4  1  0  0  0  0
  2  5  1  0  0  0  0
  1  2  1  0  0  0  0
 25 26  2  0  0  0  0
 25 27  1  0  0  0  0
 23 24  1  0  0  0  0
 21 22  1  0  0  0  0
 21 23  2  0  0  0  0
 19 20  1  0  0  0  0
 19 21  1  0  0  0  0
 17 18  1  0  0  0  0
 17 19  2  0  0  0  0
 15 16  1  0  0  0  0
 15 17  1  0  0  0  0
 14 15  2  0  0  0  0
 14 23  1  0  0  0  0
 11 12  1  0  0  0  0
 11 13  1  0  0  0  0
 11 14  1  0  0  0  0
  9 10  1  0  0  0  0
  9 11  1  0  0  0  0
  9 25  1  0  0  0  0
  7  8  1  0  0  0  0
  7  9  1  0  0  0  0
 29 30  1  0  0  0  0
 29 31  1  0  0  0  0
 29 32  1  0  0  0  0
 27 28  1  0  0  0  0
 27 29  1  0  0  0  0
M  END
$$$$
default_name
  -OEChem-02102213163D

 32 32  0     1  0  0  0  0  0999 V2000
   -3.8405   -3.7518    1.6252 H   0  0  0  0  0  0  0  0  0  0  0  0
   -3.7965   -2.8768    0.9782 C   0  0  0  0  0  0  0  0  0  0  0  0
   -4.5465   -2.1527    1.2902 H   0  0  0  0  0  0  0  0  0  0  0  0
   -3.9745   -3.1748   -0.0538 H   0  0  0  0  0  0  0  0  0  0  0  0
   -2.4245   -2.2537    1.0882 C   0  0  0  0  0  0  0  0  0  0  0  0
   -1.5805   -2.7478    1.8242 O   0  0  0  0  0  0  0  0  0  0  0  0
   -2.2045   -1.1637    0.3562 N   0  0  0  0  0  0  0  0  0  0  0  0
   -2.9595   -0.7907   -0.2008 H   0  0  0  0  0  0  0  0  0  0  0  0
   -0.9485   -0.4087    0.3482 C   0  0  1  0  0  0  0  0  0  0  0  0
   -0.1408   -1.0795    0.0507 H   0  0  0  0  0  0  0  0  0  0  0  0
   -1.0432    0.7243   -0.6879 C   0  0  0  0  0  0  0  0  0  0  0  0
   -0.7029    0.3508   -1.6548 H   0  0  0  0  0  0  0  0  0  0  0  0
   -2.0887    1.0157   -0.7989 H   0  0  0  0  0  0  0  0  0  0  0  0
   -0.2168    1.9476   -0.3393 C   0  0  0  0  0  0  0  0  0  0  0  0
    0.5754    2.5759   -1.3188 C   0  0  0  0  0  0  0  0  0  0  0  0
    0.6172    2.1756   -2.3219 H   0  0  0  0  0  0  0  0  0  0  0  0
    1.3069    3.7345   -0.9984 C   0  0  0  0  0  0  0  0  0  0  0  0
    1.9167    4.2139   -1.7513 H   0  0  0  0  0  0  0  0  0  0  0  0
    1.2462    4.2676    0.3004 C   0  0  0  0  0  0  0  0  0  0  0  0
    1.8101    5.1563    0.5471 H   0  0  0  0  0  0  0  0  0  0  0  0
    0.4567    3.6413    1.2819 C   0  0  0  0  0  0  0  0  0  0  0  0
    0.4142    4.0478    2.2817 H   0  0  0  0  0  0  0  0  0  0  0  0
   -0.2716    2.4816    0.9623 C   0  0  0  0  0  0  0  0  0  0  0  0
   -0.8760    1.9988    1.7192 H   0  0  0  0  0  0  0  0  0  0  0  0
   -0.6196    0.1253    1.7539 C   0  0  0  0  0  0  0  0  0  0  0  0
    0.5216    0.0194    2.2054 O   0  0  0  0  0  0  0  0  0  0  0  0
   -1.6152    0.6924    2.4469 N   0  0  0  0  0  0  0  0  0  0  0  0
   -2.5345    0.6914    2.0318 H   0  0  0  0  0  0  0  0  0  0  0  0
   -1.4720    1.2390    3.7941 C   0  0  0  0  0  0  0  0  0  0  0  0
   -0.6345    1.9391    3.8219 H   0  0  0  0  0  0  0  0  0  0  0  0
   -2.3844    1.7580    4.0892 H   0  0  0  0  0  0  0  0  0  0  0  0
   -1.2733    0.4298    4.4995 H   0  0  0  0  0  0  0  0  0  0  0  0
  5  6  2  0  0  0  0
  5  7  1  0  0  0  0
  2  3  1  0  0  0  0
  2  4  1  0  0  0  0
  2  5  1  0  0  0  0
  1  2  1  0  0  0  0
 25 26  2  0  0  0  0
 25 27  1  0  0  0  0
 23 24  1  0  0  0  0
 21 22  1  0  0  0  0
 21 23  2  0  0  0  0
 19 20  1  0  0  0  0
 19 21  1  0  0  0  0
 17 18  1  0  0  0  0
 17 19  2  0  0  0  0
 15 16  1  0  0  0  0
 15 17  1  0  0  0  0
 14 15  2  0  0  0  0
 14 23  1  0  0  0  0
 11 12  1  0  0  0  0
 11 13  1  0  0  0  0
 11 14  1  0  0  0  0
  9 10  1  0  0  0  0
  9 11  1  0  0  0  0
  9 25  1  0  0  0  0
  7  8  1  0  0  0  0
  7  9  1  0  0  0  0
 29 30  1  0  0  0  0
 29 31  1  0  0  0  0
 29 32  1  0  0  0  0
 27 28  1  0  0  0  0
 27 29  1  0  0  0  0
M  END
$$$$
default_name
  -OEChem-02102213163D

 32 32  0     1  0  0  0  0  0999 V2000
   -3.8405   -3.7518    1.6252 H   0  0  0  0  0  0  0  0  0  0  0  0
   -3.7965   -2.8768    0.9782 C   0  0  0  0  0  0  0  0  0  0  0  0
   -4.5465   -2.1527    1.2902 H   0  0  0  0  0  0  0  0  0  0  0  0
   -3.9745   -3.1748   -0.0538 H   0  0  0  0  0  0  0  0  0  0  0  0
   -2.4245   -2.2537    1.0882 C   0  0  0  0  0  0  0  0  0  0  0  0
   -1.5805   -2.7478    1.8242 O   0  0  0  0  0  0  0  0  0  0  0  0
   -2.2045   -1.1637    0.3562 N   0  0  0  0  0  0  0  0  0  0  0  0
   -2.9595   -0.7907   -0.2008 H   0  0  0  0  0  0  0  0  0  0  0  0
   -0.9485   -0.4087    0.3482 C   0  0  1  0  0  0  0  0  0  0  0  0
   -0.1408   -1.0795    0.0507 H   0  0  0  0  0  0  0  0  0  0  0  0
   -1.0432    0.7243   -0.6879 C   0  0  0  0  0  0  0  0  0  0  0  0
   -0.7029    0.3508   -1.6548 H   0  0  0  0  0  0  0  0  0  0  0  0
   -2.0887    1.0157   -0.7989 H   0  0  0  0  0  0  0  0  0  0  0  0
   -0.2168    1.9476   -0.3393 C   0  0  0  0  0  0  0  0  0  0  0  0
    0.3199    2.7594   -1.3566 C   0  0  0  0  0  0  0  0  0  0  0  0
    0.1648    2.5020   -2.3949 H   0  0  0  0  0  0  0  0  0  0  0  0
    1.0505    3.9154   -1.0254 C   0  0  0  0  0  0  0  0  0  0  0  0
    1.4639    4.5359   -1.8081 H   0  0  0  0  0  0  0  0  0  0  0  0
    1.2441    4.2627    0.3223 C   0  0  0  0  0  0  0  0  0  0  0  0
    1.8075    5.1496    0.5768 H   0  0  0  0  0  0  0  0  0  0  0  0
    0.7105    3.4529    1.3414 C   0  0  0  0  0  0  0  0  0  0  0  0
    0.8638    3.7167    2.3775 H   0  0  0  0  0  0  0  0  0  0  0  0
   -0.0169    2.2959    1.0101 C   0  0  0  0  0  0  0  0  0  0  0  0
   -0.4240    1.6719    1.7951 H   0  0  0  0  0  0  0  0  0  0  0  0
   -0.6196    0.1253    1.7539 C   0  0  0  0  0  0  0  0  0  0  0  0
    0.5216    0.0194    2.2054 O   0  0  0  0  0  0  0  0  0  0  0  0
   -1.6152    0.6924    2.4469 N   0  0  0  0  0  0  0  0  0  0  0  0
   -2.5345    0.6914    2.0318 H   0  0  0  0  0  0  0  0  0  0  0  0
   -1.4720    1.2390    3.7941 C   0  0  0  0  0  0  0  0  0  0  0  0
   -0.6345    1.9391    3.8219 H   0  0  0  0  0  0  0  0  0  0  0  0
   -2.3844    1.7580    4.0892 H   0  0  0  0  0  0  0  0  0  0  0  0
   -1.2733    0.4298    4.4995 H   0  0  0  0  0  0  0  0  0  0  0  0
  5  6  2  0  0  0  0
  5  7  1  0  0  0  0
  2  3  1  0  0  0  0
  2  4  1  0  0  0  0
  2  5  1  0  0  0  0
  1  2  1  0  0  0  0
 25 26  2  0  0  0  0
 25 27  1  0  0  0  0
 23 24  1  0  0  0  0
 21 22  1  0  0  0  0
 21 23  2  0  0  0  0
 19 20  1  0  0  0  0
 19 21  1  0  0  0  0
 17 18  1  0  0  0  0
 17 19  2  0  0  0  0
 15 16  1  0  0  0  0
 15 17  1  0  0  0  0
 14 15  2  0  0  0  0
 14 23  1  0  0  0  0
 11 12  1  0  0  0  0
 11 13  1  0  0  0  0
 11 14  1  0  0  0  0
  9 10  1  0  0  0  0
  9 11  1  0  0  0  0
  9 25  1  0  0  0  0
  7  8  1  0  0  0  0
  7  9  1  0  0  0  0
 29 30  1  0  0  0  0
 29 31  1  0  0  0  0
 29 32  1  0  0  0  0
 27 28  1  0  0  0  0
 27 29  1  0  0  0  0
M  END
$$$$
default_name
  -OEChem-02102213163D

 32 32  0     1  0  0  0  0  0999 V2000
   -3.8405   -3.7518    1.6252 H   0  0  0  0  0  0  0  0  0  0  0  0
   -3.7965   -2.8768    0.9782 C   0  0  0  0  0  0  0  0  0  0  0  0
   -4.5465   -2.1527    1.2902 H   0  0  0  0  0  0  0  0  0  0  0  0
   -3.9745   -3.1748   -0.0538 H   0  0  0  0  0  0  0  0  0  0  0  0
   -2.4245   -2.2537    1.0882 C   0  0  0  0  0  0  0  0  0  0  0  0
   -1.5805   -2.7478    1.8242 O   0  0  0  0  0  0  0  0  0  0  0  0
   -2.2045   -1.1637    0.3562 N   0  0  0  0  0  0  0  0  0  0  0  0
   -2.9595   -0.7907   -0.2008 H   0  0  0  0  0  0  0  0  0  0  0  0
   -0.9485   -0.4087    0.3482 C   0  0  1  0  0  0  0  0  0  0  0  0
   -0.1408   -1.0795    0.0507 H   0  0  0  0  0  0  0  0  0  0  0  0
   -1.0432    0.7243   -0.6879 C   0  0  0  0  0  0  0  0  0  0  0  0
   -0.7029    0.3508   -1.6548 H   0  0  0  0  0  0  0  0  0  0  0  0
   -2.0887    1.0157   -0.7989 H   0  0  0  0  0  0  0  0  0  0  0  0
   -0.2168    1.9476   -0.3393 C   0  0  0  0  0  0  0  0  0  0  0  0
    0.0542    2.9267   -1.3139 C   0  0  0  0  0  0  0  0  0  0  0  0
   -0.3069    2.8007   -2.3249 H   0  0  0  0  0  0  0  0  0  0  0  0
    0.7864    4.0787   -0.9725 C   0  0  0  0  0  0  0  0  0  0  0  0
    0.9956    4.8281   -1.7230 H   0  0  0  0  0  0  0  0  0  0  0  0
    1.2470    4.2548    0.3433 C   0  0  0  0  0  0  0  0  0  0  0  0
    1.8116    5.1388    0.6050 H   0  0  0  0  0  0  0  0  0  0  0  0
    0.9792    3.2776    1.3193 C   0  0  0  0  0  0  0  0  0  0  0  0
    1.3379    3.4102    2.3295 H   0  0  0  0  0  0  0  0  0  0  0  0
    0.2503    2.1248    0.9770 C   0  0  0  0  0  0  0  0  0  0  0  0
    0.0478    1.3722    1.7279 H   0  0  0  0  0  0  0  0  0  0  0  0
   -0.6196    0.1253    1.7539 C   0  0  0  0  0  0  0  0  0  0  0  0
    0.5216    0.0194    2.2054 O   0  0  0  0  0  0  0  0  0  0  0  0
   -1.6152    0.6924    2.4469 N   0  0  0  0  0  0  0  0  0  0  0  0
   -2.5345    0.6914    2.0318 H   0  0  0  0  0  0  0  0  0  0  0  0
   -1.4720    1.2390    3.7941 C   0  0  0  0  0  0  0  0  0  0  0  0
   -0.6345    1.9391    3.8219 H   0  0  0  0  0  0  0  0  0  0  0  0
   -2.3844    1.7580    4.0892 H   0  0  0  0  0  0  0  0  0  0  0  0
   -1.2733    0.4298    4.4995 H   0  0  0  0  0  0  0  0  0  0  0  0
  5  6  2  0  0  0  0
  5  7  1  0  0  0  0
  2  3  1  0  0  0  0
  2  4  1  0  0  0  0
  2  5  1  0  0  0  0
  1  2  1  0  0  0  0
 25 26  2  0  0  0  0
 25 27  1  0  0  0  0
 23 24  1  0  0  0  0
 21 22  1  0  0  0  0
 21 23  2  0  0  0  0
 19 20  1  0  0  0  0
 19 21  1  0  0  0  0
 17 18  1  0  0  0  0
 17 19  2  0  0  0  0
 15 16  1  0  0  0  0
 15 17  1  0  0  0  0
 14 15  2  0  0  0  0
 14 23  1  0  0  0  0
 11 12  1  0  0  0  0
 11 13  1  0  0  0  0
 11 14  1  0  0  0  0
  9 10  1  0  0  0  0
  9 11  1  0  0  0  0
  9 25  1  0  0  0  0
  7  8  1  0  0  0  0
  7  9  1  0  0  0  0
 29 30  1  0  0  0  0
 29 31  1  0  0  0  0
 29 32  1  0  0  0  0
 27 28  1  0  0  0  0
 27 29  1  0  0  0  0
M  END
$$$$
default_name
  -OEChem-02102213163D

 32 32  0     1  0  0  0  0  0999 V2000
   -3.8405   -3.7518    1.6252 H   0  0  0  0  0  0  0  0  0  0  0  0
   -3.7965   -2.8768    0.9782 C   0  0  0  0  0  0  0  0  0  0  0  0
   -4.5465   -2.1527    1.2902 H   0  0  0  0  0  0  0  0  0  0  0  0
   -3.9745   -3.1748   -0.0538 H   0  0  0  0  0  0  0  0  0  0  0  0
   -2.4245   -2.2537    1.0882 C   0  0  0  0  0  0  0  0  0  0  0  0
   -1.5805   -2.7478    1.8242 O   0  0  0  0  0  0  0  0  0  0  0  0
   -2.2045   -1.1637    0.3562 N   0  0  0  0  0  0  0  0  0  0  0  0
   -2.9595   -0.7907   -0.2008 H   0  0  0  0  0  0  0  0  0  0  0  0
   -0.9485   -0.4087    0.3482 C   0  0  1  0  0  0  0  0  0  0  0  0
   -0.1408   -1.0795    0.0507 H   0  0  0  0  0  0  0  0  0  0  0  0
   -1.0432    0.7243   -0.6879 C   0  0  0  0  0  0  0  0  0  0  0  0
   -0.9647    0.2977   -1.6889 H   0  0  0  0  0  0  0  0  0  0  0  0
   -2.0242    1.1952   -0.6086 H   0  0  0  0  0  0  0  0  0  0  0  0
    0.0334    1.7828   -0.5424 C   0  0  0  0  0  0  0  0  0  0  0  0
    0.0756    2.8827   -1.4200 C   0  0  0  0  0  0  0  0  0  0  0  0
   -0.6473    2.9675   -2.2191 H   0  0  0  0  0  0  0  0  0  0  0  0
    1.0522    3.8819   -1.2531 C   0  0  0  0  0  0  0  0  0  0  0  0
    1.0844    4.7243   -1.9297 H   0  0  0  0  0  0  0  0  0  0  0  0
    1.9865    3.7843   -0.2080 C   0  0  0  0  0  0  0  0  0  0  0  0
    2.7382    4.5508   -0.0813 H   0  0  0  0  0  0  0  0  0  0  0  0
    1.9481    2.6857    0.6699 C   0  0  0  0  0  0  0  0  0  0  0  0
    2.6695    2.6078    1.4699 H   0  0  0  0  0  0  0  0  0  0  0  0
    0.9741    1.6857    0.5008 C   0  0  0  0  0  0  0  0  0  0  0  0
    0.9477    0.8393    1.1748 H   0  0  0  0  0  0  0  0  0  0  0  0
   -0.6196    0.1253    1.7539 C   0  0  0  0  0  0  0  0  0  0  0  0
    0.5216    0.0194    2.2054 O   0  0  0  0  0  0  0  0  0  0  0  0
   -1.6152    0.6924    2.4469 N   0  0  0  0  0  0  0  0  0  0  0  0
   -2.5345    0.6914    2.0318 H   0  0  0  0  0  0  0  0  0  0  0  0
   -1.4720    1.2390    3.7941 C   0  0  0  0  0  0  0  0  0  0  0  0
   -0.6345    1.9391    3.8219 H   0  0  0  0  0  0  0  0  0  0  0  0
   -2.3844    1.7580    4.0892 H   0  0  0  0  0  0  0  0  0  0  0  0
   -1.2733    0.4298    4.4995 H   0  0  0  0  0  0  0  0  0  0  0  0
  5  6  2  0  0  0  0
  5  7  1  0  0  0  0
  2  3  1  0  0  0  0
  2  4  1  0  0  0  0
  2  5  1  0  0  0  0
  1  2  1  0  0  0  0
 25 26  2  0  0  0  0
 25 27  1  0  0  0  0
 23 24  1  0  0  0  0
 21 22  1  0  0  0  0
 21 23  2  0  0  0  0
 19 20  1  0  0  0  0
 19 21  1  0  0  0  0
 17 18  1  0  0  0  0
 17 19  2  0  0  0  0
 15 16  1  0  0  0  0
 15 17  1  0  0  0  0
 14 15  2  0  0  0  0
 14 23  1  0  0  0  0
 11 12  1  0  0  0  0
 11 13  1  0  0  0  0
 11 14  1  0  0  0  0
  9 10  1  0  0  0  0
  9 11  1  0  0  0  0
  9 25  1  0  0  0  0
  7  8  1  0  0  0  0
  7  9  1  0  0  0  0
 29 30  1  0  0  0  0
 29 31  1  0  0  0  0
 29 32  1  0  0  0  0
 27 28  1  0  0  0  0
 27 29  1  0  0  0  0
M  END
$$$$
default_name
  -OEChem-02102213163D

 32 32  0     1  0  0  0  0  0999 V2000
   -3.8405   -3.7518    1.6252 H   0  0  0  0  0  0  0  0  0  0  0  0
   -3.7965   -2.8768    0.9782 C   0  0  0  0  0  0  0  0  0  0  0  0
   -4.5465   -2.1527    1.2902 H   0  0  0  0  0  0  0  0  0  0  0  0
   -3.9745   -3.1748   -0.0538 H   0  0  0  0  0  0  0  0  0  0  0  0
   -2.4245   -2.2537    1.0882 C   0  0  0  0  0  0  0  0  0  0  0  0
   -1.5805   -2.7478    1.8242 O   0  0  0  0  0  0  0  0  0  0  0  0
   -2.2045   -1.1637    0.3562 N   0  0  0  0  0  0  0  0  0  0  0  0
   -2.9595   -0.7907   -0.2008 H   0  0  0  0  0  0  0  0  0  0  0  0
   -0.9485   -0.4087    0.3482 C   0  0  1  0  0  0  0  0  0  0  0  0
   -0.1408   -1.0795    0.0507 H   0  0  0  0  0  0  0  0  0  0  0  0
   -1.0432    0.7243   -0.6879 C   0  0  0  0  0  0  0  0  0  0  0  0
   -0.9647    0.2977   -1.6889 H   0  0  0  0  0  0  0  0  0  0  0  0
   -2.0242    1.1952   -0.6086 H   0  0  0  0  0  0  0  0  0  0  0  0
    0.0334    1.7828   -0.5424 C   0  0  0  0  0  0  0  0  0  0  0  0
   -0.0944    3.0245   -1.1934 C   0  0  0  0  0  0  0  0  0  0  0  0
   -0.9520    3.2226   -1.8207 H   0  0  0  0  0  0  0  0  0  0  0  0
    0.8882    4.0167   -1.0203 C   0  0  0  0  0  0  0  0  0  0  0  0
    0.7894    4.9685   -1.5232 H   0  0  0  0  0  0  0  0  0  0  0  0
    1.9987    3.7701   -0.1953 C   0  0  0  0  0  0  0  0  0  0  0  0
    2.7548    4.5316   -0.0643 H   0  0  0  0  0  0  0  0  0  0  0  0
    2.1303    2.5299    0.4555 C   0  0  0  0  0  0  0  0  0  0  0  0
    2.9865    2.3383    1.0854 H   0  0  0  0  0  0  0  0  0  0  0  0
    1.1498    1.5374    0.2798 C   0  0  0  0  0  0  0  0  0  0  0  0
    1.2539    0.5824    0.7783 H   0  0  0  0  0  0  0  0  0  0  0  0
   -0.6196    0.1253    1.7539 C   0  0  0  0  0  0  0  0  0  0  0  0
    0.5216    0.0194    2.2054 O   0  0  0  0  0  0  0  0  0  0  0  0
   -1.6152    0.6924    2.4469 N   0  0  0  0  0  0  0  0  0  0  0  0
   -2.5345    0.6914    2.0318 H   0  0  0  0  0  0  0  0  0  0  0  0
   -1.4720    1.2390    3.7941 C   0  0  0  0  0  0  0  0  0  0  0  0
   -0.6345    1.9391    3.8219 H   0  0  0  0  0  0  0  0  0  0  0  0
   -2.3844    1.7580    4.0892 H   0  0  0  0  0  0  0  0  0  0  0  0
   -1.2733    0.4298    4.4995 H   0  0  0  0  0  0  0  0  0  0  0  0
  5  6  2  0  0  0  0
  5  7  1  0  0  0  0
  2  3  1  0  0  0  0
  2  4  1  0  0  0  0
  2  5  1  0  0  0  0
  1  2  1  0  0  0  0
 25 26  2  0  0  0  0
 25 27  1  0  0  0  0
 23 24  1  0  0  0  0
 21 22  1  0  0  0  0
 21 23  2  0  0  0  0
 19 20  1  0  0  0  0
 19 21  1  0  0  0  0
 17 18  1  0  0  0  0
 17 19  2  0  0  0  0
 15 16  1  0  0  0  0
 15 17  1  0  0  0  0
 14 15  2  0  0  0  0
 14 23  1  0  0  0  0
 11 12  1  0  0  0  0
 11 13  1  0  0  0  0
 11 14  1  0  0  0  0
  9 10  1  0  0  0  0
  9 11  1  0  0  0  0
  9 25  1  0  0  0  0
  7  8  1  0  0  0  0
  7  9  1  0  0  0  0
 29 30  1  0  0  0  0
 29 31  1  0  0  0  0
 29 32  1  0  0  0  0
 27 28  1  0  0  0  0
 27 29  1  0  0  0  0
M  END
$$$$
default_name
  -OEChem-02102213163D

 32 32  0     1  0  0  0  0  0999 V2000
   -3.8405   -3.7518    1.6252 H   0  0  0  0  0  0  0  0  0  0  0  0
   -3.7965   -2.8768    0.9782 C   0  0  0  0  0  0  0  0  0  0  0  0
   -4.5465   -2.1527    1.2902 H   0  0  0  0  0  0  0  0  0  0  0  0
   -3.9745   -3.1748   -0.0538 H   0  0  0  0  0  0  0  0  0  0  0  0
   -2.4245   -2.2537    1.0882 C   0  0  0  0  0  0  0  0  0  0  0  0
   -1.5805   -2.7478    1.8242 O   0  0  0  0  0  0  0  0  0  0  0  0
   -2.2045   -1.1637    0.3562 N   0  0  0  0  0  0  0  0  0  0  0  0
   -2.9595   -0.7907   -0.2008 H   0  0  0  0  0  0  0  0  0  0  0  0
   -0.9485   -0.4087    0.3482 C   0  0  1  0  0  0  0  0  0  0  0  0
   -0.1408   -1.0795    0.0507 H   0  0  0  0  0  0  0  0  0  0  0  0
   -1.0432    0.7243   -0.6879 C   0  0  0  0  0  0  0  0  0  0  0  0
   -0.9647    0.2977   -1.6889 H   0  0  0  0  0  0  0  0  0  0  0  0
   -2.0242    1.1952   -0.6086 H   0  0  0  0  0  0  0  0  0  0  0  0
    0.0334    1.7828   -0.5424 C   0  0  0  0  0  0  0  0  0  0  0  0
   -0.2213    3.1156   -0.9176 C   0  0  0  0  0  0  0  0  0  0  0  0
   -1.1807    3.3883   -1.3341 H   0  0  0  0  0  0  0  0  0  0  0  0
    0.7685    4.1000   -0.7411 C   0  0  0  0  0  0  0  0  0  0  0  0
    0.5718    5.1223   -1.0324 H   0  0  0  0  0  0  0  0  0  0  0  0
    2.0131    3.7544   -0.1878 C   0  0  0  0  0  0  0  0  0  0  0  0
    2.7743    4.5103   -0.0544 H   0  0  0  0  0  0  0  0  0  0  0  0
    2.2714    2.4233    0.1869 C   0  0  0  0  0  0  0  0  0  0  0  0
    3.2299    2.1565    0.6072 H   0  0  0  0  0  0  0  0  0  0  0  0
    1.2832    1.4391    0.0073 C   0  0  0  0  0  0  0  0  0  0  0  0
    1.4844    0.4147    0.2929 H   0  0  0  0  0  0  0  0  0  0  0  0
   -0.6196    0.1253    1.7539 C   0  0  0  0  0  0  0  0  0  0  0  0
    0.5216    0.0194    2.2054 O   0  0  0  0  0  0  0  0  0  0  0  0
   -1.6152    0.6924    2.4469 N   0  0  0  0  0  0  0  0  0  0  0  0
   -2.5345    0.6914    2.0318 H   0  0  0  0  0  0  0  0  0  0  0  0
   -1.4720    1.2390    3.7941 C   0  0  0  0  0  0  0  0  0  0  0  0
   -0.6345    1.9391    3.8219 H   0  0  0  0  0  0  0  0  0  0  0  0
   -2.3844    1.7580    4.0892 H   0  0  0  0  0  0  0  0  0  0  0  0
   -1.2733    0.4298    4.4995 H   0  0  0  0  0  0  0  0  0  0  0  0
  5  6  2  0  0  0  0
  5  7  1  0  0  0  0
  2  3  1  0  0  0  0
  2  4  1  0  0  0  0
  2  5  1  0  0  0  0
  1  2  1  0  0  0  0
 25 26  2  0  0  0  0
 25 27  1  0  0  0  0
 23 24  1  0  0  0  0
 21 22  1  0  0  0  0
 21 23  2  0  0  0  0
 19 20  1  0  0  0  0
 19 21  1  0  0  0  0
 17 18  1  0  0  0  0
 17 19  2  0  0  0  0
 15 16  1  0  0  0  0
 15 17  1  0  0  0  0
 14 15  2  0  0  0  0
 14 23  1  0  0  0  0
 11 12  1  0  0  0  0
 11 13  1  0  0  0  0
 11 14  1  0  0  0  0
  9 10  1  0  0  0  0
  9 11  1  0  0  0  0
  9 25  1  0  0  0  0
  7  8  1  0  0  0  0
  7  9  1  0  0  0  0
 29 30  1  0  0  0  0
 29 31  1  0  0  0  0
 29 32  1  0  0  0  0
 27 28  1  0  0  0  0
 27 29  1  0  0  0  0
M  END
$$$$
default_name
  -OEChem-02102213163D

 32 32  0     1  0  0  0  0  0999 V2000
   -3.8405   -3.7518    1.6252 H   0  0  0  0  0  0  0  0  0  0  0  0
   -3.7965   -2.8768    0.9782 C   0  0  0  0  0  0  0  0  0  0  0  0
   -4.5465   -2.1527    1.2902 H   0  0  0  0  0  0  0  0  0  0  0  0
   -3.9745   -3.1748   -0.0538 H   0  0  0  0  0  0  0  0  0  0  0  0
   -2.4245   -2.2537    1.0882 C   0  0  0  0  0  0  0  0  0  0  0  0
   -1.5805   -2.7478    1.8242 O   0  0  0  0  0  0  0  0  0  0  0  0
   -2.2045   -1.1637    0.3562 N   0  0  0  0  0  0  0  0  0  0  0  0
   -2.9595   -0.7907   -0.2008 H   0  0  0  0  0  0  0  0  0  0  0  0
   -0.9485   -0.4087    0.3482 C   0  0  1  0  0  0  0  0  0  0  0  0
   -0.1408   -1.0795    0.0507 H   0  0  0  0  0  0  0  0  0  0  0  0
   -1.0432    0.7243   -0.6879 C   0  0  0  0  0  0  0  0  0  0  0  0
   -0.9647    0.2977   -1.6889 H   0  0  0  0  0  0  0  0  0  0  0  0
   -2.0242    1.1952   -0.6086 H   0  0  0  0  0  0  0  0  0  0  0  0
    0.0334    1.7828   -0.5424 C   0  0  0  0  0  0  0  0  0  0  0  0
   -0.2962    3.1497   -0.6117 C   0  0  0  0  0  0  0  0  0  0  0  0
   -1.3178    3.4532   -0.7923 H   0  0  0  0  0  0  0  0  0  0  0  0
    0.7012    4.1262   -0.4345 C   0  0  0  0  0  0  0  0  0  0  0  0
    0.4464    5.1752   -0.4907 H   0  0  0  0  0  0  0  0  0  0  0  0
    2.0288    3.7382   -0.1860 C   0  0  0  0  0  0  0  0  0  0  0  0
    2.7955    4.4885   -0.0523 H   0  0  0  0  0  0  0  0  0  0  0  0
    2.3619    2.3732   -0.1176 C   0  0  0  0  0  0  0  0  0  0  0  0
    3.3832    2.0747    0.0680 H   0  0  0  0  0  0  0  0  0  0  0  0
    1.3654    1.3975   -0.2980 C   0  0  0  0  0  0  0  0  0  0  0  0
    1.6236    0.3477   -0.2485 H   0  0  0  0  0  0  0  0  0  0  0  0
   -0.6196    0.1253    1.7539 C   0  0  0  0  0  0  0  0  0  0  0  0
    0.5216    0.0194    2.2054 O   0  0  0  0  0  0  0  0  0  0  0  0
   -1.6152    0.6924    2.4469 N   0  0  0  0  0  0  0  0  0  0  0  0
   -2.5345    0.6914    2.0318 H   0  0  0  0  0  0  0  0  0  0  0  0
   -1.4720    1.2390    3.7941 C   0  0  0  0  0  0  0  0  0  0  0  0
   -0.6345    1.9391    3.8219 H   0  0  0  0  0  0  0  0  0  0  0  0
   -2.3844    1.7580    4.0892 H   0  0  0  0  0  0  0  0  0  0  0  0
   -1.2733    0.4298    4.4995 H   0  0  0  0  0  0  0  0  0  0  0  0
  5  6  2  0  0  0  0
  5  7  1  0  0  0  0
  2  3  1  0  0  0  0
  2  4  1  0  0  0  0
  2  5  1  0  0  0  0
  1  2  1  0  0  0  0
 25 26  2  0  0  0  0
 25 27  1  0  0  0  0
 23 24  1  0  0  0  0
 21 22  1  0  0  0  0
 21 23  2  0  0  0  0
 19 20  1  0  0  0  0
 19 21  1  0  0  0  0
 17 18  1  0  0  0  0
 17 19  2  0  0  0  0
 15 16  1  0  0  0  0
 15 17  1  0  0  0  0
 14 15  2  0  0  0  0
 14 23  1  0  0  0  0
 11 12  1  0  0  0  0
 11 13  1  0  0  0  0
 11 14  1  0  0  0  0
  9 10  1  0  0  0  0
  9 11  1  0  0  0  0
  9 25  1  0  0  0  0
  7  8  1  0  0  0  0
  7  9  1  0  0  0  0
 29 30  1  0  0  0  0
 29 31  1  0  0  0  0
 29 32  1  0  0  0  0
 27 28  1  0  0  0  0
 27 29  1  0  0  0  0
M  END
$$$$
default_name
  -OEChem-02102213163D

 32 32  0     1  0  0  0  0  0999 V2000
   -3.8405   -3.7518    1.6252 H   0  0  0  0  0  0  0  0  0  0  0  0
   -3.7965   -2.8768    0.9782 C   0  0  0  0  0  0  0  0  0  0  0  0
   -4.5465   -2.1527    1.2902 H   0  0  0  0  0  0  0  0  0  0  0  0
   -3.9745   -3.1748   -0.0538 H   0  0  0  0  0  0  0  0  0  0  0  0
   -2.4245   -2.2537    1.0882 C   0  0  0  0  0  0  0  0  0  0  0  0
   -1.5805   -2.7478    1.8242 O   0  0  0  0  0  0  0  0  0  0  0  0
   -2.2045   -1.1637    0.3562 N   0  0  0  0  0  0  0  0  0  0  0  0
   -2.9595   -0.7907   -0.2008 H   0  0  0  0  0  0  0  0  0  0  0  0
   -0.9485   -0.4087    0.3482 C   0  0  1  0  0  0  0  0  0  0  0  0
   -0.1408   -1.0795    0.0507 H   0  0  0  0  0  0  0  0  0  0  0  0
   -1.0432    0.7243   -0.6879 C   0  0  0  0  0  0  0  0  0  0  0  0
   -0.9647    0.2977   -1.6889 H   0  0  0  0  0  0  0  0  0  0  0  0
   -2.0242    1.1952   -0.6086 H   0  0  0  0  0  0  0  0  0  0  0  0
    0.0334    1.7828   -0.5424 C   0  0  0  0  0  0  0  0  0  0  0  0
   -0.3142    3.1247   -0.2963 C   0  0  0  0  0  0  0  0  0  0  0  0
   -1.3540    3.4130   -0.2323 H   0  0  0  0  0  0  0  0  0  0  0  0
    0.6910    4.0936   -0.1214 C   0  0  0  0  0  0  0  0  0  0  0  0
    0.4219    5.1238    0.0648 H   0  0  0  0  0  0  0  0  0  0  0  0
    2.0447    3.7227   -0.1901 C   0  0  0  0  0  0  0  0  0  0  0  0
    2.8169    4.4675   -0.0581 H   0  0  0  0  0  0  0  0  0  0  0  0
    2.3955    2.3830   -0.4373 C   0  0  0  0  0  0  0  0  0  0  0  0
    3.4359    2.0987   -0.4956 H   0  0  0  0  0  0  0  0  0  0  0  0
    1.3907    1.4155   -0.6154 C   0  0  0  0  0  0  0  0  0  0  0  0
    1.6619    0.3858   -0.8088 H   0  0  0  0  0  0  0  0  0  0  0  0
   -0.6196    0.1253    1.7539 C   0  0  0  0  0  0  0  0  0  0  0  0
    0.5216    0.0194    2.2054 O   0  0  0  0  0  0  0  0  0  0  0  0
   -1.6152    0.6924    2.4469 N   0  0  0  0  0  0  0  0  0  0  0  0
   -2.5345    0.6914    2.0318 H   0  0  0  0  0  0  0  0  0  0  0  0
   -1.4720    1.2390    3.7941 C   0  0  0  0  0  0  0  0  0  0  0  0
   -0.6345    1.9391    3.8219 H   0  0  0  0  0  0  0  0  0  0  0  0
   -2.3844    1.7580    4.0892 H   0  0  0  0  0  0  0  0  0  0  0  0
   -1.2733    0.4298    4.4995 H   0  0  0  0  0  0  0  0  0  0  0  0
  5  6  2  0  0  0  0
  5  7  1  0  0  0  0
  2  3  1  0  0  0  0
  2  4  1  0  0  0  0
  2  5  1  0  0  0  0
  1  2  1  0  0  0  0
 25 26  2  0  0  0  0
 25 27  1  0  0  0  0
 23 24  1  0  0  0  0
 21 22  1  0  0  0  0
 21 23  2  0  0  0  0
 19 20  1  0  0  0  0
 19 21  1  0  0  0  0
 17 18  1  0  0  0  0
 17 19  2  0  0  0  0
 15 16  1  0  0  0  0
 15 17  1  0  0  0  0
 14 15  2  0  0  0  0
 14 23  1  0  0  0  0
 11 12  1  0  0  0  0
 11 13  1  0  0  0  0
 11 14  1  0  0  0  0
  9 10  1  0  0  0  0
  9 11  1  0  0  0  0
  9 25  1  0  0  0  0
  7  8  1  0  0  0  0
  7  9  1  0  0  0  0
 29 30  1  0  0  0  0
 29 31  1  0  0  0  0
 29 32  1  0  0  0  0
 27 28  1  0  0  0  0
 27 29  1  0  0  0  0
M  END
$$$$
default_name
  -OEChem-02102213163D

 32 32  0     1  0  0  0  0  0999 V2000
   -3.8405   -3.7518    1.6252 H   0  0  0  0  0  0  0  0  0  0  0  0
   -3.7965   -2.8768    0.9782 C   0  0  0  0  0  0  0  0  0  0  0  0
   -4.5465   -2.1527    1.2902 H   0  0  0  0  0  0  0  0  0  0  0  0
   -3.9745   -3.1748   -0.0538 H   0  0  0  0  0  0  0  0  0  0  0  0
   -2.4245   -2.2537    1.0882 C   0  0  0  0  0  0  0  0  0  0  0  0
   -1.5805   -2.7478    1.8242 O   0  0  0  0  0  0  0  0  0  0  0  0
   -2.2045   -1.1637    0.3562 N   0  0  0  0  0  0  0  0  0  0  0  0
   -2.9595   -0.7907   -0.2008 H   0  0  0  0  0  0  0  0  0  0  0  0
   -0.9485   -0.4087    0.3482 C   0  0  1  0  0  0  0  0  0  0  0  0
   -0.1408   -1.0795    0.0507 H   0  0  0  0  0  0  0  0  0  0  0  0
   -1.0432    0.7243   -0.6879 C   0  0  0  0  0  0  0  0  0  0  0  0
   -0.9647    0.2977   -1.6889 H   0  0  0  0  0  0  0  0  0  0  0  0
   -2.0242    1.1952   -0.6086 H   0  0  0  0  0  0  0  0  0  0  0  0
    0.0334    1.7828   -0.5424 C   0  0  0  0  0  0  0  0  0  0  0  0
   -0.2740    3.0421    0.0069 C   0  0  0  0  0  0  0  0  0  0  0  0
   -1.2868    3.2703    0.3078 H   0  0  0  0  0  0  0  0  0  0  0  0
    0.7385    4.0042    0.1769 C   0  0  0  0  0  0  0  0  0  0  0  0
    0.4998    4.9715    0.5965 H   0  0  0  0  0  0  0  0  0  0  0  0
    2.0596    3.7088   -0.1998 C   0  0  0  0  0  0  0  0  0  0  0  0
    2.8371    4.4489   -0.0714 H   0  0  0  0  0  0  0  0  0  0  0  0
    2.3700    2.4520   -0.7504 C   0  0  0  0  0  0  0  0  0  0  0  0
    3.3844    2.2266   -1.0451 H   0  0  0  0  0  0  0  0  0  0  0  0
    1.3573    1.4918   -0.9232 C   0  0  0  0  0  0  0  0  0  0  0  0
    1.5967    0.5265   -1.3500 H   0  0  0  0  0  0  0  0  0  0  0  0
   -0.6196    0.1253    1.7539 C   0  0  0  0  0  0  0  0  0  0  0  0
    0.5216    0.0194    2.2054 O   0  0  0  0  0  0  0  0  0  0  0  0
   -1.6152    0.6924    2.4469 N   0  0  0  0  0  0  0  0  0  0  0  0
   -2.5345    0.6914    2.0318 H   0  0  0  0  0  0  0  0  0  0  0  0
   -1.4720    1.2390    3.7941 C   0  0  0  0  0  0  0  0  0  0  0  0
   -0.6345    1.9391    3.8219 H   0  0  0  0  0  0  0  0  0  0  0  0
   -2.3844    1.7580    4.0892 H   0  0  0  0  0  0  0  0  0  0  0  0
   -1.2733    0.4298    4.4995 H   0  0  0  0  0  0  0  0  0  0  0  0
  5  6  2  0  0  0  0
  5  7  1  0  0  0  0
  2  3  1  0  0  0  0
  2  4  1  0  0  0  0
  2  5  1  0  0  0  0
  1  2  1  0  0  0  0
 25 26  2  0  0  0  0
 25 27  1  0  0  0  0
 23 24  1  0  0  0  0
 21 22  1  0  0  0  0
 21 23  2  0  0  0  0
 19 20  1  0  0  0  0
 19 21  1  0  0  0  0
 17 18  1  0  0  0  0
 17 19  2  0  0  0  0
 15 16  1  0  0  0  0
 15 17  1  0  0  0  0
 14 15  2  0  0  0  0
 14 23  1  0  0  0  0
 11 12  1  0  0  0  0
 11 13  1  0  0  0  0
 11 14  1  0  0  0  0
  9 10  1  0  0  0  0
  9 11  1  0  0  0  0
  9 25  1  0  0  0  0
  7  8  1  0  0  0  0
  7  9  1  0  0  0  0
 29 30  1  0  0  0  0
 29 31  1  0  0  0  0
 29 32  1  0  0  0  0
 27 28  1  0  0  0  0
 27 29  1  0  0  0  0
M  END
$$$$
default_name
  -OEChem-02102213163D

 32 32  0     1  0  0  0  0  0999 V2000
   -3.8405   -3.7518    1.6252 H   0  0  0  0  0  0  0  0  0  0  0  0
   -3.7965   -2.8768    0.9782 C   0  0  0  0  0  0  0  0  0  0  0  0
   -4.5465   -2.1527    1.2902 H   0  0  0  0  0  0  0  0  0  0  0  0
   -3.9745   -3.1748   -0.0538 H   0  0  0  0  0  0  0  0  0  0  0  0
   -2.4245   -2.2537    1.0882 C   0  0  0  0  0  0  0  0  0  0  0  0
   -1.5805   -2.7478    1.8242 O   0  0  0  0  0  0  0  0  0  0  0  0
   -2.2045   -1.1637    0.3562 N   0  0  0  0  0  0  0  0  0  0  0  0
   -2.9595   -0.7907   -0.2008 H   0  0  0  0  0  0  0  0  0  0  0  0
   -0.9485   -0.4087    0.3482 C   0  0  1  0  0  0  0  0  0  0  0  0
   -0.1408   -1.0795    0.0507 H   0  0  0  0  0  0  0  0  0  0  0  0
   -1.0432    0.7243   -0.6879 C   0  0  0  0  0  0  0  0  0  0  0  0
   -0.9647    0.2977   -1.6889 H   0  0  0  0  0  0  0  0  0  0  0  0
   -2.0242    1.1952   -0.6086 H   0  0  0  0  0  0  0  0  0  0  0  0
    0.0334    1.7828   -0.5424 C   0  0  0  0  0  0  0  0  0  0  0  0
   -0.1784    2.9076    0.2774 C   0  0  0  0  0  0  0  0  0  0  0  0
   -1.1208    3.0350    0.7911 H   0  0  0  0  0  0  0  0  0  0  0  0
    0.8405    3.8643    0.4401 C   0  0  0  0  0  0  0  0  0  0  0  0
    0.6748    4.7286    1.0679 H   0  0  0  0  0  0  0  0  0  0  0  0
    2.0727    3.6975   -0.2145 C   0  0  0  0  0  0  0  0  0  0  0  0
    2.8546    4.4338   -0.0913 H   0  0  0  0  0  0  0  0  0  0  0  0
    2.2871    2.5755   -1.0355 C   0  0  0  0  0  0  0  0  0  0  0  0
    3.2323    2.4499   -1.5431 H   0  0  0  0  0  0  0  0  0  0  0  0
    1.2675    1.6212   -1.2005 C   0  0  0  0  0  0  0  0  0  0  0  0
    1.4325    0.7602   -1.8351 H   0  0  0  0  0  0  0  0  0  0  0  0
   -0.6196    0.1253    1.7539 C   0  0  0  0  0  0  0  0  0  0  0  0
    0.5216    0.0194    2.2054 O   0  0  0  0  0  0  0  0  0  0  0  0
   -1.6152    0.6924    2.4469 N   0  0  0  0  0  0  0  0  0  0  0  0
   -2.5345    0.6914    2.0318 H   0  0  0  0  0  0  0  0  0  0  0  0
   -1.4720    1.2390    3.7941 C   0  0  0  0  0  0  0  0  0  0  0  0
   -0.6345    1.9391    3.8219 H   0  0  0  0  0  0  0  0  0  0  0  0
   -2.3844    1.7580    4.0892 H   0  0  0  0  0  0  0  0  0  0  0  0
   -1.2733    0.4298    4.4995 H   0  0  0  0  0  0  0  0  0  0  0  0
  5  6  2  0  0  0  0
  5  7  1  0  0  0  0
  2  3  1  0  0  0  0
  2  4  1  0  0  0  0
  2  5  1  0  0  0  0
  1  2  1  0  0  0  0
 25 26  2  0  0  0  0
 25 27  1  0  0  0  0
 23 24  1  0  0  0  0
 21 22  1  0  0  0  0
 21 23  2  0  0  0  0
 19 20  1  0  0  0  0
 19 21  1  0  0  0  0
 17 18  1  0  0  0  0
 17 19  2  0  0  0  0
 15 16  1  0  0  0  0
 15 17  1  0  0  0  0
 14 15  2  0  0  0  0
 14 23  1  0  0  0  0
 11 12  1  0  0  0  0
 11 13  1  0  0  0  0
 11 14  1  0  0  0  0
  9 10  1  0  0  0  0
  9 11  1  0  0  0  0
  9 25  1  0  0  0  0
  7  8  1  0  0  0  0
  7  9  1  0  0  0  0
 29 30  1  0  0  0  0
 29 31  1  0  0  0  0
 29 32  1  0  0  0  0
 27 28  1  0  0  0  0
 27 29  1  0  0  0  0
M  END
$$$$
default_name
  -OEChem-02102213163D

 32 32  0     1  0  0  0  0  0999 V2000
   -3.8405   -3.7518    1.6252 H   0  0  0  0  0  0  0  0  0  0  0  0
   -3.7965   -2.8768    0.9782 C   0  0  0  0  0  0  0  0  0  0  0  0
   -4.5465   -2.1527    1.2902 H   0  0  0  0  0  0  0  0  0  0  0  0
   -3.9745   -3.1748   -0.0538 H   0  0  0  0  0  0  0  0  0  0  0  0
   -2.4245   -2.2537    1.0882 C   0  0  0  0  0  0  0  0  0  0  0  0
   -1.5805   -2.7478    1.8242 O   0  0  0  0  0  0  0  0  0  0  0  0
   -2.2045   -1.1637    0.3562 N   0  0  0  0  0  0  0  0  0  0  0  0
   -2.9595   -0.7907   -0.2008 H   0  0  0  0  0  0  0  0  0  0  0  0
   -0.9485   -0.4087    0.3482 C   0  0  1  0  0  0  0  0  0  0  0  0
   -0.1408   -1.0795    0.0507 H   0  0  0  0  0  0  0  0  0  0  0  0
   -1.0432    0.7243   -0.6879 C   0  0  0  0  0  0  0  0  0  0  0  0
   -0.9647    0.2977   -1.6889 H   0  0  0  0  0  0  0  0  0  0  0  0
   -2.0242    1.1952   -0.6086 H   0  0  0  0  0  0  0  0  0  0  0  0
    0.0334    1.7828   -0.5424 C   0  0  0  0  0  0  0  0  0  0  0  0
   -0.0338    2.7304    0.4967 C   0  0  0  0  0  0  0  0  0  0  0  0
   -0.8673    2.7231    1.1848 H   0  0  0  0  0  0  0  0  0  0  0  0
    0.9900    3.6834    0.6501 C   0  0  0  0  0  0  0  0  0  0  0  0
    0.9351    4.4117    1.4471 H   0  0  0  0  0  0  0  0  0  0  0  0
    2.0829    3.6896   -0.2330 C   0  0  0  0  0  0  0  0  0  0  0  0
    2.8683    4.4233   -0.1165 H   0  0  0  0  0  0  0  0  0  0  0  0
    2.1525    2.7451   -1.2733 C   0  0  0  0  0  0  0  0  0  0  0  0
    2.9898    2.7532   -1.9555 H   0  0  0  0  0  0  0  0  0  0  0  0
    1.1275    1.7949   -1.4284 C   0  0  0  0  0  0  0  0  0  0  0  0
    1.1805    1.0710   -2.2311 H   0  0  0  0  0  0  0  0  0  0  0  0
   -0.6196    0.1253    1.7539 C   0  0  0  0  0  0  0  0  0  0  0  0
    0.5216    0.0194    2.2054 O   0  0  0  0  0  0  0  0  0  0  0  0
   -1.6152    0.6924    2.4469 N   0  0  0  0  0  0  0  0  0  0  0  0
   -2.5345    0.6914    2.0318 H   0  0  0  0  0  0  0  0  0  0  0  0
   -1.4720    1.2390    3.7941 C   0  0  0  0  0  0  0  0  0  0  0  0
   -0.6345    1.9391    3.8219 H   0  0  0  0  0  0  0  0  0  0  0  0
   -2.3844    1.7580    4.0892 H   0  0  0  0  0  0  0  0  0  0  0  0
   -1.2733    0.4298    4.4995 H   0  0  0  0  0  0  0  0  0  0  0  0
  5  6  2  0  0  0  0
  5  7  1  0  0  0  0
  2  3  1  0  0  0  0
  2  4  1  0  0  0  0
  2  5  1  0  0  0  0
  1  2  1  0  0  0  0
 25 26  2  0  0  0  0
 25 27  1  0  0  0  0
 23 24  1  0  0  0  0
 21 22  1  0  0  0  0
 21 23  2  0  0  0  0
 19 20  1  0  0  0  0
 19 21  1  0  0  0  0
 17 18  1  0  0  0  0
 17 19  2  0  0  0  0
 15 16  1  0  0  0  0
 15 17  1  0  0  0  0
 14 15  2  0  0  0  0
 14 23  1  0  0  0  0
 11 12  1  0  0  0  0
 11 13  1  0  0  0  0
 11 14  1  0  0  0  0
  9 10  1  0  0  0  0
  9 11  1  0  0  0  0
  9 25  1  0  0  0  0
  7  8  1  0  0  0  0
  7  9  1  0  0  0  0
 29 30  1  0  0  0  0
 29 31  1  0  0  0  0
 29 32  1  0  0  0  0
 27 28  1  0  0  0  0
 27 29  1  0  0  0  0
M  END
$$$$
default_name
  -OEChem-02102213163D

 32 32  0     1  0  0  0  0  0999 V2000
   -3.8405   -3.7518    1.6252 H   0  0  0  0  0  0  0  0  0  0  0  0
   -3.7965   -2.8768    0.9782 C   0  0  0  0  0  0  0  0  0  0  0  0
   -4.5465   -2.1527    1.2902 H   0  0  0  0  0  0  0  0  0  0  0  0
   -3.9745   -3.1748   -0.0538 H   0  0  0  0  0  0  0  0  0  0  0  0
   -2.4245   -2.2537    1.0882 C   0  0  0  0  0  0  0  0  0  0  0  0
   -1.5805   -2.7478    1.8242 O   0  0  0  0  0  0  0  0  0  0  0  0
   -2.2045   -1.1637    0.3562 N   0  0  0  0  0  0  0  0  0  0  0  0
   -2.9595   -0.7907   -0.2008 H   0  0  0  0  0  0  0  0  0  0  0  0
   -0.9485   -0.4087    0.3482 C   0  0  1  0  0  0  0  0  0  0  0  0
   -0.1408   -1.0795    0.0507 H   0  0  0  0  0  0  0  0  0  0  0  0
   -1.0432    0.7243   -0.6879 C   0  0  0  0  0  0  0  0  0  0  0  0
   -0.9647    0.2977   -1.6889 H   0  0  0  0  0  0  0  0  0  0  0  0
   -2.0242    1.1952   -0.6086 H   0  0  0  0  0  0  0  0  0  0  0  0
    0.0334    1.7828   -0.5424 C   0  0  0  0  0  0  0  0  0  0  0  0
    0.1499    2.5225    0.6498 C   0  0  0  0  0  0  0  0  0  0  0  0
   -0.5436    2.3557    1.4620 H   0  0  0  0  0  0  0  0  0  0  0  0
    1.1768    3.4737    0.7928 C   0  0  0  0  0  0  0  0  0  0  0  0
    1.2629    4.0424    1.7081 H   0  0  0  0  0  0  0  0  0  0  0  0
    2.0897    3.6857   -0.2543 C   0  0  0  0  0  0  0  0  0  0  0  0
    2.8772    4.4182   -0.1452 H   0  0  0  0  0  0  0  0  0  0  0  0
    1.9752    2.9493   -1.4474 C   0  0  0  0  0  0  0  0  0  0  0  0
    2.6736    3.1160   -2.2545 H   0  0  0  0  0  0  0  0  0  0  0  0
    0.9469    2.0011   -1.5913 C   0  0  0  0  0  0  0  0  0  0  0  0
    0.8579    1.4376   -2.5111 H   0  0  0  0  0  0  0  0  0  0  0  0
   -0.6196    0.1253    1.7539 C   0  0  0  0  0  0  0  0  0  0  0  0
    0.5216    0.0194    2.2054 O   0  0  0  0  0  0  0  0  0  0  0  0
   -1.6152    0.6924    2.4469 N   0  0  0  0  0  0  0  0  0  0  0  0
   -2.5345    0.6914    2.0318 H   0  0  0  0  0  0  0  0  0  0  0  0
   -1.4720    1.2390    3.7941 C   0  0  0  0  0  0  0  0  0  0  0  0
   -0.6345    1.9391    3.8219 H   0  0  0  0  0  0  0  0  0  0  0  0
   -2.3844    1.7580    4.0892 H   0  0  0  0  0  0  0  0  0  0  0  0
   -1.2733    0.4298    4.4995 H   0  0  0  0  0  0  0  0  0  0  0  0
  5  6  2  0  0  0  0
  5  7  1  0  0  0  0
  2  3  1  0  0  0  0
  2  4  1  0  0  0  0
  2  5  1  0  0  0  0
  1  2  1  0  0  0  0
 25 26  2  0  0  0  0
 25 27  1  0  0  0  0
 23 24  1  0  0  0  0
 21 22  1  0  0  0  0
 21 23  2  0  0  0  0
 19 20  1  0  0  0  0
 19 21  1  0  0  0  0
 17 18  1  0  0  0  0
 17 19  2  0  0  0  0
 15 16  1  0  0  0  0
 15 17  1  0  0  0  0
 14 15  2  0  0  0  0
 14 23  1  0  0  0  0
 11 12  1  0  0  0  0
 11 13  1  0  0  0  0
 11 14  1  0  0  0  0
  9 10  1  0  0  0  0
  9 11  1  0  0  0  0
  9 25  1  0  0  0  0
  7  8  1  0  0  0  0
  7  9  1  0  0  0  0
 29 30  1  0  0  0  0
 29 31  1  0  0  0  0
 29 32  1  0  0  0  0
 27 28  1  0  0  0  0
 27 29  1  0  0  0  0
M  END
$$$$
default_name
  -OEChem-02102213163D

 32 32  0     1  0  0  0  0  0999 V2000
   -3.8405   -3.7518    1.6252 H   0  0  0  0  0  0  0  0  0  0  0  0
   -3.7965   -2.8768    0.9782 C   0  0  0  0  0  0  0  0  0  0  0  0
   -4.5465   -2.1527    1.2902 H   0  0  0  0  0  0  0  0  0  0  0  0
   -3.9745   -3.1748   -0.0538 H   0  0  0  0  0  0  0  0  0  0  0  0
   -2.4245   -2.2537    1.0882 C   0  0  0  0  0  0  0  0  0  0  0  0
   -1.5805   -2.7478    1.8242 O   0  0  0  0  0  0  0  0  0  0  0  0
   -2.2045   -1.1637    0.3562 N   0  0  0  0  0  0  0  0  0  0  0  0
   -2.9595   -0.7907   -0.2008 H   0  0  0  0  0  0  0  0  0  0  0  0
   -0.9485   -0.4087    0.3482 C   0  0  1  0  0  0  0  0  0  0  0  0
   -0.1408   -1.0795    0.0507 H   0  0  0  0  0  0  0  0  0  0  0  0
   -1.0432    0.7243   -0.6879 C   0  0  0  0  0  0  0  0  0  0  0  0
   -0.9647    0.2977   -1.6889 H   0  0  0  0  0  0  0  0  0  0  0  0
   -2.0242    1.1952   -0.6086 H   0  0  0  0  0  0  0  0  0  0  0  0
    0.0334    1.7828   -0.5424 C   0  0  0  0  0  0  0  0  0  0  0  0
    0.3601    2.2982    0.7264 C   0  0  0  0  0  0  0  0  0  0  0  0
   -0.1717    1.9580    1.6037 H   0  0  0  0  0  0  0  0  0  0  0  0
    1.3883    3.2496    0.8584 C   0  0  0  0  0  0  0  0  0  0  0  0
    1.6358    3.6460    1.8331 H   0  0  0  0  0  0  0  0  0  0  0  0
    2.0925    3.6859   -0.2767 C   0  0  0  0  0  0  0  0  0  0  0  0
    2.8808    4.4187   -0.1755 H   0  0  0  0  0  0  0  0  0  0  0  0
    1.7675    3.1741   -1.5462 C   0  0  0  0  0  0  0  0  0  0  0  0
    2.3051    3.5134   -2.4194 H   0  0  0  0  0  0  0  0  0  0  0  0
    0.7378    2.2257   -1.6782 C   0  0  0  0  0  0  0  0  0  0  0  0
    0.4865    1.8352   -2.6558 H   0  0  0  0  0  0  0  0  0  0  0  0
   -0.6196    0.1253    1.7539 C   0  0  0  0  0  0  0  0  0  0  0  0
    0.5216    0.0194    2.2054 O   0  0  0  0  0  0  0  0  0  0  0  0
   -1.6152    0.6924    2.4469 N   0  0  0  0  0  0  0  0  0  0  0  0
   -2.5345    0.6914    2.0318 H   0  0  0  0  0  0  0  0  0  0  0  0
   -1.4720    1.2390    3.7941 C   0  0  0  0  0  0  0  0  0  0  0  0
   -0.6345    1.9391    3.8219 H   0  0  0  0  0  0  0  0  0  0  0  0
   -2.3844    1.7580    4.0892 H   0  0  0  0  0  0  0  0  0  0  0  0
   -1.2733    0.4298    4.4995 H   0  0  0  0  0  0  0  0  0  0  0  0
  5  6  2  0  0  0  0
  5  7  1  0  0  0  0
  2  3  1  0  0  0  0
  2  4  1  0  0  0  0
  2  5  1  0  0  0  0
  1  2  1  0  0  0  0
 25 26  2  0  0  0  0
 25 27  1  0  0  0  0
 23 24  1  0  0  0  0
 21 22  1  0  0  0  0
 21 23  2  0  0  0  0
 19 20  1  0  0  0  0
 19 21  1  0  0  0  0
 17 18  1  0  0  0  0
 17 19  2  0  0  0  0
 15 16  1  0  0  0  0
 15 17  1  0  0  0  0
 14 15  2  0  0  0  0
 14 23  1  0  0  0  0
 11 12  1  0  0  0  0
 11 13  1  0  0  0  0
 11 14  1  0  0  0  0
  9 10  1  0  0  0  0
  9 11  1  0  0  0  0
  9 25  1  0  0  0  0
  7  8  1  0  0  0  0
  7  9  1  0  0  0  0
 29 30  1  0  0  0  0
 29 31  1  0  0  0  0
 29 32  1  0  0  0  0
 27 28  1  0  0  0  0
 27 29  1  0  0  0  0
M  END
$$$$
default_name
  -OEChem-02102213163D

 32 32  0     1  0  0  0  0  0999 V2000
   -3.8405   -3.7518    1.6252 H   0  0  0  0  0  0  0  0  0  0  0  0
   -3.7965   -2.8768    0.9782 C   0  0  0  0  0  0  0  0  0  0  0  0
   -4.5465   -2.1527    1.2902 H   0  0  0  0  0  0  0  0  0  0  0  0
   -3.9745   -3.1748   -0.0538 H   0  0  0  0  0  0  0  0  0  0  0  0
   -2.4245   -2.2537    1.0882 C   0  0  0  0  0  0  0  0  0  0  0  0
   -1.5805   -2.7478    1.8242 O   0  0  0  0  0  0  0  0  0  0  0  0
   -2.2045   -1.1637    0.3562 N   0  0  0  0  0  0  0  0  0  0  0  0
   -2.9595   -0.7907   -0.2008 H   0  0  0  0  0  0  0  0  0  0  0  0
   -0.9485   -0.4087    0.3482 C   0  0  1  0  0  0  0  0  0  0  0  0
   -0.1408   -1.0795    0.0507 H   0  0  0  0  0  0  0  0  0  0  0  0
   -1.0432    0.7243   -0.6879 C   0  0  0  0  0  0  0  0  0  0  0  0
   -0.9647    0.2977   -1.6889 H   0  0  0  0  0  0  0  0  0  0  0  0
   -2.0242    1.1952   -0.6086 H   0  0  0  0  0  0  0  0  0  0  0  0
    0.0334    1.7828   -0.5424 C   0  0  0  0  0  0  0  0  0  0  0  0
    0.5826    2.0726    0.7211 C   0  0  0  0  0  0  0  0  0  0  0  0
    0.2230    1.5570    1.6004 H   0  0  0  0  0  0  0  0  0  0  0  0
    1.6099    3.0264    0.8423 C   0  0  0  0  0  0  0  0  0  0  0  0
    2.0284    3.2493    1.8138 H   0  0  0  0  0  0  0  0  0  0  0  0
    2.0911    3.6904   -0.2988 C   0  0  0  0  0  0  0  0  0  0  0  0
    2.8788    4.4249   -0.2054 H   0  0  0  0  0  0  0  0  0  0  0  0
    1.5435    3.4043   -1.5627 C   0  0  0  0  0  0  0  0  0  0  0  0
    1.9095    3.9185   -2.4392 H   0  0  0  0  0  0  0  0  0  0  0  0
    0.5145    2.4534   -1.6831 C   0  0  0  0  0  0  0  0  0  0  0  0
    0.0918    2.2366   -2.6555 H   0  0  0  0  0  0  0  0  0  0  0  0
   -0.6196    0.1253    1.7539 C   0  0  0  0  0  0  0  0  0  0  0  0
    0.5216    0.0194    2.2054 O   0  0  0  0  0  0  0  0  0  0  0  0
   -1.6152    0.6924    2.4469 N   0  0  0  0  0  0  0  0  0  0  0  0
   -2.5345    0.6914    2.0318 H   0  0  0  0  0  0  0  0  0  0  0  0
   -1.4720    1.2390    3.7941 C   0  0  0  0  0  0  0  0  0  0  0  0
   -0.6345    1.9391    3.8219 H   0  0  0  0  0  0  0  0  0  0  0  0
   -2.3844    1.7580    4.0892 H   0  0  0  0  0  0  0  0  0  0  0  0
   -1.2733    0.4298    4.4995 H   0  0  0  0  0  0  0  0  0  0  0  0
  5  6  2  0  0  0  0
  5  7  1  0  0  0  0
  2  3  1  0  0  0  0
  2  4  1  0  0  0  0
  2  5  1  0  0  0  0
  1  2  1  0  0  0  0
 25 26  2  0  0  0  0
 25 27  1  0  0  0  0
 23 24  1  0  0  0  0
 21 22  1  0  0  0  0
 21 23  2  0  0  0  0
 19 20  1  0  0  0  0
 19 21  1  0  0  0  0
 17 18  1  0  0  0  0
 17 19  2  0  0  0  0
 15 16  1  0  0  0  0
 15 17  1  0  0  0  0
 14 15  2  0  0  0  0
 14 23  1  0  0  0  0
 11 12  1  0  0  0  0
 11 13  1  0  0  0  0
 11 14  1  0  0  0  0
  9 10  1  0  0  0  0
  9 11  1  0  0  0  0
  9 25  1  0  0  0  0
  7  8  1  0  0  0  0
  7  9  1  0  0  0  0
 29 30  1  0  0  0  0
 29 31  1  0  0  0  0
 29 32  1  0  0  0  0
 27 28  1  0  0  0  0
 27 29  1  0  0  0  0
M  END
$$$$
default_name
  -OEChem-02102213163D

 32 32  0     1  0  0  0  0  0999 V2000
   -3.8405   -3.7518    1.6252 H   0  0  0  0  0  0  0  0  0  0  0  0
   -3.7965   -2.8768    0.9782 C   0  0  0  0  0  0  0  0  0  0  0  0
   -4.5465   -2.1527    1.2902 H   0  0  0  0  0  0  0  0  0  0  0  0
   -3.9745   -3.1748   -0.0538 H   0  0  0  0  0  0  0  0  0  0  0  0
   -2.4245   -2.2537    1.0882 C   0  0  0  0  0  0  0  0  0  0  0  0
   -1.5805   -2.7478    1.8242 O   0  0  0  0  0  0  0  0  0  0  0  0
   -2.2045   -1.1637    0.3562 N   0  0  0  0  0  0  0  0  0  0  0  0
   -2.9595   -0.7907   -0.2008 H   0  0  0  0  0  0  0  0  0  0  0  0
   -0.9485   -0.4087    0.3482 C   0  0  1  0  0  0  0  0  0  0  0  0
   -0.1408   -1.0795    0.0507 H   0  0  0  0  0  0  0  0  0  0  0  0
   -1.0432    0.7243   -0.6879 C   0  0  0  0  0  0  0  0  0  0  0  0
   -0.9647    0.2977   -1.6889 H   0  0  0  0  0  0  0  0  0  0  0  0
   -2.0242    1.1952   -0.6086 H   0  0  0  0  0  0  0  0  0  0  0  0
    0.0334    1.7828   -0.5424 C   0  0  0  0  0  0  0  0  0  0  0  0
    0.8021    1.8612    0.6345 C   0  0  0  0  0  0  0  0  0  0  0  0
    0.6136    1.1801    1.4523 H   0  0  0  0  0  0  0  0  0  0  0  0
    1.8267    2.8192    0.7458 C   0  0  0  0  0  0  0  0  0  0  0  0
    2.4140    2.8794    1.6513 H   0  0  0  0  0  0  0  0  0  0  0  0
    2.0857    3.6987   -0.3192 C   0  0  0  0  0  0  0  0  0  0  0  0
    2.8713    4.4363   -0.2327 H   0  0  0  0  0  0  0  0  0  0  0  0
    1.3184    3.6240   -1.4959 C   0  0  0  0  0  0  0  0  0  0  0  0
    1.5138    4.3036   -2.3125 H   0  0  0  0  0  0  0  0  0  0  0  0
    0.2924    2.6687   -1.6056 C   0  0  0  0  0  0  0  0  0  0  0  0
   -0.2994    2.6145   -2.5101 H   0  0  0  0  0  0  0  0  0  0  0  0
   -0.6196    0.1253    1.7539 C   0  0  0  0  0  0  0  0  0  0  0  0
    0.5216    0.0194    2.2054 O   0  0  0  0  0  0  0  0  0  0  0  0
   -1.6152    0.6924    2.4469 N   0  0  0  0  0  0  0  0  0  0  0  0
   -2.5345    0.6914    2.0318 H   0  0  0  0  0  0  0  0  0  0  0  0
   -1.4720    1.2390    3.7941 C   0  0  0  0  0  0  0  0  0  0  0  0
   -0.6345    1.9391    3.8219 H   0  0  0  0  0  0  0  0  0  0  0  0
   -2.3844    1.7580    4.0892 H   0  0  0  0  0  0  0  0  0  0  0  0
   -1.2733    0.4298    4.4995 H   0  0  0  0  0  0  0  0  0  0  0  0
  5  6  2  0  0  0  0
  5  7  1  0  0  0  0
  2  3  1  0  0  0  0
  2  4  1  0  0  0  0
  2  5  1  0  0  0  0
  1  2  1  0  0  0  0
 25 26  2  0  0  0  0
 25 27  1  0  0  0  0
 23 24  1  0  0  0  0
 21 22  1  0  0  0  0
 21 23  2  0  0  0  0
 19 20  1  0  0  0  0
 19 21  1  0  0  0  0
 17 18  1  0  0  0  0
 17 19  2  0  0  0  0
 15 16  1  0  0  0  0
 15 17  1  0  0  0  0
 14 15  2  0  0  0  0
 14 23  1  0  0  0  0
 11 12  1  0  0  0  0
 11 13  1  0  0  0  0
 11 14  1  0  0  0  0
  9 10  1  0  0  0  0
  9 11  1  0  0  0  0
  9 25  1  0  0  0  0
  7  8  1  0  0  0  0
  7  9  1  0  0  0  0
 29 30  1  0  0  0  0
 29 31  1  0  0  0  0
 29 32  1  0  0  0  0
 27 28  1  0  0  0  0
 27 29  1  0  0  0  0
M  END
$$$$
default_name
  -OEChem-02102213163D

 32 32  0     1  0  0  0  0  0999 V2000
   -3.8405   -3.7518    1.6252 H   0  0  0  0  0  0  0  0  0  0  0  0
   -3.7965   -2.8768    0.9782 C   0  0  0  0  0  0  0  0  0  0  0  0
   -4.5465   -2.1527    1.2902 H   0  0  0  0  0  0  0  0  0  0  0  0
   -3.9745   -3.1748   -0.0538 H   0  0  0  0  0  0  0  0  0  0  0  0
   -2.4245   -2.2537    1.0882 C   0  0  0  0  0  0  0  0  0  0  0  0
   -1.5805   -2.7478    1.8242 O   0  0  0  0  0  0  0  0  0  0  0  0
   -2.2045   -1.1637    0.3562 N   0  0  0  0  0  0  0  0  0  0  0  0
   -2.9595   -0.7907   -0.2008 H   0  0  0  0  0  0  0  0  0  0  0  0
   -0.9485   -0.4087    0.3482 C   0  0  1  0  0  0  0  0  0  0  0  0
   -0.1408   -1.0795    0.0507 H   0  0  0  0  0  0  0  0  0  0  0  0
   -1.0432    0.7243   -0.6879 C   0  0  0  0  0  0  0  0  0  0  0  0
   -0.9647    0.2977   -1.6889 H   0  0  0  0  0  0  0  0  0  0  0  0
   -2.0242    1.1952   -0.6086 H   0  0  0  0  0  0  0  0  0  0  0  0
    0.0334    1.7828   -0.5424 C   0  0  0  0  0  0  0  0  0  0  0  0
    1.0038    1.6784    0.4722 C   0  0  0  0  0  0  0  0  0  0  0  0
    0.9734    0.8530    1.1694 H   0  0  0  0  0  0  0  0  0  0  0  0
    2.0238    2.6422    0.5753 C   0  0  0  0  0  0  0  0  0  0  0  0
    2.7663    2.5616    1.3567 H   0  0  0  0  0  0  0  0  0  0  0  0
    2.0765    3.7103   -0.3363 C   0  0  0  0  0  0  0  0  0  0  0  0
    2.8588    4.4521   -0.2556 H   0  0  0  0  0  0  0  0  0  0  0  0
    1.1076    3.8185   -1.3504 C   0  0  0  0  0  0  0  0  0  0  0  0
    1.1448    4.6424   -2.0478 H   0  0  0  0  0  0  0  0  0  0  0  0
    0.0864    2.8569   -1.4511 C   0  0  0  0  0  0  0  0  0  0  0  0
   -0.6603    2.9431   -2.2297 H   0  0  0  0  0  0  0  0  0  0  0  0
   -0.6196    0.1253    1.7539 C   0  0  0  0  0  0  0  0  0  0  0  0
    0.5216    0.0194    2.2054 O   0  0  0  0  0  0  0  0  0  0  0  0
   -1.6152    0.6924    2.4469 N   0  0  0  0  0  0  0  0  0  0  0  0
   -2.5345    0.6914    2.0318 H   0  0  0  0  0  0  0  0  0  0  0  0
   -1.4720    1.2390    3.7941 C   0  0  0  0  0  0  0  0  0  0  0  0
   -0.6345    1.9391    3.8219 H   0  0  0  0  0  0  0  0  0  0  0  0
   -2.3844    1.7580    4.0892 H   0  0  0  0  0  0  0  0  0  0  0  0
   -1.2733    0.4298    4.4995 H   0  0  0  0  0  0  0  0  0  0  0  0
  5  6  2  0  0  0  0
  5  7  1  0  0  0  0
  2  3  1  0  0  0  0
  2  4  1  0  0  0  0
  2  5  1  0  0  0  0
  1  2  1  0  0  0  0
 25 26  2  0  0  0  0
 25 27  1  0  0  0  0
 23 24  1  0  0  0  0
 21 22  1  0  0  0  0
 21 23  2  0  0  0  0
 19 20  1  0  0  0  0
 19 21  1  0  0  0  0
 17 18  1  0  0  0  0
 17 19  2  0  0  0  0
 15 16  1  0  0  0  0
 15 17  1  0  0  0  0
 14 15  2  0  0  0  0
 14 23  1  0  0  0  0
 11 12  1  0  0  0  0
 11 13  1  0  0  0  0
 11 14  1  0  0  0  0
  9 10  1  0  0  0  0
  9 11  1  0  0  0  0
  9 25  1  0  0  0  0
  7  8  1  0  0  0  0
  7  9  1  0  0  0  0
 29 30  1  0  0  0  0
 29 31  1  0  0  0  0
 29 32  1  0  0  0  0
 27 28  1  0  0  0  0
 27 29  1  0  0  0  0
M  END
$$$$
default_name
  -OEChem-02102213163D

 32 32  0     1  0  0  0  0  0999 V2000
   -3.8405   -3.7518    1.6252 H   0  0  0  0  0  0  0  0  0  0  0  0
   -3.7965   -2.8768    0.9782 C   0  0  0  0  0  0  0  0  0  0  0  0
   -4.5465   -2.1527    1.2902 H   0  0  0  0  0  0  0  0  0  0  0  0
   -3.9745   -3.1748   -0.0538 H   0  0  0  0  0  0  0  0  0  0  0  0
   -2.4245   -2.2537    1.0882 C   0  0  0  0  0  0  0  0  0  0  0  0
   -1.5805   -2.7478    1.8242 O   0  0  0  0  0  0  0  0  0  0  0  0
   -2.2045   -1.1637    0.3562 N   0  0  0  0  0  0  0  0  0  0  0  0
   -2.9595   -0.7907   -0.2008 H   0  0  0  0  0  0  0  0  0  0  0  0
   -0.9485   -0.4087    0.3482 C   0  0  1  0  0  0  0  0  0  0  0  0
   -0.1408   -1.0795    0.0507 H   0  0  0  0  0  0  0  0  0  0  0  0
   -1.0432    0.7243   -0.6879 C   0  0  0  0  0  0  0  0  0  0  0  0
   -0.9647    0.2977   -1.6889 H   0  0  0  0  0  0  0  0  0  0  0  0
   -2.0242    1.1952   -0.6086 H   0  0  0  0  0  0  0  0  0  0  0  0
    0.0334    1.7828   -0.5424 C   0  0  0  0  0  0  0  0  0  0  0  0
    1.1738    1.5367    0.2456 C   0  0  0  0  0  0  0  0  0  0  0  0
    1.2781    0.5979    0.7711 H   0  0  0  0  0  0  0  0  0  0  0  0
    2.1877    2.5075    0.3426 C   0  0  0  0  0  0  0  0  0  0  0  0
    3.0613    2.3175    0.9502 H   0  0  0  0  0  0  0  0  0  0  0  0
    2.0643    3.7245   -0.3490 C   0  0  0  0  0  0  0  0  0  0  0  0
    2.8422    4.4713   -0.2726 H   0  0  0  0  0  0  0  0  0  0  0  0
    0.9254    3.9743   -1.1360 C   0  0  0  0  0  0  0  0  0  0  0  0
    0.8278    4.9119   -1.6633 H   0  0  0  0  0  0  0  0  0  0  0  0
   -0.0893    3.0052   -1.2301 C   0  0  0  0  0  0  0  0  0  0  0  0
   -0.9665    3.2000   -1.8332 H   0  0  0  0  0  0  0  0  0  0  0  0
   -0.6196    0.1253    1.7539 C   0  0  0  0  0  0  0  0  0  0  0  0
    0.5216    0.0194    2.2054 O   0  0  0  0  0  0  0  0  0  0  0  0
   -1.6152    0.6924    2.4469 N   0  0  0  0  0  0  0  0  0  0  0  0
   -2.5345    0.6914    2.0318 H   0  0  0  0  0  0  0  0  0  0  0  0
   -1.4720    1.2390    3.7941 C   0  0  0  0  0  0  0  0  0  0  0  0
   -0.6345    1.9391    3.8219 H   0  0  0  0  0  0  0  0  0  0  0  0
   -2.3844    1.7580    4.0892 H   0  0  0  0  0  0  0  0  0  0  0  0
   -1.2733    0.4298    4.4995 H   0  0  0  0  0  0  0  0  0  0  0  0
  5  6  2  0  0  0  0
  5  7  1  0  0  0  0
  2  3  1  0  0  0  0
  2  4  1  0  0  0  0
  2  5  1  0  0  0  0
  1  2  1  0  0  0  0
 25 26  2  0  0  0  0
 25 27  1  0  0  0  0
 23 24  1  0  0  0  0
 21 22  1  0  0  0  0
 21 23  2  0  0  0  0
 19 20  1  0  0  0  0
 19 21  1  0  0  0  0
 17 18  1  0  0  0  0
 17 19  2  0  0  0  0
 15 16  1  0  0  0  0
 15 17  1  0  0  0  0
 14 15  2  0  0  0  0
 14 23  1  0  0  0  0
 11 12  1  0  0  0  0
 11 13  1  0  0  0  0
 11 14  1  0  0  0  0
  9 10  1  0  0  0  0
  9 11  1  0  0  0  0
  9 25  1  0  0  0  0
  7  8  1  0  0  0  0
  7  9  1  0  0  0  0
 29 30  1  0  0  0  0
 29 31  1  0  0  0  0
 29 32  1  0  0  0  0
 27 28  1  0  0  0  0
 27 29  1  0  0  0  0
M  END
$$$$
default_name
  -OEChem-02102213163D

 32 32  0     1  0  0  0  0  0999 V2000
   -3.8405   -3.7518    1.6252 H   0  0  0  0  0  0  0  0  0  0  0  0
   -3.7965   -2.8768    0.9782 C   0  0  0  0  0  0  0  0  0  0  0  0
   -4.5465   -2.1527    1.2902 H   0  0  0  0  0  0  0  0  0  0  0  0
   -3.9745   -3.1748   -0.0538 H   0  0  0  0  0  0  0  0  0  0  0  0
   -2.4245   -2.2537    1.0882 C   0  0  0  0  0  0  0  0  0  0  0  0
   -1.5805   -2.7478    1.8242 O   0  0  0  0  0  0  0  0  0  0  0  0
   -2.2045   -1.1637    0.3562 N   0  0  0  0  0  0  0  0  0  0  0  0
   -2.9595   -0.7907   -0.2008 H   0  0  0  0  0  0  0  0  0  0  0  0
   -0.9485   -0.4087    0.3482 C   0  0  1  0  0  0  0  0  0  0  0  0
   -0.1408   -1.0795    0.0507 H   0  0  0  0  0  0  0  0  0  0  0  0
   -1.0432    0.7243   -0.6879 C   0  0  0  0  0  0  0  0  0  0  0  0
   -0.9647    0.2977   -1.6889 H   0  0  0  0  0  0  0  0  0  0  0  0
   -2.0242    1.1952   -0.6086 H   0  0  0  0  0  0  0  0  0  0  0  0
    0.0334    1.7828   -0.5424 C   0  0  0  0  0  0  0  0  0  0  0  0
    1.3006    1.4456   -0.0301 C   0  0  0  0  0  0  0  0  0  0  0  0
    1.5068    0.4323    0.2844 H   0  0  0  0  0  0  0  0  0  0  0  0
    2.3074    2.4241    0.0633 C   0  0  0  0  0  0  0  0  0  0  0  0
    3.2789    2.1637    0.4593 H   0  0  0  0  0  0  0  0  0  0  0  0
    2.0499    3.7402   -0.3565 C   0  0  0  0  0  0  0  0  0  0  0  0
    2.8227    4.4925   -0.2825 H   0  0  0  0  0  0  0  0  0  0  0  0
    0.7842    4.0809   -0.8674 C   0  0  0  0  0  0  0  0  0  0  0  0
    0.5844    5.0937   -1.1852 H   0  0  0  0  0  0  0  0  0  0  0  0
   -0.2227    3.1035   -0.9577 C   0  0  0  0  0  0  0  0  0  0  0  0
   -1.1971    3.3677   -1.3478 H   0  0  0  0  0  0  0  0  0  0  0  0
   -0.6196    0.1253    1.7539 C   0  0  0  0  0  0  0  0  0  0  0  0
    0.5216    0.0194    2.2054 O   0  0  0  0  0  0  0  0  0  0  0  0
   -1.6152    0.6924    2.4469 N   0  0  0  0  0  0  0  0  0  0  0  0
   -2.5345    0.6914    2.0318 H   0  0  0  0  0  0  0  0  0  0  0  0
   -1.4720    1.2390    3.7941 C   0  0  0  0  0  0  0  0  0  0  0  0
   -0.6345    1.9391    3.8219 H   0  0  0  0  0  0  0  0  0  0  0  0
   -2.3844    1.7580    4.0892 H   0  0  0  0  0  0  0  0  0  0  0  0
   -1.2733    0.4298    4.4995 H   0  0  0  0  0  0  0  0  0  0  0  0
  5  6  2  0  0  0  0
  5  7  1  0  0  0  0
  2  3  1  0  0  0  0
  2  4  1  0  0  0  0
  2  5  1  0  0  0  0
  1  2  1  0  0  0  0
 25 26  2  0  0  0  0
 25 27  1  0  0  0  0
 23 24  1  0  0  0  0
 21 22  1  0  0  0  0
 21 23  2  0  0  0  0
 19 20  1  0  0  0  0
 19 21  1  0  0  0  0
 17 18  1  0  0  0  0
 17 19  2  0  0  0  0
 15 16  1  0  0  0  0
 15 17  1  0  0  0  0
 14 15  2  0  0  0  0
 14 23  1  0  0  0  0
 11 12  1  0  0  0  0
 11 13  1  0  0  0  0
 11 14  1  0  0  0  0
  9 10  1  0  0  0  0
  9 11  1  0  0  0  0
  9 25  1  0  0  0  0
  7  8  1  0  0  0  0
  7  9  1  0  0  0  0
 29 30  1  0  0  0  0
 29 31  1  0  0  0  0
 29 32  1  0  0  0  0
 27 28  1  0  0  0  0
 27 29  1  0  0  0  0
M  END
$$$$
default_name
  -OEChem-02102213163D

 32 32  0     1  0  0  0  0  0999 V2000
   -3.8405   -3.7518    1.6252 H   0  0  0  0  0  0  0  0  0  0  0  0
   -3.7965   -2.8768    0.9782 C   0  0  0  0  0  0  0  0  0  0  0  0
   -4.5465   -2.1527    1.2902 H   0  0  0  0  0  0  0  0  0  0  0  0
   -3.9745   -3.1748   -0.0538 H   0  0  0  0  0  0  0  0  0  0  0  0
   -2.4245   -2.2537    1.0882 C   0  0  0  0  0  0  0  0  0  0  0  0
   -1.5805   -2.7478    1.8242 O   0  0  0  0  0  0  0  0  0  0  0  0
   -2.2045   -1.1637    0.3562 N   0  0  0  0  0  0  0  0  0  0  0  0
   -2.9595   -0.7907   -0.2008 H   0  0  0  0  0  0  0  0  0  0  0  0
   -0.9485   -0.4087    0.3482 C   0  0  1  0  0  0  0  0  0  0  0  0
   -0.1408   -1.0795    0.0507 H   0  0  0  0  0  0  0  0  0  0  0  0
   -1.0432    0.7243   -0.6879 C   0  0  0  0  0  0  0  0  0  0  0  0
   -0.9647    0.2977   -1.6889 H   0  0  0  0  0  0  0  0  0  0  0  0
   -2.0242    1.1952   -0.6086 H   0  0  0  0  0  0  0  0  0  0  0  0
    0.0334    1.7828   -0.5424 C   0  0  0  0  0  0  0  0  0  0  0  0
    1.3756    1.4114   -0.3361 C   0  0  0  0  0  0  0  0  0  0  0  0
    1.6439    0.3673   -0.2574 H   0  0  0  0  0  0  0  0  0  0  0  0
    2.3747    2.3979   -0.2433 C   0  0  0  0  0  0  0  0  0  0  0  0
    3.4043    2.1107   -0.0823 H   0  0  0  0  0  0  0  0  0  0  0  0
    2.0342    3.7564   -0.3583 C   0  0  0  0  0  0  0  0  0  0  0  0
    2.8015    4.5144   -0.2846 H   0  0  0  0  0  0  0  0  0  0  0  0
    0.6938    4.1310   -0.5629 C   0  0  0  0  0  0  0  0  0  0  0  0
    0.4311    5.1755   -0.6459 H   0  0  0  0  0  0  0  0  0  0  0  0
   -0.3049    3.1451   -0.6523 C   0  0  0  0  0  0  0  0  0  0  0  0
   -1.3362    3.4348   -0.8064 H   0  0  0  0  0  0  0  0  0  0  0  0
   -0.6196    0.1253    1.7539 C   0  0  0  0  0  0  0  0  0  0  0  0
    0.5216    0.0194    2.2054 O   0  0  0  0  0  0  0  0  0  0  0  0
   -1.6152    0.6924    2.4469 N   0  0  0  0  0  0  0  0  0  0  0  0
   -2.5345    0.6914    2.0318 H   0  0  0  0  0  0  0  0  0  0  0  0
   -1.4720    1.2390    3.7941 C   0  0  0  0  0  0  0  0  0  0  0  0
   -0.6345    1.9391    3.8219 H   0  0  0  0  0  0  0  0  0  0  0  0
   -2.3844    1.7580    4.0892 H   0  0  0  0  0  0  0  0  0  0  0  0
   -1.2733    0.4298    4.4995 H   0  0  0  0  0  0  0  0  0  0  0  0
  5  6  2  0  0  0  0
  5  7  1  0  0  0  0
  2  3  1  0  0  0  0
  2  4  1  0  0  0  0
  2  5  1  0  0  0  0
  1  2  1  0  0  0  0
 25 26  2  0  0  0  0
 25 27  1  0  0  0  0
 23 24  1  0  0  0  0
 21 22  1  0  0  0  0
 21 23  2  0  0  0  0
 19 20  1  0  0  0  0
 19 21  1  0  0  0  0
 17 18  1  0  0  0  0
 17 19  2  0  0  0  0
 15 16  1  0  0  0  0
 15 17  1  0  0  0  0
 14 15  2  0  0  0  0
 14 23  1  0  0  0  0
 11 12  1  0  0  0  0
 11 13  1  0  0  0  0
 11 14  1  0  0  0  0
  9 10  1  0  0  0  0
  9 11  1  0  0  0  0
  9 25  1  0  0  0  0
  7  8  1  0  0  0  0
  7  9  1  0  0  0  0
 29 30  1  0  0  0  0
 29 31  1  0  0  0  0
 29 32  1  0  0  0  0
 27 28  1  0  0  0  0
 27 29  1  0  0  0  0
M  END
$$$$
default_name
  -OEChem-02102213163D

 32 32  0     1  0  0  0  0  0999 V2000
   -3.8405   -3.7518    1.6252 H   0  0  0  0  0  0  0  0  0  0  0  0
   -3.7965   -2.8768    0.9782 C   0  0  0  0  0  0  0  0  0  0  0  0
   -4.5465   -2.1527    1.2902 H   0  0  0  0  0  0  0  0  0  0  0  0
   -3.9745   -3.1748   -0.0538 H   0  0  0  0  0  0  0  0  0  0  0  0
   -2.4245   -2.2537    1.0882 C   0  0  0  0  0  0  0  0  0  0  0  0
   -1.5805   -2.7478    1.8242 O   0  0  0  0  0  0  0  0  0  0  0  0
   -2.2045   -1.1637    0.3562 N   0  0  0  0  0  0  0  0  0  0  0  0
   -2.9595   -0.7907   -0.2008 H   0  0  0  0  0  0  0  0  0  0  0  0
   -0.9485   -0.4087    0.3482 C   0  0  1  0  0  0  0  0  0  0  0  0
   -0.1408   -1.0795    0.0507 H   0  0  0  0  0  0  0  0  0  0  0  0
   -1.0432    0.7243   -0.6879 C   0  0  0  0  0  0  0  0  0  0  0  0
   -0.9647    0.2977   -1.6889 H   0  0  0  0  0  0  0  0  0  0  0  0
   -2.0242    1.1952   -0.6086 H   0  0  0  0  0  0  0  0  0  0  0  0
    0.0334    1.7828   -0.5424 C   0  0  0  0  0  0  0  0  0  0  0  0
    1.3936    1.4365   -0.6514 C   0  0  0  0  0  0  0  0  0  0  0  0
    1.6801    0.4076   -0.8174 H   0  0  0  0  0  0  0  0  0  0  0  0
    2.3849    2.4306   -0.5564 C   0  0  0  0  0  0  0  0  0  0  0  0
    3.4288    2.1621   -0.6379 H   0  0  0  0  0  0  0  0  0  0  0  0
    2.0183    3.7720   -0.3542 C   0  0  0  0  0  0  0  0  0  0  0  0
    2.7801    4.5354   -0.2788 H   0  0  0  0  0  0  0  0  0  0  0  0
    0.6601    4.1213   -0.2432 C   0  0  0  0  0  0  0  0  0  0  0  0
    0.3784    5.1515   -0.0823 H   0  0  0  0  0  0  0  0  0  0  0  0
   -0.3301    3.1271   -0.3349 C   0  0  0  0  0  0  0  0  0  0  0  0
   -1.3745    3.3967   -0.2461 H   0  0  0  0  0  0  0  0  0  0  0  0
   -0.6196    0.1253    1.7539 C   0  0  0  0  0  0  0  0  0  0  0  0
    0.5216    0.0194    2.2054 O   0  0  0  0  0  0  0  0  0  0  0  0
   -1.6152    0.6924    2.4469 N   0  0  0  0  0  0  0  0  0  0  0  0
   -2.5345    0.6914    2.0318 H   0  0  0  0  0  0  0  0  0  0  0  0
   -1.4720    1.2390    3.7941 C   0  0  0  0  0  0  0  0  0  0  0  0
   -0.6345    1.9391    3.8219 H   0  0  0  0  0  0  0  0  0  0  0  0
   -2.3844    1.7580    4.0892 H   0  0  0  0  0  0  0  0  0  0  0  0
   -1.2733    0.4298    4.4995 H   0  0  0  0  0  0  0  0  0  0  0  0
  5  6  2  0  0  0  0
  5  7  1  0  0  0  0
  2  3  1  0  0  0  0
  2  4  1  0  0  0  0
  2  5  1  0  0  0  0
  1  2  1  0  0  0  0
 25 26  2  0  0  0  0
 25 27  1  0  0  0  0
 23 24  1  0  0  0  0
 21 22  1  0  0  0  0
 21 23  2  0  0  0  0
 19 20  1  0  0  0  0
 19 21  1  0  0  0  0
 17 18  1  0  0  0  0
 17 19  2  0  0  0  0
 15 16  1  0  0  0  0
 15 17  1  0  0  0  0
 14 15  2  0  0  0  0
 14 23  1  0  0  0  0
 11 12  1  0  0  0  0
 11 13  1  0  0  0  0
 11 14  1  0  0  0  0
  9 10  1  0  0  0  0
  9 11  1  0  0  0  0
  9 25  1  0  0  0  0
  7  8  1  0  0  0  0
  7  9  1  0  0  0  0
 29 30  1  0  0  0  0
 29 31  1  0  0  0  0
 29 32  1  0  0  0  0
 27 28  1  0  0  0  0
 27 29  1  0  0  0  0
M  END
$$$$
default_name
  -OEChem-02102213163D

 32 32  0     1  0  0  0  0  0999 V2000
   -3.8405   -3.7518    1.6252 H   0  0  0  0  0  0  0  0  0  0  0  0
   -3.7965   -2.8768    0.9782 C   0  0  0  0  0  0  0  0  0  0  0  0
   -4.5465   -2.1527    1.2902 H   0  0  0  0  0  0  0  0  0  0  0  0
   -3.9745   -3.1748   -0.0538 H   0  0  0  0  0  0  0  0  0  0  0  0
   -2.4245   -2.2537    1.0882 C   0  0  0  0  0  0  0  0  0  0  0  0
   -1.5805   -2.7478    1.8242 O   0  0  0  0  0  0  0  0  0  0  0  0
   -2.2045   -1.1637    0.3562 N   0  0  0  0  0  0  0  0  0  0  0  0
   -2.9595   -0.7907   -0.2008 H   0  0  0  0  0  0  0  0  0  0  0  0
   -0.9485   -0.4087    0.3482 C   0  0  1  0  0  0  0  0  0  0  0  0
   -0.1408   -1.0795    0.0507 H   0  0  0  0  0  0  0  0  0  0  0  0
   -1.0432    0.7243   -0.6879 C   0  0  0  0  0  0  0  0  0  0  0  0
   -0.9647    0.2977   -1.6889 H   0  0  0  0  0  0  0  0  0  0  0  0
   -2.0242    1.1952   -0.6086 H   0  0  0  0  0  0  0  0  0  0  0  0
    0.0334    1.7828   -0.5424 C   0  0  0  0  0  0  0  0  0  0  0  0
    1.3534    1.5191   -0.9547 C   0  0  0  0  0  0  0  0  0  0  0  0
    1.6129    0.5502   -1.3575 H   0  0  0  0  0  0  0  0  0  0  0  0
    2.3374    2.5199   -0.8547 C   0  0  0  0  0  0  0  0  0  0  0  0
    3.3509    2.3145   -1.1695 H   0  0  0  0  0  0  0  0  0  0  0  0
    2.0034    3.7859   -0.3445 C   0  0  0  0  0  0  0  0  0  0  0  0
    2.7599    4.5540   -0.2655 H   0  0  0  0  0  0  0  0  0  0  0  0
    0.6856    4.0523    0.0699 C   0  0  0  0  0  0  0  0  0  0  0  0
    0.4299    5.0236    0.4672 H   0  0  0  0  0  0  0  0  0  0  0  0
   -0.2968    3.0508   -0.0271 C   0  0  0  0  0  0  0  0  0  0  0  0
   -1.3094    3.2560    0.2951 H   0  0  0  0  0  0  0  0  0  0  0  0
   -0.6196    0.1253    1.7539 C   0  0  0  0  0  0  0  0  0  0  0  0
    0.5216    0.0194    2.2054 O   0  0  0  0  0  0  0  0  0  0  0  0
   -1.6152    0.6924    2.4469 N   0  0  0  0  0  0  0  0  0  0  0  0
   -2.5345    0.6914    2.0318 H   0  0  0  0  0  0  0  0  0  0  0  0
   -1.4720    1.2390    3.7941 C   0  0  0  0  0  0  0  0  0  0  0  0
   -0.6345    1.9391    3.8219 H   0  0  0  0  0  0  0  0  0  0  0  0
   -2.3844    1.7580    4.0892 H   0  0  0  0  0  0  0  0  0  0  0  0
   -1.2733    0.4298    4.4995 H   0  0  0  0  0  0  0  0  0  0  0  0
  5  6  2  0  0  0  0
  5  7  1  0  0  0  0
  2  3  1  0  0  0  0
  2  4  1  0  0  0  0
  2  5  1  0  0  0  0
  1  2  1  0  0  0  0
 25 26  2  0  0  0  0
 25 27  1  0  0  0  0
 23 24  1  0  0  0  0
 21 22  1  0  0  0  0
 21 23  2  0  0  0  0
 19 20  1  0  0  0  0
 19 21  1  0  0  0  0
 17 18  1  0  0  0  0
 17 19  2  0  0  0  0
 15 16  1  0  0  0  0
 15 17  1  0  0  0  0
 14 15  2  0  0  0  0
 14 23  1  0  0  0  0
 11 12  1  0  0  0  0
 11 13  1  0  0  0  0
 11 14  1  0  0  0  0
  9 10  1  0  0  0  0
  9 11  1  0  0  0  0
  9 25  1  0  0  0  0
  7  8  1  0  0  0  0
  7  9  1  0  0  0  0
 29 30  1  0  0  0  0
 29 31  1  0  0  0  0
 29 32  1  0  0  0  0
 27 28  1  0  0  0  0
 27 29  1  0  0  0  0
M  END
$$$$
default_name
  -OEChem-02102213163D

 32 32  0     1  0  0  0  0  0999 V2000
   -3.8405   -3.7518    1.6252 H   0  0  0  0  0  0  0  0  0  0  0  0
   -3.7965   -2.8768    0.9782 C   0  0  0  0  0  0  0  0  0  0  0  0
   -4.5465   -2.1527    1.2902 H   0  0  0  0  0  0  0  0  0  0  0  0
   -3.9745   -3.1748   -0.0538 H   0  0  0  0  0  0  0  0  0  0  0  0
   -2.4245   -2.2537    1.0882 C   0  0  0  0  0  0  0  0  0  0  0  0
   -1.5805   -2.7478    1.8242 O   0  0  0  0  0  0  0  0  0  0  0  0
   -2.2045   -1.1637    0.3562 N   0  0  0  0  0  0  0  0  0  0  0  0
   -2.9595   -0.7907   -0.2008 H   0  0  0  0  0  0  0  0  0  0  0  0
   -0.9485   -0.4087    0.3482 C   0  0  1  0  0  0  0  0  0  0  0  0
   -0.1408   -1.0795    0.0507 H   0  0  0  0  0  0  0  0  0  0  0  0
   -1.0432    0.7243   -0.6879 C   0  0  0  0  0  0  0  0  0  0  0  0
   -0.9647    0.2977   -1.6889 H   0  0  0  0  0  0  0  0  0  0  0  0
   -2.0242    1.1952   -0.6086 H   0  0  0  0  0  0  0  0  0  0  0  0
    0.0334    1.7828   -0.5424 C   0  0  0  0  0  0  0  0  0  0  0  0
    1.2578    1.6536   -1.2252 C   0  0  0  0  0  0  0  0  0  0  0  0
    1.4469    0.7855   -1.8408 H   0  0  0  0  0  0  0  0  0  0  0  0
    2.2354    2.6598   -1.1179 C   0  0  0  0  0  0  0  0  0  0  0  0
    3.1759    2.5574   -1.6409 H   0  0  0  0  0  0  0  0  0  0  0  0
    1.9903    3.7972   -0.3298 C   0  0  0  0  0  0  0  0  0  0  0  0
    2.7424    4.5691   -0.2455 H   0  0  0  0  0  0  0  0  0  0  0  0
    0.7685    3.9287    0.3550 C   0  0  0  0  0  0  0  0  0  0  0  0
    0.5821    4.8003    0.9651 H   0  0  0  0  0  0  0  0  0  0  0  0
   -0.2070    2.9214    0.2502 C   0  0  0  0  0  0  0  0  0  0  0  0
   -1.1452    3.0223    0.7802 H   0  0  0  0  0  0  0  0  0  0  0  0
   -0.6196    0.1253    1.7539 C   0  0  0  0  0  0  0  0  0  0  0  0
    0.5216    0.0194    2.2054 O   0  0  0  0  0  0  0  0  0  0  0  0
   -1.6152    0.6924    2.4469 N   0  0  0  0  0  0  0  0  0  0  0  0
   -2.5345    0.6914    2.0318 H   0  0  0  0  0  0  0  0  0  0  0  0
   -1.4720    1.2390    3.7941 C   0  0  0  0  0  0  0  0  0  0  0  0
   -0.6345    1.9391    3.8219 H   0  0  0  0  0  0  0  0  0  0  0  0
   -2.3844    1.7580    4.0892 H   0  0  0  0  0  0  0  0  0  0  0  0
   -1.2733    0.4298    4.4995 H   0  0  0  0  0  0  0  0  0  0  0  0
  5  6  2  0  0  0  0
  5  7  1  0  0  0  0
  2  3  1  0  0  0  0
  2  4  1  0  0  0  0
  2  5  1  0  0  0  0
  1  2  1  0  0  0  0
 25 26  2  0  0  0  0
 25 27  1  0  0  0  0
 23 24  1  0  0  0  0
 21 22  1  0  0  0  0
 21 23  2  0  0  0  0
 19 20  1  0  0  0  0
 19 21  1  0  0  0  0
 17 18  1  0  0  0  0
 17 19  2  0  0  0  0
 15 16  1  0  0  0  0
 15 17  1  0  0  0  0
 14 15  2  0  0  0  0
 14 23  1  0  0  0  0
 11 12  1  0  0  0  0
 11 13  1  0  0  0  0
 11 14  1  0  0  0  0
  9 10  1  0  0  0  0
  9 11  1  0  0  0  0
  9 25  1  0  0  0  0
  7  8  1  0  0  0  0
  7  9  1  0  0  0  0
 29 30  1  0  0  0  0
 29 31  1  0  0  0  0
 29 32  1  0  0  0  0
 27 28  1  0  0  0  0
 27 29  1  0  0  0  0
M  END
$$$$
default_name
  -OEChem-02102213163D

 32 32  0     1  0  0  0  0  0999 V2000
   -3.8405   -3.7518    1.6252 H   0  0  0  0  0  0  0  0  0  0  0  0
   -3.7965   -2.8768    0.9782 C   0  0  0  0  0  0  0  0  0  0  0  0
   -4.5465   -2.1527    1.2902 H   0  0  0  0  0  0  0  0  0  0  0  0
   -3.9745   -3.1748   -0.0538 H   0  0  0  0  0  0  0  0  0  0  0  0
   -2.4245   -2.2537    1.0882 C   0  0  0  0  0  0  0  0  0  0  0  0
   -1.5805   -2.7478    1.8242 O   0  0  0  0  0  0  0  0  0  0  0  0
   -2.2045   -1.1637    0.3562 N   0  0  0  0  0  0  0  0  0  0  0  0
   -2.9595   -0.7907   -0.2008 H   0  0  0  0  0  0  0  0  0  0  0  0
   -0.9485   -0.4087    0.3482 C   0  0  1  0  0  0  0  0  0  0  0  0
   -0.1408   -1.0795    0.0507 H   0  0  0  0  0  0  0  0  0  0  0  0
   -1.0432    0.7243   -0.6879 C   0  0  0  0  0  0  0  0  0  0  0  0
   -0.9647    0.2977   -1.6889 H   0  0  0  0  0  0  0  0  0  0  0  0
   -2.0242    1.1952   -0.6086 H   0  0  0  0  0  0  0  0  0  0  0  0
    0.0334    1.7828   -0.5424 C   0  0  0  0  0  0  0  0  0  0  0  0
    1.1132    1.8308   -1.4444 C   0  0  0  0  0  0  0  0  0  0  0  0
    1.1934    1.0975   -2.2345 H   0  0  0  0  0  0  0  0  0  0  0  0
    2.0859    2.8408   -1.3279 C   0  0  0  0  0  0  0  0  0  0  0  0
    2.9156    2.8742   -2.0201 H   0  0  0  0  0  0  0  0  0  0  0  0
    1.9800    3.8050   -0.3113 C   0  0  0  0  0  0  0  0  0  0  0  0
    2.7287    4.5796   -0.2204 H   0  0  0  0  0  0  0  0  0  0  0  0
    0.9032    3.7591    0.5927 C   0  0  0  0  0  0  0  0  0  0  0  0
    0.8246    4.4970    1.3776 H   0  0  0  0  0  0  0  0  0  0  0  0
   -0.0670    2.7477    0.4781 C   0  0  0  0  0  0  0  0  0  0  0  0
   -0.8932    2.7115    1.1762 H   0  0  0  0  0  0  0  0  0  0  0  0
   -0.6196    0.1253    1.7539 C   0  0  0  0  0  0  0  0  0  0  0  0
    0.5216    0.0194    2.2054 O   0  0  0  0  0  0  0  0  0  0  0  0
   -1.6152    0.6924    2.4469 N   0  0  0  0  0  0  0  0  0  0  0  0
   -2.5345    0.6914    2.0318 H   0  0  0  0  0  0  0  0  0  0  0  0
   -1.4720    1.2390    3.7941 C   0  0  0  0  0  0  0  0  0  0  0  0
   -0.6345    1.9391    3.8219 H   0  0  0  0  0  0  0  0  0  0  0  0
   -2.3844    1.7580    4.0892 H   0  0  0  0  0  0  0  0  0  0  0  0
   -1.2733    0.4298    4.4995 H   0  0  0  0  0  0  0  0  0  0  0  0
  5  6  2  0  0  0  0
  5  7  1  0  0  0  0
  2  3  1  0  0  0  0
  2  4  1  0  0  0  0
  2  5  1  0  0  0  0
  1  2  1  0  0  0  0
 25 26  2  0  0  0  0
 25 27  1  0  0  0  0
 23 24  1  0  0  0  0
 21 22  1  0  0  0  0
 21 23  2  0  0  0  0
 19 20  1  0  0  0  0
 19 21  1  0  0  0  0
 17 18  1  0  0  0  0
 17 19  2  0  0  0  0
 15 16  1  0  0  0  0
 15 17  1  0  0  0  0
 14 15  2  0  0  0  0
 14 23  1  0  0  0  0
 11 12  1  0  0  0  0
 11 13  1  0  0  0  0
 11 14  1  0  0  0  0
  9 10  1  0  0  0  0
  9 11  1  0  0  0  0
  9 25  1  0  0  0  0
  7  8  1  0  0  0  0
  7  9  1  0  0  0  0
 29 30  1  0  0  0  0
 29 31  1  0  0  0  0
 29 32  1  0  0  0  0
 27 28  1  0  0  0  0
 27 29  1  0  0  0  0
M  END
$$$$
default_name
  -OEChem-02102213163D

 32 32  0     1  0  0  0  0  0999 V2000
   -3.8405   -3.7518    1.6252 H   0  0  0  0  0  0  0  0  0  0  0  0
   -3.7965   -2.8768    0.9782 C   0  0  0  0  0  0  0  0  0  0  0  0
   -4.5465   -2.1527    1.2902 H   0  0  0  0  0  0  0  0  0  0  0  0
   -3.9745   -3.1748   -0.0538 H   0  0  0  0  0  0  0  0  0  0  0  0
   -2.4245   -2.2537    1.0882 C   0  0  0  0  0  0  0  0  0  0  0  0
   -1.5805   -2.7478    1.8242 O   0  0  0  0  0  0  0  0  0  0  0  0
   -2.2045   -1.1637    0.3562 N   0  0  0  0  0  0  0  0  0  0  0  0
   -2.9595   -0.7907   -0.2008 H   0  0  0  0  0  0  0  0  0  0  0  0
   -0.9485   -0.4087    0.3482 C   0  0  1  0  0  0  0  0  0  0  0  0
   -0.1408   -1.0795    0.0507 H   0  0  0  0  0  0  0  0  0  0  0  0
   -1.0432    0.7243   -0.6879 C   0  0  0  0  0  0  0  0  0  0  0  0
   -0.9647    0.2977   -1.6889 H   0  0  0  0  0  0  0  0  0  0  0  0
   -2.0242    1.1952   -0.6086 H   0  0  0  0  0  0  0  0  0  0  0  0
    0.0334    1.7828   -0.5424 C   0  0  0  0  0  0  0  0  0  0  0  0
    0.9295    2.0387   -1.5976 C   0  0  0  0  0  0  0  0  0  0  0  0
    0.8697    1.4648   -2.5116 H   0  0  0  0  0  0  0  0  0  0  0  0
    1.8991    3.0504   -1.4706 C   0  0  0  0  0  0  0  0  0  0  0  0
    2.5878    3.2435   -2.2811 H   0  0  0  0  0  0  0  0  0  0  0  0
    1.9733    3.8090   -0.2900 C   0  0  0  0  0  0  0  0  0  0  0  0
    2.7198    4.5847   -0.1916 H   0  0  0  0  0  0  0  0  0  0  0  0
    1.0804    3.5549    0.7669 C   0  0  0  0  0  0  0  0  0  0  0  0
    1.1408    4.1342    1.6765 H   0  0  0  0  0  0  0  0  0  0  0  0
    0.1137    2.5415    0.6410 C   0  0  0  0  0  0  0  0  0  0  0  0
   -0.5705    2.3448    1.4562 H   0  0  0  0  0  0  0  0  0  0  0  0
   -0.6196    0.1253    1.7539 C   0  0  0  0  0  0  0  0  0  0  0  0
    0.5216    0.0194    2.2054 O   0  0  0  0  0  0  0  0  0  0  0  0
   -1.6152    0.6924    2.4469 N   0  0  0  0  0  0  0  0  0  0  0  0
   -2.5345    0.6914    2.0318 H   0  0  0  0  0  0  0  0  0  0  0  0
   -1.4720    1.2390    3.7941 C   0  0  0  0  0  0  0  0  0  0  0  0
   -0.6345    1.9391    3.8219 H   0  0  0  0  0  0  0  0  0  0  0  0
   -2.3844    1.7580    4.0892 H   0  0  0  0  0  0  0  0  0  0  0  0
   -1.2733    0.4298    4.4995 H   0  0  0  0  0  0  0  0  0  0  0  0
  5  6  2  0  0  0  0
  5  7  1  0  0  0  0
  2  3  1  0  0  0  0
  2  4  1  0  0  0  0
  2  5  1  0  0  0  0
  1  2  1  0  0  0  0
 25 26  2  0  0  0  0
 25 27  1  0  0  0  0
 23 24  1  0  0  0  0
 21 22  1  0  0  0  0
 21 23  2  0  0  0  0
 19 20  1  0  0  0  0
 19 21  1  0  0  0  0
 17 18  1  0  0  0  0
 17 19  2  0  0  0  0
 15 16  1  0  0  0  0
 15 17  1  0  0  0  0
 14 15  2  0  0  0  0
 14 23  1  0  0  0  0
 11 12  1  0  0  0  0
 11 13  1  0  0  0  0
 11 14  1  0  0  0  0
  9 10  1  0  0  0  0
  9 11  1  0  0  0  0
  9 25  1  0  0  0  0
  7  8  1  0  0  0  0
  7  9  1  0  0  0  0
 29 30  1  0  0  0  0
 29 31  1  0  0  0  0
 29 32  1  0  0  0  0
 27 28  1  0  0  0  0
 27 29  1  0  0  0  0
M  END
$$$$
default_name
  -OEChem-02102213163D

 32 32  0     1  0  0  0  0  0999 V2000
   -3.8405   -3.7518    1.6252 H   0  0  0  0  0  0  0  0  0  0  0  0
   -3.7965   -2.8768    0.9782 C   0  0  0  0  0  0  0  0  0  0  0  0
   -4.5465   -2.1527    1.2902 H   0  0  0  0  0  0  0  0  0  0  0  0
   -3.9745   -3.1748   -0.0538 H   0  0  0  0  0  0  0  0  0  0  0  0
   -2.4245   -2.2537    1.0882 C   0  0  0  0  0  0  0  0  0  0  0  0
   -1.5805   -2.7478    1.8242 O   0  0  0  0  0  0  0  0  0  0  0  0
   -2.2045   -1.1637    0.3562 N   0  0  0  0  0  0  0  0  0  0  0  0
   -2.9595   -0.7907   -0.2008 H   0  0  0  0  0  0  0  0  0  0  0  0
   -0.9485   -0.4087    0.3482 C   0  0  1  0  0  0  0  0  0  0  0  0
   -0.1408   -1.0795    0.0507 H   0  0  0  0  0  0  0  0  0  0  0  0
   -1.0432    0.7243   -0.6879 C   0  0  0  0  0  0  0  0  0  0  0  0
   -0.9647    0.2977   -1.6889 H   0  0  0  0  0  0  0  0  0  0  0  0
   -2.0242    1.1952   -0.6086 H   0  0  0  0  0  0  0  0  0  0  0  0
    0.0334    1.7828   -0.5424 C   0  0  0  0  0  0  0  0  0  0  0  0
    0.7193    2.2630   -1.6741 C   0  0  0  0  0  0  0  0  0  0  0  0
    0.4978    1.8626   -2.6534 H   0  0  0  0  0  0  0  0  0  0  0  0
    1.6876    3.2745   -1.5362 C   0  0  0  0  0  0  0  0  0  0  0  0
    2.2149    3.6400   -2.4062 H   0  0  0  0  0  0  0  0  0  0  0  0
    1.9705    3.8087   -0.2676 C   0  0  0  0  0  0  0  0  0  0  0  0
    2.7162    4.5842   -0.1613 H   0  0  0  0  0  0  0  0  0  0  0  0
    1.2881    3.3301    0.8656 C   0  0  0  0  0  0  0  0  0  0  0  0
    1.5093    3.7368    1.8415 H   0  0  0  0  0  0  0  0  0  0  0  0
    0.3227    2.3169    0.7278 C   0  0  0  0  0  0  0  0  0  0  0  0
   -0.1992    1.9472    1.6009 H   0  0  0  0  0  0  0  0  0  0  0  0
   -0.6196    0.1253    1.7539 C   0  0  0  0  0  0  0  0  0  0  0  0
    0.5216    0.0194    2.2054 O   0  0  0  0  0  0  0  0  0  0  0  0
   -1.6152    0.6924    2.4469 N   0  0  0  0  0  0  0  0  0  0  0  0
   -2.5345    0.6914    2.0318 H   0  0  0  0  0  0  0  0  0  0  0  0
   -1.4720    1.2390    3.7941 C   0  0  0  0  0  0  0  0  0  0  0  0
   -0.6345    1.9391    3.8219 H   0  0  0  0  0  0  0  0  0  0  0  0
   -2.3844    1.7580    4.0892 H   0  0  0  0  0  0  0  0  0  0  0  0
   -1.2733    0.4298    4.4995 H   0  0  0  0  0  0  0  0  0  0  0  0
  5  6  2  0  0  0  0
  5  7  1  0  0  0  0
  2  3  1  0  0  0  0
  2  4  1  0  0  0  0
  2  5  1  0  0  0  0
  1  2  1  0  0  0  0
 25 26  2  0  0  0  0
 25 27  1  0  0  0  0
 23 24  1  0  0  0  0
 21 22  1  0  0  0  0
 21 23  2  0  0  0  0
 19 20  1  0  0  0  0
 19 21  1  0  0  0  0
 17 18  1  0  0  0  0
 17 19  2  0  0  0  0
 15 16  1  0  0  0  0
 15 17  1  0  0  0  0
 14 15  2  0  0  0  0
 14 23  1  0  0  0  0
 11 12  1  0  0  0  0
 11 13  1  0  0  0  0
 11 14  1  0  0  0  0
  9 10  1  0  0  0  0
  9 11  1  0  0  0  0
  9 25  1  0  0  0  0
  7  8  1  0  0  0  0
  7  9  1  0  0  0  0
 29 30  1  0  0  0  0
 29 31  1  0  0  0  0
 29 32  1  0  0  0  0
 27 28  1  0  0  0  0
 27 29  1  0  0  0  0
M  END
$$$$
default_name
  -OEChem-02102213163D

 32 32  0     1  0  0  0  0  0999 V2000
   -3.8405   -3.7518    1.6252 H   0  0  0  0  0  0  0  0  0  0  0  0
   -3.7965   -2.8768    0.9782 C   0  0  0  0  0  0  0  0  0  0  0  0
   -4.5465   -2.1527    1.2902 H   0  0  0  0  0  0  0  0  0  0  0  0
   -3.9745   -3.1748   -0.0538 H   0  0  0  0  0  0  0  0  0  0  0  0
   -2.4245   -2.2537    1.0882 C   0  0  0  0  0  0  0  0  0  0  0  0
   -1.5805   -2.7478    1.8242 O   0  0  0  0  0  0  0  0  0  0  0  0
   -2.2045   -1.1637    0.3562 N   0  0  0  0  0  0  0  0  0  0  0  0
   -2.9595   -0.7907   -0.2008 H   0  0  0  0  0  0  0  0  0  0  0  0
   -0.9485   -0.4087    0.3482 C   0  0  1  0  0  0  0  0  0  0  0  0
   -0.1408   -1.0795    0.0507 H   0  0  0  0  0  0  0  0  0  0  0  0
   -1.0432    0.7243   -0.6879 C   0  0  0  0  0  0  0  0  0  0  0  0
   -0.9647    0.2977   -1.6889 H   0  0  0  0  0  0  0  0  0  0  0  0
   -2.0242    1.1952   -0.6086 H   0  0  0  0  0  0  0  0  0  0  0  0
    0.0334    1.7828   -0.5424 C   0  0  0  0  0  0  0  0  0  0  0  0
    0.4968    2.4886   -1.6689 C   0  0  0  0  0  0  0  0  0  0  0  0
    0.1031    2.2635   -2.6501 H   0  0  0  0  0  0  0  0  0  0  0  0
    1.4660    3.4977   -1.5201 C   0  0  0  0  0  0  0  0  0  0  0  0
    1.8223    4.0367   -2.3868 H   0  0  0  0  0  0  0  0  0  0  0  0
    1.9719    3.8043   -0.2455 C   0  0  0  0  0  0  0  0  0  0  0  0
    2.7182    4.5780   -0.1315 H   0  0  0  0  0  0  0  0  0  0  0  0
    1.5121    3.0999    0.8821 C   0  0  0  0  0  0  0  0  0  0  0  0
    1.9049    3.3317    1.8613 H   0  0  0  0  0  0  0  0  0  0  0  0
    0.5460    2.0892    0.7327 C   0  0  0  0  0  0  0  0  0  0  0  0
    0.1955    1.5458    1.6006 H   0  0  0  0  0  0  0  0  0  0  0  0
   -0.6196    0.1253    1.7539 C   0  0  0  0  0  0  0  0  0  0  0  0
    0.5216    0.0194    2.2054 O   0  0  0  0  0  0  0  0  0  0  0  0
   -1.6152    0.6924    2.4469 N   0  0  0  0  0  0  0  0  0  0  0  0
   -2.5345    0.6914    2.0318 H   0  0  0  0  0  0  0  0  0  0  0  0
   -1.4720    1.2390    3.7941 C   0  0  0  0  0  0  0  0  0  0  0  0
   -0.6345    1.9391    3.8219 H   0  0  0  0  0  0  0  0  0  0  0  0
   -2.3844    1.7580    4.0892 H   0  0  0  0  0  0  0  0  0  0  0  0
   -1.2733    0.4298    4.4995 H   0  0  0  0  0  0  0  0  0  0  0  0
  5  6  2  0  0  0  0
  5  7  1  0  0  0  0
  2  3  1  0  0  0  0
  2  4  1  0  0  0  0
  2  5  1  0  0  0  0
  1  2  1  0  0  0  0
 25 26  2  0  0  0  0
 25 27  1  0  0  0  0
 23 24  1  0  0  0  0
 21 22  1  0  0  0  0
 21 23  2  0  0  0  0
 19 20  1  0  0  0  0
 19 21  1  0  0  0  0
 17 18  1  0  0  0  0
 17 19  2  0  0  0  0
 15 16  1  0  0  0  0
 15 17  1  0  0  0  0
 14 15  2  0  0  0  0
 14 23  1  0  0  0  0
 11 12  1  0  0  0  0
 11 13  1  0  0  0  0
 11 14  1  0  0  0  0
  9 10  1  0  0  0  0
  9 11  1  0  0  0  0
  9 25  1  0  0  0  0
  7  8  1  0  0  0  0
  7  9  1  0  0  0  0
 29 30  1  0  0  0  0
 29 31  1  0  0  0  0
 29 32  1  0  0  0  0
 27 28  1  0  0  0  0
 27 29  1  0  0  0  0
M  END
$$$$
default_name
  -OEChem-02102213163D

 32 32  0     1  0  0  0  0  0999 V2000
   -3.8405   -3.7518    1.6252 H   0  0  0  0  0  0  0  0  0  0  0  0
   -3.7965   -2.8768    0.9782 C   0  0  0  0  0  0  0  0  0  0  0  0
   -4.5465   -2.1527    1.2902 H   0  0  0  0  0  0  0  0  0  0  0  0
   -3.9745   -3.1748   -0.0538 H   0  0  0  0  0  0  0  0  0  0  0  0
   -2.4245   -2.2537    1.0882 C   0  0  0  0  0  0  0  0  0  0  0  0
   -1.5805   -2.7478    1.8242 O   0  0  0  0  0  0  0  0  0  0  0  0
   -2.2045   -1.1637    0.3562 N   0  0  0  0  0  0  0  0  0  0  0  0
   -2.9595   -0.7907   -0.2008 H   0  0  0  0  0  0  0  0  0  0  0  0
   -0.9485   -0.4087    0.3482 C   0  0  1  0  0  0  0  0  0  0  0  0
   -0.1408   -1.0795    0.0507 H   0  0  0  0  0  0  0  0  0  0  0  0
   -1.0432    0.7243   -0.6879 C   0  0  0  0  0  0  0  0  0  0  0  0
   -0.9647    0.2977   -1.6889 H   0  0  0  0  0  0  0  0  0  0  0  0
   -2.0242    1.1952   -0.6086 H   0  0  0  0  0  0  0  0  0  0  0  0
    0.0334    1.7828   -0.5424 C   0  0  0  0  0  0  0  0  0  0  0  0
    0.2773    2.6999   -1.5822 C   0  0  0  0  0  0  0  0  0  0  0  0
   -0.2875    2.6404   -2.5019 H   0  0  0  0  0  0  0  0  0  0  0  0
    1.2492    3.7049   -1.4236 C   0  0  0  0  0  0  0  0  0  0  0  0
    1.4367    4.4065   -2.2243 H   0  0  0  0  0  0  0  0  0  0  0  0
    1.9773    3.7959   -0.2252 C   0  0  0  0  0  0  0  0  0  0  0  0
    2.7257    4.5666   -0.1042 H   0  0  0  0  0  0  0  0  0  0  0  0
    1.7372    2.8802    0.8154 C   0  0  0  0  0  0  0  0  0  0  0  0
    2.3006    2.9466    1.7345 H   0  0  0  0  0  0  0  0  0  0  0  0
    0.7681    1.8739    0.6553 C   0  0  0  0  0  0  0  0  0  0  0  0
    0.5867    1.1679    1.4552 H   0  0  0  0  0  0  0  0  0  0  0  0
   -0.6196    0.1253    1.7539 C   0  0  0  0  0  0  0  0  0  0  0  0
    0.5216    0.0194    2.2054 O   0  0  0  0  0  0  0  0  0  0  0  0
   -1.6152    0.6924    2.4469 N   0  0  0  0  0  0  0  0  0  0  0  0
   -2.5345    0.6914    2.0318 H   0  0  0  0  0  0  0  0  0  0  0  0
   -1.4720    1.2390    3.7941 C   0  0  0  0  0  0  0  0  0  0  0  0
   -0.6345    1.9391    3.8219 H   0  0  0  0  0  0  0  0  0  0  0  0
   -2.3844    1.7580    4.0892 H   0  0  0  0  0  0  0  0  0  0  0  0
   -1.2733    0.4298    4.4995 H   0  0  0  0  0  0  0  0  0  0  0  0
  5  6  2  0  0  0  0
  5  7  1  0  0  0  0
  2  3  1  0  0  0  0
  2  4  1  0  0  0  0
  2  5  1  0  0  0  0
  1  2  1  0  0  0  0
 25 26  2  0  0  0  0
 25 27  1  0  0  0  0
 23 24  1  0  0  0  0
 21 22  1  0  0  0  0
 21 23  2  0  0  0  0
 19 20  1  0  0  0  0
 19 21  1  0  0  0  0
 17 18  1  0  0  0  0
 17 19  2  0  0  0  0
 15 16  1  0  0  0  0
 15 17  1  0  0  0  0
 14 15  2  0  0  0  0
 14 23  1  0  0  0  0
 11 12  1  0  0  0  0
 11 13  1  0  0  0  0
 11 14  1  0  0  0  0
  9 10  1  0  0  0  0
  9 11  1  0  0  0  0
  9 25  1  0  0  0  0
  7  8  1  0  0  0  0
  7  9  1  0  0  0  0
 29 30  1  0  0  0  0
 29 31  1  0  0  0  0
 29 32  1  0  0  0  0
 27 28  1  0  0  0  0
 27 29  1  0  0  0  0
M  END
$$$$
