default_name
  -OEChem-02102213163D

 32 32  0     1  0  0  0  0  0999 V2000
   -3.8405   -3.7518    1.6252 H   0  0  0  0  0  0  0  0  0  0  0  0
   -3.7965   -2.8768    0.9782 C   0  0  0  0  0  0  0  0  0  0  0  0
   -4.5465   -2.1527    1.2902 H   0  0  0  0  0  0  0  0  0  0  0  0
   -3.9745   -3.1748   -0.0538 H   0  0  0  0  0  0  0  0  0  0  0  0
   -2.4245   -2.2537    1.0882 C   0  0  0  0  0  0  0  0  0  0  0  0
   -1.5805   -2.7478    1.8242 O   0  0  0  0  0  0  0  0  0  0  0  0
   -2.2045   -1.1637    0.3562 N   0  0  0  0  0  0  0  0  0  0  0  0
   -2.9595   -0.7907   -0.2008 H   0  0  0  0  0  0  0  0  0  0  0  0
   -0.9485   -0.4087    0.3482 C   0  0  1  0  0  0  0  0  0  0  0  0
   -0.3666   -0.6914    1.2269 H   0  0  0  0  0  0  0  0  0  0  0  0
   -0.1405   -0.7797   -0.9072 C   0  0  0  0  0  0  0  0  0  0  0  0
    0.0601   -1.8520   -0.8964 H   0  0  0  0  0  0  0  0  0  0  0  0
   -0.7437   -0.5682   -1.7914 H   0  0  0  0  0  0  0  0  0  0  0  0
    1.1867   -0.0543   -1.0213 C   0  0  0  0  0  0  0  0  0  0  0  0
    2.0370   -0.2910   -2.1181 C   0  0  0  0  0  0  0  0  0  0  0  0
    1.7583   -1.0100   -2.8755 H   0  0  0  0  0  0  0  0  0  0  0  0
    3.2475    0.4161   -2.2383 C   0  0  0  0  0  0  0  0  0  0  0  0
    3.9001    0.2310   -3.0799 H   0  0  0  0  0  0  0  0  0  0  0  0
    3.6090    1.3619   -1.2639 C   0  0  0  0  0  0  0  0  0  0  0  0
    4.5402    1.9034   -1.3551 H   0  0  0  0  0  0  0  0  0  0  0  0
    2.7624    1.5998   -0.1659 C   0  0  0  0  0  0  0  0  0  0  0  0
    3.0428    2.3228    0.5860 H   0  0  0  0  0  0  0  0  0  0  0  0
    1.5543    0.8905   -0.0443 C   0  0  0  0  0  0  0  0  0  0  0  0
    0.9055    1.0721    0.8027 H   0  0  0  0  0  0  0  0  0  0  0  0
   -1.2168    1.1047    0.4313 C   0  0  0  0  0  0  0  0  0  0  0  0
   -2.0890    1.6186   -0.2704 O   0  0  0  0  0  0  0  0  0  0  0  0
   -0.4674    1.8182    1.2813 N   0  0  0  0  0  0  0  0  0  0  0  0
    0.2640    1.3348    1.7800 H   0  0  0  0  0  0  0  0  0  0  0  0
   -0.5889    3.2615    1.4722 C   0  0  0  0  0  0  0  0  0  0  0  0
   -1.6291    3.5206    1.6805 H   0  0  0  0  0  0  0  0  0  0  0  0
    0.0359    3.5855    2.3049 H   0  0  0  0  0  0  0  0  0  0  0  0
   -0.2760    3.7797    0.5637 H   0  0  0  0  0  0  0  0  0  0  0  0
  5  6  2  0  0  0  0
  5  7  1  0  0  0  0
  2  3  1  0  0  0  0
  2  4  1  0  0  0  0
  2  5  1  0  0  0  0
  1  2  1  0  0  0  0
 25 26  2  0  0  0  0
 25 27  1  0  0  0  0
 23 24  1  0  0  0  0
 21 22  1  0  0  0  0
 21 23  2  0  0  0  0
 19 20  1  0  0  0  0
 19 21  1  0  0  0  0
 17 18  1  0  0  0  0
 17 19  2  0  0  0  0
 15 16  1  0  0  0  0
 15 17  1  0  0  0  0
 14 15  2  0  0  0  0
 14 23  1  0  0  0  0
 11 12  1  0  0  0  0
 11 13  1  0  0  0  0
 11 14  1  0  0  0  0
  9 10  1  0  0  0  0
  9 11  1  0  0  0  0
  9 25  1  0  0  0  0
  7  8  1  0  0  0  0
  7  9  1  0  0  0  0
 29 30  1  0  0  0  0
 29 31  1  0  0  0  0
 29 32  1  0  0  0  0
 27 28  1  0  0  0  0
 27 29  1  0  0  0  0
M  END
$$$$
default_name
  -OEChem-02102213163D

 32 32  0     1  0  0  0  0  0999 V2000
   -3.8405   -3.7518    1.6252 H   0  0  0  0  0  0  0  0  0  0  0  0
   -3.7965   -2.8768    0.9782 C   0  0  0  0  0  0  0  0  0  0  0  0
   -4.5465   -2.1527    1.2902 H   0  0  0  0  0  0  0  0  0  0  0  0
   -3.9745   -3.1748   -0.0538 H   0  0  0  0  0  0  0  0  0  0  0  0
   -2.4245   -2.2537    1.0882 C   0  0  0  0  0  0  0  0  0  0  0  0
   -1.5805   -2.7478    1.8242 O   0  0  0  0  0  0  0  0  0  0  0  0
   -2.2045   -1.1637    0.3562 N   0  0  0  0  0  0  0  0  0  0  0  0
   -2.9595   -0.7907   -0.2008 H   0  0  0  0  0  0  0  0  0  0  0  0
   -0.9485   -0.4087    0.3482 C   0  0  1  0  0  0  0  0  0  0  0  0
   -0.3666   -0.6914    1.2269 H   0  0  0  0  0  0  0  0  0  0  0  0
   -0.1405   -0.7797   -0.9072 C   0  0  0  0  0  0  0  0  0  0  0  0
    0.0601   -1.8520   -0.8964 H   0  0  0  0  0  0  0  0  0  0  0  0
   -0.7437   -0.5682   -1.7914 H   0  0  0  0  0  0  0  0  0  0  0  0
    1.1867   -0.0543   -1.0213 C   0  0  0  0  0  0  0  0  0  0  0  0
    1.8889   -0.0395   -2.2414 C   0  0  0  0  0  0  0  0  0  0  0  0
    1.4962   -0.5656   -3.1000 H   0  0  0  0  0  0  0  0  0  0  0  0
    3.0990    0.6701   -2.3508 C   0  0  0  0  0  0  0  0  0  0  0  0
    3.6378    0.6780   -3.2879 H   0  0  0  0  0  0  0  0  0  0  0  0
    3.6080    1.3673   -1.2420 C   0  0  0  0  0  0  0  0  0  0  0  0
    4.5389    1.9105   -1.3254 H   0  0  0  0  0  0  0  0  0  0  0  0
    2.9096    1.3533   -0.0209 C   0  0  0  0  0  0  0  0  0  0  0  0
    3.3035    1.8847    0.8331 H   0  0  0  0  0  0  0  0  0  0  0  0
    1.7020    0.6413    0.0891 C   0  0  0  0  0  0  0  0  0  0  0  0
    1.1674    0.6286    1.0300 H   0  0  0  0  0  0  0  0  0  0  0  0
   -1.2168    1.1047    0.4313 C   0  0  0  0  0  0  0  0  0  0  0  0
   -2.0890    1.6186   -0.2704 O   0  0  0  0  0  0  0  0  0  0  0  0
   -0.4674    1.8182    1.2813 N   0  0  0  0  0  0  0  0  0  0  0  0
    0.2640    1.3348    1.7800 H   0  0  0  0  0  0  0  0  0  0  0  0
   -0.5889    3.2615    1.4722 C   0  0  0  0  0  0  0  0  0  0  0  0
   -1.6291    3.5206    1.6805 H   0  0  0  0  0  0  0  0  0  0  0  0
    0.0359    3.5855    2.3049 H   0  0  0  0  0  0  0  0  0  0  0  0
   -0.2760    3.7797    0.5637 H   0  0  0  0  0  0  0  0  0  0  0  0
  5  6  2  0  0  0  0
  5  7  1  0  0  0  0
  2  3  1  0  0  0  0
  2  4  1  0  0  0  0
  2  5  1  0  0  0  0
  1  2  1  0  0  0  0
 25 26  2  0  0  0  0
 25 27  1  0  0  0  0
 23 24  1  0  0  0  0
 21 22  1  0  0  0  0
 21 23  2  0  0  0  0
 19 20  1  0  0  0  0
 19 21  1  0  0  0  0
 17 18  1  0  0  0  0
 17 19  2  0  0  0  0
 15 16  1  0  0  0  0
 15 17  1  0  0  0  0
 14 15  2  0  0  0  0
 14 23  1  0  0  0  0
 11 12  1  0  0  0  0
 11 13  1  0  0  0  0
 11 14  1  0  0  0  0
  9 10  1  0  0  0  0
  9 11  1  0  0  0  0
  9 25  1  0  0  0  0
  7  8  1  0  0  0  0
  7  9  1  0  0  0  0
 29 30  1  0  0  0  0
 29 31  1  0  0  0  0
 29 32  1  0  0  0  0
 27 28  1  0  0  0  0
 27 29  1  0  0  0  0
M  END
$$$$
default_name
  -OEChem-02102213163D

 32 32  0     1  0  0  0  0  0999 V2000
   -3.8405   -3.7518    1.6252 H   0  0  0  0  0  0  0  0  0  0  0  0
   -3.7965   -2.8768    0.9782 C   0  0  0  0  0  0  0  0  0  0  0  0
   -4.5465   -2.1527    1.2902 H   0  0  0  0  0  0  0  0  0  0  0  0
   -3.9745   -3.1748   -0.0538 H   0  0  0  0  0  0  0  0  0  0  0  0
   -2.4245   -2.2537    1.0882 C   0  0  0  0  0  0  0  0  0  0  0  0
   -1.5805   -2.7478    1.8242 O   0  0  0  0  0  0  0  0  0  0  0  0
   -2.2045   -1.1637    0.3562 N   0  0  0  0  0  0  0  0  0  0  0  0
   -2.9595   -0.7907   -0.2008 H   0  0  0  0  0  0  0  0  0  0  0  0
   -0.9485   -0.4087    0.3482 C   0  0  1  0  0  0  0  0  0  0  0  0
   -0.3666   -0.6914    1.2269 H   0  0  0  0  0  0  0  0  0  0  0  0
   -0.1405   -0.7797   -0.9072 C   0  0  0  0  0  0  0  0  0  0  0  0
    0.0601   -1.8520   -0.8964 H   0  0  0  0  0  0  0  0  0  0  0  0
   -0.7437   -0.5682   -1.7914 H   0  0  0  0  0  0  0  0  0  0  0  0
    1.1867   -0.0543   -1.0213 C   0  0  0  0  0  0  0  0  0  0  0  0
    1.7355    0.2343   -2.2852 C   0  0  0  0  0  0  0  0  0  0  0  0
    1.2238   -0.0805   -3.1838 H   0  0  0  0  0  0  0  0  0  0  0  0
    2.9466    0.9438   -2.3836 C   0  0  0  0  0  0  0  0  0  0  0  0
    3.3675    1.1621   -3.3550 H   0  0  0  0  0  0  0  0  0  0  0  0
    3.6098    1.3675   -1.2194 C   0  0  0  0  0  0  0  0  0  0  0  0
    4.5414    1.9106   -1.2950 H   0  0  0  0  0  0  0  0  0  0  0  0
    3.0649    1.0796    0.0452 C   0  0  0  0  0  0  0  0  0  0  0  0
    3.5773    1.4004    0.9402 H   0  0  0  0  0  0  0  0  0  0  0  0
    1.8563    0.3675    0.1432 C   0  0  0  0  0  0  0  0  0  0  0  0
    1.4399    0.1437    1.1168 H   0  0  0  0  0  0  0  0  0  0  0  0
   -1.2168    1.1047    0.4313 C   0  0  0  0  0  0  0  0  0  0  0  0
   -2.0890    1.6186   -0.2704 O   0  0  0  0  0  0  0  0  0  0  0  0
   -0.4674    1.8182    1.2813 N   0  0  0  0  0  0  0  0  0  0  0  0
    0.2640    1.3348    1.7800 H   0  0  0  0  0  0  0  0  0  0  0  0
   -0.5889    3.2615    1.4722 C   0  0  0  0  0  0  0  0  0  0  0  0
   -1.6291    3.5206    1.6805 H   0  0  0  0  0  0  0  0  0  0  0  0
    0.0359    3.5855    2.3049 H   0  0  0  0  0  0  0  0  0  0  0  0
   -0.2760    3.7797    0.5637 H   0  0  0  0  0  0  0  0  0  0  0  0
  5  6  2  0  0  0  0
  5  7  1  0  0  0  0
  2  3  1  0  0  0  0
  2  4  1  0  0  0  0
  2  5  1  0  0  0  0
  1  2  1  0  0  0  0
 25 26  2  0  0  0  0
 25 27  1  0  0  0  0
 23 24  1  0  0  0  0
 21 22  1  0  0  0  0
 21 23  2  0  0  0  0
 19 20  1  0  0  0  0
 19 21  1  0  0  0  0
 17 18  1  0  0  0  0
 17 19  2  0  0  0  0
 15 16  1  0  0  0  0
 15 17  1  0  0  0  0
 14 15  2  0  0  0  0
 14 23  1  0  0  0  0
 11 12  1  0  0  0  0
 11 13  1  0  0  0  0
 11 14  1  0  0  0  0
  9 10  1  0  0  0  0
  9 11  1  0  0  0  0
  9 25  1  0  0  0  0
  7  8  1  0  0  0  0
  7  9  1  0  0  0  0
 29 30  1  0  0  0  0
 29 31  1  0  0  0  0
 29 32  1  0  0  0  0
 27 28  1  0  0  0  0
 27 29  1  0  0  0  0
M  END
$$$$
default_name
  -OEChem-02102213163D

 32 32  0     1  0  0  0  0  0999 V2000
   -3.8405   -3.7518    1.6252 H   0  0  0  0  0  0  0  0  0  0  0  0
   -3.7965   -2.8768    0.9782 C   0  0  0  0  0  0  0  0  0  0  0  0
   -4.5465   -2.1527    1.2902 H   0  0  0  0  0  0  0  0  0  0  0  0
   -3.9745   -3.1748   -0.0538 H   0  0  0  0  0  0  0  0  0  0  0  0
   -2.4245   -2.2537    1.0882 C   0  0  0  0  0  0  0  0  0  0  0  0
   -1.5805   -2.7478    1.8242 O   0  0  0  0  0  0  0  0  0  0  0  0
   -2.2045   -1.1637    0.3562 N   0  0  0  0  0  0  0  0  0  0  0  0
   -2.9595   -0.7907   -0.2008 H   0  0  0  0  0  0  0  0  0  0  0  0
   -0.9485   -0.4087    0.3482 C   0  0  1  0  0  0  0  0  0  0  0  0
   -0.3666   -0.6914    1.2269 H   0  0  0  0  0  0  0  0  0  0  0  0
   -0.1405   -0.7797   -0.9072 C   0  0  0  0  0  0  0  0  0  0  0  0
    0.0601   -1.8520   -0.8964 H   0  0  0  0  0  0  0  0  0  0  0  0
   -0.7437   -0.5682   -1.7914 H   0  0  0  0  0  0  0  0  0  0  0  0
    1.1867   -0.0543   -1.0213 C   0  0  0  0  0  0  0  0  0  0  0  0
    1.5872    0.5116   -2.2466 C   0  0  0  0  0  0  0  0  0  0  0  0
    0.9598    0.4124   -3.1211 H   0  0  0  0  0  0  0  0  0  0  0  0
    2.8006    1.2186   -2.3344 C   0  0  0  0  0  0  0  0  0  0  0  0
    3.1075    1.6501   -3.2768 H   0  0  0  0  0  0  0  0  0  0  0  0
    3.6143    1.3627   -1.1978 C   0  0  0  0  0  0  0  0  0  0  0  0
    4.5476    1.9038   -1.2659 H   0  0  0  0  0  0  0  0  0  0  0  0
    3.2178    0.7971    0.0277 C   0  0  0  0  0  0  0  0  0  0  0  0
    3.8457    0.9031    0.9002 H   0  0  0  0  0  0  0  0  0  0  0  0
    2.0067    0.0878    0.1144 C   0  0  0  0  0  0  0  0  0  0  0  0
    1.7044   -0.3496    1.0570 H   0  0  0  0  0  0  0  0  0  0  0  0
   -1.2168    1.1047    0.4313 C   0  0  0  0  0  0  0  0  0  0  0  0
   -2.0890    1.6186   -0.2704 O   0  0  0  0  0  0  0  0  0  0  0  0
   -0.4674    1.8182    1.2813 N   0  0  0  0  0  0  0  0  0  0  0  0
    0.2640    1.3348    1.7800 H   0  0  0  0  0  0  0  0  0  0  0  0
   -0.5889    3.2615    1.4722 C   0  0  0  0  0  0  0  0  0  0  0  0
   -1.6291    3.5206    1.6805 H   0  0  0  0  0  0  0  0  0  0  0  0
    0.0359    3.5855    2.3049 H   0  0  0  0  0  0  0  0  0  0  0  0
   -0.2760    3.7797    0.5637 H   0  0  0  0  0  0  0  0  0  0  0  0
  5  6  2  0  0  0  0
  5  7  1  0  0  0  0
  2  3  1  0  0  0  0
  2  4  1  0  0  0  0
  2  5  1  0  0  0  0
  1  2  1  0  0  0  0
 25 26  2  0  0  0  0
 25 27  1  0  0  0  0
 23 24  1  0  0  0  0
 21 22  1  0  0  0  0
 21 23  2  0  0  0  0
 19 20  1  0  0  0  0
 19 21  1  0  0  0  0
 17 18  1  0  0  0  0
 17 19  2  0  0  0  0
 15 16  1  0  0  0  0
 15 17  1  0  0  0  0
 14 15  2  0  0  0  0
 14 23  1  0  0  0  0
 11 12  1  0  0  0  0
 11 13  1  0  0  0  0
 11 14  1  0  0  0  0
  9 10  1  0  0  0  0
  9 11  1  0  0  0  0
  9 25  1  0  0  0  0
  7  8  1  0  0  0  0
  7  9  1  0  0  0  0
 29 30  1  0  0  0  0
 29 31  1  0  0  0  0
 29 32  1  0  0  0  0
 27 28  1  0  0  0  0
 27 29  1  0  0  0  0
M  END
$$$$
default_name
  -OEChem-02102213163D

 32 32  0     1  0  0  0  0  0999 V2000
   -3.8405   -3.7518    1.6252 H   0  0  0  0  0  0  0  0  0  0  0  0
   -3.7965   -2.8768    0.9782 C   0  0  0  0  0  0  0  0  0  0  0  0
   -4.5465   -2.1527    1.2902 H   0  0  0  0  0  0  0  0  0  0  0  0
   -3.9745   -3.1748   -0.0538 H   0  0  0  0  0  0  0  0  0  0  0  0
   -2.4245   -2.2537    1.0882 C   0  0  0  0  0  0  0  0  0  0  0  0
   -1.5805   -2.7478    1.8242 O   0  0  0  0  0  0  0  0  0  0  0  0
   -2.2045   -1.1637    0.3562 N   0  0  0  0  0  0  0  0  0  0  0  0
   -2.9595   -0.7907   -0.2008 H   0  0  0  0  0  0  0  0  0  0  0  0
   -0.9485   -0.4087    0.3482 C   0  0  1  0  0  0  0  0  0  0  0  0
   -0.3666   -0.6914    1.2269 H   0  0  0  0  0  0  0  0  0  0  0  0
   -0.1405   -0.7797   -0.9072 C   0  0  0  0  0  0  0  0  0  0  0  0
    0.0601   -1.8520   -0.8964 H   0  0  0  0  0  0  0  0  0  0  0  0
   -0.7437   -0.5682   -1.7914 H   0  0  0  0  0  0  0  0  0  0  0  0
    1.1867   -0.0543   -1.0213 C   0  0  0  0  0  0  0  0  0  0  0  0
    1.4542    0.7736   -2.1280 C   0  0  0  0  0  0  0  0  0  0  0  0
    0.7222    0.8794   -2.9162 H   0  0  0  0  0  0  0  0  0  0  0  0
    2.6711    1.4757   -2.2066 C   0  0  0  0  0  0  0  0  0  0  0  0
    2.8755    2.1089   -3.0585 H   0  0  0  0  0  0  0  0  0  0  0  0
    3.6213    1.3530   -1.1786 C   0  0  0  0  0  0  0  0  0  0  0  0
    4.5571    1.8905   -1.2401 H   0  0  0  0  0  0  0  0  0  0  0  0
    3.3578    0.5253   -0.0720 C   0  0  0  0  0  0  0  0  0  0  0  0
    4.0903    0.4266    0.7156 H   0  0  0  0  0  0  0  0  0  0  0  0
    2.1430   -0.1788    0.0046 C   0  0  0  0  0  0  0  0  0  0  0  0
    1.9429   -0.8178    0.8549 H   0  0  0  0  0  0  0  0  0  0  0  0
   -1.2168    1.1047    0.4313 C   0  0  0  0  0  0  0  0  0  0  0  0
   -2.0890    1.6186   -0.2704 O   0  0  0  0  0  0  0  0  0  0  0  0
   -0.4674    1.8182    1.2813 N   0  0  0  0  0  0  0  0  0  0  0  0
    0.2640    1.3348    1.7800 H   0  0  0  0  0  0  0  0  0  0  0  0
   -0.5889    3.2615    1.4722 C   0  0  0  0  0  0  0  0  0  0  0  0
   -1.6291    3.5206    1.6805 H   0  0  0  0  0  0  0  0  0  0  0  0
    0.0359    3.5855    2.3049 H   0  0  0  0  0  0  0  0  0  0  0  0
   -0.2760    3.7797    0.5637 H   0  0  0  0  0  0  0  0  0  0  0  0
  5  6  2  0  0  0  0
  5  7  1  0  0  0  0
  2  3  1  0  0  0  0
  2  4  1  0  0  0  0
  2  5  1  0  0  0  0
  1  2  1  0  0  0  0
 25 26  2  0  0  0  0
 25 27  1  0  0  0  0
 23 24  1  0  0  0  0
 21 22  1  0  0  0  0
 21 23  2  0  0  0  0
 19 20  1  0  0  0  0
 19 21  1  0  0  0  0
 17 18  1  0  0  0  0
 17 19  2  0  0  0  0
 15 16  1  0  0  0  0
 15 17  1  0  0  0  0
 14 15  2  0  0  0  0
 14 23  1  0  0  0  0
 11 12  1  0  0  0  0
 11 13  1  0  0  0  0
 11 14  1  0  0  0  0
  9 10  1  0  0  0  0
  9 11  1  0  0  0  0
  9 25  1  0  0  0  0
  7  8  1  0  0  0  0
  7  9  1  0  0  0  0
 29 30  1  0  0  0  0
 29 31  1  0  0  0  0
 29 32  1  0  0  0  0
 27 28  1  0  0  0  0
 27 29  1  0  0  0  0
M  END
$$$$
default_name
  -OEChem-02102213163D

 32 32  0     1  0  0  0  0  0999 V2000
   -3.8405   -3.7518    1.6252 H   0  0  0  0  0  0  0  0  0  0  0  0
   -3.7965   -2.8768    0.9782 C   0  0  0  0  0  0  0  0  0  0  0  0
   -4.5465   -2.1527    1.2902 H   0  0  0  0  0  0  0  0  0  0  0  0
   -3.9745   -3.1748   -0.0538 H   0  0  0  0  0  0  0  0  0  0  0  0
   -2.4245   -2.2537    1.0882 C   0  0  0  0  0  0  0  0  0  0  0  0
   -1.5805   -2.7478    1.8242 O   0  0  0  0  0  0  0  0  0  0  0  0
   -2.2045   -1.1637    0.3562 N   0  0  0  0  0  0  0  0  0  0  0  0
   -2.9595   -0.7907   -0.2008 H   0  0  0  0  0  0  0  0  0  0  0  0
   -0.9485   -0.4087    0.3482 C   0  0  1  0  0  0  0  0  0  0  0  0
   -0.3666   -0.6914    1.2269 H   0  0  0  0  0  0  0  0  0  0  0  0
   -0.1405   -0.7797   -0.9072 C   0  0  0  0  0  0  0  0  0  0  0  0
    0.0601   -1.8520   -0.8964 H   0  0  0  0  0  0  0  0  0  0  0  0
   -0.7437   -0.5682   -1.7914 H   0  0  0  0  0  0  0  0  0  0  0  0
    1.1867   -0.0543   -1.0213 C   0  0  0  0  0  0  0  0  0  0  0  0
    1.3455    1.0025   -1.9378 C   0  0  0  0  0  0  0  0  0  0  0  0
    0.5271    1.2887   -2.5832 H   0  0  0  0  0  0  0  0  0  0  0  0
    2.5668    1.6977   -2.0089 C   0  0  0  0  0  0  0  0  0  0  0  0
    2.6874    2.5071   -2.7151 H   0  0  0  0  0  0  0  0  0  0  0  0
    3.6302    1.3391   -1.1631 C   0  0  0  0  0  0  0  0  0  0  0  0
    4.5692    1.8717   -1.2194 H   0  0  0  0  0  0  0  0  0  0  0  0
    3.4753    0.2826   -0.2472 C   0  0  0  0  0  0  0  0  0  0  0  0
    4.2944    0.0033    0.3992 H   0  0  0  0  0  0  0  0  0  0  0  0
    2.2558   -0.4141   -0.1787 C   0  0  0  0  0  0  0  0  0  0  0  0
    2.1391   -1.2289    0.5240 H   0  0  0  0  0  0  0  0  0  0  0  0
   -1.2168    1.1047    0.4313 C   0  0  0  0  0  0  0  0  0  0  0  0
   -2.0890    1.6186   -0.2704 O   0  0  0  0  0  0  0  0  0  0  0  0
   -0.4674    1.8182    1.2813 N   0  0  0  0  0  0  0  0  0  0  0  0
    0.2640    1.3348    1.7800 H   0  0  0  0  0  0  0  0  0  0  0  0
   -0.5889    3.2615    1.4722 C   0  0  0  0  0  0  0  0  0  0  0  0
   -1.6291    3.5206    1.6805 H   0  0  0  0  0  0  0  0  0  0  0  0
    0.0359    3.5855    2.3049 H   0  0  0  0  0  0  0  0  0  0  0  0
   -0.2760    3.7797    0.5637 H   0  0  0  0  0  0  0  0  0  0  0  0
  5  6  2  0  0  0  0
  5  7  1  0  0  0  0
  2  3  1  0  0  0  0
  2  4  1  0  0  0  0
  2  5  1  0  0  0  0
  1  2  1  0  0  0  0
 25 26  2  0  0  0  0
 25 27  1  0  0  0  0
 23 24  1  0  0  0  0
 21 22  1  0  0  0  0
 21 23  2  0  0  0  0
 19 20  1  0  0  0  0
 19 21  1  0  0  0  0
 17 18  1  0  0  0  0
 17 19  2  0  0  0  0
 15 16  1  0  0  0  0
 15 17  1  0  0  0  0
 14 15  2  0  0  0  0
 14 23  1  0  0  0  0
 11 12  1  0  0  0  0
 11 13  1  0  0  0  0
 11 14  1  0  0  0  0
  9 10  1  0  0  0  0
  9 11  1  0  0  0  0
  9 25  1  0  0  0  0
  7  8  1  0  0  0  0
  7  9  1  0  0  0  0
 29 30  1  0  0  0  0
 29 31  1  0  0  0  0
 29 32  1  0  0  0  0
 27 28  1  0  0  0  0
 27 29  1  0  0  0  0
M  END
$$$$
default_name
  -OEChem-02102213163D

 32 32  0     1  0  0  0  0  0999 V2000
   -3.8405   -3.7518    1.6252 H   0  0  0  0  0  0  0  0  0  0  0  0
   -3.7965   -2.8768    0.9782 C   0  0  0  0  0  0  0  0  0  0  0  0
   -4.5465   -2.1527    1.2902 H   0  0  0  0  0  0  0  0  0  0  0  0
   -3.9745   -3.1748   -0.0538 H   0  0  0  0  0  0  0  0  0  0  0  0
   -2.4245   -2.2537    1.0882 C   0  0  0  0  0  0  0  0  0  0  0  0
   -1.5805   -2.7478    1.8242 O   0  0  0  0  0  0  0  0  0  0  0  0
   -2.2045   -1.1637    0.3562 N   0  0  0  0  0  0  0  0  0  0  0  0
   -2.9595   -0.7907   -0.2008 H   0  0  0  0  0  0  0  0  0  0  0  0
   -0.9485   -0.4087    0.3482 C   0  0  1  0  0  0  0  0  0  0  0  0
   -0.3666   -0.6914    1.2269 H   0  0  0  0  0  0  0  0  0  0  0  0
   -0.1405   -0.7797   -0.9072 C   0  0  0  0  0  0  0  0  0  0  0  0
    0.0601   -1.8520   -0.8964 H   0  0  0  0  0  0  0  0  0  0  0  0
   -0.7437   -0.5682   -1.7914 H   0  0  0  0  0  0  0  0  0  0  0  0
    1.1867   -0.0543   -1.0213 C   0  0  0  0  0  0  0  0  0  0  0  0
    1.2685    1.1826   -1.6887 C   0  0  0  0  0  0  0  0  0  0  0  0
    0.3878    1.6125   -2.1446 H   0  0  0  0  0  0  0  0  0  0  0  0
    2.4948    1.8693   -1.7547 C   0  0  0  0  0  0  0  0  0  0  0  0
    2.5560    2.8176   -2.2699 H   0  0  0  0  0  0  0  0  0  0  0  0
    3.6404    1.3220   -1.1524 C   0  0  0  0  0  0  0  0  0  0  0  0
    4.5831    1.8485   -1.2051 H   0  0  0  0  0  0  0  0  0  0  0  0
    3.5625    0.0856   -0.4860 C   0  0  0  0  0  0  0  0  0  0  0  0
    4.4442   -0.3378   -0.0276 H   0  0  0  0  0  0  0  0  0  0  0  0
    2.3375   -0.6021   -0.4230 C   0  0  0  0  0  0  0  0  0  0  0  0
    2.2797   -1.5548    0.0871 H   0  0  0  0  0  0  0  0  0  0  0  0
   -1.2168    1.1047    0.4313 C   0  0  0  0  0  0  0  0  0  0  0  0
   -2.0890    1.6186   -0.2704 O   0  0  0  0  0  0  0  0  0  0  0  0
   -0.4674    1.8182    1.2813 N   0  0  0  0  0  0  0  0  0  0  0  0
    0.2640    1.3348    1.7800 H   0  0  0  0  0  0  0  0  0  0  0  0
   -0.5889    3.2615    1.4722 C   0  0  0  0  0  0  0  0  0  0  0  0
   -1.6291    3.5206    1.6805 H   0  0  0  0  0  0  0  0  0  0  0  0
    0.0359    3.5855    2.3049 H   0  0  0  0  0  0  0  0  0  0  0  0
   -0.2760    3.7797    0.5637 H   0  0  0  0  0  0  0  0  0  0  0  0
  5  6  2  0  0  0  0
  5  7  1  0  0  0  0
  2  3  1  0  0  0  0
  2  4  1  0  0  0  0
  2  5  1  0  0  0  0
  1  2  1  0  0  0  0
 25 26  2  0  0  0  0
 25 27  1  0  0  0  0
 23 24  1  0  0  0  0
 21 22  1  0  0  0  0
 21 23  2  0  0  0  0
 19 20  1  0  0  0  0
 19 21  1  0  0  0  0
 17 18  1  0  0  0  0
 17 19  2  0  0  0  0
 15 16  1  0  0  0  0
 15 17  1  0  0  0  0
 14 15  2  0  0  0  0
 14 23  1  0  0  0  0
 11 12  1  0  0  0  0
 11 13  1  0  0  0  0
 11 14  1  0  0  0  0
  9 10  1  0  0  0  0
  9 11  1  0  0  0  0
  9 25  1  0  0  0  0
  7  8  1  0  0  0  0
  7  9  1  0  0  0  0
 29 30  1  0  0  0  0
 29 31  1  0  0  0  0
 29 32  1  0  0  0  0
 27 28  1  0  0  0  0
 27 29  1  0  0  0  0
M  END
$$$$
default_name
  -OEChem-02102213163D

 32 32  0     1  0  0  0  0  0999 V2000
   -3.8405   -3.7518    1.6252 H   0  0  0  0  0  0  0  0  0  0  0  0
   -3.7965   -2.8768    0.9782 C   0  0  0  0  0  0  0  0  0  0  0  0
   -4.5465   -2.1527    1.2902 H   0  0  0  0  0  0  0  0  0  0  0  0
   -3.9745   -3.1748   -0.0538 H   0  0  0  0  0  0  0  0  0  0  0  0
   -2.4245   -2.2537    1.0882 C   0  0  0  0  0  0  0  0  0  0  0  0
   -1.5805   -2.7478    1.8242 O   0  0  0  0  0  0  0  0  0  0  0  0
   -2.2045   -1.1637    0.3562 N   0  0  0  0  0  0  0  0  0  0  0  0
   -2.9595   -0.7907   -0.2008 H   0  0  0  0  0  0  0  0  0  0  0  0
   -0.9485   -0.4087    0.3482 C   0  0  1  0  0  0  0  0  0  0  0  0
   -0.3666   -0.6914    1.2269 H   0  0  0  0  0  0  0  0  0  0  0  0
   -0.1405   -0.7797   -0.9072 C   0  0  0  0  0  0  0  0  0  0  0  0
    0.0601   -1.8520   -0.8964 H   0  0  0  0  0  0  0  0  0  0  0  0
   -0.7437   -0.5682   -1.7914 H   0  0  0  0  0  0  0  0  0  0  0  0
    1.1867   -0.0543   -1.0213 C   0  0  0  0  0  0  0  0  0  0  0  0
    1.2284    1.3016   -1.3978 C   0  0  0  0  0  0  0  0  0  0  0  0
    0.3139    1.8287   -1.6305 H   0  0  0  0  0  0  0  0  0  0  0  0
    2.4601    1.9789   -1.4614 C   0  0  0  0  0  0  0  0  0  0  0  0
    2.4902    3.0193   -1.7533 H   0  0  0  0  0  0  0  0  0  0  0  0
    3.6513    1.3029   -1.1471 C   0  0  0  0  0  0  0  0  0  0  0  0
    4.5978    1.8227   -1.1983 H   0  0  0  0  0  0  0  0  0  0  0  0
    3.6133   -0.0524   -0.7720 C   0  0  0  0  0  0  0  0  0  0  0  0
    4.5294   -0.5736   -0.5356 H   0  0  0  0  0  0  0  0  0  0  0  0
    2.3826   -0.7299   -0.7117 C   0  0  0  0  0  0  0  0  0  0  0  0
    2.3550   -1.7734   -0.4262 H   0  0  0  0  0  0  0  0  0  0  0  0
   -1.2168    1.1047    0.4313 C   0  0  0  0  0  0  0  0  0  0  0  0
   -2.0890    1.6186   -0.2704 O   0  0  0  0  0  0  0  0  0  0  0  0
   -0.4674    1.8182    1.2813 N   0  0  0  0  0  0  0  0  0  0  0  0
    0.2640    1.3348    1.7800 H   0  0  0  0  0  0  0  0  0  0  0  0
   -0.5889    3.2615    1.4722 C   0  0  0  0  0  0  0  0  0  0  0  0
   -1.6291    3.5206    1.6805 H   0  0  0  0  0  0  0  0  0  0  0  0
    0.0359    3.5855    2.3049 H   0  0  0  0  0  0  0  0  0  0  0  0
   -0.2760    3.7797    0.5637 H   0  0  0  0  0  0  0  0  0  0  0  0
  5  6  2  0  0  0  0
  5  7  1  0  0  0  0
  2  3  1  0  0  0  0
  2  4  1  0  0  0  0
  2  5  1  0  0  0  0
  1  2  1  0  0  0  0
 25 26  2  0  0  0  0
 25 27  1  0  0  0  0
 23 24  1  0  0  0  0
 21 22  1  0  0  0  0
 21 23  2  0  0  0  0
 19 20  1  0  0  0  0
 19 21  1  0  0  0  0
 17 18  1  0  0  0  0
 17 19  2  0  0  0  0
 15 16  1  0  0  0  0
 15 17  1  0  0  0  0
 14 15  2  0  0  0  0
 14 23  1  0  0  0  0
 11 12  1  0  0  0  0
 11 13  1  0  0  0  0
 11 14  1  0  0  0  0
  9 10  1  0  0  0  0
  9 11  1  0  0  0  0
  9 25  1  0  0  0  0
  7  8  1  0  0  0  0
  7  9  1  0  0  0  0
 29 30  1  0  0  0  0
 29 31  1  0  0  0  0
 29 32  1  0  0  0  0
 27 28  1  0  0  0  0
 27 29  1  0  0  0  0
M  END
$$$$
default_name
  -OEChem-02102213163D

 32 32  0     1  0  0  0  0  0999 V2000
   -3.8405   -3.7518    1.6252 H   0  0  0  0  0  0  0  0  0  0  0  0
   -3.7965   -2.8768    0.9782 C   0  0  0  0  0  0  0  0  0  0  0  0
   -4.5465   -2.1527    1.2902 H   0  0  0  0  0  0  0  0  0  0  0  0
   -3.9745   -3.1748   -0.0538 H   0  0  0  0  0  0  0  0  0  0  0  0
   -2.4245   -2.2537    1.0882 C   0  0  0  0  0  0  0  0  0  0  0  0
   -1.5805   -2.7478    1.8242 O   0  0  0  0  0  0  0  0  0  0  0  0
   -2.2045   -1.1637    0.3562 N   0  0  0  0  0  0  0  0  0  0  0  0
   -2.9595   -0.7907   -0.2008 H   0  0  0  0  0  0  0  0  0  0  0  0
   -0.9485   -0.4087    0.3482 C   0  0  1  0  0  0  0  0  0  0  0  0
   -0.3666   -0.6914    1.2269 H   0  0  0  0  0  0  0  0  0  0  0  0
   -0.1405   -0.7797   -0.9072 C   0  0  0  0  0  0  0  0  0  0  0  0
    0.0601   -1.8520   -0.8964 H   0  0  0  0  0  0  0  0  0  0  0  0
   -0.7437   -0.5682   -1.7914 H   0  0  0  0  0  0  0  0  0  0  0  0
    1.1867   -0.0543   -1.0213 C   0  0  0  0  0  0  0  0  0  0  0  0
    1.2281    1.3515   -1.0849 C   0  0  0  0  0  0  0  0  0  0  0  0
    0.3104    1.9224   -1.0757 H   0  0  0  0  0  0  0  0  0  0  0  0
    2.4651    2.0190   -1.1491 C   0  0  0  0  0  0  0  0  0  0  0  0
    2.4945    3.0984   -1.2004 H   0  0  0  0  0  0  0  0  0  0  0  0
    3.6621    1.2830   -1.1478 C   0  0  0  0  0  0  0  0  0  0  0  0
    4.6124    1.7959   -1.1994 H   0  0  0  0  0  0  0  0  0  0  0  0
    3.6243   -0.1219   -1.0858 C   0  0  0  0  0  0  0  0  0  0  0  0
    4.5442   -0.6880   -1.0903 H   0  0  0  0  0  0  0  0  0  0  0  0
    2.3879   -0.7889   -1.0251 C   0  0  0  0  0  0  0  0  0  0  0  0
    2.3600   -1.8699   -0.9808 H   0  0  0  0  0  0  0  0  0  0  0  0
   -1.2168    1.1047    0.4313 C   0  0  0  0  0  0  0  0  0  0  0  0
   -2.0890    1.6186   -0.2704 O   0  0  0  0  0  0  0  0  0  0  0  0
   -0.4674    1.8182    1.2813 N   0  0  0  0  0  0  0  0  0  0  0  0
    0.2640    1.3348    1.7800 H   0  0  0  0  0  0  0  0  0  0  0  0
   -0.5889    3.2615    1.4722 C   0  0  0  0  0  0  0  0  0  0  0  0
   -1.6291    3.5206    1.6805 H   0  0  0  0  0  0  0  0  0  0  0  0
    0.0359    3.5855    2.3049 H   0  0  0  0  0  0  0  0  0  0  0  0
   -0.2760    3.7797    0.5637 H   0  0  0  0  0  0  0  0  0  0  0  0
  5  6  2  0  0  0  0
  5  7  1  0  0  0  0
  2  3  1  0  0  0  0
  2  4  1  0  0  0  0
  2  5  1  0  0  0  0
  1  2  1  0  0  0  0
 25 26  2  0  0  0  0
 25 27  1  0  0  0  0
 23 24  1  0  0  0  0
 21 22  1  0  0  0  0
 21 23  2  0  0  0  0
 19 20  1  0  0  0  0
 19 21  1  0  0  0  0
 17 18  1  0  0  0  0
 17 19  2  0  0  0  0
 15 16  1  0  0  0  0
 15 17  1  0  0  0  0
 14 15  2  0  0  0  0
 14 23  1  0  0  0  0
 11 12  1  0  0  0  0
 11 13  1  0  0  0  0
 11 14  1  0  0  0  0
  9 10  1  0  0  0  0
  9 11  1  0  0  0  0
  9 25  1  0  0  0  0
  7  8  1  0  0  0  0
  7  9  1  0  0  0  0
 29 30  1  0  0  0  0
 29 31  1  0  0  0  0
 29 32  1  0  0  0  0
 27 28  1  0  0  0  0
 27 29  1  0  0  0  0
M  END
$$$$
default_name
  -OEChem-02102213163D

 32 32  0     1  0  0  0  0  0999 V2000
   -3.8405   -3.7518    1.6252 H   0  0  0  0  0  0  0  0  0  0  0  0
   -3.7965   -2.8768    0.9782 C   0  0  0  0  0  0  0  0  0  0  0  0
   -4.5465   -2.1527    1.2902 H   0  0  0  0  0  0  0  0  0  0  0  0
   -3.9745   -3.1748   -0.0538 H   0  0  0  0  0  0  0  0  0  0  0  0
   -2.4245   -2.2537    1.0882 C   0  0  0  0  0  0  0  0  0  0  0  0
   -1.5805   -2.7478    1.8242 O   0  0  0  0  0  0  0  0  0  0  0  0
   -2.2045   -1.1637    0.3562 N   0  0  0  0  0  0  0  0  0  0  0  0
   -2.9595   -0.7907   -0.2008 H   0  0  0  0  0  0  0  0  0  0  0  0
   -0.9485   -0.4087    0.3482 C   0  0  1  0  0  0  0  0  0  0  0  0
   -0.3666   -0.6914    1.2269 H   0  0  0  0  0  0  0  0  0  0  0  0
   -0.1405   -0.7797   -0.9072 C   0  0  0  0  0  0  0  0  0  0  0  0
    0.0601   -1.8520   -0.8964 H   0  0  0  0  0  0  0  0  0  0  0  0
   -0.7437   -0.5682   -1.7914 H   0  0  0  0  0  0  0  0  0  0  0  0
    1.1867   -0.0543   -1.0213 C   0  0  0  0  0  0  0  0  0  0  0  0
    1.2674    1.3288   -0.7713 C   0  0  0  0  0  0  0  0  0  0  0  0
    0.3774    1.8874   -0.5182 H   0  0  0  0  0  0  0  0  0  0  0  0
    2.5093    1.9870   -0.8388 C   0  0  0  0  0  0  0  0  0  0  0  0
    2.5686    3.0495   -0.6491 H   0  0  0  0  0  0  0  0  0  0  0  0
    3.6721    1.2638   -1.1542 C   0  0  0  0  0  0  0  0  0  0  0  0
    4.6258    1.7699   -1.2084 H   0  0  0  0  0  0  0  0  0  0  0  0
    3.5947   -0.1181   -1.4060 C   0  0  0  0  0  0  0  0  0  0  0  0
    4.4876   -0.6731   -1.6538 H   0  0  0  0  0  0  0  0  0  0  0  0
    2.3530   -0.7750   -1.3418 C   0  0  0  0  0  0  0  0  0  0  0  0
    2.2943   -1.8375   -1.5390 H   0  0  0  0  0  0  0  0  0  0  0  0
   -1.2168    1.1047    0.4313 C   0  0  0  0  0  0  0  0  0  0  0  0
   -2.0890    1.6186   -0.2704 O   0  0  0  0  0  0  0  0  0  0  0  0
   -0.4674    1.8182    1.2813 N   0  0  0  0  0  0  0  0  0  0  0  0
    0.2640    1.3348    1.7800 H   0  0  0  0  0  0  0  0  0  0  0  0
   -0.5889    3.2615    1.4722 C   0  0  0  0  0  0  0  0  0  0  0  0
   -1.6291    3.5206    1.6805 H   0  0  0  0  0  0  0  0  0  0  0  0
    0.0359    3.5855    2.3049 H   0  0  0  0  0  0  0  0  0  0  0  0
   -0.2760    3.7797    0.5637 H   0  0  0  0  0  0  0  0  0  0  0  0
  5  6  2  0  0  0  0
  5  7  1  0  0  0  0
  2  3  1  0  0  0  0
  2  4  1  0  0  0  0
  2  5  1  0  0  0  0
  1  2  1  0  0  0  0
 25 26  2  0  0  0  0
 25 27  1  0  0  0  0
 23 24  1  0  0  0  0
 21 22  1  0  0  0  0
 21 23  2  0  0  0  0
 19 20  1  0  0  0  0
 19 21  1  0  0  0  0
 17 18  1  0  0  0  0
 17 19  2  0  0  0  0
 15 16  1  0  0  0  0
 15 17  1  0  0  0  0
 14 15  2  0  0  0  0
 14 23  1  0  0  0  0
 11 12  1  0  0  0  0
 11 13  1  0  0  0  0
 11 14  1  0  0  0  0
  9 10  1  0  0  0  0
  9 11  1  0  0  0  0
  9 25  1  0  0  0  0
  7  8  1  0  0  0  0
  7  9  1  0  0  0  0
 29 30  1  0  0  0  0
 29 31  1  0  0  0  0
 29 32  1  0  0  0  0
 27 28  1  0  0  0  0
 27 29  1  0  0  0  0
M  END
$$$$
default_name
  -OEChem-02102213163D

 32 32  0     1  0  0  0  0  0999 V2000
   -3.8405   -3.7518    1.6252 H   0  0  0  0  0  0  0  0  0  0  0  0
   -3.7965   -2.8768    0.9782 C   0  0  0  0  0  0  0  0  0  0  0  0
   -4.5465   -2.1527    1.2902 H   0  0  0  0  0  0  0  0  0  0  0  0
   -3.9745   -3.1748   -0.0538 H   0  0  0  0  0  0  0  0  0  0  0  0
   -2.4245   -2.2537    1.0882 C   0  0  0  0  0  0  0  0  0  0  0  0
   -1.5805   -2.7478    1.8242 O   0  0  0  0  0  0  0  0  0  0  0  0
   -2.2045   -1.1637    0.3562 N   0  0  0  0  0  0  0  0  0  0  0  0
   -2.9595   -0.7907   -0.2008 H   0  0  0  0  0  0  0  0  0  0  0  0
   -0.9485   -0.4087    0.3482 C   0  0  1  0  0  0  0  0  0  0  0  0
   -0.3666   -0.6914    1.2269 H   0  0  0  0  0  0  0  0  0  0  0  0
   -0.1405   -0.7797   -0.9072 C   0  0  0  0  0  0  0  0  0  0  0  0
    0.0601   -1.8520   -0.8964 H   0  0  0  0  0  0  0  0  0  0  0  0
   -0.7437   -0.5682   -1.7914 H   0  0  0  0  0  0  0  0  0  0  0  0
    1.1867   -0.0543   -1.0213 C   0  0  0  0  0  0  0  0  0  0  0  0
    1.3438    1.2351   -0.4784 C   0  0  0  0  0  0  0  0  0  0  0  0
    0.5105    1.7261    0.0041 H   0  0  0  0  0  0  0  0  0  0  0  0
    2.5897    1.8849   -0.5519 C   0  0  0  0  0  0  0  0  0  0  0  0
    2.7075    2.8760   -0.1367 H   0  0  0  0  0  0  0  0  0  0  0  0
    3.6805    1.2465   -1.1660 C   0  0  0  0  0  0  0  0  0  0  0  0
    4.6371    1.7467   -1.2245 H   0  0  0  0  0  0  0  0  0  0  0  0
    3.5266   -0.0414   -1.7108 C   0  0  0  0  0  0  0  0  0  0  0  0
    4.3635   -0.5301   -2.1878 H   0  0  0  0  0  0  0  0  0  0  0  0
    2.2805   -0.6891   -1.6402 C   0  0  0  0  0  0  0  0  0  0  0  0
    2.1624   -1.6785   -2.0627 H   0  0  0  0  0  0  0  0  0  0  0  0
   -1.2168    1.1047    0.4313 C   0  0  0  0  0  0  0  0  0  0  0  0
   -2.0890    1.6186   -0.2704 O   0  0  0  0  0  0  0  0  0  0  0  0
   -0.4674    1.8182    1.2813 N   0  0  0  0  0  0  0  0  0  0  0  0
    0.2640    1.3348    1.7800 H   0  0  0  0  0  0  0  0  0  0  0  0
   -0.5889    3.2615    1.4722 C   0  0  0  0  0  0  0  0  0  0  0  0
   -1.6291    3.5206    1.6805 H   0  0  0  0  0  0  0  0  0  0  0  0
    0.0359    3.5855    2.3049 H   0  0  0  0  0  0  0  0  0  0  0  0
   -0.2760    3.7797    0.5637 H   0  0  0  0  0  0  0  0  0  0  0  0
  5  6  2  0  0  0  0
  5  7  1  0  0  0  0
  2  3  1  0  0  0  0
  2  4  1  0  0  0  0
  2  5  1  0  0  0  0
  1  2  1  0  0  0  0
 25 26  2  0  0  0  0
 25 27  1  0  0  0  0
 23 24  1  0  0  0  0
 21 22  1  0  0  0  0
 21 23  2  0  0  0  0
 19 20  1  0  0  0  0
 19 21  1  0  0  0  0
 17 18  1  0  0  0  0
 17 19  2  0  0  0  0
 15 16  1  0  0  0  0
 15 17  1  0  0  0  0
 14 15  2  0  0  0  0
 14 23  1  0  0  0  0
 11 12  1  0  0  0  0
 11 13  1  0  0  0  0
 11 14  1  0  0  0  0
  9 10  1  0  0  0  0
  9 11  1  0  0  0  0
  9 25  1  0  0  0  0
  7  8  1  0  0  0  0
  7  9  1  0  0  0  0
 29 30  1  0  0  0  0
 29 31  1  0  0  0  0
 29 32  1  0  0  0  0
 27 28  1  0  0  0  0
 27 29  1  0  0  0  0
M  END
$$$$
default_name
  -OEChem-02102213163D

 32 32  0     1  0  0  0  0  0999 V2000
   -3.8405   -3.7518    1.6252 H   0  0  0  0  0  0  0  0  0  0  0  0
   -3.7965   -2.8768    0.9782 C   0  0  0  0  0  0  0  0  0  0  0  0
   -4.5465   -2.1527    1.2902 H   0  0  0  0  0  0  0  0  0  0  0  0
   -3.9745   -3.1748   -0.0538 H   0  0  0  0  0  0  0  0  0  0  0  0
   -2.4245   -2.2537    1.0882 C   0  0  0  0  0  0  0  0  0  0  0  0
   -1.5805   -2.7478    1.8242 O   0  0  0  0  0  0  0  0  0  0  0  0
   -2.2045   -1.1637    0.3562 N   0  0  0  0  0  0  0  0  0  0  0  0
   -2.9595   -0.7907   -0.2008 H   0  0  0  0  0  0  0  0  0  0  0  0
   -0.9485   -0.4087    0.3482 C   0  0  1  0  0  0  0  0  0  0  0  0
   -0.3666   -0.6914    1.2269 H   0  0  0  0  0  0  0  0  0  0  0  0
   -0.1405   -0.7797   -0.9072 C   0  0  0  0  0  0  0  0  0  0  0  0
    0.0601   -1.8520   -0.8964 H   0  0  0  0  0  0  0  0  0  0  0  0
   -0.7437   -0.5682   -1.7914 H   0  0  0  0  0  0  0  0  0  0  0  0
    1.1867   -0.0543   -1.0213 C   0  0  0  0  0  0  0  0  0  0  0  0
    1.4520    1.0768   -0.2262 C   0  0  0  0  0  0  0  0  0  0  0  0
    0.7006    1.4493    0.4556 H   0  0  0  0  0  0  0  0  0  0  0  0
    2.7010    1.7197   -0.3078 C   0  0  0  0  0  0  0  0  0  0  0  0
    2.9017    2.5896    0.3017 H   0  0  0  0  0  0  0  0  0  0  0  0
    3.6869    1.2322   -1.1824 C   0  0  0  0  0  0  0  0  0  0  0  0
    4.6456    1.7276   -1.2468 H   0  0  0  0  0  0  0  0  0  0  0  0
    3.4245    0.1031   -1.9794 C   0  0  0  0  0  0  0  0  0  0  0  0
    4.1803   -0.2685   -2.6557 H   0  0  0  0  0  0  0  0  0  0  0  0
    2.1751   -0.5372   -1.9001 C   0  0  0  0  0  0  0  0  0  0  0  0
    1.9733   -1.4038   -2.5162 H   0  0  0  0  0  0  0  0  0  0  0  0
   -1.2168    1.1047    0.4313 C   0  0  0  0  0  0  0  0  0  0  0  0
   -2.0890    1.6186   -0.2704 O   0  0  0  0  0  0  0  0  0  0  0  0
   -0.4674    1.8182    1.2813 N   0  0  0  0  0  0  0  0  0  0  0  0
    0.2640    1.3348    1.7800 H   0  0  0  0  0  0  0  0  0  0  0  0
   -0.5889    3.2615    1.4722 C   0  0  0  0  0  0  0  0  0  0  0  0
   -1.6291    3.5206    1.6805 H   0  0  0  0  0  0  0  0  0  0  0  0
    0.0359    3.5855    2.3049 H   0  0  0  0  0  0  0  0  0  0  0  0
   -0.2760    3.7797    0.5637 H   0  0  0  0  0  0  0  0  0  0  0  0
  5  6  2  0  0  0  0
  5  7  1  0  0  0  0
  2  3  1  0  0  0  0
  2  4  1  0  0  0  0
  2  5  1  0  0  0  0
  1  2  1  0  0  0  0
 25 26  2  0  0  0  0
 25 27  1  0  0  0  0
 23 24  1  0  0  0  0
 21 22  1  0  0  0  0
 21 23  2  0  0  0  0
 19 20  1  0  0  0  0
 19 21  1  0  0  0  0
 17 18  1  0  0  0  0
 17 19  2  0  0  0  0
 15 16  1  0  0  0  0
 15 17  1  0  0  0  0
 14 15  2  0  0  0  0
 14 23  1  0  0  0  0
 11 12  1  0  0  0  0
 11 13  1  0  0  0  0
 11 14  1  0  0  0  0
  9 10  1  0  0  0  0
  9 11  1  0  0  0  0
  9 25  1  0  0  0  0
  7  8  1  0  0  0  0
  7  9  1  0  0  0  0
 29 30  1  0  0  0  0
 29 31  1  0  0  0  0
 29 32  1  0  0  0  0
 27 28  1  0  0  0  0
 27 29  1  0  0  0  0
M  END
$$$$
default_name
  -OEChem-02102213163D

 32 32  0     1  0  0  0  0  0999 V2000
   -3.8405   -3.7518    1.6252 H   0  0  0  0  0  0  0  0  0  0  0  0
   -3.7965   -2.8768    0.9782 C   0  0  0  0  0  0  0  0  0  0  0  0
   -4.5465   -2.1527    1.2902 H   0  0  0  0  0  0  0  0  0  0  0  0
   -3.9745   -3.1748   -0.0538 H   0  0  0  0  0  0  0  0  0  0  0  0
   -2.4245   -2.2537    1.0882 C   0  0  0  0  0  0  0  0  0  0  0  0
   -1.5805   -2.7478    1.8242 O   0  0  0  0  0  0  0  0  0  0  0  0
   -2.2045   -1.1637    0.3562 N   0  0  0  0  0  0  0  0  0  0  0  0
   -2.9595   -0.7907   -0.2008 H   0  0  0  0  0  0  0  0  0  0  0  0
   -0.9485   -0.4087    0.3482 C   0  0  1  0  0  0  0  0  0  0  0  0
   -0.3666   -0.6914    1.2269 H   0  0  0  0  0  0  0  0  0  0  0  0
   -0.1405   -0.7797   -0.9072 C   0  0  0  0  0  0  0  0  0  0  0  0
    0.0601   -1.8520   -0.8964 H   0  0  0  0  0  0  0  0  0  0  0  0
   -0.7437   -0.5682   -1.7914 H   0  0  0  0  0  0  0  0  0  0  0  0
    1.1867   -0.0543   -1.0213 C   0  0  0  0  0  0  0  0  0  0  0  0
    1.5847    0.8647   -0.0318 C   0  0  0  0  0  0  0  0  0  0  0  0
    0.9347    1.0761    0.8055 H   0  0  0  0  0  0  0  0  0  0  0  0
    2.8354    1.5028   -0.1233 C   0  0  0  0  0  0  0  0  0  0  0  0
    3.1380    2.2100    0.6362 H   0  0  0  0  0  0  0  0  0  0  0  0
    3.6908    1.2221   -1.2023 C   0  0  0  0  0  0  0  0  0  0  0  0
    4.6507    1.7141   -1.2737 H   0  0  0  0  0  0  0  0  0  0  0  0
    3.2955    0.3054   -2.1935 C   0  0  0  0  0  0  0  0  0  0  0  0
    3.9505    0.0937   -3.0259 H   0  0  0  0  0  0  0  0  0  0  0  0
    2.0441   -0.3296   -2.1036 C   0  0  0  0  0  0  0  0  0  0  0  0
    1.7398   -1.0321   -2.8686 H   0  0  0  0  0  0  0  0  0  0  0  0
   -1.2168    1.1047    0.4313 C   0  0  0  0  0  0  0  0  0  0  0  0
   -2.0890    1.6186   -0.2704 O   0  0  0  0  0  0  0  0  0  0  0  0
   -0.4674    1.8182    1.2813 N   0  0  0  0  0  0  0  0  0  0  0  0
    0.2640    1.3348    1.7800 H   0  0  0  0  0  0  0  0  0  0  0  0
   -0.5889    3.2615    1.4722 C   0  0  0  0  0  0  0  0  0  0  0  0
   -1.6291    3.5206    1.6805 H   0  0  0  0  0  0  0  0  0  0  0  0
    0.0359    3.5855    2.3049 H   0  0  0  0  0  0  0  0  0  0  0  0
   -0.2760    3.7797    0.5637 H   0  0  0  0  0  0  0  0  0  0  0  0
  5  6  2  0  0  0  0
  5  7  1  0  0  0  0
  2  3  1  0  0  0  0
  2  4  1  0  0  0  0
  2  5  1  0  0  0  0
  1  2  1  0  0  0  0
 25 26  2  0  0  0  0
 25 27  1  0  0  0  0
 23 24  1  0  0  0  0
 21 22  1  0  0  0  0
 21 23  2  0  0  0  0
 19 20  1  0  0  0  0
 19 21  1  0  0  0  0
 17 18  1  0  0  0  0
 17 19  2  0  0  0  0
 15 16  1  0  0  0  0
 15 17  1  0  0  0  0
 14 15  2  0  0  0  0
 14 23  1  0  0  0  0
 11 12  1  0  0  0  0
 11 13  1  0  0  0  0
 11 14  1  0  0  0  0
  9 10  1  0  0  0  0
  9 11  1  0  0  0  0
  9 25  1  0  0  0  0
  7  8  1  0  0  0  0
  7  9  1  0  0  0  0
 29 30  1  0  0  0  0
 29 31  1  0  0  0  0
 29 32  1  0  0  0  0
 27 28  1  0  0  0  0
 27 29  1  0  0  0  0
M  END
$$$$
default_name
  -OEChem-02102213163D

 32 32  0     1  0  0  0  0  0999 V2000
   -3.8405   -3.7518    1.6252 H   0  0  0  0  0  0  0  0  0  0  0  0
   -3.7965   -2.8768    0.9782 C   0  0  0  0  0  0  0  0  0  0  0  0
   -4.5465   -2.1527    1.2902 H   0  0  0  0  0  0  0  0  0  0  0  0
   -3.9745   -3.1748   -0.0538 H   0  0  0  0  0  0  0  0  0  0  0  0
   -2.4245   -2.2537    1.0882 C   0  0  0  0  0  0  0  0  0  0  0  0
   -1.5805   -2.7478    1.8242 O   0  0  0  0  0  0  0  0  0  0  0  0
   -2.2045   -1.1637    0.3562 N   0  0  0  0  0  0  0  0  0  0  0  0
   -2.9595   -0.7907   -0.2008 H   0  0  0  0  0  0  0  0  0  0  0  0
   -0.9485   -0.4087    0.3482 C   0  0  1  0  0  0  0  0  0  0  0  0
   -0.3666   -0.6914    1.2269 H   0  0  0  0  0  0  0  0  0  0  0  0
   -0.1405   -0.7797   -0.9072 C   0  0  0  0  0  0  0  0  0  0  0  0
    0.0601   -1.8520   -0.8964 H   0  0  0  0  0  0  0  0  0  0  0  0
   -0.7437   -0.5682   -1.7914 H   0  0  0  0  0  0  0  0  0  0  0  0
    1.1867   -0.0543   -1.0213 C   0  0  0  0  0  0  0  0  0  0  0  0
    1.7328    0.6132    0.0915 C   0  0  0  0  0  0  0  0  0  0  0  0
    1.1969    0.6317    1.0300 H   0  0  0  0  0  0  0  0  0  0  0  0
    2.9839    1.2488   -0.0107 C   0  0  0  0  0  0  0  0  0  0  0  0
    3.4002    1.7629    0.8442 H   0  0  0  0  0  0  0  0  0  0  0  0
    3.6918    1.2167   -1.2242 C   0  0  0  0  0  0  0  0  0  0  0  0
    4.6520    1.7070   -1.3034 H   0  0  0  0  0  0  0  0  0  0  0  0
    3.1483    0.5519   -2.3385 C   0  0  0  0  0  0  0  0  0  0  0  0
    3.6898    0.5318   -3.2729 H   0  0  0  0  0  0  0  0  0  0  0  0
    1.8964   -0.0804   -2.2370 C   0  0  0  0  0  0  0  0  0  0  0  0
    1.4779   -0.5886   -3.0960 H   0  0  0  0  0  0  0  0  0  0  0  0
   -1.2168    1.1047    0.4313 C   0  0  0  0  0  0  0  0  0  0  0  0
   -2.0890    1.6186   -0.2704 O   0  0  0  0  0  0  0  0  0  0  0  0
   -0.4674    1.8182    1.2813 N   0  0  0  0  0  0  0  0  0  0  0  0
    0.2640    1.3348    1.7800 H   0  0  0  0  0  0  0  0  0  0  0  0
   -0.5889    3.2615    1.4722 C   0  0  0  0  0  0  0  0  0  0  0  0
   -1.6291    3.5206    1.6805 H   0  0  0  0  0  0  0  0  0  0  0  0
    0.0359    3.5855    2.3049 H   0  0  0  0  0  0  0  0  0  0  0  0
   -0.2760    3.7797    0.5637 H   0  0  0  0  0  0  0  0  0  0  0  0
  5  6  2  0  0  0  0
  5  7  1  0  0  0  0
  2  3  1  0  0  0  0
  2  4  1  0  0  0  0
  2  5  1  0  0  0  0
  1  2  1  0  0  0  0
 25 26  2  0  0  0  0
 25 27  1  0  0  0  0
 23 24  1  0  0  0  0
 21 22  1  0  0  0  0
 21 23  2  0  0  0  0
 19 20  1  0  0  0  0
 19 21  1  0  0  0  0
 17 18  1  0  0  0  0
 17 19  2  0  0  0  0
 15 16  1  0  0  0  0
 15 17  1  0  0  0  0
 14 15  2  0  0  0  0
 14 23  1  0  0  0  0
 11 12  1  0  0  0  0
 11 13  1  0  0  0  0
 11 14  1  0  0  0  0
  9 10  1  0  0  0  0
  9 11  1  0  0  0  0
  9 25  1  0  0  0  0
  7  8  1  0  0  0  0
  7  9  1  0  0  0  0
 29 30  1  0  0  0  0
 29 31  1  0  0  0  0
 29 32  1  0  0  0  0
 27 28  1  0  0  0  0
 27 29  1  0  0  0  0
M  END
$$$$
default_name
  -OEChem-02102213163D

 32 32  0     1  0  0  0  0  0999 V2000
   -3.8405   -3.7518    1.6252 H   0  0  0  0  0  0  0  0  0  0  0  0
   -3.7965   -2.8768    0.9782 C   0  0  0  0  0  0  0  0  0  0  0  0
   -4.5465   -2.1527    1.2902 H   0  0  0  0  0  0  0  0  0  0  0  0
   -3.9745   -3.1748   -0.0538 H   0  0  0  0  0  0  0  0  0  0  0  0
   -2.4245   -2.2537    1.0882 C   0  0  0  0  0  0  0  0  0  0  0  0
   -1.5805   -2.7478    1.8242 O   0  0  0  0  0  0  0  0  0  0  0  0
   -2.2045   -1.1637    0.3562 N   0  0  0  0  0  0  0  0  0  0  0  0
   -2.9595   -0.7907   -0.2008 H   0  0  0  0  0  0  0  0  0  0  0  0
   -0.9485   -0.4087    0.3482 C   0  0  1  0  0  0  0  0  0  0  0  0
   -0.3666   -0.6914    1.2269 H   0  0  0  0  0  0  0  0  0  0  0  0
   -0.1405   -0.7797   -0.9072 C   0  0  0  0  0  0  0  0  0  0  0  0
    0.0601   -1.8520   -0.8964 H   0  0  0  0  0  0  0  0  0  0  0  0
   -0.7437   -0.5682   -1.7914 H   0  0  0  0  0  0  0  0  0  0  0  0
    1.1867   -0.0543   -1.0213 C   0  0  0  0  0  0  0  0  0  0  0  0
    1.8862    0.3394    0.1353 C   0  0  0  0  0  0  0  0  0  0  0  0
    1.4692    0.1466    1.1137 H   0  0  0  0  0  0  0  0  0  0  0  0
    3.1364    0.9751    0.0220 C   0  0  0  0  0  0  0  0  0  0  0  0
    3.6706    1.2788    0.9113 H   0  0  0  0  0  0  0  0  0  0  0  0
    3.6900    1.2164   -1.2468 C   0  0  0  0  0  0  0  0  0  0  0  0
    4.6494    1.7069   -1.3338 H   0  0  0  0  0  0  0  0  0  0  0  0
    2.9930    0.8257   -2.4046 C   0  0  0  0  0  0  0  0  0  0  0  0
    3.4159    1.0160   -3.3801 H   0  0  0  0  0  0  0  0  0  0  0  0
    1.7421    0.1934   -2.2911 C   0  0  0  0  0  0  0  0  0  0  0  0
    1.2054   -0.1037   -3.1827 H   0  0  0  0  0  0  0  0  0  0  0  0
   -1.2168    1.1047    0.4313 C   0  0  0  0  0  0  0  0  0  0  0  0
   -2.0890    1.6186   -0.2704 O   0  0  0  0  0  0  0  0  0  0  0  0
   -0.4674    1.8182    1.2813 N   0  0  0  0  0  0  0  0  0  0  0  0
    0.2640    1.3348    1.7800 H   0  0  0  0  0  0  0  0  0  0  0  0
   -0.5889    3.2615    1.4722 C   0  0  0  0  0  0  0  0  0  0  0  0
   -1.6291    3.5206    1.6805 H   0  0  0  0  0  0  0  0  0  0  0  0
    0.0359    3.5855    2.3049 H   0  0  0  0  0  0  0  0  0  0  0  0
   -0.2760    3.7797    0.5637 H   0  0  0  0  0  0  0  0  0  0  0  0
  5  6  2  0  0  0  0
  5  7  1  0  0  0  0
  2  3  1  0  0  0  0
  2  4  1  0  0  0  0
  2  5  1  0  0  0  0
  1  2  1  0  0  0  0
 25 26  2  0  0  0  0
 25 27  1  0  0  0  0
 23 24  1  0  0  0  0
 21 22  1  0  0  0  0
 21 23  2  0  0  0  0
 19 20  1  0  0  0  0
 19 21  1  0  0  0  0
 17 18  1  0  0  0  0
 17 19  2  0  0  0  0
 15 16  1  0  0  0  0
 15 17  1  0  0  0  0
 14 15  2  0  0  0  0
 14 23  1  0  0  0  0
 11 12  1  0  0  0  0
 11 13  1  0  0  0  0
 11 14  1  0  0  0  0
  9 10  1  0  0  0  0
  9 11  1  0  0  0  0
  9 25  1  0  0  0  0
  7  8  1  0  0  0  0
  7  9  1  0  0  0  0
 29 30  1  0  0  0  0
 29 31  1  0  0  0  0
 29 32  1  0  0  0  0
 27 28  1  0  0  0  0
 27 29  1  0  0  0  0
M  END
$$$$
default_name
  -OEChem-02102213163D

 32 32  0     1  0  0  0  0  0999 V2000
   -3.8405   -3.7518    1.6252 H   0  0  0  0  0  0  0  0  0  0  0  0
   -3.7965   -2.8768    0.9782 C   0  0  0  0  0  0  0  0  0  0  0  0
   -4.5465   -2.1527    1.2902 H   0  0  0  0  0  0  0  0  0  0  0  0
   -3.9745   -3.1748   -0.0538 H   0  0  0  0  0  0  0  0  0  0  0  0
   -2.4245   -2.2537    1.0882 C   0  0  0  0  0  0  0  0  0  0  0  0
   -1.5805   -2.7478    1.8242 O   0  0  0  0  0  0  0  0  0  0  0  0
   -2.2045   -1.1637    0.3562 N   0  0  0  0  0  0  0  0  0  0  0  0
   -2.9595   -0.7907   -0.2008 H   0  0  0  0  0  0  0  0  0  0  0  0
   -0.9485   -0.4087    0.3482 C   0  0  1  0  0  0  0  0  0  0  0  0
   -0.3666   -0.6914    1.2269 H   0  0  0  0  0  0  0  0  0  0  0  0
   -0.1405   -0.7797   -0.9072 C   0  0  0  0  0  0  0  0  0  0  0  0
    0.0601   -1.8520   -0.8964 H   0  0  0  0  0  0  0  0  0  0  0  0
   -0.7437   -0.5682   -1.7914 H   0  0  0  0  0  0  0  0  0  0  0  0
    1.1867   -0.0543   -1.0213 C   0  0  0  0  0  0  0  0  0  0  0  0
    2.0344    0.0620    0.0966 C   0  0  0  0  0  0  0  0  0  0  0  0
    1.7332   -0.3463    1.0510 H   0  0  0  0  0  0  0  0  0  0  0  0
    3.2823    0.7003   -0.0272 C   0  0  0  0  0  0  0  0  0  0  0  0
    3.9306    0.7908    0.8331 H   0  0  0  0  0  0  0  0  0  0  0  0
    3.6855    1.2213   -1.2684 C   0  0  0  0  0  0  0  0  0  0  0  0
    4.6432    1.7137   -1.3629 H   0  0  0  0  0  0  0  0  0  0  0  0
    2.8402    1.1081   -2.3871 C   0  0  0  0  0  0  0  0  0  0  0  0
    3.1476    1.5133   -3.3400 H   0  0  0  0  0  0  0  0  0  0  0  0
    1.5917    0.4731   -2.2623 C   0  0  0  0  0  0  0  0  0  0  0  0
    0.9409    0.3896   -3.1230 H   0  0  0  0  0  0  0  0  0  0  0  0
   -1.2168    1.1047    0.4313 C   0  0  0  0  0  0  0  0  0  0  0  0
   -2.0890    1.6186   -0.2704 O   0  0  0  0  0  0  0  0  0  0  0  0
   -0.4674    1.8182    1.2813 N   0  0  0  0  0  0  0  0  0  0  0  0
    0.2640    1.3348    1.7800 H   0  0  0  0  0  0  0  0  0  0  0  0
   -0.5889    3.2615    1.4722 C   0  0  0  0  0  0  0  0  0  0  0  0
   -1.6291    3.5206    1.6805 H   0  0  0  0  0  0  0  0  0  0  0  0
    0.0359    3.5855    2.3049 H   0  0  0  0  0  0  0  0  0  0  0  0
   -0.2760    3.7797    0.5637 H   0  0  0  0  0  0  0  0  0  0  0  0
  5  6  2  0  0  0  0
  5  7  1  0  0  0  0
  2  3  1  0  0  0  0
  2  4  1  0  0  0  0
  2  5  1  0  0  0  0
  1  2  1  0  0  0  0
 25 26  2  0  0  0  0
 25 27  1  0  0  0  0
 23 24  1  0  0  0  0
 21 22  1  0  0  0  0
 21 23  2  0  0  0  0
 19 20  1  0  0  0  0
 19 21  1  0  0  0  0
 17 18  1  0  0  0  0
 17 19  2  0  0  0  0
 15 16  1  0  0  0  0
 15 17  1  0  0  0  0
 14 15  2  0  0  0  0
 14 23  1  0  0  0  0
 11 12  1  0  0  0  0
 11 13  1  0  0  0  0
 11 14  1  0  0  0  0
  9 10  1  0  0  0  0
  9 11  1  0  0  0  0
  9 25  1  0  0  0  0
  7  8  1  0  0  0  0
  7  9  1  0  0  0  0
 29 30  1  0  0  0  0
 29 31  1  0  0  0  0
 29 32  1  0  0  0  0
 27 28  1  0  0  0  0
 27 29  1  0  0  0  0
M  END
$$$$
default_name
  -OEChem-02102213163D

 32 32  0     1  0  0  0  0  0999 V2000
   -3.8405   -3.7518    1.6252 H   0  0  0  0  0  0  0  0  0  0  0  0
   -3.7965   -2.8768    0.9782 C   0  0  0  0  0  0  0  0  0  0  0  0
   -4.5465   -2.1527    1.2902 H   0  0  0  0  0  0  0  0  0  0  0  0
   -3.9745   -3.1748   -0.0538 H   0  0  0  0  0  0  0  0  0  0  0  0
   -2.4245   -2.2537    1.0882 C   0  0  0  0  0  0  0  0  0  0  0  0
   -1.5805   -2.7478    1.8242 O   0  0  0  0  0  0  0  0  0  0  0  0
   -2.2045   -1.1637    0.3562 N   0  0  0  0  0  0  0  0  0  0  0  0
   -2.9595   -0.7907   -0.2008 H   0  0  0  0  0  0  0  0  0  0  0  0
   -0.9485   -0.4087    0.3482 C   0  0  1  0  0  0  0  0  0  0  0  0
   -0.3666   -0.6914    1.2269 H   0  0  0  0  0  0  0  0  0  0  0  0
   -0.1405   -0.7797   -0.9072 C   0  0  0  0  0  0  0  0  0  0  0  0
    0.0601   -1.8520   -0.8964 H   0  0  0  0  0  0  0  0  0  0  0  0
   -0.7437   -0.5682   -1.7914 H   0  0  0  0  0  0  0  0  0  0  0  0
    1.1867   -0.0543   -1.0213 C   0  0  0  0  0  0  0  0  0  0  0  0
    2.1675   -0.2000   -0.0219 C   0  0  0  0  0  0  0  0  0  0  0  0
    1.9709   -0.8133    0.8462 H   0  0  0  0  0  0  0  0  0  0  0  0
    3.4119    0.4432   -0.1550 C   0  0  0  0  0  0  0  0  0  0  0  0
    4.1625    0.3320    0.6148 H   0  0  0  0  0  0  0  0  0  0  0  0
    3.6785    1.2310   -1.2876 C   0  0  0  0  0  0  0  0  0  0  0  0
    4.6337    1.7270   -1.3887 H   0  0  0  0  0  0  0  0  0  0  0  0
    2.7002    1.3799   -2.2874 C   0  0  0  0  0  0  0  0  0  0  0  0
    2.9030    1.9899   -3.1555 H   0  0  0  0  0  0  0  0  0  0  0  0
    1.4554    0.7397   -2.1525 C   0  0  0  0  0  0  0  0  0  0  0  0
    0.7024    0.8578   -2.9208 H   0  0  0  0  0  0  0  0  0  0  0  0
   -1.2168    1.1047    0.4313 C   0  0  0  0  0  0  0  0  0  0  0  0
   -2.0890    1.6186   -0.2704 O   0  0  0  0  0  0  0  0  0  0  0  0
   -0.4674    1.8182    1.2813 N   0  0  0  0  0  0  0  0  0  0  0  0
    0.2640    1.3348    1.7800 H   0  0  0  0  0  0  0  0  0  0  0  0
   -0.5889    3.2615    1.4722 C   0  0  0  0  0  0  0  0  0  0  0  0
   -1.6291    3.5206    1.6805 H   0  0  0  0  0  0  0  0  0  0  0  0
    0.0359    3.5855    2.3049 H   0  0  0  0  0  0  0  0  0  0  0  0
   -0.2760    3.7797    0.5637 H   0  0  0  0  0  0  0  0  0  0  0  0
  5  6  2  0  0  0  0
  5  7  1  0  0  0  0
  2  3  1  0  0  0  0
  2  4  1  0  0  0  0
  2  5  1  0  0  0  0
  1  2  1  0  0  0  0
 25 26  2  0  0  0  0
 25 27  1  0  0  0  0
 23 24  1  0  0  0  0
 21 22  1  0  0  0  0
 21 23  2  0  0  0  0
 19 20  1  0  0  0  0
 19 21  1  0  0  0  0
 17 18  1  0  0  0  0
 17 19  2  0  0  0  0
 15 16  1  0  0  0  0
 15 17  1  0  0  0  0
 14 15  2  0  0  0  0
 14 23  1  0  0  0  0
 11 12  1  0  0  0  0
 11 13  1  0  0  0  0
 11 14  1  0  0  0  0
  9 10  1  0  0  0  0
  9 11  1  0  0  0  0
  9 25  1  0  0  0  0
  7  8  1  0  0  0  0
  7  9  1  0  0  0  0
 29 30  1  0  0  0  0
 29 31  1  0  0  0  0
 29 32  1  0  0  0  0
 27 28  1  0  0  0  0
 27 29  1  0  0  0  0
M  END
$$$$
default_name
  -OEChem-02102213163D

 32 32  0     1  0  0  0  0  0999 V2000
   -3.8405   -3.7518    1.6252 H   0  0  0  0  0  0  0  0  0  0  0  0
   -3.7965   -2.8768    0.9782 C   0  0  0  0  0  0  0  0  0  0  0  0
   -4.5465   -2.1527    1.2902 H   0  0  0  0  0  0  0  0  0  0  0  0
   -3.9745   -3.1748   -0.0538 H   0  0  0  0  0  0  0  0  0  0  0  0
   -2.4245   -2.2537    1.0882 C   0  0  0  0  0  0  0  0  0  0  0  0
   -1.5805   -2.7478    1.8242 O   0  0  0  0  0  0  0  0  0  0  0  0
   -2.2045   -1.1637    0.3562 N   0  0  0  0  0  0  0  0  0  0  0  0
   -2.9595   -0.7907   -0.2008 H   0  0  0  0  0  0  0  0  0  0  0  0
   -0.9485   -0.4087    0.3482 C   0  0  1  0  0  0  0  0  0  0  0  0
   -0.3666   -0.6914    1.2269 H   0  0  0  0  0  0  0  0  0  0  0  0
   -0.1405   -0.7797   -0.9072 C   0  0  0  0  0  0  0  0  0  0  0  0
    0.0601   -1.8520   -0.8964 H   0  0  0  0  0  0  0  0  0  0  0  0
   -0.7437   -0.5682   -1.7914 H   0  0  0  0  0  0  0  0  0  0  0  0
    1.1867   -0.0543   -1.0213 C   0  0  0  0  0  0  0  0  0  0  0  0
    2.2762   -0.4288   -0.2121 C   0  0  0  0  0  0  0  0  0  0  0  0
    2.1659   -1.2226    0.5131 H   0  0  0  0  0  0  0  0  0  0  0  0
    3.5162    0.2212   -0.3527 C   0  0  0  0  0  0  0  0  0  0  0  0
    4.3507   -0.0662    0.2714 H   0  0  0  0  0  0  0  0  0  0  0  0
    3.6696    1.2449   -1.3031 C   0  0  0  0  0  0  0  0  0  0  0  0
    4.6216    1.7459   -1.4094 H   0  0  0  0  0  0  0  0  0  0  0  0
    2.5826    1.6226   -2.1122 C   0  0  0  0  0  0  0  0  0  0  0  0
    2.6989    2.4131   -2.8390 H   0  0  0  0  0  0  0  0  0  0  0  0
    1.3426    0.9750   -1.9692 C   0  0  0  0  0  0  0  0  0  0  0  0
    0.5062    1.2688   -2.5900 H   0  0  0  0  0  0  0  0  0  0  0  0
   -1.2168    1.1047    0.4313 C   0  0  0  0  0  0  0  0  0  0  0  0
   -2.0890    1.6186   -0.2704 O   0  0  0  0  0  0  0  0  0  0  0  0
   -0.4674    1.8182    1.2813 N   0  0  0  0  0  0  0  0  0  0  0  0
    0.2640    1.3348    1.7800 H   0  0  0  0  0  0  0  0  0  0  0  0
   -0.5889    3.2615    1.4722 C   0  0  0  0  0  0  0  0  0  0  0  0
   -1.6291    3.5206    1.6805 H   0  0  0  0  0  0  0  0  0  0  0  0
    0.0359    3.5855    2.3049 H   0  0  0  0  0  0  0  0  0  0  0  0
   -0.2760    3.7797    0.5637 H   0  0  0  0  0  0  0  0  0  0  0  0
  5  6  2  0  0  0  0
  5  7  1  0  0  0  0
  2  3  1  0  0  0  0
  2  4  1  0  0  0  0
  2  5  1  0  0  0  0
  1  2  1  0  0  0  0
 25 26  2  0  0  0  0
 25 27  1  0  0  0  0
 23 24  1  0  0  0  0
 21 22  1  0  0  0  0
 21 23  2  0  0  0  0
 19 20  1  0  0  0  0
 19 21  1  0  0  0  0
 17 18  1  0  0  0  0
 17 19  2  0  0  0  0
 15 16  1  0  0  0  0
 15 17  1  0  0  0  0
 14 15  2  0  0  0  0
 14 23  1  0  0  0  0
 11 12  1  0  0  0  0
 11 13  1  0  0  0  0
 11 14  1  0  0  0  0
  9 10  1  0  0  0  0
  9 11  1  0  0  0  0
  9 25  1  0  0  0  0
  7  8  1  0  0  0  0
  7  9  1  0  0  0  0
 29 30  1  0  0  0  0
 29 31  1  0  0  0  0
 29 32  1  0  0  0  0
 27 28  1  0  0  0  0
 27 29  1  0  0  0  0
M  END
$$$$
default_name
  -OEChem-02102213163D

 32 32  0     1  0  0  0  0  0999 V2000
   -3.8405   -3.7518    1.6252 H   0  0  0  0  0  0  0  0  0  0  0  0
   -3.7965   -2.8768    0.9782 C   0  0  0  0  0  0  0  0  0  0  0  0
   -4.5465   -2.1527    1.2902 H   0  0  0  0  0  0  0  0  0  0  0  0
   -3.9745   -3.1748   -0.0538 H   0  0  0  0  0  0  0  0  0  0  0  0
   -2.4245   -2.2537    1.0882 C   0  0  0  0  0  0  0  0  0  0  0  0
   -1.5805   -2.7478    1.8242 O   0  0  0  0  0  0  0  0  0  0  0  0
   -2.2045   -1.1637    0.3562 N   0  0  0  0  0  0  0  0  0  0  0  0
   -2.9595   -0.7907   -0.2008 H   0  0  0  0  0  0  0  0  0  0  0  0
   -0.9485   -0.4087    0.3482 C   0  0  1  0  0  0  0  0  0  0  0  0
   -0.3666   -0.6914    1.2269 H   0  0  0  0  0  0  0  0  0  0  0  0
   -0.1405   -0.7797   -0.9072 C   0  0  0  0  0  0  0  0  0  0  0  0
    0.0601   -1.8520   -0.8964 H   0  0  0  0  0  0  0  0  0  0  0  0
   -0.7437   -0.5682   -1.7914 H   0  0  0  0  0  0  0  0  0  0  0  0
    1.1867   -0.0543   -1.0213 C   0  0  0  0  0  0  0  0  0  0  0  0
    2.3532   -0.6089   -0.4612 C   0  0  0  0  0  0  0  0  0  0  0  0
    2.3052   -1.5464    0.0746 H   0  0  0  0  0  0  0  0  0  0  0  0
    3.5881    0.0496   -0.6068 C   0  0  0  0  0  0  0  0  0  0  0  0
    4.4821   -0.3767   -0.1738 H   0  0  0  0  0  0  0  0  0  0  0  0
    3.6594    1.2619   -1.3138 C   0  0  0  0  0  0  0  0  0  0  0  0
    4.6078    1.7690   -1.4237 H   0  0  0  0  0  0  0  0  0  0  0  0
    2.4954    1.8197   -1.8734 C   0  0  0  0  0  0  0  0  0  0  0  0
    2.5491    2.7543   -2.4122 H   0  0  0  0  0  0  0  0  0  0  0  0
    1.2609    1.1630   -1.7249 C   0  0  0  0  0  0  0  0  0  0  0  0
    0.3656    1.5948   -2.1530 H   0  0  0  0  0  0  0  0  0  0  0  0
   -1.2168    1.1047    0.4313 C   0  0  0  0  0  0  0  0  0  0  0  0
   -2.0890    1.6186   -0.2704 O   0  0  0  0  0  0  0  0  0  0  0  0
   -0.4674    1.8182    1.2813 N   0  0  0  0  0  0  0  0  0  0  0  0
    0.2640    1.3348    1.7800 H   0  0  0  0  0  0  0  0  0  0  0  0
   -0.5889    3.2615    1.4722 C   0  0  0  0  0  0  0  0  0  0  0  0
   -1.6291    3.5206    1.6805 H   0  0  0  0  0  0  0  0  0  0  0  0
    0.0359    3.5855    2.3049 H   0  0  0  0  0  0  0  0  0  0  0  0
   -0.2760    3.7797    0.5637 H   0  0  0  0  0  0  0  0  0  0  0  0
  5  6  2  0  0  0  0
  5  7  1  0  0  0  0
  2  3  1  0  0  0  0
  2  4  1  0  0  0  0
  2  5  1  0  0  0  0
  1  2  1  0  0  0  0
 25 26  2  0  0  0  0
 25 27  1  0  0  0  0
 23 24  1  0  0  0  0
 21 22  1  0  0  0  0
 21 23  2  0  0  0  0
 19 20  1  0  0  0  0
 19 21  1  0  0  0  0
 17 18  1  0  0  0  0
 17 19  2  0  0  0  0
 15 16  1  0  0  0  0
 15 17  1  0  0  0  0
 14 15  2  0  0  0  0
 14 23  1  0  0  0  0
 11 12  1  0  0  0  0
 11 13  1  0  0  0  0
 11 14  1  0  0  0  0
  9 10  1  0  0  0  0
  9 11  1  0  0  0  0
  9 25  1  0  0  0  0
  7  8  1  0  0  0  0
  7  9  1  0  0  0  0
 29 30  1  0  0  0  0
 29 31  1  0  0  0  0
 29 32  1  0  0  0  0
 27 28  1  0  0  0  0
 27 29  1  0  0  0  0
M  END
$$$$
default_name
  -OEChem-02102213163D

 32 32  0     1  0  0  0  0  0999 V2000
   -3.8405   -3.7518    1.6252 H   0  0  0  0  0  0  0  0  0  0  0  0
   -3.7965   -2.8768    0.9782 C   0  0  0  0  0  0  0  0  0  0  0  0
   -4.5465   -2.1527    1.2902 H   0  0  0  0  0  0  0  0  0  0  0  0
   -3.9745   -3.1748   -0.0538 H   0  0  0  0  0  0  0  0  0  0  0  0
   -2.4245   -2.2537    1.0882 C   0  0  0  0  0  0  0  0  0  0  0  0
   -1.5805   -2.7478    1.8242 O   0  0  0  0  0  0  0  0  0  0  0  0
   -2.2045   -1.1637    0.3562 N   0  0  0  0  0  0  0  0  0  0  0  0
   -2.9595   -0.7907   -0.2008 H   0  0  0  0  0  0  0  0  0  0  0  0
   -0.9485   -0.4087    0.3482 C   0  0  1  0  0  0  0  0  0  0  0  0
   -0.3666   -0.6914    1.2269 H   0  0  0  0  0  0  0  0  0  0  0  0
   -0.1405   -0.7797   -0.9072 C   0  0  0  0  0  0  0  0  0  0  0  0
    0.0601   -1.8520   -0.8964 H   0  0  0  0  0  0  0  0  0  0  0  0
   -0.7437   -0.5682   -1.7914 H   0  0  0  0  0  0  0  0  0  0  0  0
    1.1867   -0.0543   -1.0213 C   0  0  0  0  0  0  0  0  0  0  0  0
    2.3932   -0.7279   -0.7521 C   0  0  0  0  0  0  0  0  0  0  0  0
    2.3791   -1.7626   -0.4396 H   0  0  0  0  0  0  0  0  0  0  0  0
    3.6228   -0.0600   -0.9001 C   0  0  0  0  0  0  0  0  0  0  0  0
    4.5479   -0.5784   -0.6904 H   0  0  0  0  0  0  0  0  0  0  0  0
    3.6485    1.2811   -1.3190 C   0  0  0  0  0  0  0  0  0  0  0  0
    4.5930    1.7949   -1.4305 H   0  0  0  0  0  0  0  0  0  0  0  0
    2.4446    1.9576   -1.5874 C   0  0  0  0  0  0  0  0  0  0  0  0
    2.4639    2.9901   -1.9042 H   0  0  0  0  0  0  0  0  0  0  0  0
    1.2158    1.2908   -1.4362 C   0  0  0  0  0  0  0  0  0  0  0  0
    0.2902    1.8134   -1.6398 H   0  0  0  0  0  0  0  0  0  0  0  0
   -1.2168    1.1047    0.4313 C   0  0  0  0  0  0  0  0  0  0  0  0
   -2.0890    1.6186   -0.2704 O   0  0  0  0  0  0  0  0  0  0  0  0
   -0.4674    1.8182    1.2813 N   0  0  0  0  0  0  0  0  0  0  0  0
    0.2640    1.3348    1.7800 H   0  0  0  0  0  0  0  0  0  0  0  0
   -0.5889    3.2615    1.4722 C   0  0  0  0  0  0  0  0  0  0  0  0
   -1.6291    3.5206    1.6805 H   0  0  0  0  0  0  0  0  0  0  0  0
    0.0359    3.5855    2.3049 H   0  0  0  0  0  0  0  0  0  0  0  0
   -0.2760    3.7797    0.5637 H   0  0  0  0  0  0  0  0  0  0  0  0
  5  6  2  0  0  0  0
  5  7  1  0  0  0  0
  2  3  1  0  0  0  0
  2  4  1  0  0  0  0
  2  5  1  0  0  0  0
  1  2  1  0  0  0  0
 25 26  2  0  0  0  0
 25 27  1  0  0  0  0
 23 24  1  0  0  0  0
 21 22  1  0  0  0  0
 21 23  2  0  0  0  0
 19 20  1  0  0  0  0
 19 21  1  0  0  0  0
 17 18  1  0  0  0  0
 17 19  2  0  0  0  0
 15 16  1  0  0  0  0
 15 17  1  0  0  0  0
 14 15  2  0  0  0  0
 14 23  1  0  0  0  0
 11 12  1  0  0  0  0
 11 13  1  0  0  0  0
 11 14  1  0  0  0  0
  9 10  1  0  0  0  0
  9 11  1  0  0  0  0
  9 25  1  0  0  0  0
  7  8  1  0  0  0  0
  7  9  1  0  0  0  0
 29 30  1  0  0  0  0
 29 31  1  0  0  0  0
 29 32  1  0  0  0  0
 27 28  1  0  0  0  0
 27 29  1  0  0  0  0
M  END
$$$$
default_name
  -OEChem-02102213163D

 32 32  0     1  0  0  0  0  0999 V2000
   -3.8405   -3.7518    1.6252 H   0  0  0  0  0  0  0  0  0  0  0  0
   -3.7965   -2.8768    0.9782 C   0  0  0  0  0  0  0  0  0  0  0  0
   -4.5465   -2.1527    1.2902 H   0  0  0  0  0  0  0  0  0  0  0  0
   -3.9745   -3.1748   -0.0538 H   0  0  0  0  0  0  0  0  0  0  0  0
   -2.4245   -2.2537    1.0882 C   0  0  0  0  0  0  0  0  0  0  0  0
   -1.5805   -2.7478    1.8242 O   0  0  0  0  0  0  0  0  0  0  0  0
   -2.2045   -1.1637    0.3562 N   0  0  0  0  0  0  0  0  0  0  0  0
   -2.9595   -0.7907   -0.2008 H   0  0  0  0  0  0  0  0  0  0  0  0
   -0.9485   -0.4087    0.3482 C   0  0  1  0  0  0  0  0  0  0  0  0
   -0.3666   -0.6914    1.2269 H   0  0  0  0  0  0  0  0  0  0  0  0
   -0.1405   -0.7797   -0.9072 C   0  0  0  0  0  0  0  0  0  0  0  0
    0.0601   -1.8520   -0.8964 H   0  0  0  0  0  0  0  0  0  0  0  0
   -0.7437   -0.5682   -1.7914 H   0  0  0  0  0  0  0  0  0  0  0  0
    1.1867   -0.0543   -1.0213 C   0  0  0  0  0  0  0  0  0  0  0  0
    2.3936   -0.7778   -1.0650 C   0  0  0  0  0  0  0  0  0  0  0  0
    2.3827   -1.8563   -0.9943 H   0  0  0  0  0  0  0  0  0  0  0  0
    3.6179   -0.1002   -1.2125 C   0  0  0  0  0  0  0  0  0  0  0  0
    4.5436   -0.6575   -1.2432 H   0  0  0  0  0  0  0  0  0  0  0  0
    3.6377    1.3009   -1.3184 C   0  0  0  0  0  0  0  0  0  0  0  0
    4.5785    1.8217   -1.4294 H   0  0  0  0  0  0  0  0  0  0  0  0
    2.4336    2.0271   -1.2736 C   0  0  0  0  0  0  0  0  0  0  0  0
    2.4491    3.1044   -1.3495 H   0  0  0  0  0  0  0  0  0  0  0  0
    1.2105    1.3498   -1.1229 C   0  0  0  0  0  0  0  0  0  0  0  0
    0.2852    1.9099   -1.0852 H   0  0  0  0  0  0  0  0  0  0  0  0
   -1.2168    1.1047    0.4313 C   0  0  0  0  0  0  0  0  0  0  0  0
   -2.0890    1.6186   -0.2704 O   0  0  0  0  0  0  0  0  0  0  0  0
   -0.4674    1.8182    1.2813 N   0  0  0  0  0  0  0  0  0  0  0  0
    0.2640    1.3348    1.7800 H   0  0  0  0  0  0  0  0  0  0  0  0
   -0.5889    3.2615    1.4722 C   0  0  0  0  0  0  0  0  0  0  0  0
   -1.6291    3.5206    1.6805 H   0  0  0  0  0  0  0  0  0  0  0  0
    0.0359    3.5855    2.3049 H   0  0  0  0  0  0  0  0  0  0  0  0
   -0.2760    3.7797    0.5637 H   0  0  0  0  0  0  0  0  0  0  0  0
  5  6  2  0  0  0  0
  5  7  1  0  0  0  0
  2  3  1  0  0  0  0
  2  4  1  0  0  0  0
  2  5  1  0  0  0  0
  1  2  1  0  0  0  0
 25 26  2  0  0  0  0
 25 27  1  0  0  0  0
 23 24  1  0  0  0  0
 21 22  1  0  0  0  0
 21 23  2  0  0  0  0
 19 20  1  0  0  0  0
 19 21  1  0  0  0  0
 17 18  1  0  0  0  0
 17 19  2  0  0  0  0
 15 16  1  0  0  0  0
 15 17  1  0  0  0  0
 14 15  2  0  0  0  0
 14 23  1  0  0  0  0
 11 12  1  0  0  0  0
 11 13  1  0  0  0  0
 11 14  1  0  0  0  0
  9 10  1  0  0  0  0
  9 11  1  0  0  0  0
  9 25  1  0  0  0  0
  7  8  1  0  0  0  0
  7  9  1  0  0  0  0
 29 30  1  0  0  0  0
 29 31  1  0  0  0  0
 29 32  1  0  0  0  0
 27 28  1  0  0  0  0
 27 29  1  0  0  0  0
M  END
$$$$
default_name
  -OEChem-02102213163D

 32 32  0     1  0  0  0  0  0999 V2000
   -3.8405   -3.7518    1.6252 H   0  0  0  0  0  0  0  0  0  0  0  0
   -3.7965   -2.8768    0.9782 C   0  0  0  0  0  0  0  0  0  0  0  0
   -4.5465   -2.1527    1.2902 H   0  0  0  0  0  0  0  0  0  0  0  0
   -3.9745   -3.1748   -0.0538 H   0  0  0  0  0  0  0  0  0  0  0  0
   -2.4245   -2.2537    1.0882 C   0  0  0  0  0  0  0  0  0  0  0  0
   -1.5805   -2.7478    1.8242 O   0  0  0  0  0  0  0  0  0  0  0  0
   -2.2045   -1.1637    0.3562 N   0  0  0  0  0  0  0  0  0  0  0  0
   -2.9595   -0.7907   -0.2008 H   0  0  0  0  0  0  0  0  0  0  0  0
   -0.9485   -0.4087    0.3482 C   0  0  1  0  0  0  0  0  0  0  0  0
   -0.3666   -0.6914    1.2269 H   0  0  0  0  0  0  0  0  0  0  0  0
   -0.1405   -0.7797   -0.9072 C   0  0  0  0  0  0  0  0  0  0  0  0
    0.0601   -1.8520   -0.8964 H   0  0  0  0  0  0  0  0  0  0  0  0
   -0.7437   -0.5682   -1.7914 H   0  0  0  0  0  0  0  0  0  0  0  0
    1.1867   -0.0543   -1.0213 C   0  0  0  0  0  0  0  0  0  0  0  0
    2.3542   -0.7551   -1.3786 C   0  0  0  0  0  0  0  0  0  0  0  0
    2.3156   -1.8213   -1.5519 H   0  0  0  0  0  0  0  0  0  0  0  0
    3.5737   -0.0681   -1.5227 C   0  0  0  0  0  0  0  0  0  0  0  0
    4.4695   -0.6086   -1.7946 H   0  0  0  0  0  0  0  0  0  0  0  0
    3.6277    1.3202   -1.3120 C   0  0  0  0  0  0  0  0  0  0  0  0
    4.5651    1.8476   -1.4204 H   0  0  0  0  0  0  0  0  0  0  0  0
    2.4632    2.0233   -0.9534 C   0  0  0  0  0  0  0  0  0  0  0  0
    2.5057    3.0896   -0.7860 H   0  0  0  0  0  0  0  0  0  0  0  0
    1.2454    1.3359   -0.8062 C   0  0  0  0  0  0  0  0  0  0  0  0
    0.3509    1.8775   -0.5270 H   0  0  0  0  0  0  0  0  0  0  0  0
   -1.2168    1.1047    0.4313 C   0  0  0  0  0  0  0  0  0  0  0  0
   -2.0890    1.6186   -0.2704 O   0  0  0  0  0  0  0  0  0  0  0  0
   -0.4674    1.8182    1.2813 N   0  0  0  0  0  0  0  0  0  0  0  0
    0.2640    1.3348    1.7800 H   0  0  0  0  0  0  0  0  0  0  0  0
   -0.5889    3.2615    1.4722 C   0  0  0  0  0  0  0  0  0  0  0  0
   -1.6291    3.5206    1.6805 H   0  0  0  0  0  0  0  0  0  0  0  0
    0.0359    3.5855    2.3049 H   0  0  0  0  0  0  0  0  0  0  0  0
   -0.2760    3.7797    0.5637 H   0  0  0  0  0  0  0  0  0  0  0  0
  5  6  2  0  0  0  0
  5  7  1  0  0  0  0
  2  3  1  0  0  0  0
  2  4  1  0  0  0  0
  2  5  1  0  0  0  0
  1  2  1  0  0  0  0
 25 26  2  0  0  0  0
 25 27  1  0  0  0  0
 23 24  1  0  0  0  0
 21 22  1  0  0  0  0
 21 23  2  0  0  0  0
 19 20  1  0  0  0  0
 19 21  1  0  0  0  0
 17 18  1  0  0  0  0
 17 19  2  0  0  0  0
 15 16  1  0  0  0  0
 15 17  1  0  0  0  0
 14 15  2  0  0  0  0
 14 23  1  0  0  0  0
 11 12  1  0  0  0  0
 11 13  1  0  0  0  0
 11 14  1  0  0  0  0
  9 10  1  0  0  0  0
  9 11  1  0  0  0  0
  9 25  1  0  0  0  0
  7  8  1  0  0  0  0
  7  9  1  0  0  0  0
 29 30  1  0  0  0  0
 29 31  1  0  0  0  0
 29 32  1  0  0  0  0
 27 28  1  0  0  0  0
 27 29  1  0  0  0  0
M  END
$$$$
default_name
  -OEChem-02102213163D

 32 32  0     1  0  0  0  0  0999 V2000
   -3.8405   -3.7518    1.6252 H   0  0  0  0  0  0  0  0  0  0  0  0
   -3.7965   -2.8768    0.9782 C   0  0  0  0  0  0  0  0  0  0  0  0
   -4.5465   -2.1527    1.2902 H   0  0  0  0  0  0  0  0  0  0  0  0
   -3.9745   -3.1748   -0.0538 H   0  0  0  0  0  0  0  0  0  0  0  0
   -2.4245   -2.2537    1.0882 C   0  0  0  0  0  0  0  0  0  0  0  0
   -1.5805   -2.7478    1.8242 O   0  0  0  0  0  0  0  0  0  0  0  0
   -2.2045   -1.1637    0.3562 N   0  0  0  0  0  0  0  0  0  0  0  0
   -2.9595   -0.7907   -0.2008 H   0  0  0  0  0  0  0  0  0  0  0  0
   -0.9485   -0.4087    0.3482 C   0  0  1  0  0  0  0  0  0  0  0  0
   -0.3666   -0.6914    1.2269 H   0  0  0  0  0  0  0  0  0  0  0  0
   -0.1405   -0.7797   -0.9072 C   0  0  0  0  0  0  0  0  0  0  0  0
    0.0601   -1.8520   -0.8964 H   0  0  0  0  0  0  0  0  0  0  0  0
   -0.7437   -0.5682   -1.7914 H   0  0  0  0  0  0  0  0  0  0  0  0
    1.1867   -0.0543   -1.0213 C   0  0  0  0  0  0  0  0  0  0  0  0
    2.2778   -0.6615   -1.6715 C   0  0  0  0  0  0  0  0  0  0  0  0
    2.1825   -1.6600   -2.0742 H   0  0  0  0  0  0  0  0  0  0  0  0
    3.4932    0.0340   -1.8097 C   0  0  0  0  0  0  0  0  0  0  0  0
    4.3306   -0.4351   -2.3070 H   0  0  0  0  0  0  0  0  0  0  0  0
    3.6192    1.3375   -1.3001 C   0  0  0  0  0  0  0  0  0  0  0  0
    4.5537    1.8709   -1.4043 H   0  0  0  0  0  0  0  0  0  0  0  0
    2.5314    1.9466   -0.6486 C   0  0  0  0  0  0  0  0  0  0  0  0
    2.6298    2.9465   -0.2521 H   0  0  0  0  0  0  0  0  0  0  0  0
    1.3179    1.2501   -0.5077 C   0  0  0  0  0  0  0  0  0  0  0  0
    0.4828    1.7185   -0.0033 H   0  0  0  0  0  0  0  0  0  0  0  0
   -1.2168    1.1047    0.4313 C   0  0  0  0  0  0  0  0  0  0  0  0
   -2.0890    1.6186   -0.2704 O   0  0  0  0  0  0  0  0  0  0  0  0
   -0.4674    1.8182    1.2813 N   0  0  0  0  0  0  0  0  0  0  0  0
    0.2640    1.3348    1.7800 H   0  0  0  0  0  0  0  0  0  0  0  0
   -0.5889    3.2615    1.4722 C   0  0  0  0  0  0  0  0  0  0  0  0
   -1.6291    3.5206    1.6805 H   0  0  0  0  0  0  0  0  0  0  0  0
    0.0359    3.5855    2.3049 H   0  0  0  0  0  0  0  0  0  0  0  0
   -0.2760    3.7797    0.5637 H   0  0  0  0  0  0  0  0  0  0  0  0
  5  6  2  0  0  0  0
  5  7  1  0  0  0  0
  2  3  1  0  0  0  0
  2  4  1  0  0  0  0
  2  5  1  0  0  0  0
  1  2  1  0  0  0  0
 25 26  2  0  0  0  0
 25 27  1  0  0  0  0
 23 24  1  0  0  0  0
 21 22  1  0  0  0  0
 21 23  2  0  0  0  0
 19 20  1  0  0  0  0
 19 21  1  0  0  0  0
 17 18  1  0  0  0  0
 17 19  2  0  0  0  0
 15 16  1  0  0  0  0
 15 17  1  0  0  0  0
 14 15  2  0  0  0  0
 14 23  1  0  0  0  0
 11 12  1  0  0  0  0
 11 13  1  0  0  0  0
 11 14  1  0  0  0  0
  9 10  1  0  0  0  0
  9 11  1  0  0  0  0
  9 25  1  0  0  0  0
  7  8  1  0  0  0  0
  7  9  1  0  0  0  0
 29 30  1  0  0  0  0
 29 31  1  0  0  0  0
 29 32  1  0  0  0  0
 27 28  1  0  0  0  0
 27 29  1  0  0  0  0
M  END
$$$$
default_name
  -OEChem-02102213163D

 32 32  0     1  0  0  0  0  0999 V2000
   -3.8405   -3.7518    1.6252 H   0  0  0  0  0  0  0  0  0  0  0  0
   -3.7965   -2.8768    0.9782 C   0  0  0  0  0  0  0  0  0  0  0  0
   -4.5465   -2.1527    1.2902 H   0  0  0  0  0  0  0  0  0  0  0  0
   -3.9745   -3.1748   -0.0538 H   0  0  0  0  0  0  0  0  0  0  0  0
   -2.4245   -2.2537    1.0882 C   0  0  0  0  0  0  0  0  0  0  0  0
   -1.5805   -2.7478    1.8242 O   0  0  0  0  0  0  0  0  0  0  0  0
   -2.2045   -1.1637    0.3562 N   0  0  0  0  0  0  0  0  0  0  0  0
   -2.9595   -0.7907   -0.2008 H   0  0  0  0  0  0  0  0  0  0  0  0
   -0.9485   -0.4087    0.3482 C   0  0  1  0  0  0  0  0  0  0  0  0
   -0.3666   -0.6914    1.2269 H   0  0  0  0  0  0  0  0  0  0  0  0
   -0.1405   -0.7797   -0.9072 C   0  0  0  0  0  0  0  0  0  0  0  0
    0.0601   -1.8520   -0.8964 H   0  0  0  0  0  0  0  0  0  0  0  0
   -0.7437   -0.5682   -1.7914 H   0  0  0  0  0  0  0  0  0  0  0  0
    1.1867   -0.0543   -1.0213 C   0  0  0  0  0  0  0  0  0  0  0  0
    2.1696   -0.5032   -1.9237 C   0  0  0  0  0  0  0  0  0  0  0  0
    1.9924   -1.3832   -2.5256 H   0  0  0  0  0  0  0  0  0  0  0  0
    3.3819    0.1992   -2.0537 C   0  0  0  0  0  0  0  0  0  0  0  0
    4.1364   -0.1487   -2.7454 H   0  0  0  0  0  0  0  0  0  0  0  0
    3.6129    1.3517   -1.2837 C   0  0  0  0  0  0  0  0  0  0  0  0
    4.5453    1.8899   -1.3820 H   0  0  0  0  0  0  0  0  0  0  0  0
    2.6334    1.8021   -0.3800 C   0  0  0  0  0  0  0  0  0  0  0  0
    2.8130    2.6850    0.2159 H   0  0  0  0  0  0  0  0  0  0  0  0
    1.4233    1.0982   -0.2478 C   0  0  0  0  0  0  0  0  0  0  0  0
    0.6720    1.4438    0.4502 H   0  0  0  0  0  0  0  0  0  0  0  0
   -1.2168    1.1047    0.4313 C   0  0  0  0  0  0  0  0  0  0  0  0
   -2.0890    1.6186   -0.2704 O   0  0  0  0  0  0  0  0  0  0  0  0
   -0.4674    1.8182    1.2813 N   0  0  0  0  0  0  0  0  0  0  0  0
    0.2640    1.3348    1.7800 H   0  0  0  0  0  0  0  0  0  0  0  0
   -0.5889    3.2615    1.4722 C   0  0  0  0  0  0  0  0  0  0  0  0
   -1.6291    3.5206    1.6805 H   0  0  0  0  0  0  0  0  0  0  0  0
    0.0359    3.5855    2.3049 H   0  0  0  0  0  0  0  0  0  0  0  0
   -0.2760    3.7797    0.5637 H   0  0  0  0  0  0  0  0  0  0  0  0
  5  6  2  0  0  0  0
  5  7  1  0  0  0  0
  2  3  1  0  0  0  0
  2  4  1  0  0  0  0
  2  5  1  0  0  0  0
  1  2  1  0  0  0  0
 25 26  2  0  0  0  0
 25 27  1  0  0  0  0
 23 24  1  0  0  0  0
 21 22  1  0  0  0  0
 21 23  2  0  0  0  0
 19 20  1  0  0  0  0
 19 21  1  0  0  0  0
 17 18  1  0  0  0  0
 17 19  2  0  0  0  0
 15 16  1  0  0  0  0
 15 17  1  0  0  0  0
 14 15  2  0  0  0  0
 14 23  1  0  0  0  0
 11 12  1  0  0  0  0
 11 13  1  0  0  0  0
 11 14  1  0  0  0  0
  9 10  1  0  0  0  0
  9 11  1  0  0  0  0
  9 25  1  0  0  0  0
  7  8  1  0  0  0  0
  7  9  1  0  0  0  0
 29 30  1  0  0  0  0
 29 31  1  0  0  0  0
 29 32  1  0  0  0  0
 27 28  1  0  0  0  0
 27 29  1  0  0  0  0
M  END
$$$$
default_name
  -OEChem-02102213163D

 32 32  0     1  0  0  0  0  0999 V2000
   -3.8405   -3.7518    1.6252 H   0  0  0  0  0  0  0  0  0  0  0  0
   -3.7965   -2.8768    0.9782 C   0  0  0  0  0  0  0  0  0  0  0  0
   -4.5465   -2.1527    1.2902 H   0  0  0  0  0  0  0  0  0  0  0  0
   -3.9745   -3.1748   -0.0538 H   0  0  0  0  0  0  0  0  0  0  0  0
   -2.4245   -2.2537    1.0882 C   0  0  0  0  0  0  0  0  0  0  0  0
   -1.5805   -2.7478    1.8242 O   0  0  0  0  0  0  0  0  0  0  0  0
   -2.2045   -1.1637    0.3562 N   0  0  0  0  0  0  0  0  0  0  0  0
   -2.9595   -0.7907   -0.2008 H   0  0  0  0  0  0  0  0  0  0  0  0
   -0.9485   -0.4087    0.3482 C   0  0  1  0  0  0  0  0  0  0  0  0
   -0.3666   -0.6914    1.2269 H   0  0  0  0  0  0  0  0  0  0  0  0
   -0.1405   -0.7797   -0.9072 C   0  0  0  0  0  0  0  0  0  0  0  0
   -0.1675   -1.8622   -1.0399 H   0  0  0  0  0  0  0  0  0  0  0  0
   -0.6169   -0.3307   -1.7800 H   0  0  0  0  0  0  0  0  0  0  0  0
    1.3129   -0.3489   -0.8531 C   0  0  0  0  0  0  0  0  0  0  0  0
    2.1776   -0.6195   -1.9305 C   0  0  0  0  0  0  0  0  0  0  0  0
    1.8154   -1.1575   -2.7952 H   0  0  0  0  0  0  0  0  0  0  0  0
    3.5138   -0.1804   -1.8906 C   0  0  0  0  0  0  0  0  0  0  0  0
    4.1768   -0.3915   -2.7179 H   0  0  0  0  0  0  0  0  0  0  0  0
    3.9871    0.5311   -0.7751 C   0  0  0  0  0  0  0  0  0  0  0  0
    5.0143    0.8664   -0.7435 H   0  0  0  0  0  0  0  0  0  0  0  0
    3.1260    0.8019    0.3039 C   0  0  0  0  0  0  0  0  0  0  0  0
    3.4911    1.3442    1.1638 H   0  0  0  0  0  0  0  0  0  0  0  0
    1.7916    0.3601    0.2652 C   0  0  0  0  0  0  0  0  0  0  0  0
    1.1311    0.5662    1.0974 H   0  0  0  0  0  0  0  0  0  0  0  0
   -1.2168    1.1047    0.4313 C   0  0  0  0  0  0  0  0  0  0  0  0
   -2.0890    1.6186   -0.2704 O   0  0  0  0  0  0  0  0  0  0  0  0
   -0.4674    1.8182    1.2813 N   0  0  0  0  0  0  0  0  0  0  0  0
    0.2640    1.3348    1.7800 H   0  0  0  0  0  0  0  0  0  0  0  0
   -0.5889    3.2615    1.4722 C   0  0  0  0  0  0  0  0  0  0  0  0
   -1.6291    3.5206    1.6805 H   0  0  0  0  0  0  0  0  0  0  0  0
    0.0359    3.5855    2.3049 H   0  0  0  0  0  0  0  0  0  0  0  0
   -0.2760    3.7797    0.5637 H   0  0  0  0  0  0  0  0  0  0  0  0
  5  6  2  0  0  0  0
  5  7  1  0  0  0  0
  2  3  1  0  0  0  0
  2  4  1  0  0  0  0
  2  5  1  0  0  0  0
  1  2  1  0  0  0  0
 25 26  2  0  0  0  0
 25 27  1  0  0  0  0
 23 24  1  0  0  0  0
 21 22  1  0  0  0  0
 21 23  2  0  0  0  0
 19 20  1  0  0  0  0
 19 21  1  0  0  0  0
 17 18  1  0  0  0  0
 17 19  2  0  0  0  0
 15 16  1  0  0  0  0
 15 17  1  0  0  0  0
 14 15  2  0  0  0  0
 14 23  1  0  0  0  0
 11 12  1  0  0  0  0
 11 13  1  0  0  0  0
 11 14  1  0  0  0  0
  9 10  1  0  0  0  0
  9 11  1  0  0  0  0
  9 25  1  0  0  0  0
  7  8  1  0  0  0  0
  7  9  1  0  0  0  0
 29 30  1  0  0  0  0
 29 31  1  0  0  0  0
 29 32  1  0  0  0  0
 27 28  1  0  0  0  0
 27 29  1  0  0  0  0
M  END
$$$$
default_name
  -OEChem-02102213163D

 32 32  0     1  0  0  0  0  0999 V2000
   -3.8405   -3.7518    1.6252 H   0  0  0  0  0  0  0  0  0  0  0  0
   -3.7965   -2.8768    0.9782 C   0  0  0  0  0  0  0  0  0  0  0  0
   -4.5465   -2.1527    1.2902 H   0  0  0  0  0  0  0  0  0  0  0  0
   -3.9745   -3.1748   -0.0538 H   0  0  0  0  0  0  0  0  0  0  0  0
   -2.4245   -2.2537    1.0882 C   0  0  0  0  0  0  0  0  0  0  0  0
   -1.5805   -2.7478    1.8242 O   0  0  0  0  0  0  0  0  0  0  0  0
   -2.2045   -1.1637    0.3562 N   0  0  0  0  0  0  0  0  0  0  0  0
   -2.9595   -0.7907   -0.2008 H   0  0  0  0  0  0  0  0  0  0  0  0
   -0.9485   -0.4087    0.3482 C   0  0  1  0  0  0  0  0  0  0  0  0
   -0.3666   -0.6914    1.2269 H   0  0  0  0  0  0  0  0  0  0  0  0
   -0.1405   -0.7797   -0.9072 C   0  0  0  0  0  0  0  0  0  0  0  0
   -0.1675   -1.8622   -1.0399 H   0  0  0  0  0  0  0  0  0  0  0  0
   -0.6169   -0.3307   -1.7800 H   0  0  0  0  0  0  0  0  0  0  0  0
    1.3129   -0.3489   -0.8531 C   0  0  0  0  0  0  0  0  0  0  0  0
    2.0947   -0.3282   -2.0236 C   0  0  0  0  0  0  0  0  0  0  0  0
    1.6690   -0.6419   -2.9663 H   0  0  0  0  0  0  0  0  0  0  0  0
    3.4302    0.1120   -1.9727 C   0  0  0  0  0  0  0  0  0  0  0  0
    4.0296    0.1246   -2.8722 H   0  0  0  0  0  0  0  0  0  0  0  0
    3.9855    0.5337   -0.7527 C   0  0  0  0  0  0  0  0  0  0  0  0
    5.0122    0.8697   -0.7132 H   0  0  0  0  0  0  0  0  0  0  0  0
    3.2074    0.5129    0.4191 C   0  0  0  0  0  0  0  0  0  0  0  0
    3.6357    0.8320    1.3580 H   0  0  0  0  0  0  0  0  0  0  0  0
    1.8738    0.0699    0.3686 C   0  0  0  0  0  0  0  0  0  0  0  0
    1.2773    0.0512    1.2714 H   0  0  0  0  0  0  0  0  0  0  0  0
   -1.2168    1.1047    0.4313 C   0  0  0  0  0  0  0  0  0  0  0  0
   -2.0890    1.6186   -0.2704 O   0  0  0  0  0  0  0  0  0  0  0  0
   -0.4674    1.8182    1.2813 N   0  0  0  0  0  0  0  0  0  0  0  0
    0.2640    1.3348    1.7800 H   0  0  0  0  0  0  0  0  0  0  0  0
   -0.5889    3.2615    1.4722 C   0  0  0  0  0  0  0  0  0  0  0  0
   -1.6291    3.5206    1.6805 H   0  0  0  0  0  0  0  0  0  0  0  0
    0.0359    3.5855    2.3049 H   0  0  0  0  0  0  0  0  0  0  0  0
   -0.2760    3.7797    0.5637 H   0  0  0  0  0  0  0  0  0  0  0  0
  5  6  2  0  0  0  0
  5  7  1  0  0  0  0
  2  3  1  0  0  0  0
  2  4  1  0  0  0  0
  2  5  1  0  0  0  0
  1  2  1  0  0  0  0
 25 26  2  0  0  0  0
 25 27  1  0  0  0  0
 23 24  1  0  0  0  0
 21 22  1  0  0  0  0
 21 23  2  0  0  0  0
 19 20  1  0  0  0  0
 19 21  1  0  0  0  0
 17 18  1  0  0  0  0
 17 19  2  0  0  0  0
 15 16  1  0  0  0  0
 15 17  1  0  0  0  0
 14 15  2  0  0  0  0
 14 23  1  0  0  0  0
 11 12  1  0  0  0  0
 11 13  1  0  0  0  0
 11 14  1  0  0  0  0
  9 10  1  0  0  0  0
  9 11  1  0  0  0  0
  9 25  1  0  0  0  0
  7  8  1  0  0  0  0
  7  9  1  0  0  0  0
 29 30  1  0  0  0  0
 29 31  1  0  0  0  0
 29 32  1  0  0  0  0
 27 28  1  0  0  0  0
 27 29  1  0  0  0  0
M  END
$$$$
default_name
  -OEChem-02102213163D

 32 32  0     1  0  0  0  0  0999 V2000
   -3.8405   -3.7518    1.6252 H   0  0  0  0  0  0  0  0  0  0  0  0
   -3.7965   -2.8768    0.9782 C   0  0  0  0  0  0  0  0  0  0  0  0
   -4.5465   -2.1527    1.2902 H   0  0  0  0  0  0  0  0  0  0  0  0
   -3.9745   -3.1748   -0.0538 H   0  0  0  0  0  0  0  0  0  0  0  0
   -2.4245   -2.2537    1.0882 C   0  0  0  0  0  0  0  0  0  0  0  0
   -1.5805   -2.7478    1.8242 O   0  0  0  0  0  0  0  0  0  0  0  0
   -2.2045   -1.1637    0.3562 N   0  0  0  0  0  0  0  0  0  0  0  0
   -2.9595   -0.7907   -0.2008 H   0  0  0  0  0  0  0  0  0  0  0  0
   -0.9485   -0.4087    0.3482 C   0  0  1  0  0  0  0  0  0  0  0  0
   -0.3666   -0.6914    1.2269 H   0  0  0  0  0  0  0  0  0  0  0  0
   -0.1405   -0.7797   -0.9072 C   0  0  0  0  0  0  0  0  0  0  0  0
   -0.1675   -1.8622   -1.0399 H   0  0  0  0  0  0  0  0  0  0  0  0
   -0.6169   -0.3307   -1.7800 H   0  0  0  0  0  0  0  0  0  0  0  0
    1.3129   -0.3489   -0.8531 C   0  0  0  0  0  0  0  0  0  0  0  0
    2.0051   -0.0245   -2.0352 C   0  0  0  0  0  0  0  0  0  0  0  0
    1.5101   -0.1028   -2.9929 H   0  0  0  0  0  0  0  0  0  0  0  0
    3.3407    0.4140   -1.9733 C   0  0  0  0  0  0  0  0  0  0  0  0
    3.8712    0.6601   -2.8825 H   0  0  0  0  0  0  0  0  0  0  0  0
    3.9855    0.5307   -0.7303 C   0  0  0  0  0  0  0  0  0  0  0  0
    5.0124    0.8653   -0.6830 H   0  0  0  0  0  0  0  0  0  0  0  0
    3.2971    0.2059    0.4528 C   0  0  0  0  0  0  0  0  0  0  0  0
    3.7944    0.2904    1.4080 H   0  0  0  0  0  0  0  0  0  0  0  0
    1.9635   -0.2354    0.3904 C   0  0  0  0  0  0  0  0  0  0  0  0
    1.4360   -0.4881    1.3010 H   0  0  0  0  0  0  0  0  0  0  0  0
   -1.2168    1.1047    0.4313 C   0  0  0  0  0  0  0  0  0  0  0  0
   -2.0890    1.6186   -0.2704 O   0  0  0  0  0  0  0  0  0  0  0  0
   -0.4674    1.8182    1.2813 N   0  0  0  0  0  0  0  0  0  0  0  0
    0.2640    1.3348    1.7800 H   0  0  0  0  0  0  0  0  0  0  0  0
   -0.5889    3.2615    1.4722 C   0  0  0  0  0  0  0  0  0  0  0  0
   -1.6291    3.5206    1.6805 H   0  0  0  0  0  0  0  0  0  0  0  0
    0.0359    3.5855    2.3049 H   0  0  0  0  0  0  0  0  0  0  0  0
   -0.2760    3.7797    0.5637 H   0  0  0  0  0  0  0  0  0  0  0  0
  5  6  2  0  0  0  0
  5  7  1  0  0  0  0
  2  3  1  0  0  0  0
  2  4  1  0  0  0  0
  2  5  1  0  0  0  0
  1  2  1  0  0  0  0
 25 26  2  0  0  0  0
 25 27  1  0  0  0  0
 23 24  1  0  0  0  0
 21 22  1  0  0  0  0
 21 23  2  0  0  0  0
 19 20  1  0  0  0  0
 19 21  1  0  0  0  0
 17 18  1  0  0  0  0
 17 19  2  0  0  0  0
 15 16  1  0  0  0  0
 15 17  1  0  0  0  0
 14 15  2  0  0  0  0
 14 23  1  0  0  0  0
 11 12  1  0  0  0  0
 11 13  1  0  0  0  0
 11 14  1  0  0  0  0
  9 10  1  0  0  0  0
  9 11  1  0  0  0  0
  9 25  1  0  0  0  0
  7  8  1  0  0  0  0
  7  9  1  0  0  0  0
 29 30  1  0  0  0  0
 29 31  1  0  0  0  0
 29 32  1  0  0  0  0
 27 28  1  0  0  0  0
 27 29  1  0  0  0  0
M  END
$$$$
default_name
  -OEChem-02102213163D

 32 32  0     1  0  0  0  0  0999 V2000
   -3.8405   -3.7518    1.6252 H   0  0  0  0  0  0  0  0  0  0  0  0
   -3.7965   -2.8768    0.9782 C   0  0  0  0  0  0  0  0  0  0  0  0
   -4.5465   -2.1527    1.2902 H   0  0  0  0  0  0  0  0  0  0  0  0
   -3.9745   -3.1748   -0.0538 H   0  0  0  0  0  0  0  0  0  0  0  0
   -2.4245   -2.2537    1.0882 C   0  0  0  0  0  0  0  0  0  0  0  0
   -1.5805   -2.7478    1.8242 O   0  0  0  0  0  0  0  0  0  0  0  0
   -2.2045   -1.1637    0.3562 N   0  0  0  0  0  0  0  0  0  0  0  0
   -2.9595   -0.7907   -0.2008 H   0  0  0  0  0  0  0  0  0  0  0  0
   -0.9485   -0.4087    0.3482 C   0  0  1  0  0  0  0  0  0  0  0  0
   -0.3666   -0.6914    1.2269 H   0  0  0  0  0  0  0  0  0  0  0  0
   -0.1405   -0.7797   -0.9072 C   0  0  0  0  0  0  0  0  0  0  0  0
   -0.1675   -1.8622   -1.0399 H   0  0  0  0  0  0  0  0  0  0  0  0
   -0.6169   -0.3307   -1.7800 H   0  0  0  0  0  0  0  0  0  0  0  0
    1.3129   -0.3489   -0.8531 C   0  0  0  0  0  0  0  0  0  0  0  0
    1.9149    0.2709   -1.9645 C   0  0  0  0  0  0  0  0  0  0  0  0
    1.3498    0.4231   -2.8732 H   0  0  0  0  0  0  0  0  0  0  0  0
    3.2514    0.7050   -1.8925 C   0  0  0  0  0  0  0  0  0  0  0  0
    3.7126    1.1784   -2.7479 H   0  0  0  0  0  0  0  0  0  0  0  0
    3.9873    0.5222   -0.7094 C   0  0  0  0  0  0  0  0  0  0  0  0
    5.0148    0.8536   -0.6549 H   0  0  0  0  0  0  0  0  0  0  0  0
    3.3891   -0.0981    0.4026 C   0  0  0  0  0  0  0  0  0  0  0  0
    3.9563   -0.2436    1.3102 H   0  0  0  0  0  0  0  0  0  0  0  0
    2.0545   -0.5348    0.3292 C   0  0  0  0  0  0  0  0  0  0  0  0
    1.5965   -1.0149    1.1842 H   0  0  0  0  0  0  0  0  0  0  0  0
   -1.2168    1.1047    0.4313 C   0  0  0  0  0  0  0  0  0  0  0  0
   -2.0890    1.6186   -0.2704 O   0  0  0  0  0  0  0  0  0  0  0  0
   -0.4674    1.8182    1.2813 N   0  0  0  0  0  0  0  0  0  0  0  0
    0.2640    1.3348    1.7800 H   0  0  0  0  0  0  0  0  0  0  0  0
   -0.5889    3.2615    1.4722 C   0  0  0  0  0  0  0  0  0  0  0  0
   -1.6291    3.5206    1.6805 H   0  0  0  0  0  0  0  0  0  0  0  0
    0.0359    3.5855    2.3049 H   0  0  0  0  0  0  0  0  0  0  0  0
   -0.2760    3.7797    0.5637 H   0  0  0  0  0  0  0  0  0  0  0  0
  5  6  2  0  0  0  0
  5  7  1  0  0  0  0
  2  3  1  0  0  0  0
  2  4  1  0  0  0  0
  2  5  1  0  0  0  0
  1  2  1  0  0  0  0
 25 26  2  0  0  0  0
 25 27  1  0  0  0  0
 23 24  1  0  0  0  0
 21 22  1  0  0  0  0
 21 23  2  0  0  0  0
 19 20  1  0  0  0  0
 19 21  1  0  0  0  0
 17 18  1  0  0  0  0
 17 19  2  0  0  0  0
 15 16  1  0  0  0  0
 15 17  1  0  0  0  0
 14 15  2  0  0  0  0
 14 23  1  0  0  0  0
 11 12  1  0  0  0  0
 11 13  1  0  0  0  0
 11 14  1  0  0  0  0
  9 10  1  0  0  0  0
  9 11  1  0  0  0  0
  9 25  1  0  0  0  0
  7  8  1  0  0  0  0
  7  9  1  0  0  0  0
 29 30  1  0  0  0  0
 29 31  1  0  0  0  0
 29 32  1  0  0  0  0
 27 28  1  0  0  0  0
 27 29  1  0  0  0  0
M  END
$$$$
default_name
  -OEChem-02102213163D

 32 32  0     1  0  0  0  0  0999 V2000
   -3.8405   -3.7518    1.6252 H   0  0  0  0  0  0  0  0  0  0  0  0
   -3.7965   -2.8768    0.9782 C   0  0  0  0  0  0  0  0  0  0  0  0
   -4.5465   -2.1527    1.2902 H   0  0  0  0  0  0  0  0  0  0  0  0
   -3.9745   -3.1748   -0.0538 H   0  0  0  0  0  0  0  0  0  0  0  0
   -2.4245   -2.2537    1.0882 C   0  0  0  0  0  0  0  0  0  0  0  0
   -1.5805   -2.7478    1.8242 O   0  0  0  0  0  0  0  0  0  0  0  0
   -2.2045   -1.1637    0.3562 N   0  0  0  0  0  0  0  0  0  0  0  0
   -2.9595   -0.7907   -0.2008 H   0  0  0  0  0  0  0  0  0  0  0  0
   -0.9485   -0.4087    0.3482 C   0  0  1  0  0  0  0  0  0  0  0  0
   -0.3666   -0.6914    1.2269 H   0  0  0  0  0  0  0  0  0  0  0  0
   -0.1405   -0.7797   -0.9072 C   0  0  0  0  0  0  0  0  0  0  0  0
   -0.1675   -1.8622   -1.0399 H   0  0  0  0  0  0  0  0  0  0  0  0
   -0.6169   -0.3307   -1.7800 H   0  0  0  0  0  0  0  0  0  0  0  0
    1.3129   -0.3489   -0.8531 C   0  0  0  0  0  0  0  0  0  0  0  0
    1.8303    0.5379   -1.8163 C   0  0  0  0  0  0  0  0  0  0  0  0
    1.1989    0.8999   -2.6155 H   0  0  0  0  0  0  0  0  0  0  0  0
    3.1684    0.9653   -1.7356 C   0  0  0  0  0  0  0  0  0  0  0  0
    3.5644    1.6442   -2.4778 H   0  0  0  0  0  0  0  0  0  0  0  0
    3.9906    0.5088   -0.6914 C   0  0  0  0  0  0  0  0  0  0  0  0
    5.0193    0.8354   -0.6308 H   0  0  0  0  0  0  0  0  0  0  0  0
    3.4771   -0.3785    0.2719 C   0  0  0  0  0  0  0  0  0  0  0  0
    4.1105   -0.7337    1.0715 H   0  0  0  0  0  0  0  0  0  0  0  0
    2.1407   -0.8081    0.1891 C   0  0  0  0  0  0  0  0  0  0  0  0
    1.7479   -1.4933    0.9290 H   0  0  0  0  0  0  0  0  0  0  0  0
   -1.2168    1.1047    0.4313 C   0  0  0  0  0  0  0  0  0  0  0  0
   -2.0890    1.6186   -0.2704 O   0  0  0  0  0  0  0  0  0  0  0  0
   -0.4674    1.8182    1.2813 N   0  0  0  0  0  0  0  0  0  0  0  0
    0.2640    1.3348    1.7800 H   0  0  0  0  0  0  0  0  0  0  0  0
   -0.5889    3.2615    1.4722 C   0  0  0  0  0  0  0  0  0  0  0  0
   -1.6291    3.5206    1.6805 H   0  0  0  0  0  0  0  0  0  0  0  0
    0.0359    3.5855    2.3049 H   0  0  0  0  0  0  0  0  0  0  0  0
   -0.2760    3.7797    0.5637 H   0  0  0  0  0  0  0  0  0  0  0  0
  5  6  2  0  0  0  0
  5  7  1  0  0  0  0
  2  3  1  0  0  0  0
  2  4  1  0  0  0  0
  2  5  1  0  0  0  0
  1  2  1  0  0  0  0
 25 26  2  0  0  0  0
 25 27  1  0  0  0  0
 23 24  1  0  0  0  0
 21 22  1  0  0  0  0
 21 23  2  0  0  0  0
 19 20  1  0  0  0  0
 19 21  1  0  0  0  0
 17 18  1  0  0  0  0
 17 19  2  0  0  0  0
 15 16  1  0  0  0  0
 15 17  1  0  0  0  0
 14 15  2  0  0  0  0
 14 23  1  0  0  0  0
 11 12  1  0  0  0  0
 11 13  1  0  0  0  0
 11 14  1  0  0  0  0
  9 10  1  0  0  0  0
  9 11  1  0  0  0  0
  9 25  1  0  0  0  0
  7  8  1  0  0  0  0
  7  9  1  0  0  0  0
 29 30  1  0  0  0  0
 29 31  1  0  0  0  0
 29 32  1  0  0  0  0
 27 28  1  0  0  0  0
 27 29  1  0  0  0  0
M  END
$$$$
default_name
  -OEChem-02102213163D

 32 32  0     1  0  0  0  0  0999 V2000
   -3.8405   -3.7518    1.6252 H   0  0  0  0  0  0  0  0  0  0  0  0
   -3.7965   -2.8768    0.9782 C   0  0  0  0  0  0  0  0  0  0  0  0
   -4.5465   -2.1527    1.2902 H   0  0  0  0  0  0  0  0  0  0  0  0
   -3.9745   -3.1748   -0.0538 H   0  0  0  0  0  0  0  0  0  0  0  0
   -2.4245   -2.2537    1.0882 C   0  0  0  0  0  0  0  0  0  0  0  0
   -1.5805   -2.7478    1.8242 O   0  0  0  0  0  0  0  0  0  0  0  0
   -2.2045   -1.1637    0.3562 N   0  0  0  0  0  0  0  0  0  0  0  0
   -2.9595   -0.7907   -0.2008 H   0  0  0  0  0  0  0  0  0  0  0  0
   -0.9485   -0.4087    0.3482 C   0  0  1  0  0  0  0  0  0  0  0  0
   -0.3666   -0.6914    1.2269 H   0  0  0  0  0  0  0  0  0  0  0  0
   -0.1405   -0.7797   -0.9072 C   0  0  0  0  0  0  0  0  0  0  0  0
   -0.1675   -1.8622   -1.0399 H   0  0  0  0  0  0  0  0  0  0  0  0
   -0.6169   -0.3307   -1.7800 H   0  0  0  0  0  0  0  0  0  0  0  0
    1.3129   -0.3489   -0.8531 C   0  0  0  0  0  0  0  0  0  0  0  0
    1.7569    0.7582   -1.6008 C   0  0  0  0  0  0  0  0  0  0  0  0
    1.0676    1.2951   -2.2371 H   0  0  0  0  0  0  0  0  0  0  0  0
    3.0974    1.1770   -1.5135 C   0  0  0  0  0  0  0  0  0  0  0  0
    3.4369    2.0258   -2.0905 H   0  0  0  0  0  0  0  0  0  0  0  0
    3.9952    0.4915   -0.6777 C   0  0  0  0  0  0  0  0  0  0  0  0
    5.0256    0.8118   -0.6125 H   0  0  0  0  0  0  0  0  0  0  0  0
    3.5551   -0.6161    0.0697 C   0  0  0  0  0  0  0  0  0  0  0  0
    4.2464   -1.1465    0.7080 H   0  0  0  0  0  0  0  0  0  0  0  0
    2.2162   -1.0364   -0.0203 C   0  0  0  0  0  0  0  0  0  0  0  0
    1.8797   -1.8907    0.5526 H   0  0  0  0  0  0  0  0  0  0  0  0
   -1.2168    1.1047    0.4313 C   0  0  0  0  0  0  0  0  0  0  0  0
   -2.0890    1.6186   -0.2704 O   0  0  0  0  0  0  0  0  0  0  0  0
   -0.4674    1.8182    1.2813 N   0  0  0  0  0  0  0  0  0  0  0  0
    0.2640    1.3348    1.7800 H   0  0  0  0  0  0  0  0  0  0  0  0
   -0.5889    3.2615    1.4722 C   0  0  0  0  0  0  0  0  0  0  0  0
   -1.6291    3.5206    1.6805 H   0  0  0  0  0  0  0  0  0  0  0  0
    0.0359    3.5855    2.3049 H   0  0  0  0  0  0  0  0  0  0  0  0
   -0.2760    3.7797    0.5637 H   0  0  0  0  0  0  0  0  0  0  0  0
  5  6  2  0  0  0  0
  5  7  1  0  0  0  0
  2  3  1  0  0  0  0
  2  4  1  0  0  0  0
  2  5  1  0  0  0  0
  1  2  1  0  0  0  0
 25 26  2  0  0  0  0
 25 27  1  0  0  0  0
 23 24  1  0  0  0  0
 21 22  1  0  0  0  0
 21 23  2  0  0  0  0
 19 20  1  0  0  0  0
 19 21  1  0  0  0  0
 17 18  1  0  0  0  0
 17 19  2  0  0  0  0
 15 16  1  0  0  0  0
 15 17  1  0  0  0  0
 14 15  2  0  0  0  0
 14 23  1  0  0  0  0
 11 12  1  0  0  0  0
 11 13  1  0  0  0  0
 11 14  1  0  0  0  0
  9 10  1  0  0  0  0
  9 11  1  0  0  0  0
  9 25  1  0  0  0  0
  7  8  1  0  0  0  0
  7  9  1  0  0  0  0
 29 30  1  0  0  0  0
 29 31  1  0  0  0  0
 29 32  1  0  0  0  0
 27 28  1  0  0  0  0
 27 29  1  0  0  0  0
M  END
$$$$
default_name
  -OEChem-02102213163D

 32 32  0     1  0  0  0  0  0999 V2000
   -3.8405   -3.7518    1.6252 H   0  0  0  0  0  0  0  0  0  0  0  0
   -3.7965   -2.8768    0.9782 C   0  0  0  0  0  0  0  0  0  0  0  0
   -4.5465   -2.1527    1.2902 H   0  0  0  0  0  0  0  0  0  0  0  0
   -3.9745   -3.1748   -0.0538 H   0  0  0  0  0  0  0  0  0  0  0  0
   -2.4245   -2.2537    1.0882 C   0  0  0  0  0  0  0  0  0  0  0  0
   -1.5805   -2.7478    1.8242 O   0  0  0  0  0  0  0  0  0  0  0  0
   -2.2045   -1.1637    0.3562 N   0  0  0  0  0  0  0  0  0  0  0  0
   -2.9595   -0.7907   -0.2008 H   0  0  0  0  0  0  0  0  0  0  0  0
   -0.9485   -0.4087    0.3482 C   0  0  1  0  0  0  0  0  0  0  0  0
   -0.3666   -0.6914    1.2269 H   0  0  0  0  0  0  0  0  0  0  0  0
   -0.1405   -0.7797   -0.9072 C   0  0  0  0  0  0  0  0  0  0  0  0
   -0.1675   -1.8622   -1.0399 H   0  0  0  0  0  0  0  0  0  0  0  0
   -0.6169   -0.3307   -1.7800 H   0  0  0  0  0  0  0  0  0  0  0  0
    1.3129   -0.3489   -0.8531 C   0  0  0  0  0  0  0  0  0  0  0  0
    1.6999    0.9169   -1.3325 C   0  0  0  0  0  0  0  0  0  0  0  0
    0.9650    1.5818   -1.7640 H   0  0  0  0  0  0  0  0  0  0  0  0
    3.0432    1.3258   -1.2412 C   0  0  0  0  0  0  0  0  0  0  0  0
    3.3387    2.2971   -1.6123 H   0  0  0  0  0  0  0  0  0  0  0  0
    4.0009    0.4714   -0.6690 C   0  0  0  0  0  0  0  0  0  0  0  0
    5.0333    0.7846   -0.6010 H   0  0  0  0  0  0  0  0  0  0  0  0
    3.6177   -0.7947   -0.1903 C   0  0  0  0  0  0  0  0  0  0  0  0
    4.3547   -1.4538    0.2446 H   0  0  0  0  0  0  0  0  0  0  0  0
    2.2758   -1.2044   -0.2847 C   0  0  0  0  0  0  0  0  0  0  0  0
    1.9830   -2.1801    0.0809 H   0  0  0  0  0  0  0  0  0  0  0  0
   -1.2168    1.1047    0.4313 C   0  0  0  0  0  0  0  0  0  0  0  0
   -2.0890    1.6186   -0.2704 O   0  0  0  0  0  0  0  0  0  0  0  0
   -0.4674    1.8182    1.2813 N   0  0  0  0  0  0  0  0  0  0  0  0
    0.2640    1.3348    1.7800 H   0  0  0  0  0  0  0  0  0  0  0  0
   -0.5889    3.2615    1.4722 C   0  0  0  0  0  0  0  0  0  0  0  0
   -1.6291    3.5206    1.6805 H   0  0  0  0  0  0  0  0  0  0  0  0
    0.0359    3.5855    2.3049 H   0  0  0  0  0  0  0  0  0  0  0  0
   -0.2760    3.7797    0.5637 H   0  0  0  0  0  0  0  0  0  0  0  0
  5  6  2  0  0  0  0
  5  7  1  0  0  0  0
  2  3  1  0  0  0  0
  2  4  1  0  0  0  0
  2  5  1  0  0  0  0
  1  2  1  0  0  0  0
 25 26  2  0  0  0  0
 25 27  1  0  0  0  0
 23 24  1  0  0  0  0
 21 22  1  0  0  0  0
 21 23  2  0  0  0  0
 19 20  1  0  0  0  0
 19 21  1  0  0  0  0
 17 18  1  0  0  0  0
 17 19  2  0  0  0  0
 15 16  1  0  0  0  0
 15 17  1  0  0  0  0
 14 15  2  0  0  0  0
 14 23  1  0  0  0  0
 11 12  1  0  0  0  0
 11 13  1  0  0  0  0
 11 14  1  0  0  0  0
  9 10  1  0  0  0  0
  9 11  1  0  0  0  0
  9 25  1  0  0  0  0
  7  8  1  0  0  0  0
  7  9  1  0  0  0  0
 29 30  1  0  0  0  0
 29 31  1  0  0  0  0
 29 32  1  0  0  0  0
 27 28  1  0  0  0  0
 27 29  1  0  0  0  0
M  END
$$$$
default_name
  -OEChem-02102213163D

 32 32  0     1  0  0  0  0  0999 V2000
   -3.8405   -3.7518    1.6252 H   0  0  0  0  0  0  0  0  0  0  0  0
   -3.7965   -2.8768    0.9782 C   0  0  0  0  0  0  0  0  0  0  0  0
   -4.5465   -2.1527    1.2902 H   0  0  0  0  0  0  0  0  0  0  0  0
   -3.9745   -3.1748   -0.0538 H   0  0  0  0  0  0  0  0  0  0  0  0
   -2.4245   -2.2537    1.0882 C   0  0  0  0  0  0  0  0  0  0  0  0
   -1.5805   -2.7478    1.8242 O   0  0  0  0  0  0  0  0  0  0  0  0
   -2.2045   -1.1637    0.3562 N   0  0  0  0  0  0  0  0  0  0  0  0
   -2.9595   -0.7907   -0.2008 H   0  0  0  0  0  0  0  0  0  0  0  0
   -0.9485   -0.4087    0.3482 C   0  0  1  0  0  0  0  0  0  0  0  0
   -0.3666   -0.6914    1.2269 H   0  0  0  0  0  0  0  0  0  0  0  0
   -0.1405   -0.7797   -0.9072 C   0  0  0  0  0  0  0  0  0  0  0  0
   -0.1675   -1.8622   -1.0399 H   0  0  0  0  0  0  0  0  0  0  0  0
   -0.6169   -0.3307   -1.7800 H   0  0  0  0  0  0  0  0  0  0  0  0
    1.3129   -0.3489   -0.8531 C   0  0  0  0  0  0  0  0  0  0  0  0
    1.6631    1.0032   -1.0299 C   0  0  0  0  0  0  0  0  0  0  0  0
    0.8981    1.7405   -1.2284 H   0  0  0  0  0  0  0  0  0  0  0  0
    3.0094    1.4015   -0.9373 C   0  0  0  0  0  0  0  0  0  0  0  0
    3.2764    2.4397   -1.0760 H   0  0  0  0  0  0  0  0  0  0  0  0
    4.0071    0.4498   -0.6661 C   0  0  0  0  0  0  0  0  0  0  0  0
    5.0418    0.7555   -0.5973 H   0  0  0  0  0  0  0  0  0  0  0  0
    3.6608   -0.9023   -0.4903 C   0  0  0  0  0  0  0  0  0  0  0  0
    4.4282   -1.6348   -0.2872 H   0  0  0  0  0  0  0  0  0  0  0  0
    2.3156   -1.3006   -0.5862 C   0  0  0  0  0  0  0  0  0  0  0  0
    2.0508   -2.3416   -0.4541 H   0  0  0  0  0  0  0  0  0  0  0  0
   -1.2168    1.1047    0.4313 C   0  0  0  0  0  0  0  0  0  0  0  0
   -2.0890    1.6186   -0.2704 O   0  0  0  0  0  0  0  0  0  0  0  0
   -0.4674    1.8182    1.2813 N   0  0  0  0  0  0  0  0  0  0  0  0
    0.2640    1.3348    1.7800 H   0  0  0  0  0  0  0  0  0  0  0  0
   -0.5889    3.2615    1.4722 C   0  0  0  0  0  0  0  0  0  0  0  0
   -1.6291    3.5206    1.6805 H   0  0  0  0  0  0  0  0  0  0  0  0
    0.0359    3.5855    2.3049 H   0  0  0  0  0  0  0  0  0  0  0  0
   -0.2760    3.7797    0.5637 H   0  0  0  0  0  0  0  0  0  0  0  0
  5  6  2  0  0  0  0
  5  7  1  0  0  0  0
  2  3  1  0  0  0  0
  2  4  1  0  0  0  0
  2  5  1  0  0  0  0
  1  2  1  0  0  0  0
 25 26  2  0  0  0  0
 25 27  1  0  0  0  0
 23 24  1  0  0  0  0
 21 22  1  0  0  0  0
 21 23  2  0  0  0  0
 19 20  1  0  0  0  0
 19 21  1  0  0  0  0
 17 18  1  0  0  0  0
 17 19  2  0  0  0  0
 15 16  1  0  0  0  0
 15 17  1  0  0  0  0
 14 15  2  0  0  0  0
 14 23  1  0  0  0  0
 11 12  1  0  0  0  0
 11 13  1  0  0  0  0
 11 14  1  0  0  0  0
  9 10  1  0  0  0  0
  9 11  1  0  0  0  0
  9 25  1  0  0  0  0
  7  8  1  0  0  0  0
  7  9  1  0  0  0  0
 29 30  1  0  0  0  0
 29 31  1  0  0  0  0
 29 32  1  0  0  0  0
 27 28  1  0  0  0  0
 27 29  1  0  0  0  0
M  END
$$$$
default_name
  -OEChem-02102213163D

 32 32  0     1  0  0  0  0  0999 V2000
   -3.8405   -3.7518    1.6252 H   0  0  0  0  0  0  0  0  0  0  0  0
   -3.7965   -2.8768    0.9782 C   0  0  0  0  0  0  0  0  0  0  0  0
   -4.5465   -2.1527    1.2902 H   0  0  0  0  0  0  0  0  0  0  0  0
   -3.9745   -3.1748   -0.0538 H   0  0  0  0  0  0  0  0  0  0  0  0
   -2.4245   -2.2537    1.0882 C   0  0  0  0  0  0  0  0  0  0  0  0
   -1.5805   -2.7478    1.8242 O   0  0  0  0  0  0  0  0  0  0  0  0
   -2.2045   -1.1637    0.3562 N   0  0  0  0  0  0  0  0  0  0  0  0
   -2.9595   -0.7907   -0.2008 H   0  0  0  0  0  0  0  0  0  0  0  0
   -0.9485   -0.4087    0.3482 C   0  0  1  0  0  0  0  0  0  0  0  0
   -0.3666   -0.6914    1.2269 H   0  0  0  0  0  0  0  0  0  0  0  0
   -0.1405   -0.7797   -0.9072 C   0  0  0  0  0  0  0  0  0  0  0  0
   -0.1675   -1.8622   -1.0399 H   0  0  0  0  0  0  0  0  0  0  0  0
   -0.6169   -0.3307   -1.7800 H   0  0  0  0  0  0  0  0  0  0  0  0
    1.3129   -0.3489   -0.8531 C   0  0  0  0  0  0  0  0  0  0  0  0
    1.6489    1.0111   -0.7135 C   0  0  0  0  0  0  0  0  0  0  0  0
    0.8713    1.7603   -0.6668 H   0  0  0  0  0  0  0  0  0  0  0  0
    2.9985    1.3989   -0.6225 C   0  0  0  0  0  0  0  0  0  0  0  0
    3.2544    2.4439   -0.5179 H   0  0  0  0  0  0  0  0  0  0  0  0
    4.0136    0.4284   -0.6690 C   0  0  0  0  0  0  0  0  0  0  0  0
    5.0505    0.7266   -0.6015 H   0  0  0  0  0  0  0  0  0  0  0  0
    3.6813   -0.9313   -0.8100 C   0  0  0  0  0  0  0  0  0  0  0  0
    4.4617   -1.6769   -0.8512 H   0  0  0  0  0  0  0  0  0  0  0  0
    2.3327   -1.3183   -0.9041 C   0  0  0  0  0  0  0  0  0  0  0  0
    2.0784   -2.3643   -1.0159 H   0  0  0  0  0  0  0  0  0  0  0  0
   -1.2168    1.1047    0.4313 C   0  0  0  0  0  0  0  0  0  0  0  0
   -2.0890    1.6186   -0.2704 O   0  0  0  0  0  0  0  0  0  0  0  0
   -0.4674    1.8182    1.2813 N   0  0  0  0  0  0  0  0  0  0  0  0
    0.2640    1.3348    1.7800 H   0  0  0  0  0  0  0  0  0  0  0  0
   -0.5889    3.2615    1.4722 C   0  0  0  0  0  0  0  0  0  0  0  0
   -1.6291    3.5206    1.6805 H   0  0  0  0  0  0  0  0  0  0  0  0
    0.0359    3.5855    2.3049 H   0  0  0  0  0  0  0  0  0  0  0  0
   -0.2760    3.7797    0.5637 H   0  0  0  0  0  0  0  0  0  0  0  0
  5  6  2  0  0  0  0
  5  7  1  0  0  0  0
  2  3  1  0  0  0  0
  2  4  1  0  0  0  0
  2  5  1  0  0  0  0
  1  2  1  0  0  0  0
 25 26  2  0  0  0  0
 25 27  1  0  0  0  0
 23 24  1  0  0  0  0
 21 22  1  0  0  0  0
 21 23  2  0  0  0  0
 19 20  1  0  0  0  0
 19 21  1  0  0  0  0
 17 18  1  0  0  0  0
 17 19  2  0  0  0  0
 15 16  1  0  0  0  0
 15 17  1  0  0  0  0
 14 15  2  0  0  0  0
 14 23  1  0  0  0  0
 11 12  1  0  0  0  0
 11 13  1  0  0  0  0
 11 14  1  0  0  0  0
  9 10  1  0  0  0  0
  9 11  1  0  0  0  0
  9 25  1  0  0  0  0
  7  8  1  0  0  0  0
  7  9  1  0  0  0  0
 29 30  1  0  0  0  0
 29 31  1  0  0  0  0
 29 32  1  0  0  0  0
 27 28  1  0  0  0  0
 27 29  1  0  0  0  0
M  END
$$$$
default_name
  -OEChem-02102213163D

 32 32  0     1  0  0  0  0  0999 V2000
   -3.8405   -3.7518    1.6252 H   0  0  0  0  0  0  0  0  0  0  0  0
   -3.7965   -2.8768    0.9782 C   0  0  0  0  0  0  0  0  0  0  0  0
   -4.5465   -2.1527    1.2902 H   0  0  0  0  0  0  0  0  0  0  0  0
   -3.9745   -3.1748   -0.0538 H   0  0  0  0  0  0  0  0  0  0  0  0
   -2.4245   -2.2537    1.0882 C   0  0  0  0  0  0  0  0  0  0  0  0
   -1.5805   -2.7478    1.8242 O   0  0  0  0  0  0  0  0  0  0  0  0
   -2.2045   -1.1637    0.3562 N   0  0  0  0  0  0  0  0  0  0  0  0
   -2.9595   -0.7907   -0.2008 H   0  0  0  0  0  0  0  0  0  0  0  0
   -0.9485   -0.4087    0.3482 C   0  0  1  0  0  0  0  0  0  0  0  0
   -0.3666   -0.6914    1.2269 H   0  0  0  0  0  0  0  0  0  0  0  0
   -0.1405   -0.7797   -0.9072 C   0  0  0  0  0  0  0  0  0  0  0  0
   -0.1675   -1.8622   -1.0399 H   0  0  0  0  0  0  0  0  0  0  0  0
   -0.6169   -0.3307   -1.7800 H   0  0  0  0  0  0  0  0  0  0  0  0
    1.3129   -0.3489   -0.8531 C   0  0  0  0  0  0  0  0  0  0  0  0
    1.6585    0.9401   -0.4048 C   0  0  0  0  0  0  0  0  0  0  0  0
    0.8865    1.6399   -0.1174 H   0  0  0  0  0  0  0  0  0  0  0  0
    3.0110    1.3182   -0.3183 C   0  0  0  0  0  0  0  0  0  0  0  0
    3.2741    2.3094    0.0238 H   0  0  0  0  0  0  0  0  0  0  0  0
    4.0198    0.4084   -0.6776 C   0  0  0  0  0  0  0  0  0  0  0  0
    5.0589    0.6998   -0.6134 H   0  0  0  0  0  0  0  0  0  0  0  0
    3.6779   -0.8799   -1.1274 C   0  0  0  0  0  0  0  0  0  0  0  0
    4.4530   -1.5775   -1.4089 H   0  0  0  0  0  0  0  0  0  0  0  0
    2.3260   -1.2564   -1.2169 C   0  0  0  0  0  0  0  0  0  0  0  0
    2.0641   -2.2467   -1.5663 H   0  0  0  0  0  0  0  0  0  0  0  0
   -1.2168    1.1047    0.4313 C   0  0  0  0  0  0  0  0  0  0  0  0
   -2.0890    1.6186   -0.2704 O   0  0  0  0  0  0  0  0  0  0  0  0
   -0.4674    1.8182    1.2813 N   0  0  0  0  0  0  0  0  0  0  0  0
    0.2640    1.3348    1.7800 H   0  0  0  0  0  0  0  0  0  0  0  0
   -0.5889    3.2615    1.4722 C   0  0  0  0  0  0  0  0  0  0  0  0
   -1.6291    3.5206    1.6805 H   0  0  0  0  0  0  0  0  0  0  0  0
    0.0359    3.5855    2.3049 H   0  0  0  0  0  0  0  0  0  0  0  0
   -0.2760    3.7797    0.5637 H   0  0  0  0  0  0  0  0  0  0  0  0
  5  6  2  0  0  0  0
  5  7  1  0  0  0  0
  2  3  1  0  0  0  0
  2  4  1  0  0  0  0
  2  5  1  0  0  0  0
  1  2  1  0  0  0  0
 25 26  2  0  0  0  0
 25 27  1  0  0  0  0
 23 24  1  0  0  0  0
 21 22  1  0  0  0  0
 21 23  2  0  0  0  0
 19 20  1  0  0  0  0
 19 21  1  0  0  0  0
 17 18  1  0  0  0  0
 17 19  2  0  0  0  0
 15 16  1  0  0  0  0
 15 17  1  0  0  0  0
 14 15  2  0  0  0  0
 14 23  1  0  0  0  0
 11 12  1  0  0  0  0
 11 13  1  0  0  0  0
 11 14  1  0  0  0  0
  9 10  1  0  0  0  0
  9 11  1  0  0  0  0
  9 25  1  0  0  0  0
  7  8  1  0  0  0  0
  7  9  1  0  0  0  0
 29 30  1  0  0  0  0
 29 31  1  0  0  0  0
 29 32  1  0  0  0  0
 27 28  1  0  0  0  0
 27 29  1  0  0  0  0
M  END
$$$$
default_name
  -OEChem-02102213163D

 32 32  0     1  0  0  0  0  0999 V2000
   -3.8405   -3.7518    1.6252 H   0  0  0  0  0  0  0  0  0  0  0  0
   -3.7965   -2.8768    0.9782 C   0  0  0  0  0  0  0  0  0  0  0  0
   -4.5465   -2.1527    1.2902 H   0  0  0  0  0  0  0  0  0  0  0  0
   -3.9745   -3.1748   -0.0538 H   0  0  0  0  0  0  0  0  0  0  0  0
   -2.4245   -2.2537    1.0882 C   0  0  0  0  0  0  0  0  0  0  0  0
   -1.5805   -2.7478    1.8242 O   0  0  0  0  0  0  0  0  0  0  0  0
   -2.2045   -1.1637    0.3562 N   0  0  0  0  0  0  0  0  0  0  0  0
   -2.9595   -0.7907   -0.2008 H   0  0  0  0  0  0  0  0  0  0  0  0
   -0.9485   -0.4087    0.3482 C   0  0  1  0  0  0  0  0  0  0  0  0
   -0.3666   -0.6914    1.2269 H   0  0  0  0  0  0  0  0  0  0  0  0
   -0.1405   -0.7797   -0.9072 C   0  0  0  0  0  0  0  0  0  0  0  0
   -0.1675   -1.8622   -1.0399 H   0  0  0  0  0  0  0  0  0  0  0  0
   -0.6169   -0.3307   -1.7800 H   0  0  0  0  0  0  0  0  0  0  0  0
    1.3129   -0.3489   -0.8531 C   0  0  0  0  0  0  0  0  0  0  0  0
    1.6910    0.7951   -0.1250 C   0  0  0  0  0  0  0  0  0  0  0  0
    0.9427    1.3876    0.3823 H   0  0  0  0  0  0  0  0  0  0  0  0
    3.0463    1.1650   -0.0453 C   0  0  0  0  0  0  0  0  0  0  0  0
    3.3343    2.0453    0.5121 H   0  0  0  0  0  0  0  0  0  0  0  0
    4.0254    0.3913   -0.6914 C   0  0  0  0  0  0  0  0  0  0  0  0
    5.0664    0.6769   -0.6321 H   0  0  0  0  0  0  0  0  0  0  0  0
    3.6507   -0.7516   -1.4210 C   0  0  0  0  0  0  0  0  0  0  0  0
    4.4026   -1.3433   -1.9222 H   0  0  0  0  0  0  0  0  0  0  0  0
    2.2959   -1.1191   -1.5032 C   0  0  0  0  0  0  0  0  0  0  0  0
    2.0086   -1.9967   -2.0676 H   0  0  0  0  0  0  0  0  0  0  0  0
   -1.2168    1.1047    0.4313 C   0  0  0  0  0  0  0  0  0  0  0  0
   -2.0890    1.6186   -0.2704 O   0  0  0  0  0  0  0  0  0  0  0  0
   -0.4674    1.8182    1.2813 N   0  0  0  0  0  0  0  0  0  0  0  0
    0.2640    1.3348    1.7800 H   0  0  0  0  0  0  0  0  0  0  0  0
   -0.5889    3.2615    1.4722 C   0  0  0  0  0  0  0  0  0  0  0  0
   -1.6291    3.5206    1.6805 H   0  0  0  0  0  0  0  0  0  0  0  0
    0.0359    3.5855    2.3049 H   0  0  0  0  0  0  0  0  0  0  0  0
   -0.2760    3.7797    0.5637 H   0  0  0  0  0  0  0  0  0  0  0  0
  5  6  2  0  0  0  0
  5  7  1  0  0  0  0
  2  3  1  0  0  0  0
  2  4  1  0  0  0  0
  2  5  1  0  0  0  0
  1  2  1  0  0  0  0
 25 26  2  0  0  0  0
 25 27  1  0  0  0  0
 23 24  1  0  0  0  0
 21 22  1  0  0  0  0
 21 23  2  0  0  0  0
 19 20  1  0  0  0  0
 19 21  1  0  0  0  0
 17 18  1  0  0  0  0
 17 19  2  0  0  0  0
 15 16  1  0  0  0  0
 15 17  1  0  0  0  0
 14 15  2  0  0  0  0
 14 23  1  0  0  0  0
 11 12  1  0  0  0  0
 11 13  1  0  0  0  0
 11 14  1  0  0  0  0
  9 10  1  0  0  0  0
  9 11  1  0  0  0  0
  9 25  1  0  0  0  0
  7  8  1  0  0  0  0
  7  9  1  0  0  0  0
 29 30  1  0  0  0  0
 29 31  1  0  0  0  0
 29 32  1  0  0  0  0
 27 28  1  0  0  0  0
 27 29  1  0  0  0  0
M  END
$$$$
default_name
  -OEChem-02102213163D

 32 32  0     1  0  0  0  0  0999 V2000
   -3.8405   -3.7518    1.6252 H   0  0  0  0  0  0  0  0  0  0  0  0
   -3.7965   -2.8768    0.9782 C   0  0  0  0  0  0  0  0  0  0  0  0
   -4.5465   -2.1527    1.2902 H   0  0  0  0  0  0  0  0  0  0  0  0
   -3.9745   -3.1748   -0.0538 H   0  0  0  0  0  0  0  0  0  0  0  0
   -2.4245   -2.2537    1.0882 C   0  0  0  0  0  0  0  0  0  0  0  0
   -1.5805   -2.7478    1.8242 O   0  0  0  0  0  0  0  0  0  0  0  0
   -2.2045   -1.1637    0.3562 N   0  0  0  0  0  0  0  0  0  0  0  0
   -2.9595   -0.7907   -0.2008 H   0  0  0  0  0  0  0  0  0  0  0  0
   -0.9485   -0.4087    0.3482 C   0  0  1  0  0  0  0  0  0  0  0  0
   -0.3666   -0.6914    1.2269 H   0  0  0  0  0  0  0  0  0  0  0  0
   -0.1405   -0.7797   -0.9072 C   0  0  0  0  0  0  0  0  0  0  0  0
   -0.1675   -1.8622   -1.0399 H   0  0  0  0  0  0  0  0  0  0  0  0
   -0.6169   -0.3307   -1.7800 H   0  0  0  0  0  0  0  0  0  0  0  0
    1.3129   -0.3489   -0.8531 C   0  0  0  0  0  0  0  0  0  0  0  0
    1.7444    0.5860    0.1070 C   0  0  0  0  0  0  0  0  0  0  0  0
    1.0361    1.0204    0.7983 H   0  0  0  0  0  0  0  0  0  0  0  0
    3.1018    0.9496    0.1777 C   0  0  0  0  0  0  0  0  0  0  0  0
    3.4307    1.6696    0.9140 H   0  0  0  0  0  0  0  0  0  0  0  0
    4.0299    0.3783   -0.7093 C   0  0  0  0  0  0  0  0  0  0  0  0
    5.0724    0.6595   -0.6565 H   0  0  0  0  0  0  0  0  0  0  0  0
    3.6018   -0.5550   -1.6709 C   0  0  0  0  0  0  0  0  0  0  0  0
    4.3141   -0.9902   -2.3563 H   0  0  0  0  0  0  0  0  0  0  0  0
    2.2446   -0.9158   -1.7435 C   0  0  0  0  0  0  0  0  0  0  0  0
    1.9159   -1.6314   -2.4858 H   0  0  0  0  0  0  0  0  0  0  0  0
   -1.2168    1.1047    0.4313 C   0  0  0  0  0  0  0  0  0  0  0  0
   -2.0890    1.6186   -0.2704 O   0  0  0  0  0  0  0  0  0  0  0  0
   -0.4674    1.8182    1.2813 N   0  0  0  0  0  0  0  0  0  0  0  0
    0.2640    1.3348    1.7800 H   0  0  0  0  0  0  0  0  0  0  0  0
   -0.5889    3.2615    1.4722 C   0  0  0  0  0  0  0  0  0  0  0  0
   -1.6291    3.5206    1.6805 H   0  0  0  0  0  0  0  0  0  0  0  0
    0.0359    3.5855    2.3049 H   0  0  0  0  0  0  0  0  0  0  0  0
   -0.2760    3.7797    0.5637 H   0  0  0  0  0  0  0  0  0  0  0  0
  5  6  2  0  0  0  0
  5  7  1  0  0  0  0
  2  3  1  0  0  0  0
  2  4  1  0  0  0  0
  2  5  1  0  0  0  0
  1  2  1  0  0  0  0
 25 26  2  0  0  0  0
 25 27  1  0  0  0  0
 23 24  1  0  0  0  0
 21 22  1  0  0  0  0
 21 23  2  0  0  0  0
 19 20  1  0  0  0  0
 19 21  1  0  0  0  0
 17 18  1  0  0  0  0
 17 19  2  0  0  0  0
 15 16  1  0  0  0  0
 15 17  1  0  0  0  0
 14 15  2  0  0  0  0
 14 23  1  0  0  0  0
 11 12  1  0  0  0  0
 11 13  1  0  0  0  0
 11 14  1  0  0  0  0
  9 10  1  0  0  0  0
  9 11  1  0  0  0  0
  9 25  1  0  0  0  0
  7  8  1  0  0  0  0
  7  9  1  0  0  0  0
 29 30  1  0  0  0  0
 29 31  1  0  0  0  0
 29 32  1  0  0  0  0
 27 28  1  0  0  0  0
 27 29  1  0  0  0  0
M  END
$$$$
default_name
  -OEChem-02102213163D

 32 32  0     1  0  0  0  0  0999 V2000
   -3.8405   -3.7518    1.6252 H   0  0  0  0  0  0  0  0  0  0  0  0
   -3.7965   -2.8768    0.9782 C   0  0  0  0  0  0  0  0  0  0  0  0
   -4.5465   -2.1527    1.2902 H   0  0  0  0  0  0  0  0  0  0  0  0
   -3.9745   -3.1748   -0.0538 H   0  0  0  0  0  0  0  0  0  0  0  0
   -2.4245   -2.2537    1.0882 C   0  0  0  0  0  0  0  0  0  0  0  0
   -1.5805   -2.7478    1.8242 O   0  0  0  0  0  0  0  0  0  0  0  0
   -2.2045   -1.1637    0.3562 N   0  0  0  0  0  0  0  0  0  0  0  0
   -2.9595   -0.7907   -0.2008 H   0  0  0  0  0  0  0  0  0  0  0  0
   -0.9485   -0.4087    0.3482 C   0  0  1  0  0  0  0  0  0  0  0  0
   -0.3666   -0.6914    1.2269 H   0  0  0  0  0  0  0  0  0  0  0  0
   -0.1405   -0.7797   -0.9072 C   0  0  0  0  0  0  0  0  0  0  0  0
   -0.1675   -1.8622   -1.0399 H   0  0  0  0  0  0  0  0  0  0  0  0
   -0.6169   -0.3307   -1.7800 H   0  0  0  0  0  0  0  0  0  0  0  0
    1.3129   -0.3489   -0.8531 C   0  0  0  0  0  0  0  0  0  0  0  0
    1.8149    0.3269    0.2753 C   0  0  0  0  0  0  0  0  0  0  0  0
    1.1602    0.5634    1.1021 H   0  0  0  0  0  0  0  0  0  0  0  0
    3.1739    0.6868    0.3357 C   0  0  0  0  0  0  0  0  0  0  0  0
    3.5568    1.2079    1.2019 H   0  0  0  0  0  0  0  0  0  0  0  0
    4.0331    0.3702   -0.7302 C   0  0  0  0  0  0  0  0  0  0  0  0
    5.0766    0.6488   -0.6848 H   0  0  0  0  0  0  0  0  0  0  0  0
    3.5343   -0.3037   -1.8598 C   0  0  0  0  0  0  0  0  0  0  0  0
    4.1935   -0.5423   -2.6816 H   0  0  0  0  0  0  0  0  0  0  0  0
    2.1755   -0.6603   -1.9214 C   0  0  0  0  0  0  0  0  0  0  0  0
    1.7923   -1.1757   -2.7924 H   0  0  0  0  0  0  0  0  0  0  0  0
   -1.2168    1.1047    0.4313 C   0  0  0  0  0  0  0  0  0  0  0  0
   -2.0890    1.6186   -0.2704 O   0  0  0  0  0  0  0  0  0  0  0  0
   -0.4674    1.8182    1.2813 N   0  0  0  0  0  0  0  0  0  0  0  0
    0.2640    1.3348    1.7800 H   0  0  0  0  0  0  0  0  0  0  0  0
   -0.5889    3.2615    1.4722 C   0  0  0  0  0  0  0  0  0  0  0  0
   -1.6291    3.5206    1.6805 H   0  0  0  0  0  0  0  0  0  0  0  0
    0.0359    3.5855    2.3049 H   0  0  0  0  0  0  0  0  0  0  0  0
   -0.2760    3.7797    0.5637 H   0  0  0  0  0  0  0  0  0  0  0  0
  5  6  2  0  0  0  0
  5  7  1  0  0  0  0
  2  3  1  0  0  0  0
  2  4  1  0  0  0  0
  2  5  1  0  0  0  0
  1  2  1  0  0  0  0
 25 26  2  0  0  0  0
 25 27  1  0  0  0  0
 23 24  1  0  0  0  0
 21 22  1  0  0  0  0
 21 23  2  0  0  0  0
 19 20  1  0  0  0  0
 19 21  1  0  0  0  0
 17 18  1  0  0  0  0
 17 19  2  0  0  0  0
 15 16  1  0  0  0  0
 15 17  1  0  0  0  0
 14 15  2  0  0  0  0
 14 23  1  0  0  0  0
 11 12  1  0  0  0  0
 11 13  1  0  0  0  0
 11 14  1  0  0  0  0
  9 10  1  0  0  0  0
  9 11  1  0  0  0  0
  9 25  1  0  0  0  0
  7  8  1  0  0  0  0
  7  9  1  0  0  0  0
 29 30  1  0  0  0  0
 29 31  1  0  0  0  0
 29 32  1  0  0  0  0
 27 28  1  0  0  0  0
 27 29  1  0  0  0  0
M  END
$$$$
default_name
  -OEChem-02102213163D

 32 32  0     1  0  0  0  0  0999 V2000
   -3.8405   -3.7518    1.6252 H   0  0  0  0  0  0  0  0  0  0  0  0
   -3.7965   -2.8768    0.9782 C   0  0  0  0  0  0  0  0  0  0  0  0
   -4.5465   -2.1527    1.2902 H   0  0  0  0  0  0  0  0  0  0  0  0
   -3.9745   -3.1748   -0.0538 H   0  0  0  0  0  0  0  0  0  0  0  0
   -2.4245   -2.2537    1.0882 C   0  0  0  0  0  0  0  0  0  0  0  0
   -1.5805   -2.7478    1.8242 O   0  0  0  0  0  0  0  0  0  0  0  0
   -2.2045   -1.1637    0.3562 N   0  0  0  0  0  0  0  0  0  0  0  0
   -2.9595   -0.7907   -0.2008 H   0  0  0  0  0  0  0  0  0  0  0  0
   -0.9485   -0.4087    0.3482 C   0  0  1  0  0  0  0  0  0  0  0  0
   -0.3666   -0.6914    1.2269 H   0  0  0  0  0  0  0  0  0  0  0  0
   -0.1405   -0.7797   -0.9072 C   0  0  0  0  0  0  0  0  0  0  0  0
   -0.1675   -1.8622   -1.0399 H   0  0  0  0  0  0  0  0  0  0  0  0
   -0.6169   -0.3307   -1.7800 H   0  0  0  0  0  0  0  0  0  0  0  0
    1.3129   -0.3489   -0.8531 C   0  0  0  0  0  0  0  0  0  0  0  0
    1.8978    0.0356    0.3684 C   0  0  0  0  0  0  0  0  0  0  0  0
    1.3067    0.0479    1.2732 H   0  0  0  0  0  0  0  0  0  0  0  0
    3.2575    0.3944    0.4178 C   0  0  0  0  0  0  0  0  0  0  0  0
    3.7040    0.6918    1.3562 H   0  0  0  0  0  0  0  0  0  0  0  0
    4.0347    0.3676   -0.7526 C   0  0  0  0  0  0  0  0  0  0  0  0
    5.0787    0.6455   -0.7150 H   0  0  0  0  0  0  0  0  0  0  0  0
    3.4529   -0.0147   -1.9751 C   0  0  0  0  0  0  0  0  0  0  0  0
    4.0489   -0.0301   -2.8758 H   0  0  0  0  0  0  0  0  0  0  0  0
    2.0933   -0.3700   -2.0247 C   0  0  0  0  0  0  0  0  0  0  0  0
    1.6461   -0.6607   -2.9664 H   0  0  0  0  0  0  0  0  0  0  0  0
   -1.2168    1.1047    0.4313 C   0  0  0  0  0  0  0  0  0  0  0  0
   -2.0890    1.6186   -0.2704 O   0  0  0  0  0  0  0  0  0  0  0  0
   -0.4674    1.8182    1.2813 N   0  0  0  0  0  0  0  0  0  0  0  0
    0.2640    1.3348    1.7800 H   0  0  0  0  0  0  0  0  0  0  0  0
   -0.5889    3.2615    1.4722 C   0  0  0  0  0  0  0  0  0  0  0  0
   -1.6291    3.5206    1.6805 H   0  0  0  0  0  0  0  0  0  0  0  0
    0.0359    3.5855    2.3049 H   0  0  0  0  0  0  0  0  0  0  0  0
   -0.2760    3.7797    0.5637 H   0  0  0  0  0  0  0  0  0  0  0  0
  5  6  2  0  0  0  0
  5  7  1  0  0  0  0
  2  3  1  0  0  0  0
  2  4  1  0  0  0  0
  2  5  1  0  0  0  0
  1  2  1  0  0  0  0
 25 26  2  0  0  0  0
 25 27  1  0  0  0  0
 23 24  1  0  0  0  0
 21 22  1  0  0  0  0
 21 23  2  0  0  0  0
 19 20  1  0  0  0  0
 19 21  1  0  0  0  0
 17 18  1  0  0  0  0
 17 19  2  0  0  0  0
 15 16  1  0  0  0  0
 15 17  1  0  0  0  0
 14 15  2  0  0  0  0
 14 23  1  0  0  0  0
 11 12  1  0  0  0  0
 11 13  1  0  0  0  0
 11 14  1  0  0  0  0
  9 10  1  0  0  0  0
  9 11  1  0  0  0  0
  9 25  1  0  0  0  0
  7  8  1  0  0  0  0
  7  9  1  0  0  0  0
 29 30  1  0  0  0  0
 29 31  1  0  0  0  0
 29 32  1  0  0  0  0
 27 28  1  0  0  0  0
 27 29  1  0  0  0  0
M  END
$$$$
default_name
  -OEChem-02102213163D

 32 32  0     1  0  0  0  0  0999 V2000
   -3.8405   -3.7518    1.6252 H   0  0  0  0  0  0  0  0  0  0  0  0
   -3.7965   -2.8768    0.9782 C   0  0  0  0  0  0  0  0  0  0  0  0
   -4.5465   -2.1527    1.2902 H   0  0  0  0  0  0  0  0  0  0  0  0
   -3.9745   -3.1748   -0.0538 H   0  0  0  0  0  0  0  0  0  0  0  0
   -2.4245   -2.2537    1.0882 C   0  0  0  0  0  0  0  0  0  0  0  0
   -1.5805   -2.7478    1.8242 O   0  0  0  0  0  0  0  0  0  0  0  0
   -2.2045   -1.1637    0.3562 N   0  0  0  0  0  0  0  0  0  0  0  0
   -2.9595   -0.7907   -0.2008 H   0  0  0  0  0  0  0  0  0  0  0  0
   -0.9485   -0.4087    0.3482 C   0  0  1  0  0  0  0  0  0  0  0  0
   -0.3666   -0.6914    1.2269 H   0  0  0  0  0  0  0  0  0  0  0  0
   -0.1405   -0.7797   -0.9072 C   0  0  0  0  0  0  0  0  0  0  0  0
   -0.1675   -1.8622   -1.0399 H   0  0  0  0  0  0  0  0  0  0  0  0
   -0.6169   -0.3307   -1.7800 H   0  0  0  0  0  0  0  0  0  0  0  0
    1.3129   -0.3489   -0.8531 C   0  0  0  0  0  0  0  0  0  0  0  0
    1.9874   -0.2681    0.3800 C   0  0  0  0  0  0  0  0  0  0  0  0
    1.4655   -0.4912    1.2998 H   0  0  0  0  0  0  0  0  0  0  0  0
    3.3470    0.0924    0.4184 C   0  0  0  0  0  0  0  0  0  0  0  0
    3.8624    0.1563    1.3665 H   0  0  0  0  0  0  0  0  0  0  0  0
    4.0346    0.3707   -0.7750 C   0  0  0  0  0  0  0  0  0  0  0  0
    5.0786    0.6499   -0.7452 H   0  0  0  0  0  0  0  0  0  0  0  0
    3.3632    0.2923   -2.0087 C   0  0  0  0  0  0  0  0  0  0  0  0
    3.8902    0.5115   -2.9257 H   0  0  0  0  0  0  0  0  0  0  0  0
    2.0036   -0.0647   -2.0466 C   0  0  0  0  0  0  0  0  0  0  0  0
    1.4873   -0.1214   -2.9961 H   0  0  0  0  0  0  0  0  0  0  0  0
   -1.2168    1.1047    0.4313 C   0  0  0  0  0  0  0  0  0  0  0  0
   -2.0890    1.6186   -0.2704 O   0  0  0  0  0  0  0  0  0  0  0  0
   -0.4674    1.8182    1.2813 N   0  0  0  0  0  0  0  0  0  0  0  0
    0.2640    1.3348    1.7800 H   0  0  0  0  0  0  0  0  0  0  0  0
   -0.5889    3.2615    1.4722 C   0  0  0  0  0  0  0  0  0  0  0  0
   -1.6291    3.5206    1.6805 H   0  0  0  0  0  0  0  0  0  0  0  0
    0.0359    3.5855    2.3049 H   0  0  0  0  0  0  0  0  0  0  0  0
   -0.2760    3.7797    0.5637 H   0  0  0  0  0  0  0  0  0  0  0  0
  5  6  2  0  0  0  0
  5  7  1  0  0  0  0
  2  3  1  0  0  0  0
  2  4  1  0  0  0  0
  2  5  1  0  0  0  0
  1  2  1  0  0  0  0
 25 26  2  0  0  0  0
 25 27  1  0  0  0  0
 23 24  1  0  0  0  0
 21 22  1  0  0  0  0
 21 23  2  0  0  0  0
 19 20  1  0  0  0  0
 19 21  1  0  0  0  0
 17 18  1  0  0  0  0
 17 19  2  0  0  0  0
 15 16  1  0  0  0  0
 15 17  1  0  0  0  0
 14 15  2  0  0  0  0
 14 23  1  0  0  0  0
 11 12  1  0  0  0  0
 11 13  1  0  0  0  0
 11 14  1  0  0  0  0
  9 10  1  0  0  0  0
  9 11  1  0  0  0  0
  9 25  1  0  0  0  0
  7  8  1  0  0  0  0
  7  9  1  0  0  0  0
 29 30  1  0  0  0  0
 29 31  1  0  0  0  0
 29 32  1  0  0  0  0
 27 28  1  0  0  0  0
 27 29  1  0  0  0  0
M  END
$$$$
default_name
  -OEChem-02102213163D

 32 32  0     1  0  0  0  0  0999 V2000
   -3.8405   -3.7518    1.6252 H   0  0  0  0  0  0  0  0  0  0  0  0
   -3.7965   -2.8768    0.9782 C   0  0  0  0  0  0  0  0  0  0  0  0
   -4.5465   -2.1527    1.2902 H   0  0  0  0  0  0  0  0  0  0  0  0
   -3.9745   -3.1748   -0.0538 H   0  0  0  0  0  0  0  0  0  0  0  0
   -2.4245   -2.2537    1.0882 C   0  0  0  0  0  0  0  0  0  0  0  0
   -1.5805   -2.7478    1.8242 O   0  0  0  0  0  0  0  0  0  0  0  0
   -2.2045   -1.1637    0.3562 N   0  0  0  0  0  0  0  0  0  0  0  0
   -2.9595   -0.7907   -0.2008 H   0  0  0  0  0  0  0  0  0  0  0  0
   -0.9485   -0.4087    0.3482 C   0  0  1  0  0  0  0  0  0  0  0  0
   -0.3666   -0.6914    1.2269 H   0  0  0  0  0  0  0  0  0  0  0  0
   -0.1405   -0.7797   -0.9072 C   0  0  0  0  0  0  0  0  0  0  0  0
   -0.1675   -1.8622   -1.0399 H   0  0  0  0  0  0  0  0  0  0  0  0
   -0.6169   -0.3307   -1.7800 H   0  0  0  0  0  0  0  0  0  0  0  0
    1.3129   -0.3489   -0.8531 C   0  0  0  0  0  0  0  0  0  0  0  0
    2.0776   -0.5635    0.3093 C   0  0  0  0  0  0  0  0  0  0  0  0
    1.6258   -1.0171    1.1801 H   0  0  0  0  0  0  0  0  0  0  0  0
    3.4363   -0.1987    0.3376 C   0  0  0  0  0  0  0  0  0  0  0  0
    4.0210   -0.3620    1.2320 H   0  0  0  0  0  0  0  0  0  0  0  0
    4.0329    0.3792   -0.7959 C   0  0  0  0  0  0  0  0  0  0  0  0
    5.0762    0.6616   -0.7733 H   0  0  0  0  0  0  0  0  0  0  0  0
    3.2712    0.5963   -1.9585 C   0  0  0  0  0  0  0  0  0  0  0  0
    3.7282    1.0455   -2.8280 H   0  0  0  0  0  0  0  0  0  0  0  0
    1.9126    0.2347   -1.9854 C   0  0  0  0  0  0  0  0  0  0  0  0
    1.3268    0.4054   -2.8793 H   0  0  0  0  0  0  0  0  0  0  0  0
   -1.2168    1.1047    0.4313 C   0  0  0  0  0  0  0  0  0  0  0  0
   -2.0890    1.6186   -0.2704 O   0  0  0  0  0  0  0  0  0  0  0  0
   -0.4674    1.8182    1.2813 N   0  0  0  0  0  0  0  0  0  0  0  0
    0.2640    1.3348    1.7800 H   0  0  0  0  0  0  0  0  0  0  0  0
   -0.5889    3.2615    1.4722 C   0  0  0  0  0  0  0  0  0  0  0  0
   -1.6291    3.5206    1.6805 H   0  0  0  0  0  0  0  0  0  0  0  0
    0.0359    3.5855    2.3049 H   0  0  0  0  0  0  0  0  0  0  0  0
   -0.2760    3.7797    0.5637 H   0  0  0  0  0  0  0  0  0  0  0  0
  5  6  2  0  0  0  0
  5  7  1  0  0  0  0
  2  3  1  0  0  0  0
  2  4  1  0  0  0  0
  2  5  1  0  0  0  0
  1  2  1  0  0  0  0
 25 26  2  0  0  0  0
 25 27  1  0  0  0  0
 23 24  1  0  0  0  0
 21 22  1  0  0  0  0
 21 23  2  0  0  0  0
 19 20  1  0  0  0  0
 19 21  1  0  0  0  0
 17 18  1  0  0  0  0
 17 19  2  0  0  0  0
 15 16  1  0  0  0  0
 15 17  1  0  0  0  0
 14 15  2  0  0  0  0
 14 23  1  0  0  0  0
 11 12  1  0  0  0  0
 11 13  1  0  0  0  0
 11 14  1  0  0  0  0
  9 10  1  0  0  0  0
  9 11  1  0  0  0  0
  9 25  1  0  0  0  0
  7  8  1  0  0  0  0
  7  9  1  0  0  0  0
 29 30  1  0  0  0  0
 29 31  1  0  0  0  0
 29 32  1  0  0  0  0
 27 28  1  0  0  0  0
 27 29  1  0  0  0  0
M  END
$$$$
default_name
  -OEChem-02102213163D

 32 32  0     1  0  0  0  0  0999 V2000
   -3.8405   -3.7518    1.6252 H   0  0  0  0  0  0  0  0  0  0  0  0
   -3.7965   -2.8768    0.9782 C   0  0  0  0  0  0  0  0  0  0  0  0
   -4.5465   -2.1527    1.2902 H   0  0  0  0  0  0  0  0  0  0  0  0
   -3.9745   -3.1748   -0.0538 H   0  0  0  0  0  0  0  0  0  0  0  0
   -2.4245   -2.2537    1.0882 C   0  0  0  0  0  0  0  0  0  0  0  0
   -1.5805   -2.7478    1.8242 O   0  0  0  0  0  0  0  0  0  0  0  0
   -2.2045   -1.1637    0.3562 N   0  0  0  0  0  0  0  0  0  0  0  0
   -2.9595   -0.7907   -0.2008 H   0  0  0  0  0  0  0  0  0  0  0  0
   -0.9485   -0.4087    0.3482 C   0  0  1  0  0  0  0  0  0  0  0  0
   -0.3666   -0.6914    1.2269 H   0  0  0  0  0  0  0  0  0  0  0  0
   -0.1405   -0.7797   -0.9072 C   0  0  0  0  0  0  0  0  0  0  0  0
   -0.1675   -1.8622   -1.0399 H   0  0  0  0  0  0  0  0  0  0  0  0
   -0.6169   -0.3307   -1.7800 H   0  0  0  0  0  0  0  0  0  0  0  0
    1.3129   -0.3489   -0.8531 C   0  0  0  0  0  0  0  0  0  0  0  0
    2.1623   -0.8304    0.1611 C   0  0  0  0  0  0  0  0  0  0  0  0
    1.7768   -1.4939    0.9224 H   0  0  0  0  0  0  0  0  0  0  0  0
    3.5193   -0.4589    0.1807 C   0  0  0  0  0  0  0  0  0  0  0  0
    4.1692   -0.8278    0.9618 H   0  0  0  0  0  0  0  0  0  0  0  0
    4.0296    0.3925   -0.8139 C   0  0  0  0  0  0  0  0  0  0  0  0
    5.0716    0.6798   -0.7974 H   0  0  0  0  0  0  0  0  0  0  0  0
    3.1832    0.8767   -1.8278 C   0  0  0  0  0  0  0  0  0  0  0  0
    3.5741    1.5356   -2.5893 H   0  0  0  0  0  0  0  0  0  0  0  0
    1.8263    0.5079   -1.8453 C   0  0  0  0  0  0  0  0  0  0  0  0
    1.1755    0.8838   -2.6240 H   0  0  0  0  0  0  0  0  0  0  0  0
   -1.2168    1.1047    0.4313 C   0  0  0  0  0  0  0  0  0  0  0  0
   -2.0890    1.6186   -0.2704 O   0  0  0  0  0  0  0  0  0  0  0  0
   -0.4674    1.8182    1.2813 N   0  0  0  0  0  0  0  0  0  0  0  0
    0.2640    1.3348    1.7800 H   0  0  0  0  0  0  0  0  0  0  0  0
   -0.5889    3.2615    1.4722 C   0  0  0  0  0  0  0  0  0  0  0  0
   -1.6291    3.5206    1.6805 H   0  0  0  0  0  0  0  0  0  0  0  0
    0.0359    3.5855    2.3049 H   0  0  0  0  0  0  0  0  0  0  0  0
   -0.2760    3.7797    0.5637 H   0  0  0  0  0  0  0  0  0  0  0  0
  5  6  2  0  0  0  0
  5  7  1  0  0  0  0
  2  3  1  0  0  0  0
  2  4  1  0  0  0  0
  2  5  1  0  0  0  0
  1  2  1  0  0  0  0
 25 26  2  0  0  0  0
 25 27  1  0  0  0  0
 23 24  1  0  0  0  0
 21 22  1  0  0  0  0
 21 23  2  0  0  0  0
 19 20  1  0  0  0  0
 19 21  1  0  0  0  0
 17 18  1  0  0  0  0
 17 19  2  0  0  0  0
 15 16  1  0  0  0  0
 15 17  1  0  0  0  0
 14 15  2  0  0  0  0
 14 23  1  0  0  0  0
 11 12  1  0  0  0  0
 11 13  1  0  0  0  0
 11 14  1  0  0  0  0
  9 10  1  0  0  0  0
  9 11  1  0  0  0  0
  9 25  1  0  0  0  0
  7  8  1  0  0  0  0
  7  9  1  0  0  0  0
 29 30  1  0  0  0  0
 29 31  1  0  0  0  0
 29 32  1  0  0  0  0
 27 28  1  0  0  0  0
 27 29  1  0  0  0  0
M  END
$$$$
default_name
  -OEChem-02102213163D

 32 32  0     1  0  0  0  0  0999 V2000
   -3.8405   -3.7518    1.6252 H   0  0  0  0  0  0  0  0  0  0  0  0
   -3.7965   -2.8768    0.9782 C   0  0  0  0  0  0  0  0  0  0  0  0
   -4.5465   -2.1527    1.2902 H   0  0  0  0  0  0  0  0  0  0  0  0
   -3.9745   -3.1748   -0.0538 H   0  0  0  0  0  0  0  0  0  0  0  0
   -2.4245   -2.2537    1.0882 C   0  0  0  0  0  0  0  0  0  0  0  0
   -1.5805   -2.7478    1.8242 O   0  0  0  0  0  0  0  0  0  0  0  0
   -2.2045   -1.1637    0.3562 N   0  0  0  0  0  0  0  0  0  0  0  0
   -2.9595   -0.7907   -0.2008 H   0  0  0  0  0  0  0  0  0  0  0  0
   -0.9485   -0.4087    0.3482 C   0  0  1  0  0  0  0  0  0  0  0  0
   -0.3666   -0.6914    1.2269 H   0  0  0  0  0  0  0  0  0  0  0  0
   -0.1405   -0.7797   -0.9072 C   0  0  0  0  0  0  0  0  0  0  0  0
   -0.1675   -1.8622   -1.0399 H   0  0  0  0  0  0  0  0  0  0  0  0
   -0.6169   -0.3307   -1.7800 H   0  0  0  0  0  0  0  0  0  0  0  0
    1.3129   -0.3489   -0.8531 C   0  0  0  0  0  0  0  0  0  0  0  0
    2.2356   -1.0508   -0.0545 C   0  0  0  0  0  0  0  0  0  0  0  0
    1.9080   -1.8891    0.5440 H   0  0  0  0  0  0  0  0  0  0  0  0
    3.5903   -0.6707   -0.0414 C   0  0  0  0  0  0  0  0  0  0  0  0
    4.2967   -1.2094    0.5745 H   0  0  0  0  0  0  0  0  0  0  0  0
    4.0250    0.4099   -0.8276 C   0  0  0  0  0  0  0  0  0  0  0  0
    5.0654    0.7034   -0.8158 H   0  0  0  0  0  0  0  0  0  0  0  0
    3.1052    1.1143   -1.6256 C   0  0  0  0  0  0  0  0  0  0  0  0
    3.4382    1.9484   -2.2258 H   0  0  0  0  0  0  0  0  0  0  0  0
    1.7508    0.7363   -1.6359 C   0  0  0  0  0  0  0  0  0  0  0  0
    1.0437    1.2812   -2.2477 H   0  0  0  0  0  0  0  0  0  0  0  0
   -1.2168    1.1047    0.4313 C   0  0  0  0  0  0  0  0  0  0  0  0
   -2.0890    1.6186   -0.2704 O   0  0  0  0  0  0  0  0  0  0  0  0
   -0.4674    1.8182    1.2813 N   0  0  0  0  0  0  0  0  0  0  0  0
    0.2640    1.3348    1.7800 H   0  0  0  0  0  0  0  0  0  0  0  0
   -0.5889    3.2615    1.4722 C   0  0  0  0  0  0  0  0  0  0  0  0
   -1.6291    3.5206    1.6805 H   0  0  0  0  0  0  0  0  0  0  0  0
    0.0359    3.5855    2.3049 H   0  0  0  0  0  0  0  0  0  0  0  0
   -0.2760    3.7797    0.5637 H   0  0  0  0  0  0  0  0  0  0  0  0
  5  6  2  0  0  0  0
  5  7  1  0  0  0  0
  2  3  1  0  0  0  0
  2  4  1  0  0  0  0
  2  5  1  0  0  0  0
  1  2  1  0  0  0  0
 25 26  2  0  0  0  0
 25 27  1  0  0  0  0
 23 24  1  0  0  0  0
 21 22  1  0  0  0  0
 21 23  2  0  0  0  0
 19 20  1  0  0  0  0
 19 21  1  0  0  0  0
 17 18  1  0  0  0  0
 17 19  2  0  0  0  0
 15 16  1  0  0  0  0
 15 17  1  0  0  0  0
 14 15  2  0  0  0  0
 14 23  1  0  0  0  0
 11 12  1  0  0  0  0
 11 13  1  0  0  0  0
 11 14  1  0  0  0  0
  9 10  1  0  0  0  0
  9 11  1  0  0  0  0
  9 25  1  0  0  0  0
  7  8  1  0  0  0  0
  7  9  1  0  0  0  0
 29 30  1  0  0  0  0
 29 31  1  0  0  0  0
 29 32  1  0  0  0  0
 27 28  1  0  0  0  0
 27 29  1  0  0  0  0
M  END
$$$$
default_name
  -OEChem-02102213163D

 32 32  0     1  0  0  0  0  0999 V2000
   -3.8405   -3.7518    1.6252 H   0  0  0  0  0  0  0  0  0  0  0  0
   -3.7965   -2.8768    0.9782 C   0  0  0  0  0  0  0  0  0  0  0  0
   -4.5465   -2.1527    1.2902 H   0  0  0  0  0  0  0  0  0  0  0  0
   -3.9745   -3.1748   -0.0538 H   0  0  0  0  0  0  0  0  0  0  0  0
   -2.4245   -2.2537    1.0882 C   0  0  0  0  0  0  0  0  0  0  0  0
   -1.5805   -2.7478    1.8242 O   0  0  0  0  0  0  0  0  0  0  0  0
   -2.2045   -1.1637    0.3562 N   0  0  0  0  0  0  0  0  0  0  0  0
   -2.9595   -0.7907   -0.2008 H   0  0  0  0  0  0  0  0  0  0  0  0
   -0.9485   -0.4087    0.3482 C   0  0  1  0  0  0  0  0  0  0  0  0
   -0.3666   -0.6914    1.2269 H   0  0  0  0  0  0  0  0  0  0  0  0
   -0.1405   -0.7797   -0.9072 C   0  0  0  0  0  0  0  0  0  0  0  0
   -0.1675   -1.8622   -1.0399 H   0  0  0  0  0  0  0  0  0  0  0  0
   -0.6169   -0.3307   -1.7800 H   0  0  0  0  0  0  0  0  0  0  0  0
    1.3129   -0.3489   -0.8531 C   0  0  0  0  0  0  0  0  0  0  0  0
    2.2926   -1.2095   -0.3227 C   0  0  0  0  0  0  0  0  0  0  0  0
    2.0106   -2.1758    0.0710 H   0  0  0  0  0  0  0  0  0  0  0  0
    3.6446   -0.8194   -0.3137 C   0  0  0  0  0  0  0  0  0  0  0  0
    4.3949   -1.4807    0.0964 H   0  0  0  0  0  0  0  0  0  0  0  0
    4.0193    0.4300   -0.8363 C   0  0  0  0  0  0  0  0  0  0  0  0
    5.0577    0.7306   -0.8272 H   0  0  0  0  0  0  0  0  0  0  0  0
    3.0426    1.2930   -1.3656 C   0  0  0  0  0  0  0  0  0  0  0  0
    3.3298    2.2557   -1.7624 H   0  0  0  0  0  0  0  0  0  0  0  0
    1.6912    0.9043   -1.3715 C   0  0  0  0  0  0  0  0  0  0  0  0
    0.9403    1.5705   -1.7759 H   0  0  0  0  0  0  0  0  0  0  0  0
   -1.2168    1.1047    0.4313 C   0  0  0  0  0  0  0  0  0  0  0  0
   -2.0890    1.6186   -0.2704 O   0  0  0  0  0  0  0  0  0  0  0  0
   -0.4674    1.8182    1.2813 N   0  0  0  0  0  0  0  0  0  0  0  0
    0.2640    1.3348    1.7800 H   0  0  0  0  0  0  0  0  0  0  0  0
   -0.5889    3.2615    1.4722 C   0  0  0  0  0  0  0  0  0  0  0  0
   -1.6291    3.5206    1.6805 H   0  0  0  0  0  0  0  0  0  0  0  0
    0.0359    3.5855    2.3049 H   0  0  0  0  0  0  0  0  0  0  0  0
   -0.2760    3.7797    0.5637 H   0  0  0  0  0  0  0  0  0  0  0  0
  5  6  2  0  0  0  0
  5  7  1  0  0  0  0
  2  3  1  0  0  0  0
  2  4  1  0  0  0  0
  2  5  1  0  0  0  0
  1  2  1  0  0  0  0
 25 26  2  0  0  0  0
 25 27  1  0  0  0  0
 23 24  1  0  0  0  0
 21 22  1  0  0  0  0
 21 23  2  0  0  0  0
 19 20  1  0  0  0  0
 19 21  1  0  0  0  0
 17 18  1  0  0  0  0
 17 19  2  0  0  0  0
 15 16  1  0  0  0  0
 15 17  1  0  0  0  0
 14 15  2  0  0  0  0
 14 23  1  0  0  0  0
 11 12  1  0  0  0  0
 11 13  1  0  0  0  0
 11 14  1  0  0  0  0
  9 10  1  0  0  0  0
  9 11  1  0  0  0  0
  9 25  1  0  0  0  0
  7  8  1  0  0  0  0
  7  9  1  0  0  0  0
 29 30  1  0  0  0  0
 29 31  1  0  0  0  0
 29 32  1  0  0  0  0
 27 28  1  0  0  0  0
 27 29  1  0  0  0  0
M  END
$$$$
default_name
  -OEChem-02102213163D

 32 32  0     1  0  0  0  0  0999 V2000
   -3.8405   -3.7518    1.6252 H   0  0  0  0  0  0  0  0  0  0  0  0
   -3.7965   -2.8768    0.9782 C   0  0  0  0  0  0  0  0  0  0  0  0
   -4.5465   -2.1527    1.2902 H   0  0  0  0  0  0  0  0  0  0  0  0
   -3.9745   -3.1748   -0.0538 H   0  0  0  0  0  0  0  0  0  0  0  0
   -2.4245   -2.2537    1.0882 C   0  0  0  0  0  0  0  0  0  0  0  0
   -1.5805   -2.7478    1.8242 O   0  0  0  0  0  0  0  0  0  0  0  0
   -2.2045   -1.1637    0.3562 N   0  0  0  0  0  0  0  0  0  0  0  0
   -2.9595   -0.7907   -0.2008 H   0  0  0  0  0  0  0  0  0  0  0  0
   -0.9485   -0.4087    0.3482 C   0  0  1  0  0  0  0  0  0  0  0  0
   -0.3666   -0.6914    1.2269 H   0  0  0  0  0  0  0  0  0  0  0  0
   -0.1405   -0.7797   -0.9072 C   0  0  0  0  0  0  0  0  0  0  0  0
   -0.1675   -1.8622   -1.0399 H   0  0  0  0  0  0  0  0  0  0  0  0
   -0.6169   -0.3307   -1.7800 H   0  0  0  0  0  0  0  0  0  0  0  0
    1.3129   -0.3489   -0.8531 C   0  0  0  0  0  0  0  0  0  0  0  0
    2.3295   -1.2957   -0.6253 C   0  0  0  0  0  0  0  0  0  0  0  0
    2.0776   -2.3345   -0.4647 H   0  0  0  0  0  0  0  0  0  0  0  0
    3.6783   -0.8951   -0.6176 C   0  0  0  0  0  0  0  0  0  0  0  0
    4.4572   -1.6233   -0.4400 H   0  0  0  0  0  0  0  0  0  0  0  0
    4.0131    0.4515   -0.8392 C   0  0  0  0  0  0  0  0  0  0  0  0
    5.0492    0.7597   -0.8309 H   0  0  0  0  0  0  0  0  0  0  0  0
    2.9996    1.4005   -1.0656 C   0  0  0  0  0  0  0  0  0  0  0  0
    3.2564    2.4366   -1.2306 H   0  0  0  0  0  0  0  0  0  0  0  0
    1.6515    1.0004   -1.0700 C   0  0  0  0  0  0  0  0  0  0  0  0
    0.8725    1.7321   -1.2409 H   0  0  0  0  0  0  0  0  0  0  0  0
   -1.2168    1.1047    0.4313 C   0  0  0  0  0  0  0  0  0  0  0  0
   -2.0890    1.6186   -0.2704 O   0  0  0  0  0  0  0  0  0  0  0  0
   -0.4674    1.8182    1.2813 N   0  0  0  0  0  0  0  0  0  0  0  0
    0.2640    1.3348    1.7800 H   0  0  0  0  0  0  0  0  0  0  0  0
   -0.5889    3.2615    1.4722 C   0  0  0  0  0  0  0  0  0  0  0  0
   -1.6291    3.5206    1.6805 H   0  0  0  0  0  0  0  0  0  0  0  0
    0.0359    3.5855    2.3049 H   0  0  0  0  0  0  0  0  0  0  0  0
   -0.2760    3.7797    0.5637 H   0  0  0  0  0  0  0  0  0  0  0  0
  5  6  2  0  0  0  0
  5  7  1  0  0  0  0
  2  3  1  0  0  0  0
  2  4  1  0  0  0  0
  2  5  1  0  0  0  0
  1  2  1  0  0  0  0
 25 26  2  0  0  0  0
 25 27  1  0  0  0  0
 23 24  1  0  0  0  0
 21 22  1  0  0  0  0
 21 23  2  0  0  0  0
 19 20  1  0  0  0  0
 19 21  1  0  0  0  0
 17 18  1  0  0  0  0
 17 19  2  0  0  0  0
 15 16  1  0  0  0  0
 15 17  1  0  0  0  0
 14 15  2  0  0  0  0
 14 23  1  0  0  0  0
 11 12  1  0  0  0  0
 11 13  1  0  0  0  0
 11 14  1  0  0  0  0
  9 10  1  0  0  0  0
  9 11  1  0  0  0  0
  9 25  1  0  0  0  0
  7  8  1  0  0  0  0
  7  9  1  0  0  0  0
 29 30  1  0  0  0  0
 29 31  1  0  0  0  0
 29 32  1  0  0  0  0
 27 28  1  0  0  0  0
 27 29  1  0  0  0  0
M  END
$$$$
default_name
  -OEChem-02102213163D

 32 32  0     1  0  0  0  0  0999 V2000
   -3.8405   -3.7518    1.6252 H   0  0  0  0  0  0  0  0  0  0  0  0
   -3.7965   -2.8768    0.9782 C   0  0  0  0  0  0  0  0  0  0  0  0
   -4.5465   -2.1527    1.2902 H   0  0  0  0  0  0  0  0  0  0  0  0
   -3.9745   -3.1748   -0.0538 H   0  0  0  0  0  0  0  0  0  0  0  0
   -2.4245   -2.2537    1.0882 C   0  0  0  0  0  0  0  0  0  0  0  0
   -1.5805   -2.7478    1.8242 O   0  0  0  0  0  0  0  0  0  0  0  0
   -2.2045   -1.1637    0.3562 N   0  0  0  0  0  0  0  0  0  0  0  0
   -2.9595   -0.7907   -0.2008 H   0  0  0  0  0  0  0  0  0  0  0  0
   -0.9485   -0.4087    0.3482 C   0  0  1  0  0  0  0  0  0  0  0  0
   -0.3666   -0.6914    1.2269 H   0  0  0  0  0  0  0  0  0  0  0  0
   -0.1405   -0.7797   -0.9072 C   0  0  0  0  0  0  0  0  0  0  0  0
   -0.1675   -1.8622   -1.0399 H   0  0  0  0  0  0  0  0  0  0  0  0
   -0.6169   -0.3307   -1.7800 H   0  0  0  0  0  0  0  0  0  0  0  0
    1.3129   -0.3489   -0.8531 C   0  0  0  0  0  0  0  0  0  0  0  0
    2.3436   -1.3037   -0.9418 C   0  0  0  0  0  0  0  0  0  0  0  0
    2.1044   -2.3543   -1.0263 H   0  0  0  0  0  0  0  0  0  0  0  0
    3.6893   -0.8925   -0.9324 C   0  0  0  0  0  0  0  0  0  0  0  0
    4.4792   -1.6275   -0.9980 H   0  0  0  0  0  0  0  0  0  0  0  0
    4.0066    0.4730   -0.8363 C   0  0  0  0  0  0  0  0  0  0  0  0
    5.0405    0.7886   -0.8267 H   0  0  0  0  0  0  0  0  0  0  0  0
    2.9791    1.4296   -0.7460 C   0  0  0  0  0  0  0  0  0  0  0  0
    3.2229    2.4788   -0.6666 H   0  0  0  0  0  0  0  0  0  0  0  0
    1.6344    1.0181   -0.7520 C   0  0  0  0  0  0  0  0  0  0  0  0
    0.8449    1.7548   -0.6791 H   0  0  0  0  0  0  0  0  0  0  0  0
   -1.2168    1.1047    0.4313 C   0  0  0  0  0  0  0  0  0  0  0  0
   -2.0890    1.6186   -0.2704 O   0  0  0  0  0  0  0  0  0  0  0  0
   -0.4674    1.8182    1.2813 N   0  0  0  0  0  0  0  0  0  0  0  0
    0.2640    1.3348    1.7800 H   0  0  0  0  0  0  0  0  0  0  0  0
   -0.5889    3.2615    1.4722 C   0  0  0  0  0  0  0  0  0  0  0  0
   -1.6291    3.5206    1.6805 H   0  0  0  0  0  0  0  0  0  0  0  0
    0.0359    3.5855    2.3049 H   0  0  0  0  0  0  0  0  0  0  0  0
   -0.2760    3.7797    0.5637 H   0  0  0  0  0  0  0  0  0  0  0  0
  5  6  2  0  0  0  0
  5  7  1  0  0  0  0
  2  3  1  0  0  0  0
  2  4  1  0  0  0  0
  2  5  1  0  0  0  0
  1  2  1  0  0  0  0
 25 26  2  0  0  0  0
 25 27  1  0  0  0  0
 23 24  1  0  0  0  0
 21 22  1  0  0  0  0
 21 23  2  0  0  0  0
 19 20  1  0  0  0  0
 19 21  1  0  0  0  0
 17 18  1  0  0  0  0
 17 19  2  0  0  0  0
 15 16  1  0  0  0  0
 15 17  1  0  0  0  0
 14 15  2  0  0  0  0
 14 23  1  0  0  0  0
 11 12  1  0  0  0  0
 11 13  1  0  0  0  0
 11 14  1  0  0  0  0
  9 10  1  0  0  0  0
  9 11  1  0  0  0  0
  9 25  1  0  0  0  0
  7  8  1  0  0  0  0
  7  9  1  0  0  0  0
 29 30  1  0  0  0  0
 29 31  1  0  0  0  0
 29 32  1  0  0  0  0
 27 28  1  0  0  0  0
 27 29  1  0  0  0  0
M  END
$$$$
default_name
  -OEChem-02102213163D

 32 32  0     1  0  0  0  0  0999 V2000
   -3.8405   -3.7518    1.6252 H   0  0  0  0  0  0  0  0  0  0  0  0
   -3.7965   -2.8768    0.9782 C   0  0  0  0  0  0  0  0  0  0  0  0
   -4.5465   -2.1527    1.2902 H   0  0  0  0  0  0  0  0  0  0  0  0
   -3.9745   -3.1748   -0.0538 H   0  0  0  0  0  0  0  0  0  0  0  0
   -2.4245   -2.2537    1.0882 C   0  0  0  0  0  0  0  0  0  0  0  0
   -1.5805   -2.7478    1.8242 O   0  0  0  0  0  0  0  0  0  0  0  0
   -2.2045   -1.1637    0.3562 N   0  0  0  0  0  0  0  0  0  0  0  0
   -2.9595   -0.7907   -0.2008 H   0  0  0  0  0  0  0  0  0  0  0  0
   -0.9485   -0.4087    0.3482 C   0  0  1  0  0  0  0  0  0  0  0  0
   -0.3666   -0.6914    1.2269 H   0  0  0  0  0  0  0  0  0  0  0  0
   -0.1405   -0.7797   -0.9072 C   0  0  0  0  0  0  0  0  0  0  0  0
   -0.1675   -1.8622   -1.0399 H   0  0  0  0  0  0  0  0  0  0  0  0
   -0.6169   -0.3307   -1.7800 H   0  0  0  0  0  0  0  0  0  0  0  0
    1.3129   -0.3489   -0.8531 C   0  0  0  0  0  0  0  0  0  0  0  0
    2.3341   -1.2327   -1.2504 C   0  0  0  0  0  0  0  0  0  0  0  0
    2.0891   -2.2340   -1.5757 H   0  0  0  0  0  0  0  0  0  0  0  0
    3.6767   -0.8119   -1.2366 C   0  0  0  0  0  0  0  0  0  0  0  0
    4.4595   -1.4930   -1.5397 H   0  0  0  0  0  0  0  0  0  0  0  0
    4.0004    0.4929   -0.8277 C   0  0  0  0  0  0  0  0  0  0  0  0
    5.0321    0.8154   -0.8148 H   0  0  0  0  0  0  0  0  0  0  0  0
    2.9825    1.3782   -0.4285 C   0  0  0  0  0  0  0  0  0  0  0  0
    3.2316    2.3794   -0.1089 H   0  0  0  0  0  0  0  0  0  0  0  0
    1.6411    0.9563   -0.4393 C   0  0  0  0  0  0  0  0  0  0  0  0
    0.8593    1.6371   -0.1288 H   0  0  0  0  0  0  0  0  0  0  0  0
   -1.2168    1.1047    0.4313 C   0  0  0  0  0  0  0  0  0  0  0  0
   -2.0890    1.6186   -0.2704 O   0  0  0  0  0  0  0  0  0  0  0  0
   -0.4674    1.8182    1.2813 N   0  0  0  0  0  0  0  0  0  0  0  0
    0.2640    1.3348    1.7800 H   0  0  0  0  0  0  0  0  0  0  0  0
   -0.5889    3.2615    1.4722 C   0  0  0  0  0  0  0  0  0  0  0  0
   -1.6291    3.5206    1.6805 H   0  0  0  0  0  0  0  0  0  0  0  0
    0.0359    3.5855    2.3049 H   0  0  0  0  0  0  0  0  0  0  0  0
   -0.2760    3.7797    0.5637 H   0  0  0  0  0  0  0  0  0  0  0  0
  5  6  2  0  0  0  0
  5  7  1  0  0  0  0
  2  3  1  0  0  0  0
  2  4  1  0  0  0  0
  2  5  1  0  0  0  0
  1  2  1  0  0  0  0
 25 26  2  0  0  0  0
 25 27  1  0  0  0  0
 23 24  1  0  0  0  0
 21 22  1  0  0  0  0
 21 23  2  0  0  0  0
 19 20  1  0  0  0  0
 19 21  1  0  0  0  0
 17 18  1  0  0  0  0
 17 19  2  0  0  0  0
 15 16  1  0  0  0  0
 15 17  1  0  0  0  0
 14 15  2  0  0  0  0
 14 23  1  0  0  0  0
 11 12  1  0  0  0  0
 11 13  1  0  0  0  0
 11 14  1  0  0  0  0
  9 10  1  0  0  0  0
  9 11  1  0  0  0  0
  9 25  1  0  0  0  0
  7  8  1  0  0  0  0
  7  9  1  0  0  0  0
 29 30  1  0  0  0  0
 29 31  1  0  0  0  0
 29 32  1  0  0  0  0
 27 28  1  0  0  0  0
 27 29  1  0  0  0  0
M  END
$$$$
default_name
  -OEChem-02102213163D

 32 32  0     1  0  0  0  0  0999 V2000
   -3.8405   -3.7518    1.6252 H   0  0  0  0  0  0  0  0  0  0  0  0
   -3.7965   -2.8768    0.9782 C   0  0  0  0  0  0  0  0  0  0  0  0
   -4.5465   -2.1527    1.2902 H   0  0  0  0  0  0  0  0  0  0  0  0
   -3.9745   -3.1748   -0.0538 H   0  0  0  0  0  0  0  0  0  0  0  0
   -2.4245   -2.2537    1.0882 C   0  0  0  0  0  0  0  0  0  0  0  0
   -1.5805   -2.7478    1.8242 O   0  0  0  0  0  0  0  0  0  0  0  0
   -2.2045   -1.1637    0.3562 N   0  0  0  0  0  0  0  0  0  0  0  0
   -2.9595   -0.7907   -0.2008 H   0  0  0  0  0  0  0  0  0  0  0  0
   -0.9485   -0.4087    0.3482 C   0  0  1  0  0  0  0  0  0  0  0  0
   -0.3666   -0.6914    1.2269 H   0  0  0  0  0  0  0  0  0  0  0  0
   -0.1405   -0.7797   -0.9072 C   0  0  0  0  0  0  0  0  0  0  0  0
   -0.1675   -1.8622   -1.0399 H   0  0  0  0  0  0  0  0  0  0  0  0
   -0.6169   -0.3307   -1.7800 H   0  0  0  0  0  0  0  0  0  0  0  0
    1.3129   -0.3489   -0.8531 C   0  0  0  0  0  0  0  0  0  0  0  0
    2.3015   -1.0877   -1.5303 C   0  0  0  0  0  0  0  0  0  0  0  0
    2.0329   -1.9816   -2.0754 H   0  0  0  0  0  0  0  0  0  0  0  0
    3.6414   -0.6586   -1.5096 C   0  0  0  0  0  0  0  0  0  0  0  0
    4.3994   -1.2289   -2.0281 H   0  0  0  0  0  0  0  0  0  0  0  0
    3.9948    0.5100   -0.8139 C   0  0  0  0  0  0  0  0  0  0  0  0
    5.0246    0.8383   -0.7961 H   0  0  0  0  0  0  0  0  0  0  0  0
    3.0096    1.2498   -0.1349 C   0  0  0  0  0  0  0  0  0  0  0  0
    3.2819    2.1452    0.4045 H   0  0  0  0  0  0  0  0  0  0  0  0
    1.6711    0.8190   -0.1530 C   0  0  0  0  0  0  0  0  0  0  0  0
    0.9147    1.3872    0.3726 H   0  0  0  0  0  0  0  0  0  0  0  0
   -1.2168    1.1047    0.4313 C   0  0  0  0  0  0  0  0  0  0  0  0
   -2.0890    1.6186   -0.2704 O   0  0  0  0  0  0  0  0  0  0  0  0
   -0.4674    1.8182    1.2813 N   0  0  0  0  0  0  0  0  0  0  0  0
    0.2640    1.3348    1.7800 H   0  0  0  0  0  0  0  0  0  0  0  0
   -0.5889    3.2615    1.4722 C   0  0  0  0  0  0  0  0  0  0  0  0
   -1.6291    3.5206    1.6805 H   0  0  0  0  0  0  0  0  0  0  0  0
    0.0359    3.5855    2.3049 H   0  0  0  0  0  0  0  0  0  0  0  0
   -0.2760    3.7797    0.5637 H   0  0  0  0  0  0  0  0  0  0  0  0
  5  6  2  0  0  0  0
  5  7  1  0  0  0  0
  2  3  1  0  0  0  0
  2  4  1  0  0  0  0
  2  5  1  0  0  0  0
  1  2  1  0  0  0  0
 25 26  2  0  0  0  0
 25 27  1  0  0  0  0
 23 24  1  0  0  0  0
 21 22  1  0  0  0  0
 21 23  2  0  0  0  0
 19 20  1  0  0  0  0
 19 21  1  0  0  0  0
 17 18  1  0  0  0  0
 17 19  2  0  0  0  0
 15 16  1  0  0  0  0
 15 17  1  0  0  0  0
 14 15  2  0  0  0  0
 14 23  1  0  0  0  0
 11 12  1  0  0  0  0
 11 13  1  0  0  0  0
 11 14  1  0  0  0  0
  9 10  1  0  0  0  0
  9 11  1  0  0  0  0
  9 25  1  0  0  0  0
  7  8  1  0  0  0  0
  7  9  1  0  0  0  0
 29 30  1  0  0  0  0
 29 31  1  0  0  0  0
 29 32  1  0  0  0  0
 27 28  1  0  0  0  0
 27 29  1  0  0  0  0
M  END
$$$$
default_name
  -OEChem-02102213163D

 32 32  0     1  0  0  0  0  0999 V2000
   -3.8405   -3.7518    1.6252 H   0  0  0  0  0  0  0  0  0  0  0  0
   -3.7965   -2.8768    0.9782 C   0  0  0  0  0  0  0  0  0  0  0  0
   -4.5465   -2.1527    1.2902 H   0  0  0  0  0  0  0  0  0  0  0  0
   -3.9745   -3.1748   -0.0538 H   0  0  0  0  0  0  0  0  0  0  0  0
   -2.4245   -2.2537    1.0882 C   0  0  0  0  0  0  0  0  0  0  0  0
   -1.5805   -2.7478    1.8242 O   0  0  0  0  0  0  0  0  0  0  0  0
   -2.2045   -1.1637    0.3562 N   0  0  0  0  0  0  0  0  0  0  0  0
   -2.9595   -0.7907   -0.2008 H   0  0  0  0  0  0  0  0  0  0  0  0
   -0.9485   -0.4087    0.3482 C   0  0  1  0  0  0  0  0  0  0  0  0
   -0.3666   -0.6914    1.2269 H   0  0  0  0  0  0  0  0  0  0  0  0
   -0.1405   -0.7797   -0.9072 C   0  0  0  0  0  0  0  0  0  0  0  0
   -0.1675   -1.8622   -1.0399 H   0  0  0  0  0  0  0  0  0  0  0  0
   -0.6169   -0.3307   -1.7800 H   0  0  0  0  0  0  0  0  0  0  0  0
    1.3129   -0.3489   -0.8531 C   0  0  0  0  0  0  0  0  0  0  0  0
    2.2481   -0.8786   -1.7622 C   0  0  0  0  0  0  0  0  0  0  0  0
    1.9396   -1.6144   -2.4913 H   0  0  0  0  0  0  0  0  0  0  0  0
    3.5859   -0.4433   -1.7326 C   0  0  0  0  0  0  0  0  0  0  0  0
    4.3030   -0.8532   -2.4300 H   0  0  0  0  0  0  0  0  0  0  0  0
    3.9903    0.5230   -0.7960 C   0  0  0  0  0  0  0  0  0  0  0  0
    5.0186    0.8557   -0.7717 H   0  0  0  0  0  0  0  0  0  0  0  0
    3.0585    1.0533    0.1149 C   0  0  0  0  0  0  0  0  0  0  0  0
    3.3704    1.7921    0.8386 H   0  0  0  0  0  0  0  0  0  0  0  0
    1.7225    0.6157    0.0873 C   0  0  0  0  0  0  0  0  0  0  0  0
    1.0074    1.0219    0.7908 H   0  0  0  0  0  0  0  0  0  0  0  0
   -1.2168    1.1047    0.4313 C   0  0  0  0  0  0  0  0  0  0  0  0
   -2.0890    1.6186   -0.2704 O   0  0  0  0  0  0  0  0  0  0  0  0
   -0.4674    1.8182    1.2813 N   0  0  0  0  0  0  0  0  0  0  0  0
    0.2640    1.3348    1.7800 H   0  0  0  0  0  0  0  0  0  0  0  0
   -0.5889    3.2615    1.4722 C   0  0  0  0  0  0  0  0  0  0  0  0
   -1.6291    3.5206    1.6805 H   0  0  0  0  0  0  0  0  0  0  0  0
    0.0359    3.5855    2.3049 H   0  0  0  0  0  0  0  0  0  0  0  0
   -0.2760    3.7797    0.5637 H   0  0  0  0  0  0  0  0  0  0  0  0
  5  6  2  0  0  0  0
  5  7  1  0  0  0  0
  2  3  1  0  0  0  0
  2  4  1  0  0  0  0
  2  5  1  0  0  0  0
  1  2  1  0  0  0  0
 25 26  2  0  0  0  0
 25 27  1  0  0  0  0
 23 24  1  0  0  0  0
 21 22  1  0  0  0  0
 21 23  2  0  0  0  0
 19 20  1  0  0  0  0
 19 21  1  0  0  0  0
 17 18  1  0  0  0  0
 17 19  2  0  0  0  0
 15 16  1  0  0  0  0
 15 17  1  0  0  0  0
 14 15  2  0  0  0  0
 14 23  1  0  0  0  0
 11 12  1  0  0  0  0
 11 13  1  0  0  0  0
 11 14  1  0  0  0  0
  9 10  1  0  0  0  0
  9 11  1  0  0  0  0
  9 25  1  0  0  0  0
  7  8  1  0  0  0  0
  7  9  1  0  0  0  0
 29 30  1  0  0  0  0
 29 31  1  0  0  0  0
 29 32  1  0  0  0  0
 27 28  1  0  0  0  0
 27 29  1  0  0  0  0
M  END
$$$$
default_name
  -OEChem-02102213163D

 32 32  0     1  0  0  0  0  0999 V2000
   -3.8405   -3.7518    1.6252 H   0  0  0  0  0  0  0  0  0  0  0  0
   -3.7965   -2.8768    0.9782 C   0  0  0  0  0  0  0  0  0  0  0  0
   -4.5465   -2.1527    1.2902 H   0  0  0  0  0  0  0  0  0  0  0  0
   -3.9745   -3.1748   -0.0538 H   0  0  0  0  0  0  0  0  0  0  0  0
   -2.4245   -2.2537    1.0882 C   0  0  0  0  0  0  0  0  0  0  0  0
   -1.5805   -2.7478    1.8242 O   0  0  0  0  0  0  0  0  0  0  0  0
   -2.2045   -1.1637    0.3562 N   0  0  0  0  0  0  0  0  0  0  0  0
   -2.9595   -0.7907   -0.2008 H   0  0  0  0  0  0  0  0  0  0  0  0
   -0.9485   -0.4087    0.3482 C   0  0  1  0  0  0  0  0  0  0  0  0
   -0.3666   -0.6914    1.2269 H   0  0  0  0  0  0  0  0  0  0  0  0
   -0.1405   -0.7797   -0.9072 C   0  0  0  0  0  0  0  0  0  0  0  0
   -0.3806   -1.8045   -1.1941 H   0  0  0  0  0  0  0  0  0  0  0  0
   -0.4451   -0.1296   -1.7287 H   0  0  0  0  0  0  0  0  0  0  0  0
    1.3620   -0.6829   -0.7227 C   0  0  0  0  0  0  0  0  0  0  0  0
    2.2324   -0.9920   -1.7852 C   0  0  0  0  0  0  0  0  0  0  0  0
    1.8344   -1.3229   -2.7341 H   0  0  0  0  0  0  0  0  0  0  0  0
    3.6234   -0.8602   -1.6192 C   0  0  0  0  0  0  0  0  0  0  0  0
    4.2901   -1.1005   -2.4355 H   0  0  0  0  0  0  0  0  0  0  0  0
    4.1463   -0.4176   -0.3923 C   0  0  0  0  0  0  0  0  0  0  0  0
    5.2151   -0.3186   -0.2641 H   0  0  0  0  0  0  0  0  0  0  0  0
    3.2794   -0.1094    0.6719 C   0  0  0  0  0  0  0  0  0  0  0  0
    3.6814    0.2256    1.6168 H   0  0  0  0  0  0  0  0  0  0  0  0
    1.8895   -0.2444    0.5068 C   0  0  0  0  0  0  0  0  0  0  0  0
    1.2238   -0.0101    1.3273 H   0  0  0  0  0  0  0  0  0  0  0  0
   -1.2168    1.1047    0.4313 C   0  0  0  0  0  0  0  0  0  0  0  0
   -2.0890    1.6186   -0.2704 O   0  0  0  0  0  0  0  0  0  0  0  0
   -0.4674    1.8182    1.2813 N   0  0  0  0  0  0  0  0  0  0  0  0
    0.2640    1.3348    1.7800 H   0  0  0  0  0  0  0  0  0  0  0  0
   -0.5889    3.2615    1.4722 C   0  0  0  0  0  0  0  0  0  0  0  0
   -1.6291    3.5206    1.6805 H   0  0  0  0  0  0  0  0  0  0  0  0
    0.0359    3.5855    2.3049 H   0  0  0  0  0  0  0  0  0  0  0  0
   -0.2760    3.7797    0.5637 H   0  0  0  0  0  0  0  0  0  0  0  0
  5  6  2  0  0  0  0
  5  7  1  0  0  0  0
  2  3  1  0  0  0  0
  2  4  1  0  0  0  0
  2  5  1  0  0  0  0
  1  2  1  0  0  0  0
 25 26  2  0  0  0  0
 25 27  1  0  0  0  0
 23 24  1  0  0  0  0
 21 22  1  0  0  0  0
 21 23  2  0  0  0  0
 19 20  1  0  0  0  0
 19 21  1  0  0  0  0
 17 18  1  0  0  0  0
 17 19  2  0  0  0  0
 15 16  1  0  0  0  0
 15 17  1  0  0  0  0
 14 15  2  0  0  0  0
 14 23  1  0  0  0  0
 11 12  1  0  0  0  0
 11 13  1  0  0  0  0
 11 14  1  0  0  0  0
  9 10  1  0  0  0  0
  9 11  1  0  0  0  0
  9 25  1  0  0  0  0
  7  8  1  0  0  0  0
  7  9  1  0  0  0  0
 29 30  1  0  0  0  0
 29 31  1  0  0  0  0
 29 32  1  0  0  0  0
 27 28  1  0  0  0  0
 27 29  1  0  0  0  0
M  END
$$$$
default_name
  -OEChem-02102213163D

 32 32  0     1  0  0  0  0  0999 V2000
   -3.8405   -3.7518    1.6252 H   0  0  0  0  0  0  0  0  0  0  0  0
   -3.7965   -2.8768    0.9782 C   0  0  0  0  0  0  0  0  0  0  0  0
   -4.5465   -2.1527    1.2902 H   0  0  0  0  0  0  0  0  0  0  0  0
   -3.9745   -3.1748   -0.0538 H   0  0  0  0  0  0  0  0  0  0  0  0
   -2.4245   -2.2537    1.0882 C   0  0  0  0  0  0  0  0  0  0  0  0
   -1.5805   -2.7478    1.8242 O   0  0  0  0  0  0  0  0  0  0  0  0
   -2.2045   -1.1637    0.3562 N   0  0  0  0  0  0  0  0  0  0  0  0
   -2.9595   -0.7907   -0.2008 H   0  0  0  0  0  0  0  0  0  0  0  0
   -0.9485   -0.4087    0.3482 C   0  0  1  0  0  0  0  0  0  0  0  0
   -0.3666   -0.6914    1.2269 H   0  0  0  0  0  0  0  0  0  0  0  0
   -0.1405   -0.7797   -0.9072 C   0  0  0  0  0  0  0  0  0  0  0  0
   -0.3806   -1.8045   -1.1941 H   0  0  0  0  0  0  0  0  0  0  0  0
   -0.4451   -0.1296   -1.7287 H   0  0  0  0  0  0  0  0  0  0  0  0
    1.3620   -0.6829   -0.7227 C   0  0  0  0  0  0  0  0  0  0  0  0
    2.2190   -0.6802   -1.8396 C   0  0  0  0  0  0  0  0  0  0  0  0
    1.8114   -0.7702   -2.8367 H   0  0  0  0  0  0  0  0  0  0  0  0
    3.6087   -0.5485   -1.6627 C   0  0  0  0  0  0  0  0  0  0  0  0
    4.2651   -0.5492   -2.5215 H   0  0  0  0  0  0  0  0  0  0  0  0
    4.1435   -0.4176   -0.3698 C   0  0  0  0  0  0  0  0  0  0  0  0
    5.2114   -0.3189   -0.2338 H   0  0  0  0  0  0  0  0  0  0  0  0
    3.2901   -0.4215    0.7485 C   0  0  0  0  0  0  0  0  0  0  0  0
    3.7015   -0.3264    1.7427 H   0  0  0  0  0  0  0  0  0  0  0  0
    1.9016   -0.5564    0.5715 C   0  0  0  0  0  0  0  0  0  0  0  0
    1.2464   -0.5626    1.4329 H   0  0  0  0  0  0  0  0  0  0  0  0
   -1.2168    1.1047    0.4313 C   0  0  0  0  0  0  0  0  0  0  0  0
   -2.0890    1.6186   -0.2704 O   0  0  0  0  0  0  0  0  0  0  0  0
   -0.4674    1.8182    1.2813 N   0  0  0  0  0  0  0  0  0  0  0  0
    0.2640    1.3348    1.7800 H   0  0  0  0  0  0  0  0  0  0  0  0
   -0.5889    3.2615    1.4722 C   0  0  0  0  0  0  0  0  0  0  0  0
   -1.6291    3.5206    1.6805 H   0  0  0  0  0  0  0  0  0  0  0  0
    0.0359    3.5855    2.3049 H   0  0  0  0  0  0  0  0  0  0  0  0
   -0.2760    3.7797    0.5637 H   0  0  0  0  0  0  0  0  0  0  0  0
  5  6  2  0  0  0  0
  5  7  1  0  0  0  0
  2  3  1  0  0  0  0
  2  4  1  0  0  0  0
  2  5  1  0  0  0  0
  1  2  1  0  0  0  0
 25 26  2  0  0  0  0
 25 27  1  0  0  0  0
 23 24  1  0  0  0  0
 21 22  1  0  0  0  0
 21 23  2  0  0  0  0
 19 20  1  0  0  0  0
 19 21  1  0  0  0  0
 17 18  1  0  0  0  0
 17 19  2  0  0  0  0
 15 16  1  0  0  0  0
 15 17  1  0  0  0  0
 14 15  2  0  0  0  0
 14 23  1  0  0  0  0
 11 12  1  0  0  0  0
 11 13  1  0  0  0  0
 11 14  1  0  0  0  0
  9 10  1  0  0  0  0
  9 11  1  0  0  0  0
  9 25  1  0  0  0  0
  7  8  1  0  0  0  0
  7  9  1  0  0  0  0
 29 30  1  0  0  0  0
 29 31  1  0  0  0  0
 29 32  1  0  0  0  0
 27 28  1  0  0  0  0
 27 29  1  0  0  0  0
M  END
$$$$
default_name
  -OEChem-02102213163D

 32 32  0     1  0  0  0  0  0999 V2000
   -3.8405   -3.7518    1.6252 H   0  0  0  0  0  0  0  0  0  0  0  0
   -3.7965   -2.8768    0.9782 C   0  0  0  0  0  0  0  0  0  0  0  0
   -4.5465   -2.1527    1.2902 H   0  0  0  0  0  0  0  0  0  0  0  0
   -3.9745   -3.1748   -0.0538 H   0  0  0  0  0  0  0  0  0  0  0  0
   -2.4245   -2.2537    1.0882 C   0  0  0  0  0  0  0  0  0  0  0  0
   -1.5805   -2.7478    1.8242 O   0  0  0  0  0  0  0  0  0  0  0  0
   -2.2045   -1.1637    0.3562 N   0  0  0  0  0  0  0  0  0  0  0  0
   -2.9595   -0.7907   -0.2008 H   0  0  0  0  0  0  0  0  0  0  0  0
   -0.9485   -0.4087    0.3482 C   0  0  1  0  0  0  0  0  0  0  0  0
   -0.3666   -0.6914    1.2269 H   0  0  0  0  0  0  0  0  0  0  0  0
   -0.1405   -0.7797   -0.9072 C   0  0  0  0  0  0  0  0  0  0  0  0
   -0.3806   -1.8045   -1.1941 H   0  0  0  0  0  0  0  0  0  0  0  0
   -0.4451   -0.1296   -1.7287 H   0  0  0  0  0  0  0  0  0  0  0  0
    1.3620   -0.6829   -0.7227 C   0  0  0  0  0  0  0  0  0  0  0  0
    2.1953   -0.3654   -1.8121 C   0  0  0  0  0  0  0  0  0  0  0  0
    1.7701   -0.2107   -2.7937 H   0  0  0  0  0  0  0  0  0  0  0  0
    3.5839   -0.2368   -1.6245 C   0  0  0  0  0  0  0  0  0  0  0  0
    4.2223    0.0045   -2.4628 H   0  0  0  0  0  0  0  0  0  0  0  0
    4.1412   -0.4235   -0.3481 C   0  0  0  0  0  0  0  0  0  0  0  0
    5.2083   -0.3270   -0.2045 H   0  0  0  0  0  0  0  0  0  0  0  0
    3.3115   -0.7424    0.7423 C   0  0  0  0  0  0  0  0  0  0  0  0
    3.7404   -0.8912    1.7224 H   0  0  0  0  0  0  0  0  0  0  0  0
    1.9242   -0.8740    0.5539 C   0  0  0  0  0  0  0  0  0  0  0  0
    1.2874   -1.1227    1.3929 H   0  0  0  0  0  0  0  0  0  0  0  0
   -1.2168    1.1047    0.4313 C   0  0  0  0  0  0  0  0  0  0  0  0
   -2.0890    1.6186   -0.2704 O   0  0  0  0  0  0  0  0  0  0  0  0
   -0.4674    1.8182    1.2813 N   0  0  0  0  0  0  0  0  0  0  0  0
    0.2640    1.3348    1.7800 H   0  0  0  0  0  0  0  0  0  0  0  0
   -0.5889    3.2615    1.4722 C   0  0  0  0  0  0  0  0  0  0  0  0
   -1.6291    3.5206    1.6805 H   0  0  0  0  0  0  0  0  0  0  0  0
    0.0359    3.5855    2.3049 H   0  0  0  0  0  0  0  0  0  0  0  0
   -0.2760    3.7797    0.5637 H   0  0  0  0  0  0  0  0  0  0  0  0
  5  6  2  0  0  0  0
  5  7  1  0  0  0  0
  2  3  1  0  0  0  0
  2  4  1  0  0  0  0
  2  5  1  0  0  0  0
  1  2  1  0  0  0  0
 25 26  2  0  0  0  0
 25 27  1  0  0  0  0
 23 24  1  0  0  0  0
 21 22  1  0  0  0  0
 21 23  2  0  0  0  0
 19 20  1  0  0  0  0
 19 21  1  0  0  0  0
 17 18  1  0  0  0  0
 17 19  2  0  0  0  0
 15 16  1  0  0  0  0
 15 17  1  0  0  0  0
 14 15  2  0  0  0  0
 14 23  1  0  0  0  0
 11 12  1  0  0  0  0
 11 13  1  0  0  0  0
 11 14  1  0  0  0  0
  9 10  1  0  0  0  0
  9 11  1  0  0  0  0
  9 25  1  0  0  0  0
  7  8  1  0  0  0  0
  7  9  1  0  0  0  0
 29 30  1  0  0  0  0
 29 31  1  0  0  0  0
 29 32  1  0  0  0  0
 27 28  1  0  0  0  0
 27 29  1  0  0  0  0
M  END
$$$$
default_name
  -OEChem-02102213163D

 32 32  0     1  0  0  0  0  0999 V2000
   -3.8405   -3.7518    1.6252 H   0  0  0  0  0  0  0  0  0  0  0  0
   -3.7965   -2.8768    0.9782 C   0  0  0  0  0  0  0  0  0  0  0  0
   -4.5465   -2.1527    1.2902 H   0  0  0  0  0  0  0  0  0  0  0  0
   -3.9745   -3.1748   -0.0538 H   0  0  0  0  0  0  0  0  0  0  0  0
   -2.4245   -2.2537    1.0882 C   0  0  0  0  0  0  0  0  0  0  0  0
   -1.5805   -2.7478    1.8242 O   0  0  0  0  0  0  0  0  0  0  0  0
   -2.2045   -1.1637    0.3562 N   0  0  0  0  0  0  0  0  0  0  0  0
   -2.9595   -0.7907   -0.2008 H   0  0  0  0  0  0  0  0  0  0  0  0
   -0.9485   -0.4087    0.3482 C   0  0  1  0  0  0  0  0  0  0  0  0
   -0.3666   -0.6914    1.2269 H   0  0  0  0  0  0  0  0  0  0  0  0
   -0.1405   -0.7797   -0.9072 C   0  0  0  0  0  0  0  0  0  0  0  0
   -0.3806   -1.8045   -1.1941 H   0  0  0  0  0  0  0  0  0  0  0  0
   -0.4451   -0.1296   -1.7287 H   0  0  0  0  0  0  0  0  0  0  0  0
    1.3620   -0.6829   -0.7227 C   0  0  0  0  0  0  0  0  0  0  0  0
    2.1630   -0.0692   -1.7043 C   0  0  0  0  0  0  0  0  0  0  0  0
    1.7133    0.3174   -2.6080 H   0  0  0  0  0  0  0  0  0  0  0  0
    3.5508    0.0537   -1.5073 C   0  0  0  0  0  0  0  0  0  0  0  0
    4.1644    0.5230   -2.2635 H   0  0  0  0  0  0  0  0  0  0  0  0
    4.1396   -0.4348   -0.3286 C   0  0  0  0  0  0  0  0  0  0  0  0
    5.2061   -0.3425   -0.1783 H   0  0  0  0  0  0  0  0  0  0  0  0
    3.3422   -1.0500    0.6536 C   0  0  0  0  0  0  0  0  0  0  0  0
    3.7954   -1.4304    1.5573 H   0  0  0  0  0  0  0  0  0  0  0  0
    1.9558   -1.1756    0.4550 C   0  0  0  0  0  0  0  0  0  0  0  0
    1.3439   -1.6520    1.2099 H   0  0  0  0  0  0  0  0  0  0  0  0
   -1.2168    1.1047    0.4313 C   0  0  0  0  0  0  0  0  0  0  0  0
   -2.0890    1.6186   -0.2704 O   0  0  0  0  0  0  0  0  0  0  0  0
   -0.4674    1.8182    1.2813 N   0  0  0  0  0  0  0  0  0  0  0  0
    0.2640    1.3348    1.7800 H   0  0  0  0  0  0  0  0  0  0  0  0
   -0.5889    3.2615    1.4722 C   0  0  0  0  0  0  0  0  0  0  0  0
   -1.6291    3.5206    1.6805 H   0  0  0  0  0  0  0  0  0  0  0  0
    0.0359    3.5855    2.3049 H   0  0  0  0  0  0  0  0  0  0  0  0
   -0.2760    3.7797    0.5637 H   0  0  0  0  0  0  0  0  0  0  0  0
  5  6  2  0  0  0  0
  5  7  1  0  0  0  0
  2  3  1  0  0  0  0
  2  4  1  0  0  0  0
  2  5  1  0  0  0  0
  1  2  1  0  0  0  0
 25 26  2  0  0  0  0
 25 27  1  0  0  0  0
 23 24  1  0  0  0  0
 21 22  1  0  0  0  0
 21 23  2  0  0  0  0
 19 20  1  0  0  0  0
 19 21  1  0  0  0  0
 17 18  1  0  0  0  0
 17 19  2  0  0  0  0
 15 16  1  0  0  0  0
 15 17  1  0  0  0  0
 14 15  2  0  0  0  0
 14 23  1  0  0  0  0
 11 12  1  0  0  0  0
 11 13  1  0  0  0  0
 11 14  1  0  0  0  0
  9 10  1  0  0  0  0
  9 11  1  0  0  0  0
  9 25  1  0  0  0  0
  7  8  1  0  0  0  0
  7  9  1  0  0  0  0
 29 30  1  0  0  0  0
 29 31  1  0  0  0  0
 29 32  1  0  0  0  0
 27 28  1  0  0  0  0
 27 29  1  0  0  0  0
M  END
$$$$
default_name
  -OEChem-02102213163D

 32 32  0     1  0  0  0  0  0999 V2000
   -3.8405   -3.7518    1.6252 H   0  0  0  0  0  0  0  0  0  0  0  0
   -3.7965   -2.8768    0.9782 C   0  0  0  0  0  0  0  0  0  0  0  0
   -4.5465   -2.1527    1.2902 H   0  0  0  0  0  0  0  0  0  0  0  0
   -3.9745   -3.1748   -0.0538 H   0  0  0  0  0  0  0  0  0  0  0  0
   -2.4245   -2.2537    1.0882 C   0  0  0  0  0  0  0  0  0  0  0  0
   -1.5805   -2.7478    1.8242 O   0  0  0  0  0  0  0  0  0  0  0  0
   -2.2045   -1.1637    0.3562 N   0  0  0  0  0  0  0  0  0  0  0  0
   -2.9595   -0.7907   -0.2008 H   0  0  0  0  0  0  0  0  0  0  0  0
   -0.9485   -0.4087    0.3482 C   0  0  1  0  0  0  0  0  0  0  0  0
   -0.3666   -0.6914    1.2269 H   0  0  0  0  0  0  0  0  0  0  0  0
   -0.1405   -0.7797   -0.9072 C   0  0  0  0  0  0  0  0  0  0  0  0
   -0.3806   -1.8045   -1.1941 H   0  0  0  0  0  0  0  0  0  0  0  0
   -0.4451   -0.1296   -1.7287 H   0  0  0  0  0  0  0  0  0  0  0  0
    1.3620   -0.6829   -0.7227 C   0  0  0  0  0  0  0  0  0  0  0  0
    2.1243    0.1883   -1.5238 C   0  0  0  0  0  0  0  0  0  0  0  0
    1.6449    0.7781   -2.2924 H   0  0  0  0  0  0  0  0  0  0  0  0
    3.5116    0.3032   -1.3191 C   0  0  0  0  0  0  0  0  0  0  0  0
    4.0955    0.9708   -1.9370 H   0  0  0  0  0  0  0  0  0  0  0  0
    4.1386   -0.4508   -0.3126 C   0  0  0  0  0  0  0  0  0  0  0  0
    5.2049   -0.3643   -0.1569 H   0  0  0  0  0  0  0  0  0  0  0  0
    3.3801   -1.3235    0.4887 C   0  0  0  0  0  0  0  0  0  0  0  0
    3.8627   -1.9071    1.2588 H   0  0  0  0  0  0  0  0  0  0  0  0
    1.9941   -1.4405    0.2817 C   0  0  0  0  0  0  0  0  0  0  0  0
    1.4122   -2.1147    0.8966 H   0  0  0  0  0  0  0  0  0  0  0  0
   -1.2168    1.1047    0.4313 C   0  0  0  0  0  0  0  0  0  0  0  0
   -2.0890    1.6186   -0.2704 O   0  0  0  0  0  0  0  0  0  0  0  0
   -0.4674    1.8182    1.2813 N   0  0  0  0  0  0  0  0  0  0  0  0
    0.2640    1.3348    1.7800 H   0  0  0  0  0  0  0  0  0  0  0  0
   -0.5889    3.2615    1.4722 C   0  0  0  0  0  0  0  0  0  0  0  0
   -1.6291    3.5206    1.6805 H   0  0  0  0  0  0  0  0  0  0  0  0
    0.0359    3.5855    2.3049 H   0  0  0  0  0  0  0  0  0  0  0  0
   -0.2760    3.7797    0.5637 H   0  0  0  0  0  0  0  0  0  0  0  0
  5  6  2  0  0  0  0
  5  7  1  0  0  0  0
  2  3  1  0  0  0  0
  2  4  1  0  0  0  0
  2  5  1  0  0  0  0
  1  2  1  0  0  0  0
 25 26  2  0  0  0  0
 25 27  1  0  0  0  0
 23 24  1  0  0  0  0
 21 22  1  0  0  0  0
 21 23  2  0  0  0  0
 19 20  1  0  0  0  0
 19 21  1  0  0  0  0
 17 18  1  0  0  0  0
 17 19  2  0  0  0  0
 15 16  1  0  0  0  0
 15 17  1  0  0  0  0
 14 15  2  0  0  0  0
 14 23  1  0  0  0  0
 11 12  1  0  0  0  0
 11 13  1  0  0  0  0
 11 14  1  0  0  0  0
  9 10  1  0  0  0  0
  9 11  1  0  0  0  0
  9 25  1  0  0  0  0
  7  8  1  0  0  0  0
  7  9  1  0  0  0  0
 29 30  1  0  0  0  0
 29 31  1  0  0  0  0
 29 32  1  0  0  0  0
 27 28  1  0  0  0  0
 27 29  1  0  0  0  0
M  END
$$$$
default_name
  -OEChem-02102213163D

 32 32  0     1  0  0  0  0  0999 V2000
   -3.8405   -3.7518    1.6252 H   0  0  0  0  0  0  0  0  0  0  0  0
   -3.7965   -2.8768    0.9782 C   0  0  0  0  0  0  0  0  0  0  0  0
   -4.5465   -2.1527    1.2902 H   0  0  0  0  0  0  0  0  0  0  0  0
   -3.9745   -3.1748   -0.0538 H   0  0  0  0  0  0  0  0  0  0  0  0
   -2.4245   -2.2537    1.0882 C   0  0  0  0  0  0  0  0  0  0  0  0
   -1.5805   -2.7478    1.8242 O   0  0  0  0  0  0  0  0  0  0  0  0
   -2.2045   -1.1637    0.3562 N   0  0  0  0  0  0  0  0  0  0  0  0
   -2.9595   -0.7907   -0.2008 H   0  0  0  0  0  0  0  0  0  0  0  0
   -0.9485   -0.4087    0.3482 C   0  0  1  0  0  0  0  0  0  0  0  0
   -0.3666   -0.6914    1.2269 H   0  0  0  0  0  0  0  0  0  0  0  0
   -0.1405   -0.7797   -0.9072 C   0  0  0  0  0  0  0  0  0  0  0  0
   -0.3806   -1.8045   -1.1941 H   0  0  0  0  0  0  0  0  0  0  0  0
   -0.4451   -0.1296   -1.7287 H   0  0  0  0  0  0  0  0  0  0  0  0
    1.3620   -0.6829   -0.7227 C   0  0  0  0  0  0  0  0  0  0  0  0
    2.0817    0.3895   -1.2828 C   0  0  0  0  0  0  0  0  0  0  0  0
    1.5695    1.1400   -1.8683 H   0  0  0  0  0  0  0  0  0  0  0  0
    3.4690    0.4947   -1.0727 C   0  0  0  0  0  0  0  0  0  0  0  0
    4.0202    1.3176   -1.5058 H   0  0  0  0  0  0  0  0  0  0  0  0
    4.1385   -0.4703   -0.3012 C   0  0  0  0  0  0  0  0  0  0  0  0
    5.2047   -0.3908   -0.1418 H   0  0  0  0  0  0  0  0  0  0  0  0
    3.4225   -1.5441    0.2586 C   0  0  0  0  0  0  0  0  0  0  0  0
    3.9379   -2.2890    0.8471 H   0  0  0  0  0  0  0  0  0  0  0  0
    2.0366   -1.6508    0.0457 C   0  0  0  0  0  0  0  0  0  0  0  0
    1.4875   -2.4791    0.4741 H   0  0  0  0  0  0  0  0  0  0  0  0
   -1.2168    1.1047    0.4313 C   0  0  0  0  0  0  0  0  0  0  0  0
   -2.0890    1.6186   -0.2704 O   0  0  0  0  0  0  0  0  0  0  0  0
   -0.4674    1.8182    1.2813 N   0  0  0  0  0  0  0  0  0  0  0  0
    0.2640    1.3348    1.7800 H   0  0  0  0  0  0  0  0  0  0  0  0
   -0.5889    3.2615    1.4722 C   0  0  0  0  0  0  0  0  0  0  0  0
   -1.6291    3.5206    1.6805 H   0  0  0  0  0  0  0  0  0  0  0  0
    0.0359    3.5855    2.3049 H   0  0  0  0  0  0  0  0  0  0  0  0
   -0.2760    3.7797    0.5637 H   0  0  0  0  0  0  0  0  0  0  0  0
  5  6  2  0  0  0  0
  5  7  1  0  0  0  0
  2  3  1  0  0  0  0
  2  4  1  0  0  0  0
  2  5  1  0  0  0  0
  1  2  1  0  0  0  0
 25 26  2  0  0  0  0
 25 27  1  0  0  0  0
 23 24  1  0  0  0  0
 21 22  1  0  0  0  0
 21 23  2  0  0  0  0
 19 20  1  0  0  0  0
 19 21  1  0  0  0  0
 17 18  1  0  0  0  0
 17 19  2  0  0  0  0
 15 16  1  0  0  0  0
 15 17  1  0  0  0  0
 14 15  2  0  0  0  0
 14 23  1  0  0  0  0
 11 12  1  0  0  0  0
 11 13  1  0  0  0  0
 11 14  1  0  0  0  0
  9 10  1  0  0  0  0
  9 11  1  0  0  0  0
  9 25  1  0  0  0  0
  7  8  1  0  0  0  0
  7  9  1  0  0  0  0
 29 30  1  0  0  0  0
 29 31  1  0  0  0  0
 29 32  1  0  0  0  0
 27 28  1  0  0  0  0
 27 29  1  0  0  0  0
M  END
$$$$
default_name
  -OEChem-02102213163D

 32 32  0     1  0  0  0  0  0999 V2000
   -3.8405   -3.7518    1.6252 H   0  0  0  0  0  0  0  0  0  0  0  0
   -3.7965   -2.8768    0.9782 C   0  0  0  0  0  0  0  0  0  0  0  0
   -4.5465   -2.1527    1.2902 H   0  0  0  0  0  0  0  0  0  0  0  0
   -3.9745   -3.1748   -0.0538 H   0  0  0  0  0  0  0  0  0  0  0  0
   -2.4245   -2.2537    1.0882 C   0  0  0  0  0  0  0  0  0  0  0  0
   -1.5805   -2.7478    1.8242 O   0  0  0  0  0  0  0  0  0  0  0  0
   -2.2045   -1.1637    0.3562 N   0  0  0  0  0  0  0  0  0  0  0  0
   -2.9595   -0.7907   -0.2008 H   0  0  0  0  0  0  0  0  0  0  0  0
   -0.9485   -0.4087    0.3482 C   0  0  1  0  0  0  0  0  0  0  0  0
   -0.3666   -0.6914    1.2269 H   0  0  0  0  0  0  0  0  0  0  0  0
   -0.1405   -0.7797   -0.9072 C   0  0  0  0  0  0  0  0  0  0  0  0
   -0.3806   -1.8045   -1.1941 H   0  0  0  0  0  0  0  0  0  0  0  0
   -0.4451   -0.1296   -1.7287 H   0  0  0  0  0  0  0  0  0  0  0  0
    1.3620   -0.6829   -0.7227 C   0  0  0  0  0  0  0  0  0  0  0  0
    2.0383    0.5208   -0.9977 C   0  0  0  0  0  0  0  0  0  0  0  0
    1.4923    1.3785   -1.3646 H   0  0  0  0  0  0  0  0  0  0  0  0
    3.4260    0.6152   -0.7848 C   0  0  0  0  0  0  0  0  0  0  0  0
    3.9437    1.5396   -0.9991 H   0  0  0  0  0  0  0  0  0  0  0  0
    4.1392   -0.4922   -0.2953 C   0  0  0  0  0  0  0  0  0  0  0  0
    5.2057   -0.4203   -0.1340 H   0  0  0  0  0  0  0  0  0  0  0  0
    3.4667   -1.6969   -0.0209 C   0  0  0  0  0  0  0  0  0  0  0  0
    4.0156   -2.5499    0.3502 H   0  0  0  0  0  0  0  0  0  0  0  0
    2.0804   -1.7920   -0.2369 C   0  0  0  0  0  0  0  0  0  0  0  0
    1.5648   -2.7205   -0.0286 H   0  0  0  0  0  0  0  0  0  0  0  0
   -1.2168    1.1047    0.4313 C   0  0  0  0  0  0  0  0  0  0  0  0
   -2.0890    1.6186   -0.2704 O   0  0  0  0  0  0  0  0  0  0  0  0
   -0.4674    1.8182    1.2813 N   0  0  0  0  0  0  0  0  0  0  0  0
    0.2640    1.3348    1.7800 H   0  0  0  0  0  0  0  0  0  0  0  0
   -0.5889    3.2615    1.4722 C   0  0  0  0  0  0  0  0  0  0  0  0
   -1.6291    3.5206    1.6805 H   0  0  0  0  0  0  0  0  0  0  0  0
    0.0359    3.5855    2.3049 H   0  0  0  0  0  0  0  0  0  0  0  0
   -0.2760    3.7797    0.5637 H   0  0  0  0  0  0  0  0  0  0  0  0
  5  6  2  0  0  0  0
  5  7  1  0  0  0  0
  2  3  1  0  0  0  0
  2  4  1  0  0  0  0
  2  5  1  0  0  0  0
  1  2  1  0  0  0  0
 25 26  2  0  0  0  0
 25 27  1  0  0  0  0
 23 24  1  0  0  0  0
 21 22  1  0  0  0  0
 21 23  2  0  0  0  0
 19 20  1  0  0  0  0
 19 21  1  0  0  0  0
 17 18  1  0  0  0  0
 17 19  2  0  0  0  0
 15 16  1  0  0  0  0
 15 17  1  0  0  0  0
 14 15  2  0  0  0  0
 14 23  1  0  0  0  0
 11 12  1  0  0  0  0
 11 13  1  0  0  0  0
 11 14  1  0  0  0  0
  9 10  1  0  0  0  0
  9 11  1  0  0  0  0
  9 25  1  0  0  0  0
  7  8  1  0  0  0  0
  7  9  1  0  0  0  0
 29 30  1  0  0  0  0
 29 31  1  0  0  0  0
 29 32  1  0  0  0  0
 27 28  1  0  0  0  0
 27 29  1  0  0  0  0
M  END
$$$$
default_name
  -OEChem-02102213163D

 32 32  0     1  0  0  0  0  0999 V2000
   -3.8405   -3.7518    1.6252 H   0  0  0  0  0  0  0  0  0  0  0  0
   -3.7965   -2.8768    0.9782 C   0  0  0  0  0  0  0  0  0  0  0  0
   -4.5465   -2.1527    1.2902 H   0  0  0  0  0  0  0  0  0  0  0  0
   -3.9745   -3.1748   -0.0538 H   0  0  0  0  0  0  0  0  0  0  0  0
   -2.4245   -2.2537    1.0882 C   0  0  0  0  0  0  0  0  0  0  0  0
   -1.5805   -2.7478    1.8242 O   0  0  0  0  0  0  0  0  0  0  0  0
   -2.2045   -1.1637    0.3562 N   0  0  0  0  0  0  0  0  0  0  0  0
   -2.9595   -0.7907   -0.2008 H   0  0  0  0  0  0  0  0  0  0  0  0
   -0.9485   -0.4087    0.3482 C   0  0  1  0  0  0  0  0  0  0  0  0
   -0.3666   -0.6914    1.2269 H   0  0  0  0  0  0  0  0  0  0  0  0
   -0.1405   -0.7797   -0.9072 C   0  0  0  0  0  0  0  0  0  0  0  0
   -0.3806   -1.8045   -1.1941 H   0  0  0  0  0  0  0  0  0  0  0  0
   -0.4451   -0.1296   -1.7287 H   0  0  0  0  0  0  0  0  0  0  0  0
    1.3620   -0.6829   -0.7227 C   0  0  0  0  0  0  0  0  0  0  0  0
    1.9969    0.5731   -0.6879 C   0  0  0  0  0  0  0  0  0  0  0  0
    1.4186    1.4773   -0.8156 H   0  0  0  0  0  0  0  0  0  0  0  0
    3.3853    0.6565   -0.4752 C   0  0  0  0  0  0  0  0  0  0  0  0
    3.8712    1.6218   -0.4514 H   0  0  0  0  0  0  0  0  0  0  0  0
    4.1406   -0.5147   -0.2951 C   0  0  0  0  0  0  0  0  0  0  0  0
    5.2077   -0.4507   -0.1340 H   0  0  0  0  0  0  0  0  0  0  0  0
    3.5095   -1.7715   -0.3308 C   0  0  0  0  0  0  0  0  0  0  0  0
    4.0908   -2.6721   -0.1978 H   0  0  0  0  0  0  0  0  0  0  0  0
    2.1225   -1.8547   -0.5467 C   0  0  0  0  0  0  0  0  0  0  0  0
    1.6387   -2.8223   -0.5773 H   0  0  0  0  0  0  0  0  0  0  0  0
   -1.2168    1.1047    0.4313 C   0  0  0  0  0  0  0  0  0  0  0  0
   -2.0890    1.6186   -0.2704 O   0  0  0  0  0  0  0  0  0  0  0  0
   -0.4674    1.8182    1.2813 N   0  0  0  0  0  0  0  0  0  0  0  0
    0.2640    1.3348    1.7800 H   0  0  0  0  0  0  0  0  0  0  0  0
   -0.5889    3.2615    1.4722 C   0  0  0  0  0  0  0  0  0  0  0  0
   -1.6291    3.5206    1.6805 H   0  0  0  0  0  0  0  0  0  0  0  0
    0.0359    3.5855    2.3049 H   0  0  0  0  0  0  0  0  0  0  0  0
   -0.2760    3.7797    0.5637 H   0  0  0  0  0  0  0  0  0  0  0  0
  5  6  2  0  0  0  0
  5  7  1  0  0  0  0
  2  3  1  0  0  0  0
  2  4  1  0  0  0  0
  2  5  1  0  0  0  0
  1  2  1  0  0  0  0
 25 26  2  0  0  0  0
 25 27  1  0  0  0  0
 23 24  1  0  0  0  0
 21 22  1  0  0  0  0
 21 23  2  0  0  0  0
 19 20  1  0  0  0  0
 19 21  1  0  0  0  0
 17 18  1  0  0  0  0
 17 19  2  0  0  0  0
 15 16  1  0  0  0  0
 15 17  1  0  0  0  0
 14 15  2  0  0  0  0
 14 23  1  0  0  0  0
 11 12  1  0  0  0  0
 11 13  1  0  0  0  0
 11 14  1  0  0  0  0
  9 10  1  0  0  0  0
  9 11  1  0  0  0  0
  9 25  1  0  0  0  0
  7  8  1  0  0  0  0
  7  9  1  0  0  0  0
 29 30  1  0  0  0  0
 29 31  1  0  0  0  0
 29 32  1  0  0  0  0
 27 28  1  0  0  0  0
 27 29  1  0  0  0  0
M  END
$$$$
default_name
  -OEChem-02102213163D

 32 32  0     1  0  0  0  0  0999 V2000
   -3.8405   -3.7518    1.6252 H   0  0  0  0  0  0  0  0  0  0  0  0
   -3.7965   -2.8768    0.9782 C   0  0  0  0  0  0  0  0  0  0  0  0
   -4.5465   -2.1527    1.2902 H   0  0  0  0  0  0  0  0  0  0  0  0
   -3.9745   -3.1748   -0.0538 H   0  0  0  0  0  0  0  0  0  0  0  0
   -2.4245   -2.2537    1.0882 C   0  0  0  0  0  0  0  0  0  0  0  0
   -1.5805   -2.7478    1.8242 O   0  0  0  0  0  0  0  0  0  0  0  0
   -2.2045   -1.1637    0.3562 N   0  0  0  0  0  0  0  0  0  0  0  0
   -2.9595   -0.7907   -0.2008 H   0  0  0  0  0  0  0  0  0  0  0  0
   -0.9485   -0.4087    0.3482 C   0  0  1  0  0  0  0  0  0  0  0  0
   -0.3666   -0.6914    1.2269 H   0  0  0  0  0  0  0  0  0  0  0  0
   -0.1405   -0.7797   -0.9072 C   0  0  0  0  0  0  0  0  0  0  0  0
   -0.3806   -1.8045   -1.1941 H   0  0  0  0  0  0  0  0  0  0  0  0
   -0.4451   -0.1296   -1.7287 H   0  0  0  0  0  0  0  0  0  0  0  0
    1.3620   -0.6829   -0.7227 C   0  0  0  0  0  0  0  0  0  0  0  0
    1.9604    0.5429   -0.3747 C   0  0  0  0  0  0  0  0  0  0  0  0
    1.3533    1.4297   -0.2588 H   0  0  0  0  0  0  0  0  0  0  0  0
    3.3498    0.6157   -0.1649 C   0  0  0  0  0  0  0  0  0  0  0  0
    3.8076    1.5585    0.0998 H   0  0  0  0  0  0  0  0  0  0  0  0
    4.1427   -0.5365   -0.3008 C   0  0  0  0  0  0  0  0  0  0  0  0
    5.2105   -0.4801   -0.1419 H   0  0  0  0  0  0  0  0  0  0  0  0
    3.5481   -1.7627   -0.6500 C   0  0  0  0  0  0  0  0  0  0  0  0
    4.1582   -2.6473   -0.7598 H   0  0  0  0  0  0  0  0  0  0  0  0
    2.1600   -1.8344   -0.8628 C   0  0  0  0  0  0  0  0  0  0  0  0
    1.7042   -2.7776   -1.1346 H   0  0  0  0  0  0  0  0  0  0  0  0
   -1.2168    1.1047    0.4313 C   0  0  0  0  0  0  0  0  0  0  0  0
   -2.0890    1.6186   -0.2704 O   0  0  0  0  0  0  0  0  0  0  0  0
   -0.4674    1.8182    1.2813 N   0  0  0  0  0  0  0  0  0  0  0  0
    0.2640    1.3348    1.7800 H   0  0  0  0  0  0  0  0  0  0  0  0
   -0.5889    3.2615    1.4722 C   0  0  0  0  0  0  0  0  0  0  0  0
   -1.6291    3.5206    1.6805 H   0  0  0  0  0  0  0  0  0  0  0  0
    0.0359    3.5855    2.3049 H   0  0  0  0  0  0  0  0  0  0  0  0
   -0.2760    3.7797    0.5637 H   0  0  0  0  0  0  0  0  0  0  0  0
  5  6  2  0  0  0  0
  5  7  1  0  0  0  0
  2  3  1  0  0  0  0
  2  4  1  0  0  0  0
  2  5  1  0  0  0  0
  1  2  1  0  0  0  0
 25 26  2  0  0  0  0
 25 27  1  0  0  0  0
 23 24  1  0  0  0  0
 21 22  1  0  0  0  0
 21 23  2  0  0  0  0
 19 20  1  0  0  0  0
 19 21  1  0  0  0  0
 17 18  1  0  0  0  0
 17 19  2  0  0  0  0
 15 16  1  0  0  0  0
 15 17  1  0  0  0  0
 14 15  2  0  0  0  0
 14 23  1  0  0  0  0
 11 12  1  0  0  0  0
 11 13  1  0  0  0  0
 11 14  1  0  0  0  0
  9 10  1  0  0  0  0
  9 11  1  0  0  0  0
  9 25  1  0  0  0  0
  7  8  1  0  0  0  0
  7  9  1  0  0  0  0
 29 30  1  0  0  0  0
 29 31  1  0  0  0  0
 29 32  1  0  0  0  0
 27 28  1  0  0  0  0
 27 29  1  0  0  0  0
M  END
$$$$
default_name
  -OEChem-02102213163D

 32 32  0     1  0  0  0  0  0999 V2000
   -3.8405   -3.7518    1.6252 H   0  0  0  0  0  0  0  0  0  0  0  0
   -3.7965   -2.8768    0.9782 C   0  0  0  0  0  0  0  0  0  0  0  0
   -4.5465   -2.1527    1.2902 H   0  0  0  0  0  0  0  0  0  0  0  0
   -3.9745   -3.1748   -0.0538 H   0  0  0  0  0  0  0  0  0  0  0  0
   -2.4245   -2.2537    1.0882 C   0  0  0  0  0  0  0  0  0  0  0  0
   -1.5805   -2.7478    1.8242 O   0  0  0  0  0  0  0  0  0  0  0  0
   -2.2045   -1.1637    0.3562 N   0  0  0  0  0  0  0  0  0  0  0  0
   -2.9595   -0.7907   -0.2008 H   0  0  0  0  0  0  0  0  0  0  0  0
   -0.9485   -0.4087    0.3482 C   0  0  1  0  0  0  0  0  0  0  0  0
   -0.3666   -0.6914    1.2269 H   0  0  0  0  0  0  0  0  0  0  0  0
   -0.1405   -0.7797   -0.9072 C   0  0  0  0  0  0  0  0  0  0  0  0
   -0.3806   -1.8045   -1.1941 H   0  0  0  0  0  0  0  0  0  0  0  0
   -0.4451   -0.1296   -1.7287 H   0  0  0  0  0  0  0  0  0  0  0  0
    1.3620   -0.6829   -0.7227 C   0  0  0  0  0  0  0  0  0  0  0  0
    1.9312    0.4323   -0.0792 C   0  0  0  0  0  0  0  0  0  0  0  0
    1.3010    1.2389    0.2679 H   0  0  0  0  0  0  0  0  0  0  0  0
    3.3220    0.4956    0.1250 C   0  0  0  0  0  0  0  0  0  0  0  0
    3.7573    1.3540    0.6171 H   0  0  0  0  0  0  0  0  0  0  0  0
    4.1453   -0.5561   -0.3119 C   0  0  0  0  0  0  0  0  0  0  0  0
    5.2141   -0.5063   -0.1571 H   0  0  0  0  0  0  0  0  0  0  0  0
    3.5799   -1.6712   -0.9567 C   0  0  0  0  0  0  0  0  0  0  0  0
    4.2132   -2.4771   -1.2974 H   0  0  0  0  0  0  0  0  0  0  0  0
    2.1903   -1.7326   -1.1635 C   0  0  0  0  0  0  0  0  0  0  0  0
    1.7569   -2.5896   -1.6626 H   0  0  0  0  0  0  0  0  0  0  0  0
   -1.2168    1.1047    0.4313 C   0  0  0  0  0  0  0  0  0  0  0  0
   -2.0890    1.6186   -0.2704 O   0  0  0  0  0  0  0  0  0  0  0  0
   -0.4674    1.8182    1.2813 N   0  0  0  0  0  0  0  0  0  0  0  0
    0.2640    1.3348    1.7800 H   0  0  0  0  0  0  0  0  0  0  0  0
   -0.5889    3.2615    1.4722 C   0  0  0  0  0  0  0  0  0  0  0  0
   -1.6291    3.5206    1.6805 H   0  0  0  0  0  0  0  0  0  0  0  0
    0.0359    3.5855    2.3049 H   0  0  0  0  0  0  0  0  0  0  0  0
   -0.2760    3.7797    0.5637 H   0  0  0  0  0  0  0  0  0  0  0  0
  5  6  2  0  0  0  0
  5  7  1  0  0  0  0
  2  3  1  0  0  0  0
  2  4  1  0  0  0  0
  2  5  1  0  0  0  0
  1  2  1  0  0  0  0
 25 26  2  0  0  0  0
 25 27  1  0  0  0  0
 23 24  1  0  0  0  0
 21 22  1  0  0  0  0
 21 23  2  0  0  0  0
 19 20  1  0  0  0  0
 19 21  1  0  0  0  0
 17 18  1  0  0  0  0
 17 19  2  0  0  0  0
 15 16  1  0  0  0  0
 15 17  1  0  0  0  0
 14 15  2  0  0  0  0
 14 23  1  0  0  0  0
 11 12  1  0  0  0  0
 11 13  1  0  0  0  0
 11 14  1  0  0  0  0
  9 10  1  0  0  0  0
  9 11  1  0  0  0  0
  9 25  1  0  0  0  0
  7  8  1  0  0  0  0
  7  9  1  0  0  0  0
 29 30  1  0  0  0  0
 29 31  1  0  0  0  0
 29 32  1  0  0  0  0
 27 28  1  0  0  0  0
 27 29  1  0  0  0  0
M  END
$$$$
default_name
  -OEChem-02102213163D

 32 32  0     1  0  0  0  0  0999 V2000
   -3.8405   -3.7518    1.6252 H   0  0  0  0  0  0  0  0  0  0  0  0
   -3.7965   -2.8768    0.9782 C   0  0  0  0  0  0  0  0  0  0  0  0
   -4.5465   -2.1527    1.2902 H   0  0  0  0  0  0  0  0  0  0  0  0
   -3.9745   -3.1748   -0.0538 H   0  0  0  0  0  0  0  0  0  0  0  0
   -2.4245   -2.2537    1.0882 C   0  0  0  0  0  0  0  0  0  0  0  0
   -1.5805   -2.7478    1.8242 O   0  0  0  0  0  0  0  0  0  0  0  0
   -2.2045   -1.1637    0.3562 N   0  0  0  0  0  0  0  0  0  0  0  0
   -2.9595   -0.7907   -0.2008 H   0  0  0  0  0  0  0  0  0  0  0  0
   -0.9485   -0.4087    0.3482 C   0  0  1  0  0  0  0  0  0  0  0  0
   -0.3666   -0.6914    1.2269 H   0  0  0  0  0  0  0  0  0  0  0  0
   -0.1405   -0.7797   -0.9072 C   0  0  0  0  0  0  0  0  0  0  0  0
   -0.3806   -1.8045   -1.1941 H   0  0  0  0  0  0  0  0  0  0  0  0
   -0.4451   -0.1296   -1.7287 H   0  0  0  0  0  0  0  0  0  0  0  0
    1.3620   -0.6829   -0.7227 C   0  0  0  0  0  0  0  0  0  0  0  0
    1.9114    0.2487    0.1784 C   0  0  0  0  0  0  0  0  0  0  0  0
    1.2651    0.9179    0.7286 H   0  0  0  0  0  0  0  0  0  0  0  0
    3.3037    0.3044    0.3746 C   0  0  0  0  0  0  0  0  0  0  0  0
    3.7237    1.0223    1.0651 H   0  0  0  0  0  0  0  0  0  0  0  0
    4.1483   -0.5720   -0.3276 C   0  0  0  0  0  0  0  0  0  0  0  0
    5.2181   -0.5276   -0.1786 H   0  0  0  0  0  0  0  0  0  0  0  0
    3.6026   -1.5032   -1.2299 C   0  0  0  0  0  0  0  0  0  0  0  0
    4.2521   -2.1732   -1.7739 H   0  0  0  0  0  0  0  0  0  0  0  0
    2.2115   -1.5563   -1.4284 C   0  0  0  0  0  0  0  0  0  0  0  0
    1.7932   -2.2709   -2.1253 H   0  0  0  0  0  0  0  0  0  0  0  0
   -1.2168    1.1047    0.4313 C   0  0  0  0  0  0  0  0  0  0  0  0
   -2.0890    1.6186   -0.2704 O   0  0  0  0  0  0  0  0  0  0  0  0
   -0.4674    1.8182    1.2813 N   0  0  0  0  0  0  0  0  0  0  0  0
    0.2640    1.3348    1.7800 H   0  0  0  0  0  0  0  0  0  0  0  0
   -0.5889    3.2615    1.4722 C   0  0  0  0  0  0  0  0  0  0  0  0
   -1.6291    3.5206    1.6805 H   0  0  0  0  0  0  0  0  0  0  0  0
    0.0359    3.5855    2.3049 H   0  0  0  0  0  0  0  0  0  0  0  0
   -0.2760    3.7797    0.5637 H   0  0  0  0  0  0  0  0  0  0  0  0
  5  6  2  0  0  0  0
  5  7  1  0  0  0  0
  2  3  1  0  0  0  0
  2  4  1  0  0  0  0
  2  5  1  0  0  0  0
  1  2  1  0  0  0  0
 25 26  2  0  0  0  0
 25 27  1  0  0  0  0
 23 24  1  0  0  0  0
 21 22  1  0  0  0  0
 21 23  2  0  0  0  0
 19 20  1  0  0  0  0
 19 21  1  0  0  0  0
 17 18  1  0  0  0  0
 17 19  2  0  0  0  0
 15 16  1  0  0  0  0
 15 17  1  0  0  0  0
 14 15  2  0  0  0  0
 14 23  1  0  0  0  0
 11 12  1  0  0  0  0
 11 13  1  0  0  0  0
 11 14  1  0  0  0  0
  9 10  1  0  0  0  0
  9 11  1  0  0  0  0
  9 25  1  0  0  0  0
  7  8  1  0  0  0  0
  7  9  1  0  0  0  0
 29 30  1  0  0  0  0
 29 31  1  0  0  0  0
 29 32  1  0  0  0  0
 27 28  1  0  0  0  0
 27 29  1  0  0  0  0
M  END
$$$$
default_name
  -OEChem-02102213163D

 32 32  0     1  0  0  0  0  0999 V2000
   -3.8405   -3.7518    1.6252 H   0  0  0  0  0  0  0  0  0  0  0  0
   -3.7965   -2.8768    0.9782 C   0  0  0  0  0  0  0  0  0  0  0  0
   -4.5465   -2.1527    1.2902 H   0  0  0  0  0  0  0  0  0  0  0  0
   -3.9745   -3.1748   -0.0538 H   0  0  0  0  0  0  0  0  0  0  0  0
   -2.4245   -2.2537    1.0882 C   0  0  0  0  0  0  0  0  0  0  0  0
   -1.5805   -2.7478    1.8242 O   0  0  0  0  0  0  0  0  0  0  0  0
   -2.2045   -1.1637    0.3562 N   0  0  0  0  0  0  0  0  0  0  0  0
   -2.9595   -0.7907   -0.2008 H   0  0  0  0  0  0  0  0  0  0  0  0
   -0.9485   -0.4087    0.3482 C   0  0  1  0  0  0  0  0  0  0  0  0
   -0.3666   -0.6914    1.2269 H   0  0  0  0  0  0  0  0  0  0  0  0
   -0.1405   -0.7797   -0.9072 C   0  0  0  0  0  0  0  0  0  0  0  0
   -0.3806   -1.8045   -1.1941 H   0  0  0  0  0  0  0  0  0  0  0  0
   -0.4451   -0.1296   -1.7287 H   0  0  0  0  0  0  0  0  0  0  0  0
    1.3620   -0.6829   -0.7227 C   0  0  0  0  0  0  0  0  0  0  0  0
    1.9024    0.0048    0.3804 C   0  0  0  0  0  0  0  0  0  0  0  0
    1.2481    0.4886    1.0919 H   0  0  0  0  0  0  0  0  0  0  0  0
    3.2961    0.0551    0.5671 C   0  0  0  0  0  0  0  0  0  0  0  0
    3.7090    0.5859    1.4134 H   0  0  0  0  0  0  0  0  0  0  0  0
    4.1514   -0.5833   -0.3470 C   0  0  0  0  0  0  0  0  0  0  0  0
    5.2223   -0.5426   -0.2048 H   0  0  0  0  0  0  0  0  0  0  0  0
    3.6147   -1.2701   -1.4512 C   0  0  0  0  0  0  0  0  0  0  0  0
    4.2723   -1.7563   -2.1569 H   0  0  0  0  0  0  0  0  0  0  0  0
    2.2220   -1.3174   -1.6393 C   0  0  0  0  0  0  0  0  0  0  0  0
    1.8105   -1.8433   -2.4911 H   0  0  0  0  0  0  0  0  0  0  0  0
   -1.2168    1.1047    0.4313 C   0  0  0  0  0  0  0  0  0  0  0  0
   -2.0890    1.6186   -0.2704 O   0  0  0  0  0  0  0  0  0  0  0  0
   -0.4674    1.8182    1.2813 N   0  0  0  0  0  0  0  0  0  0  0  0
    0.2640    1.3348    1.7800 H   0  0  0  0  0  0  0  0  0  0  0  0
   -0.5889    3.2615    1.4722 C   0  0  0  0  0  0  0  0  0  0  0  0
   -1.6291    3.5206    1.6805 H   0  0  0  0  0  0  0  0  0  0  0  0
    0.0359    3.5855    2.3049 H   0  0  0  0  0  0  0  0  0  0  0  0
   -0.2760    3.7797    0.5637 H   0  0  0  0  0  0  0  0  0  0  0  0
  5  6  2  0  0  0  0
  5  7  1  0  0  0  0
  2  3  1  0  0  0  0
  2  4  1  0  0  0  0
  2  5  1  0  0  0  0
  1  2  1  0  0  0  0
 25 26  2  0  0  0  0
 25 27  1  0  0  0  0
 23 24  1  0  0  0  0
 21 22  1  0  0  0  0
 21 23  2  0  0  0  0
 19 20  1  0  0  0  0
 19 21  1  0  0  0  0
 17 18  1  0  0  0  0
 17 19  2  0  0  0  0
 15 16  1  0  0  0  0
 15 17  1  0  0  0  0
 14 15  2  0  0  0  0
 14 23  1  0  0  0  0
 11 12  1  0  0  0  0
 11 13  1  0  0  0  0
 11 14  1  0  0  0  0
  9 10  1  0  0  0  0
  9 11  1  0  0  0  0
  9 25  1  0  0  0  0
  7  8  1  0  0  0  0
  7  9  1  0  0  0  0
 29 30  1  0  0  0  0
 29 31  1  0  0  0  0
 29 32  1  0  0  0  0
 27 28  1  0  0  0  0
 27 29  1  0  0  0  0
M  END
$$$$
default_name
  -OEChem-02102213163D

 32 32  0     1  0  0  0  0  0999 V2000
   -3.8405   -3.7518    1.6252 H   0  0  0  0  0  0  0  0  0  0  0  0
   -3.7965   -2.8768    0.9782 C   0  0  0  0  0  0  0  0  0  0  0  0
   -4.5465   -2.1527    1.2902 H   0  0  0  0  0  0  0  0  0  0  0  0
   -3.9745   -3.1748   -0.0538 H   0  0  0  0  0  0  0  0  0  0  0  0
   -2.4245   -2.2537    1.0882 C   0  0  0  0  0  0  0  0  0  0  0  0
   -1.5805   -2.7478    1.8242 O   0  0  0  0  0  0  0  0  0  0  0  0
   -2.2045   -1.1637    0.3562 N   0  0  0  0  0  0  0  0  0  0  0  0
   -2.9595   -0.7907   -0.2008 H   0  0  0  0  0  0  0  0  0  0  0  0
   -0.9485   -0.4087    0.3482 C   0  0  1  0  0  0  0  0  0  0  0  0
   -0.3666   -0.6914    1.2269 H   0  0  0  0  0  0  0  0  0  0  0  0
   -0.1405   -0.7797   -0.9072 C   0  0  0  0  0  0  0  0  0  0  0  0
   -0.3806   -1.8045   -1.1941 H   0  0  0  0  0  0  0  0  0  0  0  0
   -0.4451   -0.1296   -1.7287 H   0  0  0  0  0  0  0  0  0  0  0  0
    1.3620   -0.6829   -0.7227 C   0  0  0  0  0  0  0  0  0  0  0  0
    1.9046   -0.2829    0.5132 C   0  0  0  0  0  0  0  0  0  0  0  0
    1.2513   -0.0197    1.3330 H   0  0  0  0  0  0  0  0  0  0  0  0
    3.2998   -0.2352    0.6892 C   0  0  0  0  0  0  0  0  0  0  0  0
    3.7144    0.0747    1.6382 H   0  0  0  0  0  0  0  0  0  0  0  0
    4.1544   -0.5891   -0.3687 C   0  0  0  0  0  0  0  0  0  0  0  0
    5.2263   -0.5502   -0.2341 H   0  0  0  0  0  0  0  0  0  0  0  0
    3.6155   -0.9879   -1.6054 C   0  0  0  0  0  0  0  0  0  0  0  0
    4.2723   -1.2547   -2.4203 H   0  0  0  0  0  0  0  0  0  0  0  0
    2.2211   -1.0322   -1.7821 C   0  0  0  0  0  0  0  0  0  0  0  0
    1.8078   -1.3359   -2.7350 H   0  0  0  0  0  0  0  0  0  0  0  0
   -1.2168    1.1047    0.4313 C   0  0  0  0  0  0  0  0  0  0  0  0
   -2.0890    1.6186   -0.2704 O   0  0  0  0  0  0  0  0  0  0  0  0
   -0.4674    1.8182    1.2813 N   0  0  0  0  0  0  0  0  0  0  0  0
    0.2640    1.3348    1.7800 H   0  0  0  0  0  0  0  0  0  0  0  0
   -0.5889    3.2615    1.4722 C   0  0  0  0  0  0  0  0  0  0  0  0
   -1.6291    3.5206    1.6805 H   0  0  0  0  0  0  0  0  0  0  0  0
    0.0359    3.5855    2.3049 H   0  0  0  0  0  0  0  0  0  0  0  0
   -0.2760    3.7797    0.5637 H   0  0  0  0  0  0  0  0  0  0  0  0
  5  6  2  0  0  0  0
  5  7  1  0  0  0  0
  2  3  1  0  0  0  0
  2  4  1  0  0  0  0
  2  5  1  0  0  0  0
  1  2  1  0  0  0  0
 25 26  2  0  0  0  0
 25 27  1  0  0  0  0
 23 24  1  0  0  0  0
 21 22  1  0  0  0  0
 21 23  2  0  0  0  0
 19 20  1  0  0  0  0
 19 21  1  0  0  0  0
 17 18  1  0  0  0  0
 17 19  2  0  0  0  0
 15 16  1  0  0  0  0
 15 17  1  0  0  0  0
 14 15  2  0  0  0  0
 14 23  1  0  0  0  0
 11 12  1  0  0  0  0
 11 13  1  0  0  0  0
 11 14  1  0  0  0  0
  9 10  1  0  0  0  0
  9 11  1  0  0  0  0
  9 25  1  0  0  0  0
  7  8  1  0  0  0  0
  7  9  1  0  0  0  0
 29 30  1  0  0  0  0
 29 31  1  0  0  0  0
 29 32  1  0  0  0  0
 27 28  1  0  0  0  0
 27 29  1  0  0  0  0
M  END
$$$$
default_name
  -OEChem-02102213163D

 32 32  0     1  0  0  0  0  0999 V2000
   -3.8405   -3.7518    1.6252 H   0  0  0  0  0  0  0  0  0  0  0  0
   -3.7965   -2.8768    0.9782 C   0  0  0  0  0  0  0  0  0  0  0  0
   -4.5465   -2.1527    1.2902 H   0  0  0  0  0  0  0  0  0  0  0  0
   -3.9745   -3.1748   -0.0538 H   0  0  0  0  0  0  0  0  0  0  0  0
   -2.4245   -2.2537    1.0882 C   0  0  0  0  0  0  0  0  0  0  0  0
   -1.5805   -2.7478    1.8242 O   0  0  0  0  0  0  0  0  0  0  0  0
   -2.2045   -1.1637    0.3562 N   0  0  0  0  0  0  0  0  0  0  0  0
   -2.9595   -0.7907   -0.2008 H   0  0  0  0  0  0  0  0  0  0  0  0
   -0.9485   -0.4087    0.3482 C   0  0  1  0  0  0  0  0  0  0  0  0
   -0.3666   -0.6914    1.2269 H   0  0  0  0  0  0  0  0  0  0  0  0
   -0.1405   -0.7797   -0.9072 C   0  0  0  0  0  0  0  0  0  0  0  0
   -0.3806   -1.8045   -1.1941 H   0  0  0  0  0  0  0  0  0  0  0  0
   -0.4451   -0.1296   -1.7287 H   0  0  0  0  0  0  0  0  0  0  0  0
    1.3620   -0.6829   -0.7227 C   0  0  0  0  0  0  0  0  0  0  0  0
    1.9180   -0.5947    0.5676 C   0  0  0  0  0  0  0  0  0  0  0  0
    1.2743   -0.5724    1.4356 H   0  0  0  0  0  0  0  0  0  0  0  0
    3.3145   -0.5469    0.7326 C   0  0  0  0  0  0  0  0  0  0  0  0
    3.7393   -0.4765    1.7242 H   0  0  0  0  0  0  0  0  0  0  0  0
    4.1572   -0.5891   -0.3911 C   0  0  0  0  0  0  0  0  0  0  0  0
    5.2300   -0.5500   -0.2644 H   0  0  0  0  0  0  0  0  0  0  0  0
    3.6048   -0.6757   -1.6820 C   0  0  0  0  0  0  0  0  0  0  0  0
    4.2522   -0.7027   -2.5462 H   0  0  0  0  0  0  0  0  0  0  0  0
    2.2090   -0.7202   -1.8468 C   0  0  0  0  0  0  0  0  0  0  0  0
    1.7852   -0.7834   -2.8406 H   0  0  0  0  0  0  0  0  0  0  0  0
   -1.2168    1.1047    0.4313 C   0  0  0  0  0  0  0  0  0  0  0  0
   -2.0890    1.6186   -0.2704 O   0  0  0  0  0  0  0  0  0  0  0  0
   -0.4674    1.8182    1.2813 N   0  0  0  0  0  0  0  0  0  0  0  0
    0.2640    1.3348    1.7800 H   0  0  0  0  0  0  0  0  0  0  0  0
   -0.5889    3.2615    1.4722 C   0  0  0  0  0  0  0  0  0  0  0  0
   -1.6291    3.5206    1.6805 H   0  0  0  0  0  0  0  0  0  0  0  0
    0.0359    3.5855    2.3049 H   0  0  0  0  0  0  0  0  0  0  0  0
   -0.2760    3.7797    0.5637 H   0  0  0  0  0  0  0  0  0  0  0  0
  5  6  2  0  0  0  0
  5  7  1  0  0  0  0
  2  3  1  0  0  0  0
  2  4  1  0  0  0  0
  2  5  1  0  0  0  0
  1  2  1  0  0  0  0
 25 26  2  0  0  0  0
 25 27  1  0  0  0  0
 23 24  1  0  0  0  0
 21 22  1  0  0  0  0
 21 23  2  0  0  0  0
 19 20  1  0  0  0  0
 19 21  1  0  0  0  0
 17 18  1  0  0  0  0
 17 19  2  0  0  0  0
 15 16  1  0  0  0  0
 15 17  1  0  0  0  0
 14 15  2  0  0  0  0
 14 23  1  0  0  0  0
 11 12  1  0  0  0  0
 11 13  1  0  0  0  0
 11 14  1  0  0  0  0
  9 10  1  0  0  0  0
  9 11  1  0  0  0  0
  9 25  1  0  0  0  0
  7  8  1  0  0  0  0
  7  9  1  0  0  0  0
 29 30  1  0  0  0  0
 29 31  1  0  0  0  0
 29 32  1  0  0  0  0
 27 28  1  0  0  0  0
 27 29  1  0  0  0  0
M  END
$$$$
default_name
  -OEChem-02102213163D

 32 32  0     1  0  0  0  0  0999 V2000
   -3.8405   -3.7518    1.6252 H   0  0  0  0  0  0  0  0  0  0  0  0
   -3.7965   -2.8768    0.9782 C   0  0  0  0  0  0  0  0  0  0  0  0
   -4.5465   -2.1527    1.2902 H   0  0  0  0  0  0  0  0  0  0  0  0
   -3.9745   -3.1748   -0.0538 H   0  0  0  0  0  0  0  0  0  0  0  0
   -2.4245   -2.2537    1.0882 C   0  0  0  0  0  0  0  0  0  0  0  0
   -1.5805   -2.7478    1.8242 O   0  0  0  0  0  0  0  0  0  0  0  0
   -2.2045   -1.1637    0.3562 N   0  0  0  0  0  0  0  0  0  0  0  0
   -2.9595   -0.7907   -0.2008 H   0  0  0  0  0  0  0  0  0  0  0  0
   -0.9485   -0.4087    0.3482 C   0  0  1  0  0  0  0  0  0  0  0  0
   -0.3666   -0.6914    1.2269 H   0  0  0  0  0  0  0  0  0  0  0  0
   -0.1405   -0.7797   -0.9072 C   0  0  0  0  0  0  0  0  0  0  0  0
   -0.3806   -1.8045   -1.1941 H   0  0  0  0  0  0  0  0  0  0  0  0
   -0.4451   -0.1296   -1.7287 H   0  0  0  0  0  0  0  0  0  0  0  0
    1.3620   -0.6829   -0.7227 C   0  0  0  0  0  0  0  0  0  0  0  0
    1.9416   -0.9095    0.5400 C   0  0  0  0  0  0  0  0  0  0  0  0
    1.3156   -1.1319    1.3926 H   0  0  0  0  0  0  0  0  0  0  0  0
    3.3393   -0.8586    0.6945 C   0  0  0  0  0  0  0  0  0  0  0  0
    3.7822   -1.0303    1.6655 H   0  0  0  0  0  0  0  0  0  0  0  0
    4.1595   -0.5832   -0.4128 C   0  0  0  0  0  0  0  0  0  0  0  0
    5.2331   -0.5418   -0.2936 H   0  0  0  0  0  0  0  0  0  0  0  0
    3.5834   -0.3549   -1.6758 C   0  0  0  0  0  0  0  0  0  0  0  0
    4.2133   -0.1378   -2.5259 H   0  0  0  0  0  0  0  0  0  0  0  0
    2.1864   -0.4025   -1.8291 C   0  0  0  0  0  0  0  0  0  0  0  0
    1.7442   -0.2234   -2.8006 H   0  0  0  0  0  0  0  0  0  0  0  0
   -1.2168    1.1047    0.4313 C   0  0  0  0  0  0  0  0  0  0  0  0
   -2.0890    1.6186   -0.2704 O   0  0  0  0  0  0  0  0  0  0  0  0
   -0.4674    1.8182    1.2813 N   0  0  0  0  0  0  0  0  0  0  0  0
    0.2640    1.3348    1.7800 H   0  0  0  0  0  0  0  0  0  0  0  0
   -0.5889    3.2615    1.4722 C   0  0  0  0  0  0  0  0  0  0  0  0
   -1.6291    3.5206    1.6805 H   0  0  0  0  0  0  0  0  0  0  0  0
    0.0359    3.5855    2.3049 H   0  0  0  0  0  0  0  0  0  0  0  0
   -0.2760    3.7797    0.5637 H   0  0  0  0  0  0  0  0  0  0  0  0
  5  6  2  0  0  0  0
  5  7  1  0  0  0  0
  2  3  1  0  0  0  0
  2  4  1  0  0  0  0
  2  5  1  0  0  0  0
  1  2  1  0  0  0  0
 25 26  2  0  0  0  0
 25 27  1  0  0  0  0
 23 24  1  0  0  0  0
 21 22  1  0  0  0  0
 21 23  2  0  0  0  0
 19 20  1  0  0  0  0
 19 21  1  0  0  0  0
 17 18  1  0  0  0  0
 17 19  2  0  0  0  0
 15 16  1  0  0  0  0
 15 17  1  0  0  0  0
 14 15  2  0  0  0  0
 14 23  1  0  0  0  0
 11 12  1  0  0  0  0
 11 13  1  0  0  0  0
 11 14  1  0  0  0  0
  9 10  1  0  0  0  0
  9 11  1  0  0  0  0
  9 25  1  0  0  0  0
  7  8  1  0  0  0  0
  7  9  1  0  0  0  0
 29 30  1  0  0  0  0
 29 31  1  0  0  0  0
 29 32  1  0  0  0  0
 27 28  1  0  0  0  0
 27 29  1  0  0  0  0
M  END
$$$$
default_name
  -OEChem-02102213163D

 32 32  0     1  0  0  0  0  0999 V2000
   -3.8405   -3.7518    1.6252 H   0  0  0  0  0  0  0  0  0  0  0  0
   -3.7965   -2.8768    0.9782 C   0  0  0  0  0  0  0  0  0  0  0  0
   -4.5465   -2.1527    1.2902 H   0  0  0  0  0  0  0  0  0  0  0  0
   -3.9745   -3.1748   -0.0538 H   0  0  0  0  0  0  0  0  0  0  0  0
   -2.4245   -2.2537    1.0882 C   0  0  0  0  0  0  0  0  0  0  0  0
   -1.5805   -2.7478    1.8242 O   0  0  0  0  0  0  0  0  0  0  0  0
   -2.2045   -1.1637    0.3562 N   0  0  0  0  0  0  0  0  0  0  0  0
   -2.9595   -0.7907   -0.2008 H   0  0  0  0  0  0  0  0  0  0  0  0
   -0.9485   -0.4087    0.3482 C   0  0  1  0  0  0  0  0  0  0  0  0
   -0.3666   -0.6914    1.2269 H   0  0  0  0  0  0  0  0  0  0  0  0
   -0.1405   -0.7797   -0.9072 C   0  0  0  0  0  0  0  0  0  0  0  0
   -0.3806   -1.8045   -1.1941 H   0  0  0  0  0  0  0  0  0  0  0  0
   -0.4451   -0.1296   -1.7287 H   0  0  0  0  0  0  0  0  0  0  0  0
    1.3620   -0.6829   -0.7227 C   0  0  0  0  0  0  0  0  0  0  0  0
    1.9739   -1.2057    0.4323 C   0  0  0  0  0  0  0  0  0  0  0  0
    1.3724   -1.6599    1.2070 H   0  0  0  0  0  0  0  0  0  0  0  0
    3.3724   -1.1491    0.5773 C   0  0  0  0  0  0  0  0  0  0  0  0
    3.8400   -1.5488    1.4662 H   0  0  0  0  0  0  0  0  0  0  0  0
    4.1611   -0.5719   -0.4324 C   0  0  0  0  0  0  0  0  0  0  0  0
    5.2353   -0.5263   -0.3199 H   0  0  0  0  0  0  0  0  0  0  0  0
    3.5527   -0.0473   -1.5871 C   0  0  0  0  0  0  0  0  0  0  0  0
    4.1584    0.4013   -2.3608 H   0  0  0  0  0  0  0  0  0  0  0  0
    2.1548   -0.1010   -1.7302 C   0  0  0  0  0  0  0  0  0  0  0  0
    1.6877    0.3060   -2.6176 H   0  0  0  0  0  0  0  0  0  0  0  0
   -1.2168    1.1047    0.4313 C   0  0  0  0  0  0  0  0  0  0  0  0
   -2.0890    1.6186   -0.2704 O   0  0  0  0  0  0  0  0  0  0  0  0
   -0.4674    1.8182    1.2813 N   0  0  0  0  0  0  0  0  0  0  0  0
    0.2640    1.3348    1.7800 H   0  0  0  0  0  0  0  0  0  0  0  0
   -0.5889    3.2615    1.4722 C   0  0  0  0  0  0  0  0  0  0  0  0
   -1.6291    3.5206    1.6805 H   0  0  0  0  0  0  0  0  0  0  0  0
    0.0359    3.5855    2.3049 H   0  0  0  0  0  0  0  0  0  0  0  0
   -0.2760    3.7797    0.5637 H   0  0  0  0  0  0  0  0  0  0  0  0
  5  6  2  0  0  0  0
  5  7  1  0  0  0  0
  2  3  1  0  0  0  0
  2  4  1  0  0  0  0
  2  5  1  0  0  0  0
  1  2  1  0  0  0  0
 25 26  2  0  0  0  0
 25 27  1  0  0  0  0
 23 24  1  0  0  0  0
 21 22  1  0  0  0  0
 21 23  2  0  0  0  0
 19 20  1  0  0  0  0
 19 21  1  0  0  0  0
 17 18  1  0  0  0  0
 17 19  2  0  0  0  0
 15 16  1  0  0  0  0
 15 17  1  0  0  0  0
 14 15  2  0  0  0  0
 14 23  1  0  0  0  0
 11 12  1  0  0  0  0
 11 13  1  0  0  0  0
 11 14  1  0  0  0  0
  9 10  1  0  0  0  0
  9 11  1  0  0  0  0
  9 25  1  0  0  0  0
  7  8  1  0  0  0  0
  7  9  1  0  0  0  0
 29 30  1  0  0  0  0
 29 31  1  0  0  0  0
 29 32  1  0  0  0  0
 27 28  1  0  0  0  0
 27 29  1  0  0  0  0
M  END
$$$$
default_name
  -OEChem-02102213163D

 32 32  0     1  0  0  0  0  0999 V2000
   -3.8405   -3.7518    1.6252 H   0  0  0  0  0  0  0  0  0  0  0  0
   -3.7965   -2.8768    0.9782 C   0  0  0  0  0  0  0  0  0  0  0  0
   -4.5465   -2.1527    1.2902 H   0  0  0  0  0  0  0  0  0  0  0  0
   -3.9745   -3.1748   -0.0538 H   0  0  0  0  0  0  0  0  0  0  0  0
   -2.4245   -2.2537    1.0882 C   0  0  0  0  0  0  0  0  0  0  0  0
   -1.5805   -2.7478    1.8242 O   0  0  0  0  0  0  0  0  0  0  0  0
   -2.2045   -1.1637    0.3562 N   0  0  0  0  0  0  0  0  0  0  0  0
   -2.9595   -0.7907   -0.2008 H   0  0  0  0  0  0  0  0  0  0  0  0
   -0.9485   -0.4087    0.3482 C   0  0  1  0  0  0  0  0  0  0  0  0
   -0.3666   -0.6914    1.2269 H   0  0  0  0  0  0  0  0  0  0  0  0
   -0.1405   -0.7797   -0.9072 C   0  0  0  0  0  0  0  0  0  0  0  0
   -0.3806   -1.8045   -1.1941 H   0  0  0  0  0  0  0  0  0  0  0  0
   -0.4451   -0.1296   -1.7287 H   0  0  0  0  0  0  0  0  0  0  0  0
    1.3620   -0.6829   -0.7227 C   0  0  0  0  0  0  0  0  0  0  0  0
    2.0127   -1.4632    0.2518 C   0  0  0  0  0  0  0  0  0  0  0  0
    1.4408   -2.1206    0.8913 H   0  0  0  0  0  0  0  0  0  0  0  0
    3.4116   -1.3986    0.3891 C   0  0  0  0  0  0  0  0  0  0  0  0
    3.9089   -1.9966    1.1397 H   0  0  0  0  0  0  0  0  0  0  0  0
    4.1621   -0.5559   -0.4483 C   0  0  0  0  0  0  0  0  0  0  0  0
    5.2366   -0.5046   -0.3412 H   0  0  0  0  0  0  0  0  0  0  0  0
    3.5148    0.2262   -1.4222 C   0  0  0  0  0  0  0  0  0  0  0  0
    4.0910    0.8781   -2.0623 H   0  0  0  0  0  0  0  0  0  0  0  0
    2.1165    0.1639   -1.5569 C   0  0  0  0  0  0  0  0  0  0  0  0
    1.6194    0.7687   -2.3043 H   0  0  0  0  0  0  0  0  0  0  0  0
   -1.2168    1.1047    0.4313 C   0  0  0  0  0  0  0  0  0  0  0  0
   -2.0890    1.6186   -0.2704 O   0  0  0  0  0  0  0  0  0  0  0  0
   -0.4674    1.8182    1.2813 N   0  0  0  0  0  0  0  0  0  0  0  0
    0.2640    1.3348    1.7800 H   0  0  0  0  0  0  0  0  0  0  0  0
   -0.5889    3.2615    1.4722 C   0  0  0  0  0  0  0  0  0  0  0  0
   -1.6291    3.5206    1.6805 H   0  0  0  0  0  0  0  0  0  0  0  0
    0.0359    3.5855    2.3049 H   0  0  0  0  0  0  0  0  0  0  0  0
   -0.2760    3.7797    0.5637 H   0  0  0  0  0  0  0  0  0  0  0  0
  5  6  2  0  0  0  0
  5  7  1  0  0  0  0
  2  3  1  0  0  0  0
  2  4  1  0  0  0  0
  2  5  1  0  0  0  0
  1  2  1  0  0  0  0
 25 26  2  0  0  0  0
 25 27  1  0  0  0  0
 23 24  1  0  0  0  0
 21 22  1  0  0  0  0
 21 23  2  0  0  0  0
 19 20  1  0  0  0  0
 19 21  1  0  0  0  0
 17 18  1  0  0  0  0
 17 19  2  0  0  0  0
 15 16  1  0  0  0  0
 15 17  1  0  0  0  0
 14 15  2  0  0  0  0
 14 23  1  0  0  0  0
 11 12  1  0  0  0  0
 11 13  1  0  0  0  0
 11 14  1  0  0  0  0
  9 10  1  0  0  0  0
  9 11  1  0  0  0  0
  9 25  1  0  0  0  0
  7  8  1  0  0  0  0
  7  9  1  0  0  0  0
 29 30  1  0  0  0  0
 29 31  1  0  0  0  0
 29 32  1  0  0  0  0
 27 28  1  0  0  0  0
 27 29  1  0  0  0  0
M  END
$$$$
default_name
  -OEChem-02102213163D

 32 32  0     1  0  0  0  0  0999 V2000
   -3.8405   -3.7518    1.6252 H   0  0  0  0  0  0  0  0  0  0  0  0
   -3.7965   -2.8768    0.9782 C   0  0  0  0  0  0  0  0  0  0  0  0
   -4.5465   -2.1527    1.2902 H   0  0  0  0  0  0  0  0  0  0  0  0
   -3.9745   -3.1748   -0.0538 H   0  0  0  0  0  0  0  0  0  0  0  0
   -2.4245   -2.2537    1.0882 C   0  0  0  0  0  0  0  0  0  0  0  0
   -1.5805   -2.7478    1.8242 O   0  0  0  0  0  0  0  0  0  0  0  0
   -2.2045   -1.1637    0.3562 N   0  0  0  0  0  0  0  0  0  0  0  0
   -2.9595   -0.7907   -0.2008 H   0  0  0  0  0  0  0  0  0  0  0  0
   -0.9485   -0.4087    0.3482 C   0  0  1  0  0  0  0  0  0  0  0  0
   -0.3666   -0.6914    1.2269 H   0  0  0  0  0  0  0  0  0  0  0  0
   -0.1405   -0.7797   -0.9072 C   0  0  0  0  0  0  0  0  0  0  0  0
   -0.3806   -1.8045   -1.1941 H   0  0  0  0  0  0  0  0  0  0  0  0
   -0.4451   -0.1296   -1.7287 H   0  0  0  0  0  0  0  0  0  0  0  0
    1.3620   -0.6829   -0.7227 C   0  0  0  0  0  0  0  0  0  0  0  0
    2.0552   -1.6644    0.0108 C   0  0  0  0  0  0  0  0  0  0  0  0
    1.5162   -2.4826    0.4672 H   0  0  0  0  0  0  0  0  0  0  0  0
    3.4541   -1.5902    0.1427 C   0  0  0  0  0  0  0  0  0  0  0  0
    3.9842   -2.3434    0.7085 H   0  0  0  0  0  0  0  0  0  0  0  0
    4.1622   -0.5364   -0.4597 C   0  0  0  0  0  0  0  0  0  0  0  0
    5.2367   -0.4781   -0.3564 H   0  0  0  0  0  0  0  0  0  0  0  0
    3.4724    0.4469   -1.1921 C   0  0  0  0  0  0  0  0  0  0  0  0
    4.0159    1.2599   -1.6506 H   0  0  0  0  0  0  0  0  0  0  0  0
    2.0740    0.3742   -1.3209 C   0  0  0  0  0  0  0  0  0  0  0  0
    1.5441    1.1331   -1.8818 H   0  0  0  0  0  0  0  0  0  0  0  0
   -1.2168    1.1047    0.4313 C   0  0  0  0  0  0  0  0  0  0  0  0
   -2.0890    1.6186   -0.2704 O   0  0  0  0  0  0  0  0  0  0  0  0
   -0.4674    1.8182    1.2813 N   0  0  0  0  0  0  0  0  0  0  0  0
    0.2640    1.3348    1.7800 H   0  0  0  0  0  0  0  0  0  0  0  0
   -0.5889    3.2615    1.4722 C   0  0  0  0  0  0  0  0  0  0  0  0
   -1.6291    3.5206    1.6805 H   0  0  0  0  0  0  0  0  0  0  0  0
    0.0359    3.5855    2.3049 H   0  0  0  0  0  0  0  0  0  0  0  0
   -0.2760    3.7797    0.5637 H   0  0  0  0  0  0  0  0  0  0  0  0
  5  6  2  0  0  0  0
  5  7  1  0  0  0  0
  2  3  1  0  0  0  0
  2  4  1  0  0  0  0
  2  5  1  0  0  0  0
  1  2  1  0  0  0  0
 25 26  2  0  0  0  0
 25 27  1  0  0  0  0
 23 24  1  0  0  0  0
 21 22  1  0  0  0  0
 21 23  2  0  0  0  0
 19 20  1  0  0  0  0
 19 21  1  0  0  0  0
 17 18  1  0  0  0  0
 17 19  2  0  0  0  0
 15 16  1  0  0  0  0
 15 17  1  0  0  0  0
 14 15  2  0  0  0  0
 14 23  1  0  0  0  0
 11 12  1  0  0  0  0
 11 13  1  0  0  0  0
 11 14  1  0  0  0  0
  9 10  1  0  0  0  0
  9 11  1  0  0  0  0
  9 25  1  0  0  0  0
  7  8  1  0  0  0  0
  7  9  1  0  0  0  0
 29 30  1  0  0  0  0
 29 31  1  0  0  0  0
 29 32  1  0  0  0  0
 27 28  1  0  0  0  0
 27 29  1  0  0  0  0
M  END
$$$$
default_name
  -OEChem-02102213163D

 32 32  0     1  0  0  0  0  0999 V2000
   -3.8405   -3.7518    1.6252 H   0  0  0  0  0  0  0  0  0  0  0  0
   -3.7965   -2.8768    0.9782 C   0  0  0  0  0  0  0  0  0  0  0  0
   -4.5465   -2.1527    1.2902 H   0  0  0  0  0  0  0  0  0  0  0  0
   -3.9745   -3.1748   -0.0538 H   0  0  0  0  0  0  0  0  0  0  0  0
   -2.4245   -2.2537    1.0882 C   0  0  0  0  0  0  0  0  0  0  0  0
   -1.5805   -2.7478    1.8242 O   0  0  0  0  0  0  0  0  0  0  0  0
   -2.2045   -1.1637    0.3562 N   0  0  0  0  0  0  0  0  0  0  0  0
   -2.9595   -0.7907   -0.2008 H   0  0  0  0  0  0  0  0  0  0  0  0
   -0.9485   -0.4087    0.3482 C   0  0  1  0  0  0  0  0  0  0  0  0
   -0.3666   -0.6914    1.2269 H   0  0  0  0  0  0  0  0  0  0  0  0
   -0.1405   -0.7797   -0.9072 C   0  0  0  0  0  0  0  0  0  0  0  0
   -0.3806   -1.8045   -1.1941 H   0  0  0  0  0  0  0  0  0  0  0  0
   -0.4451   -0.1296   -1.7287 H   0  0  0  0  0  0  0  0  0  0  0  0
    1.3620   -0.6829   -0.7227 C   0  0  0  0  0  0  0  0  0  0  0  0
    2.0987   -1.7956   -0.2743 C   0  0  0  0  0  0  0  0  0  0  0  0
    1.5933   -2.7210   -0.0365 H   0  0  0  0  0  0  0  0  0  0  0  0
    3.4972   -1.7107   -0.1452 C   0  0  0  0  0  0  0  0  0  0  0  0
    4.0607   -2.5654    0.2018 H   0  0  0  0  0  0  0  0  0  0  0  0
    4.1615   -0.5146   -0.4657 C   0  0  0  0  0  0  0  0  0  0  0  0
    5.2358   -0.4486   -0.3642 H   0  0  0  0  0  0  0  0  0  0  0  0
    3.4282    0.5997   -0.9126 C   0  0  0  0  0  0  0  0  0  0  0  0
    3.9381    1.5208   -1.1538 H   0  0  0  0  0  0  0  0  0  0  0  0
    2.0302    0.5155   -1.0384 C   0  0  0  0  0  0  0  0  0  0  0  0
    1.4668    1.3744   -1.3791 H   0  0  0  0  0  0  0  0  0  0  0  0
   -1.2168    1.1047    0.4313 C   0  0  0  0  0  0  0  0  0  0  0  0
   -2.0890    1.6186   -0.2704 O   0  0  0  0  0  0  0  0  0  0  0  0
   -0.4674    1.8182    1.2813 N   0  0  0  0  0  0  0  0  0  0  0  0
    0.2640    1.3348    1.7800 H   0  0  0  0  0  0  0  0  0  0  0  0
   -0.5889    3.2615    1.4722 C   0  0  0  0  0  0  0  0  0  0  0  0
   -1.6291    3.5206    1.6805 H   0  0  0  0  0  0  0  0  0  0  0  0
    0.0359    3.5855    2.3049 H   0  0  0  0  0  0  0  0  0  0  0  0
   -0.2760    3.7797    0.5637 H   0  0  0  0  0  0  0  0  0  0  0  0
  5  6  2  0  0  0  0
  5  7  1  0  0  0  0
  2  3  1  0  0  0  0
  2  4  1  0  0  0  0
  2  5  1  0  0  0  0
  1  2  1  0  0  0  0
 25 26  2  0  0  0  0
 25 27  1  0  0  0  0
 23 24  1  0  0  0  0
 21 22  1  0  0  0  0
 21 23  2  0  0  0  0
 19 20  1  0  0  0  0
 19 21  1  0  0  0  0
 17 18  1  0  0  0  0
 17 19  2  0  0  0  0
 15 16  1  0  0  0  0
 15 17  1  0  0  0  0
 14 15  2  0  0  0  0
 14 23  1  0  0  0  0
 11 12  1  0  0  0  0
 11 13  1  0  0  0  0
 11 14  1  0  0  0  0
  9 10  1  0  0  0  0
  9 11  1  0  0  0  0
  9 25  1  0  0  0  0
  7  8  1  0  0  0  0
  7  9  1  0  0  0  0
 29 30  1  0  0  0  0
 29 31  1  0  0  0  0
 29 32  1  0  0  0  0
 27 28  1  0  0  0  0
 27 29  1  0  0  0  0
M  END
$$$$
default_name
  -OEChem-02102213163D

 32 32  0     1  0  0  0  0  0999 V2000
   -3.8405   -3.7518    1.6252 H   0  0  0  0  0  0  0  0  0  0  0  0
   -3.7965   -2.8768    0.9782 C   0  0  0  0  0  0  0  0  0  0  0  0
   -4.5465   -2.1527    1.2902 H   0  0  0  0  0  0  0  0  0  0  0  0
   -3.9745   -3.1748   -0.0538 H   0  0  0  0  0  0  0  0  0  0  0  0
   -2.4245   -2.2537    1.0882 C   0  0  0  0  0  0  0  0  0  0  0  0
   -1.5805   -2.7478    1.8242 O   0  0  0  0  0  0  0  0  0  0  0  0
   -2.2045   -1.1637    0.3562 N   0  0  0  0  0  0  0  0  0  0  0  0
   -2.9595   -0.7907   -0.2008 H   0  0  0  0  0  0  0  0  0  0  0  0
   -0.9485   -0.4087    0.3482 C   0  0  1  0  0  0  0  0  0  0  0  0
   -0.3666   -0.6914    1.2269 H   0  0  0  0  0  0  0  0  0  0  0  0
   -0.1405   -0.7797   -0.9072 C   0  0  0  0  0  0  0  0  0  0  0  0
   -0.3806   -1.8045   -1.1941 H   0  0  0  0  0  0  0  0  0  0  0  0
   -0.4451   -0.1296   -1.7287 H   0  0  0  0  0  0  0  0  0  0  0  0
    1.3620   -0.6829   -0.7227 C   0  0  0  0  0  0  0  0  0  0  0  0
    2.1401   -1.8479   -0.5841 C   0  0  0  0  0  0  0  0  0  0  0  0
    1.6671   -2.8199   -0.5855 H   0  0  0  0  0  0  0  0  0  0  0  0
    3.5379   -1.7519   -0.4548 C   0  0  0  0  0  0  0  0  0  0  0  0
    4.1332   -2.6476   -0.3459 H   0  0  0  0  0  0  0  0  0  0  0  0
    4.1601   -0.4920   -0.4658 C   0  0  0  0  0  0  0  0  0  0  0  0
    5.2338   -0.4181   -0.3641 H   0  0  0  0  0  0  0  0  0  0  0  0
    3.3854    0.6742   -0.6027 C   0  0  0  0  0  0  0  0  0  0  0  0
    3.8629    1.6431   -0.6057 H   0  0  0  0  0  0  0  0  0  0  0  0
    1.9881    0.5781   -0.7285 C   0  0  0  0  0  0  0  0  0  0  0  0
    1.3929    1.4762   -0.8304 H   0  0  0  0  0  0  0  0  0  0  0  0
   -1.2168    1.1047    0.4313 C   0  0  0  0  0  0  0  0  0  0  0  0
   -2.0890    1.6186   -0.2704 O   0  0  0  0  0  0  0  0  0  0  0  0
   -0.4674    1.8182    1.2813 N   0  0  0  0  0  0  0  0  0  0  0  0
    0.2640    1.3348    1.7800 H   0  0  0  0  0  0  0  0  0  0  0  0
   -0.5889    3.2615    1.4722 C   0  0  0  0  0  0  0  0  0  0  0  0
   -1.6291    3.5206    1.6805 H   0  0  0  0  0  0  0  0  0  0  0  0
    0.0359    3.5855    2.3049 H   0  0  0  0  0  0  0  0  0  0  0  0
   -0.2760    3.7797    0.5637 H   0  0  0  0  0  0  0  0  0  0  0  0
  5  6  2  0  0  0  0
  5  7  1  0  0  0  0
  2  3  1  0  0  0  0
  2  4  1  0  0  0  0
  2  5  1  0  0  0  0
  1  2  1  0  0  0  0
 25 26  2  0  0  0  0
 25 27  1  0  0  0  0
 23 24  1  0  0  0  0
 21 22  1  0  0  0  0
 21 23  2  0  0  0  0
 19 20  1  0  0  0  0
 19 21  1  0  0  0  0
 17 18  1  0  0  0  0
 17 19  2  0  0  0  0
 15 16  1  0  0  0  0
 15 17  1  0  0  0  0
 14 15  2  0  0  0  0
 14 23  1  0  0  0  0
 11 12  1  0  0  0  0
 11 13  1  0  0  0  0
 11 14  1  0  0  0  0
  9 10  1  0  0  0  0
  9 11  1  0  0  0  0
  9 25  1  0  0  0  0
  7  8  1  0  0  0  0
  7  9  1  0  0  0  0
 29 30  1  0  0  0  0
 29 31  1  0  0  0  0
 29 32  1  0  0  0  0
 27 28  1  0  0  0  0
 27 29  1  0  0  0  0
M  END
$$$$
default_name
  -OEChem-02102213163D

 32 32  0     1  0  0  0  0  0999 V2000
   -3.8405   -3.7518    1.6252 H   0  0  0  0  0  0  0  0  0  0  0  0
   -3.7965   -2.8768    0.9782 C   0  0  0  0  0  0  0  0  0  0  0  0
   -4.5465   -2.1527    1.2902 H   0  0  0  0  0  0  0  0  0  0  0  0
   -3.9745   -3.1748   -0.0538 H   0  0  0  0  0  0  0  0  0  0  0  0
   -2.4245   -2.2537    1.0882 C   0  0  0  0  0  0  0  0  0  0  0  0
   -1.5805   -2.7478    1.8242 O   0  0  0  0  0  0  0  0  0  0  0  0
   -2.2045   -1.1637    0.3562 N   0  0  0  0  0  0  0  0  0  0  0  0
   -2.9595   -0.7907   -0.2008 H   0  0  0  0  0  0  0  0  0  0  0  0
   -0.9485   -0.4087    0.3482 C   0  0  1  0  0  0  0  0  0  0  0  0
   -0.3666   -0.6914    1.2269 H   0  0  0  0  0  0  0  0  0  0  0  0
   -0.1405   -0.7797   -0.9072 C   0  0  0  0  0  0  0  0  0  0  0  0
   -0.3806   -1.8045   -1.1941 H   0  0  0  0  0  0  0  0  0  0  0  0
   -0.4451   -0.1296   -1.7287 H   0  0  0  0  0  0  0  0  0  0  0  0
    1.3620   -0.6829   -0.7227 C   0  0  0  0  0  0  0  0  0  0  0  0
    2.1766   -1.8178   -0.8974 C   0  0  0  0  0  0  0  0  0  0  0  0
    1.7324   -2.7722   -1.1422 H   0  0  0  0  0  0  0  0  0  0  0  0
    3.5734   -1.7111   -0.7651 C   0  0  0  0  0  0  0  0  0  0  0  0
    4.1968   -2.5842   -0.8971 H   0  0  0  0  0  0  0  0  0  0  0  0
    4.1580   -0.4702   -0.4601 C   0  0  0  0  0  0  0  0  0  0  0  0
    5.2309   -0.3888   -0.3562 H   0  0  0  0  0  0  0  0  0  0  0  0
    3.3468    0.6655   -0.2835 C   0  0  0  0  0  0  0  0  0  0  0  0
    3.7956    1.6182   -0.0437 H   0  0  0  0  0  0  0  0  0  0  0  0
    1.9506    0.5579   -0.4125 C   0  0  0  0  0  0  0  0  0  0  0  0
    1.3274    1.4316   -0.2731 H   0  0  0  0  0  0  0  0  0  0  0  0
   -1.2168    1.1047    0.4313 C   0  0  0  0  0  0  0  0  0  0  0  0
   -2.0890    1.6186   -0.2704 O   0  0  0  0  0  0  0  0  0  0  0  0
   -0.4674    1.8182    1.2813 N   0  0  0  0  0  0  0  0  0  0  0  0
    0.2640    1.3348    1.7800 H   0  0  0  0  0  0  0  0  0  0  0  0
   -0.5889    3.2615    1.4722 C   0  0  0  0  0  0  0  0  0  0  0  0
   -1.6291    3.5206    1.6805 H   0  0  0  0  0  0  0  0  0  0  0  0
    0.0359    3.5855    2.3049 H   0  0  0  0  0  0  0  0  0  0  0  0
   -0.2760    3.7797    0.5637 H   0  0  0  0  0  0  0  0  0  0  0  0
  5  6  2  0  0  0  0
  5  7  1  0  0  0  0
  2  3  1  0  0  0  0
  2  4  1  0  0  0  0
  2  5  1  0  0  0  0
  1  2  1  0  0  0  0
 25 26  2  0  0  0  0
 25 27  1  0  0  0  0
 23 24  1  0  0  0  0
 21 22  1  0  0  0  0
 21 23  2  0  0  0  0
 19 20  1  0  0  0  0
 19 21  1  0  0  0  0
 17 18  1  0  0  0  0
 17 19  2  0  0  0  0
 15 16  1  0  0  0  0
 15 17  1  0  0  0  0
 14 15  2  0  0  0  0
 14 23  1  0  0  0  0
 11 12  1  0  0  0  0
 11 13  1  0  0  0  0
 11 14  1  0  0  0  0
  9 10  1  0  0  0  0
  9 11  1  0  0  0  0
  9 25  1  0  0  0  0
  7  8  1  0  0  0  0
  7  9  1  0  0  0  0
 29 30  1  0  0  0  0
 29 31  1  0  0  0  0
 29 32  1  0  0  0  0
 27 28  1  0  0  0  0
 27 29  1  0  0  0  0
M  END
$$$$
default_name
  -OEChem-02102213163D

 32 32  0     1  0  0  0  0  0999 V2000
   -3.8405   -3.7518    1.6252 H   0  0  0  0  0  0  0  0  0  0  0  0
   -3.7965   -2.8768    0.9782 C   0  0  0  0  0  0  0  0  0  0  0  0
   -4.5465   -2.1527    1.2902 H   0  0  0  0  0  0  0  0  0  0  0  0
   -3.9745   -3.1748   -0.0538 H   0  0  0  0  0  0  0  0  0  0  0  0
   -2.4245   -2.2537    1.0882 C   0  0  0  0  0  0  0  0  0  0  0  0
   -1.5805   -2.7478    1.8242 O   0  0  0  0  0  0  0  0  0  0  0  0
   -2.2045   -1.1637    0.3562 N   0  0  0  0  0  0  0  0  0  0  0  0
   -2.9595   -0.7907   -0.2008 H   0  0  0  0  0  0  0  0  0  0  0  0
   -0.9485   -0.4087    0.3482 C   0  0  1  0  0  0  0  0  0  0  0  0
   -0.3666   -0.6914    1.2269 H   0  0  0  0  0  0  0  0  0  0  0  0
   -0.1405   -0.7797   -0.9072 C   0  0  0  0  0  0  0  0  0  0  0  0
   -0.3806   -1.8045   -1.1941 H   0  0  0  0  0  0  0  0  0  0  0  0
   -0.4451   -0.1296   -1.7287 H   0  0  0  0  0  0  0  0  0  0  0  0
    1.3620   -0.6829   -0.7227 C   0  0  0  0  0  0  0  0  0  0  0  0
    2.2057   -1.7071   -1.1928 C   0  0  0  0  0  0  0  0  0  0  0  0
    1.7847   -2.5814   -1.6689 H   0  0  0  0  0  0  0  0  0  0  0  0
    3.6012   -1.5910   -1.0550 C   0  0  0  0  0  0  0  0  0  0  0  0
    4.2471   -2.3798   -1.4144 H   0  0  0  0  0  0  0  0  0  0  0  0
    4.1554   -0.4507   -0.4491 C   0  0  0  0  0  0  0  0  0  0  0  0
    5.2274   -0.3625   -0.3410 H   0  0  0  0  0  0  0  0  0  0  0  0
    3.3150    0.5739    0.0232 C   0  0  0  0  0  0  0  0  0  0  0  0
    3.7405    1.4481    0.4938 H   0  0  0  0  0  0  0  0  0  0  0  0
    1.9203    0.4561   -0.1118 C   0  0  0  0  0  0  0  0  0  0  0  0
    1.2747    1.2435    0.2549 H   0  0  0  0  0  0  0  0  0  0  0  0
   -1.2168    1.1047    0.4313 C   0  0  0  0  0  0  0  0  0  0  0  0
   -2.0890    1.6186   -0.2704 O   0  0  0  0  0  0  0  0  0  0  0  0
   -0.4674    1.8182    1.2813 N   0  0  0  0  0  0  0  0  0  0  0  0
    0.2640    1.3348    1.7800 H   0  0  0  0  0  0  0  0  0  0  0  0
   -0.5889    3.2615    1.4722 C   0  0  0  0  0  0  0  0  0  0  0  0
   -1.6291    3.5206    1.6805 H   0  0  0  0  0  0  0  0  0  0  0  0
    0.0359    3.5855    2.3049 H   0  0  0  0  0  0  0  0  0  0  0  0
   -0.2760    3.7797    0.5637 H   0  0  0  0  0  0  0  0  0  0  0  0
  5  6  2  0  0  0  0
  5  7  1  0  0  0  0
  2  3  1  0  0  0  0
  2  4  1  0  0  0  0
  2  5  1  0  0  0  0
  1  2  1  0  0  0  0
 25 26  2  0  0  0  0
 25 27  1  0  0  0  0
 23 24  1  0  0  0  0
 21 22  1  0  0  0  0
 21 23  2  0  0  0  0
 19 20  1  0  0  0  0
 19 21  1  0  0  0  0
 17 18  1  0  0  0  0
 17 19  2  0  0  0  0
 15 16  1  0  0  0  0
 15 17  1  0  0  0  0
 14 15  2  0  0  0  0
 14 23  1  0  0  0  0
 11 12  1  0  0  0  0
 11 13  1  0  0  0  0
 11 14  1  0  0  0  0
  9 10  1  0  0  0  0
  9 11  1  0  0  0  0
  9 25  1  0  0  0  0
  7  8  1  0  0  0  0
  7  9  1  0  0  0  0
 29 30  1  0  0  0  0
 29 31  1  0  0  0  0
 29 32  1  0  0  0  0
 27 28  1  0  0  0  0
 27 29  1  0  0  0  0
M  END
$$$$
default_name
  -OEChem-02102213163D

 32 32  0     1  0  0  0  0  0999 V2000
   -3.8405   -3.7518    1.6252 H   0  0  0  0  0  0  0  0  0  0  0  0
   -3.7965   -2.8768    0.9782 C   0  0  0  0  0  0  0  0  0  0  0  0
   -4.5465   -2.1527    1.2902 H   0  0  0  0  0  0  0  0  0  0  0  0
   -3.9745   -3.1748   -0.0538 H   0  0  0  0  0  0  0  0  0  0  0  0
   -2.4245   -2.2537    1.0882 C   0  0  0  0  0  0  0  0  0  0  0  0
   -1.5805   -2.7478    1.8242 O   0  0  0  0  0  0  0  0  0  0  0  0
   -2.2045   -1.1637    0.3562 N   0  0  0  0  0  0  0  0  0  0  0  0
   -2.9595   -0.7907   -0.2008 H   0  0  0  0  0  0  0  0  0  0  0  0
   -0.9485   -0.4087    0.3482 C   0  0  1  0  0  0  0  0  0  0  0  0
   -0.3666   -0.6914    1.2269 H   0  0  0  0  0  0  0  0  0  0  0  0
   -0.1405   -0.7797   -0.9072 C   0  0  0  0  0  0  0  0  0  0  0  0
   -0.3806   -1.8045   -1.1941 H   0  0  0  0  0  0  0  0  0  0  0  0
   -0.4451   -0.1296   -1.7287 H   0  0  0  0  0  0  0  0  0  0  0  0
    1.3620   -0.6829   -0.7227 C   0  0  0  0  0  0  0  0  0  0  0  0
    2.2255   -1.5236   -1.4504 C   0  0  0  0  0  0  0  0  0  0  0  0
    1.8206   -2.2605   -2.1296 H   0  0  0  0  0  0  0  0  0  0  0  0
    3.6195   -1.3998   -1.3047 C   0  0  0  0  0  0  0  0  0  0  0  0
    4.2808   -2.0480   -1.8624 H   0  0  0  0  0  0  0  0  0  0  0  0
    4.1524   -0.4347   -0.4333 C   0  0  0  0  0  0  0  0  0  0  0  0
    5.2234   -0.3412   -0.3196 H   0  0  0  0  0  0  0  0  0  0  0  0
    3.2923    0.4059    0.2964 C   0  0  0  0  0  0  0  0  0  0  0  0
    3.7016    1.1442    0.9704 H   0  0  0  0  0  0  0  0  0  0  0  0
    1.8991    0.2797    0.1531 C   0  0  0  0  0  0  0  0  0  0  0  0
    1.2384    0.9248    0.7176 H   0  0  0  0  0  0  0  0  0  0  0  0
   -1.2168    1.1047    0.4313 C   0  0  0  0  0  0  0  0  0  0  0  0
   -2.0890    1.6186   -0.2704 O   0  0  0  0  0  0  0  0  0  0  0  0
   -0.4674    1.8182    1.2813 N   0  0  0  0  0  0  0  0  0  0  0  0
    0.2640    1.3348    1.7800 H   0  0  0  0  0  0  0  0  0  0  0  0
   -0.5889    3.2615    1.4722 C   0  0  0  0  0  0  0  0  0  0  0  0
   -1.6291    3.5206    1.6805 H   0  0  0  0  0  0  0  0  0  0  0  0
    0.0359    3.5855    2.3049 H   0  0  0  0  0  0  0  0  0  0  0  0
   -0.2760    3.7797    0.5637 H   0  0  0  0  0  0  0  0  0  0  0  0
  5  6  2  0  0  0  0
  5  7  1  0  0  0  0
  2  3  1  0  0  0  0
  2  4  1  0  0  0  0
  2  5  1  0  0  0  0
  1  2  1  0  0  0  0
 25 26  2  0  0  0  0
 25 27  1  0  0  0  0
 23 24  1  0  0  0  0
 21 22  1  0  0  0  0
 21 23  2  0  0  0  0
 19 20  1  0  0  0  0
 19 21  1  0  0  0  0
 17 18  1  0  0  0  0
 17 19  2  0  0  0  0
 15 16  1  0  0  0  0
 15 17  1  0  0  0  0
 14 15  2  0  0  0  0
 14 23  1  0  0  0  0
 11 12  1  0  0  0  0
 11 13  1  0  0  0  0
 11 14  1  0  0  0  0
  9 10  1  0  0  0  0
  9 11  1  0  0  0  0
  9 25  1  0  0  0  0
  7  8  1  0  0  0  0
  7  9  1  0  0  0  0
 29 30  1  0  0  0  0
 29 31  1  0  0  0  0
 29 32  1  0  0  0  0
 27 28  1  0  0  0  0
 27 29  1  0  0  0  0
M  END
$$$$
default_name
  -OEChem-02102213163D

 32 32  0     1  0  0  0  0  0999 V2000
   -3.8405   -3.7518    1.6252 H   0  0  0  0  0  0  0  0  0  0  0  0
   -3.7965   -2.8768    0.9782 C   0  0  0  0  0  0  0  0  0  0  0  0
   -4.5465   -2.1527    1.2902 H   0  0  0  0  0  0  0  0  0  0  0  0
   -3.9745   -3.1748   -0.0538 H   0  0  0  0  0  0  0  0  0  0  0  0
   -2.4245   -2.2537    1.0882 C   0  0  0  0  0  0  0  0  0  0  0  0
   -1.5805   -2.7478    1.8242 O   0  0  0  0  0  0  0  0  0  0  0  0
   -2.2045   -1.1637    0.3562 N   0  0  0  0  0  0  0  0  0  0  0  0
   -2.9595   -0.7907   -0.2008 H   0  0  0  0  0  0  0  0  0  0  0  0
   -0.9485   -0.4087    0.3482 C   0  0  1  0  0  0  0  0  0  0  0  0
   -0.3666   -0.6914    1.2269 H   0  0  0  0  0  0  0  0  0  0  0  0
   -0.1405   -0.7797   -0.9072 C   0  0  0  0  0  0  0  0  0  0  0  0
   -0.3806   -1.8045   -1.1941 H   0  0  0  0  0  0  0  0  0  0  0  0
   -0.4451   -0.1296   -1.7287 H   0  0  0  0  0  0  0  0  0  0  0  0
    1.3620   -0.6829   -0.7227 C   0  0  0  0  0  0  0  0  0  0  0  0
    2.2346   -1.2797   -1.6524 C   0  0  0  0  0  0  0  0  0  0  0  0
    1.8376   -1.8312   -2.4929 H   0  0  0  0  0  0  0  0  0  0  0  0
    3.6271   -1.1505   -1.4971 C   0  0  0  0  0  0  0  0  0  0  0  0
    4.2954   -1.6117   -2.2107 H   0  0  0  0  0  0  0  0  0  0  0  0
    4.1493   -0.4234   -0.4139 C   0  0  0  0  0  0  0  0  0  0  0  0
    5.2192   -0.3262   -0.2933 H   0  0  0  0  0  0  0  0  0  0  0  0
    3.2801    0.1729    0.5177 C   0  0  0  0  0  0  0  0  0  0  0  0
    3.6815    0.7272    1.3534 H   0  0  0  0  0  0  0  0  0  0  0  0
    1.8886    0.0408    0.3641 C   0  0  0  0  0  0  0  0  0  0  0  0
    1.2211    0.4972    1.0834 H   0  0  0  0  0  0  0  0  0  0  0  0
   -1.2168    1.1047    0.4313 C   0  0  0  0  0  0  0  0  0  0  0  0
   -2.0890    1.6186   -0.2704 O   0  0  0  0  0  0  0  0  0  0  0  0
   -0.4674    1.8182    1.2813 N   0  0  0  0  0  0  0  0  0  0  0  0
    0.2640    1.3348    1.7800 H   0  0  0  0  0  0  0  0  0  0  0  0
   -0.5889    3.2615    1.4722 C   0  0  0  0  0  0  0  0  0  0  0  0
   -1.6291    3.5206    1.6805 H   0  0  0  0  0  0  0  0  0  0  0  0
    0.0359    3.5855    2.3049 H   0  0  0  0  0  0  0  0  0  0  0  0
   -0.2760    3.7797    0.5637 H   0  0  0  0  0  0  0  0  0  0  0  0
  5  6  2  0  0  0  0
  5  7  1  0  0  0  0
  2  3  1  0  0  0  0
  2  4  1  0  0  0  0
  2  5  1  0  0  0  0
  1  2  1  0  0  0  0
 25 26  2  0  0  0  0
 25 27  1  0  0  0  0
 23 24  1  0  0  0  0
 21 22  1  0  0  0  0
 21 23  2  0  0  0  0
 19 20  1  0  0  0  0
 19 21  1  0  0  0  0
 17 18  1  0  0  0  0
 17 19  2  0  0  0  0
 15 16  1  0  0  0  0
 15 17  1  0  0  0  0
 14 15  2  0  0  0  0
 14 23  1  0  0  0  0
 11 12  1  0  0  0  0
 11 13  1  0  0  0  0
 11 14  1  0  0  0  0
  9 10  1  0  0  0  0
  9 11  1  0  0  0  0
  9 25  1  0  0  0  0
  7  8  1  0  0  0  0
  7  9  1  0  0  0  0
 29 30  1  0  0  0  0
 29 31  1  0  0  0  0
 29 32  1  0  0  0  0
 27 28  1  0  0  0  0
 27 29  1  0  0  0  0
M  END
$$$$
default_name
  -OEChem-02102213163D

 32 32  0     1  0  0  0  0  0999 V2000
   -3.8405   -3.7518    1.6252 H   0  0  0  0  0  0  0  0  0  0  0  0
   -3.7965   -2.8768    0.9782 C   0  0  0  0  0  0  0  0  0  0  0  0
   -4.5465   -2.1527    1.2902 H   0  0  0  0  0  0  0  0  0  0  0  0
   -3.9745   -3.1748   -0.0538 H   0  0  0  0  0  0  0  0  0  0  0  0
   -2.4245   -2.2537    1.0882 C   0  0  0  0  0  0  0  0  0  0  0  0
   -1.5805   -2.7478    1.8242 O   0  0  0  0  0  0  0  0  0  0  0  0
   -2.2045   -1.1637    0.3562 N   0  0  0  0  0  0  0  0  0  0  0  0
   -2.9595   -0.7907   -0.2008 H   0  0  0  0  0  0  0  0  0  0  0  0
   -0.9485   -0.4087    0.3482 C   0  0  1  0  0  0  0  0  0  0  0  0
   -0.3666   -0.6914    1.2269 H   0  0  0  0  0  0  0  0  0  0  0  0
   -0.1405   -0.7797   -0.9072 C   0  0  0  0  0  0  0  0  0  0  0  0
   -0.5646   -1.6827   -1.3485 H   0  0  0  0  0  0  0  0  0  0  0  0
   -0.2398    0.0213   -1.6412 H   0  0  0  0  0  0  0  0  0  0  0  0
    1.3307   -1.0337   -0.6392 C   0  0  0  0  0  0  0  0  0  0  0  0
    2.1975   -1.3832   -1.6920 C   0  0  0  0  0  0  0  0  0  0  0  0
    1.8140   -1.4950   -2.6964 H   0  0  0  0  0  0  0  0  0  0  0  0
    3.5687   -1.5768   -1.4426 C   0  0  0  0  0  0  0  0  0  0  0  0
    4.2321   -1.8476   -2.2520 H   0  0  0  0  0  0  0  0  0  0  0  0
    4.0758   -1.4197   -0.1416 C   0  0  0  0  0  0  0  0  0  0  0  0
    5.1288   -1.5708    0.0504 H   0  0  0  0  0  0  0  0  0  0  0  0
    3.2121   -1.0720    0.9130 C   0  0  0  0  0  0  0  0  0  0  0  0
    3.6007   -0.9566    1.9142 H   0  0  0  0  0  0  0  0  0  0  0  0
    1.8412   -0.8818    0.6641 C   0  0  0  0  0  0  0  0  0  0  0  0
    1.1773   -0.6176    1.4769 H   0  0  0  0  0  0  0  0  0  0  0  0
   -1.2168    1.1047    0.4313 C   0  0  0  0  0  0  0  0  0  0  0  0
   -2.0890    1.6186   -0.2704 O   0  0  0  0  0  0  0  0  0  0  0  0
   -0.4674    1.8182    1.2813 N   0  0  0  0  0  0  0  0  0  0  0  0
    0.2640    1.3348    1.7800 H   0  0  0  0  0  0  0  0  0  0  0  0
   -0.5889    3.2615    1.4722 C   0  0  0  0  0  0  0  0  0  0  0  0
   -1.6291    3.5206    1.6805 H   0  0  0  0  0  0  0  0  0  0  0  0
    0.0359    3.5855    2.3049 H   0  0  0  0  0  0  0  0  0  0  0  0
   -0.2760    3.7797    0.5637 H   0  0  0  0  0  0  0  0  0  0  0  0
  5  6  2  0  0  0  0
  5  7  1  0  0  0  0
  2  3  1  0  0  0  0
  2  4  1  0  0  0  0
  2  5  1  0  0  0  0
  1  2  1  0  0  0  0
 25 26  2  0  0  0  0
 25 27  1  0  0  0  0
 23 24  1  0  0  0  0
 21 22  1  0  0  0  0
 21 23  2  0  0  0  0
 19 20  1  0  0  0  0
 19 21  1  0  0  0  0
 17 18  1  0  0  0  0
 17 19  2  0  0  0  0
 15 16  1  0  0  0  0
 15 17  1  0  0  0  0
 14 15  2  0  0  0  0
 14 23  1  0  0  0  0
 11 12  1  0  0  0  0
 11 13  1  0  0  0  0
 11 14  1  0  0  0  0
  9 10  1  0  0  0  0
  9 11  1  0  0  0  0
  9 25  1  0  0  0  0
  7  8  1  0  0  0  0
  7  9  1  0  0  0  0
 29 30  1  0  0  0  0
 29 31  1  0  0  0  0
 29 32  1  0  0  0  0
 27 28  1  0  0  0  0
 27 29  1  0  0  0  0
M  END
$$$$
default_name
  -OEChem-02102213163D

 32 32  0     1  0  0  0  0  0999 V2000
   -3.8405   -3.7518    1.6252 H   0  0  0  0  0  0  0  0  0  0  0  0
   -3.7965   -2.8768    0.9782 C   0  0  0  0  0  0  0  0  0  0  0  0
   -4.5465   -2.1527    1.2902 H   0  0  0  0  0  0  0  0  0  0  0  0
   -3.9745   -3.1748   -0.0538 H   0  0  0  0  0  0  0  0  0  0  0  0
   -2.4245   -2.2537    1.0882 C   0  0  0  0  0  0  0  0  0  0  0  0
   -1.5805   -2.7478    1.8242 O   0  0  0  0  0  0  0  0  0  0  0  0
   -2.2045   -1.1637    0.3562 N   0  0  0  0  0  0  0  0  0  0  0  0
   -2.9595   -0.7907   -0.2008 H   0  0  0  0  0  0  0  0  0  0  0  0
   -0.9485   -0.4087    0.3482 C   0  0  1  0  0  0  0  0  0  0  0  0
   -0.3666   -0.6914    1.2269 H   0  0  0  0  0  0  0  0  0  0  0  0
   -0.1405   -0.7797   -0.9072 C   0  0  0  0  0  0  0  0  0  0  0  0
   -0.5646   -1.6827   -1.3485 H   0  0  0  0  0  0  0  0  0  0  0  0
   -0.2398    0.0213   -1.6412 H   0  0  0  0  0  0  0  0  0  0  0  0
    1.3307   -1.0337   -0.6392 C   0  0  0  0  0  0  0  0  0  0  0  0
    2.2532   -1.0714   -1.7020 C   0  0  0  0  0  0  0  0  0  0  0  0
    1.9138   -0.9418   -2.7200 H   0  0  0  0  0  0  0  0  0  0  0  0
    3.6222   -1.2664   -1.4419 C   0  0  0  0  0  0  0  0  0  0  0  0
    4.3284   -1.2976   -2.2596 H   0  0  0  0  0  0  0  0  0  0  0  0
    4.0713   -1.4220   -0.1195 C   0  0  0  0  0  0  0  0  0  0  0  0
    5.1228   -1.5742    0.0802 H   0  0  0  0  0  0  0  0  0  0  0  0
    3.1520   -1.3864    0.9447 C   0  0  0  0  0  0  0  0  0  0  0  0
    3.4964   -1.5115    1.9608 H   0  0  0  0  0  0  0  0  0  0  0  0
    1.7835   -1.1948    0.6842 C   0  0  0  0  0  0  0  0  0  0  0  0
    1.0769   -1.1709    1.5035 H   0  0  0  0  0  0  0  0  0  0  0  0
   -1.2168    1.1047    0.4313 C   0  0  0  0  0  0  0  0  0  0  0  0
   -2.0890    1.6186   -0.2704 O   0  0  0  0  0  0  0  0  0  0  0  0
   -0.4674    1.8182    1.2813 N   0  0  0  0  0  0  0  0  0  0  0  0
    0.2640    1.3348    1.7800 H   0  0  0  0  0  0  0  0  0  0  0  0
   -0.5889    3.2615    1.4722 C   0  0  0  0  0  0  0  0  0  0  0  0
   -1.6291    3.5206    1.6805 H   0  0  0  0  0  0  0  0  0  0  0  0
    0.0359    3.5855    2.3049 H   0  0  0  0  0  0  0  0  0  0  0  0
   -0.2760    3.7797    0.5637 H   0  0  0  0  0  0  0  0  0  0  0  0
  5  6  2  0  0  0  0
  5  7  1  0  0  0  0
  2  3  1  0  0  0  0
  2  4  1  0  0  0  0
  2  5  1  0  0  0  0
  1  2  1  0  0  0  0
 25 26  2  0  0  0  0
 25 27  1  0  0  0  0
 23 24  1  0  0  0  0
 21 22  1  0  0  0  0
 21 23  2  0  0  0  0
 19 20  1  0  0  0  0
 19 21  1  0  0  0  0
 17 18  1  0  0  0  0
 17 19  2  0  0  0  0
 15 16  1  0  0  0  0
 15 17  1  0  0  0  0
 14 15  2  0  0  0  0
 14 23  1  0  0  0  0
 11 12  1  0  0  0  0
 11 13  1  0  0  0  0
 11 14  1  0  0  0  0
  9 10  1  0  0  0  0
  9 11  1  0  0  0  0
  9 25  1  0  0  0  0
  7  8  1  0  0  0  0
  7  9  1  0  0  0  0
 29 30  1  0  0  0  0
 29 31  1  0  0  0  0
 29 32  1  0  0  0  0
 27 28  1  0  0  0  0
 27 29  1  0  0  0  0
M  END
$$$$
default_name
  -OEChem-02102213163D

 32 32  0     1  0  0  0  0  0999 V2000
   -3.8405   -3.7518    1.6252 H   0  0  0  0  0  0  0  0  0  0  0  0
   -3.7965   -2.8768    0.9782 C   0  0  0  0  0  0  0  0  0  0  0  0
   -4.5465   -2.1527    1.2902 H   0  0  0  0  0  0  0  0  0  0  0  0
   -3.9745   -3.1748   -0.0538 H   0  0  0  0  0  0  0  0  0  0  0  0
   -2.4245   -2.2537    1.0882 C   0  0  0  0  0  0  0  0  0  0  0  0
   -1.5805   -2.7478    1.8242 O   0  0  0  0  0  0  0  0  0  0  0  0
   -2.2045   -1.1637    0.3562 N   0  0  0  0  0  0  0  0  0  0  0  0
   -2.9595   -0.7907   -0.2008 H   0  0  0  0  0  0  0  0  0  0  0  0
   -0.9485   -0.4087    0.3482 C   0  0  1  0  0  0  0  0  0  0  0  0
   -0.3666   -0.6914    1.2269 H   0  0  0  0  0  0  0  0  0  0  0  0
   -0.1405   -0.7797   -0.9072 C   0  0  0  0  0  0  0  0  0  0  0  0
   -0.5646   -1.6827   -1.3485 H   0  0  0  0  0  0  0  0  0  0  0  0
   -0.2398    0.0213   -1.6412 H   0  0  0  0  0  0  0  0  0  0  0  0
    1.3307   -1.0337   -0.6392 C   0  0  0  0  0  0  0  0  0  0  0  0
    2.2931   -0.7652   -1.6310 C   0  0  0  0  0  0  0  0  0  0  0  0
    1.9860   -0.3970   -2.5997 H   0  0  0  0  0  0  0  0  0  0  0  0
    3.6596   -0.9643   -1.3608 C   0  0  0  0  0  0  0  0  0  0  0  0
    4.3967   -0.7599   -2.1247 H   0  0  0  0  0  0  0  0  0  0  0  0
    4.0662   -1.4300   -0.0990 C   0  0  0  0  0  0  0  0  0  0  0  0
    5.1159   -1.5852    0.1078 H   0  0  0  0  0  0  0  0  0  0  0  0
    3.1070   -1.7007    0.8938 C   0  0  0  0  0  0  0  0  0  0  0  0
    3.4190   -2.0639    1.8621 H   0  0  0  0  0  0  0  0  0  0  0  0
    1.7412   -1.5048    0.6225 C   0  0  0  0  0  0  0  0  0  0  0  0
    1.0041   -1.7167    1.3860 H   0  0  0  0  0  0  0  0  0  0  0  0
   -1.2168    1.1047    0.4313 C   0  0  0  0  0  0  0  0  0  0  0  0
   -2.0890    1.6186   -0.2704 O   0  0  0  0  0  0  0  0  0  0  0  0
   -0.4674    1.8182    1.2813 N   0  0  0  0  0  0  0  0  0  0  0  0
    0.2640    1.3348    1.7800 H   0  0  0  0  0  0  0  0  0  0  0  0
   -0.5889    3.2615    1.4722 C   0  0  0  0  0  0  0  0  0  0  0  0
   -1.6291    3.5206    1.6805 H   0  0  0  0  0  0  0  0  0  0  0  0
    0.0359    3.5855    2.3049 H   0  0  0  0  0  0  0  0  0  0  0  0
   -0.2760    3.7797    0.5637 H   0  0  0  0  0  0  0  0  0  0  0  0
  5  6  2  0  0  0  0
  5  7  1  0  0  0  0
  2  3  1  0  0  0  0
  2  4  1  0  0  0  0
  2  5  1  0  0  0  0
  1  2  1  0  0  0  0
 25 26  2  0  0  0  0
 25 27  1  0  0  0  0
 23 24  1  0  0  0  0
 21 22  1  0  0  0  0
 21 23  2  0  0  0  0
 19 20  1  0  0  0  0
 19 21  1  0  0  0  0
 17 18  1  0  0  0  0
 17 19  2  0  0  0  0
 15 16  1  0  0  0  0
 15 17  1  0  0  0  0
 14 15  2  0  0  0  0
 14 23  1  0  0  0  0
 11 12  1  0  0  0  0
 11 13  1  0  0  0  0
 11 14  1  0  0  0  0
  9 10  1  0  0  0  0
  9 11  1  0  0  0  0
  9 25  1  0  0  0  0
  7  8  1  0  0  0  0
  7  9  1  0  0  0  0
 29 30  1  0  0  0  0
 29 31  1  0  0  0  0
 29 32  1  0  0  0  0
 27 28  1  0  0  0  0
 27 29  1  0  0  0  0
M  END
$$$$
default_name
  -OEChem-02102213163D

 32 32  0     1  0  0  0  0  0999 V2000
   -3.8405   -3.7518    1.6252 H   0  0  0  0  0  0  0  0  0  0  0  0
   -3.7965   -2.8768    0.9782 C   0  0  0  0  0  0  0  0  0  0  0  0
   -4.5465   -2.1527    1.2902 H   0  0  0  0  0  0  0  0  0  0  0  0
   -3.9745   -3.1748   -0.0538 H   0  0  0  0  0  0  0  0  0  0  0  0
   -2.4245   -2.2537    1.0882 C   0  0  0  0  0  0  0  0  0  0  0  0
   -1.5805   -2.7478    1.8242 O   0  0  0  0  0  0  0  0  0  0  0  0
   -2.2045   -1.1637    0.3562 N   0  0  0  0  0  0  0  0  0  0  0  0
   -2.9595   -0.7907   -0.2008 H   0  0  0  0  0  0  0  0  0  0  0  0
   -0.9485   -0.4087    0.3482 C   0  0  1  0  0  0  0  0  0  0  0  0
   -0.3666   -0.6914    1.2269 H   0  0  0  0  0  0  0  0  0  0  0  0
   -0.1405   -0.7797   -0.9072 C   0  0  0  0  0  0  0  0  0  0  0  0
   -0.5646   -1.6827   -1.3485 H   0  0  0  0  0  0  0  0  0  0  0  0
   -0.2398    0.0213   -1.6412 H   0  0  0  0  0  0  0  0  0  0  0  0
    1.3307   -1.0337   -0.6392 C   0  0  0  0  0  0  0  0  0  0  0  0
    2.3146   -0.4854   -1.4838 C   0  0  0  0  0  0  0  0  0  0  0  0
    2.0256    0.1024   -2.3435 H   0  0  0  0  0  0  0  0  0  0  0  0
    3.6784   -0.6911   -1.2051 C   0  0  0  0  0  0  0  0  0  0  0  0
    4.4322   -0.2714   -1.8564 H   0  0  0  0  0  0  0  0  0  0  0  0
    4.0608   -1.4431   -0.0814 C   0  0  0  0  0  0  0  0  0  0  0  0
    5.1085   -1.6031    0.1314 H   0  0  0  0  0  0  0  0  0  0  0  0
    3.0801   -1.9937    0.7638 C   0  0  0  0  0  0  0  0  0  0  0  0
    3.3738   -2.5763    1.6246 H   0  0  0  0  0  0  0  0  0  0  0  0
    1.7173   -1.7907    0.4832 C   0  0  0  0  0  0  0  0  0  0  0  0
    0.9638   -2.2176    1.1323 H   0  0  0  0  0  0  0  0  0  0  0  0
   -1.2168    1.1047    0.4313 C   0  0  0  0  0  0  0  0  0  0  0  0
   -2.0890    1.6186   -0.2704 O   0  0  0  0  0  0  0  0  0  0  0  0
   -0.4674    1.8182    1.2813 N   0  0  0  0  0  0  0  0  0  0  0  0
    0.2640    1.3348    1.7800 H   0  0  0  0  0  0  0  0  0  0  0  0
   -0.5889    3.2615    1.4722 C   0  0  0  0  0  0  0  0  0  0  0  0
   -1.6291    3.5206    1.6805 H   0  0  0  0  0  0  0  0  0  0  0  0
    0.0359    3.5855    2.3049 H   0  0  0  0  0  0  0  0  0  0  0  0
   -0.2760    3.7797    0.5637 H   0  0  0  0  0  0  0  0  0  0  0  0
  5  6  2  0  0  0  0
  5  7  1  0  0  0  0
  2  3  1  0  0  0  0
  2  4  1  0  0  0  0
  2  5  1  0  0  0  0
  1  2  1  0  0  0  0
 25 26  2  0  0  0  0
 25 27  1  0  0  0  0
 23 24  1  0  0  0  0
 21 22  1  0  0  0  0
 21 23  2  0  0  0  0
 19 20  1  0  0  0  0
 19 21  1  0  0  0  0
 17 18  1  0  0  0  0
 17 19  2  0  0  0  0
 15 16  1  0  0  0  0
 15 17  1  0  0  0  0
 14 15  2  0  0  0  0
 14 23  1  0  0  0  0
 11 12  1  0  0  0  0
 11 13  1  0  0  0  0
 11 14  1  0  0  0  0
  9 10  1  0  0  0  0
  9 11  1  0  0  0  0
  9 25  1  0  0  0  0
  7  8  1  0  0  0  0
  7  9  1  0  0  0  0
 29 30  1  0  0  0  0
 29 31  1  0  0  0  0
 29 32  1  0  0  0  0
 27 28  1  0  0  0  0
 27 29  1  0  0  0  0
M  END
$$$$
default_name
  -OEChem-02102213163D

 32 32  0     1  0  0  0  0  0999 V2000
   -3.8405   -3.7518    1.6252 H   0  0  0  0  0  0  0  0  0  0  0  0
   -3.7965   -2.8768    0.9782 C   0  0  0  0  0  0  0  0  0  0  0  0
   -4.5465   -2.1527    1.2902 H   0  0  0  0  0  0  0  0  0  0  0  0
   -3.9745   -3.1748   -0.0538 H   0  0  0  0  0  0  0  0  0  0  0  0
   -2.4245   -2.2537    1.0882 C   0  0  0  0  0  0  0  0  0  0  0  0
   -1.5805   -2.7478    1.8242 O   0  0  0  0  0  0  0  0  0  0  0  0
   -2.2045   -1.1637    0.3562 N   0  0  0  0  0  0  0  0  0  0  0  0
   -2.9595   -0.7907   -0.2008 H   0  0  0  0  0  0  0  0  0  0  0  0
   -0.9485   -0.4087    0.3482 C   0  0  1  0  0  0  0  0  0  0  0  0
   -0.3666   -0.6914    1.2269 H   0  0  0  0  0  0  0  0  0  0  0  0
   -0.1405   -0.7797   -0.9072 C   0  0  0  0  0  0  0  0  0  0  0  0
   -0.5646   -1.6827   -1.3485 H   0  0  0  0  0  0  0  0  0  0  0  0
   -0.2398    0.0213   -1.6412 H   0  0  0  0  0  0  0  0  0  0  0  0
    1.3307   -1.0337   -0.6392 C   0  0  0  0  0  0  0  0  0  0  0  0
    2.3162   -0.2512   -1.2704 C   0  0  0  0  0  0  0  0  0  0  0  0
    2.0298    0.5223   -1.9690 H   0  0  0  0  0  0  0  0  0  0  0  0
    3.6773   -0.4655   -0.9853 C   0  0  0  0  0  0  0  0  0  0  0  0
    4.4325    0.1348   -1.4731 H   0  0  0  0  0  0  0  0  0  0  0  0
    4.0553   -1.4605   -0.0679 C   0  0  0  0  0  0  0  0  0  0  0  0
    5.1012   -1.6266    0.1494 H   0  0  0  0  0  0  0  0  0  0  0  0
    3.0732   -2.2452    0.5635 C   0  0  0  0  0  0  0  0  0  0  0  0
    3.3639   -3.0137    1.2647 H   0  0  0  0  0  0  0  0  0  0  0  0
    1.7132   -2.0330    0.2759 C   0  0  0  0  0  0  0  0  0  0  0  0
    0.9588   -2.6396    0.7598 H   0  0  0  0  0  0  0  0  0  0  0  0
   -1.2168    1.1047    0.4313 C   0  0  0  0  0  0  0  0  0  0  0  0
   -2.0890    1.6186   -0.2704 O   0  0  0  0  0  0  0  0  0  0  0  0
   -0.4674    1.8182    1.2813 N   0  0  0  0  0  0  0  0  0  0  0  0
    0.2640    1.3348    1.7800 H   0  0  0  0  0  0  0  0  0  0  0  0
   -0.5889    3.2615    1.4722 C   0  0  0  0  0  0  0  0  0  0  0  0
   -1.6291    3.5206    1.6805 H   0  0  0  0  0  0  0  0  0  0  0  0
    0.0359    3.5855    2.3049 H   0  0  0  0  0  0  0  0  0  0  0  0
   -0.2760    3.7797    0.5637 H   0  0  0  0  0  0  0  0  0  0  0  0
  5  6  2  0  0  0  0
  5  7  1  0  0  0  0
  2  3  1  0  0  0  0
  2  4  1  0  0  0  0
  2  5  1  0  0  0  0
  1  2  1  0  0  0  0
 25 26  2  0  0  0  0
 25 27  1  0  0  0  0
 23 24  1  0  0  0  0
 21 22  1  0  0  0  0
 21 23  2  0  0  0  0
 19 20  1  0  0  0  0
 19 21  1  0  0  0  0
 17 18  1  0  0  0  0
 17 19  2  0  0  0  0
 15 16  1  0  0  0  0
 15 17  1  0  0  0  0
 14 15  2  0  0  0  0
 14 23  1  0  0  0  0
 11 12  1  0  0  0  0
 11 13  1  0  0  0  0
 11 14  1  0  0  0  0
  9 10  1  0  0  0  0
  9 11  1  0  0  0  0
  9 25  1  0  0  0  0
  7  8  1  0  0  0  0
  7  9  1  0  0  0  0
 29 30  1  0  0  0  0
 29 31  1  0  0  0  0
 29 32  1  0  0  0  0
 27 28  1  0  0  0  0
 27 29  1  0  0  0  0
M  END
$$$$
default_name
  -OEChem-02102213163D

 32 32  0     1  0  0  0  0  0999 V2000
   -3.8405   -3.7518    1.6252 H   0  0  0  0  0  0  0  0  0  0  0  0
   -3.7965   -2.8768    0.9782 C   0  0  0  0  0  0  0  0  0  0  0  0
   -4.5465   -2.1527    1.2902 H   0  0  0  0  0  0  0  0  0  0  0  0
   -3.9745   -3.1748   -0.0538 H   0  0  0  0  0  0  0  0  0  0  0  0
   -2.4245   -2.2537    1.0882 C   0  0  0  0  0  0  0  0  0  0  0  0
   -1.5805   -2.7478    1.8242 O   0  0  0  0  0  0  0  0  0  0  0  0
   -2.2045   -1.1637    0.3562 N   0  0  0  0  0  0  0  0  0  0  0  0
   -2.9595   -0.7907   -0.2008 H   0  0  0  0  0  0  0  0  0  0  0  0
   -0.9485   -0.4087    0.3482 C   0  0  1  0  0  0  0  0  0  0  0  0
   -0.3666   -0.6914    1.2269 H   0  0  0  0  0  0  0  0  0  0  0  0
   -0.1405   -0.7797   -0.9072 C   0  0  0  0  0  0  0  0  0  0  0  0
   -0.5646   -1.6827   -1.3485 H   0  0  0  0  0  0  0  0  0  0  0  0
   -0.2398    0.0213   -1.6412 H   0  0  0  0  0  0  0  0  0  0  0  0
    1.3307   -1.0337   -0.6392 C   0  0  0  0  0  0  0  0  0  0  0  0
    2.2977   -0.0784   -1.0055 C   0  0  0  0  0  0  0  0  0  0  0  0
    1.9985    0.8340   -1.5017 H   0  0  0  0  0  0  0  0  0  0  0  0
    3.6564   -0.3027   -0.7164 C   0  0  0  0  0  0  0  0  0  0  0  0
    4.3976    0.4309   -1.0009 H   0  0  0  0  0  0  0  0  0  0  0  0
    4.0503   -1.4808   -0.0594 C   0  0  0  0  0  0  0  0  0  0  0  0
    5.0944   -1.6542    0.1605 H   0  0  0  0  0  0  0  0  0  0  0  0
    3.0867   -2.4382    0.3066 C   0  0  0  0  0  0  0  0  0  0  0  0
    3.3899   -3.3463    0.8068 H   0  0  0  0  0  0  0  0  0  0  0  0
    1.7293   -2.2152    0.0147 C   0  0  0  0  0  0  0  0  0  0  0  0
    0.9894   -2.9540    0.2938 H   0  0  0  0  0  0  0  0  0  0  0  0
   -1.2168    1.1047    0.4313 C   0  0  0  0  0  0  0  0  0  0  0  0
   -2.0890    1.6186   -0.2704 O   0  0  0  0  0  0  0  0  0  0  0  0
   -0.4674    1.8182    1.2813 N   0  0  0  0  0  0  0  0  0  0  0  0
    0.2640    1.3348    1.7800 H   0  0  0  0  0  0  0  0  0  0  0  0
   -0.5889    3.2615    1.4722 C   0  0  0  0  0  0  0  0  0  0  0  0
   -1.6291    3.5206    1.6805 H   0  0  0  0  0  0  0  0  0  0  0  0
    0.0359    3.5855    2.3049 H   0  0  0  0  0  0  0  0  0  0  0  0
   -0.2760    3.7797    0.5637 H   0  0  0  0  0  0  0  0  0  0  0  0
  5  6  2  0  0  0  0
  5  7  1  0  0  0  0
  2  3  1  0  0  0  0
  2  4  1  0  0  0  0
  2  5  1  0  0  0  0
  1  2  1  0  0  0  0
 25 26  2  0  0  0  0
 25 27  1  0  0  0  0
 23 24  1  0  0  0  0
 21 22  1  0  0  0  0
 21 23  2  0  0  0  0
 19 20  1  0  0  0  0
 19 21  1  0  0  0  0
 17 18  1  0  0  0  0
 17 19  2  0  0  0  0
 15 16  1  0  0  0  0
 15 17  1  0  0  0  0
 14 15  2  0  0  0  0
 14 23  1  0  0  0  0
 11 12  1  0  0  0  0
 11 13  1  0  0  0  0
 11 14  1  0  0  0  0
  9 10  1  0  0  0  0
  9 11  1  0  0  0  0
  9 25  1  0  0  0  0
  7  8  1  0  0  0  0
  7  9  1  0  0  0  0
 29 30  1  0  0  0  0
 29 31  1  0  0  0  0
 29 32  1  0  0  0  0
 27 28  1  0  0  0  0
 27 29  1  0  0  0  0
M  END
$$$$
default_name
  -OEChem-02102213163D

 32 32  0     1  0  0  0  0  0999 V2000
   -3.8405   -3.7518    1.6252 H   0  0  0  0  0  0  0  0  0  0  0  0
   -3.7965   -2.8768    0.9782 C   0  0  0  0  0  0  0  0  0  0  0  0
   -4.5465   -2.1527    1.2902 H   0  0  0  0  0  0  0  0  0  0  0  0
   -3.9745   -3.1748   -0.0538 H   0  0  0  0  0  0  0  0  0  0  0  0
   -2.4245   -2.2537    1.0882 C   0  0  0  0  0  0  0  0  0  0  0  0
   -1.5805   -2.7478    1.8242 O   0  0  0  0  0  0  0  0  0  0  0  0
   -2.2045   -1.1637    0.3562 N   0  0  0  0  0  0  0  0  0  0  0  0
   -2.9595   -0.7907   -0.2008 H   0  0  0  0  0  0  0  0  0  0  0  0
   -0.9485   -0.4087    0.3482 C   0  0  1  0  0  0  0  0  0  0  0  0
   -0.3666   -0.6914    1.2269 H   0  0  0  0  0  0  0  0  0  0  0  0
   -0.1405   -0.7797   -0.9072 C   0  0  0  0  0  0  0  0  0  0  0  0
   -0.5646   -1.6827   -1.3485 H   0  0  0  0  0  0  0  0  0  0  0  0
   -0.2398    0.0213   -1.6412 H   0  0  0  0  0  0  0  0  0  0  0  0
    1.3307   -1.0337   -0.6392 C   0  0  0  0  0  0  0  0  0  0  0  0
    2.2606    0.0211   -0.7070 C   0  0  0  0  0  0  0  0  0  0  0  0
    1.9338    1.0164   -0.9734 H   0  0  0  0  0  0  0  0  0  0  0  0
    3.6171   -0.2140   -0.4167 C   0  0  0  0  0  0  0  0  0  0  0  0
    4.3299    0.5968   -0.4719 H   0  0  0  0  0  0  0  0  0  0  0  0
    4.0459   -1.5029   -0.0566 C   0  0  0  0  0  0  0  0  0  0  0  0
    5.0886   -1.6840    0.1641 H   0  0  0  0  0  0  0  0  0  0  0  0
    3.1196   -2.5595    0.0106 C   0  0  0  0  0  0  0  0  0  0  0  0
    3.4500   -3.5514    0.2821 H   0  0  0  0  0  0  0  0  0  0  0  0
    1.7645   -2.3248   -0.2827 C   0  0  0  0  0  0  0  0  0  0  0  0
    1.0535   -3.1393   -0.2339 H   0  0  0  0  0  0  0  0  0  0  0  0
   -1.2168    1.1047    0.4313 C   0  0  0  0  0  0  0  0  0  0  0  0
   -2.0890    1.6186   -0.2704 O   0  0  0  0  0  0  0  0  0  0  0  0
   -0.4674    1.8182    1.2813 N   0  0  0  0  0  0  0  0  0  0  0  0
    0.2640    1.3348    1.7800 H   0  0  0  0  0  0  0  0  0  0  0  0
   -0.5889    3.2615    1.4722 C   0  0  0  0  0  0  0  0  0  0  0  0
   -1.6291    3.5206    1.6805 H   0  0  0  0  0  0  0  0  0  0  0  0
    0.0359    3.5855    2.3049 H   0  0  0  0  0  0  0  0  0  0  0  0
   -0.2760    3.7797    0.5637 H   0  0  0  0  0  0  0  0  0  0  0  0
  5  6  2  0  0  0  0
  5  7  1  0  0  0  0
  2  3  1  0  0  0  0
  2  4  1  0  0  0  0
  2  5  1  0  0  0  0
  1  2  1  0  0  0  0
 25 26  2  0  0  0  0
 25 27  1  0  0  0  0
 23 24  1  0  0  0  0
 21 22  1  0  0  0  0
 21 23  2  0  0  0  0
 19 20  1  0  0  0  0
 19 21  1  0  0  0  0
 17 18  1  0  0  0  0
 17 19  2  0  0  0  0
 15 16  1  0  0  0  0
 15 17  1  0  0  0  0
 14 15  2  0  0  0  0
 14 23  1  0  0  0  0
 11 12  1  0  0  0  0
 11 13  1  0  0  0  0
 11 14  1  0  0  0  0
  9 10  1  0  0  0  0
  9 11  1  0  0  0  0
  9 25  1  0  0  0  0
  7  8  1  0  0  0  0
  7  9  1  0  0  0  0
 29 30  1  0  0  0  0
 29 31  1  0  0  0  0
 29 32  1  0  0  0  0
 27 28  1  0  0  0  0
 27 29  1  0  0  0  0
M  END
$$$$
default_name
  -OEChem-02102213163D

 32 32  0     1  0  0  0  0  0999 V2000
   -3.8405   -3.7518    1.6252 H   0  0  0  0  0  0  0  0  0  0  0  0
   -3.7965   -2.8768    0.9782 C   0  0  0  0  0  0  0  0  0  0  0  0
   -4.5465   -2.1527    1.2902 H   0  0  0  0  0  0  0  0  0  0  0  0
   -3.9745   -3.1748   -0.0538 H   0  0  0  0  0  0  0  0  0  0  0  0
   -2.4245   -2.2537    1.0882 C   0  0  0  0  0  0  0  0  0  0  0  0
   -1.5805   -2.7478    1.8242 O   0  0  0  0  0  0  0  0  0  0  0  0
   -2.2045   -1.1637    0.3562 N   0  0  0  0  0  0  0  0  0  0  0  0
   -2.9595   -0.7907   -0.2008 H   0  0  0  0  0  0  0  0  0  0  0  0
   -0.9485   -0.4087    0.3482 C   0  0  1  0  0  0  0  0  0  0  0  0
   -0.3666   -0.6914    1.2269 H   0  0  0  0  0  0  0  0  0  0  0  0
   -0.1405   -0.7797   -0.9072 C   0  0  0  0  0  0  0  0  0  0  0  0
   -0.5646   -1.6827   -1.3485 H   0  0  0  0  0  0  0  0  0  0  0  0
   -0.2398    0.0213   -1.6412 H   0  0  0  0  0  0  0  0  0  0  0  0
    1.3307   -1.0337   -0.6392 C   0  0  0  0  0  0  0  0  0  0  0  0
    2.2072    0.0407   -0.3953 C   0  0  0  0  0  0  0  0  0  0  0  0
    1.8400    1.0570   -0.4202 H   0  0  0  0  0  0  0  0  0  0  0  0
    3.5622   -0.2054   -0.1067 C   0  0  0  0  0  0  0  0  0  0  0  0
    4.2340    0.6212    0.0777 H   0  0  0  0  0  0  0  0  0  0  0  0
    4.0427   -1.5250   -0.0596 C   0  0  0  0  0  0  0  0  0  0  0  0
    5.0842   -1.7139    0.1598 H   0  0  0  0  0  0  0  0  0  0  0  0
    3.1699   -2.6008   -0.3044 C   0  0  0  0  0  0  0  0  0  0  0  0
    3.5402   -3.6150   -0.2736 H   0  0  0  0  0  0  0  0  0  0  0  0
    1.8165   -2.3545   -0.5960 C   0  0  0  0  0  0  0  0  0  0  0  0
    1.1468   -3.1828   -0.7874 H   0  0  0  0  0  0  0  0  0  0  0  0
   -1.2168    1.1047    0.4313 C   0  0  0  0  0  0  0  0  0  0  0  0
   -2.0890    1.6186   -0.2704 O   0  0  0  0  0  0  0  0  0  0  0  0
   -0.4674    1.8182    1.2813 N   0  0  0  0  0  0  0  0  0  0  0  0
    0.2640    1.3348    1.7800 H   0  0  0  0  0  0  0  0  0  0  0  0
   -0.5889    3.2615    1.4722 C   0  0  0  0  0  0  0  0  0  0  0  0
   -1.6291    3.5206    1.6805 H   0  0  0  0  0  0  0  0  0  0  0  0
    0.0359    3.5855    2.3049 H   0  0  0  0  0  0  0  0  0  0  0  0
   -0.2760    3.7797    0.5637 H   0  0  0  0  0  0  0  0  0  0  0  0
  5  6  2  0  0  0  0
  5  7  1  0  0  0  0
  2  3  1  0  0  0  0
  2  4  1  0  0  0  0
  2  5  1  0  0  0  0
  1  2  1  0  0  0  0
 25 26  2  0  0  0  0
 25 27  1  0  0  0  0
 23 24  1  0  0  0  0
 21 22  1  0  0  0  0
 21 23  2  0  0  0  0
 19 20  1  0  0  0  0
 19 21  1  0  0  0  0
 17 18  1  0  0  0  0
 17 19  2  0  0  0  0
 15 16  1  0  0  0  0
 15 17  1  0  0  0  0
 14 15  2  0  0  0  0
 14 23  1  0  0  0  0
 11 12  1  0  0  0  0
 11 13  1  0  0  0  0
 11 14  1  0  0  0  0
  9 10  1  0  0  0  0
  9 11  1  0  0  0  0
  9 25  1  0  0  0  0
  7  8  1  0  0  0  0
  7  9  1  0  0  0  0
 29 30  1  0  0  0  0
 29 31  1  0  0  0  0
 29 32  1  0  0  0  0
 27 28  1  0  0  0  0
 27 29  1  0  0  0  0
M  END
$$$$
default_name
  -OEChem-02102213163D

 32 32  0     1  0  0  0  0  0999 V2000
   -3.8405   -3.7518    1.6252 H   0  0  0  0  0  0  0  0  0  0  0  0
   -3.7965   -2.8768    0.9782 C   0  0  0  0  0  0  0  0  0  0  0  0
   -4.5465   -2.1527    1.2902 H   0  0  0  0  0  0  0  0  0  0  0  0
   -3.9745   -3.1748   -0.0538 H   0  0  0  0  0  0  0  0  0  0  0  0
   -2.4245   -2.2537    1.0882 C   0  0  0  0  0  0  0  0  0  0  0  0
   -1.5805   -2.7478    1.8242 O   0  0  0  0  0  0  0  0  0  0  0  0
   -2.2045   -1.1637    0.3562 N   0  0  0  0  0  0  0  0  0  0  0  0
   -2.9595   -0.7907   -0.2008 H   0  0  0  0  0  0  0  0  0  0  0  0
   -0.9485   -0.4087    0.3482 C   0  0  1  0  0  0  0  0  0  0  0  0
   -0.3666   -0.6914    1.2269 H   0  0  0  0  0  0  0  0  0  0  0  0
   -0.1405   -0.7797   -0.9072 C   0  0  0  0  0  0  0  0  0  0  0  0
   -0.5646   -1.6827   -1.3485 H   0  0  0  0  0  0  0  0  0  0  0  0
   -0.2398    0.0213   -1.6412 H   0  0  0  0  0  0  0  0  0  0  0  0
    1.3307   -1.0337   -0.6392 C   0  0  0  0  0  0  0  0  0  0  0  0
    2.1412   -0.0212   -0.0916 C   0  0  0  0  0  0  0  0  0  0  0  0
    1.7236    0.9530    0.1204 H   0  0  0  0  0  0  0  0  0  0  0  0
    3.4952   -0.2773    0.1926 C   0  0  0  0  0  0  0  0  0  0  0  0
    4.1164    0.5023    0.6106 H   0  0  0  0  0  0  0  0  0  0  0  0
    4.0406   -1.5459   -0.0682 C   0  0  0  0  0  0  0  0  0  0  0  0
    5.0815   -1.7419    0.1479 H   0  0  0  0  0  0  0  0  0  0  0  0
    3.2339   -2.5594   -0.6168 C   0  0  0  0  0  0  0  0  0  0  0  0
    3.6544   -3.5329   -0.8224 H   0  0  0  0  0  0  0  0  0  0  0  0
    1.8816   -2.3021   -0.9038 C   0  0  0  0  0  0  0  0  0  0  0  0
    1.2629   -3.0817   -1.3289 H   0  0  0  0  0  0  0  0  0  0  0  0
   -1.2168    1.1047    0.4313 C   0  0  0  0  0  0  0  0  0  0  0  0
   -2.0890    1.6186   -0.2704 O   0  0  0  0  0  0  0  0  0  0  0  0
   -0.4674    1.8182    1.2813 N   0  0  0  0  0  0  0  0  0  0  0  0
    0.2640    1.3348    1.7800 H   0  0  0  0  0  0  0  0  0  0  0  0
   -0.5889    3.2615    1.4722 C   0  0  0  0  0  0  0  0  0  0  0  0
   -1.6291    3.5206    1.6805 H   0  0  0  0  0  0  0  0  0  0  0  0
    0.0359    3.5855    2.3049 H   0  0  0  0  0  0  0  0  0  0  0  0
   -0.2760    3.7797    0.5637 H   0  0  0  0  0  0  0  0  0  0  0  0
  5  6  2  0  0  0  0
  5  7  1  0  0  0  0
  2  3  1  0  0  0  0
  2  4  1  0  0  0  0
  2  5  1  0  0  0  0
  1  2  1  0  0  0  0
 25 26  2  0  0  0  0
 25 27  1  0  0  0  0
 23 24  1  0  0  0  0
 21 22  1  0  0  0  0
 21 23  2  0  0  0  0
 19 20  1  0  0  0  0
 19 21  1  0  0  0  0
 17 18  1  0  0  0  0
 17 19  2  0  0  0  0
 15 16  1  0  0  0  0
 15 17  1  0  0  0  0
 14 15  2  0  0  0  0
 14 23  1  0  0  0  0
 11 12  1  0  0  0  0
 11 13  1  0  0  0  0
 11 14  1  0  0  0  0
  9 10  1  0  0  0  0
  9 11  1  0  0  0  0
  9 25  1  0  0  0  0
  7  8  1  0  0  0  0
  7  9  1  0  0  0  0
 29 30  1  0  0  0  0
 29 31  1  0  0  0  0
 29 32  1  0  0  0  0
 27 28  1  0  0  0  0
 27 29  1  0  0  0  0
M  END
$$$$
default_name
  -OEChem-02102213163D

 32 32  0     1  0  0  0  0  0999 V2000
   -3.8405   -3.7518    1.6252 H   0  0  0  0  0  0  0  0  0  0  0  0
   -3.7965   -2.8768    0.9782 C   0  0  0  0  0  0  0  0  0  0  0  0
   -4.5465   -2.1527    1.2902 H   0  0  0  0  0  0  0  0  0  0  0  0
   -3.9745   -3.1748   -0.0538 H   0  0  0  0  0  0  0  0  0  0  0  0
   -2.4245   -2.2537    1.0882 C   0  0  0  0  0  0  0  0  0  0  0  0
   -1.5805   -2.7478    1.8242 O   0  0  0  0  0  0  0  0  0  0  0  0
   -2.2045   -1.1637    0.3562 N   0  0  0  0  0  0  0  0  0  0  0  0
   -2.9595   -0.7907   -0.2008 H   0  0  0  0  0  0  0  0  0  0  0  0
   -0.9485   -0.4087    0.3482 C   0  0  1  0  0  0  0  0  0  0  0  0
   -0.3666   -0.6914    1.2269 H   0  0  0  0  0  0  0  0  0  0  0  0
   -0.1405   -0.7797   -0.9072 C   0  0  0  0  0  0  0  0  0  0  0  0
   -0.5646   -1.6827   -1.3485 H   0  0  0  0  0  0  0  0  0  0  0  0
   -0.2398    0.0213   -1.6412 H   0  0  0  0  0  0  0  0  0  0  0  0
    1.3307   -1.0337   -0.6392 C   0  0  0  0  0  0  0  0  0  0  0  0
    2.0671   -0.1602    0.1833 C   0  0  0  0  0  0  0  0  0  0  0  0
    1.5925    0.7115    0.6114 H   0  0  0  0  0  0  0  0  0  0  0  0
    3.4209   -0.4250    0.4607 C   0  0  0  0  0  0  0  0  0  0  0  0
    3.9852    0.2484    1.0904 H   0  0  0  0  0  0  0  0  0  0  0  0
    4.0400   -1.5639   -0.0819 C   0  0  0  0  0  0  0  0  0  0  0  0
    5.0807   -1.7661    0.1293 H   0  0  0  0  0  0  0  0  0  0  0  0
    3.3074   -2.4380   -0.9054 C   0  0  0  0  0  0  0  0  0  0  0  0
    3.7846   -3.3106   -1.3269 H   0  0  0  0  0  0  0  0  0  0  0  0
    1.9554   -2.1713   -1.1851 C   0  0  0  0  0  0  0  0  0  0  0  0
    1.3938   -2.8428   -1.8215 H   0  0  0  0  0  0  0  0  0  0  0  0
   -1.2168    1.1047    0.4313 C   0  0  0  0  0  0  0  0  0  0  0  0
   -2.0890    1.6186   -0.2704 O   0  0  0  0  0  0  0  0  0  0  0  0
   -0.4674    1.8182    1.2813 N   0  0  0  0  0  0  0  0  0  0  0  0
    0.2640    1.3348    1.7800 H   0  0  0  0  0  0  0  0  0  0  0  0
   -0.5889    3.2615    1.4722 C   0  0  0  0  0  0  0  0  0  0  0  0
   -1.6291    3.5206    1.6805 H   0  0  0  0  0  0  0  0  0  0  0  0
    0.0359    3.5855    2.3049 H   0  0  0  0  0  0  0  0  0  0  0  0
   -0.2760    3.7797    0.5637 H   0  0  0  0  0  0  0  0  0  0  0  0
  5  6  2  0  0  0  0
  5  7  1  0  0  0  0
  2  3  1  0  0  0  0
  2  4  1  0  0  0  0
  2  5  1  0  0  0  0
  1  2  1  0  0  0  0
 25 26  2  0  0  0  0
 25 27  1  0  0  0  0
 23 24  1  0  0  0  0
 21 22  1  0  0  0  0
 21 23  2  0  0  0  0
 19 20  1  0  0  0  0
 19 21  1  0  0  0  0
 17 18  1  0  0  0  0
 17 19  2  0  0  0  0
 15 16  1  0  0  0  0
 15 17  1  0  0  0  0
 14 15  2  0  0  0  0
 14 23  1  0  0  0  0
 11 12  1  0  0  0  0
 11 13  1  0  0  0  0
 11 14  1  0  0  0  0
  9 10  1  0  0  0  0
  9 11  1  0  0  0  0
  9 25  1  0  0  0  0
  7  8  1  0  0  0  0
  7  9  1  0  0  0  0
 29 30  1  0  0  0  0
 29 31  1  0  0  0  0
 29 32  1  0  0  0  0
 27 28  1  0  0  0  0
 27 29  1  0  0  0  0
M  END
$$$$
default_name
  -OEChem-02102213163D

 32 32  0     1  0  0  0  0  0999 V2000
   -3.8405   -3.7518    1.6252 H   0  0  0  0  0  0  0  0  0  0  0  0
   -3.7965   -2.8768    0.9782 C   0  0  0  0  0  0  0  0  0  0  0  0
   -4.5465   -2.1527    1.2902 H   0  0  0  0  0  0  0  0  0  0  0  0
   -3.9745   -3.1748   -0.0538 H   0  0  0  0  0  0  0  0  0  0  0  0
   -2.4245   -2.2537    1.0882 C   0  0  0  0  0  0  0  0  0  0  0  0
   -1.5805   -2.7478    1.8242 O   0  0  0  0  0  0  0  0  0  0  0  0
   -2.2045   -1.1637    0.3562 N   0  0  0  0  0  0  0  0  0  0  0  0
   -2.9595   -0.7907   -0.2008 H   0  0  0  0  0  0  0  0  0  0  0  0
   -0.9485   -0.4087    0.3482 C   0  0  1  0  0  0  0  0  0  0  0  0
   -0.3666   -0.6914    1.2269 H   0  0  0  0  0  0  0  0  0  0  0  0
   -0.1405   -0.7797   -0.9072 C   0  0  0  0  0  0  0  0  0  0  0  0
   -0.5646   -1.6827   -1.3485 H   0  0  0  0  0  0  0  0  0  0  0  0
   -0.2398    0.0213   -1.6412 H   0  0  0  0  0  0  0  0  0  0  0  0
    1.3307   -1.0337   -0.6392 C   0  0  0  0  0  0  0  0  0  0  0  0
    1.9900   -0.3668    0.4108 C   0  0  0  0  0  0  0  0  0  0  0  0
    1.4556    0.3491    1.0193 H   0  0  0  0  0  0  0  0  0  0  0  0
    3.3442   -0.6384    0.6793 C   0  0  0  0  0  0  0  0  0  0  0  0
    3.8493   -0.1233    1.4844 H   0  0  0  0  0  0  0  0  0  0  0  0
    4.0408   -1.5779   -0.0996 C   0  0  0  0  0  0  0  0  0  0  0  0
    5.0819   -1.7848    0.1053 H   0  0  0  0  0  0  0  0  0  0  0  0
    3.3854   -2.2450   -1.1505 C   0  0  0  0  0  0  0  0  0  0  0  0
    3.9222   -2.9632   -1.7528 H   0  0  0  0  0  0  0  0  0  0  0  0
    2.0329   -1.9709   -1.4208 C   0  0  0  0  0  0  0  0  0  0  0  0
    1.5308   -2.4823   -2.2317 H   0  0  0  0  0  0  0  0  0  0  0  0
   -1.2168    1.1047    0.4313 C   0  0  0  0  0  0  0  0  0  0  0  0
   -2.0890    1.6186   -0.2704 O   0  0  0  0  0  0  0  0  0  0  0  0
   -0.4674    1.8182    1.2813 N   0  0  0  0  0  0  0  0  0  0  0  0
    0.2640    1.3348    1.7800 H   0  0  0  0  0  0  0  0  0  0  0  0
   -0.5889    3.2615    1.4722 C   0  0  0  0  0  0  0  0  0  0  0  0
   -1.6291    3.5206    1.6805 H   0  0  0  0  0  0  0  0  0  0  0  0
    0.0359    3.5855    2.3049 H   0  0  0  0  0  0  0  0  0  0  0  0
   -0.2760    3.7797    0.5637 H   0  0  0  0  0  0  0  0  0  0  0  0
  5  6  2  0  0  0  0
  5  7  1  0  0  0  0
  2  3  1  0  0  0  0
  2  4  1  0  0  0  0
  2  5  1  0  0  0  0
  1  2  1  0  0  0  0
 25 26  2  0  0  0  0
 25 27  1  0  0  0  0
 23 24  1  0  0  0  0
 21 22  1  0  0  0  0
 21 23  2  0  0  0  0
 19 20  1  0  0  0  0
 19 21  1  0  0  0  0
 17 18  1  0  0  0  0
 17 19  2  0  0  0  0
 15 16  1  0  0  0  0
 15 17  1  0  0  0  0
 14 15  2  0  0  0  0
 14 23  1  0  0  0  0
 11 12  1  0  0  0  0
 11 13  1  0  0  0  0
 11 14  1  0  0  0  0
  9 10  1  0  0  0  0
  9 11  1  0  0  0  0
  9 25  1  0  0  0  0
  7  8  1  0  0  0  0
  7  9  1  0  0  0  0
 29 30  1  0  0  0  0
 29 31  1  0  0  0  0
 29 32  1  0  0  0  0
 27 28  1  0  0  0  0
 27 29  1  0  0  0  0
M  END
$$$$
default_name
  -OEChem-02102213163D

 32 32  0     1  0  0  0  0  0999 V2000
   -3.8405   -3.7518    1.6252 H   0  0  0  0  0  0  0  0  0  0  0  0
   -3.7965   -2.8768    0.9782 C   0  0  0  0  0  0  0  0  0  0  0  0
   -4.5465   -2.1527    1.2902 H   0  0  0  0  0  0  0  0  0  0  0  0
   -3.9745   -3.1748   -0.0538 H   0  0  0  0  0  0  0  0  0  0  0  0
   -2.4245   -2.2537    1.0882 C   0  0  0  0  0  0  0  0  0  0  0  0
   -1.5805   -2.7478    1.8242 O   0  0  0  0  0  0  0  0  0  0  0  0
   -2.2045   -1.1637    0.3562 N   0  0  0  0  0  0  0  0  0  0  0  0
   -2.9595   -0.7907   -0.2008 H   0  0  0  0  0  0  0  0  0  0  0  0
   -0.9485   -0.4087    0.3482 C   0  0  1  0  0  0  0  0  0  0  0  0
   -0.3666   -0.6914    1.2269 H   0  0  0  0  0  0  0  0  0  0  0  0
   -0.1405   -0.7797   -0.9072 C   0  0  0  0  0  0  0  0  0  0  0  0
   -0.5646   -1.6827   -1.3485 H   0  0  0  0  0  0  0  0  0  0  0  0
   -0.2398    0.0213   -1.6412 H   0  0  0  0  0  0  0  0  0  0  0  0
    1.3307   -1.0337   -0.6392 C   0  0  0  0  0  0  0  0  0  0  0  0
    1.9151   -0.6270    0.5753 C   0  0  0  0  0  0  0  0  0  0  0  0
    1.3223   -0.1097    1.3164 H   0  0  0  0  0  0  0  0  0  0  0  0
    3.2705   -0.9029    0.8337 C   0  0  0  0  0  0  0  0  0  0  0  0
    3.7179   -0.5875    1.7658 H   0  0  0  0  0  0  0  0  0  0  0  0
    4.0430   -1.5870   -0.1202 C   0  0  0  0  0  0  0  0  0  0  0  0
    5.0849   -1.7968    0.0774 H   0  0  0  0  0  0  0  0  0  0  0  0
    3.4625   -1.9934   -1.3355 C   0  0  0  0  0  0  0  0  0  0  0  0
    4.0576   -2.5145   -2.0710 H   0  0  0  0  0  0  0  0  0  0  0  0
    2.1088   -1.7147   -1.5948 C   0  0  0  0  0  0  0  0  0  0  0  0
    1.6643   -2.0250   -2.5315 H   0  0  0  0  0  0  0  0  0  0  0  0
   -1.2168    1.1047    0.4313 C   0  0  0  0  0  0  0  0  0  0  0  0
   -2.0890    1.6186   -0.2704 O   0  0  0  0  0  0  0  0  0  0  0  0
   -0.4674    1.8182    1.2813 N   0  0  0  0  0  0  0  0  0  0  0  0
    0.2640    1.3348    1.7800 H   0  0  0  0  0  0  0  0  0  0  0  0
   -0.5889    3.2615    1.4722 C   0  0  0  0  0  0  0  0  0  0  0  0
   -1.6291    3.5206    1.6805 H   0  0  0  0  0  0  0  0  0  0  0  0
    0.0359    3.5855    2.3049 H   0  0  0  0  0  0  0  0  0  0  0  0
   -0.2760    3.7797    0.5637 H   0  0  0  0  0  0  0  0  0  0  0  0
  5  6  2  0  0  0  0
  5  7  1  0  0  0  0
  2  3  1  0  0  0  0
  2  4  1  0  0  0  0
  2  5  1  0  0  0  0
  1  2  1  0  0  0  0
 25 26  2  0  0  0  0
 25 27  1  0  0  0  0
 23 24  1  0  0  0  0
 21 22  1  0  0  0  0
 21 23  2  0  0  0  0
 19 20  1  0  0  0  0
 19 21  1  0  0  0  0
 17 18  1  0  0  0  0
 17 19  2  0  0  0  0
 15 16  1  0  0  0  0
 15 17  1  0  0  0  0
 14 15  2  0  0  0  0
 14 23  1  0  0  0  0
 11 12  1  0  0  0  0
 11 13  1  0  0  0  0
 11 14  1  0  0  0  0
  9 10  1  0  0  0  0
  9 11  1  0  0  0  0
  9 25  1  0  0  0  0
  7  8  1  0  0  0  0
  7  9  1  0  0  0  0
 29 30  1  0  0  0  0
 29 31  1  0  0  0  0
 29 32  1  0  0  0  0
 27 28  1  0  0  0  0
 27 29  1  0  0  0  0
M  END
$$$$
default_name
  -OEChem-02102213163D

 32 32  0     1  0  0  0  0  0999 V2000
   -3.8405   -3.7518    1.6252 H   0  0  0  0  0  0  0  0  0  0  0  0
   -3.7965   -2.8768    0.9782 C   0  0  0  0  0  0  0  0  0  0  0  0
   -4.5465   -2.1527    1.2902 H   0  0  0  0  0  0  0  0  0  0  0  0
   -3.9745   -3.1748   -0.0538 H   0  0  0  0  0  0  0  0  0  0  0  0
   -2.4245   -2.2537    1.0882 C   0  0  0  0  0  0  0  0  0  0  0  0
   -1.5805   -2.7478    1.8242 O   0  0  0  0  0  0  0  0  0  0  0  0
   -2.2045   -1.1637    0.3562 N   0  0  0  0  0  0  0  0  0  0  0  0
   -2.9595   -0.7907   -0.2008 H   0  0  0  0  0  0  0  0  0  0  0  0
   -0.9485   -0.4087    0.3482 C   0  0  1  0  0  0  0  0  0  0  0  0
   -0.3666   -0.6914    1.2269 H   0  0  0  0  0  0  0  0  0  0  0  0
   -0.1405   -0.7797   -0.9072 C   0  0  0  0  0  0  0  0  0  0  0  0
   -0.5646   -1.6827   -1.3485 H   0  0  0  0  0  0  0  0  0  0  0  0
   -0.2398    0.0213   -1.6412 H   0  0  0  0  0  0  0  0  0  0  0  0
    1.3307   -1.0337   -0.6392 C   0  0  0  0  0  0  0  0  0  0  0  0
    1.8475   -0.9231    0.6656 C   0  0  0  0  0  0  0  0  0  0  0  0
    1.2016   -0.6336    1.4825 H   0  0  0  0  0  0  0  0  0  0  0  0
    3.2046   -1.2005    0.9132 C   0  0  0  0  0  0  0  0  0  0  0  0
    3.6000   -1.1125    1.9154 H   0  0  0  0  0  0  0  0  0  0  0  0
    4.0464   -1.5905   -0.1423 C   0  0  0  0  0  0  0  0  0  0  0  0
    5.0896   -1.8013    0.0475 H   0  0  0  0  0  0  0  0  0  0  0  0
    3.5335   -1.7005   -1.4476 C   0  0  0  0  0  0  0  0  0  0  0  0
    4.1817   -1.9950   -2.2599 H   0  0  0  0  0  0  0  0  0  0  0  0
    2.1780   -1.4200   -1.6952 C   0  0  0  0  0  0  0  0  0  0  0  0
    1.7854   -1.5018   -2.7004 H   0  0  0  0  0  0  0  0  0  0  0  0
   -1.2168    1.1047    0.4313 C   0  0  0  0  0  0  0  0  0  0  0  0
   -2.0890    1.6186   -0.2704 O   0  0  0  0  0  0  0  0  0  0  0  0
   -0.4674    1.8182    1.2813 N   0  0  0  0  0  0  0  0  0  0  0  0
    0.2640    1.3348    1.7800 H   0  0  0  0  0  0  0  0  0  0  0  0
   -0.5889    3.2615    1.4722 C   0  0  0  0  0  0  0  0  0  0  0  0
   -1.6291    3.5206    1.6805 H   0  0  0  0  0  0  0  0  0  0  0  0
    0.0359    3.5855    2.3049 H   0  0  0  0  0  0  0  0  0  0  0  0
   -0.2760    3.7797    0.5637 H   0  0  0  0  0  0  0  0  0  0  0  0
  5  6  2  0  0  0  0
  5  7  1  0  0  0  0
  2  3  1  0  0  0  0
  2  4  1  0  0  0  0
  2  5  1  0  0  0  0
  1  2  1  0  0  0  0
 25 26  2  0  0  0  0
 25 27  1  0  0  0  0
 23 24  1  0  0  0  0
 21 22  1  0  0  0  0
 21 23  2  0  0  0  0
 19 20  1  0  0  0  0
 19 21  1  0  0  0  0
 17 18  1  0  0  0  0
 17 19  2  0  0  0  0
 15 16  1  0  0  0  0
 15 17  1  0  0  0  0
 14 15  2  0  0  0  0
 14 23  1  0  0  0  0
 11 12  1  0  0  0  0
 11 13  1  0  0  0  0
 11 14  1  0  0  0  0
  9 10  1  0  0  0  0
  9 11  1  0  0  0  0
  9 25  1  0  0  0  0
  7  8  1  0  0  0  0
  7  9  1  0  0  0  0
 29 30  1  0  0  0  0
 29 31  1  0  0  0  0
 29 32  1  0  0  0  0
 27 28  1  0  0  0  0
 27 29  1  0  0  0  0
M  END
$$$$
default_name
  -OEChem-02102213163D

 32 32  0     1  0  0  0  0  0999 V2000
   -3.8405   -3.7518    1.6252 H   0  0  0  0  0  0  0  0  0  0  0  0
   -3.7965   -2.8768    0.9782 C   0  0  0  0  0  0  0  0  0  0  0  0
   -4.5465   -2.1527    1.2902 H   0  0  0  0  0  0  0  0  0  0  0  0
   -3.9745   -3.1748   -0.0538 H   0  0  0  0  0  0  0  0  0  0  0  0
   -2.4245   -2.2537    1.0882 C   0  0  0  0  0  0  0  0  0  0  0  0
   -1.5805   -2.7478    1.8242 O   0  0  0  0  0  0  0  0  0  0  0  0
   -2.2045   -1.1637    0.3562 N   0  0  0  0  0  0  0  0  0  0  0  0
   -2.9595   -0.7907   -0.2008 H   0  0  0  0  0  0  0  0  0  0  0  0
   -0.9485   -0.4087    0.3482 C   0  0  1  0  0  0  0  0  0  0  0  0
   -0.3666   -0.6914    1.2269 H   0  0  0  0  0  0  0  0  0  0  0  0
   -0.1405   -0.7797   -0.9072 C   0  0  0  0  0  0  0  0  0  0  0  0
   -0.5646   -1.6827   -1.3485 H   0  0  0  0  0  0  0  0  0  0  0  0
   -0.2398    0.0213   -1.6412 H   0  0  0  0  0  0  0  0  0  0  0  0
    1.3307   -1.0337   -0.6392 C   0  0  0  0  0  0  0  0  0  0  0  0
    1.7919   -1.2349    0.6756 C   0  0  0  0  0  0  0  0  0  0  0  0
    1.1018   -1.1868    1.5062 H   0  0  0  0  0  0  0  0  0  0  0  0
    3.1512   -1.5109    0.9124 C   0  0  0  0  0  0  0  0  0  0  0  0
    3.5036   -1.6626    1.9229 H   0  0  0  0  0  0  0  0  0  0  0  0
    4.0508   -1.5882   -0.1643 C   0  0  0  0  0  0  0  0  0  0  0  0
    5.0956   -1.7979    0.0178 H   0  0  0  0  0  0  0  0  0  0  0  0
    3.5936   -1.3861   -1.4793 C   0  0  0  0  0  0  0  0  0  0  0  0
    4.2860   -1.4401   -2.3065 H   0  0  0  0  0  0  0  0  0  0  0  0
    2.2357   -1.1070   -1.7153 C   0  0  0  0  0  0  0  0  0  0  0  0
    1.8858   -0.9485   -2.7271 H   0  0  0  0  0  0  0  0  0  0  0  0
   -1.2168    1.1047    0.4313 C   0  0  0  0  0  0  0  0  0  0  0  0
   -2.0890    1.6186   -0.2704 O   0  0  0  0  0  0  0  0  0  0  0  0
   -0.4674    1.8182    1.2813 N   0  0  0  0  0  0  0  0  0  0  0  0
    0.2640    1.3348    1.7800 H   0  0  0  0  0  0  0  0  0  0  0  0
   -0.5889    3.2615    1.4722 C   0  0  0  0  0  0  0  0  0  0  0  0
   -1.6291    3.5206    1.6805 H   0  0  0  0  0  0  0  0  0  0  0  0
    0.0359    3.5855    2.3049 H   0  0  0  0  0  0  0  0  0  0  0  0
   -0.2760    3.7797    0.5637 H   0  0  0  0  0  0  0  0  0  0  0  0
  5  6  2  0  0  0  0
  5  7  1  0  0  0  0
  2  3  1  0  0  0  0
  2  4  1  0  0  0  0
  2  5  1  0  0  0  0
  1  2  1  0  0  0  0
 25 26  2  0  0  0  0
 25 27  1  0  0  0  0
 23 24  1  0  0  0  0
 21 22  1  0  0  0  0
 21 23  2  0  0  0  0
 19 20  1  0  0  0  0
 19 21  1  0  0  0  0
 17 18  1  0  0  0  0
 17 19  2  0  0  0  0
 15 16  1  0  0  0  0
 15 17  1  0  0  0  0
 14 15  2  0  0  0  0
 14 23  1  0  0  0  0
 11 12  1  0  0  0  0
 11 13  1  0  0  0  0
 11 14  1  0  0  0  0
  9 10  1  0  0  0  0
  9 11  1  0  0  0  0
  9 25  1  0  0  0  0
  7  8  1  0  0  0  0
  7  9  1  0  0  0  0
 29 30  1  0  0  0  0
 29 31  1  0  0  0  0
 29 32  1  0  0  0  0
 27 28  1  0  0  0  0
 27 29  1  0  0  0  0
M  END
$$$$
default_name
  -OEChem-02102213163D

 32 32  0     1  0  0  0  0  0999 V2000
   -3.8405   -3.7518    1.6252 H   0  0  0  0  0  0  0  0  0  0  0  0
   -3.7965   -2.8768    0.9782 C   0  0  0  0  0  0  0  0  0  0  0  0
   -4.5465   -2.1527    1.2902 H   0  0  0  0  0  0  0  0  0  0  0  0
   -3.9745   -3.1748   -0.0538 H   0  0  0  0  0  0  0  0  0  0  0  0
   -2.4245   -2.2537    1.0882 C   0  0  0  0  0  0  0  0  0  0  0  0
   -1.5805   -2.7478    1.8242 O   0  0  0  0  0  0  0  0  0  0  0  0
   -2.2045   -1.1637    0.3562 N   0  0  0  0  0  0  0  0  0  0  0  0
   -2.9595   -0.7907   -0.2008 H   0  0  0  0  0  0  0  0  0  0  0  0
   -0.9485   -0.4087    0.3482 C   0  0  1  0  0  0  0  0  0  0  0  0
   -0.3666   -0.6914    1.2269 H   0  0  0  0  0  0  0  0  0  0  0  0
   -0.1405   -0.7797   -0.9072 C   0  0  0  0  0  0  0  0  0  0  0  0
   -0.5646   -1.6827   -1.3485 H   0  0  0  0  0  0  0  0  0  0  0  0
   -0.2398    0.0213   -1.6412 H   0  0  0  0  0  0  0  0  0  0  0  0
    1.3307   -1.0337   -0.6392 C   0  0  0  0  0  0  0  0  0  0  0  0
    1.7520   -1.5411    0.6046 C   0  0  0  0  0  0  0  0  0  0  0  0
    1.0297   -1.7316    1.3858 H   0  0  0  0  0  0  0  0  0  0  0  0
    3.1138   -1.8130    0.8313 C   0  0  0  0  0  0  0  0  0  0  0  0
    3.4354   -2.2002    1.7880 H   0  0  0  0  0  0  0  0  0  0  0  0
    4.0559   -1.5802   -0.1849 C   0  0  0  0  0  0  0  0  0  0  0  0
    5.1025   -1.7869   -0.0098 H   0  0  0  0  0  0  0  0  0  0  0  0
    3.6386   -1.0718   -1.4284 C   0  0  0  0  0  0  0  0  0  0  0  0
    4.3634   -0.8876   -2.2078 H   0  0  0  0  0  0  0  0  0  0  0  0
    2.2780   -0.7970   -1.6536 C   0  0  0  0  0  0  0  0  0  0  0  0
    1.9586   -0.4028   -2.6095 H   0  0  0  0  0  0  0  0  0  0  0  0
   -1.2168    1.1047    0.4313 C   0  0  0  0  0  0  0  0  0  0  0  0
   -2.0890    1.6186   -0.2704 O   0  0  0  0  0  0  0  0  0  0  0  0
   -0.4674    1.8182    1.2813 N   0  0  0  0  0  0  0  0  0  0  0  0
    0.2640    1.3348    1.7800 H   0  0  0  0  0  0  0  0  0  0  0  0
   -0.5889    3.2615    1.4722 C   0  0  0  0  0  0  0  0  0  0  0  0
   -1.6291    3.5206    1.6805 H   0  0  0  0  0  0  0  0  0  0  0  0
    0.0359    3.5855    2.3049 H   0  0  0  0  0  0  0  0  0  0  0  0
   -0.2760    3.7797    0.5637 H   0  0  0  0  0  0  0  0  0  0  0  0
  5  6  2  0  0  0  0
  5  7  1  0  0  0  0
  2  3  1  0  0  0  0
  2  4  1  0  0  0  0
  2  5  1  0  0  0  0
  1  2  1  0  0  0  0
 25 26  2  0  0  0  0
 25 27  1  0  0  0  0
 23 24  1  0  0  0  0
 21 22  1  0  0  0  0
 21 23  2  0  0  0  0
 19 20  1  0  0  0  0
 19 21  1  0  0  0  0
 17 18  1  0  0  0  0
 17 19  2  0  0  0  0
 15 16  1  0  0  0  0
 15 17  1  0  0  0  0
 14 15  2  0  0  0  0
 14 23  1  0  0  0  0
 11 12  1  0  0  0  0
 11 13  1  0  0  0  0
 11 14  1  0  0  0  0
  9 10  1  0  0  0  0
  9 11  1  0  0  0  0
  9 25  1  0  0  0  0
  7  8  1  0  0  0  0
  7  9  1  0  0  0  0
 29 30  1  0  0  0  0
 29 31  1  0  0  0  0
 29 32  1  0  0  0  0
 27 28  1  0  0  0  0
 27 29  1  0  0  0  0
M  END
$$$$
default_name
  -OEChem-02102213163D

 32 32  0     1  0  0  0  0  0999 V2000
   -3.8405   -3.7518    1.6252 H   0  0  0  0  0  0  0  0  0  0  0  0
   -3.7965   -2.8768    0.9782 C   0  0  0  0  0  0  0  0  0  0  0  0
   -4.5465   -2.1527    1.2902 H   0  0  0  0  0  0  0  0  0  0  0  0
   -3.9745   -3.1748   -0.0538 H   0  0  0  0  0  0  0  0  0  0  0  0
   -2.4245   -2.2537    1.0882 C   0  0  0  0  0  0  0  0  0  0  0  0
   -1.5805   -2.7478    1.8242 O   0  0  0  0  0  0  0  0  0  0  0  0
   -2.2045   -1.1637    0.3562 N   0  0  0  0  0  0  0  0  0  0  0  0
   -2.9595   -0.7907   -0.2008 H   0  0  0  0  0  0  0  0  0  0  0  0
   -0.9485   -0.4087    0.3482 C   0  0  1  0  0  0  0  0  0  0  0  0
   -0.3666   -0.6914    1.2269 H   0  0  0  0  0  0  0  0  0  0  0  0
   -0.1405   -0.7797   -0.9072 C   0  0  0  0  0  0  0  0  0  0  0  0
   -0.5646   -1.6827   -1.3485 H   0  0  0  0  0  0  0  0  0  0  0  0
   -0.2398    0.0213   -1.6412 H   0  0  0  0  0  0  0  0  0  0  0  0
    1.3307   -1.0337   -0.6392 C   0  0  0  0  0  0  0  0  0  0  0  0
    1.7305   -1.8209    0.4574 C   0  0  0  0  0  0  0  0  0  0  0  0
    0.9901   -2.2310    1.1297 H   0  0  0  0  0  0  0  0  0  0  0  0
    3.0950   -2.0862    0.6756 C   0  0  0  0  0  0  0  0  0  0  0  0
    3.3999   -2.6887    1.5197 H   0  0  0  0  0  0  0  0  0  0  0  0
    4.0614   -1.5671   -0.2025 C   0  0  0  0  0  0  0  0  0  0  0  0
    5.1099   -1.7690   -0.0334 H   0  0  0  0  0  0  0  0  0  0  0  0
    3.6655   -0.7789   -1.2984 C   0  0  0  0  0  0  0  0  0  0  0  0
    4.4086   -0.3752   -1.9703 H   0  0  0  0  0  0  0  0  0  0  0  0
    2.3020   -0.5111   -1.5143 C   0  0  0  0  0  0  0  0  0  0  0  0
    1.9989    0.0982   -2.3559 H   0  0  0  0  0  0  0  0  0  0  0  0
   -1.2168    1.1047    0.4313 C   0  0  0  0  0  0  0  0  0  0  0  0
   -2.0890    1.6186   -0.2704 O   0  0  0  0  0  0  0  0  0  0  0  0
   -0.4674    1.8182    1.2813 N   0  0  0  0  0  0  0  0  0  0  0  0
    0.2640    1.3348    1.7800 H   0  0  0  0  0  0  0  0  0  0  0  0
   -0.5889    3.2615    1.4722 C   0  0  0  0  0  0  0  0  0  0  0  0
   -1.6291    3.5206    1.6805 H   0  0  0  0  0  0  0  0  0  0  0  0
    0.0359    3.5855    2.3049 H   0  0  0  0  0  0  0  0  0  0  0  0
   -0.2760    3.7797    0.5637 H   0  0  0  0  0  0  0  0  0  0  0  0
  5  6  2  0  0  0  0
  5  7  1  0  0  0  0
  2  3  1  0  0  0  0
  2  4  1  0  0  0  0
  2  5  1  0  0  0  0
  1  2  1  0  0  0  0
 25 26  2  0  0  0  0
 25 27  1  0  0  0  0
 23 24  1  0  0  0  0
 21 22  1  0  0  0  0
 21 23  2  0  0  0  0
 19 20  1  0  0  0  0
 19 21  1  0  0  0  0
 17 18  1  0  0  0  0
 17 19  2  0  0  0  0
 15 16  1  0  0  0  0
 15 17  1  0  0  0  0
 14 15  2  0  0  0  0
 14 23  1  0  0  0  0
 11 12  1  0  0  0  0
 11 13  1  0  0  0  0
 11 14  1  0  0  0  0
  9 10  1  0  0  0  0
  9 11  1  0  0  0  0
  9 25  1  0  0  0  0
  7  8  1  0  0  0  0
  7  9  1  0  0  0  0
 29 30  1  0  0  0  0
 29 31  1  0  0  0  0
 29 32  1  0  0  0  0
 27 28  1  0  0  0  0
 27 29  1  0  0  0  0
M  END
$$$$
default_name
  -OEChem-02102213163D

 32 32  0     1  0  0  0  0  0999 V2000
   -3.8405   -3.7518    1.6252 H   0  0  0  0  0  0  0  0  0  0  0  0
   -3.7965   -2.8768    0.9782 C   0  0  0  0  0  0  0  0  0  0  0  0
   -4.5465   -2.1527    1.2902 H   0  0  0  0  0  0  0  0  0  0  0  0
   -3.9745   -3.1748   -0.0538 H   0  0  0  0  0  0  0  0  0  0  0  0
   -2.4245   -2.2537    1.0882 C   0  0  0  0  0  0  0  0  0  0  0  0
   -1.5805   -2.7478    1.8242 O   0  0  0  0  0  0  0  0  0  0  0  0
   -2.2045   -1.1637    0.3562 N   0  0  0  0  0  0  0  0  0  0  0  0
   -2.9595   -0.7907   -0.2008 H   0  0  0  0  0  0  0  0  0  0  0  0
   -0.9485   -0.4087    0.3482 C   0  0  1  0  0  0  0  0  0  0  0  0
   -0.3666   -0.6914    1.2269 H   0  0  0  0  0  0  0  0  0  0  0  0
   -0.1405   -0.7797   -0.9072 C   0  0  0  0  0  0  0  0  0  0  0  0
   -0.5646   -1.6827   -1.3485 H   0  0  0  0  0  0  0  0  0  0  0  0
   -0.2398    0.0213   -1.6412 H   0  0  0  0  0  0  0  0  0  0  0  0
    1.3307   -1.0337   -0.6392 C   0  0  0  0  0  0  0  0  0  0  0  0
    1.7289   -2.0551    0.2440 C   0  0  0  0  0  0  0  0  0  0  0  0
    0.9858   -2.6508    0.7552 H   0  0  0  0  0  0  0  0  0  0  0  0
    3.0960   -2.3119    0.4558 C   0  0  0  0  0  0  0  0  0  0  0  0
    3.3996   -3.0949    1.1364 H   0  0  0  0  0  0  0  0  0  0  0  0
    4.0669   -1.5497   -0.2159 C   0  0  0  0  0  0  0  0  0  0  0  0
    5.1172   -1.7455   -0.0514 H   0  0  0  0  0  0  0  0  0  0  0  0
    3.6724   -0.5274   -1.0981 C   0  0  0  0  0  0  0  0  0  0  0  0
    4.4186    0.0621   -1.6104 H   0  0  0  0  0  0  0  0  0  0  0  0
    2.3061   -0.2688   -1.3070 C   0  0  0  0  0  0  0  0  0  0  0  0
    2.0039    0.5202   -1.9833 H   0  0  0  0  0  0  0  0  0  0  0  0
   -1.2168    1.1047    0.4313 C   0  0  0  0  0  0  0  0  0  0  0  0
   -2.0890    1.6186   -0.2704 O   0  0  0  0  0  0  0  0  0  0  0  0
   -0.4674    1.8182    1.2813 N   0  0  0  0  0  0  0  0  0  0  0  0
    0.2640    1.3348    1.7800 H   0  0  0  0  0  0  0  0  0  0  0  0
   -0.5889    3.2615    1.4722 C   0  0  0  0  0  0  0  0  0  0  0  0
   -1.6291    3.5206    1.6805 H   0  0  0  0  0  0  0  0  0  0  0  0
    0.0359    3.5855    2.3049 H   0  0  0  0  0  0  0  0  0  0  0  0
   -0.2760    3.7797    0.5637 H   0  0  0  0  0  0  0  0  0  0  0  0
  5  6  2  0  0  0  0
  5  7  1  0  0  0  0
  2  3  1  0  0  0  0
  2  4  1  0  0  0  0
  2  5  1  0  0  0  0
  1  2  1  0  0  0  0
 25 26  2  0  0  0  0
 25 27  1  0  0  0  0
 23 24  1  0  0  0  0
 21 22  1  0  0  0  0
 21 23  2  0  0  0  0
 19 20  1  0  0  0  0
 19 21  1  0  0  0  0
 17 18  1  0  0  0  0
 17 19  2  0  0  0  0
 15 16  1  0  0  0  0
 15 17  1  0  0  0  0
 14 15  2  0  0  0  0
 14 23  1  0  0  0  0
 11 12  1  0  0  0  0
 11 13  1  0  0  0  0
 11 14  1  0  0  0  0
  9 10  1  0  0  0  0
  9 11  1  0  0  0  0
  9 25  1  0  0  0  0
  7  8  1  0  0  0  0
  7  9  1  0  0  0  0
 29 30  1  0  0  0  0
 29 31  1  0  0  0  0
 29 32  1  0  0  0  0
 27 28  1  0  0  0  0
 27 29  1  0  0  0  0
M  END
$$$$
default_name
  -OEChem-02102213163D

 32 32  0     1  0  0  0  0  0999 V2000
   -3.8405   -3.7518    1.6252 H   0  0  0  0  0  0  0  0  0  0  0  0
   -3.7965   -2.8768    0.9782 C   0  0  0  0  0  0  0  0  0  0  0  0
   -4.5465   -2.1527    1.2902 H   0  0  0  0  0  0  0  0  0  0  0  0
   -3.9745   -3.1748   -0.0538 H   0  0  0  0  0  0  0  0  0  0  0  0
   -2.4245   -2.2537    1.0882 C   0  0  0  0  0  0  0  0  0  0  0  0
   -1.5805   -2.7478    1.8242 O   0  0  0  0  0  0  0  0  0  0  0  0
   -2.2045   -1.1637    0.3562 N   0  0  0  0  0  0  0  0  0  0  0  0
   -2.9595   -0.7907   -0.2008 H   0  0  0  0  0  0  0  0  0  0  0  0
   -0.9485   -0.4087    0.3482 C   0  0  1  0  0  0  0  0  0  0  0  0
   -0.3666   -0.6914    1.2269 H   0  0  0  0  0  0  0  0  0  0  0  0
   -0.1405   -0.7797   -0.9072 C   0  0  0  0  0  0  0  0  0  0  0  0
   -0.5646   -1.6827   -1.3485 H   0  0  0  0  0  0  0  0  0  0  0  0
   -0.2398    0.0213   -1.6412 H   0  0  0  0  0  0  0  0  0  0  0  0
    1.3307   -1.0337   -0.6392 C   0  0  0  0  0  0  0  0  0  0  0  0
    1.7473   -2.2279   -0.0209 C   0  0  0  0  0  0  0  0  0  0  0  0
    1.0171   -2.9626    0.2878 H   0  0  0  0  0  0  0  0  0  0  0  0
    3.1169   -2.4746    0.1869 C   0  0  0  0  0  0  0  0  0  0  0  0
    3.4345   -3.3910    0.6642 H   0  0  0  0  0  0  0  0  0  0  0  0
    4.0719   -1.5294   -0.2244 C   0  0  0  0  0  0  0  0  0  0  0  0
    5.1240   -1.7179   -0.0625 H   0  0  0  0  0  0  0  0  0  0  0  0
    3.6589   -0.3344   -0.8411 C   0  0  0  0  0  0  0  0  0  0  0  0
    4.3926    0.3947   -1.1525 H   0  0  0  0  0  0  0  0  0  0  0  0
    2.2899   -0.0866   -1.0458 C   0  0  0  0  0  0  0  0  0  0  0  0
    1.9733    0.8346   -1.5173 H   0  0  0  0  0  0  0  0  0  0  0  0
   -1.2168    1.1047    0.4313 C   0  0  0  0  0  0  0  0  0  0  0  0
   -2.0890    1.6186   -0.2704 O   0  0  0  0  0  0  0  0  0  0  0  0
   -0.4674    1.8182    1.2813 N   0  0  0  0  0  0  0  0  0  0  0  0
    0.2640    1.3348    1.7800 H   0  0  0  0  0  0  0  0  0  0  0  0
   -0.5889    3.2615    1.4722 C   0  0  0  0  0  0  0  0  0  0  0  0
   -1.6291    3.5206    1.6805 H   0  0  0  0  0  0  0  0  0  0  0  0
    0.0359    3.5855    2.3049 H   0  0  0  0  0  0  0  0  0  0  0  0
   -0.2760    3.7797    0.5637 H   0  0  0  0  0  0  0  0  0  0  0  0
  5  6  2  0  0  0  0
  5  7  1  0  0  0  0
  2  3  1  0  0  0  0
  2  4  1  0  0  0  0
  2  5  1  0  0  0  0
  1  2  1  0  0  0  0
 25 26  2  0  0  0  0
 25 27  1  0  0  0  0
 23 24  1  0  0  0  0
 21 22  1  0  0  0  0
 21 23  2  0  0  0  0
 19 20  1  0  0  0  0
 19 21  1  0  0  0  0
 17 18  1  0  0  0  0
 17 19  2  0  0  0  0
 15 16  1  0  0  0  0
 15 17  1  0  0  0  0
 14 15  2  0  0  0  0
 14 23  1  0  0  0  0
 11 12  1  0  0  0  0
 11 13  1  0  0  0  0
 11 14  1  0  0  0  0
  9 10  1  0  0  0  0
  9 11  1  0  0  0  0
  9 25  1  0  0  0  0
  7  8  1  0  0  0  0
  7  9  1  0  0  0  0
 29 30  1  0  0  0  0
 29 31  1  0  0  0  0
 29 32  1  0  0  0  0
 27 28  1  0  0  0  0
 27 29  1  0  0  0  0
M  END
$$$$
default_name
  -OEChem-02102213163D

 32 32  0     1  0  0  0  0  0999 V2000
   -3.8405   -3.7518    1.6252 H   0  0  0  0  0  0  0  0  0  0  0  0
   -3.7965   -2.8768    0.9782 C   0  0  0  0  0  0  0  0  0  0  0  0
   -4.5465   -2.1527    1.2902 H   0  0  0  0  0  0  0  0  0  0  0  0
   -3.9745   -3.1748   -0.0538 H   0  0  0  0  0  0  0  0  0  0  0  0
   -2.4245   -2.2537    1.0882 C   0  0  0  0  0  0  0  0  0  0  0  0
   -1.5805   -2.7478    1.8242 O   0  0  0  0  0  0  0  0  0  0  0  0
   -2.2045   -1.1637    0.3562 N   0  0  0  0  0  0  0  0  0  0  0  0
   -2.9595   -0.7907   -0.2008 H   0  0  0  0  0  0  0  0  0  0  0  0
   -0.9485   -0.4087    0.3482 C   0  0  1  0  0  0  0  0  0  0  0  0
   -0.3666   -0.6914    1.2269 H   0  0  0  0  0  0  0  0  0  0  0  0
   -0.1405   -0.7797   -0.9072 C   0  0  0  0  0  0  0  0  0  0  0  0
   -0.5646   -1.6827   -1.3485 H   0  0  0  0  0  0  0  0  0  0  0  0
   -0.2398    0.0213   -1.6412 H   0  0  0  0  0  0  0  0  0  0  0  0
    1.3307   -1.0337   -0.6392 C   0  0  0  0  0  0  0  0  0  0  0  0
    1.7845   -2.3274   -0.3194 C   0  0  0  0  0  0  0  0  0  0  0  0
    1.0819   -3.1450   -0.2405 H   0  0  0  0  0  0  0  0  0  0  0  0
    3.1562   -2.5633   -0.1127 C   0  0  0  0  0  0  0  0  0  0  0  0
    3.5022   -3.5569    0.1352 H   0  0  0  0  0  0  0  0  0  0  0  0
    4.0762   -1.5073   -0.2272 C   0  0  0  0  0  0  0  0  0  0  0  0
    5.1298   -1.6881   -0.0661 H   0  0  0  0  0  0  0  0  0  0  0  0
    3.6260   -0.2131   -0.5451 C   0  0  0  0  0  0  0  0  0  0  0  0
    4.3324    0.5998   -0.6278 H   0  0  0  0  0  0  0  0  0  0  0  0
    2.2547    0.0230   -0.7484 C   0  0  0  0  0  0  0  0  0  0  0  0
    1.9092    1.0199   -0.9896 H   0  0  0  0  0  0  0  0  0  0  0  0
   -1.2168    1.1047    0.4313 C   0  0  0  0  0  0  0  0  0  0  0  0
   -2.0890    1.6186   -0.2704 O   0  0  0  0  0  0  0  0  0  0  0  0
   -0.4674    1.8182    1.2813 N   0  0  0  0  0  0  0  0  0  0  0  0
    0.2640    1.3348    1.7800 H   0  0  0  0  0  0  0  0  0  0  0  0
   -0.5889    3.2615    1.4722 C   0  0  0  0  0  0  0  0  0  0  0  0
   -1.6291    3.5206    1.6805 H   0  0  0  0  0  0  0  0  0  0  0  0
    0.0359    3.5855    2.3049 H   0  0  0  0  0  0  0  0  0  0  0  0
   -0.2760    3.7797    0.5637 H   0  0  0  0  0  0  0  0  0  0  0  0
  5  6  2  0  0  0  0
  5  7  1  0  0  0  0
  2  3  1  0  0  0  0
  2  4  1  0  0  0  0
  2  5  1  0  0  0  0
  1  2  1  0  0  0  0
 25 26  2  0  0  0  0
 25 27  1  0  0  0  0
 23 24  1  0  0  0  0
 21 22  1  0  0  0  0
 21 23  2  0  0  0  0
 19 20  1  0  0  0  0
 19 21  1  0  0  0  0
 17 18  1  0  0  0  0
 17 19  2  0  0  0  0
 15 16  1  0  0  0  0
 15 17  1  0  0  0  0
 14 15  2  0  0  0  0
 14 23  1  0  0  0  0
 11 12  1  0  0  0  0
 11 13  1  0  0  0  0
 11 14  1  0  0  0  0
  9 10  1  0  0  0  0
  9 11  1  0  0  0  0
  9 25  1  0  0  0  0
  7  8  1  0  0  0  0
  7  9  1  0  0  0  0
 29 30  1  0  0  0  0
 29 31  1  0  0  0  0
 29 32  1  0  0  0  0
 27 28  1  0  0  0  0
 27 29  1  0  0  0  0
M  END
$$$$
default_name
  -OEChem-02102213163D

 32 32  0     1  0  0  0  0  0999 V2000
   -3.8405   -3.7518    1.6252 H   0  0  0  0  0  0  0  0  0  0  0  0
   -3.7965   -2.8768    0.9782 C   0  0  0  0  0  0  0  0  0  0  0  0
   -4.5465   -2.1527    1.2902 H   0  0  0  0  0  0  0  0  0  0  0  0
   -3.9745   -3.1748   -0.0538 H   0  0  0  0  0  0  0  0  0  0  0  0
   -2.4245   -2.2537    1.0882 C   0  0  0  0  0  0  0  0  0  0  0  0
   -1.5805   -2.7478    1.8242 O   0  0  0  0  0  0  0  0  0  0  0  0
   -2.2045   -1.1637    0.3562 N   0  0  0  0  0  0  0  0  0  0  0  0
   -2.9595   -0.7907   -0.2008 H   0  0  0  0  0  0  0  0  0  0  0  0
   -0.9485   -0.4087    0.3482 C   0  0  1  0  0  0  0  0  0  0  0  0
   -0.3666   -0.6914    1.2269 H   0  0  0  0  0  0  0  0  0  0  0  0
   -0.1405   -0.7797   -0.9072 C   0  0  0  0  0  0  0  0  0  0  0  0
   -0.5646   -1.6827   -1.3485 H   0  0  0  0  0  0  0  0  0  0  0  0
   -0.2398    0.0213   -1.6412 H   0  0  0  0  0  0  0  0  0  0  0  0
    1.3307   -1.0337   -0.6392 C   0  0  0  0  0  0  0  0  0  0  0  0
    1.8379   -2.3470   -0.6311 C   0  0  0  0  0  0  0  0  0  0  0  0
    1.1756   -3.1855   -0.7937 H   0  0  0  0  0  0  0  0  0  0  0  0
    3.2111   -2.5720   -0.4228 C   0  0  0  0  0  0  0  0  0  0  0  0
    3.5981   -3.5813   -0.4144 H   0  0  0  0  0  0  0  0  0  0  0  0
    4.0795   -1.4852   -0.2242 C   0  0  0  0  0  0  0  0  0  0  0  0
    5.1342   -1.6582   -0.0618 H   0  0  0  0  0  0  0  0  0  0  0  0
    3.5757   -0.1717   -0.2302 C   0  0  0  0  0  0  0  0  0  0  0  0
    4.2422    0.6635   -0.0721 H   0  0  0  0  0  0  0  0  0  0  0  0
    2.2028    0.0527   -0.4351 C   0  0  0  0  0  0  0  0  0  0  0  0
    1.8159    1.0634   -0.4362 H   0  0  0  0  0  0  0  0  0  0  0  0
   -1.2168    1.1047    0.4313 C   0  0  0  0  0  0  0  0  0  0  0  0
   -2.0890    1.6186   -0.2704 O   0  0  0  0  0  0  0  0  0  0  0  0
   -0.4674    1.8182    1.2813 N   0  0  0  0  0  0  0  0  0  0  0  0
    0.2640    1.3348    1.7800 H   0  0  0  0  0  0  0  0  0  0  0  0
   -0.5889    3.2615    1.4722 C   0  0  0  0  0  0  0  0  0  0  0  0
   -1.6291    3.5206    1.6805 H   0  0  0  0  0  0  0  0  0  0  0  0
    0.0359    3.5855    2.3049 H   0  0  0  0  0  0  0  0  0  0  0  0
   -0.2760    3.7797    0.5637 H   0  0  0  0  0  0  0  0  0  0  0  0
  5  6  2  0  0  0  0
  5  7  1  0  0  0  0
  2  3  1  0  0  0  0
  2  4  1  0  0  0  0
  2  5  1  0  0  0  0
  1  2  1  0  0  0  0
 25 26  2  0  0  0  0
 25 27  1  0  0  0  0
 23 24  1  0  0  0  0
 21 22  1  0  0  0  0
 21 23  2  0  0  0  0
 19 20  1  0  0  0  0
 19 21  1  0  0  0  0
 17 18  1  0  0  0  0
 17 19  2  0  0  0  0
 15 16  1  0  0  0  0
 15 17  1  0  0  0  0
 14 15  2  0  0  0  0
 14 23  1  0  0  0  0
 11 12  1  0  0  0  0
 11 13  1  0  0  0  0
 11 14  1  0  0  0  0
  9 10  1  0  0  0  0
  9 11  1  0  0  0  0
  9 25  1  0  0  0  0
  7  8  1  0  0  0  0
  7  9  1  0  0  0  0
 29 30  1  0  0  0  0
 29 31  1  0  0  0  0
 29 32  1  0  0  0  0
 27 28  1  0  0  0  0
 27 29  1  0  0  0  0
M  END
$$$$
default_name
  -OEChem-02102213163D

 32 32  0     1  0  0  0  0  0999 V2000
   -3.8405   -3.7518    1.6252 H   0  0  0  0  0  0  0  0  0  0  0  0
   -3.7965   -2.8768    0.9782 C   0  0  0  0  0  0  0  0  0  0  0  0
   -4.5465   -2.1527    1.2902 H   0  0  0  0  0  0  0  0  0  0  0  0
   -3.9745   -3.1748   -0.0538 H   0  0  0  0  0  0  0  0  0  0  0  0
   -2.4245   -2.2537    1.0882 C   0  0  0  0  0  0  0  0  0  0  0  0
   -1.5805   -2.7478    1.8242 O   0  0  0  0  0  0  0  0  0  0  0  0
   -2.2045   -1.1637    0.3562 N   0  0  0  0  0  0  0  0  0  0  0  0
   -2.9595   -0.7907   -0.2008 H   0  0  0  0  0  0  0  0  0  0  0  0
   -0.9485   -0.4087    0.3482 C   0  0  1  0  0  0  0  0  0  0  0  0
   -0.3666   -0.6914    1.2269 H   0  0  0  0  0  0  0  0  0  0  0  0
   -0.1405   -0.7797   -0.9072 C   0  0  0  0  0  0  0  0  0  0  0  0
   -0.5646   -1.6827   -1.3485 H   0  0  0  0  0  0  0  0  0  0  0  0
   -0.2398    0.0213   -1.6412 H   0  0  0  0  0  0  0  0  0  0  0  0
    1.3307   -1.0337   -0.6392 C   0  0  0  0  0  0  0  0  0  0  0  0
    1.9039   -2.2851   -0.9348 C   0  0  0  0  0  0  0  0  0  0  0  0
    1.2920   -3.0816   -1.3343 H   0  0  0  0  0  0  0  0  0  0  0  0
    3.2781   -2.5000   -0.7221 C   0  0  0  0  0  0  0  0  0  0  0  0
    3.7157   -3.4625   -0.9473 H   0  0  0  0  0  0  0  0  0  0  0  0
    4.0815   -1.4643   -0.2156 C   0  0  0  0  0  0  0  0  0  0  0  0
    5.1369   -1.6302   -0.0499 H   0  0  0  0  0  0  0  0  0  0  0  0
    3.5117   -0.2131    0.0823 C   0  0  0  0  0  0  0  0  0  0  0  0
    4.1281    0.5813    0.4767 H   0  0  0  0  0  0  0  0  0  0  0  0
    2.1377    0.0003   -0.1273 C   0  0  0  0  0  0  0  0  0  0  0  0
    1.6998    0.9623    0.1053 H   0  0  0  0  0  0  0  0  0  0  0  0
   -1.2168    1.1047    0.4313 C   0  0  0  0  0  0  0  0  0  0  0  0
   -2.0890    1.6186   -0.2704 O   0  0  0  0  0  0  0  0  0  0  0  0
   -0.4674    1.8182    1.2813 N   0  0  0  0  0  0  0  0  0  0  0  0
    0.2640    1.3348    1.7800 H   0  0  0  0  0  0  0  0  0  0  0  0
   -0.5889    3.2615    1.4722 C   0  0  0  0  0  0  0  0  0  0  0  0
   -1.6291    3.5206    1.6805 H   0  0  0  0  0  0  0  0  0  0  0  0
    0.0359    3.5855    2.3049 H   0  0  0  0  0  0  0  0  0  0  0  0
   -0.2760    3.7797    0.5637 H   0  0  0  0  0  0  0  0  0  0  0  0
  5  6  2  0  0  0  0
  5  7  1  0  0  0  0
  2  3  1  0  0  0  0
  2  4  1  0  0  0  0
  2  5  1  0  0  0  0
  1  2  1  0  0  0  0
 25 26  2  0  0  0  0
 25 27  1  0  0  0  0
 23 24  1  0  0  0  0
 21 22  1  0  0  0  0
 21 23  2  0  0  0  0
 19 20  1  0  0  0  0
 19 21  1  0  0  0  0
 17 18  1  0  0  0  0
 17 19  2  0  0  0  0
 15 16  1  0  0  0  0
 15 17  1  0  0  0  0
 14 15  2  0  0  0  0
 14 23  1  0  0  0  0
 11 12  1  0  0  0  0
 11 13  1  0  0  0  0
 11 14  1  0  0  0  0
  9 10  1  0  0  0  0
  9 11  1  0  0  0  0
  9 25  1  0  0  0  0
  7  8  1  0  0  0  0
  7  9  1  0  0  0  0
 29 30  1  0  0  0  0
 29 31  1  0  0  0  0
 29 32  1  0  0  0  0
 27 28  1  0  0  0  0
 27 29  1  0  0  0  0
M  END
$$$$
default_name
  -OEChem-02102213163D

 32 32  0     1  0  0  0  0  0999 V2000
   -3.8405   -3.7518    1.6252 H   0  0  0  0  0  0  0  0  0  0  0  0
   -3.7965   -2.8768    0.9782 C   0  0  0  0  0  0  0  0  0  0  0  0
   -4.5465   -2.1527    1.2902 H   0  0  0  0  0  0  0  0  0  0  0  0
   -3.9745   -3.1748   -0.0538 H   0  0  0  0  0  0  0  0  0  0  0  0
   -2.4245   -2.2537    1.0882 C   0  0  0  0  0  0  0  0  0  0  0  0
   -1.5805   -2.7478    1.8242 O   0  0  0  0  0  0  0  0  0  0  0  0
   -2.2045   -1.1637    0.3562 N   0  0  0  0  0  0  0  0  0  0  0  0
   -2.9595   -0.7907   -0.2008 H   0  0  0  0  0  0  0  0  0  0  0  0
   -0.9485   -0.4087    0.3482 C   0  0  1  0  0  0  0  0  0  0  0  0
   -0.3666   -0.6914    1.2269 H   0  0  0  0  0  0  0  0  0  0  0  0
   -0.1405   -0.7797   -0.9072 C   0  0  0  0  0  0  0  0  0  0  0  0
   -0.5646   -1.6827   -1.3485 H   0  0  0  0  0  0  0  0  0  0  0  0
   -0.2398    0.0213   -1.6412 H   0  0  0  0  0  0  0  0  0  0  0  0
    1.3307   -1.0337   -0.6392 C   0  0  0  0  0  0  0  0  0  0  0  0
    1.9779   -2.1461   -1.2097 C   0  0  0  0  0  0  0  0  0  0  0  0
    1.4231   -2.8401   -1.8252 H   0  0  0  0  0  0  0  0  0  0  0  0
    3.3524   -2.3523   -0.9902 C   0  0  0  0  0  0  0  0  0  0  0  0
    3.8469   -3.2085   -1.4271 H   0  0  0  0  0  0  0  0  0  0  0  0
    4.0822   -1.4463   -0.2020 C   0  0  0  0  0  0  0  0  0  0  0  0
    5.1376   -1.6060   -0.0314 H   0  0  0  0  0  0  0  0  0  0  0  0
    3.4382   -0.3345    0.3709 C   0  0  0  0  0  0  0  0  0  0  0  0
    3.9978    0.3590    0.9812 H   0  0  0  0  0  0  0  0  0  0  0  0
    2.0639   -0.1305    0.1540 C   0  0  0  0  0  0  0  0  0  0  0  0
    1.5689    0.7234    0.5980 H   0  0  0  0  0  0  0  0  0  0  0  0
   -1.2168    1.1047    0.4313 C   0  0  0  0  0  0  0  0  0  0  0  0
   -2.0890    1.6186   -0.2704 O   0  0  0  0  0  0  0  0  0  0  0  0
   -0.4674    1.8182    1.2813 N   0  0  0  0  0  0  0  0  0  0  0  0
    0.2640    1.3348    1.7800 H   0  0  0  0  0  0  0  0  0  0  0  0
   -0.5889    3.2615    1.4722 C   0  0  0  0  0  0  0  0  0  0  0  0
   -1.6291    3.5206    1.6805 H   0  0  0  0  0  0  0  0  0  0  0  0
    0.0359    3.5855    2.3049 H   0  0  0  0  0  0  0  0  0  0  0  0
   -0.2760    3.7797    0.5637 H   0  0  0  0  0  0  0  0  0  0  0  0
  5  6  2  0  0  0  0
  5  7  1  0  0  0  0
  2  3  1  0  0  0  0
  2  4  1  0  0  0  0
  2  5  1  0  0  0  0
  1  2  1  0  0  0  0
 25 26  2  0  0  0  0
 25 27  1  0  0  0  0
 23 24  1  0  0  0  0
 21 22  1  0  0  0  0
 21 23  2  0  0  0  0
 19 20  1  0  0  0  0
 19 21  1  0  0  0  0
 17 18  1  0  0  0  0
 17 19  2  0  0  0  0
 15 16  1  0  0  0  0
 15 17  1  0  0  0  0
 14 15  2  0  0  0  0
 14 23  1  0  0  0  0
 11 12  1  0  0  0  0
 11 13  1  0  0  0  0
 11 14  1  0  0  0  0
  9 10  1  0  0  0  0
  9 11  1  0  0  0  0
  9 25  1  0  0  0  0
  7  8  1  0  0  0  0
  7  9  1  0  0  0  0
 29 30  1  0  0  0  0
 29 31  1  0  0  0  0
 29 32  1  0  0  0  0
 27 28  1  0  0  0  0
 27 29  1  0  0  0  0
M  END
$$$$
default_name
  -OEChem-02102213163D

 32 32  0     1  0  0  0  0  0999 V2000
   -3.8405   -3.7518    1.6252 H   0  0  0  0  0  0  0  0  0  0  0  0
   -3.7965   -2.8768    0.9782 C   0  0  0  0  0  0  0  0  0  0  0  0
   -4.5465   -2.1527    1.2902 H   0  0  0  0  0  0  0  0  0  0  0  0
   -3.9745   -3.1748   -0.0538 H   0  0  0  0  0  0  0  0  0  0  0  0
   -2.4245   -2.2537    1.0882 C   0  0  0  0  0  0  0  0  0  0  0  0
   -1.5805   -2.7478    1.8242 O   0  0  0  0  0  0  0  0  0  0  0  0
   -2.2045   -1.1637    0.3562 N   0  0  0  0  0  0  0  0  0  0  0  0
   -2.9595   -0.7907   -0.2008 H   0  0  0  0  0  0  0  0  0  0  0  0
   -0.9485   -0.4087    0.3482 C   0  0  1  0  0  0  0  0  0  0  0  0
   -0.3666   -0.6914    1.2269 H   0  0  0  0  0  0  0  0  0  0  0  0
   -0.1405   -0.7797   -0.9072 C   0  0  0  0  0  0  0  0  0  0  0  0
   -0.5646   -1.6827   -1.3485 H   0  0  0  0  0  0  0  0  0  0  0  0
   -0.2398    0.0213   -1.6412 H   0  0  0  0  0  0  0  0  0  0  0  0
    1.3307   -1.0337   -0.6392 C   0  0  0  0  0  0  0  0  0  0  0  0
    2.0551   -1.9395   -1.4372 C   0  0  0  0  0  0  0  0  0  0  0  0
    1.5600   -2.4776   -2.2332 H   0  0  0  0  0  0  0  0  0  0  0  0
    3.4291   -2.1389   -1.2088 C   0  0  0  0  0  0  0  0  0  0  0  0
    3.9828   -2.8368   -1.8211 H   0  0  0  0  0  0  0  0  0  0  0  0
    4.0814   -1.4323   -0.1842 C   0  0  0  0  0  0  0  0  0  0  0  0
    5.1365   -1.5873   -0.0073 H   0  0  0  0  0  0  0  0  0  0  0  0
    3.3602   -0.5275    0.6160 C   0  0  0  0  0  0  0  0  0  0  0  0
    3.8603    0.0117    1.4071 H   0  0  0  0  0  0  0  0  0  0  0  0
    1.9863   -0.3309    0.3897 C   0  0  0  0  0  0  0  0  0  0  0  0
    1.4319    0.3629    1.0082 H   0  0  0  0  0  0  0  0  0  0  0  0
   -1.2168    1.1047    0.4313 C   0  0  0  0  0  0  0  0  0  0  0  0
   -2.0890    1.6186   -0.2704 O   0  0  0  0  0  0  0  0  0  0  0  0
   -0.4674    1.8182    1.2813 N   0  0  0  0  0  0  0  0  0  0  0  0
    0.2640    1.3348    1.7800 H   0  0  0  0  0  0  0  0  0  0  0  0
   -0.5889    3.2615    1.4722 C   0  0  0  0  0  0  0  0  0  0  0  0
   -1.6291    3.5206    1.6805 H   0  0  0  0  0  0  0  0  0  0  0  0
    0.0359    3.5855    2.3049 H   0  0  0  0  0  0  0  0  0  0  0  0
   -0.2760    3.7797    0.5637 H   0  0  0  0  0  0  0  0  0  0  0  0
  5  6  2  0  0  0  0
  5  7  1  0  0  0  0
  2  3  1  0  0  0  0
  2  4  1  0  0  0  0
  2  5  1  0  0  0  0
  1  2  1  0  0  0  0
 25 26  2  0  0  0  0
 25 27  1  0  0  0  0
 23 24  1  0  0  0  0
 21 22  1  0  0  0  0
 21 23  2  0  0  0  0
 19 20  1  0  0  0  0
 19 21  1  0  0  0  0
 17 18  1  0  0  0  0
 17 19  2  0  0  0  0
 15 16  1  0  0  0  0
 15 17  1  0  0  0  0
 14 15  2  0  0  0  0
 14 23  1  0  0  0  0
 11 12  1  0  0  0  0
 11 13  1  0  0  0  0
 11 14  1  0  0  0  0
  9 10  1  0  0  0  0
  9 11  1  0  0  0  0
  9 25  1  0  0  0  0
  7  8  1  0  0  0  0
  7  9  1  0  0  0  0
 29 30  1  0  0  0  0
 29 31  1  0  0  0  0
 29 32  1  0  0  0  0
 27 28  1  0  0  0  0
 27 29  1  0  0  0  0
M  END
$$$$
default_name
  -OEChem-02102213163D

 32 32  0     1  0  0  0  0  0999 V2000
   -3.8405   -3.7518    1.6252 H   0  0  0  0  0  0  0  0  0  0  0  0
   -3.7965   -2.8768    0.9782 C   0  0  0  0  0  0  0  0  0  0  0  0
   -4.5465   -2.1527    1.2902 H   0  0  0  0  0  0  0  0  0  0  0  0
   -3.9745   -3.1748   -0.0538 H   0  0  0  0  0  0  0  0  0  0  0  0
   -2.4245   -2.2537    1.0882 C   0  0  0  0  0  0  0  0  0  0  0  0
   -1.5805   -2.7478    1.8242 O   0  0  0  0  0  0  0  0  0  0  0  0
   -2.2045   -1.1637    0.3562 N   0  0  0  0  0  0  0  0  0  0  0  0
   -2.9595   -0.7907   -0.2008 H   0  0  0  0  0  0  0  0  0  0  0  0
   -0.9485   -0.4087    0.3482 C   0  0  1  0  0  0  0  0  0  0  0  0
   -0.3666   -0.6914    1.2269 H   0  0  0  0  0  0  0  0  0  0  0  0
   -0.1405   -0.7797   -0.9072 C   0  0  0  0  0  0  0  0  0  0  0  0
   -0.5646   -1.6827   -1.3485 H   0  0  0  0  0  0  0  0  0  0  0  0
   -0.2398    0.0213   -1.6412 H   0  0  0  0  0  0  0  0  0  0  0  0
    1.3307   -1.0337   -0.6392 C   0  0  0  0  0  0  0  0  0  0  0  0
    2.1299   -1.6792   -1.6017 C   0  0  0  0  0  0  0  0  0  0  0  0
    1.6933   -2.0188   -2.5303 H   0  0  0  0  0  0  0  0  0  0  0  0
    3.5029   -1.8744   -1.3632 C   0  0  0  0  0  0  0  0  0  0  0  0
    4.1142   -2.3726   -2.1025 H   0  0  0  0  0  0  0  0  0  0  0  0
    4.0792   -1.4232   -0.1636 C   0  0  0  0  0  0  0  0  0  0  0  0
    5.1335   -1.5753    0.0206 H   0  0  0  0  0  0  0  0  0  0  0  0
    3.2831   -0.7791    0.8009 C   0  0  0  0  0  0  0  0  0  0  0  0
    3.7248   -0.4371    1.7253 H   0  0  0  0  0  0  0  0  0  0  0  0
    1.9104   -0.5871    0.5637 C   0  0  0  0  0  0  0  0  0  0  0  0
    1.2984   -0.0945    1.3080 H   0  0  0  0  0  0  0  0  0  0  0  0
   -1.2168    1.1047    0.4313 C   0  0  0  0  0  0  0  0  0  0  0  0
   -2.0890    1.6186   -0.2704 O   0  0  0  0  0  0  0  0  0  0  0  0
   -0.4674    1.8182    1.2813 N   0  0  0  0  0  0  0  0  0  0  0  0
    0.2640    1.3348    1.7800 H   0  0  0  0  0  0  0  0  0  0  0  0
   -0.5889    3.2615    1.4722 C   0  0  0  0  0  0  0  0  0  0  0  0
   -1.6291    3.5206    1.6805 H   0  0  0  0  0  0  0  0  0  0  0  0
    0.0359    3.5855    2.3049 H   0  0  0  0  0  0  0  0  0  0  0  0
   -0.2760    3.7797    0.5637 H   0  0  0  0  0  0  0  0  0  0  0  0
  5  6  2  0  0  0  0
  5  7  1  0  0  0  0
  2  3  1  0  0  0  0
  2  4  1  0  0  0  0
  2  5  1  0  0  0  0
  1  2  1  0  0  0  0
 25 26  2  0  0  0  0
 25 27  1  0  0  0  0
 23 24  1  0  0  0  0
 21 22  1  0  0  0  0
 21 23  2  0  0  0  0
 19 20  1  0  0  0  0
 19 21  1  0  0  0  0
 17 18  1  0  0  0  0
 17 19  2  0  0  0  0
 15 16  1  0  0  0  0
 15 17  1  0  0  0  0
 14 15  2  0  0  0  0
 14 23  1  0  0  0  0
 11 12  1  0  0  0  0
 11 13  1  0  0  0  0
 11 14  1  0  0  0  0
  9 10  1  0  0  0  0
  9 11  1  0  0  0  0
  9 25  1  0  0  0  0
  7  8  1  0  0  0  0
  7  9  1  0  0  0  0
 29 30  1  0  0  0  0
 29 31  1  0  0  0  0
 29 32  1  0  0  0  0
 27 28  1  0  0  0  0
 27 29  1  0  0  0  0
M  END
$$$$
default_name
  -OEChem-02102213163D

 32 32  0     1  0  0  0  0  0999 V2000
   -3.8405   -3.7518    1.6252 H   0  0  0  0  0  0  0  0  0  0  0  0
   -3.7965   -2.8768    0.9782 C   0  0  0  0  0  0  0  0  0  0  0  0
   -4.5465   -2.1527    1.2902 H   0  0  0  0  0  0  0  0  0  0  0  0
   -3.9745   -3.1748   -0.0538 H   0  0  0  0  0  0  0  0  0  0  0  0
   -2.4245   -2.2537    1.0882 C   0  0  0  0  0  0  0  0  0  0  0  0
   -1.5805   -2.7478    1.8242 O   0  0  0  0  0  0  0  0  0  0  0  0
   -2.2045   -1.1637    0.3562 N   0  0  0  0  0  0  0  0  0  0  0  0
   -2.9595   -0.7907   -0.2008 H   0  0  0  0  0  0  0  0  0  0  0  0
   -0.9485   -0.4087    0.3482 C   0  0  1  0  0  0  0  0  0  0  0  0
   -0.3666   -0.6914    1.2269 H   0  0  0  0  0  0  0  0  0  0  0  0
   -0.1405   -0.7797   -0.9072 C   0  0  0  0  0  0  0  0  0  0  0  0
   -0.7070   -1.5053   -1.4926 H   0  0  0  0  0  0  0  0  0  0  0  0
   -0.0150    0.1119   -1.5233 H   0  0  0  0  0  0  0  0  0  0  0  0
    1.2212   -1.3773   -0.6081 C   0  0  0  0  0  0  0  0  0  0  0  0
    2.0754   -1.7663   -1.6574 C   0  0  0  0  0  0  0  0  0  0  0  0
    1.7556   -1.6621   -2.6846 H   0  0  0  0  0  0  0  0  0  0  0  0
    3.3535   -2.2815   -1.3729 C   0  0  0  0  0  0  0  0  0  0  0  0
    4.0068   -2.5820   -2.1800 H   0  0  0  0  0  0  0  0  0  0  0  0
    3.7804   -2.4068   -0.0400 C   0  0  0  0  0  0  0  0  0  0  0  0
    4.7614   -2.8049    0.1786 H   0  0  0  0  0  0  0  0  0  0  0  0
    2.9287   -2.0205    1.0109 C   0  0  0  0  0  0  0  0  0  0  0  0
    3.2545   -2.1219    2.0357 H   0  0  0  0  0  0  0  0  0  0  0  0
    1.6502   -1.5087    0.7264 C   0  0  0  0  0  0  0  0  0  0  0  0
    0.9947   -1.2150    1.5359 H   0  0  0  0  0  0  0  0  0  0  0  0
   -1.2168    1.1047    0.4313 C   0  0  0  0  0  0  0  0  0  0  0  0
   -2.0890    1.6186   -0.2704 O   0  0  0  0  0  0  0  0  0  0  0  0
   -0.4674    1.8182    1.2813 N   0  0  0  0  0  0  0  0  0  0  0  0
    0.2640    1.3348    1.7800 H   0  0  0  0  0  0  0  0  0  0  0  0
   -0.5889    3.2615    1.4722 C   0  0  0  0  0  0  0  0  0  0  0  0
   -1.6291    3.5206    1.6805 H   0  0  0  0  0  0  0  0  0  0  0  0
    0.0359    3.5855    2.3049 H   0  0  0  0  0  0  0  0  0  0  0  0
   -0.2760    3.7797    0.5637 H   0  0  0  0  0  0  0  0  0  0  0  0
  5  6  2  0  0  0  0
  5  7  1  0  0  0  0
  2  3  1  0  0  0  0
  2  4  1  0  0  0  0
  2  5  1  0  0  0  0
  1  2  1  0  0  0  0
 25 26  2  0  0  0  0
 25 27  1  0  0  0  0
 23 24  1  0  0  0  0
 21 22  1  0  0  0  0
 21 23  2  0  0  0  0
 19 20  1  0  0  0  0
 19 21  1  0  0  0  0
 17 18  1  0  0  0  0
 17 19  2  0  0  0  0
 15 16  1  0  0  0  0
 15 17  1  0  0  0  0
 14 15  2  0  0  0  0
 14 23  1  0  0  0  0
 11 12  1  0  0  0  0
 11 13  1  0  0  0  0
 11 14  1  0  0  0  0
  9 10  1  0  0  0  0
  9 11  1  0  0  0  0
  9 25  1  0  0  0  0
  7  8  1  0  0  0  0
  7  9  1  0  0  0  0
 29 30  1  0  0  0  0
 29 31  1  0  0  0  0
 29 32  1  0  0  0  0
 27 28  1  0  0  0  0
 27 29  1  0  0  0  0
M  END
$$$$
default_name
  -OEChem-02102213163D

 32 32  0     1  0  0  0  0  0999 V2000
   -3.8405   -3.7518    1.6252 H   0  0  0  0  0  0  0  0  0  0  0  0
   -3.7965   -2.8768    0.9782 C   0  0  0  0  0  0  0  0  0  0  0  0
   -4.5465   -2.1527    1.2902 H   0  0  0  0  0  0  0  0  0  0  0  0
   -3.9745   -3.1748   -0.0538 H   0  0  0  0  0  0  0  0  0  0  0  0
   -2.4245   -2.2537    1.0882 C   0  0  0  0  0  0  0  0  0  0  0  0
   -1.5805   -2.7478    1.8242 O   0  0  0  0  0  0  0  0  0  0  0  0
   -2.2045   -1.1637    0.3562 N   0  0  0  0  0  0  0  0  0  0  0  0
   -2.9595   -0.7907   -0.2008 H   0  0  0  0  0  0  0  0  0  0  0  0
   -0.9485   -0.4087    0.3482 C   0  0  1  0  0  0  0  0  0  0  0  0
   -0.3666   -0.6914    1.2269 H   0  0  0  0  0  0  0  0  0  0  0  0
   -0.1405   -0.7797   -0.9072 C   0  0  0  0  0  0  0  0  0  0  0  0
   -0.7070   -1.5053   -1.4926 H   0  0  0  0  0  0  0  0  0  0  0  0
   -0.0150    0.1119   -1.5233 H   0  0  0  0  0  0  0  0  0  0  0  0
    1.2212   -1.3773   -0.6081 C   0  0  0  0  0  0  0  0  0  0  0  0
    2.1950   -1.4752   -1.6201 C   0  0  0  0  0  0  0  0  0  0  0  0
    1.9692   -1.1451   -2.6243 H   0  0  0  0  0  0  0  0  0  0  0  0
    3.4698   -1.9926   -1.3253 C   0  0  0  0  0  0  0  0  0  0  0  0
    4.2152   -2.0693   -2.1044 H   0  0  0  0  0  0  0  0  0  0  0  0
    3.7739   -2.4110   -0.0187 C   0  0  0  0  0  0  0  0  0  0  0  0
    4.7525   -2.8107    0.2072 H   0  0  0  0  0  0  0  0  0  0  0  0
    2.8026   -2.3159    0.9945 C   0  0  0  0  0  0  0  0  0  0  0  0
    3.0344   -2.6425    1.9977 H   0  0  0  0  0  0  0  0  0  0  0  0
    1.5276   -1.8018    0.6988 C   0  0  0  0  0  0  0  0  0  0  0  0
    0.7802   -1.7323    1.4785 H   0  0  0  0  0  0  0  0  0  0  0  0
   -1.2168    1.1047    0.4313 C   0  0  0  0  0  0  0  0  0  0  0  0
   -2.0890    1.6186   -0.2704 O   0  0  0  0  0  0  0  0  0  0  0  0
   -0.4674    1.8182    1.2813 N   0  0  0  0  0  0  0  0  0  0  0  0
    0.2640    1.3348    1.7800 H   0  0  0  0  0  0  0  0  0  0  0  0
   -0.5889    3.2615    1.4722 C   0  0  0  0  0  0  0  0  0  0  0  0
   -1.6291    3.5206    1.6805 H   0  0  0  0  0  0  0  0  0  0  0  0
    0.0359    3.5855    2.3049 H   0  0  0  0  0  0  0  0  0  0  0  0
   -0.2760    3.7797    0.5637 H   0  0  0  0  0  0  0  0  0  0  0  0
  5  6  2  0  0  0  0
  5  7  1  0  0  0  0
  2  3  1  0  0  0  0
  2  4  1  0  0  0  0
  2  5  1  0  0  0  0
  1  2  1  0  0  0  0
 25 26  2  0  0  0  0
 25 27  1  0  0  0  0
 23 24  1  0  0  0  0
 21 22  1  0  0  0  0
 21 23  2  0  0  0  0
 19 20  1  0  0  0  0
 19 21  1  0  0  0  0
 17 18  1  0  0  0  0
 17 19  2  0  0  0  0
 15 16  1  0  0  0  0
 15 17  1  0  0  0  0
 14 15  2  0  0  0  0
 14 23  1  0  0  0  0
 11 12  1  0  0  0  0
 11 13  1  0  0  0  0
 11 14  1  0  0  0  0
  9 10  1  0  0  0  0
  9 11  1  0  0  0  0
  9 25  1  0  0  0  0
  7  8  1  0  0  0  0
  7  9  1  0  0  0  0
 29 30  1  0  0  0  0
 29 31  1  0  0  0  0
 29 32  1  0  0  0  0
 27 28  1  0  0  0  0
 27 29  1  0  0  0  0
M  END
$$$$
default_name
  -OEChem-02102213163D

 32 32  0     1  0  0  0  0  0999 V2000
   -3.8405   -3.7518    1.6252 H   0  0  0  0  0  0  0  0  0  0  0  0
   -3.7965   -2.8768    0.9782 C   0  0  0  0  0  0  0  0  0  0  0  0
   -4.5465   -2.1527    1.2902 H   0  0  0  0  0  0  0  0  0  0  0  0
   -3.9745   -3.1748   -0.0538 H   0  0  0  0  0  0  0  0  0  0  0  0
   -2.4245   -2.2537    1.0882 C   0  0  0  0  0  0  0  0  0  0  0  0
   -1.5805   -2.7478    1.8242 O   0  0  0  0  0  0  0  0  0  0  0  0
   -2.2045   -1.1637    0.3562 N   0  0  0  0  0  0  0  0  0  0  0  0
   -2.9595   -0.7907   -0.2008 H   0  0  0  0  0  0  0  0  0  0  0  0
   -0.9485   -0.4087    0.3482 C   0  0  1  0  0  0  0  0  0  0  0  0
   -0.3666   -0.6914    1.2269 H   0  0  0  0  0  0  0  0  0  0  0  0
   -0.1405   -0.7797   -0.9072 C   0  0  0  0  0  0  0  0  0  0  0  0
   -0.7070   -1.5053   -1.4926 H   0  0  0  0  0  0  0  0  0  0  0  0
   -0.0150    0.1119   -1.5233 H   0  0  0  0  0  0  0  0  0  0  0  0
    1.2212   -1.3773   -0.6081 C   0  0  0  0  0  0  0  0  0  0  0  0
    2.2918   -1.1966   -1.5043 C   0  0  0  0  0  0  0  0  0  0  0  0
    2.1431   -0.6488   -2.4242 H   0  0  0  0  0  0  0  0  0  0  0  0
    3.5626   -1.7188   -1.2003 C   0  0  0  0  0  0  0  0  0  0  0  0
    4.3826   -1.5811   -1.8911 H   0  0  0  0  0  0  0  0  0  0  0  0
    3.7656   -2.4203    0.0002 C   0  0  0  0  0  0  0  0  0  0  0  0
    4.7414   -2.8234    0.2326 H   0  0  0  0  0  0  0  0  0  0  0  0
    2.6976   -2.6039    0.8972 C   0  0  0  0  0  0  0  0  0  0  0  0
    2.8522   -3.1478    1.8175 H   0  0  0  0  0  0  0  0  0  0  0  0
    1.4270   -2.0848    0.5916 C   0  0  0  0  0  0  0  0  0  0  0  0
    0.6054   -2.2296    1.2810 H   0  0  0  0  0  0  0  0  0  0  0  0
   -1.2168    1.1047    0.4313 C   0  0  0  0  0  0  0  0  0  0  0  0
   -2.0890    1.6186   -0.2704 O   0  0  0  0  0  0  0  0  0  0  0  0
   -0.4674    1.8182    1.2813 N   0  0  0  0  0  0  0  0  0  0  0  0
    0.2640    1.3348    1.7800 H   0  0  0  0  0  0  0  0  0  0  0  0
   -0.5889    3.2615    1.4722 C   0  0  0  0  0  0  0  0  0  0  0  0
   -1.6291    3.5206    1.6805 H   0  0  0  0  0  0  0  0  0  0  0  0
    0.0359    3.5855    2.3049 H   0  0  0  0  0  0  0  0  0  0  0  0
   -0.2760    3.7797    0.5637 H   0  0  0  0  0  0  0  0  0  0  0  0
  5  6  2  0  0  0  0
  5  7  1  0  0  0  0
  2  3  1  0  0  0  0
  2  4  1  0  0  0  0
  2  5  1  0  0  0  0
  1  2  1  0  0  0  0
 25 26  2  0  0  0  0
 25 27  1  0  0  0  0
 23 24  1  0  0  0  0
 21 22  1  0  0  0  0
 21 23  2  0  0  0  0
 19 20  1  0  0  0  0
 19 21  1  0  0  0  0
 17 18  1  0  0  0  0
 17 19  2  0  0  0  0
 15 16  1  0  0  0  0
 15 17  1  0  0  0  0
 14 15  2  0  0  0  0
 14 23  1  0  0  0  0
 11 12  1  0  0  0  0
 11 13  1  0  0  0  0
 11 14  1  0  0  0  0
  9 10  1  0  0  0  0
  9 11  1  0  0  0  0
  9 25  1  0  0  0  0
  7  8  1  0  0  0  0
  7  9  1  0  0  0  0
 29 30  1  0  0  0  0
 29 31  1  0  0  0  0
 29 32  1  0  0  0  0
 27 28  1  0  0  0  0
 27 29  1  0  0  0  0
M  END
$$$$
default_name
  -OEChem-02102213163D

 32 32  0     1  0  0  0  0  0999 V2000
   -3.8405   -3.7518    1.6252 H   0  0  0  0  0  0  0  0  0  0  0  0
   -3.7965   -2.8768    0.9782 C   0  0  0  0  0  0  0  0  0  0  0  0
   -4.5465   -2.1527    1.2902 H   0  0  0  0  0  0  0  0  0  0  0  0
   -3.9745   -3.1748   -0.0538 H   0  0  0  0  0  0  0  0  0  0  0  0
   -2.4245   -2.2537    1.0882 C   0  0  0  0  0  0  0  0  0  0  0  0
   -1.5805   -2.7478    1.8242 O   0  0  0  0  0  0  0  0  0  0  0  0
   -2.2045   -1.1637    0.3562 N   0  0  0  0  0  0  0  0  0  0  0  0
   -2.9595   -0.7907   -0.2008 H   0  0  0  0  0  0  0  0  0  0  0  0
   -0.9485   -0.4087    0.3482 C   0  0  1  0  0  0  0  0  0  0  0  0
   -0.3666   -0.6914    1.2269 H   0  0  0  0  0  0  0  0  0  0  0  0
   -0.1405   -0.7797   -0.9072 C   0  0  0  0  0  0  0  0  0  0  0  0
   -0.7070   -1.5053   -1.4926 H   0  0  0  0  0  0  0  0  0  0  0  0
   -0.0150    0.1119   -1.5233 H   0  0  0  0  0  0  0  0  0  0  0  0
    1.2212   -1.3773   -0.6081 C   0  0  0  0  0  0  0  0  0  0  0  0
    2.3593   -0.9495   -1.3179 C   0  0  0  0  0  0  0  0  0  0  0  0
    2.2652   -0.2071   -2.0978 H   0  0  0  0  0  0  0  0  0  0  0  0
    3.6254   -1.4785   -1.0065 C   0  0  0  0  0  0  0  0  0  0  0  0
    4.4976   -1.1506   -1.5545 H   0  0  0  0  0  0  0  0  0  0  0  0
    3.7562   -2.4341    0.0155 C   0  0  0  0  0  0  0  0  0  0  0  0
    4.7287   -2.8422    0.2530 H   0  0  0  0  0  0  0  0  0  0  0  0
    2.6208   -2.8648    0.7256 C   0  0  0  0  0  0  0  0  0  0  0  0
    2.7204   -3.6033    1.5075 H   0  0  0  0  0  0  0  0  0  0  0  0
    1.3552   -2.3384    0.4120 C   0  0  0  0  0  0  0  0  0  0  0  0
    0.4820   -2.6730    0.9568 H   0  0  0  0  0  0  0  0  0  0  0  0
   -1.2168    1.1047    0.4313 C   0  0  0  0  0  0  0  0  0  0  0  0
   -2.0890    1.6186   -0.2704 O   0  0  0  0  0  0  0  0  0  0  0  0
   -0.4674    1.8182    1.2813 N   0  0  0  0  0  0  0  0  0  0  0  0
    0.2640    1.3348    1.7800 H   0  0  0  0  0  0  0  0  0  0  0  0
   -0.5889    3.2615    1.4722 C   0  0  0  0  0  0  0  0  0  0  0  0
   -1.6291    3.5206    1.6805 H   0  0  0  0  0  0  0  0  0  0  0  0
    0.0359    3.5855    2.3049 H   0  0  0  0  0  0  0  0  0  0  0  0
   -0.2760    3.7797    0.5637 H   0  0  0  0  0  0  0  0  0  0  0  0
  5  6  2  0  0  0  0
  5  7  1  0  0  0  0
  2  3  1  0  0  0  0
  2  4  1  0  0  0  0
  2  5  1  0  0  0  0
  1  2  1  0  0  0  0
 25 26  2  0  0  0  0
 25 27  1  0  0  0  0
 23 24  1  0  0  0  0
 21 22  1  0  0  0  0
 21 23  2  0  0  0  0
 19 20  1  0  0  0  0
 19 21  1  0  0  0  0
 17 18  1  0  0  0  0
 17 19  2  0  0  0  0
 15 16  1  0  0  0  0
 15 17  1  0  0  0  0
 14 15  2  0  0  0  0
 14 23  1  0  0  0  0
 11 12  1  0  0  0  0
 11 13  1  0  0  0  0
 11 14  1  0  0  0  0
  9 10  1  0  0  0  0
  9 11  1  0  0  0  0
  9 25  1  0  0  0  0
  7  8  1  0  0  0  0
  7  9  1  0  0  0  0
 29 30  1  0  0  0  0
 29 31  1  0  0  0  0
 29 32  1  0  0  0  0
 27 28  1  0  0  0  0
 27 29  1  0  0  0  0
M  END
$$$$
default_name
  -OEChem-02102213163D

 32 32  0     1  0  0  0  0  0999 V2000
   -3.8405   -3.7518    1.6252 H   0  0  0  0  0  0  0  0  0  0  0  0
   -3.7965   -2.8768    0.9782 C   0  0  0  0  0  0  0  0  0  0  0  0
   -4.5465   -2.1527    1.2902 H   0  0  0  0  0  0  0  0  0  0  0  0
   -3.9745   -3.1748   -0.0538 H   0  0  0  0  0  0  0  0  0  0  0  0
   -2.4245   -2.2537    1.0882 C   0  0  0  0  0  0  0  0  0  0  0  0
   -1.5805   -2.7478    1.8242 O   0  0  0  0  0  0  0  0  0  0  0  0
   -2.2045   -1.1637    0.3562 N   0  0  0  0  0  0  0  0  0  0  0  0
   -2.9595   -0.7907   -0.2008 H   0  0  0  0  0  0  0  0  0  0  0  0
   -0.9485   -0.4087    0.3482 C   0  0  1  0  0  0  0  0  0  0  0  0
   -0.3666   -0.6914    1.2269 H   0  0  0  0  0  0  0  0  0  0  0  0
   -0.1405   -0.7797   -0.9072 C   0  0  0  0  0  0  0  0  0  0  0  0
   -0.7070   -1.5053   -1.4926 H   0  0  0  0  0  0  0  0  0  0  0  0
   -0.0150    0.1119   -1.5233 H   0  0  0  0  0  0  0  0  0  0  0  0
    1.2212   -1.3773   -0.6081 C   0  0  0  0  0  0  0  0  0  0  0  0
    2.3929   -0.7507   -1.0735 C   0  0  0  0  0  0  0  0  0  0  0  0
    2.3274    0.1500   -1.6675 H   0  0  0  0  0  0  0  0  0  0  0  0
    3.6541   -1.2883   -0.7571 C   0  0  0  0  0  0  0  0  0  0  0  0
    4.5524   -0.8070   -1.1176 H   0  0  0  0  0  0  0  0  0  0  0  0
    3.7463   -2.4514    0.0261 C   0  0  0  0  0  0  0  0  0  0  0  0
    4.7152   -2.8657    0.2671 H   0  0  0  0  0  0  0  0  0  0  0  0
    2.5774   -3.0809    0.4914 C   0  0  0  0  0  0  0  0  0  0  0  0
    2.6479   -3.9780    1.0888 H   0  0  0  0  0  0  0  0  0  0  0  0
    1.3170   -2.5452    0.1723 C   0  0  0  0  0  0  0  0  0  0  0  0
    0.4184   -3.0323    0.5281 H   0  0  0  0  0  0  0  0  0  0  0  0
   -1.2168    1.1047    0.4313 C   0  0  0  0  0  0  0  0  0  0  0  0
   -2.0890    1.6186   -0.2704 O   0  0  0  0  0  0  0  0  0  0  0  0
   -0.4674    1.8182    1.2813 N   0  0  0  0  0  0  0  0  0  0  0  0
    0.2640    1.3348    1.7800 H   0  0  0  0  0  0  0  0  0  0  0  0
   -0.5889    3.2615    1.4722 C   0  0  0  0  0  0  0  0  0  0  0  0
   -1.6291    3.5206    1.6805 H   0  0  0  0  0  0  0  0  0  0  0  0
    0.0359    3.5855    2.3049 H   0  0  0  0  0  0  0  0  0  0  0  0
   -0.2760    3.7797    0.5637 H   0  0  0  0  0  0  0  0  0  0  0  0
  5  6  2  0  0  0  0
  5  7  1  0  0  0  0
  2  3  1  0  0  0  0
  2  4  1  0  0  0  0
  2  5  1  0  0  0  0
  1  2  1  0  0  0  0
 25 26  2  0  0  0  0
 25 27  1  0  0  0  0
 23 24  1  0  0  0  0
 21 22  1  0  0  0  0
 21 23  2  0  0  0  0
 19 20  1  0  0  0  0
 19 21  1  0  0  0  0
 17 18  1  0  0  0  0
 17 19  2  0  0  0  0
 15 16  1  0  0  0  0
 15 17  1  0  0  0  0
 14 15  2  0  0  0  0
 14 23  1  0  0  0  0
 11 12  1  0  0  0  0
 11 13  1  0  0  0  0
 11 14  1  0  0  0  0
  9 10  1  0  0  0  0
  9 11  1  0  0  0  0
  9 25  1  0  0  0  0
  7  8  1  0  0  0  0
  7  9  1  0  0  0  0
 29 30  1  0  0  0  0
 29 31  1  0  0  0  0
 29 32  1  0  0  0  0
 27 28  1  0  0  0  0
 27 29  1  0  0  0  0
M  END
$$$$
default_name
  -OEChem-02102213163D

 32 32  0     1  0  0  0  0  0999 V2000
   -3.8405   -3.7518    1.6252 H   0  0  0  0  0  0  0  0  0  0  0  0
   -3.7965   -2.8768    0.9782 C   0  0  0  0  0  0  0  0  0  0  0  0
   -4.5465   -2.1527    1.2902 H   0  0  0  0  0  0  0  0  0  0  0  0
   -3.9745   -3.1748   -0.0538 H   0  0  0  0  0  0  0  0  0  0  0  0
   -2.4245   -2.2537    1.0882 C   0  0  0  0  0  0  0  0  0  0  0  0
   -1.5805   -2.7478    1.8242 O   0  0  0  0  0  0  0  0  0  0  0  0
   -2.2045   -1.1637    0.3562 N   0  0  0  0  0  0  0  0  0  0  0  0
   -2.9595   -0.7907   -0.2008 H   0  0  0  0  0  0  0  0  0  0  0  0
   -0.9485   -0.4087    0.3482 C   0  0  1  0  0  0  0  0  0  0  0  0
   -0.3666   -0.6914    1.2269 H   0  0  0  0  0  0  0  0  0  0  0  0
   -0.1405   -0.7797   -0.9072 C   0  0  0  0  0  0  0  0  0  0  0  0
   -0.7070   -1.5053   -1.4926 H   0  0  0  0  0  0  0  0  0  0  0  0
   -0.0150    0.1119   -1.5233 H   0  0  0  0  0  0  0  0  0  0  0  0
    1.2212   -1.3773   -0.6081 C   0  0  0  0  0  0  0  0  0  0  0  0
    2.3902   -0.6137   -0.7878 C   0  0  0  0  0  0  0  0  0  0  0  0
    2.3254    0.3980   -1.1625 H   0  0  0  0  0  0  0  0  0  0  0  0
    3.6467   -1.1611   -0.4690 C   0  0  0  0  0  0  0  0  0  0  0  0
    4.5433   -0.5739   -0.6101 H   0  0  0  0  0  0  0  0  0  0  0  0
    3.7365   -2.4711    0.0312 C   0  0  0  0  0  0  0  0  0  0  0  0
    4.7020   -2.8924    0.2739 H   0  0  0  0  0  0  0  0  0  0  0  0
    2.5704   -3.2374    0.2105 C   0  0  0  0  0  0  0  0  0  0  0  0
    2.6397   -4.2463    0.5899 H   0  0  0  0  0  0  0  0  0  0  0  0
    1.3152   -2.6913   -0.1112 C   0  0  0  0  0  0  0  0  0  0  0  0
    0.4191   -3.2830    0.0240 H   0  0  0  0  0  0  0  0  0  0  0  0
   -1.2168    1.1047    0.4313 C   0  0  0  0  0  0  0  0  0  0  0  0
   -2.0890    1.6186   -0.2704 O   0  0  0  0  0  0  0  0  0  0  0  0
   -0.4674    1.8182    1.2813 N   0  0  0  0  0  0  0  0  0  0  0  0
    0.2640    1.3348    1.7800 H   0  0  0  0  0  0  0  0  0  0  0  0
   -0.5889    3.2615    1.4722 C   0  0  0  0  0  0  0  0  0  0  0  0
   -1.6291    3.5206    1.6805 H   0  0  0  0  0  0  0  0  0  0  0  0
    0.0359    3.5855    2.3049 H   0  0  0  0  0  0  0  0  0  0  0  0
   -0.2760    3.7797    0.5637 H   0  0  0  0  0  0  0  0  0  0  0  0
  5  6  2  0  0  0  0
  5  7  1  0  0  0  0
  2  3  1  0  0  0  0
  2  4  1  0  0  0  0
  2  5  1  0  0  0  0
  1  2  1  0  0  0  0
 25 26  2  0  0  0  0
 25 27  1  0  0  0  0
 23 24  1  0  0  0  0
 21 22  1  0  0  0  0
 21 23  2  0  0  0  0
 19 20  1  0  0  0  0
 19 21  1  0  0  0  0
 17 18  1  0  0  0  0
 17 19  2  0  0  0  0
 15 16  1  0  0  0  0
 15 17  1  0  0  0  0
 14 15  2  0  0  0  0
 14 23  1  0  0  0  0
 11 12  1  0  0  0  0
 11 13  1  0  0  0  0
 11 14  1  0  0  0  0
  9 10  1  0  0  0  0
  9 11  1  0  0  0  0
  9 25  1  0  0  0  0
  7  8  1  0  0  0  0
  7  9  1  0  0  0  0
 29 30  1  0  0  0  0
 29 31  1  0  0  0  0
 29 32  1  0  0  0  0
 27 28  1  0  0  0  0
 27 29  1  0  0  0  0
M  END
$$$$
default_name
  -OEChem-02102213163D

 32 32  0     1  0  0  0  0  0999 V2000
   -3.8405   -3.7518    1.6252 H   0  0  0  0  0  0  0  0  0  0  0  0
   -3.7965   -2.8768    0.9782 C   0  0  0  0  0  0  0  0  0  0  0  0
   -4.5465   -2.1527    1.2902 H   0  0  0  0  0  0  0  0  0  0  0  0
   -3.9745   -3.1748   -0.0538 H   0  0  0  0  0  0  0  0  0  0  0  0
   -2.4245   -2.2537    1.0882 C   0  0  0  0  0  0  0  0  0  0  0  0
   -1.5805   -2.7478    1.8242 O   0  0  0  0  0  0  0  0  0  0  0  0
   -2.2045   -1.1637    0.3562 N   0  0  0  0  0  0  0  0  0  0  0  0
   -2.9595   -0.7907   -0.2008 H   0  0  0  0  0  0  0  0  0  0  0  0
   -0.9485   -0.4087    0.3482 C   0  0  1  0  0  0  0  0  0  0  0  0
   -0.3666   -0.6914    1.2269 H   0  0  0  0  0  0  0  0  0  0  0  0
   -0.1405   -0.7797   -0.9072 C   0  0  0  0  0  0  0  0  0  0  0  0
   -0.7070   -1.5053   -1.4926 H   0  0  0  0  0  0  0  0  0  0  0  0
   -0.0150    0.1119   -1.5233 H   0  0  0  0  0  0  0  0  0  0  0  0
    1.2212   -1.3773   -0.6081 C   0  0  0  0  0  0  0  0  0  0  0  0
    2.3516   -0.5479   -0.4802 C   0  0  0  0  0  0  0  0  0  0  0  0
    2.2593    0.5202   -0.6173 H   0  0  0  0  0  0  0  0  0  0  0  0
    3.6037   -1.1054   -0.1620 C   0  0  0  0  0  0  0  0  0  0  0  0
    4.4709   -0.4671   -0.0668 H   0  0  0  0  0  0  0  0  0  0  0  0
    3.7275   -2.4919    0.0307 C   0  0  0  0  0  0  0  0  0  0  0  0
    4.6900   -2.9204    0.2729 H   0  0  0  0  0  0  0  0  0  0  0  0
    2.6003   -3.3236   -0.0979 C   0  0  0  0  0  0  0  0  0  0  0  0
    2.6964   -4.3900    0.0448 H   0  0  0  0  0  0  0  0  0  0  0  0
    1.3498   -2.7666   -0.4192 C   0  0  0  0  0  0  0  0  0  0  0  0
    0.4840   -3.4079   -0.5211 H   0  0  0  0  0  0  0  0  0  0  0  0
   -1.2168    1.1047    0.4313 C   0  0  0  0  0  0  0  0  0  0  0  0
   -2.0890    1.6186   -0.2704 O   0  0  0  0  0  0  0  0  0  0  0  0
   -0.4674    1.8182    1.2813 N   0  0  0  0  0  0  0  0  0  0  0  0
    0.2640    1.3348    1.7800 H   0  0  0  0  0  0  0  0  0  0  0  0
   -0.5889    3.2615    1.4722 C   0  0  0  0  0  0  0  0  0  0  0  0
   -1.6291    3.5206    1.6805 H   0  0  0  0  0  0  0  0  0  0  0  0
    0.0359    3.5855    2.3049 H   0  0  0  0  0  0  0  0  0  0  0  0
   -0.2760    3.7797    0.5637 H   0  0  0  0  0  0  0  0  0  0  0  0
  5  6  2  0  0  0  0
  5  7  1  0  0  0  0
  2  3  1  0  0  0  0
  2  4  1  0  0  0  0
  2  5  1  0  0  0  0
  1  2  1  0  0  0  0
 25 26  2  0  0  0  0
 25 27  1  0  0  0  0
 23 24  1  0  0  0  0
 21 22  1  0  0  0  0
 21 23  2  0  0  0  0
 19 20  1  0  0  0  0
 19 21  1  0  0  0  0
 17 18  1  0  0  0  0
 17 19  2  0  0  0  0
 15 16  1  0  0  0  0
 15 17  1  0  0  0  0
 14 15  2  0  0  0  0
 14 23  1  0  0  0  0
 11 12  1  0  0  0  0
 11 13  1  0  0  0  0
 11 14  1  0  0  0  0
  9 10  1  0  0  0  0
  9 11  1  0  0  0  0
  9 25  1  0  0  0  0
  7  8  1  0  0  0  0
  7  9  1  0  0  0  0
 29 30  1  0  0  0  0
 29 31  1  0  0  0  0
 29 32  1  0  0  0  0
 27 28  1  0  0  0  0
 27 29  1  0  0  0  0
M  END
$$$$
default_name
  -OEChem-02102213163D

 32 32  0     1  0  0  0  0  0999 V2000
   -3.8405   -3.7518    1.6252 H   0  0  0  0  0  0  0  0  0  0  0  0
   -3.7965   -2.8768    0.9782 C   0  0  0  0  0  0  0  0  0  0  0  0
   -4.5465   -2.1527    1.2902 H   0  0  0  0  0  0  0  0  0  0  0  0
   -3.9745   -3.1748   -0.0538 H   0  0  0  0  0  0  0  0  0  0  0  0
   -2.4245   -2.2537    1.0882 C   0  0  0  0  0  0  0  0  0  0  0  0
   -1.5805   -2.7478    1.8242 O   0  0  0  0  0  0  0  0  0  0  0  0
   -2.2045   -1.1637    0.3562 N   0  0  0  0  0  0  0  0  0  0  0  0
   -2.9595   -0.7907   -0.2008 H   0  0  0  0  0  0  0  0  0  0  0  0
   -0.9485   -0.4087    0.3482 C   0  0  1  0  0  0  0  0  0  0  0  0
   -0.3666   -0.6914    1.2269 H   0  0  0  0  0  0  0  0  0  0  0  0
   -0.1405   -0.7797   -0.9072 C   0  0  0  0  0  0  0  0  0  0  0  0
   -0.7070   -1.5053   -1.4926 H   0  0  0  0  0  0  0  0  0  0  0  0
   -0.0150    0.1119   -1.5233 H   0  0  0  0  0  0  0  0  0  0  0  0
    1.2212   -1.3773   -0.6081 C   0  0  0  0  0  0  0  0  0  0  0  0
    2.2795   -0.5578   -0.1718 C   0  0  0  0  0  0  0  0  0  0  0  0
    2.1337    0.5082   -0.0690 H   0  0  0  0  0  0  0  0  0  0  0  0
    3.5280   -1.1253    0.1431 C   0  0  0  0  0  0  0  0  0  0  0  0
    4.3400   -0.4939    0.4755 H   0  0  0  0  0  0  0  0  0  0  0  0
    3.7200   -2.5122    0.0244 C   0  0  0  0  0  0  0  0  0  0  0  0
    4.6799   -2.9479    0.2641 H   0  0  0  0  0  0  0  0  0  0  0  0
    2.6650   -3.3338   -0.4128 C   0  0  0  0  0  0  0  0  0  0  0  0
    2.8140   -4.3992   -0.5093 H   0  0  0  0  0  0  0  0  0  0  0  0
    1.4184   -2.7660   -0.7306 C   0  0  0  0  0  0  0  0  0  0  0  0
    0.6086   -3.3987   -1.0700 H   0  0  0  0  0  0  0  0  0  0  0  0
   -1.2168    1.1047    0.4313 C   0  0  0  0  0  0  0  0  0  0  0  0
   -2.0890    1.6186   -0.2704 O   0  0  0  0  0  0  0  0  0  0  0  0
   -0.4674    1.8182    1.2813 N   0  0  0  0  0  0  0  0  0  0  0  0
    0.2640    1.3348    1.7800 H   0  0  0  0  0  0  0  0  0  0  0  0
   -0.5889    3.2615    1.4722 C   0  0  0  0  0  0  0  0  0  0  0  0
   -1.6291    3.5206    1.6805 H   0  0  0  0  0  0  0  0  0  0  0  0
    0.0359    3.5855    2.3049 H   0  0  0  0  0  0  0  0  0  0  0  0
   -0.2760    3.7797    0.5637 H   0  0  0  0  0  0  0  0  0  0  0  0
  5  6  2  0  0  0  0
  5  7  1  0  0  0  0
  2  3  1  0  0  0  0
  2  4  1  0  0  0  0
  2  5  1  0  0  0  0
  1  2  1  0  0  0  0
 25 26  2  0  0  0  0
 25 27  1  0  0  0  0
 23 24  1  0  0  0  0
 21 22  1  0  0  0  0
 21 23  2  0  0  0  0
 19 20  1  0  0  0  0
 19 21  1  0  0  0  0
 17 18  1  0  0  0  0
 17 19  2  0  0  0  0
 15 16  1  0  0  0  0
 15 17  1  0  0  0  0
 14 15  2  0  0  0  0
 14 23  1  0  0  0  0
 11 12  1  0  0  0  0
 11 13  1  0  0  0  0
 11 14  1  0  0  0  0
  9 10  1  0  0  0  0
  9 11  1  0  0  0  0
  9 25  1  0  0  0  0
  7  8  1  0  0  0  0
  7  9  1  0  0  0  0
 29 30  1  0  0  0  0
 29 31  1  0  0  0  0
 29 32  1  0  0  0  0
 27 28  1  0  0  0  0
 27 29  1  0  0  0  0
M  END
$$$$
default_name
  -OEChem-02102213163D

 32 32  0     1  0  0  0  0  0999 V2000
   -3.8405   -3.7518    1.6252 H   0  0  0  0  0  0  0  0  0  0  0  0
   -3.7965   -2.8768    0.9782 C   0  0  0  0  0  0  0  0  0  0  0  0
   -4.5465   -2.1527    1.2902 H   0  0  0  0  0  0  0  0  0  0  0  0
   -3.9745   -3.1748   -0.0538 H   0  0  0  0  0  0  0  0  0  0  0  0
   -2.4245   -2.2537    1.0882 C   0  0  0  0  0  0  0  0  0  0  0  0
   -1.5805   -2.7478    1.8242 O   0  0  0  0  0  0  0  0  0  0  0  0
   -2.2045   -1.1637    0.3562 N   0  0  0  0  0  0  0  0  0  0  0  0
   -2.9595   -0.7907   -0.2008 H   0  0  0  0  0  0  0  0  0  0  0  0
   -0.9485   -0.4087    0.3482 C   0  0  1  0  0  0  0  0  0  0  0  0
   -0.3666   -0.6914    1.2269 H   0  0  0  0  0  0  0  0  0  0  0  0
   -0.1405   -0.7797   -0.9072 C   0  0  0  0  0  0  0  0  0  0  0  0
   -0.7070   -1.5053   -1.4926 H   0  0  0  0  0  0  0  0  0  0  0  0
   -0.0150    0.1119   -1.5233 H   0  0  0  0  0  0  0  0  0  0  0  0
    1.2212   -1.3773   -0.6081 C   0  0  0  0  0  0  0  0  0  0  0  0
    2.1790   -0.6427    0.1164 C   0  0  0  0  0  0  0  0  0  0  0  0
    1.9570    0.3628    0.4450 H   0  0  0  0  0  0  0  0  0  0  0  0
    3.4248   -1.2192    0.4255 C   0  0  0  0  0  0  0  0  0  0  0  0
    4.1597   -0.6525    0.9797 H   0  0  0  0  0  0  0  0  0  0  0  0
    3.7143   -2.5308    0.0128 C   0  0  0  0  0  0  0  0  0  0  0  0
    4.6724   -2.9729    0.2483 H   0  0  0  0  0  0  0  0  0  0  0  0
    2.7601   -3.2671   -0.7127 C   0  0  0  0  0  0  0  0  0  0  0  0
    2.9846   -4.2734   -1.0347 H   0  0  0  0  0  0  0  0  0  0  0  0
    1.5164   -2.6895   -1.0243 C   0  0  0  0  0  0  0  0  0  0  0  0
    0.7844   -3.2558   -1.5854 H   0  0  0  0  0  0  0  0  0  0  0  0
   -1.2168    1.1047    0.4313 C   0  0  0  0  0  0  0  0  0  0  0  0
   -2.0890    1.6186   -0.2704 O   0  0  0  0  0  0  0  0  0  0  0  0
   -0.4674    1.8182    1.2813 N   0  0  0  0  0  0  0  0  0  0  0  0
    0.2640    1.3348    1.7800 H   0  0  0  0  0  0  0  0  0  0  0  0
   -0.5889    3.2615    1.4722 C   0  0  0  0  0  0  0  0  0  0  0  0
   -1.6291    3.5206    1.6805 H   0  0  0  0  0  0  0  0  0  0  0  0
    0.0359    3.5855    2.3049 H   0  0  0  0  0  0  0  0  0  0  0  0
   -0.2760    3.7797    0.5637 H   0  0  0  0  0  0  0  0  0  0  0  0
  5  6  2  0  0  0  0
  5  7  1  0  0  0  0
  2  3  1  0  0  0  0
  2  4  1  0  0  0  0
  2  5  1  0  0  0  0
  1  2  1  0  0  0  0
 25 26  2  0  0  0  0
 25 27  1  0  0  0  0
 23 24  1  0  0  0  0
 21 22  1  0  0  0  0
 21 23  2  0  0  0  0
 19 20  1  0  0  0  0
 19 21  1  0  0  0  0
 17 18  1  0  0  0  0
 17 19  2  0  0  0  0
 15 16  1  0  0  0  0
 15 17  1  0  0  0  0
 14 15  2  0  0  0  0
 14 23  1  0  0  0  0
 11 12  1  0  0  0  0
 11 13  1  0  0  0  0
 11 14  1  0  0  0  0
  9 10  1  0  0  0  0
  9 11  1  0  0  0  0
  9 25  1  0  0  0  0
  7  8  1  0  0  0  0
  7  9  1  0  0  0  0
 29 30  1  0  0  0  0
 29 31  1  0  0  0  0
 29 32  1  0  0  0  0
 27 28  1  0  0  0  0
 27 29  1  0  0  0  0
M  END
$$$$
default_name
  -OEChem-02102213163D

 32 32  0     1  0  0  0  0  0999 V2000
   -3.8405   -3.7518    1.6252 H   0  0  0  0  0  0  0  0  0  0  0  0
   -3.7965   -2.8768    0.9782 C   0  0  0  0  0  0  0  0  0  0  0  0
   -4.5465   -2.1527    1.2902 H   0  0  0  0  0  0  0  0  0  0  0  0
   -3.9745   -3.1748   -0.0538 H   0  0  0  0  0  0  0  0  0  0  0  0
   -2.4245   -2.2537    1.0882 C   0  0  0  0  0  0  0  0  0  0  0  0
   -1.5805   -2.7478    1.8242 O   0  0  0  0  0  0  0  0  0  0  0  0
   -2.2045   -1.1637    0.3562 N   0  0  0  0  0  0  0  0  0  0  0  0
   -2.9595   -0.7907   -0.2008 H   0  0  0  0  0  0  0  0  0  0  0  0
   -0.9485   -0.4087    0.3482 C   0  0  1  0  0  0  0  0  0  0  0  0
   -0.3666   -0.6914    1.2269 H   0  0  0  0  0  0  0  0  0  0  0  0
   -0.1405   -0.7797   -0.9072 C   0  0  0  0  0  0  0  0  0  0  0  0
   -0.7070   -1.5053   -1.4926 H   0  0  0  0  0  0  0  0  0  0  0  0
   -0.0150    0.1119   -1.5233 H   0  0  0  0  0  0  0  0  0  0  0  0
    1.2212   -1.3773   -0.6081 C   0  0  0  0  0  0  0  0  0  0  0  0
    2.0568   -0.7968    0.3648 C   0  0  0  0  0  0  0  0  0  0  0  0
    1.7414    0.0939    0.8897 H   0  0  0  0  0  0  0  0  0  0  0  0
    3.3011   -1.3808    0.6660 C   0  0  0  0  0  0  0  0  0  0  0  0
    3.9423   -0.9320    1.4116 H   0  0  0  0  0  0  0  0  0  0  0  0
    3.7110   -2.5464   -0.0033 C   0  0  0  0  0  0  0  0  0  0  0  0
    4.6680   -2.9937    0.2264 H   0  0  0  0  0  0  0  0  0  0  0  0
    2.8791   -3.1282   -0.9771 C   0  0  0  0  0  0  0  0  0  0  0  0
    3.1965   -4.0211   -1.4955 H   0  0  0  0  0  0  0  0  0  0  0  0
    1.6372   -2.5425   -1.2802 C   0  0  0  0  0  0  0  0  0  0  0  0
    0.9995   -2.9891   -2.0320 H   0  0  0  0  0  0  0  0  0  0  0  0
   -1.2168    1.1047    0.4313 C   0  0  0  0  0  0  0  0  0  0  0  0
   -2.0890    1.6186   -0.2704 O   0  0  0  0  0  0  0  0  0  0  0  0
   -0.4674    1.8182    1.2813 N   0  0  0  0  0  0  0  0  0  0  0  0
    0.2640    1.3348    1.7800 H   0  0  0  0  0  0  0  0  0  0  0  0
   -0.5889    3.2615    1.4722 C   0  0  0  0  0  0  0  0  0  0  0  0
   -1.6291    3.5206    1.6805 H   0  0  0  0  0  0  0  0  0  0  0  0
    0.0359    3.5855    2.3049 H   0  0  0  0  0  0  0  0  0  0  0  0
   -0.2760    3.7797    0.5637 H   0  0  0  0  0  0  0  0  0  0  0  0
  5  6  2  0  0  0  0
  5  7  1  0  0  0  0
  2  3  1  0  0  0  0
  2  4  1  0  0  0  0
  2  5  1  0  0  0  0
  1  2  1  0  0  0  0
 25 26  2  0  0  0  0
 25 27  1  0  0  0  0
 23 24  1  0  0  0  0
 21 22  1  0  0  0  0
 21 23  2  0  0  0  0
 19 20  1  0  0  0  0
 19 21  1  0  0  0  0
 17 18  1  0  0  0  0
 17 19  2  0  0  0  0
 15 16  1  0  0  0  0
 15 17  1  0  0  0  0
 14 15  2  0  0  0  0
 14 23  1  0  0  0  0
 11 12  1  0  0  0  0
 11 13  1  0  0  0  0
 11 14  1  0  0  0  0
  9 10  1  0  0  0  0
  9 11  1  0  0  0  0
  9 25  1  0  0  0  0
  7  8  1  0  0  0  0
  7  9  1  0  0  0  0
 29 30  1  0  0  0  0
 29 31  1  0  0  0  0
 29 32  1  0  0  0  0
 27 28  1  0  0  0  0
 27 29  1  0  0  0  0
M  END
$$$$
default_name
  -OEChem-02102213163D

 32 32  0     1  0  0  0  0  0999 V2000
   -3.8405   -3.7518    1.6252 H   0  0  0  0  0  0  0  0  0  0  0  0
   -3.7965   -2.8768    0.9782 C   0  0  0  0  0  0  0  0  0  0  0  0
   -4.5465   -2.1527    1.2902 H   0  0  0  0  0  0  0  0  0  0  0  0
   -3.9745   -3.1748   -0.0538 H   0  0  0  0  0  0  0  0  0  0  0  0
   -2.4245   -2.2537    1.0882 C   0  0  0  0  0  0  0  0  0  0  0  0
   -1.5805   -2.7478    1.8242 O   0  0  0  0  0  0  0  0  0  0  0  0
   -2.2045   -1.1637    0.3562 N   0  0  0  0  0  0  0  0  0  0  0  0
   -2.9595   -0.7907   -0.2008 H   0  0  0  0  0  0  0  0  0  0  0  0
   -0.9485   -0.4087    0.3482 C   0  0  1  0  0  0  0  0  0  0  0  0
   -0.3666   -0.6914    1.2269 H   0  0  0  0  0  0  0  0  0  0  0  0
   -0.1405   -0.7797   -0.9072 C   0  0  0  0  0  0  0  0  0  0  0  0
   -0.7070   -1.5053   -1.4926 H   0  0  0  0  0  0  0  0  0  0  0  0
   -0.0150    0.1119   -1.5233 H   0  0  0  0  0  0  0  0  0  0  0  0
    1.2212   -1.3773   -0.6081 C   0  0  0  0  0  0  0  0  0  0  0  0
    1.9213   -1.0096    0.5566 C   0  0  0  0  0  0  0  0  0  0  0  0
    1.5014   -0.2801    1.2347 H   0  0  0  0  0  0  0  0  0  0  0  0
    3.1653   -1.5990    0.8480 C   0  0  0  0  0  0  0  0  0  0  0  0
    3.7024   -1.3134    1.7416 H   0  0  0  0  0  0  0  0  0  0  0  0
    3.7103   -2.5579   -0.0227 C   0  0  0  0  0  0  0  0  0  0  0  0
    4.6671   -3.0090    0.2000 H   0  0  0  0  0  0  0  0  0  0  0  0
    3.0140   -2.9265   -1.1882 C   0  0  0  0  0  0  0  0  0  0  0  0
    3.4353   -3.6595   -1.8604 H   0  0  0  0  0  0  0  0  0  0  0  0
    1.7724   -2.3348   -1.4809 C   0  0  0  0  0  0  0  0  0  0  0  0
    1.2393   -2.6167   -2.3796 H   0  0  0  0  0  0  0  0  0  0  0  0
   -1.2168    1.1047    0.4313 C   0  0  0  0  0  0  0  0  0  0  0  0
   -2.0890    1.6186   -0.2704 O   0  0  0  0  0  0  0  0  0  0  0  0
   -0.4674    1.8182    1.2813 N   0  0  0  0  0  0  0  0  0  0  0  0
    0.2640    1.3348    1.7800 H   0  0  0  0  0  0  0  0  0  0  0  0
   -0.5889    3.2615    1.4722 C   0  0  0  0  0  0  0  0  0  0  0  0
   -1.6291    3.5206    1.6805 H   0  0  0  0  0  0  0  0  0  0  0  0
    0.0359    3.5855    2.3049 H   0  0  0  0  0  0  0  0  0  0  0  0
   -0.2760    3.7797    0.5637 H   0  0  0  0  0  0  0  0  0  0  0  0
  5  6  2  0  0  0  0
  5  7  1  0  0  0  0
  2  3  1  0  0  0  0
  2  4  1  0  0  0  0
  2  5  1  0  0  0  0
  1  2  1  0  0  0  0
 25 26  2  0  0  0  0
 25 27  1  0  0  0  0
 23 24  1  0  0  0  0
 21 22  1  0  0  0  0
 21 23  2  0  0  0  0
 19 20  1  0  0  0  0
 19 21  1  0  0  0  0
 17 18  1  0  0  0  0
 17 19  2  0  0  0  0
 15 16  1  0  0  0  0
 15 17  1  0  0  0  0
 14 15  2  0  0  0  0
 14 23  1  0  0  0  0
 11 12  1  0  0  0  0
 11 13  1  0  0  0  0
 11 14  1  0  0  0  0
  9 10  1  0  0  0  0
  9 11  1  0  0  0  0
  9 25  1  0  0  0  0
  7  8  1  0  0  0  0
  7  9  1  0  0  0  0
 29 30  1  0  0  0  0
 29 31  1  0  0  0  0
 29 32  1  0  0  0  0
 27 28  1  0  0  0  0
 27 29  1  0  0  0  0
M  END
$$$$
default_name
  -OEChem-02102213163D

 32 32  0     1  0  0  0  0  0999 V2000
   -3.8405   -3.7518    1.6252 H   0  0  0  0  0  0  0  0  0  0  0  0
   -3.7965   -2.8768    0.9782 C   0  0  0  0  0  0  0  0  0  0  0  0
   -4.5465   -2.1527    1.2902 H   0  0  0  0  0  0  0  0  0  0  0  0
   -3.9745   -3.1748   -0.0538 H   0  0  0  0  0  0  0  0  0  0  0  0
   -2.4245   -2.2537    1.0882 C   0  0  0  0  0  0  0  0  0  0  0  0
   -1.5805   -2.7478    1.8242 O   0  0  0  0  0  0  0  0  0  0  0  0
   -2.2045   -1.1637    0.3562 N   0  0  0  0  0  0  0  0  0  0  0  0
   -2.9595   -0.7907   -0.2008 H   0  0  0  0  0  0  0  0  0  0  0  0
   -0.9485   -0.4087    0.3482 C   0  0  1  0  0  0  0  0  0  0  0  0
   -0.3666   -0.6914    1.2269 H   0  0  0  0  0  0  0  0  0  0  0  0
   -0.1405   -0.7797   -0.9072 C   0  0  0  0  0  0  0  0  0  0  0  0
   -0.7070   -1.5053   -1.4926 H   0  0  0  0  0  0  0  0  0  0  0  0
   -0.0150    0.1119   -1.5233 H   0  0  0  0  0  0  0  0  0  0  0  0
    1.2212   -1.3773   -0.6081 C   0  0  0  0  0  0  0  0  0  0  0  0
    1.7818   -1.2666    0.6785 C   0  0  0  0  0  0  0  0  0  0  0  0
    1.2536   -0.7339    1.4566 H   0  0  0  0  0  0  0  0  0  0  0  0
    3.0267   -1.8591    0.9594 C   0  0  0  0  0  0  0  0  0  0  0  0
    3.4566   -1.7707    1.9473 H   0  0  0  0  0  0  0  0  0  0  0  0
    3.7121   -2.5645   -0.0443 C   0  0  0  0  0  0  0  0  0  0  0  0
    4.6697   -3.0177    0.1709 H   0  0  0  0  0  0  0  0  0  0  0  0
    3.1555   -2.6757   -1.3315 C   0  0  0  0  0  0  0  0  0  0  0  0
    3.6847   -3.2132   -2.1046 H   0  0  0  0  0  0  0  0  0  0  0  0
    1.9129   -2.0806   -1.6128 C   0  0  0  0  0  0  0  0  0  0  0  0
    1.4873   -2.1641   -2.6043 H   0  0  0  0  0  0  0  0  0  0  0  0
   -1.2168    1.1047    0.4313 C   0  0  0  0  0  0  0  0  0  0  0  0
   -2.0890    1.6186   -0.2704 O   0  0  0  0  0  0  0  0  0  0  0  0
   -0.4674    1.8182    1.2813 N   0  0  0  0  0  0  0  0  0  0  0  0
    0.2640    1.3348    1.7800 H   0  0  0  0  0  0  0  0  0  0  0  0
   -0.5889    3.2615    1.4722 C   0  0  0  0  0  0  0  0  0  0  0  0
   -1.6291    3.5206    1.6805 H   0  0  0  0  0  0  0  0  0  0  0  0
    0.0359    3.5855    2.3049 H   0  0  0  0  0  0  0  0  0  0  0  0
   -0.2760    3.7797    0.5637 H   0  0  0  0  0  0  0  0  0  0  0  0
  5  6  2  0  0  0  0
  5  7  1  0  0  0  0
  2  3  1  0  0  0  0
  2  4  1  0  0  0  0
  2  5  1  0  0  0  0
  1  2  1  0  0  0  0
 25 26  2  0  0  0  0
 25 27  1  0  0  0  0
 23 24  1  0  0  0  0
 21 22  1  0  0  0  0
 21 23  2  0  0  0  0
 19 20  1  0  0  0  0
 19 21  1  0  0  0  0
 17 18  1  0  0  0  0
 17 19  2  0  0  0  0
 15 16  1  0  0  0  0
 15 17  1  0  0  0  0
 14 15  2  0  0  0  0
 14 23  1  0  0  0  0
 11 12  1  0  0  0  0
 11 13  1  0  0  0  0
 11 14  1  0  0  0  0
  9 10  1  0  0  0  0
  9 11  1  0  0  0  0
  9 25  1  0  0  0  0
  7  8  1  0  0  0  0
  7  9  1  0  0  0  0
 29 30  1  0  0  0  0
 29 31  1  0  0  0  0
 29 32  1  0  0  0  0
 27 28  1  0  0  0  0
 27 29  1  0  0  0  0
M  END
$$$$
default_name
  -OEChem-02102213163D

 32 32  0     1  0  0  0  0  0999 V2000
   -3.8405   -3.7518    1.6252 H   0  0  0  0  0  0  0  0  0  0  0  0
   -3.7965   -2.8768    0.9782 C   0  0  0  0  0  0  0  0  0  0  0  0
   -4.5465   -2.1527    1.2902 H   0  0  0  0  0  0  0  0  0  0  0  0
   -3.9745   -3.1748   -0.0538 H   0  0  0  0  0  0  0  0  0  0  0  0
   -2.4245   -2.2537    1.0882 C   0  0  0  0  0  0  0  0  0  0  0  0
   -1.5805   -2.7478    1.8242 O   0  0  0  0  0  0  0  0  0  0  0  0
   -2.2045   -1.1637    0.3562 N   0  0  0  0  0  0  0  0  0  0  0  0
   -2.9595   -0.7907   -0.2008 H   0  0  0  0  0  0  0  0  0  0  0  0
   -0.9485   -0.4087    0.3482 C   0  0  1  0  0  0  0  0  0  0  0  0
   -0.3666   -0.6914    1.2269 H   0  0  0  0  0  0  0  0  0  0  0  0
   -0.1405   -0.7797   -0.9072 C   0  0  0  0  0  0  0  0  0  0  0  0
   -0.7070   -1.5053   -1.4926 H   0  0  0  0  0  0  0  0  0  0  0  0
   -0.0150    0.1119   -1.5233 H   0  0  0  0  0  0  0  0  0  0  0  0
    1.2212   -1.3773   -0.6081 C   0  0  0  0  0  0  0  0  0  0  0  0
    1.6477   -1.5503    0.7223 C   0  0  0  0  0  0  0  0  0  0  0  0
    1.0147   -1.2364    1.5403 H   0  0  0  0  0  0  0  0  0  0  0  0
    2.8948   -2.1432    0.9923 C   0  0  0  0  0  0  0  0  0  0  0  0
    3.2215   -2.2728    2.0146 H   0  0  0  0  0  0  0  0  0  0  0  0
    3.7164   -2.5657   -0.0665 C   0  0  0  0  0  0  0  0  0  0  0  0
    4.6756   -3.0191    0.1410 H   0  0  0  0  0  0  0  0  0  0  0  0
    3.2940   -2.3930   -1.3971 C   0  0  0  0  0  0  0  0  0  0  0  0
    3.9278   -2.7127   -2.2112 H   0  0  0  0  0  0  0  0  0  0  0  0
    2.0490   -1.7973   -1.6667 C   0  0  0  0  0  0  0  0  0  0  0  0
    1.7266   -1.6619   -2.6910 H   0  0  0  0  0  0  0  0  0  0  0  0
   -1.2168    1.1047    0.4313 C   0  0  0  0  0  0  0  0  0  0  0  0
   -2.0890    1.6186   -0.2704 O   0  0  0  0  0  0  0  0  0  0  0  0
   -0.4674    1.8182    1.2813 N   0  0  0  0  0  0  0  0  0  0  0  0
    0.2640    1.3348    1.7800 H   0  0  0  0  0  0  0  0  0  0  0  0
   -0.5889    3.2615    1.4722 C   0  0  0  0  0  0  0  0  0  0  0  0
   -1.6291    3.5206    1.6805 H   0  0  0  0  0  0  0  0  0  0  0  0
    0.0359    3.5855    2.3049 H   0  0  0  0  0  0  0  0  0  0  0  0
   -0.2760    3.7797    0.5637 H   0  0  0  0  0  0  0  0  0  0  0  0
  5  6  2  0  0  0  0
  5  7  1  0  0  0  0
  2  3  1  0  0  0  0
  2  4  1  0  0  0  0
  2  5  1  0  0  0  0
  1  2  1  0  0  0  0
 25 26  2  0  0  0  0
 25 27  1  0  0  0  0
 23 24  1  0  0  0  0
 21 22  1  0  0  0  0
 21 23  2  0  0  0  0
 19 20  1  0  0  0  0
 19 21  1  0  0  0  0
 17 18  1  0  0  0  0
 17 19  2  0  0  0  0
 15 16  1  0  0  0  0
 15 17  1  0  0  0  0
 14 15  2  0  0  0  0
 14 23  1  0  0  0  0
 11 12  1  0  0  0  0
 11 13  1  0  0  0  0
 11 14  1  0  0  0  0
  9 10  1  0  0  0  0
  9 11  1  0  0  0  0
  9 25  1  0  0  0  0
  7  8  1  0  0  0  0
  7  9  1  0  0  0  0
 29 30  1  0  0  0  0
 29 31  1  0  0  0  0
 29 32  1  0  0  0  0
 27 28  1  0  0  0  0
 27 29  1  0  0  0  0
M  END
$$$$
default_name
  -OEChem-02102213163D

 32 32  0     1  0  0  0  0  0999 V2000
   -3.8405   -3.7518    1.6252 H   0  0  0  0  0  0  0  0  0  0  0  0
   -3.7965   -2.8768    0.9782 C   0  0  0  0  0  0  0  0  0  0  0  0
   -4.5465   -2.1527    1.2902 H   0  0  0  0  0  0  0  0  0  0  0  0
   -3.9745   -3.1748   -0.0538 H   0  0  0  0  0  0  0  0  0  0  0  0
   -2.4245   -2.2537    1.0882 C   0  0  0  0  0  0  0  0  0  0  0  0
   -1.5805   -2.7478    1.8242 O   0  0  0  0  0  0  0  0  0  0  0  0
   -2.2045   -1.1637    0.3562 N   0  0  0  0  0  0  0  0  0  0  0  0
   -2.9595   -0.7907   -0.2008 H   0  0  0  0  0  0  0  0  0  0  0  0
   -0.9485   -0.4087    0.3482 C   0  0  1  0  0  0  0  0  0  0  0  0
   -0.3666   -0.6914    1.2269 H   0  0  0  0  0  0  0  0  0  0  0  0
   -0.1405   -0.7797   -0.9072 C   0  0  0  0  0  0  0  0  0  0  0  0
   -0.7070   -1.5053   -1.4926 H   0  0  0  0  0  0  0  0  0  0  0  0
   -0.0150    0.1119   -1.5233 H   0  0  0  0  0  0  0  0  0  0  0  0
    1.2212   -1.3773   -0.6081 C   0  0  0  0  0  0  0  0  0  0  0  0
    1.5281   -1.8413    0.6851 C   0  0  0  0  0  0  0  0  0  0  0  0
    0.8011   -1.7534    1.4800 H   0  0  0  0  0  0  0  0  0  0  0  0
    2.7785   -2.4321    0.9447 C   0  0  0  0  0  0  0  0  0  0  0  0
    3.0131   -2.7854    1.9390 H   0  0  0  0  0  0  0  0  0  0  0  0
    3.7229   -2.5616   -0.0877 C   0  0  0  0  0  0  0  0  0  0  0  0
    4.6845   -3.0133    0.1124 H   0  0  0  0  0  0  0  0  0  0  0  0
    3.4200   -2.0975   -1.3808 C   0  0  0  0  0  0  0  0  0  0  0  0
    4.1479   -2.1921   -2.1732 H   0  0  0  0  0  0  0  0  0  0  0  0
    2.1716   -1.5042   -1.6392 C   0  0  0  0  0  0  0  0  0  0  0  0
    1.9411   -1.1446   -2.6336 H   0  0  0  0  0  0  0  0  0  0  0  0
   -1.2168    1.1047    0.4313 C   0  0  0  0  0  0  0  0  0  0  0  0
   -2.0890    1.6186   -0.2704 O   0  0  0  0  0  0  0  0  0  0  0  0
   -0.4674    1.8182    1.2813 N   0  0  0  0  0  0  0  0  0  0  0  0
    0.2640    1.3348    1.7800 H   0  0  0  0  0  0  0  0  0  0  0  0
   -0.5889    3.2615    1.4722 C   0  0  0  0  0  0  0  0  0  0  0  0
   -1.6291    3.5206    1.6805 H   0  0  0  0  0  0  0  0  0  0  0  0
    0.0359    3.5855    2.3049 H   0  0  0  0  0  0  0  0  0  0  0  0
   -0.2760    3.7797    0.5637 H   0  0  0  0  0  0  0  0  0  0  0  0
  5  6  2  0  0  0  0
  5  7  1  0  0  0  0
  2  3  1  0  0  0  0
  2  4  1  0  0  0  0
  2  5  1  0  0  0  0
  1  2  1  0  0  0  0
 25 26  2  0  0  0  0
 25 27  1  0  0  0  0
 23 24  1  0  0  0  0
 21 22  1  0  0  0  0
 21 23  2  0  0  0  0
 19 20  1  0  0  0  0
 19 21  1  0  0  0  0
 17 18  1  0  0  0  0
 17 19  2  0  0  0  0
 15 16  1  0  0  0  0
 15 17  1  0  0  0  0
 14 15  2  0  0  0  0
 14 23  1  0  0  0  0
 11 12  1  0  0  0  0
 11 13  1  0  0  0  0
 11 14  1  0  0  0  0
  9 10  1  0  0  0  0
  9 11  1  0  0  0  0
  9 25  1  0  0  0  0
  7  8  1  0  0  0  0
  7  9  1  0  0  0  0
 29 30  1  0  0  0  0
 29 31  1  0  0  0  0
 29 32  1  0  0  0  0
 27 28  1  0  0  0  0
 27 29  1  0  0  0  0
M  END
$$$$
default_name
  -OEChem-02102213163D

 32 32  0     1  0  0  0  0  0999 V2000
   -3.8405   -3.7518    1.6252 H   0  0  0  0  0  0  0  0  0  0  0  0
   -3.7965   -2.8768    0.9782 C   0  0  0  0  0  0  0  0  0  0  0  0
   -4.5465   -2.1527    1.2902 H   0  0  0  0  0  0  0  0  0  0  0  0
   -3.9745   -3.1748   -0.0538 H   0  0  0  0  0  0  0  0  0  0  0  0
   -2.4245   -2.2537    1.0882 C   0  0  0  0  0  0  0  0  0  0  0  0
   -1.5805   -2.7478    1.8242 O   0  0  0  0  0  0  0  0  0  0  0  0
   -2.2045   -1.1637    0.3562 N   0  0  0  0  0  0  0  0  0  0  0  0
   -2.9595   -0.7907   -0.2008 H   0  0  0  0  0  0  0  0  0  0  0  0
   -0.9485   -0.4087    0.3482 C   0  0  1  0  0  0  0  0  0  0  0  0
   -0.3666   -0.6914    1.2269 H   0  0  0  0  0  0  0  0  0  0  0  0
   -0.1405   -0.7797   -0.9072 C   0  0  0  0  0  0  0  0  0  0  0  0
   -0.7070   -1.5053   -1.4926 H   0  0  0  0  0  0  0  0  0  0  0  0
   -0.0150    0.1119   -1.5233 H   0  0  0  0  0  0  0  0  0  0  0  0
    1.2212   -1.3773   -0.6081 C   0  0  0  0  0  0  0  0  0  0  0  0
    1.4313   -2.1199    0.5692 C   0  0  0  0  0  0  0  0  0  0  0  0
    0.6273   -2.2496    1.2799 H   0  0  0  0  0  0  0  0  0  0  0  0
    2.6858   -2.7060    0.8197 C   0  0  0  0  0  0  0  0  0  0  0  0
    2.8457   -3.2736    1.7256 H   0  0  0  0  0  0  0  0  0  0  0  0
    3.7312   -2.5523   -0.1067 C   0  0  0  0  0  0  0  0  0  0  0  0
    4.6956   -3.0006    0.0870 H   0  0  0  0  0  0  0  0  0  0  0  0
    3.5250   -1.8096   -1.2834 C   0  0  0  0  0  0  0  0  0  0  0  0
    4.3301   -1.6868   -1.9930 H   0  0  0  0  0  0  0  0  0  0  0  0
    2.2722   -1.2212   -1.5319 C   0  0  0  0  0  0  0  0  0  0  0  0
    2.1159   -0.6473   -2.4360 H   0  0  0  0  0  0  0  0  0  0  0  0
   -1.2168    1.1047    0.4313 C   0  0  0  0  0  0  0  0  0  0  0  0
   -2.0890    1.6186   -0.2704 O   0  0  0  0  0  0  0  0  0  0  0  0
   -0.4674    1.8182    1.2813 N   0  0  0  0  0  0  0  0  0  0  0  0
    0.2640    1.3348    1.7800 H   0  0  0  0  0  0  0  0  0  0  0  0
   -0.5889    3.2615    1.4722 C   0  0  0  0  0  0  0  0  0  0  0  0
   -1.6291    3.5206    1.6805 H   0  0  0  0  0  0  0  0  0  0  0  0
    0.0359    3.5855    2.3049 H   0  0  0  0  0  0  0  0  0  0  0  0
   -0.2760    3.7797    0.5637 H   0  0  0  0  0  0  0  0  0  0  0  0
  5  6  2  0  0  0  0
  5  7  1  0  0  0  0
  2  3  1  0  0  0  0
  2  4  1  0  0  0  0
  2  5  1  0  0  0  0
  1  2  1  0  0  0  0
 25 26  2  0  0  0  0
 25 27  1  0  0  0  0
 23 24  1  0  0  0  0
 21 22  1  0  0  0  0
 21 23  2  0  0  0  0
 19 20  1  0  0  0  0
 19 21  1  0  0  0  0
 17 18  1  0  0  0  0
 17 19  2  0  0  0  0
 15 16  1  0  0  0  0
 15 17  1  0  0  0  0
 14 15  2  0  0  0  0
 14 23  1  0  0  0  0
 11 12  1  0  0  0  0
 11 13  1  0  0  0  0
 11 14  1  0  0  0  0
  9 10  1  0  0  0  0
  9 11  1  0  0  0  0
  9 25  1  0  0  0  0
  7  8  1  0  0  0  0
  7  9  1  0  0  0  0
 29 30  1  0  0  0  0
 29 31  1  0  0  0  0
 29 32  1  0  0  0  0
 27 28  1  0  0  0  0
 27 29  1  0  0  0  0
M  END
$$$$
default_name
  -OEChem-02102213163D

 32 32  0     1  0  0  0  0  0999 V2000
   -3.8405   -3.7518    1.6252 H   0  0  0  0  0  0  0  0  0  0  0  0
   -3.7965   -2.8768    0.9782 C   0  0  0  0  0  0  0  0  0  0  0  0
   -4.5465   -2.1527    1.2902 H   0  0  0  0  0  0  0  0  0  0  0  0
   -3.9745   -3.1748   -0.0538 H   0  0  0  0  0  0  0  0  0  0  0  0
   -2.4245   -2.2537    1.0882 C   0  0  0  0  0  0  0  0  0  0  0  0
   -1.5805   -2.7478    1.8242 O   0  0  0  0  0  0  0  0  0  0  0  0
   -2.2045   -1.1637    0.3562 N   0  0  0  0  0  0  0  0  0  0  0  0
   -2.9595   -0.7907   -0.2008 H   0  0  0  0  0  0  0  0  0  0  0  0
   -0.9485   -0.4087    0.3482 C   0  0  1  0  0  0  0  0  0  0  0  0
   -0.3666   -0.6914    1.2269 H   0  0  0  0  0  0  0  0  0  0  0  0
   -0.1405   -0.7797   -0.9072 C   0  0  0  0  0  0  0  0  0  0  0  0
   -0.7070   -1.5053   -1.4926 H   0  0  0  0  0  0  0  0  0  0  0  0
   -0.0150    0.1119   -1.5233 H   0  0  0  0  0  0  0  0  0  0  0  0
    1.2212   -1.3773   -0.6081 C   0  0  0  0  0  0  0  0  0  0  0  0
    1.3638   -2.3670    0.3828 C   0  0  0  0  0  0  0  0  0  0  0  0
    0.5051   -2.6913    0.9535 H   0  0  0  0  0  0  0  0  0  0  0  0
    2.6229   -2.9462    0.6259 C   0  0  0  0  0  0  0  0  0  0  0  0
    2.7307   -3.7042    1.3890 H   0  0  0  0  0  0  0  0  0  0  0  0
    3.7406   -2.5385   -0.1219 C   0  0  0  0  0  0  0  0  0  0  0  0
    4.7083   -2.9818    0.0665 H   0  0  0  0  0  0  0  0  0  0  0  0
    3.6019   -1.5486   -1.1118 C   0  0  0  0  0  0  0  0  0  0  0  0
    4.4619   -1.2313   -1.6830 H   0  0  0  0  0  0  0  0  0  0  0  0
    2.3441   -0.9677   -1.3523 C   0  0  0  0  0  0  0  0  0  0  0  0
    2.2393   -0.2039   -2.1119 H   0  0  0  0  0  0  0  0  0  0  0  0
   -1.2168    1.1047    0.4313 C   0  0  0  0  0  0  0  0  0  0  0  0
   -2.0890    1.6186   -0.2704 O   0  0  0  0  0  0  0  0  0  0  0  0
   -0.4674    1.8182    1.2813 N   0  0  0  0  0  0  0  0  0  0  0  0
    0.2640    1.3348    1.7800 H   0  0  0  0  0  0  0  0  0  0  0  0
   -0.5889    3.2615    1.4722 C   0  0  0  0  0  0  0  0  0  0  0  0
   -1.6291    3.5206    1.6805 H   0  0  0  0  0  0  0  0  0  0  0  0
    0.0359    3.5855    2.3049 H   0  0  0  0  0  0  0  0  0  0  0  0
   -0.2760    3.7797    0.5637 H   0  0  0  0  0  0  0  0  0  0  0  0
  5  6  2  0  0  0  0
  5  7  1  0  0  0  0
  2  3  1  0  0  0  0
  2  4  1  0  0  0  0
  2  5  1  0  0  0  0
  1  2  1  0  0  0  0
 25 26  2  0  0  0  0
 25 27  1  0  0  0  0
 23 24  1  0  0  0  0
 21 22  1  0  0  0  0
 21 23  2  0  0  0  0
 19 20  1  0  0  0  0
 19 21  1  0  0  0  0
 17 18  1  0  0  0  0
 17 19  2  0  0  0  0
 15 16  1  0  0  0  0
 15 17  1  0  0  0  0
 14 15  2  0  0  0  0
 14 23  1  0  0  0  0
 11 12  1  0  0  0  0
 11 13  1  0  0  0  0
 11 14  1  0  0  0  0
  9 10  1  0  0  0  0
  9 11  1  0  0  0  0
  9 25  1  0  0  0  0
  7  8  1  0  0  0  0
  7  9  1  0  0  0  0
 29 30  1  0  0  0  0
 29 31  1  0  0  0  0
 29 32  1  0  0  0  0
 27 28  1  0  0  0  0
 27 29  1  0  0  0  0
M  END
$$$$
default_name
  -OEChem-02102213163D

 32 32  0     1  0  0  0  0  0999 V2000
   -3.8405   -3.7518    1.6252 H   0  0  0  0  0  0  0  0  0  0  0  0
   -3.7965   -2.8768    0.9782 C   0  0  0  0  0  0  0  0  0  0  0  0
   -4.5465   -2.1527    1.2902 H   0  0  0  0  0  0  0  0  0  0  0  0
   -3.9745   -3.1748   -0.0538 H   0  0  0  0  0  0  0  0  0  0  0  0
   -2.4245   -2.2537    1.0882 C   0  0  0  0  0  0  0  0  0  0  0  0
   -1.5805   -2.7478    1.8242 O   0  0  0  0  0  0  0  0  0  0  0  0
   -2.2045   -1.1637    0.3562 N   0  0  0  0  0  0  0  0  0  0  0  0
   -2.9595   -0.7907   -0.2008 H   0  0  0  0  0  0  0  0  0  0  0  0
   -0.9485   -0.4087    0.3482 C   0  0  1  0  0  0  0  0  0  0  0  0
   -0.3666   -0.6914    1.2269 H   0  0  0  0  0  0  0  0  0  0  0  0
   -0.1405   -0.7797   -0.9072 C   0  0  0  0  0  0  0  0  0  0  0  0
   -0.7070   -1.5053   -1.4926 H   0  0  0  0  0  0  0  0  0  0  0  0
   -0.0150    0.1119   -1.5233 H   0  0  0  0  0  0  0  0  0  0  0  0
    1.2212   -1.3773   -0.6081 C   0  0  0  0  0  0  0  0  0  0  0  0
    1.3302   -2.5659    0.1384 C   0  0  0  0  0  0  0  0  0  0  0  0
    0.4429   -3.0484    0.5232 H   0  0  0  0  0  0  0  0  0  0  0  0
    2.5942   -3.1364    0.3765 C   0  0  0  0  0  0  0  0  0  0  0  0
    2.6759   -4.0477    0.9521 H   0  0  0  0  0  0  0  0  0  0  0  0
    3.7505   -2.5212   -0.1325 C   0  0  0  0  0  0  0  0  0  0  0  0
    4.7218   -2.9583    0.0525 H   0  0  0  0  0  0  0  0  0  0  0  0
    3.6452   -1.3326   -0.8776 C   0  0  0  0  0  0  0  0  0  0  0  0
    4.5344   -0.8566   -1.2643 H   0  0  0  0  0  0  0  0  0  0  0  0
    2.3822   -0.7608   -1.1126 C   0  0  0  0  0  0  0  0  0  0  0  0
    2.3029    0.1554   -1.6831 H   0  0  0  0  0  0  0  0  0  0  0  0
   -1.2168    1.1047    0.4313 C   0  0  0  0  0  0  0  0  0  0  0  0
   -2.0890    1.6186   -0.2704 O   0  0  0  0  0  0  0  0  0  0  0  0
   -0.4674    1.8182    1.2813 N   0  0  0  0  0  0  0  0  0  0  0  0
    0.2640    1.3348    1.7800 H   0  0  0  0  0  0  0  0  0  0  0  0
   -0.5889    3.2615    1.4722 C   0  0  0  0  0  0  0  0  0  0  0  0
   -1.6291    3.5206    1.6805 H   0  0  0  0  0  0  0  0  0  0  0  0
    0.0359    3.5855    2.3049 H   0  0  0  0  0  0  0  0  0  0  0  0
   -0.2760    3.7797    0.5637 H   0  0  0  0  0  0  0  0  0  0  0  0
  5  6  2  0  0  0  0
  5  7  1  0  0  0  0
  2  3  1  0  0  0  0
  2  4  1  0  0  0  0
  2  5  1  0  0  0  0
  1  2  1  0  0  0  0
 25 26  2  0  0  0  0
 25 27  1  0  0  0  0
 23 24  1  0  0  0  0
 21 22  1  0  0  0  0
 21 23  2  0  0  0  0
 19 20  1  0  0  0  0
 19 21  1  0  0  0  0
 17 18  1  0  0  0  0
 17 19  2  0  0  0  0
 15 16  1  0  0  0  0
 15 17  1  0  0  0  0
 14 15  2  0  0  0  0
 14 23  1  0  0  0  0
 11 12  1  0  0  0  0
 11 13  1  0  0  0  0
 11 14  1  0  0  0  0
  9 10  1  0  0  0  0
  9 11  1  0  0  0  0
  9 25  1  0  0  0  0
  7  8  1  0  0  0  0
  7  9  1  0  0  0  0
 29 30  1  0  0  0  0
 29 31  1  0  0  0  0
 29 32  1  0  0  0  0
 27 28  1  0  0  0  0
 27 29  1  0  0  0  0
M  END
$$$$
default_name
  -OEChem-02102213163D

 32 32  0     1  0  0  0  0  0999 V2000
   -3.8405   -3.7518    1.6252 H   0  0  0  0  0  0  0  0  0  0  0  0
   -3.7965   -2.8768    0.9782 C   0  0  0  0  0  0  0  0  0  0  0  0
   -4.5465   -2.1527    1.2902 H   0  0  0  0  0  0  0  0  0  0  0  0
   -3.9745   -3.1748   -0.0538 H   0  0  0  0  0  0  0  0  0  0  0  0
   -2.4245   -2.2537    1.0882 C   0  0  0  0  0  0  0  0  0  0  0  0
   -1.5805   -2.7478    1.8242 O   0  0  0  0  0  0  0  0  0  0  0  0
   -2.2045   -1.1637    0.3562 N   0  0  0  0  0  0  0  0  0  0  0  0
   -2.9595   -0.7907   -0.2008 H   0  0  0  0  0  0  0  0  0  0  0  0
   -0.9485   -0.4087    0.3482 C   0  0  1  0  0  0  0  0  0  0  0  0
   -0.3666   -0.6914    1.2269 H   0  0  0  0  0  0  0  0  0  0  0  0
   -0.1405   -0.7797   -0.9072 C   0  0  0  0  0  0  0  0  0  0  0  0
   -0.7070   -1.5053   -1.4926 H   0  0  0  0  0  0  0  0  0  0  0  0
   -0.0150    0.1119   -1.5233 H   0  0  0  0  0  0  0  0  0  0  0  0
    1.2212   -1.3773   -0.6081 C   0  0  0  0  0  0  0  0  0  0  0  0
    1.3328   -2.7028   -0.1473 C   0  0  0  0  0  0  0  0  0  0  0  0
    0.4449   -3.2965    0.0182 H   0  0  0  0  0  0  0  0  0  0  0  0
    2.6016   -3.2637    0.0884 C   0  0  0  0  0  0  0  0  0  0  0  0
    2.6850   -4.2808    0.4447 H   0  0  0  0  0  0  0  0  0  0  0  0
    3.7603   -2.5015   -0.1377 C   0  0  0  0  0  0  0  0  0  0  0  0
    4.7350   -2.9316    0.0457 H   0  0  0  0  0  0  0  0  0  0  0  0
    3.6522   -1.1761   -0.5967 C   0  0  0  0  0  0  0  0  0  0  0  0
    4.5426   -0.5883   -0.7654 H   0  0  0  0  0  0  0  0  0  0  0  0
    2.3840   -0.6148   -0.8291 C   0  0  0  0  0  0  0  0  0  0  0  0
    2.3022    0.4060   -1.1791 H   0  0  0  0  0  0  0  0  0  0  0  0
   -1.2168    1.1047    0.4313 C   0  0  0  0  0  0  0  0  0  0  0  0
   -2.0890    1.6186   -0.2704 O   0  0  0  0  0  0  0  0  0  0  0  0
   -0.4674    1.8182    1.2813 N   0  0  0  0  0  0  0  0  0  0  0  0
    0.2640    1.3348    1.7800 H   0  0  0  0  0  0  0  0  0  0  0  0
   -0.5889    3.2615    1.4722 C   0  0  0  0  0  0  0  0  0  0  0  0
   -1.6291    3.5206    1.6805 H   0  0  0  0  0  0  0  0  0  0  0  0
    0.0359    3.5855    2.3049 H   0  0  0  0  0  0  0  0  0  0  0  0
   -0.2760    3.7797    0.5637 H   0  0  0  0  0  0  0  0  0  0  0  0
  5  6  2  0  0  0  0
  5  7  1  0  0  0  0
  2  3  1  0  0  0  0
  2  4  1  0  0  0  0
  2  5  1  0  0  0  0
  1  2  1  0  0  0  0
 25 26  2  0  0  0  0
 25 27  1  0  0  0  0
 23 24  1  0  0  0  0
 21 22  1  0  0  0  0
 21 23  2  0  0  0  0
 19 20  1  0  0  0  0
 19 21  1  0  0  0  0
 17 18  1  0  0  0  0
 17 19  2  0  0  0  0
 15 16  1  0  0  0  0
 15 17  1  0  0  0  0
 14 15  2  0  0  0  0
 14 23  1  0  0  0  0
 11 12  1  0  0  0  0
 11 13  1  0  0  0  0
 11 14  1  0  0  0  0
  9 10  1  0  0  0  0
  9 11  1  0  0  0  0
  9 25  1  0  0  0  0
  7  8  1  0  0  0  0
  7  9  1  0  0  0  0
 29 30  1  0  0  0  0
 29 31  1  0  0  0  0
 29 32  1  0  0  0  0
 27 28  1  0  0  0  0
 27 29  1  0  0  0  0
M  END
$$$$
default_name
  -OEChem-02102213163D

 32 32  0     1  0  0  0  0  0999 V2000
   -3.8405   -3.7518    1.6252 H   0  0  0  0  0  0  0  0  0  0  0  0
   -3.7965   -2.8768    0.9782 C   0  0  0  0  0  0  0  0  0  0  0  0
   -4.5465   -2.1527    1.2902 H   0  0  0  0  0  0  0  0  0  0  0  0
   -3.9745   -3.1748   -0.0538 H   0  0  0  0  0  0  0  0  0  0  0  0
   -2.4245   -2.2537    1.0882 C   0  0  0  0  0  0  0  0  0  0  0  0
   -1.5805   -2.7478    1.8242 O   0  0  0  0  0  0  0  0  0  0  0  0
   -2.2045   -1.1637    0.3562 N   0  0  0  0  0  0  0  0  0  0  0  0
   -2.9595   -0.7907   -0.2008 H   0  0  0  0  0  0  0  0  0  0  0  0
   -0.9485   -0.4087    0.3482 C   0  0  1  0  0  0  0  0  0  0  0  0
   -0.3666   -0.6914    1.2269 H   0  0  0  0  0  0  0  0  0  0  0  0
   -0.1405   -0.7797   -0.9072 C   0  0  0  0  0  0  0  0  0  0  0  0
   -0.7070   -1.5053   -1.4926 H   0  0  0  0  0  0  0  0  0  0  0  0
   -0.0150    0.1119   -1.5233 H   0  0  0  0  0  0  0  0  0  0  0  0
    1.2212   -1.3773   -0.6081 C   0  0  0  0  0  0  0  0  0  0  0  0
    1.3715   -2.7686   -0.4549 C   0  0  0  0  0  0  0  0  0  0  0  0
    0.5110   -3.4187   -0.5270 H   0  0  0  0  0  0  0  0  0  0  0  0
    2.6446   -3.3193   -0.2186 C   0  0  0  0  0  0  0  0  0  0  0  0
    2.7574   -4.3876   -0.0986 H   0  0  0  0  0  0  0  0  0  0  0  0
    3.7693   -2.4807   -0.1371 C   0  0  0  0  0  0  0  0  0  0  0  0
    4.7470   -2.9036    0.0467 H   0  0  0  0  0  0  0  0  0  0  0  0
    3.6224   -1.0898   -0.2884 C   0  0  0  0  0  0  0  0  0  0  0  0
    4.4860   -0.4446   -0.2203 H   0  0  0  0  0  0  0  0  0  0  0  0
    2.3495   -0.5395   -0.5212 C   0  0  0  0  0  0  0  0  0  0  0  0
    2.2373    0.5310   -0.6340 H   0  0  0  0  0  0  0  0  0  0  0  0
   -1.2168    1.1047    0.4313 C   0  0  0  0  0  0  0  0  0  0  0  0
   -2.0890    1.6186   -0.2704 O   0  0  0  0  0  0  0  0  0  0  0  0
   -0.4674    1.8182    1.2813 N   0  0  0  0  0  0  0  0  0  0  0  0
    0.2640    1.3348    1.7800 H   0  0  0  0  0  0  0  0  0  0  0  0
   -0.5889    3.2615    1.4722 C   0  0  0  0  0  0  0  0  0  0  0  0
   -1.6291    3.5206    1.6805 H   0  0  0  0  0  0  0  0  0  0  0  0
    0.0359    3.5855    2.3049 H   0  0  0  0  0  0  0  0  0  0  0  0
   -0.2760    3.7797    0.5637 H   0  0  0  0  0  0  0  0  0  0  0  0
  5  6  2  0  0  0  0
  5  7  1  0  0  0  0
  2  3  1  0  0  0  0
  2  4  1  0  0  0  0
  2  5  1  0  0  0  0
  1  2  1  0  0  0  0
 25 26  2  0  0  0  0
 25 27  1  0  0  0  0
 23 24  1  0  0  0  0
 21 22  1  0  0  0  0
 21 23  2  0  0  0  0
 19 20  1  0  0  0  0
 19 21  1  0  0  0  0
 17 18  1  0  0  0  0
 17 19  2  0  0  0  0
 15 16  1  0  0  0  0
 15 17  1  0  0  0  0
 14 15  2  0  0  0  0
 14 23  1  0  0  0  0
 11 12  1  0  0  0  0
 11 13  1  0  0  0  0
 11 14  1  0  0  0  0
  9 10  1  0  0  0  0
  9 11  1  0  0  0  0
  9 25  1  0  0  0  0
  7  8  1  0  0  0  0
  7  9  1  0  0  0  0
 29 30  1  0  0  0  0
 29 31  1  0  0  0  0
 29 32  1  0  0  0  0
 27 28  1  0  0  0  0
 27 29  1  0  0  0  0
M  END
$$$$
default_name
  -OEChem-02102213163D

 32 32  0     1  0  0  0  0  0999 V2000
   -3.8405   -3.7518    1.6252 H   0  0  0  0  0  0  0  0  0  0  0  0
   -3.7965   -2.8768    0.9782 C   0  0  0  0  0  0  0  0  0  0  0  0
   -4.5465   -2.1527    1.2902 H   0  0  0  0  0  0  0  0  0  0  0  0
   -3.9745   -3.1748   -0.0538 H   0  0  0  0  0  0  0  0  0  0  0  0
   -2.4245   -2.2537    1.0882 C   0  0  0  0  0  0  0  0  0  0  0  0
   -1.5805   -2.7478    1.8242 O   0  0  0  0  0  0  0  0  0  0  0  0
   -2.2045   -1.1637    0.3562 N   0  0  0  0  0  0  0  0  0  0  0  0
   -2.9595   -0.7907   -0.2008 H   0  0  0  0  0  0  0  0  0  0  0  0
   -0.9485   -0.4087    0.3482 C   0  0  1  0  0  0  0  0  0  0  0  0
   -0.3666   -0.6914    1.2269 H   0  0  0  0  0  0  0  0  0  0  0  0
   -0.1405   -0.7797   -0.9072 C   0  0  0  0  0  0  0  0  0  0  0  0
   -0.7070   -1.5053   -1.4926 H   0  0  0  0  0  0  0  0  0  0  0  0
   -0.0150    0.1119   -1.5233 H   0  0  0  0  0  0  0  0  0  0  0  0
    1.2212   -1.3773   -0.6081 C   0  0  0  0  0  0  0  0  0  0  0  0
    1.4436   -2.7587   -0.7632 C   0  0  0  0  0  0  0  0  0  0  0  0
    0.6366   -3.4067   -1.0753 H   0  0  0  0  0  0  0  0  0  0  0  0
    2.7203   -3.2994   -0.5237 C   0  0  0  0  0  0  0  0  0  0  0  0
    2.8882   -4.3608   -0.6409 H   0  0  0  0  0  0  0  0  0  0  0  0
    3.7768   -2.4603   -0.1309 C   0  0  0  0  0  0  0  0  0  0  0  0
    4.7572   -2.8761    0.0554 H   0  0  0  0  0  0  0  0  0  0  0  0
    3.5577   -1.0797    0.0265 C   0  0  0  0  0  0  0  0  0  0  0  0
    4.3683   -0.4354    0.3338 H   0  0  0  0  0  0  0  0  0  0  0  0
    2.2808   -0.5401   -0.2097 C   0  0  0  0  0  0  0  0  0  0  0  0
    2.1127    0.5217   -0.0851 H   0  0  0  0  0  0  0  0  0  0  0  0
   -1.2168    1.1047    0.4313 C   0  0  0  0  0  0  0  0  0  0  0  0
   -2.0890    1.6186   -0.2704 O   0  0  0  0  0  0  0  0  0  0  0  0
   -0.4674    1.8182    1.2813 N   0  0  0  0  0  0  0  0  0  0  0  0
    0.2640    1.3348    1.7800 H   0  0  0  0  0  0  0  0  0  0  0  0
   -0.5889    3.2615    1.4722 C   0  0  0  0  0  0  0  0  0  0  0  0
   -1.6291    3.5206    1.6805 H   0  0  0  0  0  0  0  0  0  0  0  0
    0.0359    3.5855    2.3049 H   0  0  0  0  0  0  0  0  0  0  0  0
   -0.2760    3.7797    0.5637 H   0  0  0  0  0  0  0  0  0  0  0  0
  5  6  2  0  0  0  0
  5  7  1  0  0  0  0
  2  3  1  0  0  0  0
  2  4  1  0  0  0  0
  2  5  1  0  0  0  0
  1  2  1  0  0  0  0
 25 26  2  0  0  0  0
 25 27  1  0  0  0  0
 23 24  1  0  0  0  0
 21 22  1  0  0  0  0
 21 23  2  0  0  0  0
 19 20  1  0  0  0  0
 19 21  1  0  0  0  0
 17 18  1  0  0  0  0
 17 19  2  0  0  0  0
 15 16  1  0  0  0  0
 15 17  1  0  0  0  0
 14 15  2  0  0  0  0
 14 23  1  0  0  0  0
 11 12  1  0  0  0  0
 11 13  1  0  0  0  0
 11 14  1  0  0  0  0
  9 10  1  0  0  0  0
  9 11  1  0  0  0  0
  9 25  1  0  0  0  0
  7  8  1  0  0  0  0
  7  9  1  0  0  0  0
 29 30  1  0  0  0  0
 29 31  1  0  0  0  0
 29 32  1  0  0  0  0
 27 28  1  0  0  0  0
 27 29  1  0  0  0  0
M  END
$$$$
default_name
  -OEChem-02102213163D

 32 32  0     1  0  0  0  0  0999 V2000
   -3.8405   -3.7518    1.6252 H   0  0  0  0  0  0  0  0  0  0  0  0
   -3.7965   -2.8768    0.9782 C   0  0  0  0  0  0  0  0  0  0  0  0
   -4.5465   -2.1527    1.2902 H   0  0  0  0  0  0  0  0  0  0  0  0
   -3.9745   -3.1748   -0.0538 H   0  0  0  0  0  0  0  0  0  0  0  0
   -2.4245   -2.2537    1.0882 C   0  0  0  0  0  0  0  0  0  0  0  0
   -1.5805   -2.7478    1.8242 O   0  0  0  0  0  0  0  0  0  0  0  0
   -2.2045   -1.1637    0.3562 N   0  0  0  0  0  0  0  0  0  0  0  0
   -2.9595   -0.7907   -0.2008 H   0  0  0  0  0  0  0  0  0  0  0  0
   -0.9485   -0.4087    0.3482 C   0  0  1  0  0  0  0  0  0  0  0  0
   -0.3666   -0.6914    1.2269 H   0  0  0  0  0  0  0  0  0  0  0  0
   -0.1405   -0.7797   -0.9072 C   0  0  0  0  0  0  0  0  0  0  0  0
   -0.7070   -1.5053   -1.4926 H   0  0  0  0  0  0  0  0  0  0  0  0
   -0.0150    0.1119   -1.5233 H   0  0  0  0  0  0  0  0  0  0  0  0
    1.2212   -1.3773   -0.6081 C   0  0  0  0  0  0  0  0  0  0  0  0
    1.5441   -2.6739   -1.0515 C   0  0  0  0  0  0  0  0  0  0  0  0
    0.8133   -3.2612   -1.5893 H   0  0  0  0  0  0  0  0  0  0  0  0
    2.8236   -3.2055   -0.8061 C   0  0  0  0  0  0  0  0  0  0  0  0
    3.0685   -4.2023   -1.1452 H   0  0  0  0  0  0  0  0  0  0  0  0
    3.7825   -2.4417   -0.1193 C   0  0  0  0  0  0  0  0  0  0  0  0
    4.7646   -2.8511    0.0713 H   0  0  0  0  0  0  0  0  0  0  0  0
    3.4626   -1.1463    0.3264 C   0  0  0  0  0  0  0  0  0  0  0  0
    4.1978   -0.5612    0.8592 H   0  0  0  0  0  0  0  0  0  0  0  0
    2.1828   -0.6165    0.0840 C   0  0  0  0  0  0  0  0  0  0  0  0
    1.9369    0.3789    0.4303 H   0  0  0  0  0  0  0  0  0  0  0  0
   -1.2168    1.1047    0.4313 C   0  0  0  0  0  0  0  0  0  0  0  0
   -2.0890    1.6186   -0.2704 O   0  0  0  0  0  0  0  0  0  0  0  0
   -0.4674    1.8182    1.2813 N   0  0  0  0  0  0  0  0  0  0  0  0
    0.2640    1.3348    1.7800 H   0  0  0  0  0  0  0  0  0  0  0  0
   -0.5889    3.2615    1.4722 C   0  0  0  0  0  0  0  0  0  0  0  0
   -1.6291    3.5206    1.6805 H   0  0  0  0  0  0  0  0  0  0  0  0
    0.0359    3.5855    2.3049 H   0  0  0  0  0  0  0  0  0  0  0  0
   -0.2760    3.7797    0.5637 H   0  0  0  0  0  0  0  0  0  0  0  0
  5  6  2  0  0  0  0
  5  7  1  0  0  0  0
  2  3  1  0  0  0  0
  2  4  1  0  0  0  0
  2  5  1  0  0  0  0
  1  2  1  0  0  0  0
 25 26  2  0  0  0  0
 25 27  1  0  0  0  0
 23 24  1  0  0  0  0
 21 22  1  0  0  0  0
 21 23  2  0  0  0  0
 19 20  1  0  0  0  0
 19 21  1  0  0  0  0
 17 18  1  0  0  0  0
 17 19  2  0  0  0  0
 15 16  1  0  0  0  0
 15 17  1  0  0  0  0
 14 15  2  0  0  0  0
 14 23  1  0  0  0  0
 11 12  1  0  0  0  0
 11 13  1  0  0  0  0
 11 14  1  0  0  0  0
  9 10  1  0  0  0  0
  9 11  1  0  0  0  0
  9 25  1  0  0  0  0
  7  8  1  0  0  0  0
  7  9  1  0  0  0  0
 29 30  1  0  0  0  0
 29 31  1  0  0  0  0
 29 32  1  0  0  0  0
 27 28  1  0  0  0  0
 27 29  1  0  0  0  0
M  END
$$$$
default_name
  -OEChem-02102213163D

 32 32  0     1  0  0  0  0  0999 V2000
   -3.8405   -3.7518    1.6252 H   0  0  0  0  0  0  0  0  0  0  0  0
   -3.7965   -2.8768    0.9782 C   0  0  0  0  0  0  0  0  0  0  0  0
   -4.5465   -2.1527    1.2902 H   0  0  0  0  0  0  0  0  0  0  0  0
   -3.9745   -3.1748   -0.0538 H   0  0  0  0  0  0  0  0  0  0  0  0
   -2.4245   -2.2537    1.0882 C   0  0  0  0  0  0  0  0  0  0  0  0
   -1.5805   -2.7478    1.8242 O   0  0  0  0  0  0  0  0  0  0  0  0
   -2.2045   -1.1637    0.3562 N   0  0  0  0  0  0  0  0  0  0  0  0
   -2.9595   -0.7907   -0.2008 H   0  0  0  0  0  0  0  0  0  0  0  0
   -0.9485   -0.4087    0.3482 C   0  0  1  0  0  0  0  0  0  0  0  0
   -0.3666   -0.6914    1.2269 H   0  0  0  0  0  0  0  0  0  0  0  0
   -0.1405   -0.7797   -0.9072 C   0  0  0  0  0  0  0  0  0  0  0  0
   -0.7070   -1.5053   -1.4926 H   0  0  0  0  0  0  0  0  0  0  0  0
   -0.0150    0.1119   -1.5233 H   0  0  0  0  0  0  0  0  0  0  0  0
    1.2212   -1.3773   -0.6081 C   0  0  0  0  0  0  0  0  0  0  0  0
    1.6663   -2.5198   -1.2999 C   0  0  0  0  0  0  0  0  0  0  0  0
    1.0290   -2.9923   -2.0340 H   0  0  0  0  0  0  0  0  0  0  0  0
    2.9473   -3.0439   -1.0466 C   0  0  0  0  0  0  0  0  0  0  0  0
    3.2860   -3.9228   -1.5770 H   0  0  0  0  0  0  0  0  0  0  0  0
    3.7858   -2.4262   -0.1032 C   0  0  0  0  0  0  0  0  0  0  0  0
    4.7690   -2.8303    0.0931 H   0  0  0  0  0  0  0  0  0  0  0  0
    3.3435   -1.2853    0.5909 C   0  0  0  0  0  0  0  0  0  0  0  0
    3.9858   -0.8135    1.3200 H   0  0  0  0  0  0  0  0  0  0  0  0
    2.0620   -0.7636    0.3399 C   0  0  0  0  0  0  0  0  0  0  0  0
    1.7217    0.1122    0.8770 H   0  0  0  0  0  0  0  0  0  0  0  0
   -1.2168    1.1047    0.4313 C   0  0  0  0  0  0  0  0  0  0  0  0
   -2.0890    1.6186   -0.2704 O   0  0  0  0  0  0  0  0  0  0  0  0
   -0.4674    1.8182    1.2813 N   0  0  0  0  0  0  0  0  0  0  0  0
    0.2640    1.3348    1.7800 H   0  0  0  0  0  0  0  0  0  0  0  0
   -0.5889    3.2615    1.4722 C   0  0  0  0  0  0  0  0  0  0  0  0
   -1.6291    3.5206    1.6805 H   0  0  0  0  0  0  0  0  0  0  0  0
    0.0359    3.5855    2.3049 H   0  0  0  0  0  0  0  0  0  0  0  0
   -0.2760    3.7797    0.5637 H   0  0  0  0  0  0  0  0  0  0  0  0
  5  6  2  0  0  0  0
  5  7  1  0  0  0  0
  2  3  1  0  0  0  0
  2  4  1  0  0  0  0
  2  5  1  0  0  0  0
  1  2  1  0  0  0  0
 25 26  2  0  0  0  0
 25 27  1  0  0  0  0
 23 24  1  0  0  0  0
 21 22  1  0  0  0  0
 21 23  2  0  0  0  0
 19 20  1  0  0  0  0
 19 21  1  0  0  0  0
 17 18  1  0  0  0  0
 17 19  2  0  0  0  0
 15 16  1  0  0  0  0
 15 17  1  0  0  0  0
 14 15  2  0  0  0  0
 14 23  1  0  0  0  0
 11 12  1  0  0  0  0
 11 13  1  0  0  0  0
 11 14  1  0  0  0  0
  9 10  1  0  0  0  0
  9 11  1  0  0  0  0
  9 25  1  0  0  0  0
  7  8  1  0  0  0  0
  7  9  1  0  0  0  0
 29 30  1  0  0  0  0
 29 31  1  0  0  0  0
 29 32  1  0  0  0  0
 27 28  1  0  0  0  0
 27 29  1  0  0  0  0
M  END
$$$$
default_name
  -OEChem-02102213163D

 32 32  0     1  0  0  0  0  0999 V2000
   -3.8405   -3.7518    1.6252 H   0  0  0  0  0  0  0  0  0  0  0  0
   -3.7965   -2.8768    0.9782 C   0  0  0  0  0  0  0  0  0  0  0  0
   -4.5465   -2.1527    1.2902 H   0  0  0  0  0  0  0  0  0  0  0  0
   -3.9745   -3.1748   -0.0538 H   0  0  0  0  0  0  0  0  0  0  0  0
   -2.4245   -2.2537    1.0882 C   0  0  0  0  0  0  0  0  0  0  0  0
   -1.5805   -2.7478    1.8242 O   0  0  0  0  0  0  0  0  0  0  0  0
   -2.2045   -1.1637    0.3562 N   0  0  0  0  0  0  0  0  0  0  0  0
   -2.9595   -0.7907   -0.2008 H   0  0  0  0  0  0  0  0  0  0  0  0
   -0.9485   -0.4087    0.3482 C   0  0  1  0  0  0  0  0  0  0  0  0
   -0.3666   -0.6914    1.2269 H   0  0  0  0  0  0  0  0  0  0  0  0
   -0.1405   -0.7797   -0.9072 C   0  0  0  0  0  0  0  0  0  0  0  0
   -0.7070   -1.5053   -1.4926 H   0  0  0  0  0  0  0  0  0  0  0  0
   -0.0150    0.1119   -1.5233 H   0  0  0  0  0  0  0  0  0  0  0  0
    1.2212   -1.3773   -0.6081 C   0  0  0  0  0  0  0  0  0  0  0  0
    1.8017   -2.3070   -1.4916 C   0  0  0  0  0  0  0  0  0  0  0  0
    1.2689   -2.6183   -2.3790 H   0  0  0  0  0  0  0  0  0  0  0  0
    3.0830   -2.8257   -1.2286 C   0  0  0  0  0  0  0  0  0  0  0  0
    3.5259   -3.5414   -1.9070 H   0  0  0  0  0  0  0  0  0  0  0  0
    3.7865   -2.4147   -0.0837 C   0  0  0  0  0  0  0  0  0  0  0  0
    4.7699   -2.8150    0.1195 H   0  0  0  0  0  0  0  0  0  0  0  0
    3.2087   -1.4870    0.8020 C   0  0  0  0  0  0  0  0  0  0  0  0
    3.7470   -1.1751    1.6849 H   0  0  0  0  0  0  0  0  0  0  0  0
    1.9268   -0.9713    0.5406 C   0  0  0  0  0  0  0  0  0  0  0  0
    1.4820   -0.2602    1.2245 H   0  0  0  0  0  0  0  0  0  0  0  0
   -1.2168    1.1047    0.4313 C   0  0  0  0  0  0  0  0  0  0  0  0
   -2.0890    1.6186   -0.2704 O   0  0  0  0  0  0  0  0  0  0  0  0
   -0.4674    1.8182    1.2813 N   0  0  0  0  0  0  0  0  0  0  0  0
    0.2640    1.3348    1.7800 H   0  0  0  0  0  0  0  0  0  0  0  0
   -0.5889    3.2615    1.4722 C   0  0  0  0  0  0  0  0  0  0  0  0
   -1.6291    3.5206    1.6805 H   0  0  0  0  0  0  0  0  0  0  0  0
    0.0359    3.5855    2.3049 H   0  0  0  0  0  0  0  0  0  0  0  0
   -0.2760    3.7797    0.5637 H   0  0  0  0  0  0  0  0  0  0  0  0
  5  6  2  0  0  0  0
  5  7  1  0  0  0  0
  2  3  1  0  0  0  0
  2  4  1  0  0  0  0
  2  5  1  0  0  0  0
  1  2  1  0  0  0  0
 25 26  2  0  0  0  0
 25 27  1  0  0  0  0
 23 24  1  0  0  0  0
 21 22  1  0  0  0  0
 21 23  2  0  0  0  0
 19 20  1  0  0  0  0
 19 21  1  0  0  0  0
 17 18  1  0  0  0  0
 17 19  2  0  0  0  0
 15 16  1  0  0  0  0
 15 17  1  0  0  0  0
 14 15  2  0  0  0  0
 14 23  1  0  0  0  0
 11 12  1  0  0  0  0
 11 13  1  0  0  0  0
 11 14  1  0  0  0  0
  9 10  1  0  0  0  0
  9 11  1  0  0  0  0
  9 25  1  0  0  0  0
  7  8  1  0  0  0  0
  7  9  1  0  0  0  0
 29 30  1  0  0  0  0
 29 31  1  0  0  0  0
 29 32  1  0  0  0  0
 27 28  1  0  0  0  0
 27 29  1  0  0  0  0
M  END
$$$$
default_name
  -OEChem-02102213163D

 32 32  0     1  0  0  0  0  0999 V2000
   -3.8405   -3.7518    1.6252 H   0  0  0  0  0  0  0  0  0  0  0  0
   -3.7965   -2.8768    0.9782 C   0  0  0  0  0  0  0  0  0  0  0  0
   -4.5465   -2.1527    1.2902 H   0  0  0  0  0  0  0  0  0  0  0  0
   -3.9745   -3.1748   -0.0538 H   0  0  0  0  0  0  0  0  0  0  0  0
   -2.4245   -2.2537    1.0882 C   0  0  0  0  0  0  0  0  0  0  0  0
   -1.5805   -2.7478    1.8242 O   0  0  0  0  0  0  0  0  0  0  0  0
   -2.2045   -1.1637    0.3562 N   0  0  0  0  0  0  0  0  0  0  0  0
   -2.9595   -0.7907   -0.2008 H   0  0  0  0  0  0  0  0  0  0  0  0
   -0.9485   -0.4087    0.3482 C   0  0  1  0  0  0  0  0  0  0  0  0
   -0.3666   -0.6914    1.2269 H   0  0  0  0  0  0  0  0  0  0  0  0
   -0.1405   -0.7797   -0.9072 C   0  0  0  0  0  0  0  0  0  0  0  0
   -0.7070   -1.5053   -1.4926 H   0  0  0  0  0  0  0  0  0  0  0  0
   -0.0150    0.1119   -1.5233 H   0  0  0  0  0  0  0  0  0  0  0  0
    1.2212   -1.3773   -0.6081 C   0  0  0  0  0  0  0  0  0  0  0  0
    1.9413   -2.0500   -1.6136 C   0  0  0  0  0  0  0  0  0  0  0  0
    1.5167   -2.1645   -2.6009 H   0  0  0  0  0  0  0  0  0  0  0  0
    3.2216   -2.5656   -1.3400 C   0  0  0  0  0  0  0  0  0  0  0  0
    3.7717   -3.0840   -2.1127 H   0  0  0  0  0  0  0  0  0  0  0  0
    3.7847   -2.4081   -0.0622 C   0  0  0  0  0  0  0  0  0  0  0  0
    4.7673   -2.8063    0.1487 H   0  0  0  0  0  0  0  0  0  0  0  0
    3.0672   -1.7378    0.9452 C   0  0  0  0  0  0  0  0  0  0  0  0
    3.4976   -1.6214    1.9290 H   0  0  0  0  0  0  0  0  0  0  0  0
    1.7864   -1.2254    0.6724 C   0  0  0  0  0  0  0  0  0  0  0  0
    1.2340   -0.7129    1.4493 H   0  0  0  0  0  0  0  0  0  0  0  0
   -1.2168    1.1047    0.4313 C   0  0  0  0  0  0  0  0  0  0  0  0
   -2.0890    1.6186   -0.2704 O   0  0  0  0  0  0  0  0  0  0  0  0
   -0.4674    1.8182    1.2813 N   0  0  0  0  0  0  0  0  0  0  0  0
    0.2640    1.3348    1.7800 H   0  0  0  0  0  0  0  0  0  0  0  0
   -0.5889    3.2615    1.4722 C   0  0  0  0  0  0  0  0  0  0  0  0
   -1.6291    3.5206    1.6805 H   0  0  0  0  0  0  0  0  0  0  0  0
    0.0359    3.5855    2.3049 H   0  0  0  0  0  0  0  0  0  0  0  0
   -0.2760    3.7797    0.5637 H   0  0  0  0  0  0  0  0  0  0  0  0
  5  6  2  0  0  0  0
  5  7  1  0  0  0  0
  2  3  1  0  0  0  0
  2  4  1  0  0  0  0
  2  5  1  0  0  0  0
  1  2  1  0  0  0  0
 25 26  2  0  0  0  0
 25 27  1  0  0  0  0
 23 24  1  0  0  0  0
 21 22  1  0  0  0  0
 21 23  2  0  0  0  0
 19 20  1  0  0  0  0
 19 21  1  0  0  0  0
 17 18  1  0  0  0  0
 17 19  2  0  0  0  0
 15 16  1  0  0  0  0
 15 17  1  0  0  0  0
 14 15  2  0  0  0  0
 14 23  1  0  0  0  0
 11 12  1  0  0  0  0
 11 13  1  0  0  0  0
 11 14  1  0  0  0  0
  9 10  1  0  0  0  0
  9 11  1  0  0  0  0
  9 25  1  0  0  0  0
  7  8  1  0  0  0  0
  7  9  1  0  0  0  0
 29 30  1  0  0  0  0
 29 31  1  0  0  0  0
 29 32  1  0  0  0  0
 27 28  1  0  0  0  0
 27 29  1  0  0  0  0
M  END
$$$$
default_name
  -OEChem-02102213163D

 32 32  0     1  0  0  0  0  0999 V2000
   -3.8405   -3.7518    1.6252 H   0  0  0  0  0  0  0  0  0  0  0  0
   -3.7965   -2.8768    0.9782 C   0  0  0  0  0  0  0  0  0  0  0  0
   -4.5465   -2.1527    1.2902 H   0  0  0  0  0  0  0  0  0  0  0  0
   -3.9745   -3.1748   -0.0538 H   0  0  0  0  0  0  0  0  0  0  0  0
   -2.4245   -2.2537    1.0882 C   0  0  0  0  0  0  0  0  0  0  0  0
   -1.5805   -2.7478    1.8242 O   0  0  0  0  0  0  0  0  0  0  0  0
   -2.2045   -1.1637    0.3562 N   0  0  0  0  0  0  0  0  0  0  0  0
   -2.9595   -0.7907   -0.2008 H   0  0  0  0  0  0  0  0  0  0  0  0
   -0.9485   -0.4087    0.3482 C   0  0  1  0  0  0  0  0  0  0  0  0
   -0.3666   -0.6914    1.2269 H   0  0  0  0  0  0  0  0  0  0  0  0
   -0.1405   -0.7797   -0.9072 C   0  0  0  0  0  0  0  0  0  0  0  0
   -0.7981   -1.2843   -1.6165 H   0  0  0  0  0  0  0  0  0  0  0  0
    0.2138    0.1359   -1.3831 H   0  0  0  0  0  0  0  0  0  0  0  0
    1.0410   -1.6902   -0.6317 C   0  0  0  0  0  0  0  0  0  0  0  0
    1.8744   -2.1152   -1.6837 C   0  0  0  0  0  0  0  0  0  0  0  0
    1.6632   -1.8127   -2.6996 H   0  0  0  0  0  0  0  0  0  0  0  0
    2.9925   -2.9261   -1.4148 C   0  0  0  0  0  0  0  0  0  0  0  0
    3.6297   -3.2535   -2.2244 H   0  0  0  0  0  0  0  0  0  0  0  0
    3.2802   -3.3118   -0.0945 C   0  0  0  0  0  0  0  0  0  0  0  0
    4.1378   -3.9367    0.1117 H   0  0  0  0  0  0  0  0  0  0  0  0
    2.4485   -2.8901    0.9588 C   0  0  0  0  0  0  0  0  0  0  0  0
    2.6664   -3.1909    1.9731 H   0  0  0  0  0  0  0  0  0  0  0  0
    1.3294   -2.0824    0.6894 C   0  0  0  0  0  0  0  0  0  0  0  0
    0.6884   -1.7614    1.5003 H   0  0  0  0  0  0  0  0  0  0  0  0
   -1.2168    1.1047    0.4313 C   0  0  0  0  0  0  0  0  0  0  0  0
   -2.0890    1.6186   -0.2704 O   0  0  0  0  0  0  0  0  0  0  0  0
   -0.4674    1.8182    1.2813 N   0  0  0  0  0  0  0  0  0  0  0  0
    0.2640    1.3348    1.7800 H   0  0  0  0  0  0  0  0  0  0  0  0
   -0.5889    3.2615    1.4722 C   0  0  0  0  0  0  0  0  0  0  0  0
   -1.6291    3.5206    1.6805 H   0  0  0  0  0  0  0  0  0  0  0  0
    0.0359    3.5855    2.3049 H   0  0  0  0  0  0  0  0  0  0  0  0
   -0.2760    3.7797    0.5637 H   0  0  0  0  0  0  0  0  0  0  0  0
  5  6  2  0  0  0  0
  5  7  1  0  0  0  0
  2  3  1  0  0  0  0
  2  4  1  0  0  0  0
  2  5  1  0  0  0  0
  1  2  1  0  0  0  0
 25 26  2  0  0  0  0
 25 27  1  0  0  0  0
 23 24  1  0  0  0  0
 21 22  1  0  0  0  0
 21 23  2  0  0  0  0
 19 20  1  0  0  0  0
 19 21  1  0  0  0  0
 17 18  1  0  0  0  0
 17 19  2  0  0  0  0
 15 16  1  0  0  0  0
 15 17  1  0  0  0  0
 14 15  2  0  0  0  0
 14 23  1  0  0  0  0
 11 12  1  0  0  0  0
 11 13  1  0  0  0  0
 11 14  1  0  0  0  0
  9 10  1  0  0  0  0
  9 11  1  0  0  0  0
  9 25  1  0  0  0  0
  7  8  1  0  0  0  0
  7  9  1  0  0  0  0
 29 30  1  0  0  0  0
 29 31  1  0  0  0  0
 29 32  1  0  0  0  0
 27 28  1  0  0  0  0
 27 29  1  0  0  0  0
M  END
$$$$
default_name
  -OEChem-02102213163D

 32 32  0     1  0  0  0  0  0999 V2000
   -3.8405   -3.7518    1.6252 H   0  0  0  0  0  0  0  0  0  0  0  0
   -3.7965   -2.8768    0.9782 C   0  0  0  0  0  0  0  0  0  0  0  0
   -4.5465   -2.1527    1.2902 H   0  0  0  0  0  0  0  0  0  0  0  0
   -3.9745   -3.1748   -0.0538 H   0  0  0  0  0  0  0  0  0  0  0  0
   -2.4245   -2.2537    1.0882 C   0  0  0  0  0  0  0  0  0  0  0  0
   -1.5805   -2.7478    1.8242 O   0  0  0  0  0  0  0  0  0  0  0  0
   -2.2045   -1.1637    0.3562 N   0  0  0  0  0  0  0  0  0  0  0  0
   -2.9595   -0.7907   -0.2008 H   0  0  0  0  0  0  0  0  0  0  0  0
   -0.9485   -0.4087    0.3482 C   0  0  1  0  0  0  0  0  0  0  0  0
   -0.3666   -0.6914    1.2269 H   0  0  0  0  0  0  0  0  0  0  0  0
   -0.1405   -0.7797   -0.9072 C   0  0  0  0  0  0  0  0  0  0  0  0
   -0.7981   -1.2843   -1.6165 H   0  0  0  0  0  0  0  0  0  0  0  0
    0.2138    0.1359   -1.3831 H   0  0  0  0  0  0  0  0  0  0  0  0
    1.0410   -1.6902   -0.6317 C   0  0  0  0  0  0  0  0  0  0  0  0
    2.0484   -1.8641   -1.5996 C   0  0  0  0  0  0  0  0  0  0  0  0
    1.9738   -1.3661   -2.5560 H   0  0  0  0  0  0  0  0  0  0  0  0
    3.1620   -2.6778   -1.3210 C   0  0  0  0  0  0  0  0  0  0  0  0
    3.9331   -2.8120   -2.0665 H   0  0  0  0  0  0  0  0  0  0  0  0
    3.2713   -3.3171   -0.0744 C   0  0  0  0  0  0  0  0  0  0  0  0
    4.1258   -3.9441    0.1387 H   0  0  0  0  0  0  0  0  0  0  0  0
    2.2657   -3.1467    0.8944 C   0  0  0  0  0  0  0  0  0  0  0  0
    2.3469   -3.6424    1.8507 H   0  0  0  0  0  0  0  0  0  0  0  0
    1.1513   -2.3361    0.6145 C   0  0  0  0  0  0  0  0  0  0  0  0
    0.3767   -2.2085    1.3595 H   0  0  0  0  0  0  0  0  0  0  0  0
   -1.2168    1.1047    0.4313 C   0  0  0  0  0  0  0  0  0  0  0  0
   -2.0890    1.6186   -0.2704 O   0  0  0  0  0  0  0  0  0  0  0  0
   -0.4674    1.8182    1.2813 N   0  0  0  0  0  0  0  0  0  0  0  0
    0.2640    1.3348    1.7800 H   0  0  0  0  0  0  0  0  0  0  0  0
   -0.5889    3.2615    1.4722 C   0  0  0  0  0  0  0  0  0  0  0  0
   -1.6291    3.5206    1.6805 H   0  0  0  0  0  0  0  0  0  0  0  0
    0.0359    3.5855    2.3049 H   0  0  0  0  0  0  0  0  0  0  0  0
   -0.2760    3.7797    0.5637 H   0  0  0  0  0  0  0  0  0  0  0  0
  5  6  2  0  0  0  0
  5  7  1  0  0  0  0
  2  3  1  0  0  0  0
  2  4  1  0  0  0  0
  2  5  1  0  0  0  0
  1  2  1  0  0  0  0
 25 26  2  0  0  0  0
 25 27  1  0  0  0  0
 23 24  1  0  0  0  0
 21 22  1  0  0  0  0
 21 23  2  0  0  0  0
 19 20  1  0  0  0  0
 19 21  1  0  0  0  0
 17 18  1  0  0  0  0
 17 19  2  0  0  0  0
 15 16  1  0  0  0  0
 15 17  1  0  0  0  0
 14 15  2  0  0  0  0
 14 23  1  0  0  0  0
 11 12  1  0  0  0  0
 11 13  1  0  0  0  0
 11 14  1  0  0  0  0
  9 10  1  0  0  0  0
  9 11  1  0  0  0  0
  9 25  1  0  0  0  0
  7  8  1  0  0  0  0
  7  9  1  0  0  0  0
 29 30  1  0  0  0  0
 29 31  1  0  0  0  0
 29 32  1  0  0  0  0
 27 28  1  0  0  0  0
 27 29  1  0  0  0  0
M  END
$$$$
default_name
  -OEChem-02102213163D

 32 32  0     1  0  0  0  0  0999 V2000
   -3.8405   -3.7518    1.6252 H   0  0  0  0  0  0  0  0  0  0  0  0
   -3.7965   -2.8768    0.9782 C   0  0  0  0  0  0  0  0  0  0  0  0
   -4.5465   -2.1527    1.2902 H   0  0  0  0  0  0  0  0  0  0  0  0
   -3.9745   -3.1748   -0.0538 H   0  0  0  0  0  0  0  0  0  0  0  0
   -2.4245   -2.2537    1.0882 C   0  0  0  0  0  0  0  0  0  0  0  0
   -1.5805   -2.7478    1.8242 O   0  0  0  0  0  0  0  0  0  0  0  0
   -2.2045   -1.1637    0.3562 N   0  0  0  0  0  0  0  0  0  0  0  0
   -2.9595   -0.7907   -0.2008 H   0  0  0  0  0  0  0  0  0  0  0  0
   -0.9485   -0.4087    0.3482 C   0  0  1  0  0  0  0  0  0  0  0  0
   -0.3666   -0.6914    1.2269 H   0  0  0  0  0  0  0  0  0  0  0  0
   -0.1405   -0.7797   -0.9072 C   0  0  0  0  0  0  0  0  0  0  0  0
   -0.7981   -1.2843   -1.6165 H   0  0  0  0  0  0  0  0  0  0  0  0
    0.2138    0.1359   -1.3831 H   0  0  0  0  0  0  0  0  0  0  0  0
    1.0410   -1.6902   -0.6317 C   0  0  0  0  0  0  0  0  0  0  0  0
    2.1915   -1.6303   -1.4407 C   0  0  0  0  0  0  0  0  0  0  0  0
    2.2306   -0.9491   -2.2791 H   0  0  0  0  0  0  0  0  0  0  0  0
    3.2995   -2.4488   -1.1539 C   0  0  0  0  0  0  0  0  0  0  0  0
    4.1810   -2.4031   -1.7780 H   0  0  0  0  0  0  0  0  0  0  0  0
    3.2599   -3.3268   -0.0574 C   0  0  0  0  0  0  0  0  0  0  0  0
    4.1103   -3.9573    0.1615 H   0  0  0  0  0  0  0  0  0  0  0  0
    2.1112   -3.3902    0.7521 C   0  0  0  0  0  0  0  0  0  0  0  0
    2.0786   -4.0690    1.5918 H   0  0  0  0  0  0  0  0  0  0  0  0
    1.0029   -2.5745    0.4633 C   0  0  0  0  0  0  0  0  0  0  0  0
    0.1184   -2.6267    1.0849 H   0  0  0  0  0  0  0  0  0  0  0  0
   -1.2168    1.1047    0.4313 C   0  0  0  0  0  0  0  0  0  0  0  0
   -2.0890    1.6186   -0.2704 O   0  0  0  0  0  0  0  0  0  0  0  0
   -0.4674    1.8182    1.2813 N   0  0  0  0  0  0  0  0  0  0  0  0
    0.2640    1.3348    1.7800 H   0  0  0  0  0  0  0  0  0  0  0  0
   -0.5889    3.2615    1.4722 C   0  0  0  0  0  0  0  0  0  0  0  0
   -1.6291    3.5206    1.6805 H   0  0  0  0  0  0  0  0  0  0  0  0
    0.0359    3.5855    2.3049 H   0  0  0  0  0  0  0  0  0  0  0  0
   -0.2760    3.7797    0.5637 H   0  0  0  0  0  0  0  0  0  0  0  0
  5  6  2  0  0  0  0
  5  7  1  0  0  0  0
  2  3  1  0  0  0  0
  2  4  1  0  0  0  0
  2  5  1  0  0  0  0
  1  2  1  0  0  0  0
 25 26  2  0  0  0  0
 25 27  1  0  0  0  0
 23 24  1  0  0  0  0
 21 22  1  0  0  0  0
 21 23  2  0  0  0  0
 19 20  1  0  0  0  0
 19 21  1  0  0  0  0
 17 18  1  0  0  0  0
 17 19  2  0  0  0  0
 15 16  1  0  0  0  0
 15 17  1  0  0  0  0
 14 15  2  0  0  0  0
 14 23  1  0  0  0  0
 11 12  1  0  0  0  0
 11 13  1  0  0  0  0
 11 14  1  0  0  0  0
  9 10  1  0  0  0  0
  9 11  1  0  0  0  0
  9 25  1  0  0  0  0
  7  8  1  0  0  0  0
  7  9  1  0  0  0  0
 29 30  1  0  0  0  0
 29 31  1  0  0  0  0
 29 32  1  0  0  0  0
 27 28  1  0  0  0  0
 27 29  1  0  0  0  0
M  END
$$$$
default_name
  -OEChem-02102213163D

 32 32  0     1  0  0  0  0  0999 V2000
   -3.8405   -3.7518    1.6252 H   0  0  0  0  0  0  0  0  0  0  0  0
   -3.7965   -2.8768    0.9782 C   0  0  0  0  0  0  0  0  0  0  0  0
   -4.5465   -2.1527    1.2902 H   0  0  0  0  0  0  0  0  0  0  0  0
   -3.9745   -3.1748   -0.0538 H   0  0  0  0  0  0  0  0  0  0  0  0
   -2.4245   -2.2537    1.0882 C   0  0  0  0  0  0  0  0  0  0  0  0
   -1.5805   -2.7478    1.8242 O   0  0  0  0  0  0  0  0  0  0  0  0
   -2.2045   -1.1637    0.3562 N   0  0  0  0  0  0  0  0  0  0  0  0
   -2.9595   -0.7907   -0.2008 H   0  0  0  0  0  0  0  0  0  0  0  0
   -0.9485   -0.4087    0.3482 C   0  0  1  0  0  0  0  0  0  0  0  0
   -0.3666   -0.6914    1.2269 H   0  0  0  0  0  0  0  0  0  0  0  0
   -0.1405   -0.7797   -0.9072 C   0  0  0  0  0  0  0  0  0  0  0  0
   -0.7981   -1.2843   -1.6165 H   0  0  0  0  0  0  0  0  0  0  0  0
    0.2138    0.1359   -1.3831 H   0  0  0  0  0  0  0  0  0  0  0  0
    1.0410   -1.6902   -0.6317 C   0  0  0  0  0  0  0  0  0  0  0  0
    2.2941   -1.4298   -1.2179 C   0  0  0  0  0  0  0  0  0  0  0  0
    2.4161   -0.5901   -1.8876 H   0  0  0  0  0  0  0  0  0  0  0  0
    3.3956   -2.2549   -0.9250 C   0  0  0  0  0  0  0  0  0  0  0  0
    4.3563   -2.0547   -1.3783 H   0  0  0  0  0  0  0  0  0  0  0  0
    3.2467   -3.3401   -0.0447 C   0  0  0  0  0  0  0  0  0  0  0  0
    4.0924   -3.9754    0.1784 H   0  0  0  0  0  0  0  0  0  0  0  0
    1.9955   -3.6040    0.5416 C   0  0  0  0  0  0  0  0  0  0  0  0
    1.8797   -4.4414    1.2140 H   0  0  0  0  0  0  0  0  0  0  0  0
    0.8942   -2.7812    0.2461 C   0  0  0  0  0  0  0  0  0  0  0  0
   -0.0687   -2.9873    0.6953 H   0  0  0  0  0  0  0  0  0  0  0  0
   -1.2168    1.1047    0.4313 C   0  0  0  0  0  0  0  0  0  0  0  0
   -2.0890    1.6186   -0.2704 O   0  0  0  0  0  0  0  0  0  0  0  0
   -0.4674    1.8182    1.2813 N   0  0  0  0  0  0  0  0  0  0  0  0
    0.2640    1.3348    1.7800 H   0  0  0  0  0  0  0  0  0  0  0  0
   -0.5889    3.2615    1.4722 C   0  0  0  0  0  0  0  0  0  0  0  0
   -1.6291    3.5206    1.6805 H   0  0  0  0  0  0  0  0  0  0  0  0
    0.0359    3.5855    2.3049 H   0  0  0  0  0  0  0  0  0  0  0  0
   -0.2760    3.7797    0.5637 H   0  0  0  0  0  0  0  0  0  0  0  0
  5  6  2  0  0  0  0
  5  7  1  0  0  0  0
  2  3  1  0  0  0  0
  2  4  1  0  0  0  0
  2  5  1  0  0  0  0
  1  2  1  0  0  0  0
 25 26  2  0  0  0  0
 25 27  1  0  0  0  0
 23 24  1  0  0  0  0
 21 22  1  0  0  0  0
 21 23  2  0  0  0  0
 19 20  1  0  0  0  0
 19 21  1  0  0  0  0
 17 18  1  0  0  0  0
 17 19  2  0  0  0  0
 15 16  1  0  0  0  0
 15 17  1  0  0  0  0
 14 15  2  0  0  0  0
 14 23  1  0  0  0  0
 11 12  1  0  0  0  0
 11 13  1  0  0  0  0
 11 14  1  0  0  0  0
  9 10  1  0  0  0  0
  9 11  1  0  0  0  0
  9 25  1  0  0  0  0
  7  8  1  0  0  0  0
  7  9  1  0  0  0  0
 29 30  1  0  0  0  0
 29 31  1  0  0  0  0
 29 32  1  0  0  0  0
 27 28  1  0  0  0  0
 27 29  1  0  0  0  0
M  END
$$$$
default_name
  -OEChem-02102213163D

 32 32  0     1  0  0  0  0  0999 V2000
   -3.8405   -3.7518    1.6252 H   0  0  0  0  0  0  0  0  0  0  0  0
   -3.7965   -2.8768    0.9782 C   0  0  0  0  0  0  0  0  0  0  0  0
   -4.5465   -2.1527    1.2902 H   0  0  0  0  0  0  0  0  0  0  0  0
   -3.9745   -3.1748   -0.0538 H   0  0  0  0  0  0  0  0  0  0  0  0
   -2.4245   -2.2537    1.0882 C   0  0  0  0  0  0  0  0  0  0  0  0
   -1.5805   -2.7478    1.8242 O   0  0  0  0  0  0  0  0  0  0  0  0
   -2.2045   -1.1637    0.3562 N   0  0  0  0  0  0  0  0  0  0  0  0
   -2.9595   -0.7907   -0.2008 H   0  0  0  0  0  0  0  0  0  0  0  0
   -0.9485   -0.4087    0.3482 C   0  0  1  0  0  0  0  0  0  0  0  0
   -0.3666   -0.6914    1.2269 H   0  0  0  0  0  0  0  0  0  0  0  0
   -0.1405   -0.7797   -0.9072 C   0  0  0  0  0  0  0  0  0  0  0  0
   -0.7981   -1.2843   -1.6165 H   0  0  0  0  0  0  0  0  0  0  0  0
    0.2138    0.1359   -1.3831 H   0  0  0  0  0  0  0  0  0  0  0  0
    1.0410   -1.6902   -0.6317 C   0  0  0  0  0  0  0  0  0  0  0  0
    2.3492   -1.2761   -0.9463 C   0  0  0  0  0  0  0  0  0  0  0  0
    2.5175   -0.3135   -1.4082 H   0  0  0  0  0  0  0  0  0  0  0  0
    3.4437   -2.1092   -0.6499 C   0  0  0  0  0  0  0  0  0  0  0  0
    4.4472   -1.7904   -0.8947 H   0  0  0  0  0  0  0  0  0  0  0  0
    3.2326   -3.3561   -0.0372 C   0  0  0  0  0  0  0  0  0  0  0  0
    4.0734   -3.9971    0.1883 H   0  0  0  0  0  0  0  0  0  0  0  0
    1.9265   -3.7736    0.2771 C   0  0  0  0  0  0  0  0  0  0  0  0
    1.7637   -4.7343    0.7432 H   0  0  0  0  0  0  0  0  0  0  0  0
    0.8326   -2.9422   -0.0222 C   0  0  0  0  0  0  0  0  0  0  0  0
   -0.1720   -3.2660    0.2171 H   0  0  0  0  0  0  0  0  0  0  0  0
   -1.2168    1.1047    0.4313 C   0  0  0  0  0  0  0  0  0  0  0  0
   -2.0890    1.6186   -0.2704 O   0  0  0  0  0  0  0  0  0  0  0  0
   -0.4674    1.8182    1.2813 N   0  0  0  0  0  0  0  0  0  0  0  0
    0.2640    1.3348    1.7800 H   0  0  0  0  0  0  0  0  0  0  0  0
   -0.5889    3.2615    1.4722 C   0  0  0  0  0  0  0  0  0  0  0  0
   -1.6291    3.5206    1.6805 H   0  0  0  0  0  0  0  0  0  0  0  0
    0.0359    3.5855    2.3049 H   0  0  0  0  0  0  0  0  0  0  0  0
   -0.2760    3.7797    0.5637 H   0  0  0  0  0  0  0  0  0  0  0  0
  5  6  2  0  0  0  0
  5  7  1  0  0  0  0
  2  3  1  0  0  0  0
  2  4  1  0  0  0  0
  2  5  1  0  0  0  0
  1  2  1  0  0  0  0
 25 26  2  0  0  0  0
 25 27  1  0  0  0  0
 23 24  1  0  0  0  0
 21 22  1  0  0  0  0
 21 23  2  0  0  0  0
 19 20  1  0  0  0  0
 19 21  1  0  0  0  0
 17 18  1  0  0  0  0
 17 19  2  0  0  0  0
 15 16  1  0  0  0  0
 15 17  1  0  0  0  0
 14 15  2  0  0  0  0
 14 23  1  0  0  0  0
 11 12  1  0  0  0  0
 11 13  1  0  0  0  0
 11 14  1  0  0  0  0
  9 10  1  0  0  0  0
  9 11  1  0  0  0  0
  9 25  1  0  0  0  0
  7  8  1  0  0  0  0
  7  9  1  0  0  0  0
 29 30  1  0  0  0  0
 29 31  1  0  0  0  0
 29 32  1  0  0  0  0
 27 28  1  0  0  0  0
 27 29  1  0  0  0  0
M  END
$$$$
default_name
  -OEChem-02102213163D

 32 32  0     1  0  0  0  0  0999 V2000
   -3.8405   -3.7518    1.6252 H   0  0  0  0  0  0  0  0  0  0  0  0
   -3.7965   -2.8768    0.9782 C   0  0  0  0  0  0  0  0  0  0  0  0
   -4.5465   -2.1527    1.2902 H   0  0  0  0  0  0  0  0  0  0  0  0
   -3.9745   -3.1748   -0.0538 H   0  0  0  0  0  0  0  0  0  0  0  0
   -2.4245   -2.2537    1.0882 C   0  0  0  0  0  0  0  0  0  0  0  0
   -1.5805   -2.7478    1.8242 O   0  0  0  0  0  0  0  0  0  0  0  0
   -2.2045   -1.1637    0.3562 N   0  0  0  0  0  0  0  0  0  0  0  0
   -2.9595   -0.7907   -0.2008 H   0  0  0  0  0  0  0  0  0  0  0  0
   -0.9485   -0.4087    0.3482 C   0  0  1  0  0  0  0  0  0  0  0  0
   -0.3666   -0.6914    1.2269 H   0  0  0  0  0  0  0  0  0  0  0  0
   -0.1405   -0.7797   -0.9072 C   0  0  0  0  0  0  0  0  0  0  0  0
   -0.7981   -1.2843   -1.6165 H   0  0  0  0  0  0  0  0  0  0  0  0
    0.2138    0.1359   -1.3831 H   0  0  0  0  0  0  0  0  0  0  0  0
    1.0410   -1.6902   -0.6317 C   0  0  0  0  0  0  0  0  0  0  0  0
    2.3529   -1.1799   -0.6445 C   0  0  0  0  0  0  0  0  0  0  0  0
    2.5279   -0.1382   -0.8737 H   0  0  0  0  0  0  0  0  0  0  0  0
    3.4406   -2.0217   -0.3474 C   0  0  0  0  0  0  0  0  0  0  0  0
    4.4475   -1.6284   -0.3603 H   0  0  0  0  0  0  0  0  0  0  0  0
    3.2186   -3.3737   -0.0354 C   0  0  0  0  0  0  0  0  0  0  0  0
    4.0545   -4.0210    0.1905 H   0  0  0  0  0  0  0  0  0  0  0  0
    1.9090   -3.8872   -0.0232 C   0  0  0  0  0  0  0  0  0  0  0  0
    1.7386   -4.9277    0.2113 H   0  0  0  0  0  0  0  0  0  0  0  0
    0.8225   -3.0465   -0.3234 C   0  0  0  0  0  0  0  0  0  0  0  0
   -0.1843   -3.4436   -0.3169 H   0  0  0  0  0  0  0  0  0  0  0  0
   -1.2168    1.1047    0.4313 C   0  0  0  0  0  0  0  0  0  0  0  0
   -2.0890    1.6186   -0.2704 O   0  0  0  0  0  0  0  0  0  0  0  0
   -0.4674    1.8182    1.2813 N   0  0  0  0  0  0  0  0  0  0  0  0
    0.2640    1.3348    1.7800 H   0  0  0  0  0  0  0  0  0  0  0  0
   -0.5889    3.2615    1.4722 C   0  0  0  0  0  0  0  0  0  0  0  0
   -1.6291    3.5206    1.6805 H   0  0  0  0  0  0  0  0  0  0  0  0
    0.0359    3.5855    2.3049 H   0  0  0  0  0  0  0  0  0  0  0  0
   -0.2760    3.7797    0.5637 H   0  0  0  0  0  0  0  0  0  0  0  0
  5  6  2  0  0  0  0
  5  7  1  0  0  0  0
  2  3  1  0  0  0  0
  2  4  1  0  0  0  0
  2  5  1  0  0  0  0
  1  2  1  0  0  0  0
 25 26  2  0  0  0  0
 25 27  1  0  0  0  0
 23 24  1  0  0  0  0
 21 22  1  0  0  0  0
 21 23  2  0  0  0  0
 19 20  1  0  0  0  0
 19 21  1  0  0  0  0
 17 18  1  0  0  0  0
 17 19  2  0  0  0  0
 15 16  1  0  0  0  0
 15 17  1  0  0  0  0
 14 15  2  0  0  0  0
 14 23  1  0  0  0  0
 11 12  1  0  0  0  0
 11 13  1  0  0  0  0
 11 14  1  0  0  0  0
  9 10  1  0  0  0  0
  9 11  1  0  0  0  0
  9 25  1  0  0  0  0
  7  8  1  0  0  0  0
  7  9  1  0  0  0  0
 29 30  1  0  0  0  0
 29 31  1  0  0  0  0
 29 32  1  0  0  0  0
 27 28  1  0  0  0  0
 27 29  1  0  0  0  0
M  END
$$$$
default_name
  -OEChem-02102213163D

 32 32  0     1  0  0  0  0  0999 V2000
   -3.8405   -3.7518    1.6252 H   0  0  0  0  0  0  0  0  0  0  0  0
   -3.7965   -2.8768    0.9782 C   0  0  0  0  0  0  0  0  0  0  0  0
   -4.5465   -2.1527    1.2902 H   0  0  0  0  0  0  0  0  0  0  0  0
   -3.9745   -3.1748   -0.0538 H   0  0  0  0  0  0  0  0  0  0  0  0
   -2.4245   -2.2537    1.0882 C   0  0  0  0  0  0  0  0  0  0  0  0
   -1.5805   -2.7478    1.8242 O   0  0  0  0  0  0  0  0  0  0  0  0
   -2.2045   -1.1637    0.3562 N   0  0  0  0  0  0  0  0  0  0  0  0
   -2.9595   -0.7907   -0.2008 H   0  0  0  0  0  0  0  0  0  0  0  0
   -0.9485   -0.4087    0.3482 C   0  0  1  0  0  0  0  0  0  0  0  0
   -0.3666   -0.6914    1.2269 H   0  0  0  0  0  0  0  0  0  0  0  0
   -0.1405   -0.7797   -0.9072 C   0  0  0  0  0  0  0  0  0  0  0  0
   -0.7981   -1.2843   -1.6165 H   0  0  0  0  0  0  0  0  0  0  0  0
    0.2138    0.1359   -1.3831 H   0  0  0  0  0  0  0  0  0  0  0  0
    1.0410   -1.6902   -0.6317 C   0  0  0  0  0  0  0  0  0  0  0  0
    2.3052   -1.1477   -0.3329 C   0  0  0  0  0  0  0  0  0  0  0  0
    2.4468   -0.0762   -0.3204 H   0  0  0  0  0  0  0  0  0  0  0  0
    3.3865   -1.9983   -0.0379 C   0  0  0  0  0  0  0  0  0  0  0  0
    4.3570   -1.5797    0.1887 H   0  0  0  0  0  0  0  0  0  0  0  0
    3.2056   -3.3918   -0.0393 C   0  0  0  0  0  0  0  0  0  0  0  0
    4.0370   -4.0453    0.1850 H   0  0  0  0  0  0  0  0  0  0  0  0
    1.9440   -3.9373   -0.3390 C   0  0  0  0  0  0  0  0  0  0  0  0
    1.8061   -5.0086   -0.3454 H   0  0  0  0  0  0  0  0  0  0  0  0
    0.8643   -3.0871   -0.6369 C   0  0  0  0  0  0  0  0  0  0  0  0
   -0.1049   -3.5081   -0.8705 H   0  0  0  0  0  0  0  0  0  0  0  0
   -1.2168    1.1047    0.4313 C   0  0  0  0  0  0  0  0  0  0  0  0
   -2.0890    1.6186   -0.2704 O   0  0  0  0  0  0  0  0  0  0  0  0
   -0.4674    1.8182    1.2813 N   0  0  0  0  0  0  0  0  0  0  0  0
    0.2640    1.3348    1.7800 H   0  0  0  0  0  0  0  0  0  0  0  0
   -0.5889    3.2615    1.4722 C   0  0  0  0  0  0  0  0  0  0  0  0
   -1.6291    3.5206    1.6805 H   0  0  0  0  0  0  0  0  0  0  0  0
    0.0359    3.5855    2.3049 H   0  0  0  0  0  0  0  0  0  0  0  0
   -0.2760    3.7797    0.5637 H   0  0  0  0  0  0  0  0  0  0  0  0
  5  6  2  0  0  0  0
  5  7  1  0  0  0  0
  2  3  1  0  0  0  0
  2  4  1  0  0  0  0
  2  5  1  0  0  0  0
  1  2  1  0  0  0  0
 25 26  2  0  0  0  0
 25 27  1  0  0  0  0
 23 24  1  0  0  0  0
 21 22  1  0  0  0  0
 21 23  2  0  0  0  0
 19 20  1  0  0  0  0
 19 21  1  0  0  0  0
 17 18  1  0  0  0  0
 17 19  2  0  0  0  0
 15 16  1  0  0  0  0
 15 17  1  0  0  0  0
 14 15  2  0  0  0  0
 14 23  1  0  0  0  0
 11 12  1  0  0  0  0
 11 13  1  0  0  0  0
 11 14  1  0  0  0  0
  9 10  1  0  0  0  0
  9 11  1  0  0  0  0
  9 25  1  0  0  0  0
  7  8  1  0  0  0  0
  7  9  1  0  0  0  0
 29 30  1  0  0  0  0
 29 31  1  0  0  0  0
 29 32  1  0  0  0  0
 27 28  1  0  0  0  0
 27 29  1  0  0  0  0
M  END
$$$$
default_name
  -OEChem-02102213163D

 32 32  0     1  0  0  0  0  0999 V2000
   -3.8405   -3.7518    1.6252 H   0  0  0  0  0  0  0  0  0  0  0  0
   -3.7965   -2.8768    0.9782 C   0  0  0  0  0  0  0  0  0  0  0  0
   -4.5465   -2.1527    1.2902 H   0  0  0  0  0  0  0  0  0  0  0  0
   -3.9745   -3.1748   -0.0538 H   0  0  0  0  0  0  0  0  0  0  0  0
   -2.4245   -2.2537    1.0882 C   0  0  0  0  0  0  0  0  0  0  0  0
   -1.5805   -2.7478    1.8242 O   0  0  0  0  0  0  0  0  0  0  0  0
   -2.2045   -1.1637    0.3562 N   0  0  0  0  0  0  0  0  0  0  0  0
   -2.9595   -0.7907   -0.2008 H   0  0  0  0  0  0  0  0  0  0  0  0
   -0.9485   -0.4087    0.3482 C   0  0  1  0  0  0  0  0  0  0  0  0
   -0.3666   -0.6914    1.2269 H   0  0  0  0  0  0  0  0  0  0  0  0
   -0.1405   -0.7797   -0.9072 C   0  0  0  0  0  0  0  0  0  0  0  0
   -0.7981   -1.2843   -1.6165 H   0  0  0  0  0  0  0  0  0  0  0  0
    0.2138    0.1359   -1.3831 H   0  0  0  0  0  0  0  0  0  0  0  0
    1.0410   -1.6902   -0.6317 C   0  0  0  0  0  0  0  0  0  0  0  0
    2.2091   -1.1816   -0.0329 C   0  0  0  0  0  0  0  0  0  0  0  0
    2.2795   -0.1316    0.2139 H   0  0  0  0  0  0  0  0  0  0  0  0
    3.2851   -2.0406    0.2573 C   0  0  0  0  0  0  0  0  0  0  0  0
    4.1821   -1.6475    0.7147 H   0  0  0  0  0  0  0  0  0  0  0  0
    3.1945   -3.4091   -0.0488 C   0  0  0  0  0  0  0  0  0  0  0  0
    4.0221   -4.0686    0.1720 H   0  0  0  0  0  0  0  0  0  0  0  0
    2.0292   -3.9204   -0.6486 C   0  0  0  0  0  0  0  0  0  0  0  0
    1.9616   -4.9713   -0.8889 H   0  0  0  0  0  0  0  0  0  0  0  0
    0.9554   -3.0610   -0.9414 C   0  0  0  0  0  0  0  0  0  0  0  0
    0.0608   -3.4550   -1.4059 H   0  0  0  0  0  0  0  0  0  0  0  0
   -1.2168    1.1047    0.4313 C   0  0  0  0  0  0  0  0  0  0  0  0
   -2.0890    1.6186   -0.2704 O   0  0  0  0  0  0  0  0  0  0  0  0
   -0.4674    1.8182    1.2813 N   0  0  0  0  0  0  0  0  0  0  0  0
    0.2640    1.3348    1.7800 H   0  0  0  0  0  0  0  0  0  0  0  0
   -0.5889    3.2615    1.4722 C   0  0  0  0  0  0  0  0  0  0  0  0
   -1.6291    3.5206    1.6805 H   0  0  0  0  0  0  0  0  0  0  0  0
    0.0359    3.5855    2.3049 H   0  0  0  0  0  0  0  0  0  0  0  0
   -0.2760    3.7797    0.5637 H   0  0  0  0  0  0  0  0  0  0  0  0
  5  6  2  0  0  0  0
  5  7  1  0  0  0  0
  2  3  1  0  0  0  0
  2  4  1  0  0  0  0
  2  5  1  0  0  0  0
  1  2  1  0  0  0  0
 25 26  2  0  0  0  0
 25 27  1  0  0  0  0
 23 24  1  0  0  0  0
 21 22  1  0  0  0  0
 21 23  2  0  0  0  0
 19 20  1  0  0  0  0
 19 21  1  0  0  0  0
 17 18  1  0  0  0  0
 17 19  2  0  0  0  0
 15 16  1  0  0  0  0
 15 17  1  0  0  0  0
 14 15  2  0  0  0  0
 14 23  1  0  0  0  0
 11 12  1  0  0  0  0
 11 13  1  0  0  0  0
 11 14  1  0  0  0  0
  9 10  1  0  0  0  0
  9 11  1  0  0  0  0
  9 25  1  0  0  0  0
  7  8  1  0  0  0  0
  7  9  1  0  0  0  0
 29 30  1  0  0  0  0
 29 31  1  0  0  0  0
 29 32  1  0  0  0  0
 27 28  1  0  0  0  0
 27 29  1  0  0  0  0
M  END
$$$$
default_name
  -OEChem-02102213163D

 32 32  0     1  0  0  0  0  0999 V2000
   -3.8405   -3.7518    1.6252 H   0  0  0  0  0  0  0  0  0  0  0  0
   -3.7965   -2.8768    0.9782 C   0  0  0  0  0  0  0  0  0  0  0  0
   -4.5465   -2.1527    1.2902 H   0  0  0  0  0  0  0  0  0  0  0  0
   -3.9745   -3.1748   -0.0538 H   0  0  0  0  0  0  0  0  0  0  0  0
   -2.4245   -2.2537    1.0882 C   0  0  0  0  0  0  0  0  0  0  0  0
   -1.5805   -2.7478    1.8242 O   0  0  0  0  0  0  0  0  0  0  0  0
   -2.2045   -1.1637    0.3562 N   0  0  0  0  0  0  0  0  0  0  0  0
   -2.9595   -0.7907   -0.2008 H   0  0  0  0  0  0  0  0  0  0  0  0
   -0.9485   -0.4087    0.3482 C   0  0  1  0  0  0  0  0  0  0  0  0
   -0.3666   -0.6914    1.2269 H   0  0  0  0  0  0  0  0  0  0  0  0
   -0.1405   -0.7797   -0.9072 C   0  0  0  0  0  0  0  0  0  0  0  0
   -0.7981   -1.2843   -1.6165 H   0  0  0  0  0  0  0  0  0  0  0  0
    0.2138    0.1359   -1.3831 H   0  0  0  0  0  0  0  0  0  0  0  0
    1.0410   -1.6902   -0.6317 C   0  0  0  0  0  0  0  0  0  0  0  0
    2.0713   -1.2793    0.2352 C   0  0  0  0  0  0  0  0  0  0  0  0
    2.0375   -0.3007    0.6928 H   0  0  0  0  0  0  0  0  0  0  0  0
    3.1432   -2.1457    0.5181 C   0  0  0  0  0  0  0  0  0  0  0  0
    3.9346   -1.8272    1.1820 H   0  0  0  0  0  0  0  0  0  0  0  0
    3.1861   -3.4244   -0.0632 C   0  0  0  0  0  0  0  0  0  0  0  0
    4.0109   -4.0891    0.1524 H   0  0  0  0  0  0  0  0  0  0  0  0
    2.1589   -3.8376   -0.9310 C   0  0  0  0  0  0  0  0  0  0  0  0
    2.1944   -4.8183   -1.3822 H   0  0  0  0  0  0  0  0  0  0  0  0
    1.0894   -2.9702   -1.2162 C   0  0  0  0  0  0  0  0  0  0  0  0
    0.3015   -3.2880   -1.8866 H   0  0  0  0  0  0  0  0  0  0  0  0
   -1.2168    1.1047    0.4313 C   0  0  0  0  0  0  0  0  0  0  0  0
   -2.0890    1.6186   -0.2704 O   0  0  0  0  0  0  0  0  0  0  0  0
   -0.4674    1.8182    1.2813 N   0  0  0  0  0  0  0  0  0  0  0  0
    0.2640    1.3348    1.7800 H   0  0  0  0  0  0  0  0  0  0  0  0
   -0.5889    3.2615    1.4722 C   0  0  0  0  0  0  0  0  0  0  0  0
   -1.6291    3.5206    1.6805 H   0  0  0  0  0  0  0  0  0  0  0  0
    0.0359    3.5855    2.3049 H   0  0  0  0  0  0  0  0  0  0  0  0
   -0.2760    3.7797    0.5637 H   0  0  0  0  0  0  0  0  0  0  0  0
  5  6  2  0  0  0  0
  5  7  1  0  0  0  0
  2  3  1  0  0  0  0
  2  4  1  0  0  0  0
  2  5  1  0  0  0  0
  1  2  1  0  0  0  0
 25 26  2  0  0  0  0
 25 27  1  0  0  0  0
 23 24  1  0  0  0  0
 21 22  1  0  0  0  0
 21 23  2  0  0  0  0
 19 20  1  0  0  0  0
 19 21  1  0  0  0  0
 17 18  1  0  0  0  0
 17 19  2  0  0  0  0
 15 16  1  0  0  0  0
 15 17  1  0  0  0  0
 14 15  2  0  0  0  0
 14 23  1  0  0  0  0
 11 12  1  0  0  0  0
 11 13  1  0  0  0  0
 11 14  1  0  0  0  0
  9 10  1  0  0  0  0
  9 11  1  0  0  0  0
  9 25  1  0  0  0  0
  7  8  1  0  0  0  0
  7  9  1  0  0  0  0
 29 30  1  0  0  0  0
 29 31  1  0  0  0  0
 29 32  1  0  0  0  0
 27 28  1  0  0  0  0
 27 29  1  0  0  0  0
M  END
$$$$
default_name
  -OEChem-02102213163D

 32 32  0     1  0  0  0  0  0999 V2000
   -3.8405   -3.7518    1.6252 H   0  0  0  0  0  0  0  0  0  0  0  0
   -3.7965   -2.8768    0.9782 C   0  0  0  0  0  0  0  0  0  0  0  0
   -4.5465   -2.1527    1.2902 H   0  0  0  0  0  0  0  0  0  0  0  0
   -3.9745   -3.1748   -0.0538 H   0  0  0  0  0  0  0  0  0  0  0  0
   -2.4245   -2.2537    1.0882 C   0  0  0  0  0  0  0  0  0  0  0  0
   -1.5805   -2.7478    1.8242 O   0  0  0  0  0  0  0  0  0  0  0  0
   -2.2045   -1.1637    0.3562 N   0  0  0  0  0  0  0  0  0  0  0  0
   -2.9595   -0.7907   -0.2008 H   0  0  0  0  0  0  0  0  0  0  0  0
   -0.9485   -0.4087    0.3482 C   0  0  1  0  0  0  0  0  0  0  0  0
   -0.3666   -0.6914    1.2269 H   0  0  0  0  0  0  0  0  0  0  0  0
   -0.1405   -0.7797   -0.9072 C   0  0  0  0  0  0  0  0  0  0  0  0
   -0.7981   -1.2843   -1.6165 H   0  0  0  0  0  0  0  0  0  0  0  0
    0.2138    0.1359   -1.3831 H   0  0  0  0  0  0  0  0  0  0  0  0
    1.0410   -1.6902   -0.6317 C   0  0  0  0  0  0  0  0  0  0  0  0
    1.9011   -1.4342    0.4530 C   0  0  0  0  0  0  0  0  0  0  0  0
    1.7373   -0.5719    1.0838 H   0  0  0  0  0  0  0  0  0  0  0  0
    2.9706   -2.3066    0.7268 C   0  0  0  0  0  0  0  0  0  0  0  0
    3.6314   -2.1067    1.5587 H   0  0  0  0  0  0  0  0  0  0  0  0
    3.1809   -3.4367   -0.0814 C   0  0  0  0  0  0  0  0  0  0  0  0
    4.0040   -4.1055    0.1276 H   0  0  0  0  0  0  0  0  0  0  0  0
    2.3241   -3.6946   -1.1670 C   0  0  0  0  0  0  0  0  0  0  0  0
    2.4888   -4.5602   -1.7917 H   0  0  0  0  0  0  0  0  0  0  0  0
    1.2573   -2.8208   -1.4424 C   0  0  0  0  0  0  0  0  0  0  0  0
    0.6009   -3.0185   -2.2799 H   0  0  0  0  0  0  0  0  0  0  0  0
   -1.2168    1.1047    0.4313 C   0  0  0  0  0  0  0  0  0  0  0  0
   -2.0890    1.6186   -0.2704 O   0  0  0  0  0  0  0  0  0  0  0  0
   -0.4674    1.8182    1.2813 N   0  0  0  0  0  0  0  0  0  0  0  0
    0.2640    1.3348    1.7800 H   0  0  0  0  0  0  0  0  0  0  0  0
   -0.5889    3.2615    1.4722 C   0  0  0  0  0  0  0  0  0  0  0  0
   -1.6291    3.5206    1.6805 H   0  0  0  0  0  0  0  0  0  0  0  0
    0.0359    3.5855    2.3049 H   0  0  0  0  0  0  0  0  0  0  0  0
   -0.2760    3.7797    0.5637 H   0  0  0  0  0  0  0  0  0  0  0  0
  5  6  2  0  0  0  0
  5  7  1  0  0  0  0
  2  3  1  0  0  0  0
  2  4  1  0  0  0  0
  2  5  1  0  0  0  0
  1  2  1  0  0  0  0
 25 26  2  0  0  0  0
 25 27  1  0  0  0  0
 23 24  1  0  0  0  0
 21 22  1  0  0  0  0
 21 23  2  0  0  0  0
 19 20  1  0  0  0  0
 19 21  1  0  0  0  0
 17 18  1  0  0  0  0
 17 19  2  0  0  0  0
 15 16  1  0  0  0  0
 15 17  1  0  0  0  0
 14 15  2  0  0  0  0
 14 23  1  0  0  0  0
 11 12  1  0  0  0  0
 11 13  1  0  0  0  0
 11 14  1  0  0  0  0
  9 10  1  0  0  0  0
  9 11  1  0  0  0  0
  9 25  1  0  0  0  0
  7  8  1  0  0  0  0
  7  9  1  0  0  0  0
 29 30  1  0  0  0  0
 29 31  1  0  0  0  0
 29 32  1  0  0  0  0
 27 28  1  0  0  0  0
 27 29  1  0  0  0  0
M  END
$$$$
default_name
  -OEChem-02102213163D

 32 32  0     1  0  0  0  0  0999 V2000
   -3.8405   -3.7518    1.6252 H   0  0  0  0  0  0  0  0  0  0  0  0
   -3.7965   -2.8768    0.9782 C   0  0  0  0  0  0  0  0  0  0  0  0
   -4.5465   -2.1527    1.2902 H   0  0  0  0  0  0  0  0  0  0  0  0
   -3.9745   -3.1748   -0.0538 H   0  0  0  0  0  0  0  0  0  0  0  0
   -2.4245   -2.2537    1.0882 C   0  0  0  0  0  0  0  0  0  0  0  0
   -1.5805   -2.7478    1.8242 O   0  0  0  0  0  0  0  0  0  0  0  0
   -2.2045   -1.1637    0.3562 N   0  0  0  0  0  0  0  0  0  0  0  0
   -2.9595   -0.7907   -0.2008 H   0  0  0  0  0  0  0  0  0  0  0  0
   -0.9485   -0.4087    0.3482 C   0  0  1  0  0  0  0  0  0  0  0  0
   -0.3666   -0.6914    1.2269 H   0  0  0  0  0  0  0  0  0  0  0  0
   -0.1405   -0.7797   -0.9072 C   0  0  0  0  0  0  0  0  0  0  0  0
   -0.7981   -1.2843   -1.6165 H   0  0  0  0  0  0  0  0  0  0  0  0
    0.2138    0.1359   -1.3831 H   0  0  0  0  0  0  0  0  0  0  0  0
    1.0410   -1.6902   -0.6317 C   0  0  0  0  0  0  0  0  0  0  0  0
    1.7102   -1.6358    0.6057 C   0  0  0  0  0  0  0  0  0  0  0  0
    1.3993   -0.9269    1.3601 H   0  0  0  0  0  0  0  0  0  0  0  0
    2.7790   -2.5121    0.8692 C   0  0  0  0  0  0  0  0  0  0  0  0
    3.2932   -2.4668    1.8190 H   0  0  0  0  0  0  0  0  0  0  0  0
    3.1793   -3.4451   -0.1024 C   0  0  0  0  0  0  0  0  0  0  0  0
    4.0020   -4.1167    0.0993 H   0  0  0  0  0  0  0  0  0  0  0  0
    2.5136   -3.5011   -1.3404 C   0  0  0  0  0  0  0  0  0  0  0  0
    2.8247   -4.2145   -2.0894 H   0  0  0  0  0  0  0  0  0  0  0  0
    1.4476   -2.6230   -1.6048 C   0  0  0  0  0  0  0  0  0  0  0  0
    0.9386   -2.6649   -2.5589 H   0  0  0  0  0  0  0  0  0  0  0  0
   -1.2168    1.1047    0.4313 C   0  0  0  0  0  0  0  0  0  0  0  0
   -2.0890    1.6186   -0.2704 O   0  0  0  0  0  0  0  0  0  0  0  0
   -0.4674    1.8182    1.2813 N   0  0  0  0  0  0  0  0  0  0  0  0
    0.2640    1.3348    1.7800 H   0  0  0  0  0  0  0  0  0  0  0  0
   -0.5889    3.2615    1.4722 C   0  0  0  0  0  0  0  0  0  0  0  0
   -1.6291    3.5206    1.6805 H   0  0  0  0  0  0  0  0  0  0  0  0
    0.0359    3.5855    2.3049 H   0  0  0  0  0  0  0  0  0  0  0  0
   -0.2760    3.7797    0.5637 H   0  0  0  0  0  0  0  0  0  0  0  0
  5  6  2  0  0  0  0
  5  7  1  0  0  0  0
  2  3  1  0  0  0  0
  2  4  1  0  0  0  0
  2  5  1  0  0  0  0
  1  2  1  0  0  0  0
 25 26  2  0  0  0  0
 25 27  1  0  0  0  0
 23 24  1  0  0  0  0
 21 22  1  0  0  0  0
 21 23  2  0  0  0  0
 19 20  1  0  0  0  0
 19 21  1  0  0  0  0
 17 18  1  0  0  0  0
 17 19  2  0  0  0  0
 15 16  1  0  0  0  0
 15 17  1  0  0  0  0
 14 15  2  0  0  0  0
 14 23  1  0  0  0  0
 11 12  1  0  0  0  0
 11 13  1  0  0  0  0
 11 14  1  0  0  0  0
  9 10  1  0  0  0  0
  9 11  1  0  0  0  0
  9 25  1  0  0  0  0
  7  8  1  0  0  0  0
  7  9  1  0  0  0  0
 29 30  1  0  0  0  0
 29 31  1  0  0  0  0
 29 32  1  0  0  0  0
 27 28  1  0  0  0  0
 27 29  1  0  0  0  0
M  END
$$$$
default_name
  -OEChem-02102213163D

 32 32  0     1  0  0  0  0  0999 V2000
   -3.8405   -3.7518    1.6252 H   0  0  0  0  0  0  0  0  0  0  0  0
   -3.7965   -2.8768    0.9782 C   0  0  0  0  0  0  0  0  0  0  0  0
   -4.5465   -2.1527    1.2902 H   0  0  0  0  0  0  0  0  0  0  0  0
   -3.9745   -3.1748   -0.0538 H   0  0  0  0  0  0  0  0  0  0  0  0
   -2.4245   -2.2537    1.0882 C   0  0  0  0  0  0  0  0  0  0  0  0
   -1.5805   -2.7478    1.8242 O   0  0  0  0  0  0  0  0  0  0  0  0
   -2.2045   -1.1637    0.3562 N   0  0  0  0  0  0  0  0  0  0  0  0
   -2.9595   -0.7907   -0.2008 H   0  0  0  0  0  0  0  0  0  0  0  0
   -0.9485   -0.4087    0.3482 C   0  0  1  0  0  0  0  0  0  0  0  0
   -0.3666   -0.6914    1.2269 H   0  0  0  0  0  0  0  0  0  0  0  0
   -0.1405   -0.7797   -0.9072 C   0  0  0  0  0  0  0  0  0  0  0  0
   -0.7981   -1.2843   -1.6165 H   0  0  0  0  0  0  0  0  0  0  0  0
    0.2138    0.1359   -1.3831 H   0  0  0  0  0  0  0  0  0  0  0  0
    1.0410   -1.6902   -0.6317 C   0  0  0  0  0  0  0  0  0  0  0  0
    1.5115   -1.8702    0.6829 C   0  0  0  0  0  0  0  0  0  0  0  0
    1.0466   -1.3413    1.5029 H   0  0  0  0  0  0  0  0  0  0  0  0
    2.5815   -2.7483    0.9356 C   0  0  0  0  0  0  0  0  0  0  0  0
    2.9429   -2.8831    1.9454 H   0  0  0  0  0  0  0  0  0  0  0  0
    3.1813   -3.4491   -0.1245 C   0  0  0  0  0  0  0  0  0  0  0  0
    4.0050   -4.1219    0.0693 H   0  0  0  0  0  0  0  0  0  0  0  0
    2.7146   -3.2704   -1.4395 C   0  0  0  0  0  0  0  0  0  0  0  0
    3.1791   -3.8048   -2.2552 H   0  0  0  0  0  0  0  0  0  0  0  0
    1.6474   -2.3902   -1.6922 C   0  0  0  0  0  0  0  0  0  0  0  0
    1.2914   -2.2511   -2.7047 H   0  0  0  0  0  0  0  0  0  0  0  0
   -1.2168    1.1047    0.4313 C   0  0  0  0  0  0  0  0  0  0  0  0
   -2.0890    1.6186   -0.2704 O   0  0  0  0  0  0  0  0  0  0  0  0
   -0.4674    1.8182    1.2813 N   0  0  0  0  0  0  0  0  0  0  0  0
    0.2640    1.3348    1.7800 H   0  0  0  0  0  0  0  0  0  0  0  0
   -0.5889    3.2615    1.4722 C   0  0  0  0  0  0  0  0  0  0  0  0
   -1.6291    3.5206    1.6805 H   0  0  0  0  0  0  0  0  0  0  0  0
    0.0359    3.5855    2.3049 H   0  0  0  0  0  0  0  0  0  0  0  0
   -0.2760    3.7797    0.5637 H   0  0  0  0  0  0  0  0  0  0  0  0
  5  6  2  0  0  0  0
  5  7  1  0  0  0  0
  2  3  1  0  0  0  0
  2  4  1  0  0  0  0
  2  5  1  0  0  0  0
  1  2  1  0  0  0  0
 25 26  2  0  0  0  0
 25 27  1  0  0  0  0
 23 24  1  0  0  0  0
 21 22  1  0  0  0  0
 21 23  2  0  0  0  0
 19 20  1  0  0  0  0
 19 21  1  0  0  0  0
 17 18  1  0  0  0  0
 17 19  2  0  0  0  0
 15 16  1  0  0  0  0
 15 17  1  0  0  0  0
 14 15  2  0  0  0  0
 14 23  1  0  0  0  0
 11 12  1  0  0  0  0
 11 13  1  0  0  0  0
 11 14  1  0  0  0  0
  9 10  1  0  0  0  0
  9 11  1  0  0  0  0
  9 25  1  0  0  0  0
  7  8  1  0  0  0  0
  7  9  1  0  0  0  0
 29 30  1  0  0  0  0
 29 31  1  0  0  0  0
 29 32  1  0  0  0  0
 27 28  1  0  0  0  0
 27 29  1  0  0  0  0
M  END
$$$$
default_name
  -OEChem-02102213163D

 32 32  0     1  0  0  0  0  0999 V2000
   -3.8405   -3.7518    1.6252 H   0  0  0  0  0  0  0  0  0  0  0  0
   -3.7965   -2.8768    0.9782 C   0  0  0  0  0  0  0  0  0  0  0  0
   -4.5465   -2.1527    1.2902 H   0  0  0  0  0  0  0  0  0  0  0  0
   -3.9745   -3.1748   -0.0538 H   0  0  0  0  0  0  0  0  0  0  0  0
   -2.4245   -2.2537    1.0882 C   0  0  0  0  0  0  0  0  0  0  0  0
   -1.5805   -2.7478    1.8242 O   0  0  0  0  0  0  0  0  0  0  0  0
   -2.2045   -1.1637    0.3562 N   0  0  0  0  0  0  0  0  0  0  0  0
   -2.9595   -0.7907   -0.2008 H   0  0  0  0  0  0  0  0  0  0  0  0
   -0.9485   -0.4087    0.3482 C   0  0  1  0  0  0  0  0  0  0  0  0
   -0.3666   -0.6914    1.2269 H   0  0  0  0  0  0  0  0  0  0  0  0
   -0.1405   -0.7797   -0.9072 C   0  0  0  0  0  0  0  0  0  0  0  0
   -0.7981   -1.2843   -1.6165 H   0  0  0  0  0  0  0  0  0  0  0  0
    0.2138    0.1359   -1.3831 H   0  0  0  0  0  0  0  0  0  0  0  0
    1.0410   -1.6902   -0.6317 C   0  0  0  0  0  0  0  0  0  0  0  0
    1.3186   -2.1215    0.6793 C   0  0  0  0  0  0  0  0  0  0  0  0
    0.7032   -1.7870    1.5025 H   0  0  0  0  0  0  0  0  0  0  0  0
    2.3915   -2.9992    0.9213 C   0  0  0  0  0  0  0  0  0  0  0  0
    2.6046   -3.3271    1.9291 H   0  0  0  0  0  0  0  0  0  0  0  0
    3.1870   -3.4483   -0.1464 C   0  0  0  0  0  0  0  0  0  0  0  0
    4.0127   -4.1207    0.0398 H   0  0  0  0  0  0  0  0  0  0  0  0
    2.9132   -3.0181   -1.4575 C   0  0  0  0  0  0  0  0  0  0  0  0
    3.5279   -3.3590   -2.2776 H   0  0  0  0  0  0  0  0  0  0  0  0
    1.8430   -2.1384   -1.6986 C   0  0  0  0  0  0  0  0  0  0  0  0
    1.6354   -1.8055   -2.7073 H   0  0  0  0  0  0  0  0  0  0  0  0
   -1.2168    1.1047    0.4313 C   0  0  0  0  0  0  0  0  0  0  0  0
   -2.0890    1.6186   -0.2704 O   0  0  0  0  0  0  0  0  0  0  0  0
   -0.4674    1.8182    1.2813 N   0  0  0  0  0  0  0  0  0  0  0  0
    0.2640    1.3348    1.7800 H   0  0  0  0  0  0  0  0  0  0  0  0
   -0.5889    3.2615    1.4722 C   0  0  0  0  0  0  0  0  0  0  0  0
   -1.6291    3.5206    1.6805 H   0  0  0  0  0  0  0  0  0  0  0  0
    0.0359    3.5855    2.3049 H   0  0  0  0  0  0  0  0  0  0  0  0
   -0.2760    3.7797    0.5637 H   0  0  0  0  0  0  0  0  0  0  0  0
  5  6  2  0  0  0  0
  5  7  1  0  0  0  0
  2  3  1  0  0  0  0
  2  4  1  0  0  0  0
  2  5  1  0  0  0  0
  1  2  1  0  0  0  0
 25 26  2  0  0  0  0
 25 27  1  0  0  0  0
 23 24  1  0  0  0  0
 21 22  1  0  0  0  0
 21 23  2  0  0  0  0
 19 20  1  0  0  0  0
 19 21  1  0  0  0  0
 17 18  1  0  0  0  0
 17 19  2  0  0  0  0
 15 16  1  0  0  0  0
 15 17  1  0  0  0  0
 14 15  2  0  0  0  0
 14 23  1  0  0  0  0
 11 12  1  0  0  0  0
 11 13  1  0  0  0  0
 11 14  1  0  0  0  0
  9 10  1  0  0  0  0
  9 11  1  0  0  0  0
  9 25  1  0  0  0  0
  7  8  1  0  0  0  0
  7  9  1  0  0  0  0
 29 30  1  0  0  0  0
 29 31  1  0  0  0  0
 29 32  1  0  0  0  0
 27 28  1  0  0  0  0
 27 29  1  0  0  0  0
M  END
$$$$
default_name
  -OEChem-02102213163D

 32 32  0     1  0  0  0  0  0999 V2000
   -3.8405   -3.7518    1.6252 H   0  0  0  0  0  0  0  0  0  0  0  0
   -3.7965   -2.8768    0.9782 C   0  0  0  0  0  0  0  0  0  0  0  0
   -4.5465   -2.1527    1.2902 H   0  0  0  0  0  0  0  0  0  0  0  0
   -3.9745   -3.1748   -0.0538 H   0  0  0  0  0  0  0  0  0  0  0  0
   -2.4245   -2.2537    1.0882 C   0  0  0  0  0  0  0  0  0  0  0  0
   -1.5805   -2.7478    1.8242 O   0  0  0  0  0  0  0  0  0  0  0  0
   -2.2045   -1.1637    0.3562 N   0  0  0  0  0  0  0  0  0  0  0  0
   -2.9595   -0.7907   -0.2008 H   0  0  0  0  0  0  0  0  0  0  0  0
   -0.9485   -0.4087    0.3482 C   0  0  1  0  0  0  0  0  0  0  0  0
   -0.3666   -0.6914    1.2269 H   0  0  0  0  0  0  0  0  0  0  0  0
   -0.1405   -0.7797   -0.9072 C   0  0  0  0  0  0  0  0  0  0  0  0
   -0.7981   -1.2843   -1.6165 H   0  0  0  0  0  0  0  0  0  0  0  0
    0.2138    0.1359   -1.3831 H   0  0  0  0  0  0  0  0  0  0  0  0
    1.0410   -1.6902   -0.6317 C   0  0  0  0  0  0  0  0  0  0  0  0
    1.1447   -2.3727    0.5953 C   0  0  0  0  0  0  0  0  0  0  0  0
    0.3925   -2.2336    1.3590 H   0  0  0  0  0  0  0  0  0  0  0  0
    2.2220   -3.2475    0.8275 C   0  0  0  0  0  0  0  0  0  0  0  0
    2.3011   -3.7686    1.7713 H   0  0  0  0  0  0  0  0  0  0  0  0
    3.1958   -3.4430   -0.1665 C   0  0  0  0  0  0  0  0  0  0  0  0
    4.0248   -4.1133    0.0128 H   0  0  0  0  0  0  0  0  0  0  0  0
    3.0960   -2.7614   -1.3931 C   0  0  0  0  0  0  0  0  0  0  0  0
    3.8474   -2.9074   -2.1552 H   0  0  0  0  0  0  0  0  0  0  0  0
    2.0210   -1.8847   -1.6237 C   0  0  0  0  0  0  0  0  0  0  0  0
    1.9472   -1.3584   -2.5665 H   0  0  0  0  0  0  0  0  0  0  0  0
   -1.2168    1.1047    0.4313 C   0  0  0  0  0  0  0  0  0  0  0  0
   -2.0890    1.6186   -0.2704 O   0  0  0  0  0  0  0  0  0  0  0  0
   -0.4674    1.8182    1.2813 N   0  0  0  0  0  0  0  0  0  0  0  0
    0.2640    1.3348    1.7800 H   0  0  0  0  0  0  0  0  0  0  0  0
   -0.5889    3.2615    1.4722 C   0  0  0  0  0  0  0  0  0  0  0  0
   -1.6291    3.5206    1.6805 H   0  0  0  0  0  0  0  0  0  0  0  0
    0.0359    3.5855    2.3049 H   0  0  0  0  0  0  0  0  0  0  0  0
   -0.2760    3.7797    0.5637 H   0  0  0  0  0  0  0  0  0  0  0  0
  5  6  2  0  0  0  0
  5  7  1  0  0  0  0
  2  3  1  0  0  0  0
  2  4  1  0  0  0  0
  2  5  1  0  0  0  0
  1  2  1  0  0  0  0
 25 26  2  0  0  0  0
 25 27  1  0  0  0  0
 23 24  1  0  0  0  0
 21 22  1  0  0  0  0
 21 23  2  0  0  0  0
 19 20  1  0  0  0  0
 19 21  1  0  0  0  0
 17 18  1  0  0  0  0
 17 19  2  0  0  0  0
 15 16  1  0  0  0  0
 15 17  1  0  0  0  0
 14 15  2  0  0  0  0
 14 23  1  0  0  0  0
 11 12  1  0  0  0  0
 11 13  1  0  0  0  0
 11 14  1  0  0  0  0
  9 10  1  0  0  0  0
  9 11  1  0  0  0  0
  9 25  1  0  0  0  0
  7  8  1  0  0  0  0
  7  9  1  0  0  0  0
 29 30  1  0  0  0  0
 29 31  1  0  0  0  0
 29 32  1  0  0  0  0
 27 28  1  0  0  0  0
 27 29  1  0  0  0  0
M  END
$$$$
default_name
  -OEChem-02102213163D

 32 32  0     1  0  0  0  0  0999 V2000
   -3.8405   -3.7518    1.6252 H   0  0  0  0  0  0  0  0  0  0  0  0
   -3.7965   -2.8768    0.9782 C   0  0  0  0  0  0  0  0  0  0  0  0
   -4.5465   -2.1527    1.2902 H   0  0  0  0  0  0  0  0  0  0  0  0
   -3.9745   -3.1748   -0.0538 H   0  0  0  0  0  0  0  0  0  0  0  0
   -2.4245   -2.2537    1.0882 C   0  0  0  0  0  0  0  0  0  0  0  0
   -1.5805   -2.7478    1.8242 O   0  0  0  0  0  0  0  0  0  0  0  0
   -2.2045   -1.1637    0.3562 N   0  0  0  0  0  0  0  0  0  0  0  0
   -2.9595   -0.7907   -0.2008 H   0  0  0  0  0  0  0  0  0  0  0  0
   -0.9485   -0.4087    0.3482 C   0  0  1  0  0  0  0  0  0  0  0  0
   -0.3666   -0.6914    1.2269 H   0  0  0  0  0  0  0  0  0  0  0  0
   -0.1405   -0.7797   -0.9072 C   0  0  0  0  0  0  0  0  0  0  0  0
   -0.7981   -1.2843   -1.6165 H   0  0  0  0  0  0  0  0  0  0  0  0
    0.2138    0.1359   -1.3831 H   0  0  0  0  0  0  0  0  0  0  0  0
    1.0410   -1.6902   -0.6317 C   0  0  0  0  0  0  0  0  0  0  0  0
    1.0015   -2.6065    0.4364 C   0  0  0  0  0  0  0  0  0  0  0  0
    0.1357   -2.6506    1.0820 H   0  0  0  0  0  0  0  0  0  0  0  0
    2.0845   -3.4765    0.6604 C   0  0  0  0  0  0  0  0  0  0  0  0
    2.0533   -4.1775    1.4827 H   0  0  0  0  0  0  0  0  0  0  0  0
    3.2072   -3.4333   -0.1835 C   0  0  0  0  0  0  0  0  0  0  0  0
    4.0402   -4.1001   -0.0100 H   0  0  0  0  0  0  0  0  0  0  0  0
    3.2505   -2.5179   -1.2508 C   0  0  0  0  0  0  0  0  0  0  0  0
    4.1157   -2.4809   -1.8963 H   0  0  0  0  0  0  0  0  0  0  0  0
    2.1695   -1.6463   -1.4725 C   0  0  0  0  0  0  0  0  0  0  0  0
    2.2054   -0.9403   -2.2919 H   0  0  0  0  0  0  0  0  0  0  0  0
   -1.2168    1.1047    0.4313 C   0  0  0  0  0  0  0  0  0  0  0  0
   -2.0890    1.6186   -0.2704 O   0  0  0  0  0  0  0  0  0  0  0  0
   -0.4674    1.8182    1.2813 N   0  0  0  0  0  0  0  0  0  0  0  0
    0.2640    1.3348    1.7800 H   0  0  0  0  0  0  0  0  0  0  0  0
   -0.5889    3.2615    1.4722 C   0  0  0  0  0  0  0  0  0  0  0  0
   -1.6291    3.5206    1.6805 H   0  0  0  0  0  0  0  0  0  0  0  0
    0.0359    3.5855    2.3049 H   0  0  0  0  0  0  0  0  0  0  0  0
   -0.2760    3.7797    0.5637 H   0  0  0  0  0  0  0  0  0  0  0  0
  5  6  2  0  0  0  0
  5  7  1  0  0  0  0
  2  3  1  0  0  0  0
  2  4  1  0  0  0  0
  2  5  1  0  0  0  0
  1  2  1  0  0  0  0
 25 26  2  0  0  0  0
 25 27  1  0  0  0  0
 23 24  1  0  0  0  0
 21 22  1  0  0  0  0
 21 23  2  0  0  0  0
 19 20  1  0  0  0  0
 19 21  1  0  0  0  0
 17 18  1  0  0  0  0
 17 19  2  0  0  0  0
 15 16  1  0  0  0  0
 15 17  1  0  0  0  0
 14 15  2  0  0  0  0
 14 23  1  0  0  0  0
 11 12  1  0  0  0  0
 11 13  1  0  0  0  0
 11 14  1  0  0  0  0
  9 10  1  0  0  0  0
  9 11  1  0  0  0  0
  9 25  1  0  0  0  0
  7  8  1  0  0  0  0
  7  9  1  0  0  0  0
 29 30  1  0  0  0  0
 29 31  1  0  0  0  0
 29 32  1  0  0  0  0
 27 28  1  0  0  0  0
 27 29  1  0  0  0  0
M  END
$$$$
default_name
  -OEChem-02102213163D

 32 32  0     1  0  0  0  0  0999 V2000
   -3.8405   -3.7518    1.6252 H   0  0  0  0  0  0  0  0  0  0  0  0
   -3.7965   -2.8768    0.9782 C   0  0  0  0  0  0  0  0  0  0  0  0
   -4.5465   -2.1527    1.2902 H   0  0  0  0  0  0  0  0  0  0  0  0
   -3.9745   -3.1748   -0.0538 H   0  0  0  0  0  0  0  0  0  0  0  0
   -2.4245   -2.2537    1.0882 C   0  0  0  0  0  0  0  0  0  0  0  0
   -1.5805   -2.7478    1.8242 O   0  0  0  0  0  0  0  0  0  0  0  0
   -2.2045   -1.1637    0.3562 N   0  0  0  0  0  0  0  0  0  0  0  0
   -2.9595   -0.7907   -0.2008 H   0  0  0  0  0  0  0  0  0  0  0  0
   -0.9485   -0.4087    0.3482 C   0  0  1  0  0  0  0  0  0  0  0  0
   -0.3666   -0.6914    1.2269 H   0  0  0  0  0  0  0  0  0  0  0  0
   -0.1405   -0.7797   -0.9072 C   0  0  0  0  0  0  0  0  0  0  0  0
   -0.7981   -1.2843   -1.6165 H   0  0  0  0  0  0  0  0  0  0  0  0
    0.2138    0.1359   -1.3831 H   0  0  0  0  0  0  0  0  0  0  0  0
    1.0410   -1.6902   -0.6317 C   0  0  0  0  0  0  0  0  0  0  0  0
    0.8989   -2.8070    0.2136 C   0  0  0  0  0  0  0  0  0  0  0  0
   -0.0497   -3.0096    0.6905 H   0  0  0  0  0  0  0  0  0  0  0  0
    1.9884   -3.6704    0.4315 C   0  0  0  0  0  0  0  0  0  0  0  0
    1.8779   -4.5259    1.0830 H   0  0  0  0  0  0  0  0  0  0  0  0
    3.2204   -3.4200   -0.1962 C   0  0  0  0  0  0  0  0  0  0  0  0
    4.0581   -4.0820   -0.0269 H   0  0  0  0  0  0  0  0  0  0  0  0
    3.3662   -2.3041   -1.0403 C   0  0  0  0  0  0  0  0  0  0  0  0
    4.3147   -2.1085   -1.5186 H   0  0  0  0  0  0  0  0  0  0  0  0
    2.2782   -1.4396   -1.2553 C   0  0  0  0  0  0  0  0  0  0  0  0
    2.3925   -0.5796   -1.9022 H   0  0  0  0  0  0  0  0  0  0  0  0
   -1.2168    1.1047    0.4313 C   0  0  0  0  0  0  0  0  0  0  0  0
   -2.0890    1.6186   -0.2704 O   0  0  0  0  0  0  0  0  0  0  0  0
   -0.4674    1.8182    1.2813 N   0  0  0  0  0  0  0  0  0  0  0  0
    0.2640    1.3348    1.7800 H   0  0  0  0  0  0  0  0  0  0  0  0
   -0.5889    3.2615    1.4722 C   0  0  0  0  0  0  0  0  0  0  0  0
   -1.6291    3.5206    1.6805 H   0  0  0  0  0  0  0  0  0  0  0  0
    0.0359    3.5855    2.3049 H   0  0  0  0  0  0  0  0  0  0  0  0
   -0.2760    3.7797    0.5637 H   0  0  0  0  0  0  0  0  0  0  0  0
  5  6  2  0  0  0  0
  5  7  1  0  0  0  0
  2  3  1  0  0  0  0
  2  4  1  0  0  0  0
  2  5  1  0  0  0  0
  1  2  1  0  0  0  0
 25 26  2  0  0  0  0
 25 27  1  0  0  0  0
 23 24  1  0  0  0  0
 21 22  1  0  0  0  0
 21 23  2  0  0  0  0
 19 20  1  0  0  0  0
 19 21  1  0  0  0  0
 17 18  1  0  0  0  0
 17 19  2  0  0  0  0
 15 16  1  0  0  0  0
 15 17  1  0  0  0  0
 14 15  2  0  0  0  0
 14 23  1  0  0  0  0
 11 12  1  0  0  0  0
 11 13  1  0  0  0  0
 11 14  1  0  0  0  0
  9 10  1  0  0  0  0
  9 11  1  0  0  0  0
  9 25  1  0  0  0  0
  7  8  1  0  0  0  0
  7  9  1  0  0  0  0
 29 30  1  0  0  0  0
 29 31  1  0  0  0  0
 29 32  1  0  0  0  0
 27 28  1  0  0  0  0
 27 29  1  0  0  0  0
M  END
$$$$
default_name
  -OEChem-02102213163D

 32 32  0     1  0  0  0  0  0999 V2000
   -3.8405   -3.7518    1.6252 H   0  0  0  0  0  0  0  0  0  0  0  0
   -3.7965   -2.8768    0.9782 C   0  0  0  0  0  0  0  0  0  0  0  0
   -4.5465   -2.1527    1.2902 H   0  0  0  0  0  0  0  0  0  0  0  0
   -3.9745   -3.1748   -0.0538 H   0  0  0  0  0  0  0  0  0  0  0  0
   -2.4245   -2.2537    1.0882 C   0  0  0  0  0  0  0  0  0  0  0  0
   -1.5805   -2.7478    1.8242 O   0  0  0  0  0  0  0  0  0  0  0  0
   -2.2045   -1.1637    0.3562 N   0  0  0  0  0  0  0  0  0  0  0  0
   -2.9595   -0.7907   -0.2008 H   0  0  0  0  0  0  0  0  0  0  0  0
   -0.9485   -0.4087    0.3482 C   0  0  1  0  0  0  0  0  0  0  0  0
   -0.3666   -0.6914    1.2269 H   0  0  0  0  0  0  0  0  0  0  0  0
   -0.1405   -0.7797   -0.9072 C   0  0  0  0  0  0  0  0  0  0  0  0
   -0.7981   -1.2843   -1.6165 H   0  0  0  0  0  0  0  0  0  0  0  0
    0.2138    0.1359   -1.3831 H   0  0  0  0  0  0  0  0  0  0  0  0
    1.0410   -1.6902   -0.6317 C   0  0  0  0  0  0  0  0  0  0  0  0
    0.8438   -2.9606   -0.0580 C   0  0  0  0  0  0  0  0  0  0  0  0
   -0.1511   -3.2862    0.2112 H   0  0  0  0  0  0  0  0  0  0  0  0
    1.9403   -3.8161    0.1564 C   0  0  0  0  0  0  0  0  0  0  0  0
    1.7870   -4.7901    0.5994 H   0  0  0  0  0  0  0  0  0  0  0  0
    3.2345   -3.4040   -0.2037 C   0  0  0  0  0  0  0  0  0  0  0  0
    4.0771   -4.0603   -0.0368 H   0  0  0  0  0  0  0  0  0  0  0  0
    3.4352   -2.1346   -0.7758 C   0  0  0  0  0  0  0  0  0  0  0  0
    4.4306   -1.8156   -1.0477 H   0  0  0  0  0  0  0  0  0  0  0  0
    2.3397   -1.2786   -0.9870 C   0  0  0  0  0  0  0  0  0  0  0  0
    2.4958   -0.3009   -1.4241 H   0  0  0  0  0  0  0  0  0  0  0  0
   -1.2168    1.1047    0.4313 C   0  0  0  0  0  0  0  0  0  0  0  0
   -2.0890    1.6186   -0.2704 O   0  0  0  0  0  0  0  0  0  0  0  0
   -0.4674    1.8182    1.2813 N   0  0  0  0  0  0  0  0  0  0  0  0
    0.2640    1.3348    1.7800 H   0  0  0  0  0  0  0  0  0  0  0  0
   -0.5889    3.2615    1.4722 C   0  0  0  0  0  0  0  0  0  0  0  0
   -1.6291    3.5206    1.6805 H   0  0  0  0  0  0  0  0  0  0  0  0
    0.0359    3.5855    2.3049 H   0  0  0  0  0  0  0  0  0  0  0  0
   -0.2760    3.7797    0.5637 H   0  0  0  0  0  0  0  0  0  0  0  0
  5  6  2  0  0  0  0
  5  7  1  0  0  0  0
  2  3  1  0  0  0  0
  2  4  1  0  0  0  0
  2  5  1  0  0  0  0
  1  2  1  0  0  0  0
 25 26  2  0  0  0  0
 25 27  1  0  0  0  0
 23 24  1  0  0  0  0
 21 22  1  0  0  0  0
 21 23  2  0  0  0  0
 19 20  1  0  0  0  0
 19 21  1  0  0  0  0
 17 18  1  0  0  0  0
 17 19  2  0  0  0  0
 15 16  1  0  0  0  0
 15 17  1  0  0  0  0
 14 15  2  0  0  0  0
 14 23  1  0  0  0  0
 11 12  1  0  0  0  0
 11 13  1  0  0  0  0
 11 14  1  0  0  0  0
  9 10  1  0  0  0  0
  9 11  1  0  0  0  0
  9 25  1  0  0  0  0
  7  8  1  0  0  0  0
  7  9  1  0  0  0  0
 29 30  1  0  0  0  0
 29 31  1  0  0  0  0
 29 32  1  0  0  0  0
 27 28  1  0  0  0  0
 27 29  1  0  0  0  0
M  END
$$$$
default_name
  -OEChem-02102213163D

 32 32  0     1  0  0  0  0  0999 V2000
   -3.8405   -3.7518    1.6252 H   0  0  0  0  0  0  0  0  0  0  0  0
   -3.7965   -2.8768    0.9782 C   0  0  0  0  0  0  0  0  0  0  0  0
   -4.5465   -2.1527    1.2902 H   0  0  0  0  0  0  0  0  0  0  0  0
   -3.9745   -3.1748   -0.0538 H   0  0  0  0  0  0  0  0  0  0  0  0
   -2.4245   -2.2537    1.0882 C   0  0  0  0  0  0  0  0  0  0  0  0
   -1.5805   -2.7478    1.8242 O   0  0  0  0  0  0  0  0  0  0  0  0
   -2.2045   -1.1637    0.3562 N   0  0  0  0  0  0  0  0  0  0  0  0
   -2.9595   -0.7907   -0.2008 H   0  0  0  0  0  0  0  0  0  0  0  0
   -0.9485   -0.4087    0.3482 C   0  0  1  0  0  0  0  0  0  0  0  0
   -0.3666   -0.6914    1.2269 H   0  0  0  0  0  0  0  0  0  0  0  0
   -0.1405   -0.7797   -0.9072 C   0  0  0  0  0  0  0  0  0  0  0  0
   -0.7981   -1.2843   -1.6165 H   0  0  0  0  0  0  0  0  0  0  0  0
    0.2138    0.1359   -1.3831 H   0  0  0  0  0  0  0  0  0  0  0  0
    1.0410   -1.6902   -0.6317 C   0  0  0  0  0  0  0  0  0  0  0  0
    0.8401   -3.0569   -0.3599 C   0  0  0  0  0  0  0  0  0  0  0  0
   -0.1615   -3.4615   -0.3234 H   0  0  0  0  0  0  0  0  0  0  0  0
    1.9433   -3.9036   -0.1461 C   0  0  0  0  0  0  0  0  0  0  0  0
    1.7868   -4.9522    0.0650 H   0  0  0  0  0  0  0  0  0  0  0  0
    3.2486   -3.3864   -0.2056 C   0  0  0  0  0  0  0  0  0  0  0  0
    4.0961   -4.0365   -0.0390 H   0  0  0  0  0  0  0  0  0  0  0  0
    3.4527   -2.0209   -0.4755 C   0  0  0  0  0  0  0  0  0  0  0  0
    4.4557   -1.6221   -0.5158 H   0  0  0  0  0  0  0  0  0  0  0  0
    2.3499   -1.1743   -0.6858 C   0  0  0  0  0  0  0  0  0  0  0  0
    2.5082   -0.1233   -0.8900 H   0  0  0  0  0  0  0  0  0  0  0  0
   -1.2168    1.1047    0.4313 C   0  0  0  0  0  0  0  0  0  0  0  0
   -2.0890    1.6186   -0.2704 O   0  0  0  0  0  0  0  0  0  0  0  0
   -0.4674    1.8182    1.2813 N   0  0  0  0  0  0  0  0  0  0  0  0
    0.2640    1.3348    1.7800 H   0  0  0  0  0  0  0  0  0  0  0  0
   -0.5889    3.2615    1.4722 C   0  0  0  0  0  0  0  0  0  0  0  0
   -1.6291    3.5206    1.6805 H   0  0  0  0  0  0  0  0  0  0  0  0
    0.0359    3.5855    2.3049 H   0  0  0  0  0  0  0  0  0  0  0  0
   -0.2760    3.7797    0.5637 H   0  0  0  0  0  0  0  0  0  0  0  0
  5  6  2  0  0  0  0
  5  7  1  0  0  0  0
  2  3  1  0  0  0  0
  2  4  1  0  0  0  0
  2  5  1  0  0  0  0
  1  2  1  0  0  0  0
 25 26  2  0  0  0  0
 25 27  1  0  0  0  0
 23 24  1  0  0  0  0
 21 22  1  0  0  0  0
 21 23  2  0  0  0  0
 19 20  1  0  0  0  0
 19 21  1  0  0  0  0
 17 18  1  0  0  0  0
 17 19  2  0  0  0  0
 15 16  1  0  0  0  0
 15 17  1  0  0  0  0
 14 15  2  0  0  0  0
 14 23  1  0  0  0  0
 11 12  1  0  0  0  0
 11 13  1  0  0  0  0
 11 14  1  0  0  0  0
  9 10  1  0  0  0  0
  9 11  1  0  0  0  0
  9 25  1  0  0  0  0
  7  8  1  0  0  0  0
  7  9  1  0  0  0  0
 29 30  1  0  0  0  0
 29 31  1  0  0  0  0
 29 32  1  0  0  0  0
 27 28  1  0  0  0  0
 27 29  1  0  0  0  0
M  END
$$$$
default_name
  -OEChem-02102213163D

 32 32  0     1  0  0  0  0  0999 V2000
   -3.8405   -3.7518    1.6252 H   0  0  0  0  0  0  0  0  0  0  0  0
   -3.7965   -2.8768    0.9782 C   0  0  0  0  0  0  0  0  0  0  0  0
   -4.5465   -2.1527    1.2902 H   0  0  0  0  0  0  0  0  0  0  0  0
   -3.9745   -3.1748   -0.0538 H   0  0  0  0  0  0  0  0  0  0  0  0
   -2.4245   -2.2537    1.0882 C   0  0  0  0  0  0  0  0  0  0  0  0
   -1.5805   -2.7478    1.8242 O   0  0  0  0  0  0  0  0  0  0  0  0
   -2.2045   -1.1637    0.3562 N   0  0  0  0  0  0  0  0  0  0  0  0
   -2.9595   -0.7907   -0.2008 H   0  0  0  0  0  0  0  0  0  0  0  0
   -0.9485   -0.4087    0.3482 C   0  0  1  0  0  0  0  0  0  0  0  0
   -0.3666   -0.6914    1.2269 H   0  0  0  0  0  0  0  0  0  0  0  0
   -0.1405   -0.7797   -0.9072 C   0  0  0  0  0  0  0  0  0  0  0  0
   -0.7981   -1.2843   -1.6165 H   0  0  0  0  0  0  0  0  0  0  0  0
    0.2138    0.1359   -1.3831 H   0  0  0  0  0  0  0  0  0  0  0  0
    1.0410   -1.6902   -0.6317 C   0  0  0  0  0  0  0  0  0  0  0  0
    0.8879   -3.0891   -0.6714 C   0  0  0  0  0  0  0  0  0  0  0  0
   -0.0804   -3.5235   -0.8766 H   0  0  0  0  0  0  0  0  0  0  0  0
    1.9975   -3.9270   -0.4556 C   0  0  0  0  0  0  0  0  0  0  0  0
    1.8772   -5.0009   -0.4840 H   0  0  0  0  0  0  0  0  0  0  0  0
    3.2616   -3.3683   -0.2016 C   0  0  0  0  0  0  0  0  0  0  0  0
    4.1135   -4.0121   -0.0335 H   0  0  0  0  0  0  0  0  0  0  0  0
    3.4177   -1.9709   -0.1597 C   0  0  0  0  0  0  0  0  0  0  0  0
    4.3882   -1.5413    0.0408 H   0  0  0  0  0  0  0  0  0  0  0  0
    2.3080   -1.1338   -0.3723 C   0  0  0  0  0  0  0  0  0  0  0  0
    2.4288   -0.0589   -0.3364 H   0  0  0  0  0  0  0  0  0  0  0  0
   -1.2168    1.1047    0.4313 C   0  0  0  0  0  0  0  0  0  0  0  0
   -2.0890    1.6186   -0.2704 O   0  0  0  0  0  0  0  0  0  0  0  0
   -0.4674    1.8182    1.2813 N   0  0  0  0  0  0  0  0  0  0  0  0
    0.2640    1.3348    1.7800 H   0  0  0  0  0  0  0  0  0  0  0  0
   -0.5889    3.2615    1.4722 C   0  0  0  0  0  0  0  0  0  0  0  0
   -1.6291    3.5206    1.6805 H   0  0  0  0  0  0  0  0  0  0  0  0
    0.0359    3.5855    2.3049 H   0  0  0  0  0  0  0  0  0  0  0  0
   -0.2760    3.7797    0.5637 H   0  0  0  0  0  0  0  0  0  0  0  0
  5  6  2  0  0  0  0
  5  7  1  0  0  0  0
  2  3  1  0  0  0  0
  2  4  1  0  0  0  0
  2  5  1  0  0  0  0
  1  2  1  0  0  0  0
 25 26  2  0  0  0  0
 25 27  1  0  0  0  0
 23 24  1  0  0  0  0
 21 22  1  0  0  0  0
 21 23  2  0  0  0  0
 19 20  1  0  0  0  0
 19 21  1  0  0  0  0
 17 18  1  0  0  0  0
 17 19  2  0  0  0  0
 15 16  1  0  0  0  0
 15 17  1  0  0  0  0
 14 15  2  0  0  0  0
 14 23  1  0  0  0  0
 11 12  1  0  0  0  0
 11 13  1  0  0  0  0
 11 14  1  0  0  0  0
  9 10  1  0  0  0  0
  9 11  1  0  0  0  0
  9 25  1  0  0  0  0
  7  8  1  0  0  0  0
  7  9  1  0  0  0  0
 29 30  1  0  0  0  0
 29 31  1  0  0  0  0
 29 32  1  0  0  0  0
 27 28  1  0  0  0  0
 27 29  1  0  0  0  0
M  END
$$$$
default_name
  -OEChem-02102213163D

 32 32  0     1  0  0  0  0  0999 V2000
   -3.8405   -3.7518    1.6252 H   0  0  0  0  0  0  0  0  0  0  0  0
   -3.7965   -2.8768    0.9782 C   0  0  0  0  0  0  0  0  0  0  0  0
   -4.5465   -2.1527    1.2902 H   0  0  0  0  0  0  0  0  0  0  0  0
   -3.9745   -3.1748   -0.0538 H   0  0  0  0  0  0  0  0  0  0  0  0
   -2.4245   -2.2537    1.0882 C   0  0  0  0  0  0  0  0  0  0  0  0
   -1.5805   -2.7478    1.8242 O   0  0  0  0  0  0  0  0  0  0  0  0
   -2.2045   -1.1637    0.3562 N   0  0  0  0  0  0  0  0  0  0  0  0
   -2.9595   -0.7907   -0.2008 H   0  0  0  0  0  0  0  0  0  0  0  0
   -0.9485   -0.4087    0.3482 C   0  0  1  0  0  0  0  0  0  0  0  0
   -0.3666   -0.6914    1.2269 H   0  0  0  0  0  0  0  0  0  0  0  0
   -0.1405   -0.7797   -0.9072 C   0  0  0  0  0  0  0  0  0  0  0  0
   -0.7981   -1.2843   -1.6165 H   0  0  0  0  0  0  0  0  0  0  0  0
    0.2138    0.1359   -1.3831 H   0  0  0  0  0  0  0  0  0  0  0  0
    1.0410   -1.6902   -0.6317 C   0  0  0  0  0  0  0  0  0  0  0  0
    0.9839   -3.0552   -0.9715 C   0  0  0  0  0  0  0  0  0  0  0  0
    0.0869   -3.4681   -1.4110 H   0  0  0  0  0  0  0  0  0  0  0  0
    2.0989   -3.8847   -0.7508 C   0  0  0  0  0  0  0  0  0  0  0  0
    2.0521   -4.9331   -1.0100 H   0  0  0  0  0  0  0  0  0  0  0  0
    3.2727   -3.3510   -0.1922 C   0  0  0  0  0  0  0  0  0  0  0  0
    4.1284   -3.9889   -0.0204 H   0  0  0  0  0  0  0  0  0  0  0  0
    3.3325   -1.9878    0.1499 C   0  0  0  0  0  0  0  0  0  0  0  0
    4.2328   -1.5786    0.5843 H   0  0  0  0  0  0  0  0  0  0  0  0
    2.2169   -1.1598   -0.0677 C   0  0  0  0  0  0  0  0  0  0  0  0
    2.2631   -0.1119    0.1989 H   0  0  0  0  0  0  0  0  0  0  0  0
   -1.2168    1.1047    0.4313 C   0  0  0  0  0  0  0  0  0  0  0  0
   -2.0890    1.6186   -0.2704 O   0  0  0  0  0  0  0  0  0  0  0  0
   -0.4674    1.8182    1.2813 N   0  0  0  0  0  0  0  0  0  0  0  0
    0.2640    1.3348    1.7800 H   0  0  0  0  0  0  0  0  0  0  0  0
   -0.5889    3.2615    1.4722 C   0  0  0  0  0  0  0  0  0  0  0  0
   -1.6291    3.5206    1.6805 H   0  0  0  0  0  0  0  0  0  0  0  0
    0.0359    3.5855    2.3049 H   0  0  0  0  0  0  0  0  0  0  0  0
   -0.2760    3.7797    0.5637 H   0  0  0  0  0  0  0  0  0  0  0  0
  5  6  2  0  0  0  0
  5  7  1  0  0  0  0
  2  3  1  0  0  0  0
  2  4  1  0  0  0  0
  2  5  1  0  0  0  0
  1  2  1  0  0  0  0
 25 26  2  0  0  0  0
 25 27  1  0  0  0  0
 23 24  1  0  0  0  0
 21 22  1  0  0  0  0
 21 23  2  0  0  0  0
 19 20  1  0  0  0  0
 19 21  1  0  0  0  0
 17 18  1  0  0  0  0
 17 19  2  0  0  0  0
 15 16  1  0  0  0  0
 15 17  1  0  0  0  0
 14 15  2  0  0  0  0
 14 23  1  0  0  0  0
 11 12  1  0  0  0  0
 11 13  1  0  0  0  0
 11 14  1  0  0  0  0
  9 10  1  0  0  0  0
  9 11  1  0  0  0  0
  9 25  1  0  0  0  0
  7  8  1  0  0  0  0
  7  9  1  0  0  0  0
 29 30  1  0  0  0  0
 29 31  1  0  0  0  0
 29 32  1  0  0  0  0
 27 28  1  0  0  0  0
 27 29  1  0  0  0  0
M  END
$$$$
default_name
  -OEChem-02102213163D

 32 32  0     1  0  0  0  0  0999 V2000
   -3.8405   -3.7518    1.6252 H   0  0  0  0  0  0  0  0  0  0  0  0
   -3.7965   -2.8768    0.9782 C   0  0  0  0  0  0  0  0  0  0  0  0
   -4.5465   -2.1527    1.2902 H   0  0  0  0  0  0  0  0  0  0  0  0
   -3.9745   -3.1748   -0.0538 H   0  0  0  0  0  0  0  0  0  0  0  0
   -2.4245   -2.2537    1.0882 C   0  0  0  0  0  0  0  0  0  0  0  0
   -1.5805   -2.7478    1.8242 O   0  0  0  0  0  0  0  0  0  0  0  0
   -2.2045   -1.1637    0.3562 N   0  0  0  0  0  0  0  0  0  0  0  0
   -2.9595   -0.7907   -0.2008 H   0  0  0  0  0  0  0  0  0  0  0  0
   -0.9485   -0.4087    0.3482 C   0  0  1  0  0  0  0  0  0  0  0  0
   -0.3666   -0.6914    1.2269 H   0  0  0  0  0  0  0  0  0  0  0  0
   -0.1405   -0.7797   -0.9072 C   0  0  0  0  0  0  0  0  0  0  0  0
   -0.7981   -1.2843   -1.6165 H   0  0  0  0  0  0  0  0  0  0  0  0
    0.2138    0.1359   -1.3831 H   0  0  0  0  0  0  0  0  0  0  0  0
    1.0410   -1.6902   -0.6317 C   0  0  0  0  0  0  0  0  0  0  0  0
    1.1217   -2.9575   -1.2395 C   0  0  0  0  0  0  0  0  0  0  0  0
    0.3289   -3.2990   -1.8899 H   0  0  0  0  0  0  0  0  0  0  0  0
    2.2407   -3.7796   -1.0116 C   0  0  0  0  0  0  0  0  0  0  0  0
    2.2996   -4.7533   -1.4773 H   0  0  0  0  0  0  0  0  0  0  0  0
    3.2811   -3.3357   -0.1778 C   0  0  0  0  0  0  0  0  0  0  0  0
    4.1397   -3.9683   -0.0009 H   0  0  0  0  0  0  0  0  0  0  0  0
    3.2028   -2.0706    0.4323 C   0  0  0  0  0  0  0  0  0  0  0  0
    3.9999   -1.7315    1.0776 H   0  0  0  0  0  0  0  0  0  0  0  0
    2.0829   -1.2506    0.2070 C   0  0  0  0  0  0  0  0  0  0  0  0
    2.0223   -0.2789    0.6797 H   0  0  0  0  0  0  0  0  0  0  0  0
   -1.2168    1.1047    0.4313 C   0  0  0  0  0  0  0  0  0  0  0  0
   -2.0890    1.6186   -0.2704 O   0  0  0  0  0  0  0  0  0  0  0  0
   -0.4674    1.8182    1.2813 N   0  0  0  0  0  0  0  0  0  0  0  0
    0.2640    1.3348    1.7800 H   0  0  0  0  0  0  0  0  0  0  0  0
   -0.5889    3.2615    1.4722 C   0  0  0  0  0  0  0  0  0  0  0  0
   -1.6291    3.5206    1.6805 H   0  0  0  0  0  0  0  0  0  0  0  0
    0.0359    3.5855    2.3049 H   0  0  0  0  0  0  0  0  0  0  0  0
   -0.2760    3.7797    0.5637 H   0  0  0  0  0  0  0  0  0  0  0  0
  5  6  2  0  0  0  0
  5  7  1  0  0  0  0
  2  3  1  0  0  0  0
  2  4  1  0  0  0  0
  2  5  1  0  0  0  0
  1  2  1  0  0  0  0
 25 26  2  0  0  0  0
 25 27  1  0  0  0  0
 23 24  1  0  0  0  0
 21 22  1  0  0  0  0
 21 23  2  0  0  0  0
 19 20  1  0  0  0  0
 19 21  1  0  0  0  0
 17 18  1  0  0  0  0
 17 19  2  0  0  0  0
 15 16  1  0  0  0  0
 15 17  1  0  0  0  0
 14 15  2  0  0  0  0
 14 23  1  0  0  0  0
 11 12  1  0  0  0  0
 11 13  1  0  0  0  0
 11 14  1  0  0  0  0
  9 10  1  0  0  0  0
  9 11  1  0  0  0  0
  9 25  1  0  0  0  0
  7  8  1  0  0  0  0
  7  9  1  0  0  0  0
 29 30  1  0  0  0  0
 29 31  1  0  0  0  0
 29 32  1  0  0  0  0
 27 28  1  0  0  0  0
 27 29  1  0  0  0  0
M  END
$$$$
default_name
  -OEChem-02102213163D

 32 32  0     1  0  0  0  0  0999 V2000
   -3.8405   -3.7518    1.6252 H   0  0  0  0  0  0  0  0  0  0  0  0
   -3.7965   -2.8768    0.9782 C   0  0  0  0  0  0  0  0  0  0  0  0
   -4.5465   -2.1527    1.2902 H   0  0  0  0  0  0  0  0  0  0  0  0
   -3.9745   -3.1748   -0.0538 H   0  0  0  0  0  0  0  0  0  0  0  0
   -2.4245   -2.2537    1.0882 C   0  0  0  0  0  0  0  0  0  0  0  0
   -1.5805   -2.7478    1.8242 O   0  0  0  0  0  0  0  0  0  0  0  0
   -2.2045   -1.1637    0.3562 N   0  0  0  0  0  0  0  0  0  0  0  0
   -2.9595   -0.7907   -0.2008 H   0  0  0  0  0  0  0  0  0  0  0  0
   -0.9485   -0.4087    0.3482 C   0  0  1  0  0  0  0  0  0  0  0  0
   -0.3666   -0.6914    1.2269 H   0  0  0  0  0  0  0  0  0  0  0  0
   -0.1405   -0.7797   -0.9072 C   0  0  0  0  0  0  0  0  0  0  0  0
   -0.7981   -1.2843   -1.6165 H   0  0  0  0  0  0  0  0  0  0  0  0
    0.2138    0.1359   -1.3831 H   0  0  0  0  0  0  0  0  0  0  0  0
    1.0410   -1.6902   -0.6317 C   0  0  0  0  0  0  0  0  0  0  0  0
    1.2919   -2.8026   -1.4573 C   0  0  0  0  0  0  0  0  0  0  0  0
    0.6291   -3.0278   -2.2809 H   0  0  0  0  0  0  0  0  0  0  0  0
    2.4133   -3.6187   -1.2204 C   0  0  0  0  0  0  0  0  0  0  0  0
    2.6028   -4.4739   -1.8539 H   0  0  0  0  0  0  0  0  0  0  0  0
    3.2863   -3.3235   -0.1595 C   0  0  0  0  0  0  0  0  0  0  0  0
    4.1466   -3.9519    0.0239 H   0  0  0  0  0  0  0  0  0  0  0  0
    3.0376   -2.2136    0.6683 C   0  0  0  0  0  0  0  0  0  0  0  0
    3.7055   -1.9896    1.4871 H   0  0  0  0  0  0  0  0  0  0  0  0
    1.9150   -1.4000    0.4333 C   0  0  0  0  0  0  0  0  0  0  0  0
    1.7229   -0.5484    1.0729 H   0  0  0  0  0  0  0  0  0  0  0  0
   -1.2168    1.1047    0.4313 C   0  0  0  0  0  0  0  0  0  0  0  0
   -2.0890    1.6186   -0.2704 O   0  0  0  0  0  0  0  0  0  0  0  0
   -0.4674    1.8182    1.2813 N   0  0  0  0  0  0  0  0  0  0  0  0
    0.2640    1.3348    1.7800 H   0  0  0  0  0  0  0  0  0  0  0  0
   -0.5889    3.2615    1.4722 C   0  0  0  0  0  0  0  0  0  0  0  0
   -1.6291    3.5206    1.6805 H   0  0  0  0  0  0  0  0  0  0  0  0
    0.0359    3.5855    2.3049 H   0  0  0  0  0  0  0  0  0  0  0  0
   -0.2760    3.7797    0.5637 H   0  0  0  0  0  0  0  0  0  0  0  0
  5  6  2  0  0  0  0
  5  7  1  0  0  0  0
  2  3  1  0  0  0  0
  2  4  1  0  0  0  0
  2  5  1  0  0  0  0
  1  2  1  0  0  0  0
 25 26  2  0  0  0  0
 25 27  1  0  0  0  0
 23 24  1  0  0  0  0
 21 22  1  0  0  0  0
 21 23  2  0  0  0  0
 19 20  1  0  0  0  0
 19 21  1  0  0  0  0
 17 18  1  0  0  0  0
 17 19  2  0  0  0  0
 15 16  1  0  0  0  0
 15 17  1  0  0  0  0
 14 15  2  0  0  0  0
 14 23  1  0  0  0  0
 11 12  1  0  0  0  0
 11 13  1  0  0  0  0
 11 14  1  0  0  0  0
  9 10  1  0  0  0  0
  9 11  1  0  0  0  0
  9 25  1  0  0  0  0
  7  8  1  0  0  0  0
  7  9  1  0  0  0  0
 29 30  1  0  0  0  0
 29 31  1  0  0  0  0
 29 32  1  0  0  0  0
 27 28  1  0  0  0  0
 27 29  1  0  0  0  0
M  END
$$$$
default_name
  -OEChem-02102213163D

 32 32  0     1  0  0  0  0  0999 V2000
   -3.8405   -3.7518    1.6252 H   0  0  0  0  0  0  0  0  0  0  0  0
   -3.7965   -2.8768    0.9782 C   0  0  0  0  0  0  0  0  0  0  0  0
   -4.5465   -2.1527    1.2902 H   0  0  0  0  0  0  0  0  0  0  0  0
   -3.9745   -3.1748   -0.0538 H   0  0  0  0  0  0  0  0  0  0  0  0
   -2.4245   -2.2537    1.0882 C   0  0  0  0  0  0  0  0  0  0  0  0
   -1.5805   -2.7478    1.8242 O   0  0  0  0  0  0  0  0  0  0  0  0
   -2.2045   -1.1637    0.3562 N   0  0  0  0  0  0  0  0  0  0  0  0
   -2.9595   -0.7907   -0.2008 H   0  0  0  0  0  0  0  0  0  0  0  0
   -0.9485   -0.4087    0.3482 C   0  0  1  0  0  0  0  0  0  0  0  0
   -0.3666   -0.6914    1.2269 H   0  0  0  0  0  0  0  0  0  0  0  0
   -0.1405   -0.7797   -0.9072 C   0  0  0  0  0  0  0  0  0  0  0  0
   -0.7981   -1.2843   -1.6165 H   0  0  0  0  0  0  0  0  0  0  0  0
    0.2138    0.1359   -1.3831 H   0  0  0  0  0  0  0  0  0  0  0  0
    1.0410   -1.6902   -0.6317 C   0  0  0  0  0  0  0  0  0  0  0  0
    1.4829   -2.6010   -1.6100 C   0  0  0  0  0  0  0  0  0  0  0  0
    0.9671   -2.6728   -2.5572 H   0  0  0  0  0  0  0  0  0  0  0  0
    2.6049   -3.4132   -1.3627 C   0  0  0  0  0  0  0  0  0  0  0  0
    2.9410   -4.1137   -2.1143 H   0  0  0  0  0  0  0  0  0  0  0  0
    3.2879   -3.3150   -0.1386 C   0  0  0  0  0  0  0  0  0  0  0  0
    4.1486   -3.9407    0.0523 H   0  0  0  0  0  0  0  0  0  0  0  0
    2.8481   -2.4070    0.8417 C   0  0  0  0  0  0  0  0  0  0  0  0
    3.3697   -2.3353    1.7849 H   0  0  0  0  0  0  0  0  0  0  0  0
    1.7247   -1.5978    0.5956 C   0  0  0  0  0  0  0  0  0  0  0  0
    1.3853   -0.9021    1.3519 H   0  0  0  0  0  0  0  0  0  0  0  0
   -1.2168    1.1047    0.4313 C   0  0  0  0  0  0  0  0  0  0  0  0
   -2.0890    1.6186   -0.2704 O   0  0  0  0  0  0  0  0  0  0  0  0
   -0.4674    1.8182    1.2813 N   0  0  0  0  0  0  0  0  0  0  0  0
    0.2640    1.3348    1.7800 H   0  0  0  0  0  0  0  0  0  0  0  0
   -0.5889    3.2615    1.4722 C   0  0  0  0  0  0  0  0  0  0  0  0
   -1.6291    3.5206    1.6805 H   0  0  0  0  0  0  0  0  0  0  0  0
    0.0359    3.5855    2.3049 H   0  0  0  0  0  0  0  0  0  0  0  0
   -0.2760    3.7797    0.5637 H   0  0  0  0  0  0  0  0  0  0  0  0
  5  6  2  0  0  0  0
  5  7  1  0  0  0  0
  2  3  1  0  0  0  0
  2  4  1  0  0  0  0
  2  5  1  0  0  0  0
  1  2  1  0  0  0  0
 25 26  2  0  0  0  0
 25 27  1  0  0  0  0
 23 24  1  0  0  0  0
 21 22  1  0  0  0  0
 21 23  2  0  0  0  0
 19 20  1  0  0  0  0
 19 21  1  0  0  0  0
 17 18  1  0  0  0  0
 17 19  2  0  0  0  0
 15 16  1  0  0  0  0
 15 17  1  0  0  0  0
 14 15  2  0  0  0  0
 14 23  1  0  0  0  0
 11 12  1  0  0  0  0
 11 13  1  0  0  0  0
 11 14  1  0  0  0  0
  9 10  1  0  0  0  0
  9 11  1  0  0  0  0
  9 25  1  0  0  0  0
  7  8  1  0  0  0  0
  7  9  1  0  0  0  0
 29 30  1  0  0  0  0
 29 31  1  0  0  0  0
 29 32  1  0  0  0  0
 27 28  1  0  0  0  0
 27 29  1  0  0  0  0
M  END
$$$$
default_name
  -OEChem-02102213163D

 32 32  0     1  0  0  0  0  0999 V2000
   -3.8405   -3.7518    1.6252 H   0  0  0  0  0  0  0  0  0  0  0  0
   -3.7965   -2.8768    0.9782 C   0  0  0  0  0  0  0  0  0  0  0  0
   -4.5465   -2.1527    1.2902 H   0  0  0  0  0  0  0  0  0  0  0  0
   -3.9745   -3.1748   -0.0538 H   0  0  0  0  0  0  0  0  0  0  0  0
   -2.4245   -2.2537    1.0882 C   0  0  0  0  0  0  0  0  0  0  0  0
   -1.5805   -2.7478    1.8242 O   0  0  0  0  0  0  0  0  0  0  0  0
   -2.2045   -1.1637    0.3562 N   0  0  0  0  0  0  0  0  0  0  0  0
   -2.9595   -0.7907   -0.2008 H   0  0  0  0  0  0  0  0  0  0  0  0
   -0.9485   -0.4087    0.3482 C   0  0  1  0  0  0  0  0  0  0  0  0
   -0.3666   -0.6914    1.2269 H   0  0  0  0  0  0  0  0  0  0  0  0
   -0.1405   -0.7797   -0.9072 C   0  0  0  0  0  0  0  0  0  0  0  0
   -0.7981   -1.2843   -1.6165 H   0  0  0  0  0  0  0  0  0  0  0  0
    0.2138    0.1359   -1.3831 H   0  0  0  0  0  0  0  0  0  0  0  0
    1.0410   -1.6902   -0.6317 C   0  0  0  0  0  0  0  0  0  0  0  0
    1.6815   -2.3666   -1.6872 C   0  0  0  0  0  0  0  0  0  0  0  0
    1.3198   -2.2584   -2.7000 H   0  0  0  0  0  0  0  0  0  0  0  0
    2.8025   -3.1770   -1.4291 C   0  0  0  0  0  0  0  0  0  0  0  0
    3.2913   -3.6975   -2.2406 H   0  0  0  0  0  0  0  0  0  0  0  0
    3.2858   -3.3110   -0.1164 C   0  0  0  0  0  0  0  0  0  0  0  0
    4.1456   -3.9355    0.0822 H   0  0  0  0  0  0  0  0  0  0  0  0
    2.6471   -2.6378    0.9408 C   0  0  0  0  0  0  0  0  0  0  0  0
    3.0153   -2.7450    1.9506 H   0  0  0  0  0  0  0  0  0  0  0  0
    1.5249   -1.8306    0.6830 C   0  0  0  0  0  0  0  0  0  0  0  0
    1.0325   -1.3158    1.4977 H   0  0  0  0  0  0  0  0  0  0  0  0
   -1.2168    1.1047    0.4313 C   0  0  0  0  0  0  0  0  0  0  0  0
   -2.0890    1.6186   -0.2704 O   0  0  0  0  0  0  0  0  0  0  0  0
   -0.4674    1.8182    1.2813 N   0  0  0  0  0  0  0  0  0  0  0  0
    0.2640    1.3348    1.7800 H   0  0  0  0  0  0  0  0  0  0  0  0
   -0.5889    3.2615    1.4722 C   0  0  0  0  0  0  0  0  0  0  0  0
   -1.6291    3.5206    1.6805 H   0  0  0  0  0  0  0  0  0  0  0  0
    0.0359    3.5855    2.3049 H   0  0  0  0  0  0  0  0  0  0  0  0
   -0.2760    3.7797    0.5637 H   0  0  0  0  0  0  0  0  0  0  0  0
  5  6  2  0  0  0  0
  5  7  1  0  0  0  0
  2  3  1  0  0  0  0
  2  4  1  0  0  0  0
  2  5  1  0  0  0  0
  1  2  1  0  0  0  0
 25 26  2  0  0  0  0
 25 27  1  0  0  0  0
 23 24  1  0  0  0  0
 21 22  1  0  0  0  0
 21 23  2  0  0  0  0
 19 20  1  0  0  0  0
 19 21  1  0  0  0  0
 17 18  1  0  0  0  0
 17 19  2  0  0  0  0
 15 16  1  0  0  0  0
 15 17  1  0  0  0  0
 14 15  2  0  0  0  0
 14 23  1  0  0  0  0
 11 12  1  0  0  0  0
 11 13  1  0  0  0  0
 11 14  1  0  0  0  0
  9 10  1  0  0  0  0
  9 11  1  0  0  0  0
  9 25  1  0  0  0  0
  7  8  1  0  0  0  0
  7  9  1  0  0  0  0
 29 30  1  0  0  0  0
 29 31  1  0  0  0  0
 29 32  1  0  0  0  0
 27 28  1  0  0  0  0
 27 29  1  0  0  0  0
M  END
$$$$
default_name
  -OEChem-02102213163D

 32 32  0     1  0  0  0  0  0999 V2000
   -3.8405   -3.7518    1.6252 H   0  0  0  0  0  0  0  0  0  0  0  0
   -3.7965   -2.8768    0.9782 C   0  0  0  0  0  0  0  0  0  0  0  0
   -4.5465   -2.1527    1.2902 H   0  0  0  0  0  0  0  0  0  0  0  0
   -3.9745   -3.1748   -0.0538 H   0  0  0  0  0  0  0  0  0  0  0  0
   -2.4245   -2.2537    1.0882 C   0  0  0  0  0  0  0  0  0  0  0  0
   -1.5805   -2.7478    1.8242 O   0  0  0  0  0  0  0  0  0  0  0  0
   -2.2045   -1.1637    0.3562 N   0  0  0  0  0  0  0  0  0  0  0  0
   -2.9595   -0.7907   -0.2008 H   0  0  0  0  0  0  0  0  0  0  0  0
   -0.9485   -0.4087    0.3482 C   0  0  1  0  0  0  0  0  0  0  0  0
   -0.3666   -0.6914    1.2269 H   0  0  0  0  0  0  0  0  0  0  0  0
   -0.1405   -0.7797   -0.9072 C   0  0  0  0  0  0  0  0  0  0  0  0
   -0.8316   -1.0347   -1.7118 H   0  0  0  0  0  0  0  0  0  0  0  0
    0.4311    0.0916   -1.2302 H   0  0  0  0  0  0  0  0  0  0  0  0
    0.8022   -1.9513   -0.7082 C   0  0  0  0  0  0  0  0  0  0  0  0
    1.6082   -2.4063   -1.7690 C   0  0  0  0  0  0  0  0  0  0  0  0
    1.5430   -1.9366   -2.7403 H   0  0  0  0  0  0  0  0  0  0  0  0
    2.5102   -3.4669   -1.5655 C   0  0  0  0  0  0  0  0  0  0  0  0
    3.1263   -3.8164   -2.3820 H   0  0  0  0  0  0  0  0  0  0  0  0
    2.6093   -4.0728   -0.3015 C   0  0  0  0  0  0  0  0  0  0  0  0
    3.3006   -4.8892   -0.1457 H   0  0  0  0  0  0  0  0  0  0  0  0
    1.8043   -3.6215    0.7603 C   0  0  0  0  0  0  0  0  0  0  0  0
    1.8765   -4.0907    1.7305 H   0  0  0  0  0  0  0  0  0  0  0  0
    0.9006   -2.5637    0.5557 C   0  0  0  0  0  0  0  0  0  0  0  0
    0.2795   -2.2197    1.3725 H   0  0  0  0  0  0  0  0  0  0  0  0
   -1.2168    1.1047    0.4313 C   0  0  0  0  0  0  0  0  0  0  0  0
   -2.0890    1.6186   -0.2704 O   0  0  0  0  0  0  0  0  0  0  0  0
   -0.4674    1.8182    1.2813 N   0  0  0  0  0  0  0  0  0  0  0  0
    0.2640    1.3348    1.7800 H   0  0  0  0  0  0  0  0  0  0  0  0
   -0.5889    3.2615    1.4722 C   0  0  0  0  0  0  0  0  0  0  0  0
   -1.6291    3.5206    1.6805 H   0  0  0  0  0  0  0  0  0  0  0  0
    0.0359    3.5855    2.3049 H   0  0  0  0  0  0  0  0  0  0  0  0
   -0.2760    3.7797    0.5637 H   0  0  0  0  0  0  0  0  0  0  0  0
  5  6  2  0  0  0  0
  5  7  1  0  0  0  0
  2  3  1  0  0  0  0
  2  4  1  0  0  0  0
  2  5  1  0  0  0  0
  1  2  1  0  0  0  0
 25 26  2  0  0  0  0
 25 27  1  0  0  0  0
 23 24  1  0  0  0  0
 21 22  1  0  0  0  0
 21 23  2  0  0  0  0
 19 20  1  0  0  0  0
 19 21  1  0  0  0  0
 17 18  1  0  0  0  0
 17 19  2  0  0  0  0
 15 16  1  0  0  0  0
 15 17  1  0  0  0  0
 14 15  2  0  0  0  0
 14 23  1  0  0  0  0
 11 12  1  0  0  0  0
 11 13  1  0  0  0  0
 11 14  1  0  0  0  0
  9 10  1  0  0  0  0
  9 11  1  0  0  0  0
  9 25  1  0  0  0  0
  7  8  1  0  0  0  0
  7  9  1  0  0  0  0
 29 30  1  0  0  0  0
 29 31  1  0  0  0  0
 29 32  1  0  0  0  0
 27 28  1  0  0  0  0
 27 29  1  0  0  0  0
M  END
$$$$
default_name
  -OEChem-02102213163D

 32 32  0     1  0  0  0  0  0999 V2000
   -3.8405   -3.7518    1.6252 H   0  0  0  0  0  0  0  0  0  0  0  0
   -3.7965   -2.8768    0.9782 C   0  0  0  0  0  0  0  0  0  0  0  0
   -4.5465   -2.1527    1.2902 H   0  0  0  0  0  0  0  0  0  0  0  0
   -3.9745   -3.1748   -0.0538 H   0  0  0  0  0  0  0  0  0  0  0  0
   -2.4245   -2.2537    1.0882 C   0  0  0  0  0  0  0  0  0  0  0  0
   -1.5805   -2.7478    1.8242 O   0  0  0  0  0  0  0  0  0  0  0  0
   -2.2045   -1.1637    0.3562 N   0  0  0  0  0  0  0  0  0  0  0  0
   -2.9595   -0.7907   -0.2008 H   0  0  0  0  0  0  0  0  0  0  0  0
   -0.9485   -0.4087    0.3482 C   0  0  1  0  0  0  0  0  0  0  0  0
   -0.3666   -0.6914    1.2269 H   0  0  0  0  0  0  0  0  0  0  0  0
   -0.1405   -0.7797   -0.9072 C   0  0  0  0  0  0  0  0  0  0  0  0
   -0.8316   -1.0347   -1.7118 H   0  0  0  0  0  0  0  0  0  0  0  0
    0.4311    0.0916   -1.2302 H   0  0  0  0  0  0  0  0  0  0  0  0
    0.8022   -1.9513   -0.7082 C   0  0  0  0  0  0  0  0  0  0  0  0
    1.8233   -2.2116   -1.6418 C   0  0  0  0  0  0  0  0  0  0  0  0
    1.9273   -1.5899   -2.5198 H   0  0  0  0  0  0  0  0  0  0  0  0
    2.7197   -3.2752   -1.4291 C   0  0  0  0  0  0  0  0  0  0  0  0
    3.5014   -3.4749   -2.1485 H   0  0  0  0  0  0  0  0  0  0  0  0
    2.5980   -4.0787   -0.2827 C   0  0  0  0  0  0  0  0  0  0  0  0
    3.2852   -4.8973   -0.1206 H   0  0  0  0  0  0  0  0  0  0  0  0
    1.5779   -3.8222    0.6513 C   0  0  0  0  0  0  0  0  0  0  0  0
    1.4809   -4.4431    1.5298 H   0  0  0  0  0  0  0  0  0  0  0  0
    0.6802   -2.7613    0.4369 C   0  0  0  0  0  0  0  0  0  0  0  0
   -0.1063   -2.5671    1.1546 H   0  0  0  0  0  0  0  0  0  0  0  0
   -1.2168    1.1047    0.4313 C   0  0  0  0  0  0  0  0  0  0  0  0
   -2.0890    1.6186   -0.2704 O   0  0  0  0  0  0  0  0  0  0  0  0
   -0.4674    1.8182    1.2813 N   0  0  0  0  0  0  0  0  0  0  0  0
    0.2640    1.3348    1.7800 H   0  0  0  0  0  0  0  0  0  0  0  0
   -0.5889    3.2615    1.4722 C   0  0  0  0  0  0  0  0  0  0  0  0
   -1.6291    3.5206    1.6805 H   0  0  0  0  0  0  0  0  0  0  0  0
    0.0359    3.5855    2.3049 H   0  0  0  0  0  0  0  0  0  0  0  0
   -0.2760    3.7797    0.5637 H   0  0  0  0  0  0  0  0  0  0  0  0
  5  6  2  0  0  0  0
  5  7  1  0  0  0  0
  2  3  1  0  0  0  0
  2  4  1  0  0  0  0
  2  5  1  0  0  0  0
  1  2  1  0  0  0  0
 25 26  2  0  0  0  0
 25 27  1  0  0  0  0
 23 24  1  0  0  0  0
 21 22  1  0  0  0  0
 21 23  2  0  0  0  0
 19 20  1  0  0  0  0
 19 21  1  0  0  0  0
 17 18  1  0  0  0  0
 17 19  2  0  0  0  0
 15 16  1  0  0  0  0
 15 17  1  0  0  0  0
 14 15  2  0  0  0  0
 14 23  1  0  0  0  0
 11 12  1  0  0  0  0
 11 13  1  0  0  0  0
 11 14  1  0  0  0  0
  9 10  1  0  0  0  0
  9 11  1  0  0  0  0
  9 25  1  0  0  0  0
  7  8  1  0  0  0  0
  7  9  1  0  0  0  0
 29 30  1  0  0  0  0
 29 31  1  0  0  0  0
 29 32  1  0  0  0  0
 27 28  1  0  0  0  0
 27 29  1  0  0  0  0
M  END
$$$$
default_name
  -OEChem-02102213163D

 32 32  0     1  0  0  0  0  0999 V2000
   -3.8405   -3.7518    1.6252 H   0  0  0  0  0  0  0  0  0  0  0  0
   -3.7965   -2.8768    0.9782 C   0  0  0  0  0  0  0  0  0  0  0  0
   -4.5465   -2.1527    1.2902 H   0  0  0  0  0  0  0  0  0  0  0  0
   -3.9745   -3.1748   -0.0538 H   0  0  0  0  0  0  0  0  0  0  0  0
   -2.4245   -2.2537    1.0882 C   0  0  0  0  0  0  0  0  0  0  0  0
   -1.5805   -2.7478    1.8242 O   0  0  0  0  0  0  0  0  0  0  0  0
   -2.2045   -1.1637    0.3562 N   0  0  0  0  0  0  0  0  0  0  0  0
   -2.9595   -0.7907   -0.2008 H   0  0  0  0  0  0  0  0  0  0  0  0
   -0.9485   -0.4087    0.3482 C   0  0  1  0  0  0  0  0  0  0  0  0
   -0.3666   -0.6914    1.2269 H   0  0  0  0  0  0  0  0  0  0  0  0
   -0.1405   -0.7797   -0.9072 C   0  0  0  0  0  0  0  0  0  0  0  0
   -0.8316   -1.0347   -1.7118 H   0  0  0  0  0  0  0  0  0  0  0  0
    0.4311    0.0916   -1.2302 H   0  0  0  0  0  0  0  0  0  0  0  0
    0.8022   -1.9513   -0.7082 C   0  0  0  0  0  0  0  0  0  0  0  0
    1.9991   -2.0367   -1.4445 C   0  0  0  0  0  0  0  0  0  0  0  0
    2.2427   -1.2775   -2.1743 H   0  0  0  0  0  0  0  0  0  0  0  0
    2.8883   -3.1048   -1.2248 C   0  0  0  0  0  0  0  0  0  0  0  0
    3.8055   -3.1699   -1.7930 H   0  0  0  0  0  0  0  0  0  0  0  0
    2.5836   -4.0878   -0.2679 C   0  0  0  0  0  0  0  0  0  0  0  0
    3.2657   -4.9096   -0.1008 H   0  0  0  0  0  0  0  0  0  0  0  0
    1.3877   -4.0062    0.4685 C   0  0  0  0  0  0  0  0  0  0  0  0
    1.1508   -4.7646    1.2002 H   0  0  0  0  0  0  0  0  0  0  0  0
    0.4978   -2.9404    0.2463 C   0  0  0  0  0  0  0  0  0  0  0  0
   -0.4235   -2.8806    0.8111 H   0  0  0  0  0  0  0  0  0  0  0  0
   -1.2168    1.1047    0.4313 C   0  0  0  0  0  0  0  0  0  0  0  0
   -2.0890    1.6186   -0.2704 O   0  0  0  0  0  0  0  0  0  0  0  0
   -0.4674    1.8182    1.2813 N   0  0  0  0  0  0  0  0  0  0  0  0
    0.2640    1.3348    1.7800 H   0  0  0  0  0  0  0  0  0  0  0  0
   -0.5889    3.2615    1.4722 C   0  0  0  0  0  0  0  0  0  0  0  0
   -1.6291    3.5206    1.6805 H   0  0  0  0  0  0  0  0  0  0  0  0
    0.0359    3.5855    2.3049 H   0  0  0  0  0  0  0  0  0  0  0  0
   -0.2760    3.7797    0.5637 H   0  0  0  0  0  0  0  0  0  0  0  0
  5  6  2  0  0  0  0
  5  7  1  0  0  0  0
  2  3  1  0  0  0  0
  2  4  1  0  0  0  0
  2  5  1  0  0  0  0
  1  2  1  0  0  0  0
 25 26  2  0  0  0  0
 25 27  1  0  0  0  0
 23 24  1  0  0  0  0
 21 22  1  0  0  0  0
 21 23  2  0  0  0  0
 19 20  1  0  0  0  0
 19 21  1  0  0  0  0
 17 18  1  0  0  0  0
 17 19  2  0  0  0  0
 15 16  1  0  0  0  0
 15 17  1  0  0  0  0
 14 15  2  0  0  0  0
 14 23  1  0  0  0  0
 11 12  1  0  0  0  0
 11 13  1  0  0  0  0
 11 14  1  0  0  0  0
  9 10  1  0  0  0  0
  9 11  1  0  0  0  0
  9 25  1  0  0  0  0
  7  8  1  0  0  0  0
  7  9  1  0  0  0  0
 29 30  1  0  0  0  0
 29 31  1  0  0  0  0
 29 32  1  0  0  0  0
 27 28  1  0  0  0  0
 27 29  1  0  0  0  0
M  END
$$$$
default_name
  -OEChem-02102213163D

 32 32  0     1  0  0  0  0  0999 V2000
   -3.8405   -3.7518    1.6252 H   0  0  0  0  0  0  0  0  0  0  0  0
   -3.7965   -2.8768    0.9782 C   0  0  0  0  0  0  0  0  0  0  0  0
   -4.5465   -2.1527    1.2902 H   0  0  0  0  0  0  0  0  0  0  0  0
   -3.9745   -3.1748   -0.0538 H   0  0  0  0  0  0  0  0  0  0  0  0
   -2.4245   -2.2537    1.0882 C   0  0  0  0  0  0  0  0  0  0  0  0
   -1.5805   -2.7478    1.8242 O   0  0  0  0  0  0  0  0  0  0  0  0
   -2.2045   -1.1637    0.3562 N   0  0  0  0  0  0  0  0  0  0  0  0
   -2.9595   -0.7907   -0.2008 H   0  0  0  0  0  0  0  0  0  0  0  0
   -0.9485   -0.4087    0.3482 C   0  0  1  0  0  0  0  0  0  0  0  0
   -0.3666   -0.6914    1.2269 H   0  0  0  0  0  0  0  0  0  0  0  0
   -0.1405   -0.7797   -0.9072 C   0  0  0  0  0  0  0  0  0  0  0  0
   -0.8316   -1.0347   -1.7118 H   0  0  0  0  0  0  0  0  0  0  0  0
    0.4311    0.0916   -1.2302 H   0  0  0  0  0  0  0  0  0  0  0  0
    0.8022   -1.9513   -0.7082 C   0  0  0  0  0  0  0  0  0  0  0  0
    2.1235   -1.8935   -1.1907 C   0  0  0  0  0  0  0  0  0  0  0  0
    2.4677   -1.0205   -1.7271 H   0  0  0  0  0  0  0  0  0  0  0  0
    3.0045   -2.9674   -0.9662 C   0  0  0  0  0  0  0  0  0  0  0  0
    4.0178   -2.9221   -1.3398 H   0  0  0  0  0  0  0  0  0  0  0  0
    2.5670   -4.0994   -0.2579 C   0  0  0  0  0  0  0  0  0  0  0  0
    3.2432   -4.9255   -0.0875 H   0  0  0  0  0  0  0  0  0  0  0  0
    1.2469   -4.1610    0.2243 C   0  0  0  0  0  0  0  0  0  0  0  0
    0.9089   -5.0334    0.7641 H   0  0  0  0  0  0  0  0  0  0  0  0
    0.3657   -3.0890   -0.0030 C   0  0  0  0  0  0  0  0  0  0  0  0
   -0.6506   -3.1391    0.3655 H   0  0  0  0  0  0  0  0  0  0  0  0
   -1.2168    1.1047    0.4313 C   0  0  0  0  0  0  0  0  0  0  0  0
   -2.0890    1.6186   -0.2704 O   0  0  0  0  0  0  0  0  0  0  0  0
   -0.4674    1.8182    1.2813 N   0  0  0  0  0  0  0  0  0  0  0  0
    0.2640    1.3348    1.7800 H   0  0  0  0  0  0  0  0  0  0  0  0
   -0.5889    3.2615    1.4722 C   0  0  0  0  0  0  0  0  0  0  0  0
   -1.6291    3.5206    1.6805 H   0  0  0  0  0  0  0  0  0  0  0  0
    0.0359    3.5855    2.3049 H   0  0  0  0  0  0  0  0  0  0  0  0
   -0.2760    3.7797    0.5637 H   0  0  0  0  0  0  0  0  0  0  0  0
  5  6  2  0  0  0  0
  5  7  1  0  0  0  0
  2  3  1  0  0  0  0
  2  4  1  0  0  0  0
  2  5  1  0  0  0  0
  1  2  1  0  0  0  0
 25 26  2  0  0  0  0
 25 27  1  0  0  0  0
 23 24  1  0  0  0  0
 21 22  1  0  0  0  0
 21 23  2  0  0  0  0
 19 20  1  0  0  0  0
 19 21  1  0  0  0  0
 17 18  1  0  0  0  0
 17 19  2  0  0  0  0
 15 16  1  0  0  0  0
 15 17  1  0  0  0  0
 14 15  2  0  0  0  0
 14 23  1  0  0  0  0
 11 12  1  0  0  0  0
 11 13  1  0  0  0  0
 11 14  1  0  0  0  0
  9 10  1  0  0  0  0
  9 11  1  0  0  0  0
  9 25  1  0  0  0  0
  7  8  1  0  0  0  0
  7  9  1  0  0  0  0
 29 30  1  0  0  0  0
 29 31  1  0  0  0  0
 29 32  1  0  0  0  0
 27 28  1  0  0  0  0
 27 29  1  0  0  0  0
M  END
$$$$
default_name
  -OEChem-02102213163D

 32 32  0     1  0  0  0  0  0999 V2000
   -3.8405   -3.7518    1.6252 H   0  0  0  0  0  0  0  0  0  0  0  0
   -3.7965   -2.8768    0.9782 C   0  0  0  0  0  0  0  0  0  0  0  0
   -4.5465   -2.1527    1.2902 H   0  0  0  0  0  0  0  0  0  0  0  0
   -3.9745   -3.1748   -0.0538 H   0  0  0  0  0  0  0  0  0  0  0  0
   -2.4245   -2.2537    1.0882 C   0  0  0  0  0  0  0  0  0  0  0  0
   -1.5805   -2.7478    1.8242 O   0  0  0  0  0  0  0  0  0  0  0  0
   -2.2045   -1.1637    0.3562 N   0  0  0  0  0  0  0  0  0  0  0  0
   -2.9595   -0.7907   -0.2008 H   0  0  0  0  0  0  0  0  0  0  0  0
   -0.9485   -0.4087    0.3482 C   0  0  1  0  0  0  0  0  0  0  0  0
   -0.3666   -0.6914    1.2269 H   0  0  0  0  0  0  0  0  0  0  0  0
   -0.1405   -0.7797   -0.9072 C   0  0  0  0  0  0  0  0  0  0  0  0
   -0.8316   -1.0347   -1.7118 H   0  0  0  0  0  0  0  0  0  0  0  0
    0.4311    0.0916   -1.2302 H   0  0  0  0  0  0  0  0  0  0  0  0
    0.8022   -1.9513   -0.7082 C   0  0  0  0  0  0  0  0  0  0  0  0
    2.1881   -1.7917   -0.8977 C   0  0  0  0  0  0  0  0  0  0  0  0
    2.5869   -0.8366   -1.2090 H   0  0  0  0  0  0  0  0  0  0  0  0
    3.0604   -2.8723   -0.6712 C   0  0  0  0  0  0  0  0  0  0  0  0
    4.1239   -2.7484   -0.8197 H   0  0  0  0  0  0  0  0  0  0  0  0
    2.5494   -4.1128   -0.2534 C   0  0  0  0  0  0  0  0  0  0  0  0
    3.2194   -4.9437   -0.0817 H   0  0  0  0  0  0  0  0  0  0  0  0
    1.1649   -4.2760   -0.0646 C   0  0  0  0  0  0  0  0  0  0  0  0
    0.7714   -5.2311    0.2513 H   0  0  0  0  0  0  0  0  0  0  0  0
    0.2930   -3.1969   -0.2942 C   0  0  0  0  0  0  0  0  0  0  0  0
   -0.7722   -3.3247   -0.1518 H   0  0  0  0  0  0  0  0  0  0  0  0
   -1.2168    1.1047    0.4313 C   0  0  0  0  0  0  0  0  0  0  0  0
   -2.0890    1.6186   -0.2704 O   0  0  0  0  0  0  0  0  0  0  0  0
   -0.4674    1.8182    1.2813 N   0  0  0  0  0  0  0  0  0  0  0  0
    0.2640    1.3348    1.7800 H   0  0  0  0  0  0  0  0  0  0  0  0
   -0.5889    3.2615    1.4722 C   0  0  0  0  0  0  0  0  0  0  0  0
   -1.6291    3.5206    1.6805 H   0  0  0  0  0  0  0  0  0  0  0  0
    0.0359    3.5855    2.3049 H   0  0  0  0  0  0  0  0  0  0  0  0
   -0.2760    3.7797    0.5637 H   0  0  0  0  0  0  0  0  0  0  0  0
  5  6  2  0  0  0  0
  5  7  1  0  0  0  0
  2  3  1  0  0  0  0
  2  4  1  0  0  0  0
  2  5  1  0  0  0  0
  1  2  1  0  0  0  0
 25 26  2  0  0  0  0
 25 27  1  0  0  0  0
 23 24  1  0  0  0  0
 21 22  1  0  0  0  0
 21 23  2  0  0  0  0
 19 20  1  0  0  0  0
 19 21  1  0  0  0  0
 17 18  1  0  0  0  0
 17 19  2  0  0  0  0
 15 16  1  0  0  0  0
 15 17  1  0  0  0  0
 14 15  2  0  0  0  0
 14 23  1  0  0  0  0
 11 12  1  0  0  0  0
 11 13  1  0  0  0  0
 11 14  1  0  0  0  0
  9 10  1  0  0  0  0
  9 11  1  0  0  0  0
  9 25  1  0  0  0  0
  7  8  1  0  0  0  0
  7  9  1  0  0  0  0
 29 30  1  0  0  0  0
 29 31  1  0  0  0  0
 29 32  1  0  0  0  0
 27 28  1  0  0  0  0
 27 29  1  0  0  0  0
M  END
$$$$
default_name
  -OEChem-02102213163D

 32 32  0     1  0  0  0  0  0999 V2000
   -3.8405   -3.7518    1.6252 H   0  0  0  0  0  0  0  0  0  0  0  0
   -3.7965   -2.8768    0.9782 C   0  0  0  0  0  0  0  0  0  0  0  0
   -4.5465   -2.1527    1.2902 H   0  0  0  0  0  0  0  0  0  0  0  0
   -3.9745   -3.1748   -0.0538 H   0  0  0  0  0  0  0  0  0  0  0  0
   -2.4245   -2.2537    1.0882 C   0  0  0  0  0  0  0  0  0  0  0  0
   -1.5805   -2.7478    1.8242 O   0  0  0  0  0  0  0  0  0  0  0  0
   -2.2045   -1.1637    0.3562 N   0  0  0  0  0  0  0  0  0  0  0  0
   -2.9595   -0.7907   -0.2008 H   0  0  0  0  0  0  0  0  0  0  0  0
   -0.9485   -0.4087    0.3482 C   0  0  1  0  0  0  0  0  0  0  0  0
   -0.3666   -0.6914    1.2269 H   0  0  0  0  0  0  0  0  0  0  0  0
   -0.1405   -0.7797   -0.9072 C   0  0  0  0  0  0  0  0  0  0  0  0
   -0.8316   -1.0347   -1.7118 H   0  0  0  0  0  0  0  0  0  0  0  0
    0.4311    0.0916   -1.2302 H   0  0  0  0  0  0  0  0  0  0  0  0
    0.8022   -1.9513   -0.7082 C   0  0  0  0  0  0  0  0  0  0  0  0
    2.1884   -1.7384   -0.5853 C   0  0  0  0  0  0  0  0  0  0  0  0
    2.5922   -0.7383   -0.6550 H   0  0  0  0  0  0  0  0  0  0  0  0
    3.0522   -2.8260   -0.3597 C   0  0  0  0  0  0  0  0  0  0  0  0
    4.1165   -2.6607   -0.2682 H   0  0  0  0  0  0  0  0  0  0  0  0
    2.5319   -4.1271   -0.2547 C   0  0  0  0  0  0  0  0  0  0  0  0
    3.1958   -4.9630   -0.0838 H   0  0  0  0  0  0  0  0  0  0  0  0
    1.1474   -4.3435   -0.3786 C   0  0  0  0  0  0  0  0  0  0  0  0
    0.7479   -5.3442   -0.3033 H   0  0  0  0  0  0  0  0  0  0  0  0
    0.2847   -3.2568   -0.6073 C   0  0  0  0  0  0  0  0  0  0  0  0
   -0.7798   -3.4249   -0.7058 H   0  0  0  0  0  0  0  0  0  0  0  0
   -1.2168    1.1047    0.4313 C   0  0  0  0  0  0  0  0  0  0  0  0
   -2.0890    1.6186   -0.2704 O   0  0  0  0  0  0  0  0  0  0  0  0
   -0.4674    1.8182    1.2813 N   0  0  0  0  0  0  0  0  0  0  0  0
    0.2640    1.3348    1.7800 H   0  0  0  0  0  0  0  0  0  0  0  0
   -0.5889    3.2615    1.4722 C   0  0  0  0  0  0  0  0  0  0  0  0
   -1.6291    3.5206    1.6805 H   0  0  0  0  0  0  0  0  0  0  0  0
    0.0359    3.5855    2.3049 H   0  0  0  0  0  0  0  0  0  0  0  0
   -0.2760    3.7797    0.5637 H   0  0  0  0  0  0  0  0  0  0  0  0
  5  6  2  0  0  0  0
  5  7  1  0  0  0  0
  2  3  1  0  0  0  0
  2  4  1  0  0  0  0
  2  5  1  0  0  0  0
  1  2  1  0  0  0  0
 25 26  2  0  0  0  0
 25 27  1  0  0  0  0
 23 24  1  0  0  0  0
 21 22  1  0  0  0  0
 21 23  2  0  0  0  0
 19 20  1  0  0  0  0
 19 21  1  0  0  0  0
 17 18  1  0  0  0  0
 17 19  2  0  0  0  0
 15 16  1  0  0  0  0
 15 17  1  0  0  0  0
 14 15  2  0  0  0  0
 14 23  1  0  0  0  0
 11 12  1  0  0  0  0
 11 13  1  0  0  0  0
 11 14  1  0  0  0  0
  9 10  1  0  0  0  0
  9 11  1  0  0  0  0
  9 25  1  0  0  0  0
  7  8  1  0  0  0  0
  7  9  1  0  0  0  0
 29 30  1  0  0  0  0
 29 31  1  0  0  0  0
 29 32  1  0  0  0  0
 27 28  1  0  0  0  0
 27 29  1  0  0  0  0
M  END
$$$$
default_name
  -OEChem-02102213163D

 32 32  0     1  0  0  0  0  0999 V2000
   -3.8405   -3.7518    1.6252 H   0  0  0  0  0  0  0  0  0  0  0  0
   -3.7965   -2.8768    0.9782 C   0  0  0  0  0  0  0  0  0  0  0  0
   -4.5465   -2.1527    1.2902 H   0  0  0  0  0  0  0  0  0  0  0  0
   -3.9745   -3.1748   -0.0538 H   0  0  0  0  0  0  0  0  0  0  0  0
   -2.4245   -2.2537    1.0882 C   0  0  0  0  0  0  0  0  0  0  0  0
   -1.5805   -2.7478    1.8242 O   0  0  0  0  0  0  0  0  0  0  0  0
   -2.2045   -1.1637    0.3562 N   0  0  0  0  0  0  0  0  0  0  0  0
   -2.9595   -0.7907   -0.2008 H   0  0  0  0  0  0  0  0  0  0  0  0
   -0.9485   -0.4087    0.3482 C   0  0  1  0  0  0  0  0  0  0  0  0
   -0.3666   -0.6914    1.2269 H   0  0  0  0  0  0  0  0  0  0  0  0
   -0.1405   -0.7797   -0.9072 C   0  0  0  0  0  0  0  0  0  0  0  0
   -0.8316   -1.0347   -1.7118 H   0  0  0  0  0  0  0  0  0  0  0  0
    0.4311    0.0916   -1.2302 H   0  0  0  0  0  0  0  0  0  0  0  0
    0.8022   -1.9513   -0.7082 C   0  0  0  0  0  0  0  0  0  0  0  0
    2.1245   -1.7372   -0.2750 C   0  0  0  0  0  0  0  0  0  0  0  0
    2.4833   -0.7322   -0.1031 H   0  0  0  0  0  0  0  0  0  0  0  0
    2.9804   -2.8317   -0.0530 C   0  0  0  0  0  0  0  0  0  0  0  0
    3.9962   -2.6650    0.2771 H   0  0  0  0  0  0  0  0  0  0  0  0
    2.5158   -4.1413   -0.2619 C   0  0  0  0  0  0  0  0  0  0  0  0
    3.1742   -4.9821   -0.0936 H   0  0  0  0  0  0  0  0  0  0  0  0
    1.1955   -4.3587   -0.6962 C   0  0  0  0  0  0  0  0  0  0  0  0
    0.8399   -5.3650   -0.8620 H   0  0  0  0  0  0  0  0  0  0  0  0
    0.3413   -3.2645   -0.9211 C   0  0  0  0  0  0  0  0  0  0  0  0
   -0.6731   -3.4329   -1.2585 H   0  0  0  0  0  0  0  0  0  0  0  0
   -1.2168    1.1047    0.4313 C   0  0  0  0  0  0  0  0  0  0  0  0
   -2.0890    1.6186   -0.2704 O   0  0  0  0  0  0  0  0  0  0  0  0
   -0.4674    1.8182    1.2813 N   0  0  0  0  0  0  0  0  0  0  0  0
    0.2640    1.3348    1.7800 H   0  0  0  0  0  0  0  0  0  0  0  0
   -0.5889    3.2615    1.4722 C   0  0  0  0  0  0  0  0  0  0  0  0
   -1.6291    3.5206    1.6805 H   0  0  0  0  0  0  0  0  0  0  0  0
    0.0359    3.5855    2.3049 H   0  0  0  0  0  0  0  0  0  0  0  0
   -0.2760    3.7797    0.5637 H   0  0  0  0  0  0  0  0  0  0  0  0
  5  6  2  0  0  0  0
  5  7  1  0  0  0  0
  2  3  1  0  0  0  0
  2  4  1  0  0  0  0
  2  5  1  0  0  0  0
  1  2  1  0  0  0  0
 25 26  2  0  0  0  0
 25 27  1  0  0  0  0
 23 24  1  0  0  0  0
 21 22  1  0  0  0  0
 21 23  2  0  0  0  0
 19 20  1  0  0  0  0
 19 21  1  0  0  0  0
 17 18  1  0  0  0  0
 17 19  2  0  0  0  0
 15 16  1  0  0  0  0
 15 17  1  0  0  0  0
 14 15  2  0  0  0  0
 14 23  1  0  0  0  0
 11 12  1  0  0  0  0
 11 13  1  0  0  0  0
 11 14  1  0  0  0  0
  9 10  1  0  0  0  0
  9 11  1  0  0  0  0
  9 25  1  0  0  0  0
  7  8  1  0  0  0  0
  7  9  1  0  0  0  0
 29 30  1  0  0  0  0
 29 31  1  0  0  0  0
 29 32  1  0  0  0  0
 27 28  1  0  0  0  0
 27 29  1  0  0  0  0
M  END
$$$$
default_name
  -OEChem-02102213163D

 32 32  0     1  0  0  0  0  0999 V2000
   -3.8405   -3.7518    1.6252 H   0  0  0  0  0  0  0  0  0  0  0  0
   -3.7965   -2.8768    0.9782 C   0  0  0  0  0  0  0  0  0  0  0  0
   -4.5465   -2.1527    1.2902 H   0  0  0  0  0  0  0  0  0  0  0  0
   -3.9745   -3.1748   -0.0538 H   0  0  0  0  0  0  0  0  0  0  0  0
   -2.4245   -2.2537    1.0882 C   0  0  0  0  0  0  0  0  0  0  0  0
   -1.5805   -2.7478    1.8242 O   0  0  0  0  0  0  0  0  0  0  0  0
   -2.2045   -1.1637    0.3562 N   0  0  0  0  0  0  0  0  0  0  0  0
   -2.9595   -0.7907   -0.2008 H   0  0  0  0  0  0  0  0  0  0  0  0
   -0.9485   -0.4087    0.3482 C   0  0  1  0  0  0  0  0  0  0  0  0
   -0.3666   -0.6914    1.2269 H   0  0  0  0  0  0  0  0  0  0  0  0
   -0.1405   -0.7797   -0.9072 C   0  0  0  0  0  0  0  0  0  0  0  0
   -0.8316   -1.0347   -1.7118 H   0  0  0  0  0  0  0  0  0  0  0  0
    0.4311    0.0916   -1.2302 H   0  0  0  0  0  0  0  0  0  0  0  0
    0.8022   -1.9513   -0.7082 C   0  0  0  0  0  0  0  0  0  0  0  0
    2.0006   -1.7881    0.0122 C   0  0  0  0  0  0  0  0  0  0  0  0
    2.2675   -0.8188    0.4093 H   0  0  0  0  0  0  0  0  0  0  0  0
    2.8500   -2.8889    0.2279 C   0  0  0  0  0  0  0  0  0  0  0  0
    3.7710   -2.7609    0.7791 H   0  0  0  0  0  0  0  0  0  0  0  0
    2.5021   -4.1544   -0.2742 C   0  0  0  0  0  0  0  0  0  0  0  0
    3.1558   -4.9997   -0.1105 H   0  0  0  0  0  0  0  0  0  0  0  0
    1.3060   -4.3206   -0.9958 C   0  0  0  0  0  0  0  0  0  0  0  0
    1.0411   -5.2922   -1.3865 H   0  0  0  0  0  0  0  0  0  0  0  0
    0.4590   -3.2196   -1.2141 C   0  0  0  0  0  0  0  0  0  0  0  0
   -0.4593   -3.3481   -1.7723 H   0  0  0  0  0  0  0  0  0  0  0  0
   -1.2168    1.1047    0.4313 C   0  0  0  0  0  0  0  0  0  0  0  0
   -2.0890    1.6186   -0.2704 O   0  0  0  0  0  0  0  0  0  0  0  0
   -0.4674    1.8182    1.2813 N   0  0  0  0  0  0  0  0  0  0  0  0
    0.2640    1.3348    1.7800 H   0  0  0  0  0  0  0  0  0  0  0  0
   -0.5889    3.2615    1.4722 C   0  0  0  0  0  0  0  0  0  0  0  0
   -1.6291    3.5206    1.6805 H   0  0  0  0  0  0  0  0  0  0  0  0
    0.0359    3.5855    2.3049 H   0  0  0  0  0  0  0  0  0  0  0  0
   -0.2760    3.7797    0.5637 H   0  0  0  0  0  0  0  0  0  0  0  0
  5  6  2  0  0  0  0
  5  7  1  0  0  0  0
  2  3  1  0  0  0  0
  2  4  1  0  0  0  0
  2  5  1  0  0  0  0
  1  2  1  0  0  0  0
 25 26  2  0  0  0  0
 25 27  1  0  0  0  0
 23 24  1  0  0  0  0
 21 22  1  0  0  0  0
 21 23  2  0  0  0  0
 19 20  1  0  0  0  0
 19 21  1  0  0  0  0
 17 18  1  0  0  0  0
 17 19  2  0  0  0  0
 15 16  1  0  0  0  0
 15 17  1  0  0  0  0
 14 15  2  0  0  0  0
 14 23  1  0  0  0  0
 11 12  1  0  0  0  0
 11 13  1  0  0  0  0
 11 14  1  0  0  0  0
  9 10  1  0  0  0  0
  9 11  1  0  0  0  0
  9 25  1  0  0  0  0
  7  8  1  0  0  0  0
  7  9  1  0  0  0  0
 29 30  1  0  0  0  0
 29 31  1  0  0  0  0
 29 32  1  0  0  0  0
 27 28  1  0  0  0  0
 27 29  1  0  0  0  0
M  END
$$$$
default_name
  -OEChem-02102213163D

 32 32  0     1  0  0  0  0  0999 V2000
   -3.8405   -3.7518    1.6252 H   0  0  0  0  0  0  0  0  0  0  0  0
   -3.7965   -2.8768    0.9782 C   0  0  0  0  0  0  0  0  0  0  0  0
   -4.5465   -2.1527    1.2902 H   0  0  0  0  0  0  0  0  0  0  0  0
   -3.9745   -3.1748   -0.0538 H   0  0  0  0  0  0  0  0  0  0  0  0
   -2.4245   -2.2537    1.0882 C   0  0  0  0  0  0  0  0  0  0  0  0
   -1.5805   -2.7478    1.8242 O   0  0  0  0  0  0  0  0  0  0  0  0
   -2.2045   -1.1637    0.3562 N   0  0  0  0  0  0  0  0  0  0  0  0
   -2.9595   -0.7907   -0.2008 H   0  0  0  0  0  0  0  0  0  0  0  0
   -0.9485   -0.4087    0.3482 C   0  0  1  0  0  0  0  0  0  0  0  0
   -0.3666   -0.6914    1.2269 H   0  0  0  0  0  0  0  0  0  0  0  0
   -0.1405   -0.7797   -0.9072 C   0  0  0  0  0  0  0  0  0  0  0  0
   -0.8316   -1.0347   -1.7118 H   0  0  0  0  0  0  0  0  0  0  0  0
    0.4311    0.0916   -1.2302 H   0  0  0  0  0  0  0  0  0  0  0  0
    0.8022   -1.9513   -0.7082 C   0  0  0  0  0  0  0  0  0  0  0  0
    1.8254   -1.8876    0.2566 C   0  0  0  0  0  0  0  0  0  0  0  0
    1.9596   -0.9923    0.8471 H   0  0  0  0  0  0  0  0  0  0  0  0
    2.6698   -2.9938    0.4640 C   0  0  0  0  0  0  0  0  0  0  0  0
    3.4565   -2.9419    1.2036 H   0  0  0  0  0  0  0  0  0  0  0  0
    2.4918   -4.1656   -0.2910 C   0  0  0  0  0  0  0  0  0  0  0  0
    3.1421   -5.0146   -0.1333 H   0  0  0  0  0  0  0  0  0  0  0  0
    1.4713   -4.2319   -1.2570 C   0  0  0  0  0  0  0  0  0  0  0  0
    1.3378   -5.1306   -1.8413 H   0  0  0  0  0  0  0  0  0  0  0  0
    0.6297   -3.1251   -1.4663 C   0  0  0  0  0  0  0  0  0  0  0  0
   -0.1529   -3.1762   -2.2122 H   0  0  0  0  0  0  0  0  0  0  0  0
   -1.2168    1.1047    0.4313 C   0  0  0  0  0  0  0  0  0  0  0  0
   -2.0890    1.6186   -0.2704 O   0  0  0  0  0  0  0  0  0  0  0  0
   -0.4674    1.8182    1.2813 N   0  0  0  0  0  0  0  0  0  0  0  0
    0.2640    1.3348    1.7800 H   0  0  0  0  0  0  0  0  0  0  0  0
   -0.5889    3.2615    1.4722 C   0  0  0  0  0  0  0  0  0  0  0  0
   -1.6291    3.5206    1.6805 H   0  0  0  0  0  0  0  0  0  0  0  0
    0.0359    3.5855    2.3049 H   0  0  0  0  0  0  0  0  0  0  0  0
   -0.2760    3.7797    0.5637 H   0  0  0  0  0  0  0  0  0  0  0  0
  5  6  2  0  0  0  0
  5  7  1  0  0  0  0
  2  3  1  0  0  0  0
  2  4  1  0  0  0  0
  2  5  1  0  0  0  0
  1  2  1  0  0  0  0
 25 26  2  0  0  0  0
 25 27  1  0  0  0  0
 23 24  1  0  0  0  0
 21 22  1  0  0  0  0
 21 23  2  0  0  0  0
 19 20  1  0  0  0  0
 19 21  1  0  0  0  0
 17 18  1  0  0  0  0
 17 19  2  0  0  0  0
 15 16  1  0  0  0  0
 15 17  1  0  0  0  0
 14 15  2  0  0  0  0
 14 23  1  0  0  0  0
 11 12  1  0  0  0  0
 11 13  1  0  0  0  0
 11 14  1  0  0  0  0
  9 10  1  0  0  0  0
  9 11  1  0  0  0  0
  9 25  1  0  0  0  0
  7  8  1  0  0  0  0
  7  9  1  0  0  0  0
 29 30  1  0  0  0  0
 29 31  1  0  0  0  0
 29 32  1  0  0  0  0
 27 28  1  0  0  0  0
 27 29  1  0  0  0  0
M  END
$$$$
default_name
  -OEChem-02102213163D

 32 32  0     1  0  0  0  0  0999 V2000
   -3.8405   -3.7518    1.6252 H   0  0  0  0  0  0  0  0  0  0  0  0
   -3.7965   -2.8768    0.9782 C   0  0  0  0  0  0  0  0  0  0  0  0
   -4.5465   -2.1527    1.2902 H   0  0  0  0  0  0  0  0  0  0  0  0
   -3.9745   -3.1748   -0.0538 H   0  0  0  0  0  0  0  0  0  0  0  0
   -2.4245   -2.2537    1.0882 C   0  0  0  0  0  0  0  0  0  0  0  0
   -1.5805   -2.7478    1.8242 O   0  0  0  0  0  0  0  0  0  0  0  0
   -2.2045   -1.1637    0.3562 N   0  0  0  0  0  0  0  0  0  0  0  0
   -2.9595   -0.7907   -0.2008 H   0  0  0  0  0  0  0  0  0  0  0  0
   -0.9485   -0.4087    0.3482 C   0  0  1  0  0  0  0  0  0  0  0  0
   -0.3666   -0.6914    1.2269 H   0  0  0  0  0  0  0  0  0  0  0  0
   -0.1405   -0.7797   -0.9072 C   0  0  0  0  0  0  0  0  0  0  0  0
   -0.8316   -1.0347   -1.7118 H   0  0  0  0  0  0  0  0  0  0  0  0
    0.4311    0.0916   -1.2302 H   0  0  0  0  0  0  0  0  0  0  0  0
    0.8022   -1.9513   -0.7082 C   0  0  0  0  0  0  0  0  0  0  0  0
    1.6106   -2.0290    0.4417 C   0  0  0  0  0  0  0  0  0  0  0  0
    1.5806   -1.2406    1.1805 H   0  0  0  0  0  0  0  0  0  0  0  0
    2.4521   -3.1393    0.6392 C   0  0  0  0  0  0  0  0  0  0  0  0
    3.0739   -3.1958    1.5216 H   0  0  0  0  0  0  0  0  0  0  0  0
    2.4856   -4.1740   -0.3111 C   0  0  0  0  0  0  0  0  0  0  0  0
    3.1339   -5.0258   -0.1605 H   0  0  0  0  0  0  0  0  0  0  0  0
    1.6802   -4.0987   -1.4620 C   0  0  0  0  0  0  0  0  0  0  0  0
    1.7099   -4.8913   -2.1952 H   0  0  0  0  0  0  0  0  0  0  0  0
    0.8418   -2.9874   -1.6607 C   0  0  0  0  0  0  0  0  0  0  0  0
    0.2252   -2.9291   -2.5482 H   0  0  0  0  0  0  0  0  0  0  0  0
   -1.2168    1.1047    0.4313 C   0  0  0  0  0  0  0  0  0  0  0  0
   -2.0890    1.6186   -0.2704 O   0  0  0  0  0  0  0  0  0  0  0  0
   -0.4674    1.8182    1.2813 N   0  0  0  0  0  0  0  0  0  0  0  0
    0.2640    1.3348    1.7800 H   0  0  0  0  0  0  0  0  0  0  0  0
   -0.5889    3.2615    1.4722 C   0  0  0  0  0  0  0  0  0  0  0  0
   -1.6291    3.5206    1.6805 H   0  0  0  0  0  0  0  0  0  0  0  0
    0.0359    3.5855    2.3049 H   0  0  0  0  0  0  0  0  0  0  0  0
   -0.2760    3.7797    0.5637 H   0  0  0  0  0  0  0  0  0  0  0  0
  5  6  2  0  0  0  0
  5  7  1  0  0  0  0
  2  3  1  0  0  0  0
  2  4  1  0  0  0  0
  2  5  1  0  0  0  0
  1  2  1  0  0  0  0
 25 26  2  0  0  0  0
 25 27  1  0  0  0  0
 23 24  1  0  0  0  0
 21 22  1  0  0  0  0
 21 23  2  0  0  0  0
 19 20  1  0  0  0  0
 19 21  1  0  0  0  0
 17 18  1  0  0  0  0
 17 19  2  0  0  0  0
 15 16  1  0  0  0  0
 15 17  1  0  0  0  0
 14 15  2  0  0  0  0
 14 23  1  0  0  0  0
 11 12  1  0  0  0  0
 11 13  1  0  0  0  0
 11 14  1  0  0  0  0
  9 10  1  0  0  0  0
  9 11  1  0  0  0  0
  9 25  1  0  0  0  0
  7  8  1  0  0  0  0
  7  9  1  0  0  0  0
 29 30  1  0  0  0  0
 29 31  1  0  0  0  0
 29 32  1  0  0  0  0
 27 28  1  0  0  0  0
 27 29  1  0  0  0  0
M  END
$$$$
default_name
  -OEChem-02102213163D

 32 32  0     1  0  0  0  0  0999 V2000
   -3.8405   -3.7518    1.6252 H   0  0  0  0  0  0  0  0  0  0  0  0
   -3.7965   -2.8768    0.9782 C   0  0  0  0  0  0  0  0  0  0  0  0
   -4.5465   -2.1527    1.2902 H   0  0  0  0  0  0  0  0  0  0  0  0
   -3.9745   -3.1748   -0.0538 H   0  0  0  0  0  0  0  0  0  0  0  0
   -2.4245   -2.2537    1.0882 C   0  0  0  0  0  0  0  0  0  0  0  0
   -1.5805   -2.7478    1.8242 O   0  0  0  0  0  0  0  0  0  0  0  0
   -2.2045   -1.1637    0.3562 N   0  0  0  0  0  0  0  0  0  0  0  0
   -2.9595   -0.7907   -0.2008 H   0  0  0  0  0  0  0  0  0  0  0  0
   -0.9485   -0.4087    0.3482 C   0  0  1  0  0  0  0  0  0  0  0  0
   -0.3666   -0.6914    1.2269 H   0  0  0  0  0  0  0  0  0  0  0  0
   -0.1405   -0.7797   -0.9072 C   0  0  0  0  0  0  0  0  0  0  0  0
   -0.8316   -1.0347   -1.7118 H   0  0  0  0  0  0  0  0  0  0  0  0
    0.4311    0.0916   -1.2302 H   0  0  0  0  0  0  0  0  0  0  0  0
    0.8022   -1.9513   -0.7082 C   0  0  0  0  0  0  0  0  0  0  0  0
    1.3709   -2.2027    0.5548 C   0  0  0  0  0  0  0  0  0  0  0  0
    1.1562   -1.5471    1.3869 H   0  0  0  0  0  0  0  0  0  0  0  0
    2.2118   -3.3153    0.7415 C   0  0  0  0  0  0  0  0  0  0  0  0
    2.6494   -3.5051    1.7115 H   0  0  0  0  0  0  0  0  0  0  0  0
    2.4839   -4.1790   -0.3330 C   0  0  0  0  0  0  0  0  0  0  0  0
    3.1318   -5.0325   -0.1902 H   0  0  0  0  0  0  0  0  0  0  0  0
    1.9185   -3.9298   -1.5968 C   0  0  0  0  0  0  0  0  0  0  0  0
    2.1319   -4.5906   -2.4242 H   0  0  0  0  0  0  0  0  0  0  0  0
    1.0808   -2.8160   -1.7839 C   0  0  0  0  0  0  0  0  0  0  0  0
    0.6491   -2.6235   -2.7575 H   0  0  0  0  0  0  0  0  0  0  0  0
   -1.2168    1.1047    0.4313 C   0  0  0  0  0  0  0  0  0  0  0  0
   -2.0890    1.6186   -0.2704 O   0  0  0  0  0  0  0  0  0  0  0  0
   -0.4674    1.8182    1.2813 N   0  0  0  0  0  0  0  0  0  0  0  0
    0.2640    1.3348    1.7800 H   0  0  0  0  0  0  0  0  0  0  0  0
   -0.5889    3.2615    1.4722 C   0  0  0  0  0  0  0  0  0  0  0  0
   -1.6291    3.5206    1.6805 H   0  0  0  0  0  0  0  0  0  0  0  0
    0.0359    3.5855    2.3049 H   0  0  0  0  0  0  0  0  0  0  0  0
   -0.2760    3.7797    0.5637 H   0  0  0  0  0  0  0  0  0  0  0  0
  5  6  2  0  0  0  0
  5  7  1  0  0  0  0
  2  3  1  0  0  0  0
  2  4  1  0  0  0  0
  2  5  1  0  0  0  0
  1  2  1  0  0  0  0
 25 26  2  0  0  0  0
 25 27  1  0  0  0  0
 23 24  1  0  0  0  0
 21 22  1  0  0  0  0
 21 23  2  0  0  0  0
 19 20  1  0  0  0  0
 19 21  1  0  0  0  0
 17 18  1  0  0  0  0
 17 19  2  0  0  0  0
 15 16  1  0  0  0  0
 15 17  1  0  0  0  0
 14 15  2  0  0  0  0
 14 23  1  0  0  0  0
 11 12  1  0  0  0  0
 11 13  1  0  0  0  0
 11 14  1  0  0  0  0
  9 10  1  0  0  0  0
  9 11  1  0  0  0  0
  9 25  1  0  0  0  0
  7  8  1  0  0  0  0
  7  9  1  0  0  0  0
 29 30  1  0  0  0  0
 29 31  1  0  0  0  0
 29 32  1  0  0  0  0
 27 28  1  0  0  0  0
 27 29  1  0  0  0  0
M  END
$$$$
default_name
  -OEChem-02102213163D

 32 32  0     1  0  0  0  0  0999 V2000
   -3.8405   -3.7518    1.6252 H   0  0  0  0  0  0  0  0  0  0  0  0
   -3.7965   -2.8768    0.9782 C   0  0  0  0  0  0  0  0  0  0  0  0
   -4.5465   -2.1527    1.2902 H   0  0  0  0  0  0  0  0  0  0  0  0
   -3.9745   -3.1748   -0.0538 H   0  0  0  0  0  0  0  0  0  0  0  0
   -2.4245   -2.2537    1.0882 C   0  0  0  0  0  0  0  0  0  0  0  0
   -1.5805   -2.7478    1.8242 O   0  0  0  0  0  0  0  0  0  0  0  0
   -2.2045   -1.1637    0.3562 N   0  0  0  0  0  0  0  0  0  0  0  0
   -2.9595   -0.7907   -0.2008 H   0  0  0  0  0  0  0  0  0  0  0  0
   -0.9485   -0.4087    0.3482 C   0  0  1  0  0  0  0  0  0  0  0  0
   -0.3666   -0.6914    1.2269 H   0  0  0  0  0  0  0  0  0  0  0  0
   -0.1405   -0.7797   -0.9072 C   0  0  0  0  0  0  0  0  0  0  0  0
   -0.8316   -1.0347   -1.7118 H   0  0  0  0  0  0  0  0  0  0  0  0
    0.4311    0.0916   -1.2302 H   0  0  0  0  0  0  0  0  0  0  0  0
    0.8022   -1.9513   -0.7082 C   0  0  0  0  0  0  0  0  0  0  0  0
    1.1227   -2.3967    0.5882 C   0  0  0  0  0  0  0  0  0  0  0  0
    0.7155   -1.8906    1.4521 H   0  0  0  0  0  0  0  0  0  0  0  0
    1.9651   -3.5100    0.7639 C   0  0  0  0  0  0  0  0  0  0  0  0
    2.2120   -3.8488    1.7603 H   0  0  0  0  0  0  0  0  0  0  0  0
    2.4868   -4.1805   -0.3554 C   0  0  0  0  0  0  0  0  0  0  0  0
    3.1360   -5.0343   -0.2204 H   0  0  0  0  0  0  0  0  0  0  0  0
    2.1698   -3.7370   -1.6523 C   0  0  0  0  0  0  0  0  0  0  0  0
    2.5751   -4.2490   -2.5127 H   0  0  0  0  0  0  0  0  0  0  0  0
    1.3305   -2.6224   -1.8275 C   0  0  0  0  0  0  0  0  0  0  0  0
    1.0901   -2.2802   -2.8257 H   0  0  0  0  0  0  0  0  0  0  0  0
   -1.2168    1.1047    0.4313 C   0  0  0  0  0  0  0  0  0  0  0  0
   -2.0890    1.6186   -0.2704 O   0  0  0  0  0  0  0  0  0  0  0  0
   -0.4674    1.8182    1.2813 N   0  0  0  0  0  0  0  0  0  0  0  0
    0.2640    1.3348    1.7800 H   0  0  0  0  0  0  0  0  0  0  0  0
   -0.5889    3.2615    1.4722 C   0  0  0  0  0  0  0  0  0  0  0  0
   -1.6291    3.5206    1.6805 H   0  0  0  0  0  0  0  0  0  0  0  0
    0.0359    3.5855    2.3049 H   0  0  0  0  0  0  0  0  0  0  0  0
   -0.2760    3.7797    0.5637 H   0  0  0  0  0  0  0  0  0  0  0  0
  5  6  2  0  0  0  0
  5  7  1  0  0  0  0
  2  3  1  0  0  0  0
  2  4  1  0  0  0  0
  2  5  1  0  0  0  0
  1  2  1  0  0  0  0
 25 26  2  0  0  0  0
 25 27  1  0  0  0  0
 23 24  1  0  0  0  0
 21 22  1  0  0  0  0
 21 23  2  0  0  0  0
 19 20  1  0  0  0  0
 19 21  1  0  0  0  0
 17 18  1  0  0  0  0
 17 19  2  0  0  0  0
 15 16  1  0  0  0  0
 15 17  1  0  0  0  0
 14 15  2  0  0  0  0
 14 23  1  0  0  0  0
 11 12  1  0  0  0  0
 11 13  1  0  0  0  0
 11 14  1  0  0  0  0
  9 10  1  0  0  0  0
  9 11  1  0  0  0  0
  9 25  1  0  0  0  0
  7  8  1  0  0  0  0
  7  9  1  0  0  0  0
 29 30  1  0  0  0  0
 29 31  1  0  0  0  0
 29 32  1  0  0  0  0
 27 28  1  0  0  0  0
 27 29  1  0  0  0  0
M  END
$$$$
default_name
  -OEChem-02102213163D

 32 32  0     1  0  0  0  0  0999 V2000
   -3.8405   -3.7518    1.6252 H   0  0  0  0  0  0  0  0  0  0  0  0
   -3.7965   -2.8768    0.9782 C   0  0  0  0  0  0  0  0  0  0  0  0
   -4.5465   -2.1527    1.2902 H   0  0  0  0  0  0  0  0  0  0  0  0
   -3.9745   -3.1748   -0.0538 H   0  0  0  0  0  0  0  0  0  0  0  0
   -2.4245   -2.2537    1.0882 C   0  0  0  0  0  0  0  0  0  0  0  0
   -1.5805   -2.7478    1.8242 O   0  0  0  0  0  0  0  0  0  0  0  0
   -2.2045   -1.1637    0.3562 N   0  0  0  0  0  0  0  0  0  0  0  0
   -2.9595   -0.7907   -0.2008 H   0  0  0  0  0  0  0  0  0  0  0  0
   -0.9485   -0.4087    0.3482 C   0  0  1  0  0  0  0  0  0  0  0  0
   -0.3666   -0.6914    1.2269 H   0  0  0  0  0  0  0  0  0  0  0  0
   -0.1405   -0.7797   -0.9072 C   0  0  0  0  0  0  0  0  0  0  0  0
   -0.8316   -1.0347   -1.7118 H   0  0  0  0  0  0  0  0  0  0  0  0
    0.4311    0.0916   -1.2302 H   0  0  0  0  0  0  0  0  0  0  0  0
    0.8022   -1.9513   -0.7082 C   0  0  0  0  0  0  0  0  0  0  0  0
    0.8828   -2.5980    0.5396 C   0  0  0  0  0  0  0  0  0  0  0  0
    0.2884   -2.2480    1.3718 H   0  0  0  0  0  0  0  0  0  0  0  0
    1.7290   -3.7100    0.7049 C   0  0  0  0  0  0  0  0  0  0  0  0
    1.7913   -4.2035    1.6646 H   0  0  0  0  0  0  0  0  0  0  0  0
    2.4942   -4.1782   -0.3767 C   0  0  0  0  0  0  0  0  0  0  0  0
    3.1461   -5.0311   -0.2490 H   0  0  0  0  0  0  0  0  0  0  0  0
    2.4171   -3.5333   -1.6246 C   0  0  0  0  0  0  0  0  0  0  0  0
    3.0093   -3.8897   -2.4546 H   0  0  0  0  0  0  0  0  0  0  0  0
    1.5739   -2.4200   -1.7886 C   0  0  0  0  0  0  0  0  0  0  0  0
    1.5180   -1.9227   -2.7482 H   0  0  0  0  0  0  0  0  0  0  0  0
   -1.2168    1.1047    0.4313 C   0  0  0  0  0  0  0  0  0  0  0  0
   -2.0890    1.6186   -0.2704 O   0  0  0  0  0  0  0  0  0  0  0  0
   -0.4674    1.8182    1.2813 N   0  0  0  0  0  0  0  0  0  0  0  0
    0.2640    1.3348    1.7800 H   0  0  0  0  0  0  0  0  0  0  0  0
   -0.5889    3.2615    1.4722 C   0  0  0  0  0  0  0  0  0  0  0  0
   -1.6291    3.5206    1.6805 H   0  0  0  0  0  0  0  0  0  0  0  0
    0.0359    3.5855    2.3049 H   0  0  0  0  0  0  0  0  0  0  0  0
   -0.2760    3.7797    0.5637 H   0  0  0  0  0  0  0  0  0  0  0  0
  5  6  2  0  0  0  0
  5  7  1  0  0  0  0
  2  3  1  0  0  0  0
  2  4  1  0  0  0  0
  2  5  1  0  0  0  0
  1  2  1  0  0  0  0
 25 26  2  0  0  0  0
 25 27  1  0  0  0  0
 23 24  1  0  0  0  0
 21 22  1  0  0  0  0
 21 23  2  0  0  0  0
 19 20  1  0  0  0  0
 19 21  1  0  0  0  0
 17 18  1  0  0  0  0
 17 19  2  0  0  0  0
 15 16  1  0  0  0  0
 15 17  1  0  0  0  0
 14 15  2  0  0  0  0
 14 23  1  0  0  0  0
 11 12  1  0  0  0  0
 11 13  1  0  0  0  0
 11 14  1  0  0  0  0
  9 10  1  0  0  0  0
  9 11  1  0  0  0  0
  9 25  1  0  0  0  0
  7  8  1  0  0  0  0
  7  9  1  0  0  0  0
 29 30  1  0  0  0  0
 29 31  1  0  0  0  0
 29 32  1  0  0  0  0
 27 28  1  0  0  0  0
 27 29  1  0  0  0  0
M  END
$$$$
default_name
  -OEChem-02102213163D

 32 32  0     1  0  0  0  0  0999 V2000
   -3.8405   -3.7518    1.6252 H   0  0  0  0  0  0  0  0  0  0  0  0
   -3.7965   -2.8768    0.9782 C   0  0  0  0  0  0  0  0  0  0  0  0
   -4.5465   -2.1527    1.2902 H   0  0  0  0  0  0  0  0  0  0  0  0
   -3.9745   -3.1748   -0.0538 H   0  0  0  0  0  0  0  0  0  0  0  0
   -2.4245   -2.2537    1.0882 C   0  0  0  0  0  0  0  0  0  0  0  0
   -1.5805   -2.7478    1.8242 O   0  0  0  0  0  0  0  0  0  0  0  0
   -2.2045   -1.1637    0.3562 N   0  0  0  0  0  0  0  0  0  0  0  0
   -2.9595   -0.7907   -0.2008 H   0  0  0  0  0  0  0  0  0  0  0  0
   -0.9485   -0.4087    0.3482 C   0  0  1  0  0  0  0  0  0  0  0  0
   -0.3666   -0.6914    1.2269 H   0  0  0  0  0  0  0  0  0  0  0  0
   -0.1405   -0.7797   -0.9072 C   0  0  0  0  0  0  0  0  0  0  0  0
   -0.8316   -1.0347   -1.7118 H   0  0  0  0  0  0  0  0  0  0  0  0
    0.4311    0.0916   -1.2302 H   0  0  0  0  0  0  0  0  0  0  0  0
    0.8022   -1.9513   -0.7082 C   0  0  0  0  0  0  0  0  0  0  0  0
    0.6677   -2.7927    0.4124 C   0  0  0  0  0  0  0  0  0  0  0  0
   -0.0959   -2.5947    1.1513 H   0  0  0  0  0  0  0  0  0  0  0  0
    1.5195   -3.9017    0.5686 C   0  0  0  0  0  0  0  0  0  0  0  0
    1.4162   -4.5451    1.4311 H   0  0  0  0  0  0  0  0  0  0  0  0
    2.5054   -4.1723   -0.3954 C   0  0  0  0  0  0  0  0  0  0  0  0
    3.1614   -5.0230   -0.2741 H   0  0  0  0  0  0  0  0  0  0  0  0
    2.6436   -3.3326   -1.5156 C   0  0  0  0  0  0  0  0  0  0  0  0
    3.4049   -3.5373   -2.2539 H   0  0  0  0  0  0  0  0  0  0  0  0
    1.7943   -2.2225   -1.6698 C   0  0  0  0  0  0  0  0  0  0  0  0
    1.9037   -1.5754   -2.5303 H   0  0  0  0  0  0  0  0  0  0  0  0
   -1.2168    1.1047    0.4313 C   0  0  0  0  0  0  0  0  0  0  0  0
   -2.0890    1.6186   -0.2704 O   0  0  0  0  0  0  0  0  0  0  0  0
   -0.4674    1.8182    1.2813 N   0  0  0  0  0  0  0  0  0  0  0  0
    0.2640    1.3348    1.7800 H   0  0  0  0  0  0  0  0  0  0  0  0
   -0.5889    3.2615    1.4722 C   0  0  0  0  0  0  0  0  0  0  0  0
   -1.6291    3.5206    1.6805 H   0  0  0  0  0  0  0  0  0  0  0  0
    0.0359    3.5855    2.3049 H   0  0  0  0  0  0  0  0  0  0  0  0
   -0.2760    3.7797    0.5637 H   0  0  0  0  0  0  0  0  0  0  0  0
  5  6  2  0  0  0  0
  5  7  1  0  0  0  0
  2  3  1  0  0  0  0
  2  4  1  0  0  0  0
  2  5  1  0  0  0  0
  1  2  1  0  0  0  0
 25 26  2  0  0  0  0
 25 27  1  0  0  0  0
 23 24  1  0  0  0  0
 21 22  1  0  0  0  0
 21 23  2  0  0  0  0
 19 20  1  0  0  0  0
 19 21  1  0  0  0  0
 17 18  1  0  0  0  0
 17 19  2  0  0  0  0
 15 16  1  0  0  0  0
 15 17  1  0  0  0  0
 14 15  2  0  0  0  0
 14 23  1  0  0  0  0
 11 12  1  0  0  0  0
 11 13  1  0  0  0  0
 11 14  1  0  0  0  0
  9 10  1  0  0  0  0
  9 11  1  0  0  0  0
  9 25  1  0  0  0  0
  7  8  1  0  0  0  0
  7  9  1  0  0  0  0
 29 30  1  0  0  0  0
 29 31  1  0  0  0  0
 29 32  1  0  0  0  0
 27 28  1  0  0  0  0
 27 29  1  0  0  0  0
M  END
$$$$
default_name
  -OEChem-02102213163D

 32 32  0     1  0  0  0  0  0999 V2000
   -3.8405   -3.7518    1.6252 H   0  0  0  0  0  0  0  0  0  0  0  0
   -3.7965   -2.8768    0.9782 C   0  0  0  0  0  0  0  0  0  0  0  0
   -4.5465   -2.1527    1.2902 H   0  0  0  0  0  0  0  0  0  0  0  0
   -3.9745   -3.1748   -0.0538 H   0  0  0  0  0  0  0  0  0  0  0  0
   -2.4245   -2.2537    1.0882 C   0  0  0  0  0  0  0  0  0  0  0  0
   -1.5805   -2.7478    1.8242 O   0  0  0  0  0  0  0  0  0  0  0  0
   -2.2045   -1.1637    0.3562 N   0  0  0  0  0  0  0  0  0  0  0  0
   -2.9595   -0.7907   -0.2008 H   0  0  0  0  0  0  0  0  0  0  0  0
   -0.9485   -0.4087    0.3482 C   0  0  1  0  0  0  0  0  0  0  0  0
   -0.3666   -0.6914    1.2269 H   0  0  0  0  0  0  0  0  0  0  0  0
   -0.1405   -0.7797   -0.9072 C   0  0  0  0  0  0  0  0  0  0  0  0
   -0.8316   -1.0347   -1.7118 H   0  0  0  0  0  0  0  0  0  0  0  0
    0.4311    0.0916   -1.2302 H   0  0  0  0  0  0  0  0  0  0  0  0
    0.8022   -1.9513   -0.7082 C   0  0  0  0  0  0  0  0  0  0  0  0
    0.4919   -2.9676    0.2151 C   0  0  0  0  0  0  0  0  0  0  0  0
   -0.4113   -2.9071    0.8057 H   0  0  0  0  0  0  0  0  0  0  0  0
    1.3509   -4.0721    0.3642 C   0  0  0  0  0  0  0  0  0  0  0  0
    1.1121   -4.8501    1.0757 H   0  0  0  0  0  0  0  0  0  0  0  0
    2.5199   -4.1632   -0.4103 C   0  0  0  0  0  0  0  0  0  0  0  0
    3.1810   -5.0106   -0.2940 H   0  0  0  0  0  0  0  0  0  0  0  0
    2.8337   -3.1486   -1.3328 C   0  0  0  0  0  0  0  0  0  0  0  0
    3.7349   -3.2158   -1.9243 H   0  0  0  0  0  0  0  0  0  0  0  0
    1.9767   -2.0433   -1.4792 C   0  0  0  0  0  0  0  0  0  0  0  0
    2.2210   -1.2618   -2.1869 H   0  0  0  0  0  0  0  0  0  0  0  0
   -1.2168    1.1047    0.4313 C   0  0  0  0  0  0  0  0  0  0  0  0
   -2.0890    1.6186   -0.2704 O   0  0  0  0  0  0  0  0  0  0  0  0
   -0.4674    1.8182    1.2813 N   0  0  0  0  0  0  0  0  0  0  0  0
    0.2640    1.3348    1.7800 H   0  0  0  0  0  0  0  0  0  0  0  0
   -0.5889    3.2615    1.4722 C   0  0  0  0  0  0  0  0  0  0  0  0
   -1.6291    3.5206    1.6805 H   0  0  0  0  0  0  0  0  0  0  0  0
    0.0359    3.5855    2.3049 H   0  0  0  0  0  0  0  0  0  0  0  0
   -0.2760    3.7797    0.5637 H   0  0  0  0  0  0  0  0  0  0  0  0
  5  6  2  0  0  0  0
  5  7  1  0  0  0  0
  2  3  1  0  0  0  0
  2  4  1  0  0  0  0
  2  5  1  0  0  0  0
  1  2  1  0  0  0  0
 25 26  2  0  0  0  0
 25 27  1  0  0  0  0
 23 24  1  0  0  0  0
 21 22  1  0  0  0  0
 21 23  2  0  0  0  0
 19 20  1  0  0  0  0
 19 21  1  0  0  0  0
 17 18  1  0  0  0  0
 17 19  2  0  0  0  0
 15 16  1  0  0  0  0
 15 17  1  0  0  0  0
 14 15  2  0  0  0  0
 14 23  1  0  0  0  0
 11 12  1  0  0  0  0
 11 13  1  0  0  0  0
 11 14  1  0  0  0  0
  9 10  1  0  0  0  0
  9 11  1  0  0  0  0
  9 25  1  0  0  0  0
  7  8  1  0  0  0  0
  7  9  1  0  0  0  0
 29 30  1  0  0  0  0
 29 31  1  0  0  0  0
 29 32  1  0  0  0  0
 27 28  1  0  0  0  0
 27 29  1  0  0  0  0
M  END
$$$$
default_name
  -OEChem-02102213163D

 32 32  0     1  0  0  0  0  0999 V2000
   -3.8405   -3.7518    1.6252 H   0  0  0  0  0  0  0  0  0  0  0  0
   -3.7965   -2.8768    0.9782 C   0  0  0  0  0  0  0  0  0  0  0  0
   -4.5465   -2.1527    1.2902 H   0  0  0  0  0  0  0  0  0  0  0  0
   -3.9745   -3.1748   -0.0538 H   0  0  0  0  0  0  0  0  0  0  0  0
   -2.4245   -2.2537    1.0882 C   0  0  0  0  0  0  0  0  0  0  0  0
   -1.5805   -2.7478    1.8242 O   0  0  0  0  0  0  0  0  0  0  0  0
   -2.2045   -1.1637    0.3562 N   0  0  0  0  0  0  0  0  0  0  0  0
   -2.9595   -0.7907   -0.2008 H   0  0  0  0  0  0  0  0  0  0  0  0
   -0.9485   -0.4087    0.3482 C   0  0  1  0  0  0  0  0  0  0  0  0
   -0.3666   -0.6914    1.2269 H   0  0  0  0  0  0  0  0  0  0  0  0
   -0.1405   -0.7797   -0.9072 C   0  0  0  0  0  0  0  0  0  0  0  0
   -0.8316   -1.0347   -1.7118 H   0  0  0  0  0  0  0  0  0  0  0  0
    0.4311    0.0916   -1.2302 H   0  0  0  0  0  0  0  0  0  0  0  0
    0.8022   -1.9513   -0.7082 C   0  0  0  0  0  0  0  0  0  0  0  0
    0.3675   -3.1108   -0.0387 C   0  0  0  0  0  0  0  0  0  0  0  0
   -0.6363   -3.1641    0.3586 H   0  0  0  0  0  0  0  0  0  0  0  0
    1.2347   -4.2095    0.1057 C   0  0  0  0  0  0  0  0  0  0  0  0
    0.8998   -5.0979    0.6224 H   0  0  0  0  0  0  0  0  0  0  0  0
    2.5365   -4.1516   -0.4203 C   0  0  0  0  0  0  0  0  0  0  0  0
    3.2035   -4.9948   -0.3072 H   0  0  0  0  0  0  0  0  0  0  0  0
    2.9745   -2.9938   -1.0886 C   0  0  0  0  0  0  0  0  0  0  0  0
    3.9769   -2.9470   -1.4882 H   0  0  0  0  0  0  0  0  0  0  0  0
    2.1087   -1.8947   -1.2298 C   0  0  0  0  0  0  0  0  0  0  0  0
    2.4481   -1.0033   -1.7413 H   0  0  0  0  0  0  0  0  0  0  0  0
   -1.2168    1.1047    0.4313 C   0  0  0  0  0  0  0  0  0  0  0  0
   -2.0890    1.6186   -0.2704 O   0  0  0  0  0  0  0  0  0  0  0  0
   -0.4674    1.8182    1.2813 N   0  0  0  0  0  0  0  0  0  0  0  0
    0.2640    1.3348    1.7800 H   0  0  0  0  0  0  0  0  0  0  0  0
   -0.5889    3.2615    1.4722 C   0  0  0  0  0  0  0  0  0  0  0  0
   -1.6291    3.5206    1.6805 H   0  0  0  0  0  0  0  0  0  0  0  0
    0.0359    3.5855    2.3049 H   0  0  0  0  0  0  0  0  0  0  0  0
   -0.2760    3.7797    0.5637 H   0  0  0  0  0  0  0  0  0  0  0  0
  5  6  2  0  0  0  0
  5  7  1  0  0  0  0
  2  3  1  0  0  0  0
  2  4  1  0  0  0  0
  2  5  1  0  0  0  0
  1  2  1  0  0  0  0
 25 26  2  0  0  0  0
 25 27  1  0  0  0  0
 23 24  1  0  0  0  0
 21 22  1  0  0  0  0
 21 23  2  0  0  0  0
 19 20  1  0  0  0  0
 19 21  1  0  0  0  0
 17 18  1  0  0  0  0
 17 19  2  0  0  0  0
 15 16  1  0  0  0  0
 15 17  1  0  0  0  0
 14 15  2  0  0  0  0
 14 23  1  0  0  0  0
 11 12  1  0  0  0  0
 11 13  1  0  0  0  0
 11 14  1  0  0  0  0
  9 10  1  0  0  0  0
  9 11  1  0  0  0  0
  9 25  1  0  0  0  0
  7  8  1  0  0  0  0
  7  9  1  0  0  0  0
 29 30  1  0  0  0  0
 29 31  1  0  0  0  0
 29 32  1  0  0  0  0
 27 28  1  0  0  0  0
 27 29  1  0  0  0  0
M  END
$$$$
default_name
  -OEChem-02102213163D

 32 32  0     1  0  0  0  0  0999 V2000
   -3.8405   -3.7518    1.6252 H   0  0  0  0  0  0  0  0  0  0  0  0
   -3.7965   -2.8768    0.9782 C   0  0  0  0  0  0  0  0  0  0  0  0
   -4.5465   -2.1527    1.2902 H   0  0  0  0  0  0  0  0  0  0  0  0
   -3.9745   -3.1748   -0.0538 H   0  0  0  0  0  0  0  0  0  0  0  0
   -2.4245   -2.2537    1.0882 C   0  0  0  0  0  0  0  0  0  0  0  0
   -1.5805   -2.7478    1.8242 O   0  0  0  0  0  0  0  0  0  0  0  0
   -2.2045   -1.1637    0.3562 N   0  0  0  0  0  0  0  0  0  0  0  0
   -2.9595   -0.7907   -0.2008 H   0  0  0  0  0  0  0  0  0  0  0  0
   -0.9485   -0.4087    0.3482 C   0  0  1  0  0  0  0  0  0  0  0  0
   -0.3666   -0.6914    1.2269 H   0  0  0  0  0  0  0  0  0  0  0  0
   -0.1405   -0.7797   -0.9072 C   0  0  0  0  0  0  0  0  0  0  0  0
   -0.8316   -1.0347   -1.7118 H   0  0  0  0  0  0  0  0  0  0  0  0
    0.4311    0.0916   -1.2302 H   0  0  0  0  0  0  0  0  0  0  0  0
    0.8022   -1.9513   -0.7082 C   0  0  0  0  0  0  0  0  0  0  0  0
    0.3029   -3.2126   -0.3317 C   0  0  0  0  0  0  0  0  0  0  0  0
   -0.7555   -3.3480   -0.1596 H   0  0  0  0  0  0  0  0  0  0  0  0
    1.1788   -4.3046   -0.1893 C   0  0  0  0  0  0  0  0  0  0  0  0
    0.7937   -5.2716    0.1024 H   0  0  0  0  0  0  0  0  0  0  0  0
    2.5541   -4.1381   -0.4248 C   0  0  0  0  0  0  0  0  0  0  0  0
    3.2273   -4.9766   -0.3130 H   0  0  0  0  0  0  0  0  0  0  0  0
    3.0565   -2.8787   -0.7997 C   0  0  0  0  0  0  0  0  0  0  0  0
    4.1144   -2.7494   -0.9754 H   0  0  0  0  0  0  0  0  0  0  0  0
    2.1814   -1.7868   -0.9387 C   0  0  0  0  0  0  0  0  0  0  0  0
    2.5696   -0.8177   -1.2239 H   0  0  0  0  0  0  0  0  0  0  0  0
   -1.2168    1.1047    0.4313 C   0  0  0  0  0  0  0  0  0  0  0  0
   -2.0890    1.6186   -0.2704 O   0  0  0  0  0  0  0  0  0  0  0  0
   -0.4674    1.8182    1.2813 N   0  0  0  0  0  0  0  0  0  0  0  0
    0.2640    1.3348    1.7800 H   0  0  0  0  0  0  0  0  0  0  0  0
   -0.5889    3.2615    1.4722 C   0  0  0  0  0  0  0  0  0  0  0  0
   -1.6291    3.5206    1.6805 H   0  0  0  0  0  0  0  0  0  0  0  0
    0.0359    3.5855    2.3049 H   0  0  0  0  0  0  0  0  0  0  0  0
   -0.2760    3.7797    0.5637 H   0  0  0  0  0  0  0  0  0  0  0  0
  5  6  2  0  0  0  0
  5  7  1  0  0  0  0
  2  3  1  0  0  0  0
  2  4  1  0  0  0  0
  2  5  1  0  0  0  0
  1  2  1  0  0  0  0
 25 26  2  0  0  0  0
 25 27  1  0  0  0  0
 23 24  1  0  0  0  0
 21 22  1  0  0  0  0
 21 23  2  0  0  0  0
 19 20  1  0  0  0  0
 19 21  1  0  0  0  0
 17 18  1  0  0  0  0
 17 19  2  0  0  0  0
 15 16  1  0  0  0  0
 15 17  1  0  0  0  0
 14 15  2  0  0  0  0
 14 23  1  0  0  0  0
 11 12  1  0  0  0  0
 11 13  1  0  0  0  0
 11 14  1  0  0  0  0
  9 10  1  0  0  0  0
  9 11  1  0  0  0  0
  9 25  1  0  0  0  0
  7  8  1  0  0  0  0
  7  9  1  0  0  0  0
 29 30  1  0  0  0  0
 29 31  1  0  0  0  0
 29 32  1  0  0  0  0
 27 28  1  0  0  0  0
 27 29  1  0  0  0  0
M  END
$$$$
default_name
  -OEChem-02102213163D

 32 32  0     1  0  0  0  0  0999 V2000
   -3.8405   -3.7518    1.6252 H   0  0  0  0  0  0  0  0  0  0  0  0
   -3.7965   -2.8768    0.9782 C   0  0  0  0  0  0  0  0  0  0  0  0
   -4.5465   -2.1527    1.2902 H   0  0  0  0  0  0  0  0  0  0  0  0
   -3.9745   -3.1748   -0.0538 H   0  0  0  0  0  0  0  0  0  0  0  0
   -2.4245   -2.2537    1.0882 C   0  0  0  0  0  0  0  0  0  0  0  0
   -1.5805   -2.7478    1.8242 O   0  0  0  0  0  0  0  0  0  0  0  0
   -2.2045   -1.1637    0.3562 N   0  0  0  0  0  0  0  0  0  0  0  0
   -2.9595   -0.7907   -0.2008 H   0  0  0  0  0  0  0  0  0  0  0  0
   -0.9485   -0.4087    0.3482 C   0  0  1  0  0  0  0  0  0  0  0  0
   -0.3666   -0.6914    1.2269 H   0  0  0  0  0  0  0  0  0  0  0  0
   -0.1405   -0.7797   -0.9072 C   0  0  0  0  0  0  0  0  0  0  0  0
   -0.8316   -1.0347   -1.7118 H   0  0  0  0  0  0  0  0  0  0  0  0
    0.4311    0.0916   -1.2302 H   0  0  0  0  0  0  0  0  0  0  0  0
    0.8022   -1.9513   -0.7082 C   0  0  0  0  0  0  0  0  0  0  0  0
    0.3026   -3.2659   -0.6441 C   0  0  0  0  0  0  0  0  0  0  0  0
   -0.7608   -3.4463   -0.7136 H   0  0  0  0  0  0  0  0  0  0  0  0
    1.1870   -4.3508   -0.5008 C   0  0  0  0  0  0  0  0  0  0  0  0
    0.8011   -5.3593   -0.4492 H   0  0  0  0  0  0  0  0  0  0  0  0
    2.5716   -4.1238   -0.4234 C   0  0  0  0  0  0  0  0  0  0  0  0
    3.2508   -4.9573   -0.3110 H   0  0  0  0  0  0  0  0  0  0  0  0
    3.0740   -2.8113   -0.4857 C   0  0  0  0  0  0  0  0  0  0  0  0
    4.1379   -2.6363   -0.4207 H   0  0  0  0  0  0  0  0  0  0  0  0
    2.1897   -1.7270   -0.6255 C   0  0  0  0  0  0  0  0  0  0  0  0
    2.5773   -0.7175   -0.6700 H   0  0  0  0  0  0  0  0  0  0  0  0
   -1.2168    1.1047    0.4313 C   0  0  0  0  0  0  0  0  0  0  0  0
   -2.0890    1.6186   -0.2704 O   0  0  0  0  0  0  0  0  0  0  0  0
   -0.4674    1.8182    1.2813 N   0  0  0  0  0  0  0  0  0  0  0  0
    0.2640    1.3348    1.7800 H   0  0  0  0  0  0  0  0  0  0  0  0
   -0.5889    3.2615    1.4722 C   0  0  0  0  0  0  0  0  0  0  0  0
   -1.6291    3.5206    1.6805 H   0  0  0  0  0  0  0  0  0  0  0  0
    0.0359    3.5855    2.3049 H   0  0  0  0  0  0  0  0  0  0  0  0
   -0.2760    3.7797    0.5637 H   0  0  0  0  0  0  0  0  0  0  0  0
  5  6  2  0  0  0  0
  5  7  1  0  0  0  0
  2  3  1  0  0  0  0
  2  4  1  0  0  0  0
  2  5  1  0  0  0  0
  1  2  1  0  0  0  0
 25 26  2  0  0  0  0
 25 27  1  0  0  0  0
 23 24  1  0  0  0  0
 21 22  1  0  0  0  0
 21 23  2  0  0  0  0
 19 20  1  0  0  0  0
 19 21  1  0  0  0  0
 17 18  1  0  0  0  0
 17 19  2  0  0  0  0
 15 16  1  0  0  0  0
 15 17  1  0  0  0  0
 14 15  2  0  0  0  0
 14 23  1  0  0  0  0
 11 12  1  0  0  0  0
 11 13  1  0  0  0  0
 11 14  1  0  0  0  0
  9 10  1  0  0  0  0
  9 11  1  0  0  0  0
  9 25  1  0  0  0  0
  7  8  1  0  0  0  0
  7  9  1  0  0  0  0
 29 30  1  0  0  0  0
 29 31  1  0  0  0  0
 29 32  1  0  0  0  0
 27 28  1  0  0  0  0
 27 29  1  0  0  0  0
M  END
$$$$
default_name
  -OEChem-02102213163D

 32 32  0     1  0  0  0  0  0999 V2000
   -3.8405   -3.7518    1.6252 H   0  0  0  0  0  0  0  0  0  0  0  0
   -3.7965   -2.8768    0.9782 C   0  0  0  0  0  0  0  0  0  0  0  0
   -4.5465   -2.1527    1.2902 H   0  0  0  0  0  0  0  0  0  0  0  0
   -3.9745   -3.1748   -0.0538 H   0  0  0  0  0  0  0  0  0  0  0  0
   -2.4245   -2.2537    1.0882 C   0  0  0  0  0  0  0  0  0  0  0  0
   -1.5805   -2.7478    1.8242 O   0  0  0  0  0  0  0  0  0  0  0  0
   -2.2045   -1.1637    0.3562 N   0  0  0  0  0  0  0  0  0  0  0  0
   -2.9595   -0.7907   -0.2008 H   0  0  0  0  0  0  0  0  0  0  0  0
   -0.9485   -0.4087    0.3482 C   0  0  1  0  0  0  0  0  0  0  0  0
   -0.3666   -0.6914    1.2269 H   0  0  0  0  0  0  0  0  0  0  0  0
   -0.1405   -0.7797   -0.9072 C   0  0  0  0  0  0  0  0  0  0  0  0
   -0.8316   -1.0347   -1.7118 H   0  0  0  0  0  0  0  0  0  0  0  0
    0.4311    0.0916   -1.2302 H   0  0  0  0  0  0  0  0  0  0  0  0
    0.8022   -1.9513   -0.7082 C   0  0  0  0  0  0  0  0  0  0  0  0
    0.3665   -3.2671   -0.9544 C   0  0  0  0  0  0  0  0  0  0  0  0
   -0.6519   -3.4524   -1.2655 H   0  0  0  0  0  0  0  0  0  0  0  0
    1.2587   -4.3452   -0.8075 C   0  0  0  0  0  0  0  0  0  0  0  0
    0.9214   -5.3550   -0.9945 H   0  0  0  0  0  0  0  0  0  0  0  0
    2.5877   -4.1097   -0.4163 C   0  0  0  0  0  0  0  0  0  0  0  0
    3.2725   -4.9382   -0.3011 H   0  0  0  0  0  0  0  0  0  0  0  0
    3.0259   -2.7961   -0.1681 C   0  0  0  0  0  0  0  0  0  0  0  0
    4.0459   -2.6154    0.1379 H   0  0  0  0  0  0  0  0  0  0  0  0
    2.1331   -1.7193   -0.3118 C   0  0  0  0  0  0  0  0  0  0  0  0
    2.4706   -0.7095   -0.1173 H   0  0  0  0  0  0  0  0  0  0  0  0
   -1.2168    1.1047    0.4313 C   0  0  0  0  0  0  0  0  0  0  0  0
   -2.0890    1.6186   -0.2704 O   0  0  0  0  0  0  0  0  0  0  0  0
   -0.4674    1.8182    1.2813 N   0  0  0  0  0  0  0  0  0  0  0  0
    0.2640    1.3348    1.7800 H   0  0  0  0  0  0  0  0  0  0  0  0
   -0.5889    3.2615    1.4722 C   0  0  0  0  0  0  0  0  0  0  0  0
   -1.6291    3.5206    1.6805 H   0  0  0  0  0  0  0  0  0  0  0  0
    0.0359    3.5855    2.3049 H   0  0  0  0  0  0  0  0  0  0  0  0
   -0.2760    3.7797    0.5637 H   0  0  0  0  0  0  0  0  0  0  0  0
  5  6  2  0  0  0  0
  5  7  1  0  0  0  0
  2  3  1  0  0  0  0
  2  4  1  0  0  0  0
  2  5  1  0  0  0  0
  1  2  1  0  0  0  0
 25 26  2  0  0  0  0
 25 27  1  0  0  0  0
 23 24  1  0  0  0  0
 21 22  1  0  0  0  0
 21 23  2  0  0  0  0
 19 20  1  0  0  0  0
 19 21  1  0  0  0  0
 17 18  1  0  0  0  0
 17 19  2  0  0  0  0
 15 16  1  0  0  0  0
 15 17  1  0  0  0  0
 14 15  2  0  0  0  0
 14 23  1  0  0  0  0
 11 12  1  0  0  0  0
 11 13  1  0  0  0  0
 11 14  1  0  0  0  0
  9 10  1  0  0  0  0
  9 11  1  0  0  0  0
  9 25  1  0  0  0  0
  7  8  1  0  0  0  0
  7  9  1  0  0  0  0
 29 30  1  0  0  0  0
 29 31  1  0  0  0  0
 29 32  1  0  0  0  0
 27 28  1  0  0  0  0
 27 29  1  0  0  0  0
M  END
$$$$
default_name
  -OEChem-02102213163D

 32 32  0     1  0  0  0  0  0999 V2000
   -3.8405   -3.7518    1.6252 H   0  0  0  0  0  0  0  0  0  0  0  0
   -3.7965   -2.8768    0.9782 C   0  0  0  0  0  0  0  0  0  0  0  0
   -4.5465   -2.1527    1.2902 H   0  0  0  0  0  0  0  0  0  0  0  0
   -3.9745   -3.1748   -0.0538 H   0  0  0  0  0  0  0  0  0  0  0  0
   -2.4245   -2.2537    1.0882 C   0  0  0  0  0  0  0  0  0  0  0  0
   -1.5805   -2.7478    1.8242 O   0  0  0  0  0  0  0  0  0  0  0  0
   -2.2045   -1.1637    0.3562 N   0  0  0  0  0  0  0  0  0  0  0  0
   -2.9595   -0.7907   -0.2008 H   0  0  0  0  0  0  0  0  0  0  0  0
   -0.9485   -0.4087    0.3482 C   0  0  1  0  0  0  0  0  0  0  0  0
   -0.3666   -0.6914    1.2269 H   0  0  0  0  0  0  0  0  0  0  0  0
   -0.1405   -0.7797   -0.9072 C   0  0  0  0  0  0  0  0  0  0  0  0
   -0.8316   -1.0347   -1.7118 H   0  0  0  0  0  0  0  0  0  0  0  0
    0.4311    0.0916   -1.2302 H   0  0  0  0  0  0  0  0  0  0  0  0
    0.8022   -1.9513   -0.7082 C   0  0  0  0  0  0  0  0  0  0  0  0
    0.4903   -3.2162   -1.2416 C   0  0  0  0  0  0  0  0  0  0  0  0
   -0.4361   -3.3658   -1.7779 H   0  0  0  0  0  0  0  0  0  0  0  0
    1.3892   -4.2879   -1.0884 C   0  0  0  0  0  0  0  0  0  0  0  0
    1.1466   -5.2591   -1.4965 H   0  0  0  0  0  0  0  0  0  0  0  0
    2.6014   -4.0966   -0.4039 C   0  0  0  0  0  0  0  0  0  0  0  0
    3.2908   -4.9205   -0.2842 H   0  0  0  0  0  0  0  0  0  0  0  0
    2.9154   -2.8342    0.1316 C   0  0  0  0  0  0  0  0  0  0  0  0
    3.8447   -2.6883    0.6625 H   0  0  0  0  0  0  0  0  0  0  0  0
    2.0155   -1.7642   -0.0188 C   0  0  0  0  0  0  0  0  0  0  0  0
    2.2567   -0.7943    0.3965 H   0  0  0  0  0  0  0  0  0  0  0  0
   -1.2168    1.1047    0.4313 C   0  0  0  0  0  0  0  0  0  0  0  0
   -2.0890    1.6186   -0.2704 O   0  0  0  0  0  0  0  0  0  0  0  0
   -0.4674    1.8182    1.2813 N   0  0  0  0  0  0  0  0  0  0  0  0
    0.2640    1.3348    1.7800 H   0  0  0  0  0  0  0  0  0  0  0  0
   -0.5889    3.2615    1.4722 C   0  0  0  0  0  0  0  0  0  0  0  0
   -1.6291    3.5206    1.6805 H   0  0  0  0  0  0  0  0  0  0  0  0
    0.0359    3.5855    2.3049 H   0  0  0  0  0  0  0  0  0  0  0  0
   -0.2760    3.7797    0.5637 H   0  0  0  0  0  0  0  0  0  0  0  0
  5  6  2  0  0  0  0
  5  7  1  0  0  0  0
  2  3  1  0  0  0  0
  2  4  1  0  0  0  0
  2  5  1  0  0  0  0
  1  2  1  0  0  0  0
 25 26  2  0  0  0  0
 25 27  1  0  0  0  0
 23 24  1  0  0  0  0
 21 22  1  0  0  0  0
 21 23  2  0  0  0  0
 19 20  1  0  0  0  0
 19 21  1  0  0  0  0
 17 18  1  0  0  0  0
 17 19  2  0  0  0  0
 15 16  1  0  0  0  0
 15 17  1  0  0  0  0
 14 15  2  0  0  0  0
 14 23  1  0  0  0  0
 11 12  1  0  0  0  0
 11 13  1  0  0  0  0
 11 14  1  0  0  0  0
  9 10  1  0  0  0  0
  9 11  1  0  0  0  0
  9 25  1  0  0  0  0
  7  8  1  0  0  0  0
  7  9  1  0  0  0  0
 29 30  1  0  0  0  0
 29 31  1  0  0  0  0
 29 32  1  0  0  0  0
 27 28  1  0  0  0  0
 27 29  1  0  0  0  0
M  END
$$$$
default_name
  -OEChem-02102213163D

 32 32  0     1  0  0  0  0  0999 V2000
   -3.8405   -3.7518    1.6252 H   0  0  0  0  0  0  0  0  0  0  0  0
   -3.7965   -2.8768    0.9782 C   0  0  0  0  0  0  0  0  0  0  0  0
   -4.5465   -2.1527    1.2902 H   0  0  0  0  0  0  0  0  0  0  0  0
   -3.9745   -3.1748   -0.0538 H   0  0  0  0  0  0  0  0  0  0  0  0
   -2.4245   -2.2537    1.0882 C   0  0  0  0  0  0  0  0  0  0  0  0
   -1.5805   -2.7478    1.8242 O   0  0  0  0  0  0  0  0  0  0  0  0
   -2.2045   -1.1637    0.3562 N   0  0  0  0  0  0  0  0  0  0  0  0
   -2.9595   -0.7907   -0.2008 H   0  0  0  0  0  0  0  0  0  0  0  0
   -0.9485   -0.4087    0.3482 C   0  0  1  0  0  0  0  0  0  0  0  0
   -0.3666   -0.6914    1.2269 H   0  0  0  0  0  0  0  0  0  0  0  0
   -0.1405   -0.7797   -0.9072 C   0  0  0  0  0  0  0  0  0  0  0  0
   -0.8316   -1.0347   -1.7118 H   0  0  0  0  0  0  0  0  0  0  0  0
    0.4311    0.0916   -1.2302 H   0  0  0  0  0  0  0  0  0  0  0  0
    0.8022   -1.9513   -0.7082 C   0  0  0  0  0  0  0  0  0  0  0  0
    0.6656   -3.1167   -1.4860 C   0  0  0  0  0  0  0  0  0  0  0  0
   -0.1282   -3.1923   -2.2157 H   0  0  0  0  0  0  0  0  0  0  0  0
    1.5694   -4.1830   -1.3245 C   0  0  0  0  0  0  0  0  0  0  0  0
    1.4611   -5.0780   -1.9210 H   0  0  0  0  0  0  0  0  0  0  0  0
    2.6117   -4.0854   -0.3871 C   0  0  0  0  0  0  0  0  0  0  0  0
    3.3046   -4.9056   -0.2614 H   0  0  0  0  0  0  0  0  0  0  0  0
    2.7501   -2.9228    0.3928 C   0  0  0  0  0  0  0  0  0  0  0  0
    3.5479   -2.8498    1.1172 H   0  0  0  0  0  0  0  0  0  0  0  0
    1.8448   -1.8587    0.2335 C   0  0  0  0  0  0  0  0  0  0  0  0
    1.9503   -0.9662    0.8364 H   0  0  0  0  0  0  0  0  0  0  0  0
   -1.2168    1.1047    0.4313 C   0  0  0  0  0  0  0  0  0  0  0  0
   -2.0890    1.6186   -0.2704 O   0  0  0  0  0  0  0  0  0  0  0  0
   -0.4674    1.8182    1.2813 N   0  0  0  0  0  0  0  0  0  0  0  0
    0.2640    1.3348    1.7800 H   0  0  0  0  0  0  0  0  0  0  0  0
   -0.5889    3.2615    1.4722 C   0  0  0  0  0  0  0  0  0  0  0  0
   -1.6291    3.5206    1.6805 H   0  0  0  0  0  0  0  0  0  0  0  0
    0.0359    3.5855    2.3049 H   0  0  0  0  0  0  0  0  0  0  0  0
   -0.2760    3.7797    0.5637 H   0  0  0  0  0  0  0  0  0  0  0  0
  5  6  2  0  0  0  0
  5  7  1  0  0  0  0
  2  3  1  0  0  0  0
  2  4  1  0  0  0  0
  2  5  1  0  0  0  0
  1  2  1  0  0  0  0
 25 26  2  0  0  0  0
 25 27  1  0  0  0  0
 23 24  1  0  0  0  0
 21 22  1  0  0  0  0
 21 23  2  0  0  0  0
 19 20  1  0  0  0  0
 19 21  1  0  0  0  0
 17 18  1  0  0  0  0
 17 19  2  0  0  0  0
 15 16  1  0  0  0  0
 15 17  1  0  0  0  0
 14 15  2  0  0  0  0
 14 23  1  0  0  0  0
 11 12  1  0  0  0  0
 11 13  1  0  0  0  0
 11 14  1  0  0  0  0
  9 10  1  0  0  0  0
  9 11  1  0  0  0  0
  9 25  1  0  0  0  0
  7  8  1  0  0  0  0
  7  9  1  0  0  0  0
 29 30  1  0  0  0  0
 29 31  1  0  0  0  0
 29 32  1  0  0  0  0
 27 28  1  0  0  0  0
 27 29  1  0  0  0  0
M  END
$$$$
default_name
  -OEChem-02102213163D

 32 32  0     1  0  0  0  0  0999 V2000
   -3.8405   -3.7518    1.6252 H   0  0  0  0  0  0  0  0  0  0  0  0
   -3.7965   -2.8768    0.9782 C   0  0  0  0  0  0  0  0  0  0  0  0
   -4.5465   -2.1527    1.2902 H   0  0  0  0  0  0  0  0  0  0  0  0
   -3.9745   -3.1748   -0.0538 H   0  0  0  0  0  0  0  0  0  0  0  0
   -2.4245   -2.2537    1.0882 C   0  0  0  0  0  0  0  0  0  0  0  0
   -1.5805   -2.7478    1.8242 O   0  0  0  0  0  0  0  0  0  0  0  0
   -2.2045   -1.1637    0.3562 N   0  0  0  0  0  0  0  0  0  0  0  0
   -2.9595   -0.7907   -0.2008 H   0  0  0  0  0  0  0  0  0  0  0  0
   -0.9485   -0.4087    0.3482 C   0  0  1  0  0  0  0  0  0  0  0  0
   -0.3666   -0.6914    1.2269 H   0  0  0  0  0  0  0  0  0  0  0  0
   -0.1405   -0.7797   -0.9072 C   0  0  0  0  0  0  0  0  0  0  0  0
   -0.8316   -1.0347   -1.7118 H   0  0  0  0  0  0  0  0  0  0  0  0
    0.4311    0.0916   -1.2302 H   0  0  0  0  0  0  0  0  0  0  0  0
    0.8022   -1.9513   -0.7082 C   0  0  0  0  0  0  0  0  0  0  0  0
    0.8804   -2.9753   -1.6711 C   0  0  0  0  0  0  0  0  0  0  0  0
    0.2508   -2.9440   -2.5491 H   0  0  0  0  0  0  0  0  0  0  0  0
    1.7871   -4.0376   -1.4997 C   0  0  0  0  0  0  0  0  0  0  0  0
    1.8437   -4.8242   -2.2390 H   0  0  0  0  0  0  0  0  0  0  0  0
    2.6179   -4.0770   -0.3671 C   0  0  0  0  0  0  0  0  0  0  0  0
    3.3127   -4.8944   -0.2342 H   0  0  0  0  0  0  0  0  0  0  0  0
    2.5412   -3.0561    0.5978 C   0  0  0  0  0  0  0  0  0  0  0  0
    3.1759   -3.0891    1.4711 H   0  0  0  0  0  0  0  0  0  0  0  0
    1.6327   -1.9964    0.4278 C   0  0  0  0  0  0  0  0  0  0  0  0
    1.5723   -1.2133    1.1725 H   0  0  0  0  0  0  0  0  0  0  0  0
   -1.2168    1.1047    0.4313 C   0  0  0  0  0  0  0  0  0  0  0  0
   -2.0890    1.6186   -0.2704 O   0  0  0  0  0  0  0  0  0  0  0  0
   -0.4674    1.8182    1.2813 N   0  0  0  0  0  0  0  0  0  0  0  0
    0.2640    1.3348    1.7800 H   0  0  0  0  0  0  0  0  0  0  0  0
   -0.5889    3.2615    1.4722 C   0  0  0  0  0  0  0  0  0  0  0  0
   -1.6291    3.5206    1.6805 H   0  0  0  0  0  0  0  0  0  0  0  0
    0.0359    3.5855    2.3049 H   0  0  0  0  0  0  0  0  0  0  0  0
   -0.2760    3.7797    0.5637 H   0  0  0  0  0  0  0  0  0  0  0  0
  5  6  2  0  0  0  0
  5  7  1  0  0  0  0
  2  3  1  0  0  0  0
  2  4  1  0  0  0  0
  2  5  1  0  0  0  0
  1  2  1  0  0  0  0
 25 26  2  0  0  0  0
 25 27  1  0  0  0  0
 23 24  1  0  0  0  0
 21 22  1  0  0  0  0
 21 23  2  0  0  0  0
 19 20  1  0  0  0  0
 19 21  1  0  0  0  0
 17 18  1  0  0  0  0
 17 19  2  0  0  0  0
 15 16  1  0  0  0  0
 15 17  1  0  0  0  0
 14 15  2  0  0  0  0
 14 23  1  0  0  0  0
 11 12  1  0  0  0  0
 11 13  1  0  0  0  0
 11 14  1  0  0  0  0
  9 10  1  0  0  0  0
  9 11  1  0  0  0  0
  9 25  1  0  0  0  0
  7  8  1  0  0  0  0
  7  9  1  0  0  0  0
 29 30  1  0  0  0  0
 29 31  1  0  0  0  0
 29 32  1  0  0  0  0
 27 28  1  0  0  0  0
 27 29  1  0  0  0  0
M  END
$$$$
default_name
  -OEChem-02102213163D

 32 32  0     1  0  0  0  0  0999 V2000
   -3.8405   -3.7518    1.6252 H   0  0  0  0  0  0  0  0  0  0  0  0
   -3.7965   -2.8768    0.9782 C   0  0  0  0  0  0  0  0  0  0  0  0
   -4.5465   -2.1527    1.2902 H   0  0  0  0  0  0  0  0  0  0  0  0
   -3.9745   -3.1748   -0.0538 H   0  0  0  0  0  0  0  0  0  0  0  0
   -2.4245   -2.2537    1.0882 C   0  0  0  0  0  0  0  0  0  0  0  0
   -1.5805   -2.7478    1.8242 O   0  0  0  0  0  0  0  0  0  0  0  0
   -2.2045   -1.1637    0.3562 N   0  0  0  0  0  0  0  0  0  0  0  0
   -2.9595   -0.7907   -0.2008 H   0  0  0  0  0  0  0  0  0  0  0  0
   -0.9485   -0.4087    0.3482 C   0  0  1  0  0  0  0  0  0  0  0  0
   -0.3666   -0.6914    1.2269 H   0  0  0  0  0  0  0  0  0  0  0  0
   -0.1405   -0.7797   -0.9072 C   0  0  0  0  0  0  0  0  0  0  0  0
   -0.8316   -1.0347   -1.7118 H   0  0  0  0  0  0  0  0  0  0  0  0
    0.4311    0.0916   -1.2302 H   0  0  0  0  0  0  0  0  0  0  0  0
    0.8022   -1.9513   -0.7082 C   0  0  0  0  0  0  0  0  0  0  0  0
    1.1201   -2.8016   -1.7842 C   0  0  0  0  0  0  0  0  0  0  0  0
    0.6751   -2.6375   -2.7555 H   0  0  0  0  0  0  0  0  0  0  0  0
    2.0274   -3.8615   -1.6020 C   0  0  0  0  0  0  0  0  0  0  0  0
    2.2682   -4.5149   -2.4288 H   0  0  0  0  0  0  0  0  0  0  0  0
    2.6196   -4.0719   -0.3451 C   0  0  0  0  0  0  0  0  0  0  0  0
    3.3148   -4.8877   -0.2045 H   0  0  0  0  0  0  0  0  0  0  0  0
    2.3029   -3.2250    0.7326 C   0  0  0  0  0  0  0  0  0  0  0  0
    2.7539   -3.3898    1.7001 H   0  0  0  0  0  0  0  0  0  0  0  0
    1.3936   -2.1678    0.5510 C   0  0  0  0  0  0  0  0  0  0  0  0
    1.1483   -1.5189    1.3817 H   0  0  0  0  0  0  0  0  0  0  0  0
   -1.2168    1.1047    0.4313 C   0  0  0  0  0  0  0  0  0  0  0  0
   -2.0890    1.6186   -0.2704 O   0  0  0  0  0  0  0  0  0  0  0  0
   -0.4674    1.8182    1.2813 N   0  0  0  0  0  0  0  0  0  0  0  0
    0.2640    1.3348    1.7800 H   0  0  0  0  0  0  0  0  0  0  0  0
   -0.5889    3.2615    1.4722 C   0  0  0  0  0  0  0  0  0  0  0  0
   -1.6291    3.5206    1.6805 H   0  0  0  0  0  0  0  0  0  0  0  0
    0.0359    3.5855    2.3049 H   0  0  0  0  0  0  0  0  0  0  0  0
   -0.2760    3.7797    0.5637 H   0  0  0  0  0  0  0  0  0  0  0  0
  5  6  2  0  0  0  0
  5  7  1  0  0  0  0
  2  3  1  0  0  0  0
  2  4  1  0  0  0  0
  2  5  1  0  0  0  0
  1  2  1  0  0  0  0
 25 26  2  0  0  0  0
 25 27  1  0  0  0  0
 23 24  1  0  0  0  0
 21 22  1  0  0  0  0
 21 23  2  0  0  0  0
 19 20  1  0  0  0  0
 19 21  1  0  0  0  0
 17 18  1  0  0  0  0
 17 19  2  0  0  0  0
 15 16  1  0  0  0  0
 15 17  1  0  0  0  0
 14 15  2  0  0  0  0
 14 23  1  0  0  0  0
 11 12  1  0  0  0  0
 11 13  1  0  0  0  0
 11 14  1  0  0  0  0
  9 10  1  0  0  0  0
  9 11  1  0  0  0  0
  9 25  1  0  0  0  0
  7  8  1  0  0  0  0
  7  9  1  0  0  0  0
 29 30  1  0  0  0  0
 29 31  1  0  0  0  0
 29 32  1  0  0  0  0
 27 28  1  0  0  0  0
 27 29  1  0  0  0  0
M  END
$$$$
default_name
  -OEChem-02102213163D

 32 32  0     1  0  0  0  0  0999 V2000
   -3.8405   -3.7518    1.6252 H   0  0  0  0  0  0  0  0  0  0  0  0
   -3.7965   -2.8768    0.9782 C   0  0  0  0  0  0  0  0  0  0  0  0
   -4.5465   -2.1527    1.2902 H   0  0  0  0  0  0  0  0  0  0  0  0
   -3.9745   -3.1748   -0.0538 H   0  0  0  0  0  0  0  0  0  0  0  0
   -2.4245   -2.2537    1.0882 C   0  0  0  0  0  0  0  0  0  0  0  0
   -1.5805   -2.7478    1.8242 O   0  0  0  0  0  0  0  0  0  0  0  0
   -2.2045   -1.1637    0.3562 N   0  0  0  0  0  0  0  0  0  0  0  0
   -2.9595   -0.7907   -0.2008 H   0  0  0  0  0  0  0  0  0  0  0  0
   -0.9485   -0.4087    0.3482 C   0  0  1  0  0  0  0  0  0  0  0  0
   -0.3666   -0.6914    1.2269 H   0  0  0  0  0  0  0  0  0  0  0  0
   -0.1405   -0.7797   -0.9072 C   0  0  0  0  0  0  0  0  0  0  0  0
   -0.8316   -1.0347   -1.7118 H   0  0  0  0  0  0  0  0  0  0  0  0
    0.4311    0.0916   -1.2302 H   0  0  0  0  0  0  0  0  0  0  0  0
    0.8022   -1.9513   -0.7082 C   0  0  0  0  0  0  0  0  0  0  0  0
    1.3683   -2.6076   -1.8176 C   0  0  0  0  0  0  0  0  0  0  0  0
    1.1159   -2.2940   -2.8207 H   0  0  0  0  0  0  0  0  0  0  0  0
    2.2741   -3.6669   -1.6244 C   0  0  0  0  0  0  0  0  0  0  0  0
    2.7056   -4.1712   -2.4776 H   0  0  0  0  0  0  0  0  0  0  0  0
    2.6167   -4.0705   -0.3227 C   0  0  0  0  0  0  0  0  0  0  0  0
    3.3107   -4.8859   -0.1743 H   0  0  0  0  0  0  0  0  0  0  0  0
    2.0516   -3.4178    0.7880 C   0  0  0  0  0  0  0  0  0  0  0  0
    2.3107   -3.7314    1.7886 H   0  0  0  0  0  0  0  0  0  0  0  0
    1.1439   -2.3613    0.5946 C   0  0  0  0  0  0  0  0  0  0  0  0
    0.7074   -1.8622    1.4499 H   0  0  0  0  0  0  0  0  0  0  0  0
   -1.2168    1.1047    0.4313 C   0  0  0  0  0  0  0  0  0  0  0  0
   -2.0890    1.6186   -0.2704 O   0  0  0  0  0  0  0  0  0  0  0  0
   -0.4674    1.8182    1.2813 N   0  0  0  0  0  0  0  0  0  0  0  0
    0.2640    1.3348    1.7800 H   0  0  0  0  0  0  0  0  0  0  0  0
   -0.5889    3.2615    1.4722 C   0  0  0  0  0  0  0  0  0  0  0  0
   -1.6291    3.5206    1.6805 H   0  0  0  0  0  0  0  0  0  0  0  0
    0.0359    3.5855    2.3049 H   0  0  0  0  0  0  0  0  0  0  0  0
   -0.2760    3.7797    0.5637 H   0  0  0  0  0  0  0  0  0  0  0  0
  5  6  2  0  0  0  0
  5  7  1  0  0  0  0
  2  3  1  0  0  0  0
  2  4  1  0  0  0  0
  2  5  1  0  0  0  0
  1  2  1  0  0  0  0
 25 26  2  0  0  0  0
 25 27  1  0  0  0  0
 23 24  1  0  0  0  0
 21 22  1  0  0  0  0
 21 23  2  0  0  0  0
 19 20  1  0  0  0  0
 19 21  1  0  0  0  0
 17 18  1  0  0  0  0
 17 19  2  0  0  0  0
 15 16  1  0  0  0  0
 15 17  1  0  0  0  0
 14 15  2  0  0  0  0
 14 23  1  0  0  0  0
 11 12  1  0  0  0  0
 11 13  1  0  0  0  0
 11 14  1  0  0  0  0
  9 10  1  0  0  0  0
  9 11  1  0  0  0  0
  9 25  1  0  0  0  0
  7  8  1  0  0  0  0
  7  9  1  0  0  0  0
 29 30  1  0  0  0  0
 29 31  1  0  0  0  0
 29 32  1  0  0  0  0
 27 28  1  0  0  0  0
 27 29  1  0  0  0  0
M  END
$$$$
default_name
  -OEChem-02102213163D

 32 32  0     1  0  0  0  0  0999 V2000
   -3.8405   -3.7518    1.6252 H   0  0  0  0  0  0  0  0  0  0  0  0
   -3.7965   -2.8768    0.9782 C   0  0  0  0  0  0  0  0  0  0  0  0
   -4.5465   -2.1527    1.2902 H   0  0  0  0  0  0  0  0  0  0  0  0
   -3.9745   -3.1748   -0.0538 H   0  0  0  0  0  0  0  0  0  0  0  0
   -2.4245   -2.2537    1.0882 C   0  0  0  0  0  0  0  0  0  0  0  0
   -1.5805   -2.7478    1.8242 O   0  0  0  0  0  0  0  0  0  0  0  0
   -2.2045   -1.1637    0.3562 N   0  0  0  0  0  0  0  0  0  0  0  0
   -2.9595   -0.7907   -0.2008 H   0  0  0  0  0  0  0  0  0  0  0  0
   -0.9485   -0.4087    0.3482 C   0  0  1  0  0  0  0  0  0  0  0  0
   -0.3666   -0.6914    1.2269 H   0  0  0  0  0  0  0  0  0  0  0  0
   -0.1405   -0.7797   -0.9072 C   0  0  0  0  0  0  0  0  0  0  0  0
   -0.8053   -0.7736   -1.7721 H   0  0  0  0  0  0  0  0  0  0  0  0
    0.6222   -0.0178   -1.0749 H   0  0  0  0  0  0  0  0  0  0  0  0
    0.5212   -2.1425   -0.8326 C   0  0  0  0  0  0  0  0  0  0  0  0
    1.2949   -2.6196   -1.9076 C   0  0  0  0  0  0  0  0  0  0  0  0
    1.4033   -2.0254   -2.8040 H   0  0  0  0  0  0  0  0  0  0  0  0
    1.9395   -3.8669   -1.8146 C   0  0  0  0  0  0  0  0  0  0  0  0
    2.5310   -4.2325   -2.6422 H   0  0  0  0  0  0  0  0  0  0  0  0
    1.8135   -4.6380   -0.6466 C   0  0  0  0  0  0  0  0  0  0  0  0
    2.3068   -5.5974   -0.5761 H   0  0  0  0  0  0  0  0  0  0  0  0
    1.0399   -4.1650    0.4289 C   0  0  0  0  0  0  0  0  0  0  0  0
    0.9385   -4.7600    1.3246 H   0  0  0  0  0  0  0  0  0  0  0  0
    0.3931   -2.9199    0.3343 C   0  0  0  0  0  0  0  0  0  0  0  0
   -0.2044   -2.5586    1.1612 H   0  0  0  0  0  0  0  0  0  0  0  0
   -1.2168    1.1047    0.4313 C   0  0  0  0  0  0  0  0  0  0  0  0
   -2.0890    1.6186   -0.2704 O   0  0  0  0  0  0  0  0  0  0  0  0
   -0.4674    1.8182    1.2813 N   0  0  0  0  0  0  0  0  0  0  0  0
    0.2640    1.3348    1.7800 H   0  0  0  0  0  0  0  0  0  0  0  0
   -0.5889    3.2615    1.4722 C   0  0  0  0  0  0  0  0  0  0  0  0
   -1.6291    3.5206    1.6805 H   0  0  0  0  0  0  0  0  0  0  0  0
    0.0359    3.5855    2.3049 H   0  0  0  0  0  0  0  0  0  0  0  0
   -0.2760    3.7797    0.5637 H   0  0  0  0  0  0  0  0  0  0  0  0
  5  6  2  0  0  0  0
  5  7  1  0  0  0  0
  2  3  1  0  0  0  0
  2  4  1  0  0  0  0
  2  5  1  0  0  0  0
  1  2  1  0  0  0  0
 25 26  2  0  0  0  0
 25 27  1  0  0  0  0
 23 24  1  0  0  0  0
 21 22  1  0  0  0  0
 21 23  2  0  0  0  0
 19 20  1  0  0  0  0
 19 21  1  0  0  0  0
 17 18  1  0  0  0  0
 17 19  2  0  0  0  0
 15 16  1  0  0  0  0
 15 17  1  0  0  0  0
 14 15  2  0  0  0  0
 14 23  1  0  0  0  0
 11 12  1  0  0  0  0
 11 13  1  0  0  0  0
 11 14  1  0  0  0  0
  9 10  1  0  0  0  0
  9 11  1  0  0  0  0
  9 25  1  0  0  0  0
  7  8  1  0  0  0  0
  7  9  1  0  0  0  0
 29 30  1  0  0  0  0
 29 31  1  0  0  0  0
 29 32  1  0  0  0  0
 27 28  1  0  0  0  0
 27 29  1  0  0  0  0
M  END
$$$$
default_name
  -OEChem-02102213163D

 32 32  0     1  0  0  0  0  0999 V2000
   -3.8405   -3.7518    1.6252 H   0  0  0  0  0  0  0  0  0  0  0  0
   -3.7965   -2.8768    0.9782 C   0  0  0  0  0  0  0  0  0  0  0  0
   -4.5465   -2.1527    1.2902 H   0  0  0  0  0  0  0  0  0  0  0  0
   -3.9745   -3.1748   -0.0538 H   0  0  0  0  0  0  0  0  0  0  0  0
   -2.4245   -2.2537    1.0882 C   0  0  0  0  0  0  0  0  0  0  0  0
   -1.5805   -2.7478    1.8242 O   0  0  0  0  0  0  0  0  0  0  0  0
   -2.2045   -1.1637    0.3562 N   0  0  0  0  0  0  0  0  0  0  0  0
   -2.9595   -0.7907   -0.2008 H   0  0  0  0  0  0  0  0  0  0  0  0
   -0.9485   -0.4087    0.3482 C   0  0  1  0  0  0  0  0  0  0  0  0
   -0.3666   -0.6914    1.2269 H   0  0  0  0  0  0  0  0  0  0  0  0
   -0.1405   -0.7797   -0.9072 C   0  0  0  0  0  0  0  0  0  0  0  0
   -0.8053   -0.7736   -1.7721 H   0  0  0  0  0  0  0  0  0  0  0  0
    0.6222   -0.0178   -1.0749 H   0  0  0  0  0  0  0  0  0  0  0  0
    0.5212   -2.1425   -0.8326 C   0  0  0  0  0  0  0  0  0  0  0  0
    1.5352   -2.4939   -1.7438 C   0  0  0  0  0  0  0  0  0  0  0  0
    1.8329   -1.8012   -2.5182 H   0  0  0  0  0  0  0  0  0  0  0  0
    2.1730   -3.7441   -1.6424 C   0  0  0  0  0  0  0  0  0  0  0  0
    2.9495   -4.0129   -2.3447 H   0  0  0  0  0  0  0  0  0  0  0  0
    1.7998   -4.6437   -0.6295 C   0  0  0  0  0  0  0  0  0  0  0  0
    2.2882   -5.6051   -0.5532 H   0  0  0  0  0  0  0  0  0  0  0  0
    0.7859   -4.2963    0.2817 C   0  0  0  0  0  0  0  0  0  0  0  0
    0.4952   -4.9899    1.0570 H   0  0  0  0  0  0  0  0  0  0  0  0
    0.1465   -3.0483    0.1782 C   0  0  0  0  0  0  0  0  0  0  0  0
   -0.6357   -2.7835    0.8778 H   0  0  0  0  0  0  0  0  0  0  0  0
   -1.2168    1.1047    0.4313 C   0  0  0  0  0  0  0  0  0  0  0  0
   -2.0890    1.6186   -0.2704 O   0  0  0  0  0  0  0  0  0  0  0  0
   -0.4674    1.8182    1.2813 N   0  0  0  0  0  0  0  0  0  0  0  0
    0.2640    1.3348    1.7800 H   0  0  0  0  0  0  0  0  0  0  0  0
   -0.5889    3.2615    1.4722 C   0  0  0  0  0  0  0  0  0  0  0  0
   -1.6291    3.5206    1.6805 H   0  0  0  0  0  0  0  0  0  0  0  0
    0.0359    3.5855    2.3049 H   0  0  0  0  0  0  0  0  0  0  0  0
   -0.2760    3.7797    0.5637 H   0  0  0  0  0  0  0  0  0  0  0  0
  5  6  2  0  0  0  0
  5  7  1  0  0  0  0
  2  3  1  0  0  0  0
  2  4  1  0  0  0  0
  2  5  1  0  0  0  0
  1  2  1  0  0  0  0
 25 26  2  0  0  0  0
 25 27  1  0  0  0  0
 23 24  1  0  0  0  0
 21 22  1  0  0  0  0
 21 23  2  0  0  0  0
 19 20  1  0  0  0  0
 19 21  1  0  0  0  0
 17 18  1  0  0  0  0
 17 19  2  0  0  0  0
 15 16  1  0  0  0  0
 15 17  1  0  0  0  0
 14 15  2  0  0  0  0
 14 23  1  0  0  0  0
 11 12  1  0  0  0  0
 11 13  1  0  0  0  0
 11 14  1  0  0  0  0
  9 10  1  0  0  0  0
  9 11  1  0  0  0  0
  9 25  1  0  0  0  0
  7  8  1  0  0  0  0
  7  9  1  0  0  0  0
 29 30  1  0  0  0  0
 29 31  1  0  0  0  0
 29 32  1  0  0  0  0
 27 28  1  0  0  0  0
 27 29  1  0  0  0  0
M  END
$$$$
default_name
  -OEChem-02102213163D

 32 32  0     1  0  0  0  0  0999 V2000
   -3.8405   -3.7518    1.6252 H   0  0  0  0  0  0  0  0  0  0  0  0
   -3.7965   -2.8768    0.9782 C   0  0  0  0  0  0  0  0  0  0  0  0
   -4.5465   -2.1527    1.2902 H   0  0  0  0  0  0  0  0  0  0  0  0
   -3.9745   -3.1748   -0.0538 H   0  0  0  0  0  0  0  0  0  0  0  0
   -2.4245   -2.2537    1.0882 C   0  0  0  0  0  0  0  0  0  0  0  0
   -1.5805   -2.7478    1.8242 O   0  0  0  0  0  0  0  0  0  0  0  0
   -2.2045   -1.1637    0.3562 N   0  0  0  0  0  0  0  0  0  0  0  0
   -2.9595   -0.7907   -0.2008 H   0  0  0  0  0  0  0  0  0  0  0  0
   -0.9485   -0.4087    0.3482 C   0  0  1  0  0  0  0  0  0  0  0  0
   -0.3666   -0.6914    1.2269 H   0  0  0  0  0  0  0  0  0  0  0  0
   -0.1405   -0.7797   -0.9072 C   0  0  0  0  0  0  0  0  0  0  0  0
   -0.8053   -0.7736   -1.7721 H   0  0  0  0  0  0  0  0  0  0  0  0
    0.6222   -0.0178   -1.0749 H   0  0  0  0  0  0  0  0  0  0  0  0
    0.5212   -2.1425   -0.8326 C   0  0  0  0  0  0  0  0  0  0  0  0
    1.7276   -2.3880   -1.5154 C   0  0  0  0  0  0  0  0  0  0  0  0
    2.1785   -1.6114   -2.1169 H   0  0  0  0  0  0  0  0  0  0  0  0
    2.3569   -3.6419   -1.4080 C   0  0  0  0  0  0  0  0  0  0  0  0
    3.2819   -3.8292   -1.9353 H   0  0  0  0  0  0  0  0  0  0  0  0
    1.7827   -4.6513   -0.6168 C   0  0  0  0  0  0  0  0  0  0  0  0
    2.2650   -5.6155   -0.5362 H   0  0  0  0  0  0  0  0  0  0  0  0
    0.5765   -4.4098    0.0656 C   0  0  0  0  0  0  0  0  0  0  0  0
    0.1322   -5.1874    0.6695 H   0  0  0  0  0  0  0  0  0  0  0  0
   -0.0539   -3.1577   -0.0445 C   0  0  0  0  0  0  0  0  0  0  0  0
   -0.9835   -2.9743    0.4783 H   0  0  0  0  0  0  0  0  0  0  0  0
   -1.2168    1.1047    0.4313 C   0  0  0  0  0  0  0  0  0  0  0  0
   -2.0890    1.6186   -0.2704 O   0  0  0  0  0  0  0  0  0  0  0  0
   -0.4674    1.8182    1.2813 N   0  0  0  0  0  0  0  0  0  0  0  0
    0.2640    1.3348    1.7800 H   0  0  0  0  0  0  0  0  0  0  0  0
   -0.5889    3.2615    1.4722 C   0  0  0  0  0  0  0  0  0  0  0  0
   -1.6291    3.5206    1.6805 H   0  0  0  0  0  0  0  0  0  0  0  0
    0.0359    3.5855    2.3049 H   0  0  0  0  0  0  0  0  0  0  0  0
   -0.2760    3.7797    0.5637 H   0  0  0  0  0  0  0  0  0  0  0  0
  5  6  2  0  0  0  0
  5  7  1  0  0  0  0
  2  3  1  0  0  0  0
  2  4  1  0  0  0  0
  2  5  1  0  0  0  0
  1  2  1  0  0  0  0
 25 26  2  0  0  0  0
 25 27  1  0  0  0  0
 23 24  1  0  0  0  0
 21 22  1  0  0  0  0
 21 23  2  0  0  0  0
 19 20  1  0  0  0  0
 19 21  1  0  0  0  0
 17 18  1  0  0  0  0
 17 19  2  0  0  0  0
 15 16  1  0  0  0  0
 15 17  1  0  0  0  0
 14 15  2  0  0  0  0
 14 23  1  0  0  0  0
 11 12  1  0  0  0  0
 11 13  1  0  0  0  0
 11 14  1  0  0  0  0
  9 10  1  0  0  0  0
  9 11  1  0  0  0  0
  9 25  1  0  0  0  0
  7  8  1  0  0  0  0
  7  9  1  0  0  0  0
 29 30  1  0  0  0  0
 29 31  1  0  0  0  0
 29 32  1  0  0  0  0
 27 28  1  0  0  0  0
 27 29  1  0  0  0  0
M  END
$$$$
default_name
  -OEChem-02102213163D

 32 32  0     1  0  0  0  0  0999 V2000
   -3.8405   -3.7518    1.6252 H   0  0  0  0  0  0  0  0  0  0  0  0
   -3.7965   -2.8768    0.9782 C   0  0  0  0  0  0  0  0  0  0  0  0
   -4.5465   -2.1527    1.2902 H   0  0  0  0  0  0  0  0  0  0  0  0
   -3.9745   -3.1748   -0.0538 H   0  0  0  0  0  0  0  0  0  0  0  0
   -2.4245   -2.2537    1.0882 C   0  0  0  0  0  0  0  0  0  0  0  0
   -1.5805   -2.7478    1.8242 O   0  0  0  0  0  0  0  0  0  0  0  0
   -2.2045   -1.1637    0.3562 N   0  0  0  0  0  0  0  0  0  0  0  0
   -2.9595   -0.7907   -0.2008 H   0  0  0  0  0  0  0  0  0  0  0  0
   -0.9485   -0.4087    0.3482 C   0  0  1  0  0  0  0  0  0  0  0  0
   -0.3666   -0.6914    1.2269 H   0  0  0  0  0  0  0  0  0  0  0  0
   -0.1405   -0.7797   -0.9072 C   0  0  0  0  0  0  0  0  0  0  0  0
   -0.8053   -0.7736   -1.7721 H   0  0  0  0  0  0  0  0  0  0  0  0
    0.6222   -0.0178   -1.0749 H   0  0  0  0  0  0  0  0  0  0  0  0
    0.5212   -2.1425   -0.8326 C   0  0  0  0  0  0  0  0  0  0  0  0
    1.8590   -2.3090   -1.2381 C   0  0  0  0  0  0  0  0  0  0  0  0
    2.4167   -1.4690   -1.6275 H   0  0  0  0  0  0  0  0  0  0  0  0
    2.4788   -3.5674   -1.1273 C   0  0  0  0  0  0  0  0  0  0  0  0
    3.5053   -3.6936   -1.4417 H   0  0  0  0  0  0  0  0  0  0  0  0
    1.7634   -4.6603   -0.6094 C   0  0  0  0  0  0  0  0  0  0  0  0
    2.2388   -5.6276   -0.5264 H   0  0  0  0  0  0  0  0  0  0  0  0
    0.4259   -4.4978   -0.2046 C   0  0  0  0  0  0  0  0  0  0  0  0
   -0.1258   -5.3390    0.1885 H   0  0  0  0  0  0  0  0  0  0  0  0
   -0.1942   -3.2409   -0.3186 C   0  0  0  0  0  0  0  0  0  0  0  0
   -1.2242   -3.1179   -0.0099 H   0  0  0  0  0  0  0  0  0  0  0  0
   -1.2168    1.1047    0.4313 C   0  0  0  0  0  0  0  0  0  0  0  0
   -2.0890    1.6186   -0.2704 O   0  0  0  0  0  0  0  0  0  0  0  0
   -0.4674    1.8182    1.2813 N   0  0  0  0  0  0  0  0  0  0  0  0
    0.2640    1.3348    1.7800 H   0  0  0  0  0  0  0  0  0  0  0  0
   -0.5889    3.2615    1.4722 C   0  0  0  0  0  0  0  0  0  0  0  0
   -1.6291    3.5206    1.6805 H   0  0  0  0  0  0  0  0  0  0  0  0
    0.0359    3.5855    2.3049 H   0  0  0  0  0  0  0  0  0  0  0  0
   -0.2760    3.7797    0.5637 H   0  0  0  0  0  0  0  0  0  0  0  0
  5  6  2  0  0  0  0
  5  7  1  0  0  0  0
  2  3  1  0  0  0  0
  2  4  1  0  0  0  0
  2  5  1  0  0  0  0
  1  2  1  0  0  0  0
 25 26  2  0  0  0  0
 25 27  1  0  0  0  0
 23 24  1  0  0  0  0
 21 22  1  0  0  0  0
 21 23  2  0  0  0  0
 19 20  1  0  0  0  0
 19 21  1  0  0  0  0
 17 18  1  0  0  0  0
 17 19  2  0  0  0  0
 15 16  1  0  0  0  0
 15 17  1  0  0  0  0
 14 15  2  0  0  0  0
 14 23  1  0  0  0  0
 11 12  1  0  0  0  0
 11 13  1  0  0  0  0
 11 14  1  0  0  0  0
  9 10  1  0  0  0  0
  9 11  1  0  0  0  0
  9 25  1  0  0  0  0
  7  8  1  0  0  0  0
  7  9  1  0  0  0  0
 29 30  1  0  0  0  0
 29 31  1  0  0  0  0
 29 32  1  0  0  0  0
 27 28  1  0  0  0  0
 27 29  1  0  0  0  0
M  END
$$$$
default_name
  -OEChem-02102213163D

 32 32  0     1  0  0  0  0  0999 V2000
   -3.8405   -3.7518    1.6252 H   0  0  0  0  0  0  0  0  0  0  0  0
   -3.7965   -2.8768    0.9782 C   0  0  0  0  0  0  0  0  0  0  0  0
   -4.5465   -2.1527    1.2902 H   0  0  0  0  0  0  0  0  0  0  0  0
   -3.9745   -3.1748   -0.0538 H   0  0  0  0  0  0  0  0  0  0  0  0
   -2.4245   -2.2537    1.0882 C   0  0  0  0  0  0  0  0  0  0  0  0
   -1.5805   -2.7478    1.8242 O   0  0  0  0  0  0  0  0  0  0  0  0
   -2.2045   -1.1637    0.3562 N   0  0  0  0  0  0  0  0  0  0  0  0
   -2.9595   -0.7907   -0.2008 H   0  0  0  0  0  0  0  0  0  0  0  0
   -0.9485   -0.4087    0.3482 C   0  0  1  0  0  0  0  0  0  0  0  0
   -0.3666   -0.6914    1.2269 H   0  0  0  0  0  0  0  0  0  0  0  0
   -0.1405   -0.7797   -0.9072 C   0  0  0  0  0  0  0  0  0  0  0  0
   -0.8053   -0.7736   -1.7721 H   0  0  0  0  0  0  0  0  0  0  0  0
    0.6222   -0.0178   -1.0749 H   0  0  0  0  0  0  0  0  0  0  0  0
    0.5212   -2.1425   -0.8326 C   0  0  0  0  0  0  0  0  0  0  0  0
    1.9205   -2.2624   -0.9308 C   0  0  0  0  0  0  0  0  0  0  0  0
    2.5311   -1.3836   -1.0832 H   0  0  0  0  0  0  0  0  0  0  0  0
    2.5303   -3.5255   -0.8194 C   0  0  0  0  0  0  0  0  0  0  0  0
    3.6047   -3.6156   -0.8977 H   0  0  0  0  0  0  0  0  0  0  0  0
    1.7430   -4.6701   -0.6077 C   0  0  0  0  0  0  0  0  0  0  0  0
    2.2114   -5.6409   -0.5244 H   0  0  0  0  0  0  0  0  0  0  0  0
    0.3444   -4.5541   -0.5105 C   0  0  0  0  0  0  0  0  0  0  0  0
   -0.2613   -5.4345   -0.3533 H   0  0  0  0  0  0  0  0  0  0  0  0
   -0.2650   -3.2920   -0.6253 C   0  0  0  0  0  0  0  0  0  0  0  0
   -1.3413   -3.2045   -0.5537 H   0  0  0  0  0  0  0  0  0  0  0  0
   -1.2168    1.1047    0.4313 C   0  0  0  0  0  0  0  0  0  0  0  0
   -2.0890    1.6186   -0.2704 O   0  0  0  0  0  0  0  0  0  0  0  0
   -0.4674    1.8182    1.2813 N   0  0  0  0  0  0  0  0  0  0  0  0
    0.2640    1.3348    1.7800 H   0  0  0  0  0  0  0  0  0  0  0  0
   -0.5889    3.2615    1.4722 C   0  0  0  0  0  0  0  0  0  0  0  0
   -1.6291    3.5206    1.6805 H   0  0  0  0  0  0  0  0  0  0  0  0
    0.0359    3.5855    2.3049 H   0  0  0  0  0  0  0  0  0  0  0  0
   -0.2760    3.7797    0.5637 H   0  0  0  0  0  0  0  0  0  0  0  0
  5  6  2  0  0  0  0
  5  7  1  0  0  0  0
  2  3  1  0  0  0  0
  2  4  1  0  0  0  0
  2  5  1  0  0  0  0
  1  2  1  0  0  0  0
 25 26  2  0  0  0  0
 25 27  1  0  0  0  0
 23 24  1  0  0  0  0
 21 22  1  0  0  0  0
 21 23  2  0  0  0  0
 19 20  1  0  0  0  0
 19 21  1  0  0  0  0
 17 18  1  0  0  0  0
 17 19  2  0  0  0  0
 15 16  1  0  0  0  0
 15 17  1  0  0  0  0
 14 15  2  0  0  0  0
 14 23  1  0  0  0  0
 11 12  1  0  0  0  0
 11 13  1  0  0  0  0
 11 14  1  0  0  0  0
  9 10  1  0  0  0  0
  9 11  1  0  0  0  0
  9 25  1  0  0  0  0
  7  8  1  0  0  0  0
  7  9  1  0  0  0  0
 29 30  1  0  0  0  0
 29 31  1  0  0  0  0
 29 32  1  0  0  0  0
 27 28  1  0  0  0  0
 27 29  1  0  0  0  0
M  END
$$$$
default_name
  -OEChem-02102213163D

 32 32  0     1  0  0  0  0  0999 V2000
   -3.8405   -3.7518    1.6252 H   0  0  0  0  0  0  0  0  0  0  0  0
   -3.7965   -2.8768    0.9782 C   0  0  0  0  0  0  0  0  0  0  0  0
   -4.5465   -2.1527    1.2902 H   0  0  0  0  0  0  0  0  0  0  0  0
   -3.9745   -3.1748   -0.0538 H   0  0  0  0  0  0  0  0  0  0  0  0
   -2.4245   -2.2537    1.0882 C   0  0  0  0  0  0  0  0  0  0  0  0
   -1.5805   -2.7478    1.8242 O   0  0  0  0  0  0  0  0  0  0  0  0
   -2.2045   -1.1637    0.3562 N   0  0  0  0  0  0  0  0  0  0  0  0
   -2.9595   -0.7907   -0.2008 H   0  0  0  0  0  0  0  0  0  0  0  0
   -0.9485   -0.4087    0.3482 C   0  0  1  0  0  0  0  0  0  0  0  0
   -0.3666   -0.6914    1.2269 H   0  0  0  0  0  0  0  0  0  0  0  0
   -0.1405   -0.7797   -0.9072 C   0  0  0  0  0  0  0  0  0  0  0  0
   -0.8053   -0.7736   -1.7721 H   0  0  0  0  0  0  0  0  0  0  0  0
    0.6222   -0.0178   -1.0749 H   0  0  0  0  0  0  0  0  0  0  0  0
    0.5212   -2.1425   -0.8326 C   0  0  0  0  0  0  0  0  0  0  0  0
    1.9078   -2.2512   -0.6144 C   0  0  0  0  0  0  0  0  0  0  0  0
    2.5140   -1.3612   -0.5213 H   0  0  0  0  0  0  0  0  0  0  0  0
    2.5079   -3.5192   -0.5052 C   0  0  0  0  0  0  0  0  0  0  0  0
    3.5731   -3.6004   -0.3403 H   0  0  0  0  0  0  0  0  0  0  0  0
    1.7231   -4.6800   -0.6119 C   0  0  0  0  0  0  0  0  0  0  0  0
    2.1846   -5.6542   -0.5304 H   0  0  0  0  0  0  0  0  0  0  0  0
    0.3376   -4.5750   -0.8314 C   0  0  0  0  0  0  0  0  0  0  0  0
   -0.2649   -5.4672   -0.9189 H   0  0  0  0  0  0  0  0  0  0  0  0
   -0.2614   -3.3077   -0.9438 C   0  0  0  0  0  0  0  0  0  0  0  0
   -1.3269   -3.2283   -1.1160 H   0  0  0  0  0  0  0  0  0  0  0  0
   -1.2168    1.1047    0.4313 C   0  0  0  0  0  0  0  0  0  0  0  0
   -2.0890    1.6186   -0.2704 O   0  0  0  0  0  0  0  0  0  0  0  0
   -0.4674    1.8182    1.2813 N   0  0  0  0  0  0  0  0  0  0  0  0
    0.2640    1.3348    1.7800 H   0  0  0  0  0  0  0  0  0  0  0  0
   -0.5889    3.2615    1.4722 C   0  0  0  0  0  0  0  0  0  0  0  0
   -1.6291    3.5206    1.6805 H   0  0  0  0  0  0  0  0  0  0  0  0
    0.0359    3.5855    2.3049 H   0  0  0  0  0  0  0  0  0  0  0  0
   -0.2760    3.7797    0.5637 H   0  0  0  0  0  0  0  0  0  0  0  0
  5  6  2  0  0  0  0
  5  7  1  0  0  0  0
  2  3  1  0  0  0  0
  2  4  1  0  0  0  0
  2  5  1  0  0  0  0
  1  2  1  0  0  0  0
 25 26  2  0  0  0  0
 25 27  1  0  0  0  0
 23 24  1  0  0  0  0
 21 22  1  0  0  0  0
 21 23  2  0  0  0  0
 19 20  1  0  0  0  0
 19 21  1  0  0  0  0
 17 18  1  0  0  0  0
 17 19  2  0  0  0  0
 15 16  1  0  0  0  0
 15 17  1  0  0  0  0
 14 15  2  0  0  0  0
 14 23  1  0  0  0  0
 11 12  1  0  0  0  0
 11 13  1  0  0  0  0
 11 14  1  0  0  0  0
  9 10  1  0  0  0  0
  9 11  1  0  0  0  0
  9 25  1  0  0  0  0
  7  8  1  0  0  0  0
  7  9  1  0  0  0  0
 29 30  1  0  0  0  0
 29 31  1  0  0  0  0
 29 32  1  0  0  0  0
 27 28  1  0  0  0  0
 27 29  1  0  0  0  0
M  END
$$$$
default_name
  -OEChem-02102213163D

 32 32  0     1  0  0  0  0  0999 V2000
   -3.8405   -3.7518    1.6252 H   0  0  0  0  0  0  0  0  0  0  0  0
   -3.7965   -2.8768    0.9782 C   0  0  0  0  0  0  0  0  0  0  0  0
   -4.5465   -2.1527    1.2902 H   0  0  0  0  0  0  0  0  0  0  0  0
   -3.9745   -3.1748   -0.0538 H   0  0  0  0  0  0  0  0  0  0  0  0
   -2.4245   -2.2537    1.0882 C   0  0  0  0  0  0  0  0  0  0  0  0
   -1.5805   -2.7478    1.8242 O   0  0  0  0  0  0  0  0  0  0  0  0
   -2.2045   -1.1637    0.3562 N   0  0  0  0  0  0  0  0  0  0  0  0
   -2.9595   -0.7907   -0.2008 H   0  0  0  0  0  0  0  0  0  0  0  0
   -0.9485   -0.4087    0.3482 C   0  0  1  0  0  0  0  0  0  0  0  0
   -0.3666   -0.6914    1.2269 H   0  0  0  0  0  0  0  0  0  0  0  0
   -0.1405   -0.7797   -0.9072 C   0  0  0  0  0  0  0  0  0  0  0  0
   -0.8053   -0.7736   -1.7721 H   0  0  0  0  0  0  0  0  0  0  0  0
    0.6222   -0.0178   -1.0749 H   0  0  0  0  0  0  0  0  0  0  0  0
    0.5212   -2.1425   -0.8326 C   0  0  0  0  0  0  0  0  0  0  0  0
    1.8218   -2.2763   -0.3105 C   0  0  0  0  0  0  0  0  0  0  0  0
    2.3664   -1.4032    0.0200 H   0  0  0  0  0  0  0  0  0  0  0  0
    2.4131   -3.5489   -0.2063 C   0  0  0  0  0  0  0  0  0  0  0  0
    3.4128   -3.6491    0.1925 H   0  0  0  0  0  0  0  0  0  0  0  0
    1.7050   -4.6893   -0.6217 C   0  0  0  0  0  0  0  0  0  0  0  0
    2.1603   -5.6668   -0.5438 H   0  0  0  0  0  0  0  0  0  0  0  0
    0.4058   -4.5590   -1.1453 C   0  0  0  0  0  0  0  0  0  0  0  0
   -0.1365   -5.4350   -1.4697 H   0  0  0  0  0  0  0  0  0  0  0  0
   -0.1836   -3.2868   -1.2524 C   0  0  0  0  0  0  0  0  0  0  0  0
   -1.1819   -3.1876   -1.6584 H   0  0  0  0  0  0  0  0  0  0  0  0
   -1.2168    1.1047    0.4313 C   0  0  0  0  0  0  0  0  0  0  0  0
   -2.0890    1.6186   -0.2704 O   0  0  0  0  0  0  0  0  0  0  0  0
   -0.4674    1.8182    1.2813 N   0  0  0  0  0  0  0  0  0  0  0  0
    0.2640    1.3348    1.7800 H   0  0  0  0  0  0  0  0  0  0  0  0
   -0.5889    3.2615    1.4722 C   0  0  0  0  0  0  0  0  0  0  0  0
   -1.6291    3.5206    1.6805 H   0  0  0  0  0  0  0  0  0  0  0  0
    0.0359    3.5855    2.3049 H   0  0  0  0  0  0  0  0  0  0  0  0
   -0.2760    3.7797    0.5637 H   0  0  0  0  0  0  0  0  0  0  0  0
  5  6  2  0  0  0  0
  5  7  1  0  0  0  0
  2  3  1  0  0  0  0
  2  4  1  0  0  0  0
  2  5  1  0  0  0  0
  1  2  1  0  0  0  0
 25 26  2  0  0  0  0
 25 27  1  0  0  0  0
 23 24  1  0  0  0  0
 21 22  1  0  0  0  0
 21 23  2  0  0  0  0
 19 20  1  0  0  0  0
 19 21  1  0  0  0  0
 17 18  1  0  0  0  0
 17 19  2  0  0  0  0
 15 16  1  0  0  0  0
 15 17  1  0  0  0  0
 14 15  2  0  0  0  0
 14 23  1  0  0  0  0
 11 12  1  0  0  0  0
 11 13  1  0  0  0  0
 11 14  1  0  0  0  0
  9 10  1  0  0  0  0
  9 11  1  0  0  0  0
  9 25  1  0  0  0  0
  7  8  1  0  0  0  0
  7  9  1  0  0  0  0
 29 30  1  0  0  0  0
 29 31  1  0  0  0  0
 29 32  1  0  0  0  0
 27 28  1  0  0  0  0
 27 29  1  0  0  0  0
M  END
$$$$
default_name
  -OEChem-02102213163D

 32 32  0     1  0  0  0  0  0999 V2000
   -3.8405   -3.7518    1.6252 H   0  0  0  0  0  0  0  0  0  0  0  0
   -3.7965   -2.8768    0.9782 C   0  0  0  0  0  0  0  0  0  0  0  0
   -4.5465   -2.1527    1.2902 H   0  0  0  0  0  0  0  0  0  0  0  0
   -3.9745   -3.1748   -0.0538 H   0  0  0  0  0  0  0  0  0  0  0  0
   -2.4245   -2.2537    1.0882 C   0  0  0  0  0  0  0  0  0  0  0  0
   -1.5805   -2.7478    1.8242 O   0  0  0  0  0  0  0  0  0  0  0  0
   -2.2045   -1.1637    0.3562 N   0  0  0  0  0  0  0  0  0  0  0  0
   -2.9595   -0.7907   -0.2008 H   0  0  0  0  0  0  0  0  0  0  0  0
   -0.9485   -0.4087    0.3482 C   0  0  1  0  0  0  0  0  0  0  0  0
   -0.3666   -0.6914    1.2269 H   0  0  0  0  0  0  0  0  0  0  0  0
   -0.1405   -0.7797   -0.9072 C   0  0  0  0  0  0  0  0  0  0  0  0
   -0.8053   -0.7736   -1.7721 H   0  0  0  0  0  0  0  0  0  0  0  0
    0.6222   -0.0178   -1.0749 H   0  0  0  0  0  0  0  0  0  0  0  0
    0.5212   -2.1425   -0.8326 C   0  0  0  0  0  0  0  0  0  0  0  0
    1.6684   -2.3360   -0.0398 C   0  0  0  0  0  0  0  0  0  0  0  0
    2.0986   -1.5067    0.5038 H   0  0  0  0  0  0  0  0  0  0  0  0
    2.2524   -3.6125    0.0571 C   0  0  0  0  0  0  0  0  0  0  0  0
    3.1347   -3.7583    0.6643 H   0  0  0  0  0  0  0  0  0  0  0  0
    1.6899   -4.6975   -0.6365 C   0  0  0  0  0  0  0  0  0  0  0  0
    2.1400   -5.6777   -0.5639 H   0  0  0  0  0  0  0  0  0  0  0  0
    0.5445   -4.5073   -1.4308 C   0  0  0  0  0  0  0  0  0  0  0  0
    0.1152   -5.3401   -1.9683 H   0  0  0  0  0  0  0  0  0  0  0  0
   -0.0370   -3.2308   -1.5300 C   0  0  0  0  0  0  0  0  0  0  0  0
   -0.9162   -3.0851   -2.1440 H   0  0  0  0  0  0  0  0  0  0  0  0
   -1.2168    1.1047    0.4313 C   0  0  0  0  0  0  0  0  0  0  0  0
   -2.0890    1.6186   -0.2704 O   0  0  0  0  0  0  0  0  0  0  0  0
   -0.4674    1.8182    1.2813 N   0  0  0  0  0  0  0  0  0  0  0  0
    0.2640    1.3348    1.7800 H   0  0  0  0  0  0  0  0  0  0  0  0
   -0.5889    3.2615    1.4722 C   0  0  0  0  0  0  0  0  0  0  0  0
   -1.6291    3.5206    1.6805 H   0  0  0  0  0  0  0  0  0  0  0  0
    0.0359    3.5855    2.3049 H   0  0  0  0  0  0  0  0  0  0  0  0
   -0.2760    3.7797    0.5637 H   0  0  0  0  0  0  0  0  0  0  0  0
  5  6  2  0  0  0  0
  5  7  1  0  0  0  0
  2  3  1  0  0  0  0
  2  4  1  0  0  0  0
  2  5  1  0  0  0  0
  1  2  1  0  0  0  0
 25 26  2  0  0  0  0
 25 27  1  0  0  0  0
 23 24  1  0  0  0  0
 21 22  1  0  0  0  0
 21 23  2  0  0  0  0
 19 20  1  0  0  0  0
 19 21  1  0  0  0  0
 17 18  1  0  0  0  0
 17 19  2  0  0  0  0
 15 16  1  0  0  0  0
 15 17  1  0  0  0  0
 14 15  2  0  0  0  0
 14 23  1  0  0  0  0
 11 12  1  0  0  0  0
 11 13  1  0  0  0  0
 11 14  1  0  0  0  0
  9 10  1  0  0  0  0
  9 11  1  0  0  0  0
  9 25  1  0  0  0  0
  7  8  1  0  0  0  0
  7  9  1  0  0  0  0
 29 30  1  0  0  0  0
 29 31  1  0  0  0  0
 29 32  1  0  0  0  0
 27 28  1  0  0  0  0
 27 29  1  0  0  0  0
M  END
$$$$
default_name
  -OEChem-02102213163D

 32 32  0     1  0  0  0  0  0999 V2000
   -3.8405   -3.7518    1.6252 H   0  0  0  0  0  0  0  0  0  0  0  0
   -3.7965   -2.8768    0.9782 C   0  0  0  0  0  0  0  0  0  0  0  0
   -4.5465   -2.1527    1.2902 H   0  0  0  0  0  0  0  0  0  0  0  0
   -3.9745   -3.1748   -0.0538 H   0  0  0  0  0  0  0  0  0  0  0  0
   -2.4245   -2.2537    1.0882 C   0  0  0  0  0  0  0  0  0  0  0  0
   -1.5805   -2.7478    1.8242 O   0  0  0  0  0  0  0  0  0  0  0  0
   -2.2045   -1.1637    0.3562 N   0  0  0  0  0  0  0  0  0  0  0  0
   -2.9595   -0.7907   -0.2008 H   0  0  0  0  0  0  0  0  0  0  0  0
   -0.9485   -0.4087    0.3482 C   0  0  1  0  0  0  0  0  0  0  0  0
   -0.3666   -0.6914    1.2269 H   0  0  0  0  0  0  0  0  0  0  0  0
   -0.1405   -0.7797   -0.9072 C   0  0  0  0  0  0  0  0  0  0  0  0
   -0.8053   -0.7736   -1.7721 H   0  0  0  0  0  0  0  0  0  0  0  0
    0.6222   -0.0178   -1.0749 H   0  0  0  0  0  0  0  0  0  0  0  0
    0.5212   -2.1425   -0.8326 C   0  0  0  0  0  0  0  0  0  0  0  0
    1.4580   -2.4262    0.1793 C   0  0  0  0  0  0  0  0  0  0  0  0
    1.7287   -1.6648    0.8972 H   0  0  0  0  0  0  0  0  0  0  0  0
    2.0368   -3.7057    0.2669 C   0  0  0  0  0  0  0  0  0  0  0  0
    2.7578   -3.9206    1.0431 H   0  0  0  0  0  0  0  0  0  0  0  0
    1.6789   -4.7039   -0.6552 C   0  0  0  0  0  0  0  0  0  0  0  0
    2.1253   -5.6862   -0.5893 H   0  0  0  0  0  0  0  0  0  0  0  0
    0.7442   -4.4233   -1.6685 C   0  0  0  0  0  0  0  0  0  0  0  0
    0.4731   -5.1889   -2.3806 H   0  0  0  0  0  0  0  0  0  0  0  0
    0.1685   -3.1435   -1.7577 C   0  0  0  0  0  0  0  0  0  0  0  0
   -0.5479   -2.9280   -2.5398 H   0  0  0  0  0  0  0  0  0  0  0  0
   -1.2168    1.1047    0.4313 C   0  0  0  0  0  0  0  0  0  0  0  0
   -2.0890    1.6186   -0.2704 O   0  0  0  0  0  0  0  0  0  0  0  0
   -0.4674    1.8182    1.2813 N   0  0  0  0  0  0  0  0  0  0  0  0
    0.2640    1.3348    1.7800 H   0  0  0  0  0  0  0  0  0  0  0  0
   -0.5889    3.2615    1.4722 C   0  0  0  0  0  0  0  0  0  0  0  0
   -1.6291    3.5206    1.6805 H   0  0  0  0  0  0  0  0  0  0  0  0
    0.0359    3.5855    2.3049 H   0  0  0  0  0  0  0  0  0  0  0  0
   -0.2760    3.7797    0.5637 H   0  0  0  0  0  0  0  0  0  0  0  0
  5  6  2  0  0  0  0
  5  7  1  0  0  0  0
  2  3  1  0  0  0  0
  2  4  1  0  0  0  0
  2  5  1  0  0  0  0
  1  2  1  0  0  0  0
 25 26  2  0  0  0  0
 25 27  1  0  0  0  0
 23 24  1  0  0  0  0
 21 22  1  0  0  0  0
 21 23  2  0  0  0  0
 19 20  1  0  0  0  0
 19 21  1  0  0  0  0
 17 18  1  0  0  0  0
 17 19  2  0  0  0  0
 15 16  1  0  0  0  0
 15 17  1  0  0  0  0
 14 15  2  0  0  0  0
 14 23  1  0  0  0  0
 11 12  1  0  0  0  0
 11 13  1  0  0  0  0
 11 14  1  0  0  0  0
  9 10  1  0  0  0  0
  9 11  1  0  0  0  0
  9 25  1  0  0  0  0
  7  8  1  0  0  0  0
  7  9  1  0  0  0  0
 29 30  1  0  0  0  0
 29 31  1  0  0  0  0
 29 32  1  0  0  0  0
 27 28  1  0  0  0  0
 27 29  1  0  0  0  0
M  END
$$$$
default_name
  -OEChem-02102213163D

 32 32  0     1  0  0  0  0  0999 V2000
   -3.8405   -3.7518    1.6252 H   0  0  0  0  0  0  0  0  0  0  0  0
   -3.7965   -2.8768    0.9782 C   0  0  0  0  0  0  0  0  0  0  0  0
   -4.5465   -2.1527    1.2902 H   0  0  0  0  0  0  0  0  0  0  0  0
   -3.9745   -3.1748   -0.0538 H   0  0  0  0  0  0  0  0  0  0  0  0
   -2.4245   -2.2537    1.0882 C   0  0  0  0  0  0  0  0  0  0  0  0
   -1.5805   -2.7478    1.8242 O   0  0  0  0  0  0  0  0  0  0  0  0
   -2.2045   -1.1637    0.3562 N   0  0  0  0  0  0  0  0  0  0  0  0
   -2.9595   -0.7907   -0.2008 H   0  0  0  0  0  0  0  0  0  0  0  0
   -0.9485   -0.4087    0.3482 C   0  0  1  0  0  0  0  0  0  0  0  0
   -0.3666   -0.6914    1.2269 H   0  0  0  0  0  0  0  0  0  0  0  0
   -0.1405   -0.7797   -0.9072 C   0  0  0  0  0  0  0  0  0  0  0  0
   -0.8053   -0.7736   -1.7721 H   0  0  0  0  0  0  0  0  0  0  0  0
    0.6222   -0.0178   -1.0749 H   0  0  0  0  0  0  0  0  0  0  0  0
    0.5212   -2.1425   -0.8326 C   0  0  0  0  0  0  0  0  0  0  0  0
    1.2050   -2.5407    0.3319 C   0  0  0  0  0  0  0  0  0  0  0  0
    1.2820   -1.8666    1.1733 H   0  0  0  0  0  0  0  0  0  0  0  0
    1.7809   -3.8222    0.4089 C   0  0  0  0  0  0  0  0  0  0  0  0
    2.3077   -4.1249    1.3030 H   0  0  0  0  0  0  0  0  0  0  0  0
    1.6726   -4.7081   -0.6765 C   0  0  0  0  0  0  0  0  0  0  0  0
    2.1171   -5.6918   -0.6182 H   0  0  0  0  0  0  0  0  0  0  0  0
    0.9914   -4.3129   -1.8421 C   0  0  0  0  0  0  0  0  0  0  0  0
    0.9128   -4.9917   -2.6786 H   0  0  0  0  0  0  0  0  0  0  0  0
    0.4188   -3.0309   -1.9201 C   0  0  0  0  0  0  0  0  0  0  0  0
   -0.1022   -2.7268   -2.8187 H   0  0  0  0  0  0  0  0  0  0  0  0
   -1.2168    1.1047    0.4313 C   0  0  0  0  0  0  0  0  0  0  0  0
   -2.0890    1.6186   -0.2704 O   0  0  0  0  0  0  0  0  0  0  0  0
   -0.4674    1.8182    1.2813 N   0  0  0  0  0  0  0  0  0  0  0  0
    0.2640    1.3348    1.7800 H   0  0  0  0  0  0  0  0  0  0  0  0
   -0.5889    3.2615    1.4722 C   0  0  0  0  0  0  0  0  0  0  0  0
   -1.6291    3.5206    1.6805 H   0  0  0  0  0  0  0  0  0  0  0  0
    0.0359    3.5855    2.3049 H   0  0  0  0  0  0  0  0  0  0  0  0
   -0.2760    3.7797    0.5637 H   0  0  0  0  0  0  0  0  0  0  0  0
  5  6  2  0  0  0  0
  5  7  1  0  0  0  0
  2  3  1  0  0  0  0
  2  4  1  0  0  0  0
  2  5  1  0  0  0  0
  1  2  1  0  0  0  0
 25 26  2  0  0  0  0
 25 27  1  0  0  0  0
 23 24  1  0  0  0  0
 21 22  1  0  0  0  0
 21 23  2  0  0  0  0
 19 20  1  0  0  0  0
 19 21  1  0  0  0  0
 17 18  1  0  0  0  0
 17 19  2  0  0  0  0
 15 16  1  0  0  0  0
 15 17  1  0  0  0  0
 14 15  2  0  0  0  0
 14 23  1  0  0  0  0
 11 12  1  0  0  0  0
 11 13  1  0  0  0  0
 11 14  1  0  0  0  0
  9 10  1  0  0  0  0
  9 11  1  0  0  0  0
  9 25  1  0  0  0  0
  7  8  1  0  0  0  0
  7  9  1  0  0  0  0
 29 30  1  0  0  0  0
 29 31  1  0  0  0  0
 29 32  1  0  0  0  0
 27 28  1  0  0  0  0
 27 29  1  0  0  0  0
M  END
$$$$
default_name
  -OEChem-02102213163D

 32 32  0     1  0  0  0  0  0999 V2000
   -3.8405   -3.7518    1.6252 H   0  0  0  0  0  0  0  0  0  0  0  0
   -3.7965   -2.8768    0.9782 C   0  0  0  0  0  0  0  0  0  0  0  0
   -4.5465   -2.1527    1.2902 H   0  0  0  0  0  0  0  0  0  0  0  0
   -3.9745   -3.1748   -0.0538 H   0  0  0  0  0  0  0  0  0  0  0  0
   -2.4245   -2.2537    1.0882 C   0  0  0  0  0  0  0  0  0  0  0  0
   -1.5805   -2.7478    1.8242 O   0  0  0  0  0  0  0  0  0  0  0  0
   -2.2045   -1.1637    0.3562 N   0  0  0  0  0  0  0  0  0  0  0  0
   -2.9595   -0.7907   -0.2008 H   0  0  0  0  0  0  0  0  0  0  0  0
   -0.9485   -0.4087    0.3482 C   0  0  1  0  0  0  0  0  0  0  0  0
   -0.3666   -0.6914    1.2269 H   0  0  0  0  0  0  0  0  0  0  0  0
   -0.1405   -0.7797   -0.9072 C   0  0  0  0  0  0  0  0  0  0  0  0
   -0.8053   -0.7736   -1.7721 H   0  0  0  0  0  0  0  0  0  0  0  0
    0.6222   -0.0178   -1.0749 H   0  0  0  0  0  0  0  0  0  0  0  0
    0.5212   -2.1425   -0.8326 C   0  0  0  0  0  0  0  0  0  0  0  0
    0.9266   -2.6717    0.4074 C   0  0  0  0  0  0  0  0  0  0  0  0
    0.7888   -2.0984    1.3133 H   0  0  0  0  0  0  0  0  0  0  0  0
    1.5021   -3.9540    0.4734 C   0  0  0  0  0  0  0  0  0  0  0  0
    1.8150   -4.3574    1.4263 H   0  0  0  0  0  0  0  0  0  0  0  0
    1.6716   -4.7098   -0.6990 C   0  0  0  0  0  0  0  0  0  0  0  0
    2.1160   -5.6940   -0.6486 H   0  0  0  0  0  0  0  0  0  0  0  0
    1.2690   -4.1834   -1.9399 C   0  0  0  0  0  0  0  0  0  0  0  0
    1.4042   -4.7620   -2.8419 H   0  0  0  0  0  0  0  0  0  0  0  0
    0.6969   -2.9005   -2.0060 C   0  0  0  0  0  0  0  0  0  0  0  0
    0.3907   -2.4954   -2.9617 H   0  0  0  0  0  0  0  0  0  0  0  0
   -1.2168    1.1047    0.4313 C   0  0  0  0  0  0  0  0  0  0  0  0
   -2.0890    1.6186   -0.2704 O   0  0  0  0  0  0  0  0  0  0  0  0
   -0.4674    1.8182    1.2813 N   0  0  0  0  0  0  0  0  0  0  0  0
    0.2640    1.3348    1.7800 H   0  0  0  0  0  0  0  0  0  0  0  0
   -0.5889    3.2615    1.4722 C   0  0  0  0  0  0  0  0  0  0  0  0
   -1.6291    3.5206    1.6805 H   0  0  0  0  0  0  0  0  0  0  0  0
    0.0359    3.5855    2.3049 H   0  0  0  0  0  0  0  0  0  0  0  0
   -0.2760    3.7797    0.5637 H   0  0  0  0  0  0  0  0  0  0  0  0
  5  6  2  0  0  0  0
  5  7  1  0  0  0  0
  2  3  1  0  0  0  0
  2  4  1  0  0  0  0
  2  5  1  0  0  0  0
  1  2  1  0  0  0  0
 25 26  2  0  0  0  0
 25 27  1  0  0  0  0
 23 24  1  0  0  0  0
 21 22  1  0  0  0  0
 21 23  2  0  0  0  0
 19 20  1  0  0  0  0
 19 21  1  0  0  0  0
 17 18  1  0  0  0  0
 17 19  2  0  0  0  0
 15 16  1  0  0  0  0
 15 17  1  0  0  0  0
 14 15  2  0  0  0  0
 14 23  1  0  0  0  0
 11 12  1  0  0  0  0
 11 13  1  0  0  0  0
 11 14  1  0  0  0  0
  9 10  1  0  0  0  0
  9 11  1  0  0  0  0
  9 25  1  0  0  0  0
  7  8  1  0  0  0  0
  7  9  1  0  0  0  0
 29 30  1  0  0  0  0
 29 31  1  0  0  0  0
 29 32  1  0  0  0  0
 27 28  1  0  0  0  0
 27 29  1  0  0  0  0
M  END
$$$$
default_name
  -OEChem-02102213163D

 32 32  0     1  0  0  0  0  0999 V2000
   -3.8405   -3.7518    1.6252 H   0  0  0  0  0  0  0  0  0  0  0  0
   -3.7965   -2.8768    0.9782 C   0  0  0  0  0  0  0  0  0  0  0  0
   -4.5465   -2.1527    1.2902 H   0  0  0  0  0  0  0  0  0  0  0  0
   -3.9745   -3.1748   -0.0538 H   0  0  0  0  0  0  0  0  0  0  0  0
   -2.4245   -2.2537    1.0882 C   0  0  0  0  0  0  0  0  0  0  0  0
   -1.5805   -2.7478    1.8242 O   0  0  0  0  0  0  0  0  0  0  0  0
   -2.2045   -1.1637    0.3562 N   0  0  0  0  0  0  0  0  0  0  0  0
   -2.9595   -0.7907   -0.2008 H   0  0  0  0  0  0  0  0  0  0  0  0
   -0.9485   -0.4087    0.3482 C   0  0  1  0  0  0  0  0  0  0  0  0
   -0.3666   -0.6914    1.2269 H   0  0  0  0  0  0  0  0  0  0  0  0
   -0.1405   -0.7797   -0.9072 C   0  0  0  0  0  0  0  0  0  0  0  0
   -0.8053   -0.7736   -1.7721 H   0  0  0  0  0  0  0  0  0  0  0  0
    0.6222   -0.0178   -1.0749 H   0  0  0  0  0  0  0  0  0  0  0  0
    0.5212   -2.1425   -0.8326 C   0  0  0  0  0  0  0  0  0  0  0  0
    0.6418   -2.8104    0.4009 C   0  0  0  0  0  0  0  0  0  0  0  0
    0.2828   -2.3444    1.3077 H   0  0  0  0  0  0  0  0  0  0  0  0
    1.2196   -4.0921    0.4561 C   0  0  0  0  0  0  0  0  0  0  0  0
    1.3135   -4.6021    1.4046 H   0  0  0  0  0  0  0  0  0  0  0  0
    1.6759   -4.7089   -0.7212 C   0  0  0  0  0  0  0  0  0  0  0  0
    2.1220   -5.6927   -0.6785 H   0  0  0  0  0  0  0  0  0  0  0  0
    1.5583   -4.0437   -1.9552 C   0  0  0  0  0  0  0  0  0  0  0  0
    1.9140   -4.5154   -2.8595 H   0  0  0  0  0  0  0  0  0  0  0  0
    0.9838   -2.7614   -2.0096 C   0  0  0  0  0  0  0  0  0  0  0  0
    0.8970   -2.2493   -2.9591 H   0  0  0  0  0  0  0  0  0  0  0  0
   -1.2168    1.1047    0.4313 C   0  0  0  0  0  0  0  0  0  0  0  0
   -2.0890    1.6186   -0.2704 O   0  0  0  0  0  0  0  0  0  0  0  0
   -0.4674    1.8182    1.2813 N   0  0  0  0  0  0  0  0  0  0  0  0
    0.2640    1.3348    1.7800 H   0  0  0  0  0  0  0  0  0  0  0  0
   -0.5889    3.2615    1.4722 C   0  0  0  0  0  0  0  0  0  0  0  0
   -1.6291    3.5206    1.6805 H   0  0  0  0  0  0  0  0  0  0  0  0
    0.0359    3.5855    2.3049 H   0  0  0  0  0  0  0  0  0  0  0  0
   -0.2760    3.7797    0.5637 H   0  0  0  0  0  0  0  0  0  0  0  0
  5  6  2  0  0  0  0
  5  7  1  0  0  0  0
  2  3  1  0  0  0  0
  2  4  1  0  0  0  0
  2  5  1  0  0  0  0
  1  2  1  0  0  0  0
 25 26  2  0  0  0  0
 25 27  1  0  0  0  0
 23 24  1  0  0  0  0
 21 22  1  0  0  0  0
 21 23  2  0  0  0  0
 19 20  1  0  0  0  0
 19 21  1  0  0  0  0
 17 18  1  0  0  0  0
 17 19  2  0  0  0  0
 15 16  1  0  0  0  0
 15 17  1  0  0  0  0
 14 15  2  0  0  0  0
 14 23  1  0  0  0  0
 11 12  1  0  0  0  0
 11 13  1  0  0  0  0
 11 14  1  0  0  0  0
  9 10  1  0  0  0  0
  9 11  1  0  0  0  0
  9 25  1  0  0  0  0
  7  8  1  0  0  0  0
  7  9  1  0  0  0  0
 29 30  1  0  0  0  0
 29 31  1  0  0  0  0
 29 32  1  0  0  0  0
 27 28  1  0  0  0  0
 27 29  1  0  0  0  0
M  END
$$$$
default_name
  -OEChem-02102213163D

 32 32  0     1  0  0  0  0  0999 V2000
   -3.8405   -3.7518    1.6252 H   0  0  0  0  0  0  0  0  0  0  0  0
   -3.7965   -2.8768    0.9782 C   0  0  0  0  0  0  0  0  0  0  0  0
   -4.5465   -2.1527    1.2902 H   0  0  0  0  0  0  0  0  0  0  0  0
   -3.9745   -3.1748   -0.0538 H   0  0  0  0  0  0  0  0  0  0  0  0
   -2.4245   -2.2537    1.0882 C   0  0  0  0  0  0  0  0  0  0  0  0
   -1.5805   -2.7478    1.8242 O   0  0  0  0  0  0  0  0  0  0  0  0
   -2.2045   -1.1637    0.3562 N   0  0  0  0  0  0  0  0  0  0  0  0
   -2.9595   -0.7907   -0.2008 H   0  0  0  0  0  0  0  0  0  0  0  0
   -0.9485   -0.4087    0.3482 C   0  0  1  0  0  0  0  0  0  0  0  0
   -0.3666   -0.6914    1.2269 H   0  0  0  0  0  0  0  0  0  0  0  0
   -0.1405   -0.7797   -0.9072 C   0  0  0  0  0  0  0  0  0  0  0  0
   -0.8053   -0.7736   -1.7721 H   0  0  0  0  0  0  0  0  0  0  0  0
    0.6222   -0.0178   -1.0749 H   0  0  0  0  0  0  0  0  0  0  0  0
    0.5212   -2.1425   -0.8326 C   0  0  0  0  0  0  0  0  0  0  0  0
    0.3699   -2.9472    0.3127 C   0  0  0  0  0  0  0  0  0  0  0  0
   -0.2015   -2.5878    1.1569 H   0  0  0  0  0  0  0  0  0  0  0  0
    0.9525   -4.2272    0.3580 C   0  0  0  0  0  0  0  0  0  0  0  0
    0.8372   -4.8424    1.2393 H   0  0  0  0  0  0  0  0  0  0  0  0
    1.6852   -4.7055   -0.7416 C   0  0  0  0  0  0  0  0  0  0  0  0
    2.1347   -5.6880   -0.7058 H   0  0  0  0  0  0  0  0  0  0  0  0
    1.8396   -3.9035   -1.8869 C   0  0  0  0  0  0  0  0  0  0  0  0
    2.4073   -4.2688   -2.7300 H   0  0  0  0  0  0  0  0  0  0  0  0
    1.2601   -2.6230   -1.9306 C   0  0  0  0  0  0  0  0  0  0  0  0
    1.3824   -2.0056   -2.8110 H   0  0  0  0  0  0  0  0  0  0  0  0
   -1.2168    1.1047    0.4313 C   0  0  0  0  0  0  0  0  0  0  0  0
   -2.0890    1.6186   -0.2704 O   0  0  0  0  0  0  0  0  0  0  0  0
   -0.4674    1.8182    1.2813 N   0  0  0  0  0  0  0  0  0  0  0  0
    0.2640    1.3348    1.7800 H   0  0  0  0  0  0  0  0  0  0  0  0
   -0.5889    3.2615    1.4722 C   0  0  0  0  0  0  0  0  0  0  0  0
   -1.6291    3.5206    1.6805 H   0  0  0  0  0  0  0  0  0  0  0  0
    0.0359    3.5855    2.3049 H   0  0  0  0  0  0  0  0  0  0  0  0
   -0.2760    3.7797    0.5637 H   0  0  0  0  0  0  0  0  0  0  0  0
  5  6  2  0  0  0  0
  5  7  1  0  0  0  0
  2  3  1  0  0  0  0
  2  4  1  0  0  0  0
  2  5  1  0  0  0  0
  1  2  1  0  0  0  0
 25 26  2  0  0  0  0
 25 27  1  0  0  0  0
 23 24  1  0  0  0  0
 21 22  1  0  0  0  0
 21 23  2  0  0  0  0
 19 20  1  0  0  0  0
 19 21  1  0  0  0  0
 17 18  1  0  0  0  0
 17 19  2  0  0  0  0
 15 16  1  0  0  0  0
 15 17  1  0  0  0  0
 14 15  2  0  0  0  0
 14 23  1  0  0  0  0
 11 12  1  0  0  0  0
 11 13  1  0  0  0  0
 11 14  1  0  0  0  0
  9 10  1  0  0  0  0
  9 11  1  0  0  0  0
  9 25  1  0  0  0  0
  7  8  1  0  0  0  0
  7  9  1  0  0  0  0
 29 30  1  0  0  0  0
 29 31  1  0  0  0  0
 29 32  1  0  0  0  0
 27 28  1  0  0  0  0
 27 29  1  0  0  0  0
M  END
$$$$
default_name
  -OEChem-02102213163D

 32 32  0     1  0  0  0  0  0999 V2000
   -3.8405   -3.7518    1.6252 H   0  0  0  0  0  0  0  0  0  0  0  0
   -3.7965   -2.8768    0.9782 C   0  0  0  0  0  0  0  0  0  0  0  0
   -4.5465   -2.1527    1.2902 H   0  0  0  0  0  0  0  0  0  0  0  0
   -3.9745   -3.1748   -0.0538 H   0  0  0  0  0  0  0  0  0  0  0  0
   -2.4245   -2.2537    1.0882 C   0  0  0  0  0  0  0  0  0  0  0  0
   -1.5805   -2.7478    1.8242 O   0  0  0  0  0  0  0  0  0  0  0  0
   -2.2045   -1.1637    0.3562 N   0  0  0  0  0  0  0  0  0  0  0  0
   -2.9595   -0.7907   -0.2008 H   0  0  0  0  0  0  0  0  0  0  0  0
   -0.9485   -0.4087    0.3482 C   0  0  1  0  0  0  0  0  0  0  0  0
   -0.3666   -0.6914    1.2269 H   0  0  0  0  0  0  0  0  0  0  0  0
   -0.1405   -0.7797   -0.9072 C   0  0  0  0  0  0  0  0  0  0  0  0
   -0.8053   -0.7736   -1.7721 H   0  0  0  0  0  0  0  0  0  0  0  0
    0.6222   -0.0178   -1.0749 H   0  0  0  0  0  0  0  0  0  0  0  0
    0.5212   -2.1425   -0.8326 C   0  0  0  0  0  0  0  0  0  0  0  0
    0.1296   -3.0728    0.1488 C   0  0  0  0  0  0  0  0  0  0  0  0
   -0.6311   -2.8121    0.8711 H   0  0  0  0  0  0  0  0  0  0  0  0
    0.7190   -4.3500    0.1858 C   0  0  0  0  0  0  0  0  0  0  0  0
    0.4186   -5.0619    0.9418 H   0  0  0  0  0  0  0  0  0  0  0  0
    1.6988   -4.6998   -0.7587 C   0  0  0  0  0  0  0  0  0  0  0  0
    2.1533   -5.6803   -0.7287 H   0  0  0  0  0  0  0  0  0  0  0  0
    2.0935   -3.7721   -1.7397 C   0  0  0  0  0  0  0  0  0  0  0  0
    2.8506   -4.0389   -2.4625 H   0  0  0  0  0  0  0  0  0  0  0  0
    1.5067   -2.4946   -1.7744 C   0  0  0  0  0  0  0  0  0  0  0  0
    1.8137   -1.7806   -2.5276 H   0  0  0  0  0  0  0  0  0  0  0  0
   -1.2168    1.1047    0.4313 C   0  0  0  0  0  0  0  0  0  0  0  0
   -2.0890    1.6186   -0.2704 O   0  0  0  0  0  0  0  0  0  0  0  0
   -0.4674    1.8182    1.2813 N   0  0  0  0  0  0  0  0  0  0  0  0
    0.2640    1.3348    1.7800 H   0  0  0  0  0  0  0  0  0  0  0  0
   -0.5889    3.2615    1.4722 C   0  0  0  0  0  0  0  0  0  0  0  0
   -1.6291    3.5206    1.6805 H   0  0  0  0  0  0  0  0  0  0  0  0
    0.0359    3.5855    2.3049 H   0  0  0  0  0  0  0  0  0  0  0  0
   -0.2760    3.7797    0.5637 H   0  0  0  0  0  0  0  0  0  0  0  0
  5  6  2  0  0  0  0
  5  7  1  0  0  0  0
  2  3  1  0  0  0  0
  2  4  1  0  0  0  0
  2  5  1  0  0  0  0
  1  2  1  0  0  0  0
 25 26  2  0  0  0  0
 25 27  1  0  0  0  0
 23 24  1  0  0  0  0
 21 22  1  0  0  0  0
 21 23  2  0  0  0  0
 19 20  1  0  0  0  0
 19 21  1  0  0  0  0
 17 18  1  0  0  0  0
 17 19  2  0  0  0  0
 15 16  1  0  0  0  0
 15 17  1  0  0  0  0
 14 15  2  0  0  0  0
 14 23  1  0  0  0  0
 11 12  1  0  0  0  0
 11 13  1  0  0  0  0
 11 14  1  0  0  0  0
  9 10  1  0  0  0  0
  9 11  1  0  0  0  0
  9 25  1  0  0  0  0
  7  8  1  0  0  0  0
  7  9  1  0  0  0  0
 29 30  1  0  0  0  0
 29 31  1  0  0  0  0
 29 32  1  0  0  0  0
 27 28  1  0  0  0  0
 27 29  1  0  0  0  0
M  END
$$$$
default_name
  -OEChem-02102213163D

 32 32  0     1  0  0  0  0  0999 V2000
   -3.8405   -3.7518    1.6252 H   0  0  0  0  0  0  0  0  0  0  0  0
   -3.7965   -2.8768    0.9782 C   0  0  0  0  0  0  0  0  0  0  0  0
   -4.5465   -2.1527    1.2902 H   0  0  0  0  0  0  0  0  0  0  0  0
   -3.9745   -3.1748   -0.0538 H   0  0  0  0  0  0  0  0  0  0  0  0
   -2.4245   -2.2537    1.0882 C   0  0  0  0  0  0  0  0  0  0  0  0
   -1.5805   -2.7478    1.8242 O   0  0  0  0  0  0  0  0  0  0  0  0
   -2.2045   -1.1637    0.3562 N   0  0  0  0  0  0  0  0  0  0  0  0
   -2.9595   -0.7907   -0.2008 H   0  0  0  0  0  0  0  0  0  0  0  0
   -0.9485   -0.4087    0.3482 C   0  0  1  0  0  0  0  0  0  0  0  0
   -0.3666   -0.6914    1.2269 H   0  0  0  0  0  0  0  0  0  0  0  0
   -0.1405   -0.7797   -0.9072 C   0  0  0  0  0  0  0  0  0  0  0  0
   -0.8053   -0.7736   -1.7721 H   0  0  0  0  0  0  0  0  0  0  0  0
    0.6222   -0.0178   -1.0749 H   0  0  0  0  0  0  0  0  0  0  0  0
    0.5212   -2.1425   -0.8326 C   0  0  0  0  0  0  0  0  0  0  0  0
   -0.0628   -3.1788   -0.0795 C   0  0  0  0  0  0  0  0  0  0  0  0
   -0.9767   -3.0019    0.4698 H   0  0  0  0  0  0  0  0  0  0  0  0
    0.5350   -4.4522   -0.0486 C   0  0  0  0  0  0  0  0  0  0  0  0
    0.0863   -5.2457    0.5323 H   0  0  0  0  0  0  0  0  0  0  0  0
    1.7159   -4.6922   -0.7714 C   0  0  0  0  0  0  0  0  0  0  0  0
    2.1765   -5.6699   -0.7457 H   0  0  0  0  0  0  0  0  0  0  0  0
    2.3030   -3.6586   -1.5237 C   0  0  0  0  0  0  0  0  0  0  0  0
    3.2136   -3.8414   -2.0749 H   0  0  0  0  0  0  0  0  0  0  0  0
    1.7071   -2.3852   -1.5517 C   0  0  0  0  0  0  0  0  0  0  0  0
    2.1615   -1.5899   -2.1282 H   0  0  0  0  0  0  0  0  0  0  0  0
   -1.2168    1.1047    0.4313 C   0  0  0  0  0  0  0  0  0  0  0  0
   -2.0890    1.6186   -0.2704 O   0  0  0  0  0  0  0  0  0  0  0  0
   -0.4674    1.8182    1.2813 N   0  0  0  0  0  0  0  0  0  0  0  0
    0.2640    1.3348    1.7800 H   0  0  0  0  0  0  0  0  0  0  0  0
   -0.5889    3.2615    1.4722 C   0  0  0  0  0  0  0  0  0  0  0  0
   -1.6291    3.5206    1.6805 H   0  0  0  0  0  0  0  0  0  0  0  0
    0.0359    3.5855    2.3049 H   0  0  0  0  0  0  0  0  0  0  0  0
   -0.2760    3.7797    0.5637 H   0  0  0  0  0  0  0  0  0  0  0  0
  5  6  2  0  0  0  0
  5  7  1  0  0  0  0
  2  3  1  0  0  0  0
  2  4  1  0  0  0  0
  2  5  1  0  0  0  0
  1  2  1  0  0  0  0
 25 26  2  0  0  0  0
 25 27  1  0  0  0  0
 23 24  1  0  0  0  0
 21 22  1  0  0  0  0
 21 23  2  0  0  0  0
 19 20  1  0  0  0  0
 19 21  1  0  0  0  0
 17 18  1  0  0  0  0
 17 19  2  0  0  0  0
 15 16  1  0  0  0  0
 15 17  1  0  0  0  0
 14 15  2  0  0  0  0
 14 23  1  0  0  0  0
 11 12  1  0  0  0  0
 11 13  1  0  0  0  0
 11 14  1  0  0  0  0
  9 10  1  0  0  0  0
  9 11  1  0  0  0  0
  9 25  1  0  0  0  0
  7  8  1  0  0  0  0
  7  9  1  0  0  0  0
 29 30  1  0  0  0  0
 29 31  1  0  0  0  0
 29 32  1  0  0  0  0
 27 28  1  0  0  0  0
 27 29  1  0  0  0  0
M  END
$$$$
default_name
  -OEChem-02102213163D

 32 32  0     1  0  0  0  0  0999 V2000
   -3.8405   -3.7518    1.6252 H   0  0  0  0  0  0  0  0  0  0  0  0
   -3.7965   -2.8768    0.9782 C   0  0  0  0  0  0  0  0  0  0  0  0
   -4.5465   -2.1527    1.2902 H   0  0  0  0  0  0  0  0  0  0  0  0
   -3.9745   -3.1748   -0.0538 H   0  0  0  0  0  0  0  0  0  0  0  0
   -2.4245   -2.2537    1.0882 C   0  0  0  0  0  0  0  0  0  0  0  0
   -1.5805   -2.7478    1.8242 O   0  0  0  0  0  0  0  0  0  0  0  0
   -2.2045   -1.1637    0.3562 N   0  0  0  0  0  0  0  0  0  0  0  0
   -2.9595   -0.7907   -0.2008 H   0  0  0  0  0  0  0  0  0  0  0  0
   -0.9485   -0.4087    0.3482 C   0  0  1  0  0  0  0  0  0  0  0  0
   -0.3666   -0.6914    1.2269 H   0  0  0  0  0  0  0  0  0  0  0  0
   -0.1405   -0.7797   -0.9072 C   0  0  0  0  0  0  0  0  0  0  0  0
   -0.8053   -0.7736   -1.7721 H   0  0  0  0  0  0  0  0  0  0  0  0
    0.6222   -0.0178   -1.0749 H   0  0  0  0  0  0  0  0  0  0  0  0
    0.5212   -2.1425   -0.8326 C   0  0  0  0  0  0  0  0  0  0  0  0
   -0.1942   -3.2578   -0.3568 C   0  0  0  0  0  0  0  0  0  0  0  0
   -1.2149   -3.1443   -0.0197 H   0  0  0  0  0  0  0  0  0  0  0  0
    0.4131   -4.5267   -0.3293 C   0  0  0  0  0  0  0  0  0  0  0  0
   -0.1371   -5.3812    0.0388 H   0  0  0  0  0  0  0  0  0  0  0  0
    1.7353   -4.6832   -0.7788 C   0  0  0  0  0  0  0  0  0  0  0  0
    2.2027   -5.6577   -0.7555 H   0  0  0  0  0  0  0  0  0  0  0  0
    2.4535   -3.5707   -1.2534 C   0  0  0  0  0  0  0  0  0  0  0  0
    3.4717   -3.6898   -1.5939 H   0  0  0  0  0  0  0  0  0  0  0  0
    1.8474   -2.3020   -1.2777 C   0  0  0  0  0  0  0  0  0  0  0  0
    2.4022   -1.4463   -1.6399 H   0  0  0  0  0  0  0  0  0  0  0  0
   -1.2168    1.1047    0.4313 C   0  0  0  0  0  0  0  0  0  0  0  0
   -2.0890    1.6186   -0.2704 O   0  0  0  0  0  0  0  0  0  0  0  0
   -0.4674    1.8182    1.2813 N   0  0  0  0  0  0  0  0  0  0  0  0
    0.2640    1.3348    1.7800 H   0  0  0  0  0  0  0  0  0  0  0  0
   -0.5889    3.2615    1.4722 C   0  0  0  0  0  0  0  0  0  0  0  0
   -1.6291    3.5206    1.6805 H   0  0  0  0  0  0  0  0  0  0  0  0
    0.0359    3.5855    2.3049 H   0  0  0  0  0  0  0  0  0  0  0  0
   -0.2760    3.7797    0.5637 H   0  0  0  0  0  0  0  0  0  0  0  0
  5  6  2  0  0  0  0
  5  7  1  0  0  0  0
  2  3  1  0  0  0  0
  2  4  1  0  0  0  0
  2  5  1  0  0  0  0
  1  2  1  0  0  0  0
 25 26  2  0  0  0  0
 25 27  1  0  0  0  0
 23 24  1  0  0  0  0
 21 22  1  0  0  0  0
 21 23  2  0  0  0  0
 19 20  1  0  0  0  0
 19 21  1  0  0  0  0
 17 18  1  0  0  0  0
 17 19  2  0  0  0  0
 15 16  1  0  0  0  0
 15 17  1  0  0  0  0
 14 15  2  0  0  0  0
 14 23  1  0  0  0  0
 11 12  1  0  0  0  0
 11 13  1  0  0  0  0
 11 14  1  0  0  0  0
  9 10  1  0  0  0  0
  9 11  1  0  0  0  0
  9 25  1  0  0  0  0
  7  8  1  0  0  0  0
  7  9  1  0  0  0  0
 29 30  1  0  0  0  0
 29 31  1  0  0  0  0
 29 32  1  0  0  0  0
 27 28  1  0  0  0  0
 27 29  1  0  0  0  0
M  END
$$$$
default_name
  -OEChem-02102213163D

 32 32  0     1  0  0  0  0  0999 V2000
   -3.8405   -3.7518    1.6252 H   0  0  0  0  0  0  0  0  0  0  0  0
   -3.7965   -2.8768    0.9782 C   0  0  0  0  0  0  0  0  0  0  0  0
   -4.5465   -2.1527    1.2902 H   0  0  0  0  0  0  0  0  0  0  0  0
   -3.9745   -3.1748   -0.0538 H   0  0  0  0  0  0  0  0  0  0  0  0
   -2.4245   -2.2537    1.0882 C   0  0  0  0  0  0  0  0  0  0  0  0
   -1.5805   -2.7478    1.8242 O   0  0  0  0  0  0  0  0  0  0  0  0
   -2.2045   -1.1637    0.3562 N   0  0  0  0  0  0  0  0  0  0  0  0
   -2.9595   -0.7907   -0.2008 H   0  0  0  0  0  0  0  0  0  0  0  0
   -0.9485   -0.4087    0.3482 C   0  0  1  0  0  0  0  0  0  0  0  0
   -0.3666   -0.6914    1.2269 H   0  0  0  0  0  0  0  0  0  0  0  0
   -0.1405   -0.7797   -0.9072 C   0  0  0  0  0  0  0  0  0  0  0  0
   -0.8053   -0.7736   -1.7721 H   0  0  0  0  0  0  0  0  0  0  0  0
    0.6222   -0.0178   -1.0749 H   0  0  0  0  0  0  0  0  0  0  0  0
    0.5212   -2.1425   -0.8326 C   0  0  0  0  0  0  0  0  0  0  0  0
   -0.2557   -3.3044   -0.6641 C   0  0  0  0  0  0  0  0  0  0  0  0
   -1.3293   -3.2296   -0.5639 H   0  0  0  0  0  0  0  0  0  0  0  0
    0.3617   -4.5686   -0.6373 C   0  0  0  0  0  0  0  0  0  0  0  0
   -0.2365   -5.4592   -0.5052 H   0  0  0  0  0  0  0  0  0  0  0  0
    1.7556   -4.6735   -0.7805 C   0  0  0  0  0  0  0  0  0  0  0  0
    2.2301   -5.6445   -0.7575 H   0  0  0  0  0  0  0  0  0  0  0  0
    2.5351   -3.5143   -0.9475 C   0  0  0  0  0  0  0  0  0  0  0  0
    3.6071   -3.5944   -1.0521 H   0  0  0  0  0  0  0  0  0  0  0  0
    1.9182   -2.2509   -0.9710 C   0  0  0  0  0  0  0  0  0  0  0  0
    2.5193   -1.3597   -1.0961 H   0  0  0  0  0  0  0  0  0  0  0  0
   -1.2168    1.1047    0.4313 C   0  0  0  0  0  0  0  0  0  0  0  0
   -2.0890    1.6186   -0.2704 O   0  0  0  0  0  0  0  0  0  0  0  0
   -0.4674    1.8182    1.2813 N   0  0  0  0  0  0  0  0  0  0  0  0
    0.2640    1.3348    1.7800 H   0  0  0  0  0  0  0  0  0  0  0  0
   -0.5889    3.2615    1.4722 C   0  0  0  0  0  0  0  0  0  0  0  0
   -1.6291    3.5206    1.6805 H   0  0  0  0  0  0  0  0  0  0  0  0
    0.0359    3.5855    2.3049 H   0  0  0  0  0  0  0  0  0  0  0  0
   -0.2760    3.7797    0.5637 H   0  0  0  0  0  0  0  0  0  0  0  0
  5  6  2  0  0  0  0
  5  7  1  0  0  0  0
  2  3  1  0  0  0  0
  2  4  1  0  0  0  0
  2  5  1  0  0  0  0
  1  2  1  0  0  0  0
 25 26  2  0  0  0  0
 25 27  1  0  0  0  0
 23 24  1  0  0  0  0
 21 22  1  0  0  0  0
 21 23  2  0  0  0  0
 19 20  1  0  0  0  0
 19 21  1  0  0  0  0
 17 18  1  0  0  0  0
 17 19  2  0  0  0  0
 15 16  1  0  0  0  0
 15 17  1  0  0  0  0
 14 15  2  0  0  0  0
 14 23  1  0  0  0  0
 11 12  1  0  0  0  0
 11 13  1  0  0  0  0
 11 14  1  0  0  0  0
  9 10  1  0  0  0  0
  9 11  1  0  0  0  0
  9 25  1  0  0  0  0
  7  8  1  0  0  0  0
  7  9  1  0  0  0  0
 29 30  1  0  0  0  0
 29 31  1  0  0  0  0
 29 32  1  0  0  0  0
 27 28  1  0  0  0  0
 27 29  1  0  0  0  0
M  END
$$$$
default_name
  -OEChem-02102213163D

 32 32  0     1  0  0  0  0  0999 V2000
   -3.8405   -3.7518    1.6252 H   0  0  0  0  0  0  0  0  0  0  0  0
   -3.7965   -2.8768    0.9782 C   0  0  0  0  0  0  0  0  0  0  0  0
   -4.5465   -2.1527    1.2902 H   0  0  0  0  0  0  0  0  0  0  0  0
   -3.9745   -3.1748   -0.0538 H   0  0  0  0  0  0  0  0  0  0  0  0
   -2.4245   -2.2537    1.0882 C   0  0  0  0  0  0  0  0  0  0  0  0
   -1.5805   -2.7478    1.8242 O   0  0  0  0  0  0  0  0  0  0  0  0
   -2.2045   -1.1637    0.3562 N   0  0  0  0  0  0  0  0  0  0  0  0
   -2.9595   -0.7907   -0.2008 H   0  0  0  0  0  0  0  0  0  0  0  0
   -0.9485   -0.4087    0.3482 C   0  0  1  0  0  0  0  0  0  0  0  0
   -0.3666   -0.6914    1.2269 H   0  0  0  0  0  0  0  0  0  0  0  0
   -0.1405   -0.7797   -0.9072 C   0  0  0  0  0  0  0  0  0  0  0  0
   -0.8053   -0.7736   -1.7721 H   0  0  0  0  0  0  0  0  0  0  0  0
    0.6222   -0.0178   -1.0749 H   0  0  0  0  0  0  0  0  0  0  0  0
    0.5212   -2.1425   -0.8326 C   0  0  0  0  0  0  0  0  0  0  0  0
   -0.2430   -3.3156   -0.9805 C   0  0  0  0  0  0  0  0  0  0  0  0
   -1.3122   -3.2521   -1.1258 H   0  0  0  0  0  0  0  0  0  0  0  0
    0.3841   -4.5749   -0.9514 C   0  0  0  0  0  0  0  0  0  0  0  0
   -0.2049   -5.4744   -1.0626 H   0  0  0  0  0  0  0  0  0  0  0  0
    1.7755   -4.6636   -0.7763 C   0  0  0  0  0  0  0  0  0  0  0  0
    2.2569   -5.6312   -0.7515 H   0  0  0  0  0  0  0  0  0  0  0  0
    2.5419   -3.4934   -0.6266 C   0  0  0  0  0  0  0  0  0  0  0  0
    3.6108   -3.5617   -0.4866 H   0  0  0  0  0  0  0  0  0  0  0  0
    1.9145   -2.2352   -0.6525 C   0  0  0  0  0  0  0  0  0  0  0  0
    2.5048   -1.3359   -0.5339 H   0  0  0  0  0  0  0  0  0  0  0  0
   -1.2168    1.1047    0.4313 C   0  0  0  0  0  0  0  0  0  0  0  0
   -2.0890    1.6186   -0.2704 O   0  0  0  0  0  0  0  0  0  0  0  0
   -0.4674    1.8182    1.2813 N   0  0  0  0  0  0  0  0  0  0  0  0
    0.2640    1.3348    1.7800 H   0  0  0  0  0  0  0  0  0  0  0  0
   -0.5889    3.2615    1.4722 C   0  0  0  0  0  0  0  0  0  0  0  0
   -1.6291    3.5206    1.6805 H   0  0  0  0  0  0  0  0  0  0  0  0
    0.0359    3.5855    2.3049 H   0  0  0  0  0  0  0  0  0  0  0  0
   -0.2760    3.7797    0.5637 H   0  0  0  0  0  0  0  0  0  0  0  0
  5  6  2  0  0  0  0
  5  7  1  0  0  0  0
  2  3  1  0  0  0  0
  2  4  1  0  0  0  0
  2  5  1  0  0  0  0
  1  2  1  0  0  0  0
 25 26  2  0  0  0  0
 25 27  1  0  0  0  0
 23 24  1  0  0  0  0
 21 22  1  0  0  0  0
 21 23  2  0  0  0  0
 19 20  1  0  0  0  0
 19 21  1  0  0  0  0
 17 18  1  0  0  0  0
 17 19  2  0  0  0  0
 15 16  1  0  0  0  0
 15 17  1  0  0  0  0
 14 15  2  0  0  0  0
 14 23  1  0  0  0  0
 11 12  1  0  0  0  0
 11 13  1  0  0  0  0
 11 14  1  0  0  0  0
  9 10  1  0  0  0  0
  9 11  1  0  0  0  0
  9 25  1  0  0  0  0
  7  8  1  0  0  0  0
  7  9  1  0  0  0  0
 29 30  1  0  0  0  0
 29 31  1  0  0  0  0
 29 32  1  0  0  0  0
 27 28  1  0  0  0  0
 27 29  1  0  0  0  0
M  END
$$$$
default_name
  -OEChem-02102213163D

 32 32  0     1  0  0  0  0  0999 V2000
   -3.8405   -3.7518    1.6252 H   0  0  0  0  0  0  0  0  0  0  0  0
   -3.7965   -2.8768    0.9782 C   0  0  0  0  0  0  0  0  0  0  0  0
   -4.5465   -2.1527    1.2902 H   0  0  0  0  0  0  0  0  0  0  0  0
   -3.9745   -3.1748   -0.0538 H   0  0  0  0  0  0  0  0  0  0  0  0
   -2.4245   -2.2537    1.0882 C   0  0  0  0  0  0  0  0  0  0  0  0
   -1.5805   -2.7478    1.8242 O   0  0  0  0  0  0  0  0  0  0  0  0
   -2.2045   -1.1637    0.3562 N   0  0  0  0  0  0  0  0  0  0  0  0
   -2.9595   -0.7907   -0.2008 H   0  0  0  0  0  0  0  0  0  0  0  0
   -0.9485   -0.4087    0.3482 C   0  0  1  0  0  0  0  0  0  0  0  0
   -0.3666   -0.6914    1.2269 H   0  0  0  0  0  0  0  0  0  0  0  0
   -0.1405   -0.7797   -0.9072 C   0  0  0  0  0  0  0  0  0  0  0  0
   -0.8053   -0.7736   -1.7721 H   0  0  0  0  0  0  0  0  0  0  0  0
    0.6222   -0.0178   -1.0749 H   0  0  0  0  0  0  0  0  0  0  0  0
    0.5212   -2.1425   -0.8326 C   0  0  0  0  0  0  0  0  0  0  0  0
   -0.1570   -3.2905   -1.2845 C   0  0  0  0  0  0  0  0  0  0  0  0
   -1.1647   -3.2101   -1.6671 H   0  0  0  0  0  0  0  0  0  0  0  0
    0.4789   -4.5452   -1.2503 C   0  0  0  0  0  0  0  0  0  0  0  0
   -0.0447   -5.4258   -1.5954 H   0  0  0  0  0  0  0  0  0  0  0  0
    1.7936   -4.6542   -0.7665 C   0  0  0  0  0  0  0  0  0  0  0  0
    2.2813   -5.6186   -0.7381 H   0  0  0  0  0  0  0  0  0  0  0  0
    2.4737   -3.5094   -0.3127 C   0  0  0  0  0  0  0  0  0  0  0  0
    3.4823   -3.5939    0.0643 H   0  0  0  0  0  0  0  0  0  0  0  0
    1.8368   -2.2561   -0.3439 C   0  0  0  0  0  0  0  0  0  0  0  0
    2.3598   -1.3766    0.0086 H   0  0  0  0  0  0  0  0  0  0  0  0
   -1.2168    1.1047    0.4313 C   0  0  0  0  0  0  0  0  0  0  0  0
   -2.0890    1.6186   -0.2704 O   0  0  0  0  0  0  0  0  0  0  0  0
   -0.4674    1.8182    1.2813 N   0  0  0  0  0  0  0  0  0  0  0  0
    0.2640    1.3348    1.7800 H   0  0  0  0  0  0  0  0  0  0  0  0
   -0.5889    3.2615    1.4722 C   0  0  0  0  0  0  0  0  0  0  0  0
   -1.6291    3.5206    1.6805 H   0  0  0  0  0  0  0  0  0  0  0  0
    0.0359    3.5855    2.3049 H   0  0  0  0  0  0  0  0  0  0  0  0
   -0.2760    3.7797    0.5637 H   0  0  0  0  0  0  0  0  0  0  0  0
  5  6  2  0  0  0  0
  5  7  1  0  0  0  0
  2  3  1  0  0  0  0
  2  4  1  0  0  0  0
  2  5  1  0  0  0  0
  1  2  1  0  0  0  0
 25 26  2  0  0  0  0
 25 27  1  0  0  0  0
 23 24  1  0  0  0  0
 21 22  1  0  0  0  0
 21 23  2  0  0  0  0
 19 20  1  0  0  0  0
 19 21  1  0  0  0  0
 17 18  1  0  0  0  0
 17 19  2  0  0  0  0
 15 16  1  0  0  0  0
 15 17  1  0  0  0  0
 14 15  2  0  0  0  0
 14 23  1  0  0  0  0
 11 12  1  0  0  0  0
 11 13  1  0  0  0  0
 11 14  1  0  0  0  0
  9 10  1  0  0  0  0
  9 11  1  0  0  0  0
  9 25  1  0  0  0  0
  7  8  1  0  0  0  0
  7  9  1  0  0  0  0
 29 30  1  0  0  0  0
 29 31  1  0  0  0  0
 29 32  1  0  0  0  0
 27 28  1  0  0  0  0
 27 29  1  0  0  0  0
M  END
$$$$
default_name
  -OEChem-02102213163D

 32 32  0     1  0  0  0  0  0999 V2000
   -3.8405   -3.7518    1.6252 H   0  0  0  0  0  0  0  0  0  0  0  0
   -3.7965   -2.8768    0.9782 C   0  0  0  0  0  0  0  0  0  0  0  0
   -4.5465   -2.1527    1.2902 H   0  0  0  0  0  0  0  0  0  0  0  0
   -3.9745   -3.1748   -0.0538 H   0  0  0  0  0  0  0  0  0  0  0  0
   -2.4245   -2.2537    1.0882 C   0  0  0  0  0  0  0  0  0  0  0  0
   -1.5805   -2.7478    1.8242 O   0  0  0  0  0  0  0  0  0  0  0  0
   -2.2045   -1.1637    0.3562 N   0  0  0  0  0  0  0  0  0  0  0  0
   -2.9595   -0.7907   -0.2008 H   0  0  0  0  0  0  0  0  0  0  0  0
   -0.9485   -0.4087    0.3482 C   0  0  1  0  0  0  0  0  0  0  0  0
   -0.3666   -0.6914    1.2269 H   0  0  0  0  0  0  0  0  0  0  0  0
   -0.1405   -0.7797   -0.9072 C   0  0  0  0  0  0  0  0  0  0  0  0
   -0.8053   -0.7736   -1.7721 H   0  0  0  0  0  0  0  0  0  0  0  0
    0.6222   -0.0178   -1.0749 H   0  0  0  0  0  0  0  0  0  0  0  0
    0.5212   -2.1425   -0.8326 C   0  0  0  0  0  0  0  0  0  0  0  0
   -0.0036   -3.2308   -1.5552 C   0  0  0  0  0  0  0  0  0  0  0  0
   -0.8968   -3.1065   -2.1510 H   0  0  0  0  0  0  0  0  0  0  0  0
    0.6395   -4.4816   -1.5137 C   0  0  0  0  0  0  0  0  0  0  0  0
    0.2334   -5.3166   -2.0672 H   0  0  0  0  0  0  0  0  0  0  0  0
    1.8087   -4.6461   -0.7517 C   0  0  0  0  0  0  0  0  0  0  0  0
    2.3015   -5.6077   -0.7180 H   0  0  0  0  0  0  0  0  0  0  0  0
    2.3350   -3.5611   -0.0272 C   0  0  0  0  0  0  0  0  0  0  0  0
    3.2306   -3.6888    0.5629 H   0  0  0  0  0  0  0  0  0  0  0  0
    1.6902   -2.3121   -0.0663 C   0  0  0  0  0  0  0  0  0  0  0  0
    2.0941   -1.4790    0.4942 H   0  0  0  0  0  0  0  0  0  0  0  0
   -1.2168    1.1047    0.4313 C   0  0  0  0  0  0  0  0  0  0  0  0
   -2.0890    1.6186   -0.2704 O   0  0  0  0  0  0  0  0  0  0  0  0
   -0.4674    1.8182    1.2813 N   0  0  0  0  0  0  0  0  0  0  0  0
    0.2640    1.3348    1.7800 H   0  0  0  0  0  0  0  0  0  0  0  0
   -0.5889    3.2615    1.4722 C   0  0  0  0  0  0  0  0  0  0  0  0
   -1.6291    3.5206    1.6805 H   0  0  0  0  0  0  0  0  0  0  0  0
    0.0359    3.5855    2.3049 H   0  0  0  0  0  0  0  0  0  0  0  0
   -0.2760    3.7797    0.5637 H   0  0  0  0  0  0  0  0  0  0  0  0
  5  6  2  0  0  0  0
  5  7  1  0  0  0  0
  2  3  1  0  0  0  0
  2  4  1  0  0  0  0
  2  5  1  0  0  0  0
  1  2  1  0  0  0  0
 25 26  2  0  0  0  0
 25 27  1  0  0  0  0
 23 24  1  0  0  0  0
 21 22  1  0  0  0  0
 21 23  2  0  0  0  0
 19 20  1  0  0  0  0
 19 21  1  0  0  0  0
 17 18  1  0  0  0  0
 17 19  2  0  0  0  0
 15 16  1  0  0  0  0
 15 17  1  0  0  0  0
 14 15  2  0  0  0  0
 14 23  1  0  0  0  0
 11 12  1  0  0  0  0
 11 13  1  0  0  0  0
 11 14  1  0  0  0  0
  9 10  1  0  0  0  0
  9 11  1  0  0  0  0
  9 25  1  0  0  0  0
  7  8  1  0  0  0  0
  7  9  1  0  0  0  0
 29 30  1  0  0  0  0
 29 31  1  0  0  0  0
 29 32  1  0  0  0  0
 27 28  1  0  0  0  0
 27 29  1  0  0  0  0
M  END
$$$$
default_name
  -OEChem-02102213163D

 32 32  0     1  0  0  0  0  0999 V2000
   -3.8405   -3.7518    1.6252 H   0  0  0  0  0  0  0  0  0  0  0  0
   -3.7965   -2.8768    0.9782 C   0  0  0  0  0  0  0  0  0  0  0  0
   -4.5465   -2.1527    1.2902 H   0  0  0  0  0  0  0  0  0  0  0  0
   -3.9745   -3.1748   -0.0538 H   0  0  0  0  0  0  0  0  0  0  0  0
   -2.4245   -2.2537    1.0882 C   0  0  0  0  0  0  0  0  0  0  0  0
   -1.5805   -2.7478    1.8242 O   0  0  0  0  0  0  0  0  0  0  0  0
   -2.2045   -1.1637    0.3562 N   0  0  0  0  0  0  0  0  0  0  0  0
   -2.9595   -0.7907   -0.2008 H   0  0  0  0  0  0  0  0  0  0  0  0
   -0.9485   -0.4087    0.3482 C   0  0  1  0  0  0  0  0  0  0  0  0
   -0.3666   -0.6914    1.2269 H   0  0  0  0  0  0  0  0  0  0  0  0
   -0.1405   -0.7797   -0.9072 C   0  0  0  0  0  0  0  0  0  0  0  0
   -0.8053   -0.7736   -1.7721 H   0  0  0  0  0  0  0  0  0  0  0  0
    0.6222   -0.0178   -1.0749 H   0  0  0  0  0  0  0  0  0  0  0  0
    0.5212   -2.1425   -0.8326 C   0  0  0  0  0  0  0  0  0  0  0  0
    0.2068   -3.1406   -1.7743 C   0  0  0  0  0  0  0  0  0  0  0  0
   -0.5269   -2.9484   -2.5444 H   0  0  0  0  0  0  0  0  0  0  0  0
    0.8552   -4.3884   -1.7235 C   0  0  0  0  0  0  0  0  0  0  0  0
    0.6104   -5.1543   -2.4460 H   0  0  0  0  0  0  0  0  0  0  0  0
    1.8198   -4.6397   -0.7330 C   0  0  0  0  0  0  0  0  0  0  0  0
    2.3162   -5.5992   -0.6926 H   0  0  0  0  0  0  0  0  0  0  0  0
    2.1352   -3.6451    0.2104 C   0  0  0  0  0  0  0  0  0  0  0  0
    2.8727   -3.8400    0.9752 H   0  0  0  0  0  0  0  0  0  0  0  0
    1.4847   -2.3994    0.1615 C   0  0  0  0  0  0  0  0  0  0  0  0
    1.7259   -1.6362    0.8899 H   0  0  0  0  0  0  0  0  0  0  0  0
   -1.2168    1.1047    0.4313 C   0  0  0  0  0  0  0  0  0  0  0  0
   -2.0890    1.6186   -0.2704 O   0  0  0  0  0  0  0  0  0  0  0  0
   -0.4674    1.8182    1.2813 N   0  0  0  0  0  0  0  0  0  0  0  0
    0.2640    1.3348    1.7800 H   0  0  0  0  0  0  0  0  0  0  0  0
   -0.5889    3.2615    1.4722 C   0  0  0  0  0  0  0  0  0  0  0  0
   -1.6291    3.5206    1.6805 H   0  0  0  0  0  0  0  0  0  0  0  0
    0.0359    3.5855    2.3049 H   0  0  0  0  0  0  0  0  0  0  0  0
   -0.2760    3.7797    0.5637 H   0  0  0  0  0  0  0  0  0  0  0  0
  5  6  2  0  0  0  0
  5  7  1  0  0  0  0
  2  3  1  0  0  0  0
  2  4  1  0  0  0  0
  2  5  1  0  0  0  0
  1  2  1  0  0  0  0
 25 26  2  0  0  0  0
 25 27  1  0  0  0  0
 23 24  1  0  0  0  0
 21 22  1  0  0  0  0
 21 23  2  0  0  0  0
 19 20  1  0  0  0  0
 19 21  1  0  0  0  0
 17 18  1  0  0  0  0
 17 19  2  0  0  0  0
 15 16  1  0  0  0  0
 15 17  1  0  0  0  0
 14 15  2  0  0  0  0
 14 23  1  0  0  0  0
 11 12  1  0  0  0  0
 11 13  1  0  0  0  0
 11 14  1  0  0  0  0
  9 10  1  0  0  0  0
  9 11  1  0  0  0  0
  9 25  1  0  0  0  0
  7  8  1  0  0  0  0
  7  9  1  0  0  0  0
 29 30  1  0  0  0  0
 29 31  1  0  0  0  0
 29 32  1  0  0  0  0
 27 28  1  0  0  0  0
 27 29  1  0  0  0  0
M  END
$$$$
default_name
  -OEChem-02102213163D

 32 32  0     1  0  0  0  0  0999 V2000
   -3.8405   -3.7518    1.6252 H   0  0  0  0  0  0  0  0  0  0  0  0
   -3.7965   -2.8768    0.9782 C   0  0  0  0  0  0  0  0  0  0  0  0
   -4.5465   -2.1527    1.2902 H   0  0  0  0  0  0  0  0  0  0  0  0
   -3.9745   -3.1748   -0.0538 H   0  0  0  0  0  0  0  0  0  0  0  0
   -2.4245   -2.2537    1.0882 C   0  0  0  0  0  0  0  0  0  0  0  0
   -1.5805   -2.7478    1.8242 O   0  0  0  0  0  0  0  0  0  0  0  0
   -2.2045   -1.1637    0.3562 N   0  0  0  0  0  0  0  0  0  0  0  0
   -2.9595   -0.7907   -0.2008 H   0  0  0  0  0  0  0  0  0  0  0  0
   -0.9485   -0.4087    0.3482 C   0  0  1  0  0  0  0  0  0  0  0  0
   -0.3666   -0.6914    1.2269 H   0  0  0  0  0  0  0  0  0  0  0  0
   -0.1405   -0.7797   -0.9072 C   0  0  0  0  0  0  0  0  0  0  0  0
   -0.8053   -0.7736   -1.7721 H   0  0  0  0  0  0  0  0  0  0  0  0
    0.6222   -0.0178   -1.0749 H   0  0  0  0  0  0  0  0  0  0  0  0
    0.5212   -2.1425   -0.8326 C   0  0  0  0  0  0  0  0  0  0  0  0
    0.4598   -3.0261   -1.9268 C   0  0  0  0  0  0  0  0  0  0  0  0
   -0.0802   -2.7466   -2.8205 H   0  0  0  0  0  0  0  0  0  0  0  0
    1.1111   -4.2719   -1.8655 C   0  0  0  0  0  0  0  0  0  0  0  0
    1.0605   -4.9499   -2.7059 H   0  0  0  0  0  0  0  0  0  0  0  0
    1.8260   -4.6355   -0.7117 C   0  0  0  0  0  0  0  0  0  0  0  0
    2.3244   -5.5936   -0.6638 H   0  0  0  0  0  0  0  0  0  0  0  0
    1.8881   -3.7556    0.3841 C   0  0  0  0  0  0  0  0  0  0  0  0
    2.4331   -4.0372    1.2732 H   0  0  0  0  0  0  0  0  0  0  0  0
    1.2344   -2.5120    0.3238 C   0  0  0  0  0  0  0  0  0  0  0  0
    1.2801   -1.8373    1.1688 H   0  0  0  0  0  0  0  0  0  0  0  0
   -1.2168    1.1047    0.4313 C   0  0  0  0  0  0  0  0  0  0  0  0
   -2.0890    1.6186   -0.2704 O   0  0  0  0  0  0  0  0  0  0  0  0
   -0.4674    1.8182    1.2813 N   0  0  0  0  0  0  0  0  0  0  0  0
    0.2640    1.3348    1.7800 H   0  0  0  0  0  0  0  0  0  0  0  0
   -0.5889    3.2615    1.4722 C   0  0  0  0  0  0  0  0  0  0  0  0
   -1.6291    3.5206    1.6805 H   0  0  0  0  0  0  0  0  0  0  0  0
    0.0359    3.5855    2.3049 H   0  0  0  0  0  0  0  0  0  0  0  0
   -0.2760    3.7797    0.5637 H   0  0  0  0  0  0  0  0  0  0  0  0
  5  6  2  0  0  0  0
  5  7  1  0  0  0  0
  2  3  1  0  0  0  0
  2  4  1  0  0  0  0
  2  5  1  0  0  0  0
  1  2  1  0  0  0  0
 25 26  2  0  0  0  0
 25 27  1  0  0  0  0
 23 24  1  0  0  0  0
 21 22  1  0  0  0  0
 21 23  2  0  0  0  0
 19 20  1  0  0  0  0
 19 21  1  0  0  0  0
 17 18  1  0  0  0  0
 17 19  2  0  0  0  0
 15 16  1  0  0  0  0
 15 17  1  0  0  0  0
 14 15  2  0  0  0  0
 14 23  1  0  0  0  0
 11 12  1  0  0  0  0
 11 13  1  0  0  0  0
 11 14  1  0  0  0  0
  9 10  1  0  0  0  0
  9 11  1  0  0  0  0
  9 25  1  0  0  0  0
  7  8  1  0  0  0  0
  7  9  1  0  0  0  0
 29 30  1  0  0  0  0
 29 31  1  0  0  0  0
 29 32  1  0  0  0  0
 27 28  1  0  0  0  0
 27 29  1  0  0  0  0
M  END
$$$$
default_name
  -OEChem-02102213163D

 32 32  0     1  0  0  0  0  0999 V2000
   -3.8405   -3.7518    1.6252 H   0  0  0  0  0  0  0  0  0  0  0  0
   -3.7965   -2.8768    0.9782 C   0  0  0  0  0  0  0  0  0  0  0  0
   -4.5465   -2.1527    1.2902 H   0  0  0  0  0  0  0  0  0  0  0  0
   -3.9745   -3.1748   -0.0538 H   0  0  0  0  0  0  0  0  0  0  0  0
   -2.4245   -2.2537    1.0882 C   0  0  0  0  0  0  0  0  0  0  0  0
   -1.5805   -2.7478    1.8242 O   0  0  0  0  0  0  0  0  0  0  0  0
   -2.2045   -1.1637    0.3562 N   0  0  0  0  0  0  0  0  0  0  0  0
   -2.9595   -0.7907   -0.2008 H   0  0  0  0  0  0  0  0  0  0  0  0
   -0.9485   -0.4087    0.3482 C   0  0  1  0  0  0  0  0  0  0  0  0
   -0.3666   -0.6914    1.2269 H   0  0  0  0  0  0  0  0  0  0  0  0
   -0.1405   -0.7797   -0.9072 C   0  0  0  0  0  0  0  0  0  0  0  0
   -0.8053   -0.7736   -1.7721 H   0  0  0  0  0  0  0  0  0  0  0  0
    0.6222   -0.0178   -1.0749 H   0  0  0  0  0  0  0  0  0  0  0  0
    0.5212   -2.1425   -0.8326 C   0  0  0  0  0  0  0  0  0  0  0  0
    0.7382   -2.8951   -2.0024 C   0  0  0  0  0  0  0  0  0  0  0  0
    0.4130   -2.5148   -2.9605 H   0  0  0  0  0  0  0  0  0  0  0  0
    1.3898   -4.1401   -1.9300 C   0  0  0  0  0  0  0  0  0  0  0  0
    1.5531   -4.7175   -2.8292 H   0  0  0  0  0  0  0  0  0  0  0  0
    1.8270   -4.6338   -0.6892 C   0  0  0  0  0  0  0  0  0  0  0  0
    2.3255   -5.5914   -0.6333 H   0  0  0  0  0  0  0  0  0  0  0  0
    1.6105   -3.8850    0.4819 C   0  0  0  0  0  0  0  0  0  0  0  0
    1.9416   -4.2669    1.4365 H   0  0  0  0  0  0  0  0  0  0  0  0
    0.9563   -2.6424    0.4097 C   0  0  0  0  0  0  0  0  0  0  0  0
    0.7873   -2.0688    1.3118 H   0  0  0  0  0  0  0  0  0  0  0  0
   -1.2168    1.1047    0.4313 C   0  0  0  0  0  0  0  0  0  0  0  0
   -2.0890    1.6186   -0.2704 O   0  0  0  0  0  0  0  0  0  0  0  0
   -0.4674    1.8182    1.2813 N   0  0  0  0  0  0  0  0  0  0  0  0
    0.2640    1.3348    1.7800 H   0  0  0  0  0  0  0  0  0  0  0  0
   -0.5889    3.2615    1.4722 C   0  0  0  0  0  0  0  0  0  0  0  0
   -1.6291    3.5206    1.6805 H   0  0  0  0  0  0  0  0  0  0  0  0
    0.0359    3.5855    2.3049 H   0  0  0  0  0  0  0  0  0  0  0  0
   -0.2760    3.7797    0.5637 H   0  0  0  0  0  0  0  0  0  0  0  0
  5  6  2  0  0  0  0
  5  7  1  0  0  0  0
  2  3  1  0  0  0  0
  2  4  1  0  0  0  0
  2  5  1  0  0  0  0
  1  2  1  0  0  0  0
 25 26  2  0  0  0  0
 25 27  1  0  0  0  0
 23 24  1  0  0  0  0
 21 22  1  0  0  0  0
 21 23  2  0  0  0  0
 19 20  1  0  0  0  0
 19 21  1  0  0  0  0
 17 18  1  0  0  0  0
 17 19  2  0  0  0  0
 15 16  1  0  0  0  0
 15 17  1  0  0  0  0
 14 15  2  0  0  0  0
 14 23  1  0  0  0  0
 11 12  1  0  0  0  0
 11 13  1  0  0  0  0
 11 14  1  0  0  0  0
  9 10  1  0  0  0  0
  9 11  1  0  0  0  0
  9 25  1  0  0  0  0
  7  8  1  0  0  0  0
  7  9  1  0  0  0  0
 29 30  1  0  0  0  0
 29 31  1  0  0  0  0
 29 32  1  0  0  0  0
 27 28  1  0  0  0  0
 27 29  1  0  0  0  0
M  END
$$$$
default_name
  -OEChem-02102213163D

 32 32  0     1  0  0  0  0  0999 V2000
   -3.8405   -3.7518    1.6252 H   0  0  0  0  0  0  0  0  0  0  0  0
   -3.7965   -2.8768    0.9782 C   0  0  0  0  0  0  0  0  0  0  0  0
   -4.5465   -2.1527    1.2902 H   0  0  0  0  0  0  0  0  0  0  0  0
   -3.9745   -3.1748   -0.0538 H   0  0  0  0  0  0  0  0  0  0  0  0
   -2.4245   -2.2537    1.0882 C   0  0  0  0  0  0  0  0  0  0  0  0
   -1.5805   -2.7478    1.8242 O   0  0  0  0  0  0  0  0  0  0  0  0
   -2.2045   -1.1637    0.3562 N   0  0  0  0  0  0  0  0  0  0  0  0
   -2.9595   -0.7907   -0.2008 H   0  0  0  0  0  0  0  0  0  0  0  0
   -0.9485   -0.4087    0.3482 C   0  0  1  0  0  0  0  0  0  0  0  0
   -0.3666   -0.6914    1.2269 H   0  0  0  0  0  0  0  0  0  0  0  0
   -0.1405   -0.7797   -0.9072 C   0  0  0  0  0  0  0  0  0  0  0  0
   -0.8053   -0.7736   -1.7721 H   0  0  0  0  0  0  0  0  0  0  0  0
    0.6222   -0.0178   -1.0749 H   0  0  0  0  0  0  0  0  0  0  0  0
    0.5212   -2.1425   -0.8326 C   0  0  0  0  0  0  0  0  0  0  0  0
    1.0230   -2.7564   -1.9958 C   0  0  0  0  0  0  0  0  0  0  0  0
    0.9190   -2.2688   -2.9549 H   0  0  0  0  0  0  0  0  0  0  0  0
    1.6724   -4.0020   -1.9127 C   0  0  0  0  0  0  0  0  0  0  0  0
    2.0547   -4.4728   -2.8075 H   0  0  0  0  0  0  0  0  0  0  0  0
    1.8228   -4.6346   -0.6670 C   0  0  0  0  0  0  0  0  0  0  0  0
    2.3195   -5.5927   -0.6034 H   0  0  0  0  0  0  0  0  0  0  0  0
    1.3211   -4.0247    0.4972 C   0  0  0  0  0  0  0  0  0  0  0  0
    1.4319   -4.5134    1.4540 H   0  0  0  0  0  0  0  0  0  0  0  0
    0.6694   -2.7815    0.4133 C   0  0  0  0  0  0  0  0  0  0  0  0
    0.2810   -2.3148    1.3092 H   0  0  0  0  0  0  0  0  0  0  0  0
   -1.2168    1.1047    0.4313 C   0  0  0  0  0  0  0  0  0  0  0  0
   -2.0890    1.6186   -0.2704 O   0  0  0  0  0  0  0  0  0  0  0  0
   -0.4674    1.8182    1.2813 N   0  0  0  0  0  0  0  0  0  0  0  0
    0.2640    1.3348    1.7800 H   0  0  0  0  0  0  0  0  0  0  0  0
   -0.5889    3.2615    1.4722 C   0  0  0  0  0  0  0  0  0  0  0  0
   -1.6291    3.5206    1.6805 H   0  0  0  0  0  0  0  0  0  0  0  0
    0.0359    3.5855    2.3049 H   0  0  0  0  0  0  0  0  0  0  0  0
   -0.2760    3.7797    0.5637 H   0  0  0  0  0  0  0  0  0  0  0  0
  5  6  2  0  0  0  0
  5  7  1  0  0  0  0
  2  3  1  0  0  0  0
  2  4  1  0  0  0  0
  2  5  1  0  0  0  0
  1  2  1  0  0  0  0
 25 26  2  0  0  0  0
 25 27  1  0  0  0  0
 23 24  1  0  0  0  0
 21 22  1  0  0  0  0
 21 23  2  0  0  0  0
 19 20  1  0  0  0  0
 19 21  1  0  0  0  0
 17 18  1  0  0  0  0
 17 19  2  0  0  0  0
 15 16  1  0  0  0  0
 15 17  1  0  0  0  0
 14 15  2  0  0  0  0
 14 23  1  0  0  0  0
 11 12  1  0  0  0  0
 11 13  1  0  0  0  0
 11 14  1  0  0  0  0
  9 10  1  0  0  0  0
  9 11  1  0  0  0  0
  9 25  1  0  0  0  0
  7  8  1  0  0  0  0
  7  9  1  0  0  0  0
 29 30  1  0  0  0  0
 29 31  1  0  0  0  0
 29 32  1  0  0  0  0
 27 28  1  0  0  0  0
 27 29  1  0  0  0  0
M  END
$$$$
default_name
  -OEChem-02102213163D

 32 32  0     1  0  0  0  0  0999 V2000
   -3.8405   -3.7518    1.6252 H   0  0  0  0  0  0  0  0  0  0  0  0
   -3.7965   -2.8768    0.9782 C   0  0  0  0  0  0  0  0  0  0  0  0
   -4.5465   -2.1527    1.2902 H   0  0  0  0  0  0  0  0  0  0  0  0
   -3.9745   -3.1748   -0.0538 H   0  0  0  0  0  0  0  0  0  0  0  0
   -2.4245   -2.2537    1.0882 C   0  0  0  0  0  0  0  0  0  0  0  0
   -1.5805   -2.7478    1.8242 O   0  0  0  0  0  0  0  0  0  0  0  0
   -2.2045   -1.1637    0.3562 N   0  0  0  0  0  0  0  0  0  0  0  0
   -2.9595   -0.7907   -0.2008 H   0  0  0  0  0  0  0  0  0  0  0  0
   -0.9485   -0.4087    0.3482 C   0  0  1  0  0  0  0  0  0  0  0  0
   -0.3666   -0.6914    1.2269 H   0  0  0  0  0  0  0  0  0  0  0  0
   -0.1405   -0.7797   -0.9072 C   0  0  0  0  0  0  0  0  0  0  0  0
   -0.7210   -0.5187   -1.7932 H   0  0  0  0  0  0  0  0  0  0  0  0
    0.7739   -0.1849   -0.9278 H   0  0  0  0  0  0  0  0  0  0  0  0
    0.2172   -2.2511   -0.9962 C   0  0  0  0  0  0  0  0  0  0  0  0
    0.9558   -2.7406   -2.0901 C   0  0  0  0  0  0  0  0  0  0  0  0
    1.2535   -2.0730   -2.8863 H   0  0  0  0  0  0  0  0  0  0  0  0
    1.3193   -4.0988   -2.1452 C   0  0  0  0  0  0  0  0  0  0  0  0
    1.8843   -4.4732   -2.9873 H   0  0  0  0  0  0  0  0  0  0  0  0
    0.9469   -4.9690   -1.1066 C   0  0  0  0  0  0  0  0  0  0  0  0
    1.2242   -6.0130   -1.1501 H   0  0  0  0  0  0  0  0  0  0  0  0
    0.2075   -4.4834   -0.0128 C   0  0  0  0  0  0  0  0  0  0  0  0
   -0.0835   -5.1533    0.7830 H   0  0  0  0  0  0  0  0  0  0  0  0
   -0.1585   -3.1267    0.0404 C   0  0  0  0  0  0  0  0  0  0  0  0
   -0.7302   -2.7551    0.8808 H   0  0  0  0  0  0  0  0  0  0  0  0
   -1.2168    1.1047    0.4313 C   0  0  0  0  0  0  0  0  0  0  0  0
   -2.0890    1.6186   -0.2704 O   0  0  0  0  0  0  0  0  0  0  0  0
   -0.4674    1.8182    1.2813 N   0  0  0  0  0  0  0  0  0  0  0  0
    0.2640    1.3348    1.7800 H   0  0  0  0  0  0  0  0  0  0  0  0
   -0.5889    3.2615    1.4722 C   0  0  0  0  0  0  0  0  0  0  0  0
   -1.6291    3.5206    1.6805 H   0  0  0  0  0  0  0  0  0  0  0  0
    0.0359    3.5855    2.3049 H   0  0  0  0  0  0  0  0  0  0  0  0
   -0.2760    3.7797    0.5637 H   0  0  0  0  0  0  0  0  0  0  0  0
  5  6  2  0  0  0  0
  5  7  1  0  0  0  0
  2  3  1  0  0  0  0
  2  4  1  0  0  0  0
  2  5  1  0  0  0  0
  1  2  1  0  0  0  0
 25 26  2  0  0  0  0
 25 27  1  0  0  0  0
 23 24  1  0  0  0  0
 21 22  1  0  0  0  0
 21 23  2  0  0  0  0
 19 20  1  0  0  0  0
 19 21  1  0  0  0  0
 17 18  1  0  0  0  0
 17 19  2  0  0  0  0
 15 16  1  0  0  0  0
 15 17  1  0  0  0  0
 14 15  2  0  0  0  0
 14 23  1  0  0  0  0
 11 12  1  0  0  0  0
 11 13  1  0  0  0  0
 11 14  1  0  0  0  0
  9 10  1  0  0  0  0
  9 11  1  0  0  0  0
  9 25  1  0  0  0  0
  7  8  1  0  0  0  0
  7  9  1  0  0  0  0
 29 30  1  0  0  0  0
 29 31  1  0  0  0  0
 29 32  1  0  0  0  0
 27 28  1  0  0  0  0
 27 29  1  0  0  0  0
M  END
$$$$
default_name
  -OEChem-02102213163D

 32 32  0     1  0  0  0  0  0999 V2000
   -3.8405   -3.7518    1.6252 H   0  0  0  0  0  0  0  0  0  0  0  0
   -3.7965   -2.8768    0.9782 C   0  0  0  0  0  0  0  0  0  0  0  0
   -4.5465   -2.1527    1.2902 H   0  0  0  0  0  0  0  0  0  0  0  0
   -3.9745   -3.1748   -0.0538 H   0  0  0  0  0  0  0  0  0  0  0  0
   -2.4245   -2.2537    1.0882 C   0  0  0  0  0  0  0  0  0  0  0  0
   -1.5805   -2.7478    1.8242 O   0  0  0  0  0  0  0  0  0  0  0  0
   -2.2045   -1.1637    0.3562 N   0  0  0  0  0  0  0  0  0  0  0  0
   -2.9595   -0.7907   -0.2008 H   0  0  0  0  0  0  0  0  0  0  0  0
   -0.9485   -0.4087    0.3482 C   0  0  1  0  0  0  0  0  0  0  0  0
   -0.3666   -0.6914    1.2269 H   0  0  0  0  0  0  0  0  0  0  0  0
   -0.1405   -0.7797   -0.9072 C   0  0  0  0  0  0  0  0  0  0  0  0
   -0.7210   -0.5187   -1.7932 H   0  0  0  0  0  0  0  0  0  0  0  0
    0.7739   -0.1849   -0.9278 H   0  0  0  0  0  0  0  0  0  0  0  0
    0.2172   -2.2511   -0.9962 C   0  0  0  0  0  0  0  0  0  0  0  0
    1.2036   -2.6920   -1.8987 C   0  0  0  0  0  0  0  0  0  0  0  0
    1.6969   -1.9855   -2.5512 H   0  0  0  0  0  0  0  0  0  0  0  0
    1.5592   -4.0525   -1.9463 C   0  0  0  0  0  0  0  0  0  0  0  0
    2.3151   -4.3894   -2.6419 H   0  0  0  0  0  0  0  0  0  0  0  0
    0.9311   -4.9738   -1.0911 C   0  0  0  0  0  0  0  0  0  0  0  0
    1.2027   -6.0195   -1.1294 H   0  0  0  0  0  0  0  0  0  0  0  0
   -0.0561   -4.5368   -0.1892 C   0  0  0  0  0  0  0  0  0  0  0  0
   -0.5428   -5.2457    0.4645 H   0  0  0  0  0  0  0  0  0  0  0  0
   -0.4136   -3.1776   -0.1441 C   0  0  0  0  0  0  0  0  0  0  0  0
   -1.1756   -2.8432    0.5479 H   0  0  0  0  0  0  0  0  0  0  0  0
   -1.2168    1.1047    0.4313 C   0  0  0  0  0  0  0  0  0  0  0  0
   -2.0890    1.6186   -0.2704 O   0  0  0  0  0  0  0  0  0  0  0  0
   -0.4674    1.8182    1.2813 N   0  0  0  0  0  0  0  0  0  0  0  0
    0.2640    1.3348    1.7800 H   0  0  0  0  0  0  0  0  0  0  0  0
   -0.5889    3.2615    1.4722 C   0  0  0  0  0  0  0  0  0  0  0  0
   -1.6291    3.5206    1.6805 H   0  0  0  0  0  0  0  0  0  0  0  0
    0.0359    3.5855    2.3049 H   0  0  0  0  0  0  0  0  0  0  0  0
   -0.2760    3.7797    0.5637 H   0  0  0  0  0  0  0  0  0  0  0  0
  5  6  2  0  0  0  0
  5  7  1  0  0  0  0
  2  3  1  0  0  0  0
  2  4  1  0  0  0  0
  2  5  1  0  0  0  0
  1  2  1  0  0  0  0
 25 26  2  0  0  0  0
 25 27  1  0  0  0  0
 23 24  1  0  0  0  0
 21 22  1  0  0  0  0
 21 23  2  0  0  0  0
 19 20  1  0  0  0  0
 19 21  1  0  0  0  0
 17 18  1  0  0  0  0
 17 19  2  0  0  0  0
 15 16  1  0  0  0  0
 15 17  1  0  0  0  0
 14 15  2  0  0  0  0
 14 23  1  0  0  0  0
 11 12  1  0  0  0  0
 11 13  1  0  0  0  0
 11 14  1  0  0  0  0
  9 10  1  0  0  0  0
  9 11  1  0  0  0  0
  9 25  1  0  0  0  0
  7  8  1  0  0  0  0
  7  9  1  0  0  0  0
 29 30  1  0  0  0  0
 29 31  1  0  0  0  0
 29 32  1  0  0  0  0
 27 28  1  0  0  0  0
 27 29  1  0  0  0  0
M  END
$$$$
default_name
  -OEChem-02102213163D

 32 32  0     1  0  0  0  0  0999 V2000
   -3.8405   -3.7518    1.6252 H   0  0  0  0  0  0  0  0  0  0  0  0
   -3.7965   -2.8768    0.9782 C   0  0  0  0  0  0  0  0  0  0  0  0
   -4.5465   -2.1527    1.2902 H   0  0  0  0  0  0  0  0  0  0  0  0
   -3.9745   -3.1748   -0.0538 H   0  0  0  0  0  0  0  0  0  0  0  0
   -2.4245   -2.2537    1.0882 C   0  0  0  0  0  0  0  0  0  0  0  0
   -1.5805   -2.7478    1.8242 O   0  0  0  0  0  0  0  0  0  0  0  0
   -2.2045   -1.1637    0.3562 N   0  0  0  0  0  0  0  0  0  0  0  0
   -2.9595   -0.7907   -0.2008 H   0  0  0  0  0  0  0  0  0  0  0  0
   -0.9485   -0.4087    0.3482 C   0  0  1  0  0  0  0  0  0  0  0  0
   -0.3666   -0.6914    1.2269 H   0  0  0  0  0  0  0  0  0  0  0  0
   -0.1405   -0.7797   -0.9072 C   0  0  0  0  0  0  0  0  0  0  0  0
   -0.7210   -0.5187   -1.7932 H   0  0  0  0  0  0  0  0  0  0  0  0
    0.7739   -0.1849   -0.9278 H   0  0  0  0  0  0  0  0  0  0  0  0
    0.2172   -2.2511   -0.9962 C   0  0  0  0  0  0  0  0  0  0  0  0
    1.3956   -2.6604   -1.6486 C   0  0  0  0  0  0  0  0  0  0  0  0
    2.0424   -1.9282   -2.1109 H   0  0  0  0  0  0  0  0  0  0  0  0
    1.7417   -4.0236   -1.6912 C   0  0  0  0  0  0  0  0  0  0  0  0
    2.6457   -4.3360   -2.1949 H   0  0  0  0  0  0  0  0  0  0  0  0
    0.9119   -4.9791   -1.0805 C   0  0  0  0  0  0  0  0  0  0  0  0
    1.1766   -6.0267   -1.1153 H   0  0  0  0  0  0  0  0  0  0  0  0
   -0.2672   -4.5736   -0.4290 C   0  0  0  0  0  0  0  0  0  0  0  0
   -0.9079   -5.3085    0.0358 H   0  0  0  0  0  0  0  0  0  0  0  0
   -0.6145   -3.2116   -0.3894 C   0  0  0  0  0  0  0  0  0  0  0  0
   -1.5235   -2.9012    0.1092 H   0  0  0  0  0  0  0  0  0  0  0  0
   -1.2168    1.1047    0.4313 C   0  0  0  0  0  0  0  0  0  0  0  0
   -2.0890    1.6186   -0.2704 O   0  0  0  0  0  0  0  0  0  0  0  0
   -0.4674    1.8182    1.2813 N   0  0  0  0  0  0  0  0  0  0  0  0
    0.2640    1.3348    1.7800 H   0  0  0  0  0  0  0  0  0  0  0  0
   -0.5889    3.2615    1.4722 C   0  0  0  0  0  0  0  0  0  0  0  0
   -1.6291    3.5206    1.6805 H   0  0  0  0  0  0  0  0  0  0  0  0
    0.0359    3.5855    2.3049 H   0  0  0  0  0  0  0  0  0  0  0  0
   -0.2760    3.7797    0.5637 H   0  0  0  0  0  0  0  0  0  0  0  0
  5  6  2  0  0  0  0
  5  7  1  0  0  0  0
  2  3  1  0  0  0  0
  2  4  1  0  0  0  0
  2  5  1  0  0  0  0
  1  2  1  0  0  0  0
 25 26  2  0  0  0  0
 25 27  1  0  0  0  0
 23 24  1  0  0  0  0
 21 22  1  0  0  0  0
 21 23  2  0  0  0  0
 19 20  1  0  0  0  0
 19 21  1  0  0  0  0
 17 18  1  0  0  0  0
 17 19  2  0  0  0  0
 15 16  1  0  0  0  0
 15 17  1  0  0  0  0
 14 15  2  0  0  0  0
 14 23  1  0  0  0  0
 11 12  1  0  0  0  0
 11 13  1  0  0  0  0
 11 14  1  0  0  0  0
  9 10  1  0  0  0  0
  9 11  1  0  0  0  0
  9 25  1  0  0  0  0
  7  8  1  0  0  0  0
  7  9  1  0  0  0  0
 29 30  1  0  0  0  0
 29 31  1  0  0  0  0
 29 32  1  0  0  0  0
 27 28  1  0  0  0  0
 27 29  1  0  0  0  0
M  END
$$$$
default_name
  -OEChem-02102213163D

 32 32  0     1  0  0  0  0  0999 V2000
   -3.8405   -3.7518    1.6252 H   0  0  0  0  0  0  0  0  0  0  0  0
   -3.7965   -2.8768    0.9782 C   0  0  0  0  0  0  0  0  0  0  0  0
   -4.5465   -2.1527    1.2902 H   0  0  0  0  0  0  0  0  0  0  0  0
   -3.9745   -3.1748   -0.0538 H   0  0  0  0  0  0  0  0  0  0  0  0
   -2.4245   -2.2537    1.0882 C   0  0  0  0  0  0  0  0  0  0  0  0
   -1.5805   -2.7478    1.8242 O   0  0  0  0  0  0  0  0  0  0  0  0
   -2.2045   -1.1637    0.3562 N   0  0  0  0  0  0  0  0  0  0  0  0
   -2.9595   -0.7907   -0.2008 H   0  0  0  0  0  0  0  0  0  0  0  0
   -0.9485   -0.4087    0.3482 C   0  0  1  0  0  0  0  0  0  0  0  0
   -0.3666   -0.6914    1.2269 H   0  0  0  0  0  0  0  0  0  0  0  0
   -0.1405   -0.7797   -0.9072 C   0  0  0  0  0  0  0  0  0  0  0  0
   -0.7210   -0.5187   -1.7932 H   0  0  0  0  0  0  0  0  0  0  0  0
    0.7739   -0.1849   -0.9278 H   0  0  0  0  0  0  0  0  0  0  0  0
    0.2172   -2.2511   -0.9962 C   0  0  0  0  0  0  0  0  0  0  0  0
    1.5188   -2.6481   -1.3569 C   0  0  0  0  0  0  0  0  0  0  0  0
    2.2665   -1.9049   -1.5953 H   0  0  0  0  0  0  0  0  0  0  0  0
    1.8544   -4.0140   -1.3972 C   0  0  0  0  0  0  0  0  0  0  0  0
    2.8536   -4.3168   -1.6770 H   0  0  0  0  0  0  0  0  0  0  0  0
    0.8906   -4.9846   -1.0753 C   0  0  0  0  0  0  0  0  0  0  0  0
    1.1478   -6.0341   -1.1086 H   0  0  0  0  0  0  0  0  0  0  0  0
   -0.4114   -4.5913   -0.7159 C   0  0  0  0  0  0  0  0  0  0  0  0
   -1.1539   -5.3375   -0.4737 H   0  0  0  0  0  0  0  0  0  0  0  0
   -0.7474   -3.2264   -0.6789 C   0  0  0  0  0  0  0  0  0  0  0  0
   -1.7503   -2.9252   -0.4055 H   0  0  0  0  0  0  0  0  0  0  0  0
   -1.2168    1.1047    0.4313 C   0  0  0  0  0  0  0  0  0  0  0  0
   -2.0890    1.6186   -0.2704 O   0  0  0  0  0  0  0  0  0  0  0  0
   -0.4674    1.8182    1.2813 N   0  0  0  0  0  0  0  0  0  0  0  0
    0.2640    1.3348    1.7800 H   0  0  0  0  0  0  0  0  0  0  0  0
   -0.5889    3.2615    1.4722 C   0  0  0  0  0  0  0  0  0  0  0  0
   -1.6291    3.5206    1.6805 H   0  0  0  0  0  0  0  0  0  0  0  0
    0.0359    3.5855    2.3049 H   0  0  0  0  0  0  0  0  0  0  0  0
   -0.2760    3.7797    0.5637 H   0  0  0  0  0  0  0  0  0  0  0  0
  5  6  2  0  0  0  0
  5  7  1  0  0  0  0
  2  3  1  0  0  0  0
  2  4  1  0  0  0  0
  2  5  1  0  0  0  0
  1  2  1  0  0  0  0
 25 26  2  0  0  0  0
 25 27  1  0  0  0  0
 23 24  1  0  0  0  0
 21 22  1  0  0  0  0
 21 23  2  0  0  0  0
 19 20  1  0  0  0  0
 19 21  1  0  0  0  0
 17 18  1  0  0  0  0
 17 19  2  0  0  0  0
 15 16  1  0  0  0  0
 15 17  1  0  0  0  0
 14 15  2  0  0  0  0
 14 23  1  0  0  0  0
 11 12  1  0  0  0  0
 11 13  1  0  0  0  0
 11 14  1  0  0  0  0
  9 10  1  0  0  0  0
  9 11  1  0  0  0  0
  9 25  1  0  0  0  0
  7  8  1  0  0  0  0
  7  9  1  0  0  0  0
 29 30  1  0  0  0  0
 29 31  1  0  0  0  0
 29 32  1  0  0  0  0
 27 28  1  0  0  0  0
 27 29  1  0  0  0  0
M  END
$$$$
default_name
  -OEChem-02102213163D

 32 32  0     1  0  0  0  0  0999 V2000
   -3.8405   -3.7518    1.6252 H   0  0  0  0  0  0  0  0  0  0  0  0
   -3.7965   -2.8768    0.9782 C   0  0  0  0  0  0  0  0  0  0  0  0
   -4.5465   -2.1527    1.2902 H   0  0  0  0  0  0  0  0  0  0  0  0
   -3.9745   -3.1748   -0.0538 H   0  0  0  0  0  0  0  0  0  0  0  0
   -2.4245   -2.2537    1.0882 C   0  0  0  0  0  0  0  0  0  0  0  0
   -1.5805   -2.7478    1.8242 O   0  0  0  0  0  0  0  0  0  0  0  0
   -2.2045   -1.1637    0.3562 N   0  0  0  0  0  0  0  0  0  0  0  0
   -2.9595   -0.7907   -0.2008 H   0  0  0  0  0  0  0  0  0  0  0  0
   -0.9485   -0.4087    0.3482 C   0  0  1  0  0  0  0  0  0  0  0  0
   -0.3666   -0.6914    1.2269 H   0  0  0  0  0  0  0  0  0  0  0  0
   -0.1405   -0.7797   -0.9072 C   0  0  0  0  0  0  0  0  0  0  0  0
   -0.7210   -0.5187   -1.7932 H   0  0  0  0  0  0  0  0  0  0  0  0
    0.7739   -0.1849   -0.9278 H   0  0  0  0  0  0  0  0  0  0  0  0
    0.2172   -2.2511   -0.9962 C   0  0  0  0  0  0  0  0  0  0  0  0
    1.5647   -2.6559   -1.0435 C   0  0  0  0  0  0  0  0  0  0  0  0
    2.3538   -1.9173   -1.0397 H   0  0  0  0  0  0  0  0  0  0  0  0
    1.8895   -4.0244   -1.0844 C   0  0  0  0  0  0  0  0  0  0  0  0
    2.9248   -4.3330   -1.1233 H   0  0  0  0  0  0  0  0  0  0  0  0
    0.8686   -4.9899   -1.0760 C   0  0  0  0  0  0  0  0  0  0  0  0
    1.1181   -6.0412   -1.1098 H   0  0  0  0  0  0  0  0  0  0  0  0
   -0.4790   -4.5887   -1.0303 C   0  0  0  0  0  0  0  0  0  0  0  0
   -1.2640   -5.3306   -1.0294 H   0  0  0  0  0  0  0  0  0  0  0  0
   -0.8034   -3.2210   -0.9928 C   0  0  0  0  0  0  0  0  0  0  0  0
   -1.8406   -2.9136   -0.9610 H   0  0  0  0  0  0  0  0  0  0  0  0
   -1.2168    1.1047    0.4313 C   0  0  0  0  0  0  0  0  0  0  0  0
   -2.0890    1.6186   -0.2704 O   0  0  0  0  0  0  0  0  0  0  0  0
   -0.4674    1.8182    1.2813 N   0  0  0  0  0  0  0  0  0  0  0  0
    0.2640    1.3348    1.7800 H   0  0  0  0  0  0  0  0  0  0  0  0
   -0.5889    3.2615    1.4722 C   0  0  0  0  0  0  0  0  0  0  0  0
   -1.6291    3.5206    1.6805 H   0  0  0  0  0  0  0  0  0  0  0  0
    0.0359    3.5855    2.3049 H   0  0  0  0  0  0  0  0  0  0  0  0
   -0.2760    3.7797    0.5637 H   0  0  0  0  0  0  0  0  0  0  0  0
  5  6  2  0  0  0  0
  5  7  1  0  0  0  0
  2  3  1  0  0  0  0
  2  4  1  0  0  0  0
  2  5  1  0  0  0  0
  1  2  1  0  0  0  0
 25 26  2  0  0  0  0
 25 27  1  0  0  0  0
 23 24  1  0  0  0  0
 21 22  1  0  0  0  0
 21 23  2  0  0  0  0
 19 20  1  0  0  0  0
 19 21  1  0  0  0  0
 17 18  1  0  0  0  0
 17 19  2  0  0  0  0
 15 16  1  0  0  0  0
 15 17  1  0  0  0  0
 14 15  2  0  0  0  0
 14 23  1  0  0  0  0
 11 12  1  0  0  0  0
 11 13  1  0  0  0  0
 11 14  1  0  0  0  0
  9 10  1  0  0  0  0
  9 11  1  0  0  0  0
  9 25  1  0  0  0  0
  7  8  1  0  0  0  0
  7  9  1  0  0  0  0
 29 30  1  0  0  0  0
 29 31  1  0  0  0  0
 29 32  1  0  0  0  0
 27 28  1  0  0  0  0
 27 29  1  0  0  0  0
M  END
$$$$
default_name
  -OEChem-02102213163D

 32 32  0     1  0  0  0  0  0999 V2000
   -3.8405   -3.7518    1.6252 H   0  0  0  0  0  0  0  0  0  0  0  0
   -3.7965   -2.8768    0.9782 C   0  0  0  0  0  0  0  0  0  0  0  0
   -4.5465   -2.1527    1.2902 H   0  0  0  0  0  0  0  0  0  0  0  0
   -3.9745   -3.1748   -0.0538 H   0  0  0  0  0  0  0  0  0  0  0  0
   -2.4245   -2.2537    1.0882 C   0  0  0  0  0  0  0  0  0  0  0  0
   -1.5805   -2.7478    1.8242 O   0  0  0  0  0  0  0  0  0  0  0  0
   -2.2045   -1.1637    0.3562 N   0  0  0  0  0  0  0  0  0  0  0  0
   -2.9595   -0.7907   -0.2008 H   0  0  0  0  0  0  0  0  0  0  0  0
   -0.9485   -0.4087    0.3482 C   0  0  1  0  0  0  0  0  0  0  0  0
   -0.3666   -0.6914    1.2269 H   0  0  0  0  0  0  0  0  0  0  0  0
   -0.1405   -0.7797   -0.9072 C   0  0  0  0  0  0  0  0  0  0  0  0
   -0.7210   -0.5187   -1.7932 H   0  0  0  0  0  0  0  0  0  0  0  0
    0.7739   -0.1849   -0.9278 H   0  0  0  0  0  0  0  0  0  0  0  0
    0.2172   -2.2511   -0.9962 C   0  0  0  0  0  0  0  0  0  0  0  0
    1.5302   -2.6833   -0.7297 C   0  0  0  0  0  0  0  0  0  0  0  0
    2.2984   -1.9645   -0.4818 H   0  0  0  0  0  0  0  0  0  0  0  0
    1.8448   -4.0541   -0.7740 C   0  0  0  0  0  0  0  0  0  0  0  0
    2.8542   -4.3836   -0.5716 H   0  0  0  0  0  0  0  0  0  0  0  0
    0.8474   -4.9947   -1.0826 C   0  0  0  0  0  0  0  0  0  0  0  0
    1.0897   -6.0476   -1.1189 H   0  0  0  0  0  0  0  0  0  0  0  0
   -0.4653   -4.5660   -1.3508 C   0  0  0  0  0  0  0  0  0  0  0  0
   -1.2308   -5.2884   -1.5934 H   0  0  0  0  0  0  0  0  0  0  0  0
   -0.7786   -3.1958   -1.3098 C   0  0  0  0  0  0  0  0  0  0  0  0
   -1.7881   -2.8670   -1.5196 H   0  0  0  0  0  0  0  0  0  0  0  0
   -1.2168    1.1047    0.4313 C   0  0  0  0  0  0  0  0  0  0  0  0
   -2.0890    1.6186   -0.2704 O   0  0  0  0  0  0  0  0  0  0  0  0
   -0.4674    1.8182    1.2813 N   0  0  0  0  0  0  0  0  0  0  0  0
    0.2640    1.3348    1.7800 H   0  0  0  0  0  0  0  0  0  0  0  0
   -0.5889    3.2615    1.4722 C   0  0  0  0  0  0  0  0  0  0  0  0
   -1.6291    3.5206    1.6805 H   0  0  0  0  0  0  0  0  0  0  0  0
    0.0359    3.5855    2.3049 H   0  0  0  0  0  0  0  0  0  0  0  0
   -0.2760    3.7797    0.5637 H   0  0  0  0  0  0  0  0  0  0  0  0
  5  6  2  0  0  0  0
  5  7  1  0  0  0  0
  2  3  1  0  0  0  0
  2  4  1  0  0  0  0
  2  5  1  0  0  0  0
  1  2  1  0  0  0  0
 25 26  2  0  0  0  0
 25 27  1  0  0  0  0
 23 24  1  0  0  0  0
 21 22  1  0  0  0  0
 21 23  2  0  0  0  0
 19 20  1  0  0  0  0
 19 21  1  0  0  0  0
 17 18  1  0  0  0  0
 17 19  2  0  0  0  0
 15 16  1  0  0  0  0
 15 17  1  0  0  0  0
 14 15  2  0  0  0  0
 14 23  1  0  0  0  0
 11 12  1  0  0  0  0
 11 13  1  0  0  0  0
 11 14  1  0  0  0  0
  9 10  1  0  0  0  0
  9 11  1  0  0  0  0
  9 25  1  0  0  0  0
  7  8  1  0  0  0  0
  7  9  1  0  0  0  0
 29 30  1  0  0  0  0
 29 31  1  0  0  0  0
 29 32  1  0  0  0  0
 27 28  1  0  0  0  0
 27 29  1  0  0  0  0
M  END
$$$$
default_name
  -OEChem-02102213163D

 32 32  0     1  0  0  0  0  0999 V2000
   -3.8405   -3.7518    1.6252 H   0  0  0  0  0  0  0  0  0  0  0  0
   -3.7965   -2.8768    0.9782 C   0  0  0  0  0  0  0  0  0  0  0  0
   -4.5465   -2.1527    1.2902 H   0  0  0  0  0  0  0  0  0  0  0  0
   -3.9745   -3.1748   -0.0538 H   0  0  0  0  0  0  0  0  0  0  0  0
   -2.4245   -2.2537    1.0882 C   0  0  0  0  0  0  0  0  0  0  0  0
   -1.5805   -2.7478    1.8242 O   0  0  0  0  0  0  0  0  0  0  0  0
   -2.2045   -1.1637    0.3562 N   0  0  0  0  0  0  0  0  0  0  0  0
   -2.9595   -0.7907   -0.2008 H   0  0  0  0  0  0  0  0  0  0  0  0
   -0.9485   -0.4087    0.3482 C   0  0  1  0  0  0  0  0  0  0  0  0
   -0.3666   -0.6914    1.2269 H   0  0  0  0  0  0  0  0  0  0  0  0
   -0.1405   -0.7797   -0.9072 C   0  0  0  0  0  0  0  0  0  0  0  0
   -0.7210   -0.5187   -1.7932 H   0  0  0  0  0  0  0  0  0  0  0  0
    0.7739   -0.1849   -0.9278 H   0  0  0  0  0  0  0  0  0  0  0  0
    0.2172   -2.2511   -0.9962 C   0  0  0  0  0  0  0  0  0  0  0  0
    1.4178   -2.7283   -0.4370 C   0  0  0  0  0  0  0  0  0  0  0  0
    2.1042   -2.0433    0.0404 H   0  0  0  0  0  0  0  0  0  0  0  0
    1.7232   -4.1010   -0.4872 C   0  0  0  0  0  0  0  0  0  0  0  0
    2.6468   -4.4650   -0.0595 H   0  0  0  0  0  0  0  0  0  0  0  0
    0.8286   -4.9985   -1.0945 C   0  0  0  0  0  0  0  0  0  0  0  0
    1.0644   -6.0527   -1.1351 H   0  0  0  0  0  0  0  0  0  0  0  0
   -0.3713   -4.5247   -1.6556 C   0  0  0  0  0  0  0  0  0  0  0  0
   -1.0565   -5.2138   -2.1272 H   0  0  0  0  0  0  0  0  0  0  0  0
   -0.6747   -3.1525   -1.6081 C   0  0  0  0  0  0  0  0  0  0  0  0
   -1.5965   -2.7888   -2.0431 H   0  0  0  0  0  0  0  0  0  0  0  0
   -1.2168    1.1047    0.4313 C   0  0  0  0  0  0  0  0  0  0  0  0
   -2.0890    1.6186   -0.2704 O   0  0  0  0  0  0  0  0  0  0  0  0
   -0.4674    1.8182    1.2813 N   0  0  0  0  0  0  0  0  0  0  0  0
    0.2640    1.3348    1.7800 H   0  0  0  0  0  0  0  0  0  0  0  0
   -0.5889    3.2615    1.4722 C   0  0  0  0  0  0  0  0  0  0  0  0
   -1.6291    3.5206    1.6805 H   0  0  0  0  0  0  0  0  0  0  0  0
    0.0359    3.5855    2.3049 H   0  0  0  0  0  0  0  0  0  0  0  0
   -0.2760    3.7797    0.5637 H   0  0  0  0  0  0  0  0  0  0  0  0
  5  6  2  0  0  0  0
  5  7  1  0  0  0  0
  2  3  1  0  0  0  0
  2  4  1  0  0  0  0
  2  5  1  0  0  0  0
  1  2  1  0  0  0  0
 25 26  2  0  0  0  0
 25 27  1  0  0  0  0
 23 24  1  0  0  0  0
 21 22  1  0  0  0  0
 21 23  2  0  0  0  0
 19 20  1  0  0  0  0
 19 21  1  0  0  0  0
 17 18  1  0  0  0  0
 17 19  2  0  0  0  0
 15 16  1  0  0  0  0
 15 17  1  0  0  0  0
 14 15  2  0  0  0  0
 14 23  1  0  0  0  0
 11 12  1  0  0  0  0
 11 13  1  0  0  0  0
 11 14  1  0  0  0  0
  9 10  1  0  0  0  0
  9 11  1  0  0  0  0
  9 25  1  0  0  0  0
  7  8  1  0  0  0  0
  7  9  1  0  0  0  0
 29 30  1  0  0  0  0
 29 31  1  0  0  0  0
 29 32  1  0  0  0  0
 27 28  1  0  0  0  0
 27 29  1  0  0  0  0
M  END
$$$$
default_name
  -OEChem-02102213163D

 32 32  0     1  0  0  0  0  0999 V2000
   -3.8405   -3.7518    1.6252 H   0  0  0  0  0  0  0  0  0  0  0  0
   -3.7965   -2.8768    0.9782 C   0  0  0  0  0  0  0  0  0  0  0  0
   -4.5465   -2.1527    1.2902 H   0  0  0  0  0  0  0  0  0  0  0  0
   -3.9745   -3.1748   -0.0538 H   0  0  0  0  0  0  0  0  0  0  0  0
   -2.4245   -2.2537    1.0882 C   0  0  0  0  0  0  0  0  0  0  0  0
   -1.5805   -2.7478    1.8242 O   0  0  0  0  0  0  0  0  0  0  0  0
   -2.2045   -1.1637    0.3562 N   0  0  0  0  0  0  0  0  0  0  0  0
   -2.9595   -0.7907   -0.2008 H   0  0  0  0  0  0  0  0  0  0  0  0
   -0.9485   -0.4087    0.3482 C   0  0  1  0  0  0  0  0  0  0  0  0
   -0.3666   -0.6914    1.2269 H   0  0  0  0  0  0  0  0  0  0  0  0
   -0.1405   -0.7797   -0.9072 C   0  0  0  0  0  0  0  0  0  0  0  0
   -0.7210   -0.5187   -1.7932 H   0  0  0  0  0  0  0  0  0  0  0  0
    0.7739   -0.1849   -0.9278 H   0  0  0  0  0  0  0  0  0  0  0  0
    0.2172   -2.2511   -0.9962 C   0  0  0  0  0  0  0  0  0  0  0  0
    1.2350   -2.7880   -0.1852 C   0  0  0  0  0  0  0  0  0  0  0  0
    1.7843   -2.1483    0.4911 H   0  0  0  0  0  0  0  0  0  0  0  0
    1.5330   -4.1619   -0.2436 C   0  0  0  0  0  0  0  0  0  0  0  0
    2.3166   -4.5717    0.3781 H   0  0  0  0  0  0  0  0  0  0  0  0
    0.8133   -5.0012   -1.1109 C   0  0  0  0  0  0  0  0  0  0  0  0
    1.0440   -6.0564   -1.1575 H   0  0  0  0  0  0  0  0  0  0  0  0
   -0.2033   -4.4676   -1.9238 C   0  0  0  0  0  0  0  0  0  0  0  0
   -0.7529   -5.1117   -2.5945 H   0  0  0  0  0  0  0  0  0  0  0  0
   -0.4987   -3.0940   -1.8676 C   0  0  0  0  0  0  0  0  0  0  0  0
   -1.2788   -2.6841   -2.4959 H   0  0  0  0  0  0  0  0  0  0  0  0
   -1.2168    1.1047    0.4313 C   0  0  0  0  0  0  0  0  0  0  0  0
   -2.0890    1.6186   -0.2704 O   0  0  0  0  0  0  0  0  0  0  0  0
   -0.4674    1.8182    1.2813 N   0  0  0  0  0  0  0  0  0  0  0  0
    0.2640    1.3348    1.7800 H   0  0  0  0  0  0  0  0  0  0  0  0
   -0.5889    3.2615    1.4722 C   0  0  0  0  0  0  0  0  0  0  0  0
   -1.6291    3.5206    1.6805 H   0  0  0  0  0  0  0  0  0  0  0  0
    0.0359    3.5855    2.3049 H   0  0  0  0  0  0  0  0  0  0  0  0
   -0.2760    3.7797    0.5637 H   0  0  0  0  0  0  0  0  0  0  0  0
  5  6  2  0  0  0  0
  5  7  1  0  0  0  0
  2  3  1  0  0  0  0
  2  4  1  0  0  0  0
  2  5  1  0  0  0  0
  1  2  1  0  0  0  0
 25 26  2  0  0  0  0
 25 27  1  0  0  0  0
 23 24  1  0  0  0  0
 21 22  1  0  0  0  0
 21 23  2  0  0  0  0
 19 20  1  0  0  0  0
 19 21  1  0  0  0  0
 17 18  1  0  0  0  0
 17 19  2  0  0  0  0
 15 16  1  0  0  0  0
 15 17  1  0  0  0  0
 14 15  2  0  0  0  0
 14 23  1  0  0  0  0
 11 12  1  0  0  0  0
 11 13  1  0  0  0  0
 11 14  1  0  0  0  0
  9 10  1  0  0  0  0
  9 11  1  0  0  0  0
  9 25  1  0  0  0  0
  7  8  1  0  0  0  0
  7  9  1  0  0  0  0
 29 30  1  0  0  0  0
 29 31  1  0  0  0  0
 29 32  1  0  0  0  0
 27 28  1  0  0  0  0
 27 29  1  0  0  0  0
M  END
$$$$
default_name
  -OEChem-02102213163D

 32 32  0     1  0  0  0  0  0999 V2000
   -3.8405   -3.7518    1.6252 H   0  0  0  0  0  0  0  0  0  0  0  0
   -3.7965   -2.8768    0.9782 C   0  0  0  0  0  0  0  0  0  0  0  0
   -4.5465   -2.1527    1.2902 H   0  0  0  0  0  0  0  0  0  0  0  0
   -3.9745   -3.1748   -0.0538 H   0  0  0  0  0  0  0  0  0  0  0  0
   -2.4245   -2.2537    1.0882 C   0  0  0  0  0  0  0  0  0  0  0  0
   -1.5805   -2.7478    1.8242 O   0  0  0  0  0  0  0  0  0  0  0  0
   -2.2045   -1.1637    0.3562 N   0  0  0  0  0  0  0  0  0  0  0  0
   -2.9595   -0.7907   -0.2008 H   0  0  0  0  0  0  0  0  0  0  0  0
   -0.9485   -0.4087    0.3482 C   0  0  1  0  0  0  0  0  0  0  0  0
   -0.3666   -0.6914    1.2269 H   0  0  0  0  0  0  0  0  0  0  0  0
   -0.1405   -0.7797   -0.9072 C   0  0  0  0  0  0  0  0  0  0  0  0
   -0.7210   -0.5187   -1.7932 H   0  0  0  0  0  0  0  0  0  0  0  0
    0.7739   -0.1849   -0.9278 H   0  0  0  0  0  0  0  0  0  0  0  0
    0.2172   -2.2511   -0.9962 C   0  0  0  0  0  0  0  0  0  0  0  0
    0.9942   -2.8583    0.0085 C   0  0  0  0  0  0  0  0  0  0  0  0
    1.3605   -2.2725    0.8398 H   0  0  0  0  0  0  0  0  0  0  0  0
    1.2872   -4.2328   -0.0598 C   0  0  0  0  0  0  0  0  0  0  0  0
    1.8862   -4.6965    0.7114 H   0  0  0  0  0  0  0  0  0  0  0  0
    0.8027   -5.0026   -1.1308 C   0  0  0  0  0  0  0  0  0  0  0  0
    1.0298   -6.0582   -1.1845 H   0  0  0  0  0  0  0  0  0  0  0  0
    0.0272   -4.3987   -2.1373 C   0  0  0  0  0  0  0  0  0  0  0  0
   -0.3408   -4.9892   -2.9635 H   0  0  0  0  0  0  0  0  0  0  0  0
   -0.2627   -3.0243   -2.0705 C   0  0  0  0  0  0  0  0  0  0  0  0
   -0.8566   -2.5602   -2.8471 H   0  0  0  0  0  0  0  0  0  0  0  0
   -1.2168    1.1047    0.4313 C   0  0  0  0  0  0  0  0  0  0  0  0
   -2.0890    1.6186   -0.2704 O   0  0  0  0  0  0  0  0  0  0  0  0
   -0.4674    1.8182    1.2813 N   0  0  0  0  0  0  0  0  0  0  0  0
    0.2640    1.3348    1.7800 H   0  0  0  0  0  0  0  0  0  0  0  0
   -0.5889    3.2615    1.4722 C   0  0  0  0  0  0  0  0  0  0  0  0
   -1.6291    3.5206    1.6805 H   0  0  0  0  0  0  0  0  0  0  0  0
    0.0359    3.5855    2.3049 H   0  0  0  0  0  0  0  0  0  0  0  0
   -0.2760    3.7797    0.5637 H   0  0  0  0  0  0  0  0  0  0  0  0
  5  6  2  0  0  0  0
  5  7  1  0  0  0  0
  2  3  1  0  0  0  0
  2  4  1  0  0  0  0
  2  5  1  0  0  0  0
  1  2  1  0  0  0  0
 25 26  2  0  0  0  0
 25 27  1  0  0  0  0
 23 24  1  0  0  0  0
 21 22  1  0  0  0  0
 21 23  2  0  0  0  0
 19 20  1  0  0  0  0
 19 21  1  0  0  0  0
 17 18  1  0  0  0  0
 17 19  2  0  0  0  0
 15 16  1  0  0  0  0
 15 17  1  0  0  0  0
 14 15  2  0  0  0  0
 14 23  1  0  0  0  0
 11 12  1  0  0  0  0
 11 13  1  0  0  0  0
 11 14  1  0  0  0  0
  9 10  1  0  0  0  0
  9 11  1  0  0  0  0
  9 25  1  0  0  0  0
  7  8  1  0  0  0  0
  7  9  1  0  0  0  0
 29 30  1  0  0  0  0
 29 31  1  0  0  0  0
 29 32  1  0  0  0  0
 27 28  1  0  0  0  0
 27 29  1  0  0  0  0
M  END
$$$$
default_name
  -OEChem-02102213163D

 32 32  0     1  0  0  0  0  0999 V2000
   -3.8405   -3.7518    1.6252 H   0  0  0  0  0  0  0  0  0  0  0  0
   -3.7965   -2.8768    0.9782 C   0  0  0  0  0  0  0  0  0  0  0  0
   -4.5465   -2.1527    1.2902 H   0  0  0  0  0  0  0  0  0  0  0  0
   -3.9745   -3.1748   -0.0538 H   0  0  0  0  0  0  0  0  0  0  0  0
   -2.4245   -2.2537    1.0882 C   0  0  0  0  0  0  0  0  0  0  0  0
   -1.5805   -2.7478    1.8242 O   0  0  0  0  0  0  0  0  0  0  0  0
   -2.2045   -1.1637    0.3562 N   0  0  0  0  0  0  0  0  0  0  0  0
   -2.9595   -0.7907   -0.2008 H   0  0  0  0  0  0  0  0  0  0  0  0
   -0.9485   -0.4087    0.3482 C   0  0  1  0  0  0  0  0  0  0  0  0
   -0.3666   -0.6914    1.2269 H   0  0  0  0  0  0  0  0  0  0  0  0
   -0.1405   -0.7797   -0.9072 C   0  0  0  0  0  0  0  0  0  0  0  0
   -0.7210   -0.5187   -1.7932 H   0  0  0  0  0  0  0  0  0  0  0  0
    0.7739   -0.1849   -0.9278 H   0  0  0  0  0  0  0  0  0  0  0  0
    0.2172   -2.2511   -0.9962 C   0  0  0  0  0  0  0  0  0  0  0  0
    0.7120   -2.9343    0.1309 C   0  0  0  0  0  0  0  0  0  0  0  0
    0.8618   -2.4072    1.0626 H   0  0  0  0  0  0  0  0  0  0  0  0
    1.0026   -4.3087    0.0518 C   0  0  0  0  0  0  0  0  0  0  0  0
    1.3849   -4.8309    0.9177 H   0  0  0  0  0  0  0  0  0  0  0  0
    0.7974   -5.0026   -1.1528 C   0  0  0  0  0  0  0  0  0  0  0  0
    1.0229   -6.0581   -1.2142 H   0  0  0  0  0  0  0  0  0  0  0  0
    0.3044   -4.3226   -2.2814 C   0  0  0  0  0  0  0  0  0  0  0  0
    0.1518   -4.8546   -3.2089 H   0  0  0  0  0  0  0  0  0  0  0  0
    0.0172   -2.9483   -2.2029 C   0  0  0  0  0  0  0  0  0  0  0  0
   -0.3588   -2.4256   -3.0728 H   0  0  0  0  0  0  0  0  0  0  0  0
   -1.2168    1.1047    0.4313 C   0  0  0  0  0  0  0  0  0  0  0  0
   -2.0890    1.6186   -0.2704 O   0  0  0  0  0  0  0  0  0  0  0  0
   -0.4674    1.8182    1.2813 N   0  0  0  0  0  0  0  0  0  0  0  0
    0.2640    1.3348    1.7800 H   0  0  0  0  0  0  0  0  0  0  0  0
   -0.5889    3.2615    1.4722 C   0  0  0  0  0  0  0  0  0  0  0  0
   -1.6291    3.5206    1.6805 H   0  0  0  0  0  0  0  0  0  0  0  0
    0.0359    3.5855    2.3049 H   0  0  0  0  0  0  0  0  0  0  0  0
   -0.2760    3.7797    0.5637 H   0  0  0  0  0  0  0  0  0  0  0  0
  5  6  2  0  0  0  0
  5  7  1  0  0  0  0
  2  3  1  0  0  0  0
  2  4  1  0  0  0  0
  2  5  1  0  0  0  0
  1  2  1  0  0  0  0
 25 26  2  0  0  0  0
 25 27  1  0  0  0  0
 23 24  1  0  0  0  0
 21 22  1  0  0  0  0
 21 23  2  0  0  0  0
 19 20  1  0  0  0  0
 19 21  1  0  0  0  0
 17 18  1  0  0  0  0
 17 19  2  0  0  0  0
 15 16  1  0  0  0  0
 15 17  1  0  0  0  0
 14 15  2  0  0  0  0
 14 23  1  0  0  0  0
 11 12  1  0  0  0  0
 11 13  1  0  0  0  0
 11 14  1  0  0  0  0
  9 10  1  0  0  0  0
  9 11  1  0  0  0  0
  9 25  1  0  0  0  0
  7  8  1  0  0  0  0
  7  9  1  0  0  0  0
 29 30  1  0  0  0  0
 29 31  1  0  0  0  0
 29 32  1  0  0  0  0
 27 28  1  0  0  0  0
 27 29  1  0  0  0  0
M  END
$$$$
default_name
  -OEChem-02102213163D

 32 32  0     1  0  0  0  0  0999 V2000
   -3.8405   -3.7518    1.6252 H   0  0  0  0  0  0  0  0  0  0  0  0
   -3.7965   -2.8768    0.9782 C   0  0  0  0  0  0  0  0  0  0  0  0
   -4.5465   -2.1527    1.2902 H   0  0  0  0  0  0  0  0  0  0  0  0
   -3.9745   -3.1748   -0.0538 H   0  0  0  0  0  0  0  0  0  0  0  0
   -2.4245   -2.2537    1.0882 C   0  0  0  0  0  0  0  0  0  0  0  0
   -1.5805   -2.7478    1.8242 O   0  0  0  0  0  0  0  0  0  0  0  0
   -2.2045   -1.1637    0.3562 N   0  0  0  0  0  0  0  0  0  0  0  0
   -2.9595   -0.7907   -0.2008 H   0  0  0  0  0  0  0  0  0  0  0  0
   -0.9485   -0.4087    0.3482 C   0  0  1  0  0  0  0  0  0  0  0  0
   -0.3666   -0.6914    1.2269 H   0  0  0  0  0  0  0  0  0  0  0  0
   -0.1405   -0.7797   -0.9072 C   0  0  0  0  0  0  0  0  0  0  0  0
   -0.7210   -0.5187   -1.7932 H   0  0  0  0  0  0  0  0  0  0  0  0
    0.7739   -0.1849   -0.9278 H   0  0  0  0  0  0  0  0  0  0  0  0
    0.2172   -2.2511   -0.9962 C   0  0  0  0  0  0  0  0  0  0  0  0
    0.4076   -3.0109    0.1736 C   0  0  0  0  0  0  0  0  0  0  0  0
    0.3220   -2.5434    1.1444 H   0  0  0  0  0  0  0  0  0  0  0  0
    0.6985   -4.3846    0.0834 C   0  0  0  0  0  0  0  0  0  0  0  0
    0.8469   -4.9656    0.9828 H   0  0  0  0  0  0  0  0  0  0  0  0
    0.7977   -5.0011   -1.1754 C   0  0  0  0  0  0  0  0  0  0  0  0
    1.0236   -6.0560   -1.2447 H   0  0  0  0  0  0  0  0  0  0  0  0
    0.6096   -4.2445   -2.3463 C   0  0  0  0  0  0  0  0  0  0  0  0
    0.6912   -4.7171   -3.3141 H   0  0  0  0  0  0  0  0  0  0  0  0
    0.3221   -2.8710   -2.2560 C   0  0  0  0  0  0  0  0  0  0  0  0
    0.1808   -2.2893   -3.1576 H   0  0  0  0  0  0  0  0  0  0  0  0
   -1.2168    1.1047    0.4313 C   0  0  0  0  0  0  0  0  0  0  0  0
   -2.0890    1.6186   -0.2704 O   0  0  0  0  0  0  0  0  0  0  0  0
   -0.4674    1.8182    1.2813 N   0  0  0  0  0  0  0  0  0  0  0  0
    0.2640    1.3348    1.7800 H   0  0  0  0  0  0  0  0  0  0  0  0
   -0.5889    3.2615    1.4722 C   0  0  0  0  0  0  0  0  0  0  0  0
   -1.6291    3.5206    1.6805 H   0  0  0  0  0  0  0  0  0  0  0  0
    0.0359    3.5855    2.3049 H   0  0  0  0  0  0  0  0  0  0  0  0
   -0.2760    3.7797    0.5637 H   0  0  0  0  0  0  0  0  0  0  0  0
  5  6  2  0  0  0  0
  5  7  1  0  0  0  0
  2  3  1  0  0  0  0
  2  4  1  0  0  0  0
  2  5  1  0  0  0  0
  1  2  1  0  0  0  0
 25 26  2  0  0  0  0
 25 27  1  0  0  0  0
 23 24  1  0  0  0  0
 21 22  1  0  0  0  0
 21 23  2  0  0  0  0
 19 20  1  0  0  0  0
 19 21  1  0  0  0  0
 17 18  1  0  0  0  0
 17 19  2  0  0  0  0
 15 16  1  0  0  0  0
 15 17  1  0  0  0  0
 14 15  2  0  0  0  0
 14 23  1  0  0  0  0
 11 12  1  0  0  0  0
 11 13  1  0  0  0  0
 11 14  1  0  0  0  0
  9 10  1  0  0  0  0
  9 11  1  0  0  0  0
  9 25  1  0  0  0  0
  7  8  1  0  0  0  0
  7  9  1  0  0  0  0
 29 30  1  0  0  0  0
 29 31  1  0  0  0  0
 29 32  1  0  0  0  0
 27 28  1  0  0  0  0
 27 29  1  0  0  0  0
M  END
$$$$
default_name
  -OEChem-02102213163D

 32 32  0     1  0  0  0  0  0999 V2000
   -3.8405   -3.7518    1.6252 H   0  0  0  0  0  0  0  0  0  0  0  0
   -3.7965   -2.8768    0.9782 C   0  0  0  0  0  0  0  0  0  0  0  0
   -4.5465   -2.1527    1.2902 H   0  0  0  0  0  0  0  0  0  0  0  0
   -3.9745   -3.1748   -0.0538 H   0  0  0  0  0  0  0  0  0  0  0  0
   -2.4245   -2.2537    1.0882 C   0  0  0  0  0  0  0  0  0  0  0  0
   -1.5805   -2.7478    1.8242 O   0  0  0  0  0  0  0  0  0  0  0  0
   -2.2045   -1.1637    0.3562 N   0  0  0  0  0  0  0  0  0  0  0  0
   -2.9595   -0.7907   -0.2008 H   0  0  0  0  0  0  0  0  0  0  0  0
   -0.9485   -0.4087    0.3482 C   0  0  1  0  0  0  0  0  0  0  0  0
   -0.3666   -0.6914    1.2269 H   0  0  0  0  0  0  0  0  0  0  0  0
   -0.1405   -0.7797   -0.9072 C   0  0  0  0  0  0  0  0  0  0  0  0
   -0.7210   -0.5187   -1.7932 H   0  0  0  0  0  0  0  0  0  0  0  0
    0.7739   -0.1849   -0.9278 H   0  0  0  0  0  0  0  0  0  0  0  0
    0.2172   -2.2511   -0.9962 C   0  0  0  0  0  0  0  0  0  0  0  0
    0.1016   -3.0828    0.1337 C   0  0  0  0  0  0  0  0  0  0  0  0
   -0.2219   -2.6717    1.0795 H   0  0  0  0  0  0  0  0  0  0  0  0
    0.3957   -4.4552    0.0330 C   0  0  0  0  0  0  0  0  0  0  0  0
    0.3087   -5.0916    0.9025 H   0  0  0  0  0  0  0  0  0  0  0  0
    0.8038   -4.9983   -1.1970 C   0  0  0  0  0  0  0  0  0  0  0  0
    1.0320   -6.0522   -1.2738 H   0  0  0  0  0  0  0  0  0  0  0  0
    0.9218   -4.1697   -2.3277 C   0  0  0  0  0  0  0  0  0  0  0  0
    1.2407   -4.5860   -3.2719 H   0  0  0  0  0  0  0  0  0  0  0  0
    0.6310   -2.7977   -2.2260 C   0  0  0  0  0  0  0  0  0  0  0  0
    0.7254   -2.1606   -3.0957 H   0  0  0  0  0  0  0  0  0  0  0  0
   -1.2168    1.1047    0.4313 C   0  0  0  0  0  0  0  0  0  0  0  0
   -2.0890    1.6186   -0.2704 O   0  0  0  0  0  0  0  0  0  0  0  0
   -0.4674    1.8182    1.2813 N   0  0  0  0  0  0  0  0  0  0  0  0
    0.2640    1.3348    1.7800 H   0  0  0  0  0  0  0  0  0  0  0  0
   -0.5889    3.2615    1.4722 C   0  0  0  0  0  0  0  0  0  0  0  0
   -1.6291    3.5206    1.6805 H   0  0  0  0  0  0  0  0  0  0  0  0
    0.0359    3.5855    2.3049 H   0  0  0  0  0  0  0  0  0  0  0  0
   -0.2760    3.7797    0.5637 H   0  0  0  0  0  0  0  0  0  0  0  0
  5  6  2  0  0  0  0
  5  7  1  0  0  0  0
  2  3  1  0  0  0  0
  2  4  1  0  0  0  0
  2  5  1  0  0  0  0
  1  2  1  0  0  0  0
 25 26  2  0  0  0  0
 25 27  1  0  0  0  0
 23 24  1  0  0  0  0
 21 22  1  0  0  0  0
 21 23  2  0  0  0  0
 19 20  1  0  0  0  0
 19 21  1  0  0  0  0
 17 18  1  0  0  0  0
 17 19  2  0  0  0  0
 15 16  1  0  0  0  0
 15 17  1  0  0  0  0
 14 15  2  0  0  0  0
 14 23  1  0  0  0  0
 11 12  1  0  0  0  0
 11 13  1  0  0  0  0
 11 14  1  0  0  0  0
  9 10  1  0  0  0  0
  9 11  1  0  0  0  0
  9 25  1  0  0  0  0
  7  8  1  0  0  0  0
  7  9  1  0  0  0  0
 29 30  1  0  0  0  0
 29 31  1  0  0  0  0
 29 32  1  0  0  0  0
 27 28  1  0  0  0  0
 27 29  1  0  0  0  0
M  END
$$$$
default_name
  -OEChem-02102213163D

 32 32  0     1  0  0  0  0  0999 V2000
   -3.8405   -3.7518    1.6252 H   0  0  0  0  0  0  0  0  0  0  0  0
   -3.7965   -2.8768    0.9782 C   0  0  0  0  0  0  0  0  0  0  0  0
   -4.5465   -2.1527    1.2902 H   0  0  0  0  0  0  0  0  0  0  0  0
   -3.9745   -3.1748   -0.0538 H   0  0  0  0  0  0  0  0  0  0  0  0
   -2.4245   -2.2537    1.0882 C   0  0  0  0  0  0  0  0  0  0  0  0
   -1.5805   -2.7478    1.8242 O   0  0  0  0  0  0  0  0  0  0  0  0
   -2.2045   -1.1637    0.3562 N   0  0  0  0  0  0  0  0  0  0  0  0
   -2.9595   -0.7907   -0.2008 H   0  0  0  0  0  0  0  0  0  0  0  0
   -0.9485   -0.4087    0.3482 C   0  0  1  0  0  0  0  0  0  0  0  0
   -0.3666   -0.6914    1.2269 H   0  0  0  0  0  0  0  0  0  0  0  0
   -0.1405   -0.7797   -0.9072 C   0  0  0  0  0  0  0  0  0  0  0  0
   -0.7210   -0.5187   -1.7932 H   0  0  0  0  0  0  0  0  0  0  0  0
    0.7739   -0.1849   -0.9278 H   0  0  0  0  0  0  0  0  0  0  0  0
    0.2172   -2.2511   -0.9962 C   0  0  0  0  0  0  0  0  0  0  0  0
   -0.1851   -3.1453    0.0140 C   0  0  0  0  0  0  0  0  0  0  0  0
   -0.7330   -2.7834    0.8725 H   0  0  0  0  0  0  0  0  0  0  0  0
    0.1148   -4.5156   -0.0960 C   0  0  0  0  0  0  0  0  0  0  0  0
   -0.1928   -5.2001    0.6821 H   0  0  0  0  0  0  0  0  0  0  0  0
    0.8151   -4.9944   -1.2162 C   0  0  0  0  0  0  0  0  0  0  0  0
    1.0475   -6.0469   -1.2995 H   0  0  0  0  0  0  0  0  0  0  0  0
    1.2199   -4.1033   -2.2267 C   0  0  0  0  0  0  0  0  0  0  0  0
    1.7630   -4.4704   -3.0852 H   0  0  0  0  0  0  0  0  0  0  0  0
    0.9230   -2.7334   -2.1149 C   0  0  0  0  0  0  0  0  0  0  0  0
    1.2378   -2.0484   -2.8914 H   0  0  0  0  0  0  0  0  0  0  0  0
   -1.2168    1.1047    0.4313 C   0  0  0  0  0  0  0  0  0  0  0  0
   -2.0890    1.6186   -0.2704 O   0  0  0  0  0  0  0  0  0  0  0  0
   -0.4674    1.8182    1.2813 N   0  0  0  0  0  0  0  0  0  0  0  0
    0.2640    1.3348    1.7800 H   0  0  0  0  0  0  0  0  0  0  0  0
   -0.5889    3.2615    1.4722 C   0  0  0  0  0  0  0  0  0  0  0  0
   -1.6291    3.5206    1.6805 H   0  0  0  0  0  0  0  0  0  0  0  0
    0.0359    3.5855    2.3049 H   0  0  0  0  0  0  0  0  0  0  0  0
   -0.2760    3.7797    0.5637 H   0  0  0  0  0  0  0  0  0  0  0  0
  5  6  2  0  0  0  0
  5  7  1  0  0  0  0
  2  3  1  0  0  0  0
  2  4  1  0  0  0  0
  2  5  1  0  0  0  0
  1  2  1  0  0  0  0
 25 26  2  0  0  0  0
 25 27  1  0  0  0  0
 23 24  1  0  0  0  0
 21 22  1  0  0  0  0
 21 23  2  0  0  0  0
 19 20  1  0  0  0  0
 19 21  1  0  0  0  0
 17 18  1  0  0  0  0
 17 19  2  0  0  0  0
 15 16  1  0  0  0  0
 15 17  1  0  0  0  0
 14 15  2  0  0  0  0
 14 23  1  0  0  0  0
 11 12  1  0  0  0  0
 11 13  1  0  0  0  0
 11 14  1  0  0  0  0
  9 10  1  0  0  0  0
  9 11  1  0  0  0  0
  9 25  1  0  0  0  0
  7  8  1  0  0  0  0
  7  9  1  0  0  0  0
 29 30  1  0  0  0  0
 29 31  1  0  0  0  0
 29 32  1  0  0  0  0
 27 28  1  0  0  0  0
 27 29  1  0  0  0  0
M  END
$$$$
default_name
  -OEChem-02102213163D

 32 32  0     1  0  0  0  0  0999 V2000
   -3.8405   -3.7518    1.6252 H   0  0  0  0  0  0  0  0  0  0  0  0
   -3.7965   -2.8768    0.9782 C   0  0  0  0  0  0  0  0  0  0  0  0
   -4.5465   -2.1527    1.2902 H   0  0  0  0  0  0  0  0  0  0  0  0
   -3.9745   -3.1748   -0.0538 H   0  0  0  0  0  0  0  0  0  0  0  0
   -2.4245   -2.2537    1.0882 C   0  0  0  0  0  0  0  0  0  0  0  0
   -1.5805   -2.7478    1.8242 O   0  0  0  0  0  0  0  0  0  0  0  0
   -2.2045   -1.1637    0.3562 N   0  0  0  0  0  0  0  0  0  0  0  0
   -2.9595   -0.7907   -0.2008 H   0  0  0  0  0  0  0  0  0  0  0  0
   -0.9485   -0.4087    0.3482 C   0  0  1  0  0  0  0  0  0  0  0  0
   -0.3666   -0.6914    1.2269 H   0  0  0  0  0  0  0  0  0  0  0  0
   -0.1405   -0.7797   -0.9072 C   0  0  0  0  0  0  0  0  0  0  0  0
   -0.7210   -0.5187   -1.7932 H   0  0  0  0  0  0  0  0  0  0  0  0
    0.7739   -0.1849   -0.9278 H   0  0  0  0  0  0  0  0  0  0  0  0
    0.2172   -2.2511   -0.9962 C   0  0  0  0  0  0  0  0  0  0  0  0
   -0.4328   -3.1939   -0.1774 C   0  0  0  0  0  0  0  0  0  0  0  0
   -1.1764   -2.8709    0.5375 H   0  0  0  0  0  0  0  0  0  0  0  0
   -0.1251   -4.5619   -0.2948 C   0  0  0  0  0  0  0  0  0  0  0  0
   -0.6235   -5.2840    0.3366 H   0  0  0  0  0  0  0  0  0  0  0  0
    0.8309   -4.9897   -1.2316 C   0  0  0  0  0  0  0  0  0  0  0  0
    1.0690   -6.0404   -1.3202 H   0  0  0  0  0  0  0  0  0  0  0  0
    1.4834   -4.0499   -2.0503 C   0  0  0  0  0  0  0  0  0  0  0  0
    2.2223   -4.3780   -2.7667 H   0  0  0  0  0  0  0  0  0  0  0  0
    1.1781   -2.6826   -1.9304 C   0  0  0  0  0  0  0  0  0  0  0  0
    1.6832   -1.9603   -2.5585 H   0  0  0  0  0  0  0  0  0  0  0  0
   -1.2168    1.1047    0.4313 C   0  0  0  0  0  0  0  0  0  0  0  0
   -2.0890    1.6186   -0.2704 O   0  0  0  0  0  0  0  0  0  0  0  0
   -0.4674    1.8182    1.2813 N   0  0  0  0  0  0  0  0  0  0  0  0
    0.2640    1.3348    1.7800 H   0  0  0  0  0  0  0  0  0  0  0  0
   -0.5889    3.2615    1.4722 C   0  0  0  0  0  0  0  0  0  0  0  0
   -1.6291    3.5206    1.6805 H   0  0  0  0  0  0  0  0  0  0  0  0
    0.0359    3.5855    2.3049 H   0  0  0  0  0  0  0  0  0  0  0  0
   -0.2760    3.7797    0.5637 H   0  0  0  0  0  0  0  0  0  0  0  0
  5  6  2  0  0  0  0
  5  7  1  0  0  0  0
  2  3  1  0  0  0  0
  2  4  1  0  0  0  0
  2  5  1  0  0  0  0
  1  2  1  0  0  0  0
 25 26  2  0  0  0  0
 25 27  1  0  0  0  0
 23 24  1  0  0  0  0
 21 22  1  0  0  0  0
 21 23  2  0  0  0  0
 19 20  1  0  0  0  0
 19 21  1  0  0  0  0
 17 18  1  0  0  0  0
 17 19  2  0  0  0  0
 15 16  1  0  0  0  0
 15 17  1  0  0  0  0
 14 15  2  0  0  0  0
 14 23  1  0  0  0  0
 11 12  1  0  0  0  0
 11 13  1  0  0  0  0
 11 14  1  0  0  0  0
  9 10  1  0  0  0  0
  9 11  1  0  0  0  0
  9 25  1  0  0  0  0
  7  8  1  0  0  0  0
  7  9  1  0  0  0  0
 29 30  1  0  0  0  0
 29 31  1  0  0  0  0
 29 32  1  0  0  0  0
 27 28  1  0  0  0  0
 27 29  1  0  0  0  0
M  END
$$$$
default_name
  -OEChem-02102213163D

 32 32  0     1  0  0  0  0  0999 V2000
   -3.8405   -3.7518    1.6252 H   0  0  0  0  0  0  0  0  0  0  0  0
   -3.7965   -2.8768    0.9782 C   0  0  0  0  0  0  0  0  0  0  0  0
   -4.5465   -2.1527    1.2902 H   0  0  0  0  0  0  0  0  0  0  0  0
   -3.9745   -3.1748   -0.0538 H   0  0  0  0  0  0  0  0  0  0  0  0
   -2.4245   -2.2537    1.0882 C   0  0  0  0  0  0  0  0  0  0  0  0
   -1.5805   -2.7478    1.8242 O   0  0  0  0  0  0  0  0  0  0  0  0
   -2.2045   -1.1637    0.3562 N   0  0  0  0  0  0  0  0  0  0  0  0
   -2.9595   -0.7907   -0.2008 H   0  0  0  0  0  0  0  0  0  0  0  0
   -0.9485   -0.4087    0.3482 C   0  0  1  0  0  0  0  0  0  0  0  0
   -0.3666   -0.6914    1.2269 H   0  0  0  0  0  0  0  0  0  0  0  0
   -0.1405   -0.7797   -0.9072 C   0  0  0  0  0  0  0  0  0  0  0  0
   -0.7210   -0.5187   -1.7932 H   0  0  0  0  0  0  0  0  0  0  0  0
    0.7739   -0.1849   -0.9278 H   0  0  0  0  0  0  0  0  0  0  0  0
    0.2172   -2.2511   -0.9962 C   0  0  0  0  0  0  0  0  0  0  0  0
   -0.6248   -3.2255   -0.4275 C   0  0  0  0  0  0  0  0  0  0  0  0
   -1.5219   -2.9283    0.0971 H   0  0  0  0  0  0  0  0  0  0  0  0
   -0.3076   -4.5909   -0.5499 C   0  0  0  0  0  0  0  0  0  0  0  0
   -0.9542   -5.3373   -0.1103 H   0  0  0  0  0  0  0  0  0  0  0  0
    0.8502   -4.9843   -1.2423 C   0  0  0  0  0  0  0  0  0  0  0  0
    1.0951   -6.0332   -1.3343 H   0  0  0  0  0  0  0  0  0  0  0  0
    1.6945   -4.0131   -1.8105 C   0  0  0  0  0  0  0  0  0  0  0  0
    2.5874   -4.3152   -2.3381 H   0  0  0  0  0  0  0  0  0  0  0  0
    1.3790   -2.6486   -1.6851 C   0  0  0  0  0  0  0  0  0  0  0  0
    2.0311   -1.9022   -2.1198 H   0  0  0  0  0  0  0  0  0  0  0  0
   -1.2168    1.1047    0.4313 C   0  0  0  0  0  0  0  0  0  0  0  0
   -2.0890    1.6186   -0.2704 O   0  0  0  0  0  0  0  0  0  0  0  0
   -0.4674    1.8182    1.2813 N   0  0  0  0  0  0  0  0  0  0  0  0
    0.2640    1.3348    1.7800 H   0  0  0  0  0  0  0  0  0  0  0  0
   -0.5889    3.2615    1.4722 C   0  0  0  0  0  0  0  0  0  0  0  0
   -1.6291    3.5206    1.6805 H   0  0  0  0  0  0  0  0  0  0  0  0
    0.0359    3.5855    2.3049 H   0  0  0  0  0  0  0  0  0  0  0  0
   -0.2760    3.7797    0.5637 H   0  0  0  0  0  0  0  0  0  0  0  0
  5  6  2  0  0  0  0
  5  7  1  0  0  0  0
  2  3  1  0  0  0  0
  2  4  1  0  0  0  0
  2  5  1  0  0  0  0
  1  2  1  0  0  0  0
 25 26  2  0  0  0  0
 25 27  1  0  0  0  0
 23 24  1  0  0  0  0
 21 22  1  0  0  0  0
 21 23  2  0  0  0  0
 19 20  1  0  0  0  0
 19 21  1  0  0  0  0
 17 18  1  0  0  0  0
 17 19  2  0  0  0  0
 15 16  1  0  0  0  0
 15 17  1  0  0  0  0
 14 15  2  0  0  0  0
 14 23  1  0  0  0  0
 11 12  1  0  0  0  0
 11 13  1  0  0  0  0
 11 14  1  0  0  0  0
  9 10  1  0  0  0  0
  9 11  1  0  0  0  0
  9 25  1  0  0  0  0
  7  8  1  0  0  0  0
  7  9  1  0  0  0  0
 29 30  1  0  0  0  0
 29 31  1  0  0  0  0
 29 32  1  0  0  0  0
 27 28  1  0  0  0  0
 27 29  1  0  0  0  0
M  END
$$$$
default_name
  -OEChem-02102213163D

 32 32  0     1  0  0  0  0  0999 V2000
   -3.8405   -3.7518    1.6252 H   0  0  0  0  0  0  0  0  0  0  0  0
   -3.7965   -2.8768    0.9782 C   0  0  0  0  0  0  0  0  0  0  0  0
   -4.5465   -2.1527    1.2902 H   0  0  0  0  0  0  0  0  0  0  0  0
   -3.9745   -3.1748   -0.0538 H   0  0  0  0  0  0  0  0  0  0  0  0
   -2.4245   -2.2537    1.0882 C   0  0  0  0  0  0  0  0  0  0  0  0
   -1.5805   -2.7478    1.8242 O   0  0  0  0  0  0  0  0  0  0  0  0
   -2.2045   -1.1637    0.3562 N   0  0  0  0  0  0  0  0  0  0  0  0
   -2.9595   -0.7907   -0.2008 H   0  0  0  0  0  0  0  0  0  0  0  0
   -0.9485   -0.4087    0.3482 C   0  0  1  0  0  0  0  0  0  0  0  0
   -0.3666   -0.6914    1.2269 H   0  0  0  0  0  0  0  0  0  0  0  0
   -0.1405   -0.7797   -0.9072 C   0  0  0  0  0  0  0  0  0  0  0  0
   -0.7210   -0.5187   -1.7932 H   0  0  0  0  0  0  0  0  0  0  0  0
    0.7739   -0.1849   -0.9278 H   0  0  0  0  0  0  0  0  0  0  0  0
    0.2172   -2.2511   -0.9962 C   0  0  0  0  0  0  0  0  0  0  0  0
   -0.7480   -3.2378   -0.7191 C   0  0  0  0  0  0  0  0  0  0  0  0
   -1.7460   -2.9515   -0.4185 H   0  0  0  0  0  0  0  0  0  0  0  0
   -0.4203   -4.6005   -0.8439 C   0  0  0  0  0  0  0  0  0  0  0  0
   -1.1621   -5.3565   -0.6282 H   0  0  0  0  0  0  0  0  0  0  0  0
    0.8715   -4.9788   -1.2475 C   0  0  0  0  0  0  0  0  0  0  0  0
    1.1239   -6.0258   -1.3410 H   0  0  0  0  0  0  0  0  0  0  0  0
    1.8388   -3.9954   -1.5236 C   0  0  0  0  0  0  0  0  0  0  0  0
    2.8333   -4.2862   -1.8285 H   0  0  0  0  0  0  0  0  0  0  0  0
    1.5119   -2.6337   -1.3956 C   0  0  0  0  0  0  0  0  0  0  0  0
    2.2580   -1.8782   -1.6051 H   0  0  0  0  0  0  0  0  0  0  0  0
   -1.2168    1.1047    0.4313 C   0  0  0  0  0  0  0  0  0  0  0  0
   -2.0890    1.6186   -0.2704 O   0  0  0  0  0  0  0  0  0  0  0  0
   -0.4674    1.8182    1.2813 N   0  0  0  0  0  0  0  0  0  0  0  0
    0.2640    1.3348    1.7800 H   0  0  0  0  0  0  0  0  0  0  0  0
   -0.5889    3.2615    1.4722 C   0  0  0  0  0  0  0  0  0  0  0  0
   -1.6291    3.5206    1.6805 H   0  0  0  0  0  0  0  0  0  0  0  0
    0.0359    3.5855    2.3049 H   0  0  0  0  0  0  0  0  0  0  0  0
   -0.2760    3.7797    0.5637 H   0  0  0  0  0  0  0  0  0  0  0  0
  5  6  2  0  0  0  0
  5  7  1  0  0  0  0
  2  3  1  0  0  0  0
  2  4  1  0  0  0  0
  2  5  1  0  0  0  0
  1  2  1  0  0  0  0
 25 26  2  0  0  0  0
 25 27  1  0  0  0  0
 23 24  1  0  0  0  0
 21 22  1  0  0  0  0
 21 23  2  0  0  0  0
 19 20  1  0  0  0  0
 19 21  1  0  0  0  0
 17 18  1  0  0  0  0
 17 19  2  0  0  0  0
 15 16  1  0  0  0  0
 15 17  1  0  0  0  0
 14 15  2  0  0  0  0
 14 23  1  0  0  0  0
 11 12  1  0  0  0  0
 11 13  1  0  0  0  0
 11 14  1  0  0  0  0
  9 10  1  0  0  0  0
  9 11  1  0  0  0  0
  9 25  1  0  0  0  0
  7  8  1  0  0  0  0
  7  9  1  0  0  0  0
 29 30  1  0  0  0  0
 29 31  1  0  0  0  0
 29 32  1  0  0  0  0
 27 28  1  0  0  0  0
 27 29  1  0  0  0  0
M  END
$$$$
default_name
  -OEChem-02102213163D

 32 32  0     1  0  0  0  0  0999 V2000
   -3.8405   -3.7518    1.6252 H   0  0  0  0  0  0  0  0  0  0  0  0
   -3.7965   -2.8768    0.9782 C   0  0  0  0  0  0  0  0  0  0  0  0
   -4.5465   -2.1527    1.2902 H   0  0  0  0  0  0  0  0  0  0  0  0
   -3.9745   -3.1748   -0.0538 H   0  0  0  0  0  0  0  0  0  0  0  0
   -2.4245   -2.2537    1.0882 C   0  0  0  0  0  0  0  0  0  0  0  0
   -1.5805   -2.7478    1.8242 O   0  0  0  0  0  0  0  0  0  0  0  0
   -2.2045   -1.1637    0.3562 N   0  0  0  0  0  0  0  0  0  0  0  0
   -2.9595   -0.7907   -0.2008 H   0  0  0  0  0  0  0  0  0  0  0  0
   -0.9485   -0.4087    0.3482 C   0  0  1  0  0  0  0  0  0  0  0  0
   -0.3666   -0.6914    1.2269 H   0  0  0  0  0  0  0  0  0  0  0  0
   -0.1405   -0.7797   -0.9072 C   0  0  0  0  0  0  0  0  0  0  0  0
   -0.7210   -0.5187   -1.7932 H   0  0  0  0  0  0  0  0  0  0  0  0
    0.7739   -0.1849   -0.9278 H   0  0  0  0  0  0  0  0  0  0  0  0
    0.2172   -2.2511   -0.9962 C   0  0  0  0  0  0  0  0  0  0  0  0
   -0.7939   -3.2300   -1.0326 C   0  0  0  0  0  0  0  0  0  0  0  0
   -1.8333   -2.9391   -0.9741 H   0  0  0  0  0  0  0  0  0  0  0  0
   -0.4554   -4.5901   -1.1568 C   0  0  0  0  0  0  0  0  0  0  0  0
   -1.2333   -5.3403   -1.1819 H   0  0  0  0  0  0  0  0  0  0  0  0
    0.8935   -4.9735   -1.2467 C   0  0  0  0  0  0  0  0  0  0  0  0
    1.1536   -6.0187   -1.3398 H   0  0  0  0  0  0  0  0  0  0  0  0
    1.9064   -3.9980   -1.2092 C   0  0  0  0  0  0  0  0  0  0  0  0
    2.9435   -4.2930   -1.2729 H   0  0  0  0  0  0  0  0  0  0  0  0
    1.5679   -2.6391   -1.0817 C   0  0  0  0  0  0  0  0  0  0  0  0
    2.3482   -1.8899   -1.0496 H   0  0  0  0  0  0  0  0  0  0  0  0
   -1.2168    1.1047    0.4313 C   0  0  0  0  0  0  0  0  0  0  0  0
   -2.0890    1.6186   -0.2704 O   0  0  0  0  0  0  0  0  0  0  0  0
   -0.4674    1.8182    1.2813 N   0  0  0  0  0  0  0  0  0  0  0  0
    0.2640    1.3348    1.7800 H   0  0  0  0  0  0  0  0  0  0  0  0
   -0.5889    3.2615    1.4722 C   0  0  0  0  0  0  0  0  0  0  0  0
   -1.6291    3.5206    1.6805 H   0  0  0  0  0  0  0  0  0  0  0  0
    0.0359    3.5855    2.3049 H   0  0  0  0  0  0  0  0  0  0  0  0
   -0.2760    3.7797    0.5637 H   0  0  0  0  0  0  0  0  0  0  0  0
  5  6  2  0  0  0  0
  5  7  1  0  0  0  0
  2  3  1  0  0  0  0
  2  4  1  0  0  0  0
  2  5  1  0  0  0  0
  1  2  1  0  0  0  0
 25 26  2  0  0  0  0
 25 27  1  0  0  0  0
 23 24  1  0  0  0  0
 21 22  1  0  0  0  0
 21 23  2  0  0  0  0
 19 20  1  0  0  0  0
 19 21  1  0  0  0  0
 17 18  1  0  0  0  0
 17 19  2  0  0  0  0
 15 16  1  0  0  0  0
 15 17  1  0  0  0  0
 14 15  2  0  0  0  0
 14 23  1  0  0  0  0
 11 12  1  0  0  0  0
 11 13  1  0  0  0  0
 11 14  1  0  0  0  0
  9 10  1  0  0  0  0
  9 11  1  0  0  0  0
  9 25  1  0  0  0  0
  7  8  1  0  0  0  0
  7  9  1  0  0  0  0
 29 30  1  0  0  0  0
 29 31  1  0  0  0  0
 29 32  1  0  0  0  0
 27 28  1  0  0  0  0
 27 29  1  0  0  0  0
M  END
$$$$
default_name
  -OEChem-02102213163D

 32 32  0     1  0  0  0  0  0999 V2000
   -3.8405   -3.7518    1.6252 H   0  0  0  0  0  0  0  0  0  0  0  0
   -3.7965   -2.8768    0.9782 C   0  0  0  0  0  0  0  0  0  0  0  0
   -4.5465   -2.1527    1.2902 H   0  0  0  0  0  0  0  0  0  0  0  0
   -3.9745   -3.1748   -0.0538 H   0  0  0  0  0  0  0  0  0  0  0  0
   -2.4245   -2.2537    1.0882 C   0  0  0  0  0  0  0  0  0  0  0  0
   -1.5805   -2.7478    1.8242 O   0  0  0  0  0  0  0  0  0  0  0  0
   -2.2045   -1.1637    0.3562 N   0  0  0  0  0  0  0  0  0  0  0  0
   -2.9595   -0.7907   -0.2008 H   0  0  0  0  0  0  0  0  0  0  0  0
   -0.9485   -0.4087    0.3482 C   0  0  1  0  0  0  0  0  0  0  0  0
   -0.3666   -0.6914    1.2269 H   0  0  0  0  0  0  0  0  0  0  0  0
   -0.1405   -0.7797   -0.9072 C   0  0  0  0  0  0  0  0  0  0  0  0
   -0.7210   -0.5187   -1.7932 H   0  0  0  0  0  0  0  0  0  0  0  0
    0.7739   -0.1849   -0.9278 H   0  0  0  0  0  0  0  0  0  0  0  0
    0.2172   -2.2511   -0.9962 C   0  0  0  0  0  0  0  0  0  0  0  0
   -0.7595   -3.2026   -1.3463 C   0  0  0  0  0  0  0  0  0  0  0  0
   -1.7779   -2.8919   -1.5320 H   0  0  0  0  0  0  0  0  0  0  0  0
   -0.4107   -4.5604   -1.4672 C   0  0  0  0  0  0  0  0  0  0  0  0
   -1.1627   -5.2898   -1.7336 H   0  0  0  0  0  0  0  0  0  0  0  0
    0.9146   -4.9688   -1.2402 C   0  0  0  0  0  0  0  0  0  0  0  0
    1.1820   -6.0123   -1.3308 H   0  0  0  0  0  0  0  0  0  0  0  0
    1.8927   -4.0207   -0.8887 C   0  0  0  0  0  0  0  0  0  0  0  0
    2.9102   -4.3352   -0.7089 H   0  0  0  0  0  0  0  0  0  0  0  0
    1.5431   -2.6643   -0.7648 C   0  0  0  0  0  0  0  0  0  0  0  0
    2.2957   -1.9364   -0.4910 H   0  0  0  0  0  0  0  0  0  0  0  0
   -1.2168    1.1047    0.4313 C   0  0  0  0  0  0  0  0  0  0  0  0
   -2.0890    1.6186   -0.2704 O   0  0  0  0  0  0  0  0  0  0  0  0
   -0.4674    1.8182    1.2813 N   0  0  0  0  0  0  0  0  0  0  0  0
    0.2640    1.3348    1.7800 H   0  0  0  0  0  0  0  0  0  0  0  0
   -0.5889    3.2615    1.4722 C   0  0  0  0  0  0  0  0  0  0  0  0
   -1.6291    3.5206    1.6805 H   0  0  0  0  0  0  0  0  0  0  0  0
    0.0359    3.5855    2.3049 H   0  0  0  0  0  0  0  0  0  0  0  0
   -0.2760    3.7797    0.5637 H   0  0  0  0  0  0  0  0  0  0  0  0
  5  6  2  0  0  0  0
  5  7  1  0  0  0  0
  2  3  1  0  0  0  0
  2  4  1  0  0  0  0
  2  5  1  0  0  0  0
  1  2  1  0  0  0  0
 25 26  2  0  0  0  0
 25 27  1  0  0  0  0
 23 24  1  0  0  0  0
 21 22  1  0  0  0  0
 21 23  2  0  0  0  0
 19 20  1  0  0  0  0
 19 21  1  0  0  0  0
 17 18  1  0  0  0  0
 17 19  2  0  0  0  0
 15 16  1  0  0  0  0
 15 17  1  0  0  0  0
 14 15  2  0  0  0  0
 14 23  1  0  0  0  0
 11 12  1  0  0  0  0
 11 13  1  0  0  0  0
 11 14  1  0  0  0  0
  9 10  1  0  0  0  0
  9 11  1  0  0  0  0
  9 25  1  0  0  0  0
  7  8  1  0  0  0  0
  7  9  1  0  0  0  0
 29 30  1  0  0  0  0
 29 31  1  0  0  0  0
 29 32  1  0  0  0  0
 27 28  1  0  0  0  0
 27 29  1  0  0  0  0
M  END
$$$$
default_name
  -OEChem-02102213163D

 32 32  0     1  0  0  0  0  0999 V2000
   -3.8405   -3.7518    1.6252 H   0  0  0  0  0  0  0  0  0  0  0  0
   -3.7965   -2.8768    0.9782 C   0  0  0  0  0  0  0  0  0  0  0  0
   -4.5465   -2.1527    1.2902 H   0  0  0  0  0  0  0  0  0  0  0  0
   -3.9745   -3.1748   -0.0538 H   0  0  0  0  0  0  0  0  0  0  0  0
   -2.4245   -2.2537    1.0882 C   0  0  0  0  0  0  0  0  0  0  0  0
   -1.5805   -2.7478    1.8242 O   0  0  0  0  0  0  0  0  0  0  0  0
   -2.2045   -1.1637    0.3562 N   0  0  0  0  0  0  0  0  0  0  0  0
   -2.9595   -0.7907   -0.2008 H   0  0  0  0  0  0  0  0  0  0  0  0
   -0.9485   -0.4087    0.3482 C   0  0  1  0  0  0  0  0  0  0  0  0
   -0.3666   -0.6914    1.2269 H   0  0  0  0  0  0  0  0  0  0  0  0
   -0.1405   -0.7797   -0.9072 C   0  0  0  0  0  0  0  0  0  0  0  0
   -0.7210   -0.5187   -1.7932 H   0  0  0  0  0  0  0  0  0  0  0  0
    0.7739   -0.1849   -0.9278 H   0  0  0  0  0  0  0  0  0  0  0  0
    0.2172   -2.2511   -0.9962 C   0  0  0  0  0  0  0  0  0  0  0  0
   -0.6470   -3.1576   -1.6391 C   0  0  0  0  0  0  0  0  0  0  0  0
   -1.5837   -2.8131   -2.0542 H   0  0  0  0  0  0  0  0  0  0  0  0
   -0.2891   -4.5135   -1.7540 C   0  0  0  0  0  0  0  0  0  0  0  0
   -0.9553   -5.2084   -2.2457 H   0  0  0  0  0  0  0  0  0  0  0  0
    0.9334   -4.9649   -1.2283 C   0  0  0  0  0  0  0  0  0  0  0  0
    1.2073   -6.0072   -1.3145 H   0  0  0  0  0  0  0  0  0  0  0  0
    1.7986   -4.0620   -0.5839 C   0  0  0  0  0  0  0  0  0  0  0  0
    2.7359   -4.4099   -0.1750 H   0  0  0  0  0  0  0  0  0  0  0  0
    1.4391   -2.7077   -0.4664 C   0  0  0  0  0  0  0  0  0  0  0  0
    2.1041   -2.0147    0.0325 H   0  0  0  0  0  0  0  0  0  0  0  0
   -1.2168    1.1047    0.4313 C   0  0  0  0  0  0  0  0  0  0  0  0
   -2.0890    1.6186   -0.2704 O   0  0  0  0  0  0  0  0  0  0  0  0
   -0.4674    1.8182    1.2813 N   0  0  0  0  0  0  0  0  0  0  0  0
    0.2640    1.3348    1.7800 H   0  0  0  0  0  0  0  0  0  0  0  0
   -0.5889    3.2615    1.4722 C   0  0  0  0  0  0  0  0  0  0  0  0
   -1.6291    3.5206    1.6805 H   0  0  0  0  0  0  0  0  0  0  0  0
    0.0359    3.5855    2.3049 H   0  0  0  0  0  0  0  0  0  0  0  0
   -0.2760    3.7797    0.5637 H   0  0  0  0  0  0  0  0  0  0  0  0
  5  6  2  0  0  0  0
  5  7  1  0  0  0  0
  2  3  1  0  0  0  0
  2  4  1  0  0  0  0
  2  5  1  0  0  0  0
  1  2  1  0  0  0  0
 25 26  2  0  0  0  0
 25 27  1  0  0  0  0
 23 24  1  0  0  0  0
 21 22  1  0  0  0  0
 21 23  2  0  0  0  0
 19 20  1  0  0  0  0
 19 21  1  0  0  0  0
 17 18  1  0  0  0  0
 17 19  2  0  0  0  0
 15 16  1  0  0  0  0
 15 17  1  0  0  0  0
 14 15  2  0  0  0  0
 14 23  1  0  0  0  0
 11 12  1  0  0  0  0
 11 13  1  0  0  0  0
 11 14  1  0  0  0  0
  9 10  1  0  0  0  0
  9 11  1  0  0  0  0
  9 25  1  0  0  0  0
  7  8  1  0  0  0  0
  7  9  1  0  0  0  0
 29 30  1  0  0  0  0
 29 31  1  0  0  0  0
 29 32  1  0  0  0  0
 27 28  1  0  0  0  0
 27 29  1  0  0  0  0
M  END
$$$$
default_name
  -OEChem-02102213163D

 32 32  0     1  0  0  0  0  0999 V2000
   -3.8405   -3.7518    1.6252 H   0  0  0  0  0  0  0  0  0  0  0  0
   -3.7965   -2.8768    0.9782 C   0  0  0  0  0  0  0  0  0  0  0  0
   -4.5465   -2.1527    1.2902 H   0  0  0  0  0  0  0  0  0  0  0  0
   -3.9745   -3.1748   -0.0538 H   0  0  0  0  0  0  0  0  0  0  0  0
   -2.4245   -2.2537    1.0882 C   0  0  0  0  0  0  0  0  0  0  0  0
   -1.5805   -2.7478    1.8242 O   0  0  0  0  0  0  0  0  0  0  0  0
   -2.2045   -1.1637    0.3562 N   0  0  0  0  0  0  0  0  0  0  0  0
   -2.9595   -0.7907   -0.2008 H   0  0  0  0  0  0  0  0  0  0  0  0
   -0.9485   -0.4087    0.3482 C   0  0  1  0  0  0  0  0  0  0  0  0
   -0.3666   -0.6914    1.2269 H   0  0  0  0  0  0  0  0  0  0  0  0
   -0.1405   -0.7797   -0.9072 C   0  0  0  0  0  0  0  0  0  0  0  0
   -0.7210   -0.5187   -1.7932 H   0  0  0  0  0  0  0  0  0  0  0  0
    0.7739   -0.1849   -0.9278 H   0  0  0  0  0  0  0  0  0  0  0  0
    0.2172   -2.2511   -0.9962 C   0  0  0  0  0  0  0  0  0  0  0  0
   -0.4642   -3.0979   -1.8909 C   0  0  0  0  0  0  0  0  0  0  0  0
   -1.2638   -2.7081   -2.5049 H   0  0  0  0  0  0  0  0  0  0  0  0
   -0.0989   -4.4525   -1.9976 C   0  0  0  0  0  0  0  0  0  0  0  0
   -0.6251   -5.1016   -2.6833 H   0  0  0  0  0  0  0  0  0  0  0  0
    0.9487   -4.9622   -1.2118 C   0  0  0  0  0  0  0  0  0  0  0  0
    1.2277   -6.0035   -1.2921 H   0  0  0  0  0  0  0  0  0  0  0  0
    1.6306   -4.1191   -0.3157 C   0  0  0  0  0  0  0  0  0  0  0  0
    2.4323   -4.5120    0.2923 H   0  0  0  0  0  0  0  0  0  0  0  0
    1.2632   -2.7661   -0.2069 C   0  0  0  0  0  0  0  0  0  0  0  0
    1.7864   -2.1193    0.4853 H   0  0  0  0  0  0  0  0  0  0  0  0
   -1.2168    1.1047    0.4313 C   0  0  0  0  0  0  0  0  0  0  0  0
   -2.0890    1.6186   -0.2704 O   0  0  0  0  0  0  0  0  0  0  0  0
   -0.4674    1.8182    1.2813 N   0  0  0  0  0  0  0  0  0  0  0  0
    0.2640    1.3348    1.7800 H   0  0  0  0  0  0  0  0  0  0  0  0
   -0.5889    3.2615    1.4722 C   0  0  0  0  0  0  0  0  0  0  0  0
   -1.6291    3.5206    1.6805 H   0  0  0  0  0  0  0  0  0  0  0  0
    0.0359    3.5855    2.3049 H   0  0  0  0  0  0  0  0  0  0  0  0
   -0.2760    3.7797    0.5637 H   0  0  0  0  0  0  0  0  0  0  0  0
  5  6  2  0  0  0  0
  5  7  1  0  0  0  0
  2  3  1  0  0  0  0
  2  4  1  0  0  0  0
  2  5  1  0  0  0  0
  1  2  1  0  0  0  0
 25 26  2  0  0  0  0
 25 27  1  0  0  0  0
 23 24  1  0  0  0  0
 21 22  1  0  0  0  0
 21 23  2  0  0  0  0
 19 20  1  0  0  0  0
 19 21  1  0  0  0  0
 17 18  1  0  0  0  0
 17 19  2  0  0  0  0
 15 16  1  0  0  0  0
 15 17  1  0  0  0  0
 14 15  2  0  0  0  0
 14 23  1  0  0  0  0
 11 12  1  0  0  0  0
 11 13  1  0  0  0  0
 11 14  1  0  0  0  0
  9 10  1  0  0  0  0
  9 11  1  0  0  0  0
  9 25  1  0  0  0  0
  7  8  1  0  0  0  0
  7  9  1  0  0  0  0
 29 30  1  0  0  0  0
 29 31  1  0  0  0  0
 29 32  1  0  0  0  0
 27 28  1  0  0  0  0
 27 29  1  0  0  0  0
M  END
$$$$
default_name
  -OEChem-02102213163D

 32 32  0     1  0  0  0  0  0999 V2000
   -3.8405   -3.7518    1.6252 H   0  0  0  0  0  0  0  0  0  0  0  0
   -3.7965   -2.8768    0.9782 C   0  0  0  0  0  0  0  0  0  0  0  0
   -4.5465   -2.1527    1.2902 H   0  0  0  0  0  0  0  0  0  0  0  0
   -3.9745   -3.1748   -0.0538 H   0  0  0  0  0  0  0  0  0  0  0  0
   -2.4245   -2.2537    1.0882 C   0  0  0  0  0  0  0  0  0  0  0  0
   -1.5805   -2.7478    1.8242 O   0  0  0  0  0  0  0  0  0  0  0  0
   -2.2045   -1.1637    0.3562 N   0  0  0  0  0  0  0  0  0  0  0  0
   -2.9595   -0.7907   -0.2008 H   0  0  0  0  0  0  0  0  0  0  0  0
   -0.9485   -0.4087    0.3482 C   0  0  1  0  0  0  0  0  0  0  0  0
   -0.3666   -0.6914    1.2269 H   0  0  0  0  0  0  0  0  0  0  0  0
   -0.1405   -0.7797   -0.9072 C   0  0  0  0  0  0  0  0  0  0  0  0
   -0.7210   -0.5187   -1.7932 H   0  0  0  0  0  0  0  0  0  0  0  0
    0.7739   -0.1849   -0.9278 H   0  0  0  0  0  0  0  0  0  0  0  0
    0.2172   -2.2511   -0.9962 C   0  0  0  0  0  0  0  0  0  0  0  0
   -0.2235   -3.0277   -2.0846 C   0  0  0  0  0  0  0  0  0  0  0  0
   -0.8400   -2.5840   -2.8536 H   0  0  0  0  0  0  0  0  0  0  0  0
    0.1469   -4.3817   -2.1814 C   0  0  0  0  0  0  0  0  0  0  0  0
   -0.1947   -4.9768   -3.0166 H   0  0  0  0  0  0  0  0  0  0  0  0
    0.9594   -4.9608   -1.1919 C   0  0  0  0  0  0  0  0  0  0  0  0
    1.2419   -6.0017   -1.2651 H   0  0  0  0  0  0  0  0  0  0  0  0
    1.4002   -4.1880   -0.1022 C   0  0  0  0  0  0  0  0  0  0  0  0
    2.0202   -4.6345    0.6613 H   0  0  0  0  0  0  0  0  0  0  0  0
    1.0272   -2.8358   -0.0040 C   0  0  0  0  0  0  0  0  0  0  0  0
    1.3642   -2.2432    0.8365 H   0  0  0  0  0  0  0  0  0  0  0  0
   -1.2168    1.1047    0.4313 C   0  0  0  0  0  0  0  0  0  0  0  0
   -2.0890    1.6186   -0.2704 O   0  0  0  0  0  0  0  0  0  0  0  0
   -0.4674    1.8182    1.2813 N   0  0  0  0  0  0  0  0  0  0  0  0
    0.2640    1.3348    1.7800 H   0  0  0  0  0  0  0  0  0  0  0  0
   -0.5889    3.2615    1.4722 C   0  0  0  0  0  0  0  0  0  0  0  0
   -1.6291    3.5206    1.6805 H   0  0  0  0  0  0  0  0  0  0  0  0
    0.0359    3.5855    2.3049 H   0  0  0  0  0  0  0  0  0  0  0  0
   -0.2760    3.7797    0.5637 H   0  0  0  0  0  0  0  0  0  0  0  0
  5  6  2  0  0  0  0
  5  7  1  0  0  0  0
  2  3  1  0  0  0  0
  2  4  1  0  0  0  0
  2  5  1  0  0  0  0
  1  2  1  0  0  0  0
 25 26  2  0  0  0  0
 25 27  1  0  0  0  0
 23 24  1  0  0  0  0
 21 22  1  0  0  0  0
 21 23  2  0  0  0  0
 19 20  1  0  0  0  0
 19 21  1  0  0  0  0
 17 18  1  0  0  0  0
 17 19  2  0  0  0  0
 15 16  1  0  0  0  0
 15 17  1  0  0  0  0
 14 15  2  0  0  0  0
 14 23  1  0  0  0  0
 11 12  1  0  0  0  0
 11 13  1  0  0  0  0
 11 14  1  0  0  0  0
  9 10  1  0  0  0  0
  9 11  1  0  0  0  0
  9 25  1  0  0  0  0
  7  8  1  0  0  0  0
  7  9  1  0  0  0  0
 29 30  1  0  0  0  0
 29 31  1  0  0  0  0
 29 32  1  0  0  0  0
 27 28  1  0  0  0  0
 27 29  1  0  0  0  0
M  END
$$$$
default_name
  -OEChem-02102213163D

 32 32  0     1  0  0  0  0  0999 V2000
   -3.8405   -3.7518    1.6252 H   0  0  0  0  0  0  0  0  0  0  0  0
   -3.7965   -2.8768    0.9782 C   0  0  0  0  0  0  0  0  0  0  0  0
   -4.5465   -2.1527    1.2902 H   0  0  0  0  0  0  0  0  0  0  0  0
   -3.9745   -3.1748   -0.0538 H   0  0  0  0  0  0  0  0  0  0  0  0
   -2.4245   -2.2537    1.0882 C   0  0  0  0  0  0  0  0  0  0  0  0
   -1.5805   -2.7478    1.8242 O   0  0  0  0  0  0  0  0  0  0  0  0
   -2.2045   -1.1637    0.3562 N   0  0  0  0  0  0  0  0  0  0  0  0
   -2.9595   -0.7907   -0.2008 H   0  0  0  0  0  0  0  0  0  0  0  0
   -0.9485   -0.4087    0.3482 C   0  0  1  0  0  0  0  0  0  0  0  0
   -0.3666   -0.6914    1.2269 H   0  0  0  0  0  0  0  0  0  0  0  0
   -0.1405   -0.7797   -0.9072 C   0  0  0  0  0  0  0  0  0  0  0  0
   -0.7210   -0.5187   -1.7932 H   0  0  0  0  0  0  0  0  0  0  0  0
    0.7739   -0.1849   -0.9278 H   0  0  0  0  0  0  0  0  0  0  0  0
    0.2172   -2.2511   -0.9962 C   0  0  0  0  0  0  0  0  0  0  0  0
    0.0587   -2.9516   -2.2070 C   0  0  0  0  0  0  0  0  0  0  0  0
   -0.3413   -2.4492   -3.0764 H   0  0  0  0  0  0  0  0  0  0  0  0
    0.4315   -4.3057   -2.2930 C   0  0  0  0  0  0  0  0  0  0  0  0
    0.3066   -4.8425   -3.2229 H   0  0  0  0  0  0  0  0  0  0  0  0
    0.9647   -4.9609   -1.1700 C   0  0  0  0  0  0  0  0  0  0  0  0
    1.2488   -6.0018   -1.2354 H   0  0  0  0  0  0  0  0  0  0  0  0
    1.1229   -4.2642    0.0419 C   0  0  0  0  0  0  0  0  0  0  0  0
    1.5277   -4.7691    0.9067 H   0  0  0  0  0  0  0  0  0  0  0  0
    0.7473   -2.9119    0.1284 C   0  0  0  0  0  0  0  0  0  0  0  0
    0.8664   -2.3779    1.0622 H   0  0  0  0  0  0  0  0  0  0  0  0
   -1.2168    1.1047    0.4313 C   0  0  0  0  0  0  0  0  0  0  0  0
   -2.0890    1.6186   -0.2704 O   0  0  0  0  0  0  0  0  0  0  0  0
   -0.4674    1.8182    1.2813 N   0  0  0  0  0  0  0  0  0  0  0  0
    0.2640    1.3348    1.7800 H   0  0  0  0  0  0  0  0  0  0  0  0
   -0.5889    3.2615    1.4722 C   0  0  0  0  0  0  0  0  0  0  0  0
   -1.6291    3.5206    1.6805 H   0  0  0  0  0  0  0  0  0  0  0  0
    0.0359    3.5855    2.3049 H   0  0  0  0  0  0  0  0  0  0  0  0
   -0.2760    3.7797    0.5637 H   0  0  0  0  0  0  0  0  0  0  0  0
  5  6  2  0  0  0  0
  5  7  1  0  0  0  0
  2  3  1  0  0  0  0
  2  4  1  0  0  0  0
  2  5  1  0  0  0  0
  1  2  1  0  0  0  0
 25 26  2  0  0  0  0
 25 27  1  0  0  0  0
 23 24  1  0  0  0  0
 21 22  1  0  0  0  0
 21 23  2  0  0  0  0
 19 20  1  0  0  0  0
 19 21  1  0  0  0  0
 17 18  1  0  0  0  0
 17 19  2  0  0  0  0
 15 16  1  0  0  0  0
 15 17  1  0  0  0  0
 14 15  2  0  0  0  0
 14 23  1  0  0  0  0
 11 12  1  0  0  0  0
 11 13  1  0  0  0  0
 11 14  1  0  0  0  0
  9 10  1  0  0  0  0
  9 11  1  0  0  0  0
  9 25  1  0  0  0  0
  7  8  1  0  0  0  0
  7  9  1  0  0  0  0
 29 30  1  0  0  0  0
 29 31  1  0  0  0  0
 29 32  1  0  0  0  0
 27 28  1  0  0  0  0
 27 29  1  0  0  0  0
M  END
$$$$
default_name
  -OEChem-02102213163D

 32 32  0     1  0  0  0  0  0999 V2000
   -3.8405   -3.7518    1.6252 H   0  0  0  0  0  0  0  0  0  0  0  0
   -3.7965   -2.8768    0.9782 C   0  0  0  0  0  0  0  0  0  0  0  0
   -4.5465   -2.1527    1.2902 H   0  0  0  0  0  0  0  0  0  0  0  0
   -3.9745   -3.1748   -0.0538 H   0  0  0  0  0  0  0  0  0  0  0  0
   -2.4245   -2.2537    1.0882 C   0  0  0  0  0  0  0  0  0  0  0  0
   -1.5805   -2.7478    1.8242 O   0  0  0  0  0  0  0  0  0  0  0  0
   -2.2045   -1.1637    0.3562 N   0  0  0  0  0  0  0  0  0  0  0  0
   -2.9595   -0.7907   -0.2008 H   0  0  0  0  0  0  0  0  0  0  0  0
   -0.9485   -0.4087    0.3482 C   0  0  1  0  0  0  0  0  0  0  0  0
   -0.3666   -0.6914    1.2269 H   0  0  0  0  0  0  0  0  0  0  0  0
   -0.1405   -0.7797   -0.9072 C   0  0  0  0  0  0  0  0  0  0  0  0
   -0.7210   -0.5187   -1.7932 H   0  0  0  0  0  0  0  0  0  0  0  0
    0.7739   -0.1849   -0.9278 H   0  0  0  0  0  0  0  0  0  0  0  0
    0.2172   -2.2511   -0.9962 C   0  0  0  0  0  0  0  0  0  0  0  0
    0.3632   -2.8750   -2.2497 C   0  0  0  0  0  0  0  0  0  0  0  0
    0.1985   -2.3131   -3.1582 H   0  0  0  0  0  0  0  0  0  0  0  0
    0.7356   -4.2299   -2.3246 C   0  0  0  0  0  0  0  0  0  0  0  0
    0.8446   -4.7077   -3.2881 H   0  0  0  0  0  0  0  0  0  0  0  0
    0.9643   -4.9623   -1.1474 C   0  0  0  0  0  0  0  0  0  0  0  0
    1.2481   -6.0039   -1.2050 H   0  0  0  0  0  0  0  0  0  0  0  0
    0.8178   -4.3423    0.1068 C   0  0  0  0  0  0  0  0  0  0  0  0
    0.9883   -4.9066    1.0119 H   0  0  0  0  0  0  0  0  0  0  0  0
    0.4424   -2.9892    0.1815 C   0  0  0  0  0  0  0  0  0  0  0  0
    0.3268   -2.5142    1.1470 H   0  0  0  0  0  0  0  0  0  0  0  0
   -1.2168    1.1047    0.4313 C   0  0  0  0  0  0  0  0  0  0  0  0
   -2.0890    1.6186   -0.2704 O   0  0  0  0  0  0  0  0  0  0  0  0
   -0.4674    1.8182    1.2813 N   0  0  0  0  0  0  0  0  0  0  0  0
    0.2640    1.3348    1.7800 H   0  0  0  0  0  0  0  0  0  0  0  0
   -0.5889    3.2615    1.4722 C   0  0  0  0  0  0  0  0  0  0  0  0
   -1.6291    3.5206    1.6805 H   0  0  0  0  0  0  0  0  0  0  0  0
    0.0359    3.5855    2.3049 H   0  0  0  0  0  0  0  0  0  0  0  0
   -0.2760    3.7797    0.5637 H   0  0  0  0  0  0  0  0  0  0  0  0
  5  6  2  0  0  0  0
  5  7  1  0  0  0  0
  2  3  1  0  0  0  0
  2  4  1  0  0  0  0
  2  5  1  0  0  0  0
  1  2  1  0  0  0  0
 25 26  2  0  0  0  0
 25 27  1  0  0  0  0
 23 24  1  0  0  0  0
 21 22  1  0  0  0  0
 21 23  2  0  0  0  0
 19 20  1  0  0  0  0
 19 21  1  0  0  0  0
 17 18  1  0  0  0  0
 17 19  2  0  0  0  0
 15 16  1  0  0  0  0
 15 17  1  0  0  0  0
 14 15  2  0  0  0  0
 14 23  1  0  0  0  0
 11 12  1  0  0  0  0
 11 13  1  0  0  0  0
 11 14  1  0  0  0  0
  9 10  1  0  0  0  0
  9 11  1  0  0  0  0
  9 25  1  0  0  0  0
  7  8  1  0  0  0  0
  7  9  1  0  0  0  0
 29 30  1  0  0  0  0
 29 31  1  0  0  0  0
 29 32  1  0  0  0  0
 27 28  1  0  0  0  0
 27 29  1  0  0  0  0
M  END
$$$$
default_name
  -OEChem-02102213163D

 32 32  0     1  0  0  0  0  0999 V2000
   -3.8405   -3.7518    1.6252 H   0  0  0  0  0  0  0  0  0  0  0  0
   -3.7965   -2.8768    0.9782 C   0  0  0  0  0  0  0  0  0  0  0  0
   -4.5465   -2.1527    1.2902 H   0  0  0  0  0  0  0  0  0  0  0  0
   -3.9745   -3.1748   -0.0538 H   0  0  0  0  0  0  0  0  0  0  0  0
   -2.4245   -2.2537    1.0882 C   0  0  0  0  0  0  0  0  0  0  0  0
   -1.5805   -2.7478    1.8242 O   0  0  0  0  0  0  0  0  0  0  0  0
   -2.2045   -1.1637    0.3562 N   0  0  0  0  0  0  0  0  0  0  0  0
   -2.9595   -0.7907   -0.2008 H   0  0  0  0  0  0  0  0  0  0  0  0
   -0.9485   -0.4087    0.3482 C   0  0  1  0  0  0  0  0  0  0  0  0
   -0.3666   -0.6914    1.2269 H   0  0  0  0  0  0  0  0  0  0  0  0
   -0.1405   -0.7797   -0.9072 C   0  0  0  0  0  0  0  0  0  0  0  0
   -0.7210   -0.5187   -1.7932 H   0  0  0  0  0  0  0  0  0  0  0  0
    0.7739   -0.1849   -0.9278 H   0  0  0  0  0  0  0  0  0  0  0  0
    0.2172   -2.2511   -0.9962 C   0  0  0  0  0  0  0  0  0  0  0  0
    0.6692   -2.8031   -2.2098 C   0  0  0  0  0  0  0  0  0  0  0  0
    0.7424   -2.1848   -3.0933 H   0  0  0  0  0  0  0  0  0  0  0  0
    1.0384   -4.1593   -2.2742 C   0  0  0  0  0  0  0  0  0  0  0  0
    1.3828   -4.5818   -3.2077 H   0  0  0  0  0  0  0  0  0  0  0  0
    0.9582   -4.9651   -1.1258 C   0  0  0  0  0  0  0  0  0  0  0  0
    1.2397   -6.0077   -1.1759 H   0  0  0  0  0  0  0  0  0  0  0  0
    0.5055   -4.4171    0.0882 C   0  0  0  0  0  0  0  0  0  0  0  0
    0.4387   -5.0376    0.9697 H   0  0  0  0  0  0  0  0  0  0  0  0
    0.1335   -3.0624    0.1514 C   0  0  0  0  0  0  0  0  0  0  0  0
   -0.2178   -2.6428    1.0852 H   0  0  0  0  0  0  0  0  0  0  0  0
   -1.2168    1.1047    0.4313 C   0  0  0  0  0  0  0  0  0  0  0  0
   -2.0890    1.6186   -0.2704 O   0  0  0  0  0  0  0  0  0  0  0  0
   -0.4674    1.8182    1.2813 N   0  0  0  0  0  0  0  0  0  0  0  0
    0.2640    1.3348    1.7800 H   0  0  0  0  0  0  0  0  0  0  0  0
   -0.5889    3.2615    1.4722 C   0  0  0  0  0  0  0  0  0  0  0  0
   -1.6291    3.5206    1.6805 H   0  0  0  0  0  0  0  0  0  0  0  0
    0.0359    3.5855    2.3049 H   0  0  0  0  0  0  0  0  0  0  0  0
   -0.2760    3.7797    0.5637 H   0  0  0  0  0  0  0  0  0  0  0  0
  5  6  2  0  0  0  0
  5  7  1  0  0  0  0
  2  3  1  0  0  0  0
  2  4  1  0  0  0  0
  2  5  1  0  0  0  0
  1  2  1  0  0  0  0
 25 26  2  0  0  0  0
 25 27  1  0  0  0  0
 23 24  1  0  0  0  0
 21 22  1  0  0  0  0
 21 23  2  0  0  0  0
 19 20  1  0  0  0  0
 19 21  1  0  0  0  0
 17 18  1  0  0  0  0
 17 19  2  0  0  0  0
 15 16  1  0  0  0  0
 15 17  1  0  0  0  0
 14 15  2  0  0  0  0
 14 23  1  0  0  0  0
 11 12  1  0  0  0  0
 11 13  1  0  0  0  0
 11 14  1  0  0  0  0
  9 10  1  0  0  0  0
  9 11  1  0  0  0  0
  9 25  1  0  0  0  0
  7  8  1  0  0  0  0
  7  9  1  0  0  0  0
 29 30  1  0  0  0  0
 29 31  1  0  0  0  0
 29 32  1  0  0  0  0
 27 28  1  0  0  0  0
 27 29  1  0  0  0  0
M  END
$$$$
default_name
  -OEChem-02102213163D

 32 32  0     1  0  0  0  0  0999 V2000
   -3.8405   -3.7518    1.6252 H   0  0  0  0  0  0  0  0  0  0  0  0
   -3.7965   -2.8768    0.9782 C   0  0  0  0  0  0  0  0  0  0  0  0
   -4.5465   -2.1527    1.2902 H   0  0  0  0  0  0  0  0  0  0  0  0
   -3.9745   -3.1748   -0.0538 H   0  0  0  0  0  0  0  0  0  0  0  0
   -2.4245   -2.2537    1.0882 C   0  0  0  0  0  0  0  0  0  0  0  0
   -1.5805   -2.7478    1.8242 O   0  0  0  0  0  0  0  0  0  0  0  0
   -2.2045   -1.1637    0.3562 N   0  0  0  0  0  0  0  0  0  0  0  0
   -2.9595   -0.7907   -0.2008 H   0  0  0  0  0  0  0  0  0  0  0  0
   -0.9485   -0.4087    0.3482 C   0  0  1  0  0  0  0  0  0  0  0  0
   -0.3666   -0.6914    1.2269 H   0  0  0  0  0  0  0  0  0  0  0  0
   -0.1405   -0.7797   -0.9072 C   0  0  0  0  0  0  0  0  0  0  0  0
   -0.5845   -0.2874   -1.7736 H   0  0  0  0  0  0  0  0  0  0  0  0
    0.8760   -0.3984   -0.7990 H   0  0  0  0  0  0  0  0  0  0  0  0
   -0.0892   -2.2694   -1.1880 C   0  0  0  0  0  0  0  0  0  0  0  0
    0.6142   -2.7611   -2.3039 C   0  0  0  0  0  0  0  0  0  0  0  0
    1.1040   -2.0762   -2.9817 H   0  0  0  0  0  0  0  0  0  0  0  0
    0.6919   -4.1469   -2.5348 C   0  0  0  0  0  0  0  0  0  0  0  0
    1.2304   -4.5222   -3.3937 H   0  0  0  0  0  0  0  0  0  0  0  0
    0.0687   -5.0432   -1.6499 C   0  0  0  0  0  0  0  0  0  0  0  0
    0.1265   -6.1078   -1.8286 H   0  0  0  0  0  0  0  0  0  0  0  0
   -0.6363   -4.5551   -0.5347 C   0  0  0  0  0  0  0  0  0  0  0  0
   -1.1200   -5.2437    0.1426 H   0  0  0  0  0  0  0  0  0  0  0  0
   -0.7166   -3.1700   -0.3060 C   0  0  0  0  0  0  0  0  0  0  0  0
   -1.2620   -2.7956    0.5505 H   0  0  0  0  0  0  0  0  0  0  0  0
   -1.2168    1.1047    0.4313 C   0  0  0  0  0  0  0  0  0  0  0  0
   -2.0890    1.6186   -0.2704 O   0  0  0  0  0  0  0  0  0  0  0  0
   -0.4674    1.8182    1.2813 N   0  0  0  0  0  0  0  0  0  0  0  0
    0.2640    1.3348    1.7800 H   0  0  0  0  0  0  0  0  0  0  0  0
   -0.5889    3.2615    1.4722 C   0  0  0  0  0  0  0  0  0  0  0  0
   -1.6291    3.5206    1.6805 H   0  0  0  0  0  0  0  0  0  0  0  0
    0.0359    3.5855    2.3049 H   0  0  0  0  0  0  0  0  0  0  0  0
   -0.2760    3.7797    0.5637 H   0  0  0  0  0  0  0  0  0  0  0  0
  5  6  2  0  0  0  0
  5  7  1  0  0  0  0
  2  3  1  0  0  0  0
  2  4  1  0  0  0  0
  2  5  1  0  0  0  0
  1  2  1  0  0  0  0
 25 26  2  0  0  0  0
 25 27  1  0  0  0  0
 23 24  1  0  0  0  0
 21 22  1  0  0  0  0
 21 23  2  0  0  0  0
 19 20  1  0  0  0  0
 19 21  1  0  0  0  0
 17 18  1  0  0  0  0
 17 19  2  0  0  0  0
 15 16  1  0  0  0  0
 15 17  1  0  0  0  0
 14 15  2  0  0  0  0
 14 23  1  0  0  0  0
 11 12  1  0  0  0  0
 11 13  1  0  0  0  0
 11 14  1  0  0  0  0
  9 10  1  0  0  0  0
  9 11  1  0  0  0  0
  9 25  1  0  0  0  0
  7  8  1  0  0  0  0
  7  9  1  0  0  0  0
 29 30  1  0  0  0  0
 29 31  1  0  0  0  0
 29 32  1  0  0  0  0
 27 28  1  0  0  0  0
 27 29  1  0  0  0  0
M  END
$$$$
default_name
  -OEChem-02102213163D

 32 32  0     1  0  0  0  0  0999 V2000
   -3.8405   -3.7518    1.6252 H   0  0  0  0  0  0  0  0  0  0  0  0
   -3.7965   -2.8768    0.9782 C   0  0  0  0  0  0  0  0  0  0  0  0
   -4.5465   -2.1527    1.2902 H   0  0  0  0  0  0  0  0  0  0  0  0
   -3.9745   -3.1748   -0.0538 H   0  0  0  0  0  0  0  0  0  0  0  0
   -2.4245   -2.2537    1.0882 C   0  0  0  0  0  0  0  0  0  0  0  0
   -1.5805   -2.7478    1.8242 O   0  0  0  0  0  0  0  0  0  0  0  0
   -2.2045   -1.1637    0.3562 N   0  0  0  0  0  0  0  0  0  0  0  0
   -2.9595   -0.7907   -0.2008 H   0  0  0  0  0  0  0  0  0  0  0  0
   -0.9485   -0.4087    0.3482 C   0  0  1  0  0  0  0  0  0  0  0  0
   -0.3666   -0.6914    1.2269 H   0  0  0  0  0  0  0  0  0  0  0  0
   -0.1405   -0.7797   -0.9072 C   0  0  0  0  0  0  0  0  0  0  0  0
   -0.5845   -0.2874   -1.7736 H   0  0  0  0  0  0  0  0  0  0  0  0
    0.8760   -0.3984   -0.7990 H   0  0  0  0  0  0  0  0  0  0  0  0
   -0.0892   -2.2694   -1.1880 C   0  0  0  0  0  0  0  0  0  0  0  0
    0.8512   -2.7922   -2.0959 C   0  0  0  0  0  0  0  0  0  0  0  0
    1.5287   -2.1304   -2.6167 H   0  0  0  0  0  0  0  0  0  0  0  0
    0.9202   -4.1795   -2.3201 C   0  0  0  0  0  0  0  0  0  0  0  0
    1.6412   -4.5786   -3.0197 H   0  0  0  0  0  0  0  0  0  0  0  0
    0.0511   -5.0464   -1.6361 C   0  0  0  0  0  0  0  0  0  0  0  0
    0.1026   -6.1121   -1.8102 H   0  0  0  0  0  0  0  0  0  0  0  0
   -0.8908   -4.5272   -0.7293 C   0  0  0  0  0  0  0  0  0  0  0  0
   -1.5625   -5.1929   -0.2075 H   0  0  0  0  0  0  0  0  0  0  0  0
   -0.9617   -3.1404   -0.5079 C   0  0  0  0  0  0  0  0  0  0  0  0
   -1.6890   -2.7419    0.1875 H   0  0  0  0  0  0  0  0  0  0  0  0
   -1.2168    1.1047    0.4313 C   0  0  0  0  0  0  0  0  0  0  0  0
   -2.0890    1.6186   -0.2704 O   0  0  0  0  0  0  0  0  0  0  0  0
   -0.4674    1.8182    1.2813 N   0  0  0  0  0  0  0  0  0  0  0  0
    0.2640    1.3348    1.7800 H   0  0  0  0  0  0  0  0  0  0  0  0
   -0.5889    3.2615    1.4722 C   0  0  0  0  0  0  0  0  0  0  0  0
   -1.6291    3.5206    1.6805 H   0  0  0  0  0  0  0  0  0  0  0  0
    0.0359    3.5855    2.3049 H   0  0  0  0  0  0  0  0  0  0  0  0
   -0.2760    3.7797    0.5637 H   0  0  0  0  0  0  0  0  0  0  0  0
  5  6  2  0  0  0  0
  5  7  1  0  0  0  0
  2  3  1  0  0  0  0
  2  4  1  0  0  0  0
  2  5  1  0  0  0  0
  1  2  1  0  0  0  0
 25 26  2  0  0  0  0
 25 27  1  0  0  0  0
 23 24  1  0  0  0  0
 21 22  1  0  0  0  0
 21 23  2  0  0  0  0
 19 20  1  0  0  0  0
 19 21  1  0  0  0  0
 17 18  1  0  0  0  0
 17 19  2  0  0  0  0
 15 16  1  0  0  0  0
 15 17  1  0  0  0  0
 14 15  2  0  0  0  0
 14 23  1  0  0  0  0
 11 12  1  0  0  0  0
 11 13  1  0  0  0  0
 11 14  1  0  0  0  0
  9 10  1  0  0  0  0
  9 11  1  0  0  0  0
  9 25  1  0  0  0  0
  7  8  1  0  0  0  0
  7  9  1  0  0  0  0
 29 30  1  0  0  0  0
 29 31  1  0  0  0  0
 29 32  1  0  0  0  0
 27 28  1  0  0  0  0
 27 29  1  0  0  0  0
M  END
$$$$
default_name
  -OEChem-02102213163D

 32 32  0     1  0  0  0  0  0999 V2000
   -3.8405   -3.7518    1.6252 H   0  0  0  0  0  0  0  0  0  0  0  0
   -3.7965   -2.8768    0.9782 C   0  0  0  0  0  0  0  0  0  0  0  0
   -4.5465   -2.1527    1.2902 H   0  0  0  0  0  0  0  0  0  0  0  0
   -3.9745   -3.1748   -0.0538 H   0  0  0  0  0  0  0  0  0  0  0  0
   -2.4245   -2.2537    1.0882 C   0  0  0  0  0  0  0  0  0  0  0  0
   -1.5805   -2.7478    1.8242 O   0  0  0  0  0  0  0  0  0  0  0  0
   -2.2045   -1.1637    0.3562 N   0  0  0  0  0  0  0  0  0  0  0  0
   -2.9595   -0.7907   -0.2008 H   0  0  0  0  0  0  0  0  0  0  0  0
   -0.9485   -0.4087    0.3482 C   0  0  1  0  0  0  0  0  0  0  0  0
   -0.3666   -0.6914    1.2269 H   0  0  0  0  0  0  0  0  0  0  0  0
   -0.1405   -0.7797   -0.9072 C   0  0  0  0  0  0  0  0  0  0  0  0
   -0.5845   -0.2874   -1.7736 H   0  0  0  0  0  0  0  0  0  0  0  0
    0.8760   -0.3984   -0.7990 H   0  0  0  0  0  0  0  0  0  0  0  0
   -0.0892   -2.2694   -1.1880 C   0  0  0  0  0  0  0  0  0  0  0  0
    1.0257   -2.8353   -1.8350 C   0  0  0  0  0  0  0  0  0  0  0  0
    1.8437   -2.2062   -2.1567 H   0  0  0  0  0  0  0  0  0  0  0  0
    1.0845   -4.2238   -2.0551 C   0  0  0  0  0  0  0  0  0  0  0  0
    1.9403   -4.6560   -2.5544 H   0  0  0  0  0  0  0  0  0  0  0  0
    0.0304   -5.0488   -1.6272 C   0  0  0  0  0  0  0  0  0  0  0  0
    0.0746   -6.1153   -1.7984 H   0  0  0  0  0  0  0  0  0  0  0  0
   -1.0858   -4.4864   -0.9817 C   0  0  0  0  0  0  0  0  0  0  0  0
   -1.8986   -5.1196   -0.6576 H   0  0  0  0  0  0  0  0  0  0  0  0
   -1.1458   -3.0983   -0.7649 C   0  0  0  0  0  0  0  0  0  0  0  0
   -2.0066   -2.6664   -0.2711 H   0  0  0  0  0  0  0  0  0  0  0  0
   -1.2168    1.1047    0.4313 C   0  0  0  0  0  0  0  0  0  0  0  0
   -2.0890    1.6186   -0.2704 O   0  0  0  0  0  0  0  0  0  0  0  0
   -0.4674    1.8182    1.2813 N   0  0  0  0  0  0  0  0  0  0  0  0
    0.2640    1.3348    1.7800 H   0  0  0  0  0  0  0  0  0  0  0  0
   -0.5889    3.2615    1.4722 C   0  0  0  0  0  0  0  0  0  0  0  0
   -1.6291    3.5206    1.6805 H   0  0  0  0  0  0  0  0  0  0  0  0
    0.0359    3.5855    2.3049 H   0  0  0  0  0  0  0  0  0  0  0  0
   -0.2760    3.7797    0.5637 H   0  0  0  0  0  0  0  0  0  0  0  0
  5  6  2  0  0  0  0
  5  7  1  0  0  0  0
  2  3  1  0  0  0  0
  2  4  1  0  0  0  0
  2  5  1  0  0  0  0
  1  2  1  0  0  0  0
 25 26  2  0  0  0  0
 25 27  1  0  0  0  0
 23 24  1  0  0  0  0
 21 22  1  0  0  0  0
 21 23  2  0  0  0  0
 19 20  1  0  0  0  0
 19 21  1  0  0  0  0
 17 18  1  0  0  0  0
 17 19  2  0  0  0  0
 15 16  1  0  0  0  0
 15 17  1  0  0  0  0
 14 15  2  0  0  0  0
 14 23  1  0  0  0  0
 11 12  1  0  0  0  0
 11 13  1  0  0  0  0
 11 14  1  0  0  0  0
  9 10  1  0  0  0  0
  9 11  1  0  0  0  0
  9 25  1  0  0  0  0
  7  8  1  0  0  0  0
  7  9  1  0  0  0  0
 29 30  1  0  0  0  0
 29 31  1  0  0  0  0
 29 32  1  0  0  0  0
 27 28  1  0  0  0  0
 27 29  1  0  0  0  0
M  END
$$$$
default_name
  -OEChem-02102213163D

 32 32  0     1  0  0  0  0  0999 V2000
   -3.8405   -3.7518    1.6252 H   0  0  0  0  0  0  0  0  0  0  0  0
   -3.7965   -2.8768    0.9782 C   0  0  0  0  0  0  0  0  0  0  0  0
   -4.5465   -2.1527    1.2902 H   0  0  0  0  0  0  0  0  0  0  0  0
   -3.9745   -3.1748   -0.0538 H   0  0  0  0  0  0  0  0  0  0  0  0
   -2.4245   -2.2537    1.0882 C   0  0  0  0  0  0  0  0  0  0  0  0
   -1.5805   -2.7478    1.8242 O   0  0  0  0  0  0  0  0  0  0  0  0
   -2.2045   -1.1637    0.3562 N   0  0  0  0  0  0  0  0  0  0  0  0
   -2.9595   -0.7907   -0.2008 H   0  0  0  0  0  0  0  0  0  0  0  0
   -0.9485   -0.4087    0.3482 C   0  0  1  0  0  0  0  0  0  0  0  0
   -0.3666   -0.6914    1.2269 H   0  0  0  0  0  0  0  0  0  0  0  0
   -0.1405   -0.7797   -0.9072 C   0  0  0  0  0  0  0  0  0  0  0  0
   -0.5845   -0.2874   -1.7736 H   0  0  0  0  0  0  0  0  0  0  0  0
    0.8760   -0.3984   -0.7990 H   0  0  0  0  0  0  0  0  0  0  0  0
   -0.0892   -2.2694   -1.1880 C   0  0  0  0  0  0  0  0  0  0  0  0
    1.1259   -2.8877   -1.5390 C   0  0  0  0  0  0  0  0  0  0  0  0
    2.0273   -2.2986   -1.6329 H   0  0  0  0  0  0  0  0  0  0  0  0
    1.1737   -4.2768   -1.7577 C   0  0  0  0  0  0  0  0  0  0  0  0
    2.1072   -4.7491   -2.0297 H   0  0  0  0  0  0  0  0  0  0  0  0
    0.0081   -5.0502   -1.6239 C   0  0  0  0  0  0  0  0  0  0  0  0
    0.0444   -6.1171   -1.7942 H   0  0  0  0  0  0  0  0  0  0  0  0
   -1.2081   -4.4353   -1.2747 C   0  0  0  0  0  0  0  0  0  0  0  0
   -2.1053   -5.0288   -1.1772 H   0  0  0  0  0  0  0  0  0  0  0  0
   -1.2562   -3.0465   -1.0595 C   0  0  0  0  0  0  0  0  0  0  0  0
   -2.1932   -2.5743   -0.7942 H   0  0  0  0  0  0  0  0  0  0  0  0
   -1.2168    1.1047    0.4313 C   0  0  0  0  0  0  0  0  0  0  0  0
   -2.0890    1.6186   -0.2704 O   0  0  0  0  0  0  0  0  0  0  0  0
   -0.4674    1.8182    1.2813 N   0  0  0  0  0  0  0  0  0  0  0  0
    0.2640    1.3348    1.7800 H   0  0  0  0  0  0  0  0  0  0  0  0
   -0.5889    3.2615    1.4722 C   0  0  0  0  0  0  0  0  0  0  0  0
   -1.6291    3.5206    1.6805 H   0  0  0  0  0  0  0  0  0  0  0  0
    0.0359    3.5855    2.3049 H   0  0  0  0  0  0  0  0  0  0  0  0
   -0.2760    3.7797    0.5637 H   0  0  0  0  0  0  0  0  0  0  0  0
  5  6  2  0  0  0  0
  5  7  1  0  0  0  0
  2  3  1  0  0  0  0
  2  4  1  0  0  0  0
  2  5  1  0  0  0  0
  1  2  1  0  0  0  0
 25 26  2  0  0  0  0
 25 27  1  0  0  0  0
 23 24  1  0  0  0  0
 21 22  1  0  0  0  0
 21 23  2  0  0  0  0
 19 20  1  0  0  0  0
 19 21  1  0  0  0  0
 17 18  1  0  0  0  0
 17 19  2  0  0  0  0
 15 16  1  0  0  0  0
 15 17  1  0  0  0  0
 14 15  2  0  0  0  0
 14 23  1  0  0  0  0
 11 12  1  0  0  0  0
 11 13  1  0  0  0  0
 11 14  1  0  0  0  0
  9 10  1  0  0  0  0
  9 11  1  0  0  0  0
  9 25  1  0  0  0  0
  7  8  1  0  0  0  0
  7  9  1  0  0  0  0
 29 30  1  0  0  0  0
 29 31  1  0  0  0  0
 29 32  1  0  0  0  0
 27 28  1  0  0  0  0
 27 29  1  0  0  0  0
M  END
$$$$
default_name
  -OEChem-02102213163D

 32 32  0     1  0  0  0  0  0999 V2000
   -3.8405   -3.7518    1.6252 H   0  0  0  0  0  0  0  0  0  0  0  0
   -3.7965   -2.8768    0.9782 C   0  0  0  0  0  0  0  0  0  0  0  0
   -4.5465   -2.1527    1.2902 H   0  0  0  0  0  0  0  0  0  0  0  0
   -3.9745   -3.1748   -0.0538 H   0  0  0  0  0  0  0  0  0  0  0  0
   -2.4245   -2.2537    1.0882 C   0  0  0  0  0  0  0  0  0  0  0  0
   -1.5805   -2.7478    1.8242 O   0  0  0  0  0  0  0  0  0  0  0  0
   -2.2045   -1.1637    0.3562 N   0  0  0  0  0  0  0  0  0  0  0  0
   -2.9595   -0.7907   -0.2008 H   0  0  0  0  0  0  0  0  0  0  0  0
   -0.9485   -0.4087    0.3482 C   0  0  1  0  0  0  0  0  0  0  0  0
   -0.3666   -0.6914    1.2269 H   0  0  0  0  0  0  0  0  0  0  0  0
   -0.1405   -0.7797   -0.9072 C   0  0  0  0  0  0  0  0  0  0  0  0
   -0.5845   -0.2874   -1.7736 H   0  0  0  0  0  0  0  0  0  0  0  0
    0.8760   -0.3984   -0.7990 H   0  0  0  0  0  0  0  0  0  0  0  0
   -0.0892   -2.2694   -1.1880 C   0  0  0  0  0  0  0  0  0  0  0  0
    1.1449   -2.9456   -1.2281 C   0  0  0  0  0  0  0  0  0  0  0  0
    2.0671   -2.4012   -1.0812 H   0  0  0  0  0  0  0  0  0  0  0  0
    1.1818   -4.3349   -1.4482 C   0  0  0  0  0  0  0  0  0  0  0  0
    2.1306   -4.8517   -1.4812 H   0  0  0  0  0  0  0  0  0  0  0  0
   -0.0144   -5.0505   -1.6265 C   0  0  0  0  0  0  0  0  0  0  0  0
    0.0141   -6.1174   -1.7979 H   0  0  0  0  0  0  0  0  0  0  0  0
   -1.2492   -4.3776   -1.5884 C   0  0  0  0  0  0  0  0  0  0  0  0
   -2.1685   -4.9266   -1.7309 H   0  0  0  0  0  0  0  0  0  0  0  0
   -1.2855   -2.9887   -1.3718 C   0  0  0  0  0  0  0  0  0  0  0  0
   -2.2360   -2.4717   -1.3461 H   0  0  0  0  0  0  0  0  0  0  0  0
   -1.2168    1.1047    0.4313 C   0  0  0  0  0  0  0  0  0  0  0  0
   -2.0890    1.6186   -0.2704 O   0  0  0  0  0  0  0  0  0  0  0  0
   -0.4674    1.8182    1.2813 N   0  0  0  0  0  0  0  0  0  0  0  0
    0.2640    1.3348    1.7800 H   0  0  0  0  0  0  0  0  0  0  0  0
   -0.5889    3.2615    1.4722 C   0  0  0  0  0  0  0  0  0  0  0  0
   -1.6291    3.5206    1.6805 H   0  0  0  0  0  0  0  0  0  0  0  0
    0.0359    3.5855    2.3049 H   0  0  0  0  0  0  0  0  0  0  0  0
   -0.2760    3.7797    0.5637 H   0  0  0  0  0  0  0  0  0  0  0  0
  5  6  2  0  0  0  0
  5  7  1  0  0  0  0
  2  3  1  0  0  0  0
  2  4  1  0  0  0  0
  2  5  1  0  0  0  0
  1  2  1  0  0  0  0
 25 26  2  0  0  0  0
 25 27  1  0  0  0  0
 23 24  1  0  0  0  0
 21 22  1  0  0  0  0
 21 23  2  0  0  0  0
 19 20  1  0  0  0  0
 19 21  1  0  0  0  0
 17 18  1  0  0  0  0
 17 19  2  0  0  0  0
 15 16  1  0  0  0  0
 15 17  1  0  0  0  0
 14 15  2  0  0  0  0
 14 23  1  0  0  0  0
 11 12  1  0  0  0  0
 11 13  1  0  0  0  0
 11 14  1  0  0  0  0
  9 10  1  0  0  0  0
  9 11  1  0  0  0  0
  9 25  1  0  0  0  0
  7  8  1  0  0  0  0
  7  9  1  0  0  0  0
 29 30  1  0  0  0  0
 29 31  1  0  0  0  0
 29 32  1  0  0  0  0
 27 28  1  0  0  0  0
 27 29  1  0  0  0  0
M  END
$$$$
default_name
  -OEChem-02102213163D

 32 32  0     1  0  0  0  0  0999 V2000
   -3.8405   -3.7518    1.6252 H   0  0  0  0  0  0  0  0  0  0  0  0
   -3.7965   -2.8768    0.9782 C   0  0  0  0  0  0  0  0  0  0  0  0
   -4.5465   -2.1527    1.2902 H   0  0  0  0  0  0  0  0  0  0  0  0
   -3.9745   -3.1748   -0.0538 H   0  0  0  0  0  0  0  0  0  0  0  0
   -2.4245   -2.2537    1.0882 C   0  0  0  0  0  0  0  0  0  0  0  0
   -1.5805   -2.7478    1.8242 O   0  0  0  0  0  0  0  0  0  0  0  0
   -2.2045   -1.1637    0.3562 N   0  0  0  0  0  0  0  0  0  0  0  0
   -2.9595   -0.7907   -0.2008 H   0  0  0  0  0  0  0  0  0  0  0  0
   -0.9485   -0.4087    0.3482 C   0  0  1  0  0  0  0  0  0  0  0  0
   -0.3666   -0.6914    1.2269 H   0  0  0  0  0  0  0  0  0  0  0  0
   -0.1405   -0.7797   -0.9072 C   0  0  0  0  0  0  0  0  0  0  0  0
   -0.5845   -0.2874   -1.7736 H   0  0  0  0  0  0  0  0  0  0  0  0
    0.8760   -0.3984   -0.7990 H   0  0  0  0  0  0  0  0  0  0  0  0
   -0.0892   -2.2694   -1.1880 C   0  0  0  0  0  0  0  0  0  0  0  0
    1.0815   -3.0052   -0.9234 C   0  0  0  0  0  0  0  0  0  0  0  0
    1.9604   -2.5071   -0.5390 H   0  0  0  0  0  0  0  0  0  0  0  0
    1.1081   -4.3941   -1.1477 C   0  0  0  0  0  0  0  0  0  0  0  0
    2.0089   -4.9567   -0.9463 H   0  0  0  0  0  0  0  0  0  0  0  0
   -0.0355   -5.0497   -1.6346 C   0  0  0  0  0  0  0  0  0  0  0  0
   -0.0143   -6.1163   -1.8091 H   0  0  0  0  0  0  0  0  0  0  0  0
   -1.2065   -4.3172   -1.9014 C   0  0  0  0  0  0  0  0  0  0  0  0
   -2.0839   -4.8201   -2.2808 H   0  0  0  0  0  0  0  0  0  0  0  0
   -1.2317   -2.9287   -1.6803 C   0  0  0  0  0  0  0  0  0  0  0  0
   -2.1322   -2.3658   -1.8891 H   0  0  0  0  0  0  0  0  0  0  0  0
   -1.2168    1.1047    0.4313 C   0  0  0  0  0  0  0  0  0  0  0  0
   -2.0890    1.6186   -0.2704 O   0  0  0  0  0  0  0  0  0  0  0  0
   -0.4674    1.8182    1.2813 N   0  0  0  0  0  0  0  0  0  0  0  0
    0.2640    1.3348    1.7800 H   0  0  0  0  0  0  0  0  0  0  0  0
   -0.5889    3.2615    1.4722 C   0  0  0  0  0  0  0  0  0  0  0  0
   -1.6291    3.5206    1.6805 H   0  0  0  0  0  0  0  0  0  0  0  0
    0.0359    3.5855    2.3049 H   0  0  0  0  0  0  0  0  0  0  0  0
   -0.2760    3.7797    0.5637 H   0  0  0  0  0  0  0  0  0  0  0  0
  5  6  2  0  0  0  0
  5  7  1  0  0  0  0
  2  3  1  0  0  0  0
  2  4  1  0  0  0  0
  2  5  1  0  0  0  0
  1  2  1  0  0  0  0
 25 26  2  0  0  0  0
 25 27  1  0  0  0  0
 23 24  1  0  0  0  0
 21 22  1  0  0  0  0
 21 23  2  0  0  0  0
 19 20  1  0  0  0  0
 19 21  1  0  0  0  0
 17 18  1  0  0  0  0
 17 19  2  0  0  0  0
 15 16  1  0  0  0  0
 15 17  1  0  0  0  0
 14 15  2  0  0  0  0
 14 23  1  0  0  0  0
 11 12  1  0  0  0  0
 11 13  1  0  0  0  0
 11 14  1  0  0  0  0
  9 10  1  0  0  0  0
  9 11  1  0  0  0  0
  9 25  1  0  0  0  0
  7  8  1  0  0  0  0
  7  9  1  0  0  0  0
 29 30  1  0  0  0  0
 29 31  1  0  0  0  0
 29 32  1  0  0  0  0
 27 28  1  0  0  0  0
 27 29  1  0  0  0  0
M  END
$$$$
default_name
  -OEChem-02102213163D

 32 32  0     1  0  0  0  0  0999 V2000
   -3.8405   -3.7518    1.6252 H   0  0  0  0  0  0  0  0  0  0  0  0
   -3.7965   -2.8768    0.9782 C   0  0  0  0  0  0  0  0  0  0  0  0
   -4.5465   -2.1527    1.2902 H   0  0  0  0  0  0  0  0  0  0  0  0
   -3.9745   -3.1748   -0.0538 H   0  0  0  0  0  0  0  0  0  0  0  0
   -2.4245   -2.2537    1.0882 C   0  0  0  0  0  0  0  0  0  0  0  0
   -1.5805   -2.7478    1.8242 O   0  0  0  0  0  0  0  0  0  0  0  0
   -2.2045   -1.1637    0.3562 N   0  0  0  0  0  0  0  0  0  0  0  0
   -2.9595   -0.7907   -0.2008 H   0  0  0  0  0  0  0  0  0  0  0  0
   -0.9485   -0.4087    0.3482 C   0  0  1  0  0  0  0  0  0  0  0  0
   -0.3666   -0.6914    1.2269 H   0  0  0  0  0  0  0  0  0  0  0  0
   -0.1405   -0.7797   -0.9072 C   0  0  0  0  0  0  0  0  0  0  0  0
   -0.5845   -0.2874   -1.7736 H   0  0  0  0  0  0  0  0  0  0  0  0
    0.8760   -0.3984   -0.7990 H   0  0  0  0  0  0  0  0  0  0  0  0
   -0.0892   -2.2694   -1.1880 C   0  0  0  0  0  0  0  0  0  0  0  0
    0.9399   -3.0624   -0.6458 C   0  0  0  0  0  0  0  0  0  0  0  0
    1.7144   -2.6090   -0.0434 H   0  0  0  0  0  0  0  0  0  0  0  0
    0.9577   -4.4503   -0.8767 C   0  0  0  0  0  0  0  0  0  0  0  0
    1.7503   -5.0570   -0.4616 H   0  0  0  0  0  0  0  0  0  0  0  0
   -0.0537   -5.0478   -1.6478 C   0  0  0  0  0  0  0  0  0  0  0  0
   -0.0388   -6.1137   -1.8271 H   0  0  0  0  0  0  0  0  0  0  0  0
   -1.0828   -4.2581   -2.1923 C   0  0  0  0  0  0  0  0  0  0  0  0
   -1.8573   -4.7164   -2.7896 H   0  0  0  0  0  0  0  0  0  0  0  0
   -1.0984   -2.8706   -1.9642 C   0  0  0  0  0  0  0  0  0  0  0  0
   -1.8888   -2.2637   -2.3864 H   0  0  0  0  0  0  0  0  0  0  0  0
   -1.2168    1.1047    0.4313 C   0  0  0  0  0  0  0  0  0  0  0  0
   -2.0890    1.6186   -0.2704 O   0  0  0  0  0  0  0  0  0  0  0  0
   -0.4674    1.8182    1.2813 N   0  0  0  0  0  0  0  0  0  0  0  0
    0.2640    1.3348    1.7800 H   0  0  0  0  0  0  0  0  0  0  0  0
   -0.5889    3.2615    1.4722 C   0  0  0  0  0  0  0  0  0  0  0  0
   -1.6291    3.5206    1.6805 H   0  0  0  0  0  0  0  0  0  0  0  0
    0.0359    3.5855    2.3049 H   0  0  0  0  0  0  0  0  0  0  0  0
   -0.2760    3.7797    0.5637 H   0  0  0  0  0  0  0  0  0  0  0  0
  5  6  2  0  0  0  0
  5  7  1  0  0  0  0
  2  3  1  0  0  0  0
  2  4  1  0  0  0  0
  2  5  1  0  0  0  0
  1  2  1  0  0  0  0
 25 26  2  0  0  0  0
 25 27  1  0  0  0  0
 23 24  1  0  0  0  0
 21 22  1  0  0  0  0
 21 23  2  0  0  0  0
 19 20  1  0  0  0  0
 19 21  1  0  0  0  0
 17 18  1  0  0  0  0
 17 19  2  0  0  0  0
 15 16  1  0  0  0  0
 15 17  1  0  0  0  0
 14 15  2  0  0  0  0
 14 23  1  0  0  0  0
 11 12  1  0  0  0  0
 11 13  1  0  0  0  0
 11 14  1  0  0  0  0
  9 10  1  0  0  0  0
  9 11  1  0  0  0  0
  9 25  1  0  0  0  0
  7  8  1  0  0  0  0
  7  9  1  0  0  0  0
 29 30  1  0  0  0  0
 29 31  1  0  0  0  0
 29 32  1  0  0  0  0
 27 28  1  0  0  0  0
 27 29  1  0  0  0  0
M  END
$$$$
default_name
  -OEChem-02102213163D

 32 32  0     1  0  0  0  0  0999 V2000
   -3.8405   -3.7518    1.6252 H   0  0  0  0  0  0  0  0  0  0  0  0
   -3.7965   -2.8768    0.9782 C   0  0  0  0  0  0  0  0  0  0  0  0
   -4.5465   -2.1527    1.2902 H   0  0  0  0  0  0  0  0  0  0  0  0
   -3.9745   -3.1748   -0.0538 H   0  0  0  0  0  0  0  0  0  0  0  0
   -2.4245   -2.2537    1.0882 C   0  0  0  0  0  0  0  0  0  0  0  0
   -1.5805   -2.7478    1.8242 O   0  0  0  0  0  0  0  0  0  0  0  0
   -2.2045   -1.1637    0.3562 N   0  0  0  0  0  0  0  0  0  0  0  0
   -2.9595   -0.7907   -0.2008 H   0  0  0  0  0  0  0  0  0  0  0  0
   -0.9485   -0.4087    0.3482 C   0  0  1  0  0  0  0  0  0  0  0  0
   -0.3666   -0.6914    1.2269 H   0  0  0  0  0  0  0  0  0  0  0  0
   -0.1405   -0.7797   -0.9072 C   0  0  0  0  0  0  0  0  0  0  0  0
   -0.5845   -0.2874   -1.7736 H   0  0  0  0  0  0  0  0  0  0  0  0
    0.8760   -0.3984   -0.7990 H   0  0  0  0  0  0  0  0  0  0  0  0
   -0.0892   -2.2694   -1.1880 C   0  0  0  0  0  0  0  0  0  0  0  0
    0.7299   -3.1133   -0.4141 C   0  0  0  0  0  0  0  0  0  0  0  0
    1.3459   -2.7000    0.3720 H   0  0  0  0  0  0  0  0  0  0  0  0
    0.7408   -4.4998   -0.6536 C   0  0  0  0  0  0  0  0  0  0  0  0
    1.3725   -5.1457   -0.0600 H   0  0  0  0  0  0  0  0  0  0  0  0
   -0.0679   -5.0450   -1.6652 C   0  0  0  0  0  0  0  0  0  0  0  0
   -0.0577   -6.1099   -1.8508 H   0  0  0  0  0  0  0  0  0  0  0  0
   -0.8865   -4.2044   -2.4413 C   0  0  0  0  0  0  0  0  0  0  0  0
   -1.5041   -4.6226   -3.2225 H   0  0  0  0  0  0  0  0  0  0  0  0
   -0.8947   -2.8184   -2.2039 C   0  0  0  0  0  0  0  0  0  0  0  0
   -1.5223   -2.1723   -2.8039 H   0  0  0  0  0  0  0  0  0  0  0  0
   -1.2168    1.1047    0.4313 C   0  0  0  0  0  0  0  0  0  0  0  0
   -2.0890    1.6186   -0.2704 O   0  0  0  0  0  0  0  0  0  0  0  0
   -0.4674    1.8182    1.2813 N   0  0  0  0  0  0  0  0  0  0  0  0
    0.2640    1.3348    1.7800 H   0  0  0  0  0  0  0  0  0  0  0  0
   -0.5889    3.2615    1.4722 C   0  0  0  0  0  0  0  0  0  0  0  0
   -1.6291    3.5206    1.6805 H   0  0  0  0  0  0  0  0  0  0  0  0
    0.0359    3.5855    2.3049 H   0  0  0  0  0  0  0  0  0  0  0  0
   -0.2760    3.7797    0.5637 H   0  0  0  0  0  0  0  0  0  0  0  0
  5  6  2  0  0  0  0
  5  7  1  0  0  0  0
  2  3  1  0  0  0  0
  2  4  1  0  0  0  0
  2  5  1  0  0  0  0
  1  2  1  0  0  0  0
 25 26  2  0  0  0  0
 25 27  1  0  0  0  0
 23 24  1  0  0  0  0
 21 22  1  0  0  0  0
 21 23  2  0  0  0  0
 19 20  1  0  0  0  0
 19 21  1  0  0  0  0
 17 18  1  0  0  0  0
 17 19  2  0  0  0  0
 15 16  1  0  0  0  0
 15 17  1  0  0  0  0
 14 15  2  0  0  0  0
 14 23  1  0  0  0  0
 11 12  1  0  0  0  0
 11 13  1  0  0  0  0
 11 14  1  0  0  0  0
  9 10  1  0  0  0  0
  9 11  1  0  0  0  0
  9 25  1  0  0  0  0
  7  8  1  0  0  0  0
  7  9  1  0  0  0  0
 29 30  1  0  0  0  0
 29 31  1  0  0  0  0
 29 32  1  0  0  0  0
 27 28  1  0  0  0  0
 27 29  1  0  0  0  0
M  END
$$$$
default_name
  -OEChem-02102213163D

 32 32  0     1  0  0  0  0  0999 V2000
   -3.8405   -3.7518    1.6252 H   0  0  0  0  0  0  0  0  0  0  0  0
   -3.7965   -2.8768    0.9782 C   0  0  0  0  0  0  0  0  0  0  0  0
   -4.5465   -2.1527    1.2902 H   0  0  0  0  0  0  0  0  0  0  0  0
   -3.9745   -3.1748   -0.0538 H   0  0  0  0  0  0  0  0  0  0  0  0
   -2.4245   -2.2537    1.0882 C   0  0  0  0  0  0  0  0  0  0  0  0
   -1.5805   -2.7478    1.8242 O   0  0  0  0  0  0  0  0  0  0  0  0
   -2.2045   -1.1637    0.3562 N   0  0  0  0  0  0  0  0  0  0  0  0
   -2.9595   -0.7907   -0.2008 H   0  0  0  0  0  0  0  0  0  0  0  0
   -0.9485   -0.4087    0.3482 C   0  0  1  0  0  0  0  0  0  0  0  0
   -0.3666   -0.6914    1.2269 H   0  0  0  0  0  0  0  0  0  0  0  0
   -0.1405   -0.7797   -0.9072 C   0  0  0  0  0  0  0  0  0  0  0  0
   -0.5845   -0.2874   -1.7736 H   0  0  0  0  0  0  0  0  0  0  0  0
    0.8760   -0.3984   -0.7990 H   0  0  0  0  0  0  0  0  0  0  0  0
   -0.0892   -2.2694   -1.1880 C   0  0  0  0  0  0  0  0  0  0  0  0
    0.4657   -3.1545   -0.2442 C   0  0  0  0  0  0  0  0  0  0  0  0
    0.8801   -2.7738    0.6787 H   0  0  0  0  0  0  0  0  0  0  0  0
    0.4723   -4.5392   -0.4937 C   0  0  0  0  0  0  0  0  0  0  0  0
    0.9012   -5.2168    0.2312 H   0  0  0  0  0  0  0  0  0  0  0  0
   -0.0771   -5.0415   -1.6856 C   0  0  0  0  0  0  0  0  0  0  0  0
   -0.0698   -6.1052   -1.8784 H   0  0  0  0  0  0  0  0  0  0  0  0
   -0.6310   -4.1597   -2.6315 C   0  0  0  0  0  0  0  0  0  0  0  0
   -1.0484   -4.5452   -3.5501 H   0  0  0  0  0  0  0  0  0  0  0  0
   -0.6345   -2.7756   -2.3833 C   0  0  0  0  0  0  0  0  0  0  0  0
   -1.0579   -2.0980   -3.1133 H   0  0  0  0  0  0  0  0  0  0  0  0
   -1.2168    1.1047    0.4313 C   0  0  0  0  0  0  0  0  0  0  0  0
   -2.0890    1.6186   -0.2704 O   0  0  0  0  0  0  0  0  0  0  0  0
   -0.4674    1.8182    1.2813 N   0  0  0  0  0  0  0  0  0  0  0  0
    0.2640    1.3348    1.7800 H   0  0  0  0  0  0  0  0  0  0  0  0
   -0.5889    3.2615    1.4722 C   0  0  0  0  0  0  0  0  0  0  0  0
   -1.6291    3.5206    1.6805 H   0  0  0  0  0  0  0  0  0  0  0  0
    0.0359    3.5855    2.3049 H   0  0  0  0  0  0  0  0  0  0  0  0
   -0.2760    3.7797    0.5637 H   0  0  0  0  0  0  0  0  0  0  0  0
  5  6  2  0  0  0  0
  5  7  1  0  0  0  0
  2  3  1  0  0  0  0
  2  4  1  0  0  0  0
  2  5  1  0  0  0  0
  1  2  1  0  0  0  0
 25 26  2  0  0  0  0
 25 27  1  0  0  0  0
 23 24  1  0  0  0  0
 21 22  1  0  0  0  0
 21 23  2  0  0  0  0
 19 20  1  0  0  0  0
 19 21  1  0  0  0  0
 17 18  1  0  0  0  0
 17 19  2  0  0  0  0
 15 16  1  0  0  0  0
 15 17  1  0  0  0  0
 14 15  2  0  0  0  0
 14 23  1  0  0  0  0
 11 12  1  0  0  0  0
 11 13  1  0  0  0  0
 11 14  1  0  0  0  0
  9 10  1  0  0  0  0
  9 11  1  0  0  0  0
  9 25  1  0  0  0  0
  7  8  1  0  0  0  0
  7  9  1  0  0  0  0
 29 30  1  0  0  0  0
 29 31  1  0  0  0  0
 29 32  1  0  0  0  0
 27 28  1  0  0  0  0
 27 29  1  0  0  0  0
M  END
$$$$
default_name
  -OEChem-02102213163D

 32 32  0     1  0  0  0  0  0999 V2000
   -3.8405   -3.7518    1.6252 H   0  0  0  0  0  0  0  0  0  0  0  0
   -3.7965   -2.8768    0.9782 C   0  0  0  0  0  0  0  0  0  0  0  0
   -4.5465   -2.1527    1.2902 H   0  0  0  0  0  0  0  0  0  0  0  0
   -3.9745   -3.1748   -0.0538 H   0  0  0  0  0  0  0  0  0  0  0  0
   -2.4245   -2.2537    1.0882 C   0  0  0  0  0  0  0  0  0  0  0  0
   -1.5805   -2.7478    1.8242 O   0  0  0  0  0  0  0  0  0  0  0  0
   -2.2045   -1.1637    0.3562 N   0  0  0  0  0  0  0  0  0  0  0  0
   -2.9595   -0.7907   -0.2008 H   0  0  0  0  0  0  0  0  0  0  0  0
   -0.9485   -0.4087    0.3482 C   0  0  1  0  0  0  0  0  0  0  0  0
   -0.3666   -0.6914    1.2269 H   0  0  0  0  0  0  0  0  0  0  0  0
   -0.1405   -0.7797   -0.9072 C   0  0  0  0  0  0  0  0  0  0  0  0
   -0.5845   -0.2874   -1.7736 H   0  0  0  0  0  0  0  0  0  0  0  0
    0.8760   -0.3984   -0.7990 H   0  0  0  0  0  0  0  0  0  0  0  0
   -0.0892   -2.2694   -1.1880 C   0  0  0  0  0  0  0  0  0  0  0  0
    0.1653   -3.1830   -0.1475 C   0  0  0  0  0  0  0  0  0  0  0  0
    0.3486   -2.8255    0.8559 H   0  0  0  0  0  0  0  0  0  0  0  0
    0.1704   -4.5658   -0.4079 C   0  0  0  0  0  0  0  0  0  0  0  0
    0.3686   -5.2655    0.3919 H   0  0  0  0  0  0  0  0  0  0  0  0
   -0.0806   -5.0375   -1.7076 C   0  0  0  0  0  0  0  0  0  0  0  0
   -0.0743   -6.0997   -1.9081 H   0  0  0  0  0  0  0  0  0  0  0  0
   -0.3337   -4.1272   -2.7498 C   0  0  0  0  0  0  0  0  0  0  0  0
   -0.5213   -4.4893   -3.7500 H   0  0  0  0  0  0  0  0  0  0  0  0
   -0.3355   -2.7452   -2.4900 C   0  0  0  0  0  0  0  0  0  0  0  0
   -0.5271   -2.0458   -3.2934 H   0  0  0  0  0  0  0  0  0  0  0  0
   -1.2168    1.1047    0.4313 C   0  0  0  0  0  0  0  0  0  0  0  0
   -2.0890    1.6186   -0.2704 O   0  0  0  0  0  0  0  0  0  0  0  0
   -0.4674    1.8182    1.2813 N   0  0  0  0  0  0  0  0  0  0  0  0
    0.2640    1.3348    1.7800 H   0  0  0  0  0  0  0  0  0  0  0  0
   -0.5889    3.2615    1.4722 C   0  0  0  0  0  0  0  0  0  0  0  0
   -1.6291    3.5206    1.6805 H   0  0  0  0  0  0  0  0  0  0  0  0
    0.0359    3.5855    2.3049 H   0  0  0  0  0  0  0  0  0  0  0  0
   -0.2760    3.7797    0.5637 H   0  0  0  0  0  0  0  0  0  0  0  0
  5  6  2  0  0  0  0
  5  7  1  0  0  0  0
  2  3  1  0  0  0  0
  2  4  1  0  0  0  0
  2  5  1  0  0  0  0
  1  2  1  0  0  0  0
 25 26  2  0  0  0  0
 25 27  1  0  0  0  0
 23 24  1  0  0  0  0
 21 22  1  0  0  0  0
 21 23  2  0  0  0  0
 19 20  1  0  0  0  0
 19 21  1  0  0  0  0
 17 18  1  0  0  0  0
 17 19  2  0  0  0  0
 15 16  1  0  0  0  0
 15 17  1  0  0  0  0
 14 15  2  0  0  0  0
 14 23  1  0  0  0  0
 11 12  1  0  0  0  0
 11 13  1  0  0  0  0
 11 14  1  0  0  0  0
  9 10  1  0  0  0  0
  9 11  1  0  0  0  0
  9 25  1  0  0  0  0
  7  8  1  0  0  0  0
  7  9  1  0  0  0  0
 29 30  1  0  0  0  0
 29 31  1  0  0  0  0
 29 32  1  0  0  0  0
 27 28  1  0  0  0  0
 27 29  1  0  0  0  0
M  END
$$$$
default_name
  -OEChem-02102213163D

 32 32  0     1  0  0  0  0  0999 V2000
   -3.8405   -3.7518    1.6252 H   0  0  0  0  0  0  0  0  0  0  0  0
   -3.7965   -2.8768    0.9782 C   0  0  0  0  0  0  0  0  0  0  0  0
   -4.5465   -2.1527    1.2902 H   0  0  0  0  0  0  0  0  0  0  0  0
   -3.9745   -3.1748   -0.0538 H   0  0  0  0  0  0  0  0  0  0  0  0
   -2.4245   -2.2537    1.0882 C   0  0  0  0  0  0  0  0  0  0  0  0
   -1.5805   -2.7478    1.8242 O   0  0  0  0  0  0  0  0  0  0  0  0
   -2.2045   -1.1637    0.3562 N   0  0  0  0  0  0  0  0  0  0  0  0
   -2.9595   -0.7907   -0.2008 H   0  0  0  0  0  0  0  0  0  0  0  0
   -0.9485   -0.4087    0.3482 C   0  0  1  0  0  0  0  0  0  0  0  0
   -0.3666   -0.6914    1.2269 H   0  0  0  0  0  0  0  0  0  0  0  0
   -0.1405   -0.7797   -0.9072 C   0  0  0  0  0  0  0  0  0  0  0  0
   -0.5845   -0.2874   -1.7736 H   0  0  0  0  0  0  0  0  0  0  0  0
    0.8760   -0.3984   -0.7990 H   0  0  0  0  0  0  0  0  0  0  0  0
   -0.0892   -2.2694   -1.1880 C   0  0  0  0  0  0  0  0  0  0  0  0
   -0.1508   -3.1971   -0.1308 C   0  0  0  0  0  0  0  0  0  0  0  0
   -0.2123   -2.8516    0.8915 H   0  0  0  0  0  0  0  0  0  0  0  0
   -0.1443   -4.5778   -0.4020 C   0  0  0  0  0  0  0  0  0  0  0  0
   -0.1891   -5.2883    0.4114 H   0  0  0  0  0  0  0  0  0  0  0  0
   -0.0782   -5.0332   -1.7297 C   0  0  0  0  0  0  0  0  0  0  0  0
   -0.0708   -6.0940   -1.9378 H   0  0  0  0  0  0  0  0  0  0  0  0
   -0.0149   -4.1090   -2.7883 C   0  0  0  0  0  0  0  0  0  0  0  0
    0.0414   -4.4589   -3.8087 H   0  0  0  0  0  0  0  0  0  0  0  0
   -0.0181   -2.7292   -2.5168 C   0  0  0  0  0  0  0  0  0  0  0  0
    0.0339   -2.0192   -3.3320 H   0  0  0  0  0  0  0  0  0  0  0  0
   -1.2168    1.1047    0.4313 C   0  0  0  0  0  0  0  0  0  0  0  0
   -2.0890    1.6186   -0.2704 O   0  0  0  0  0  0  0  0  0  0  0  0
   -0.4674    1.8182    1.2813 N   0  0  0  0  0  0  0  0  0  0  0  0
    0.2640    1.3348    1.7800 H   0  0  0  0  0  0  0  0  0  0  0  0
   -0.5889    3.2615    1.4722 C   0  0  0  0  0  0  0  0  0  0  0  0
   -1.6291    3.5206    1.6805 H   0  0  0  0  0  0  0  0  0  0  0  0
    0.0359    3.5855    2.3049 H   0  0  0  0  0  0  0  0  0  0  0  0
   -0.2760    3.7797    0.5637 H   0  0  0  0  0  0  0  0  0  0  0  0
  5  6  2  0  0  0  0
  5  7  1  0  0  0  0
  2  3  1  0  0  0  0
  2  4  1  0  0  0  0
  2  5  1  0  0  0  0
  1  2  1  0  0  0  0
 25 26  2  0  0  0  0
 25 27  1  0  0  0  0
 23 24  1  0  0  0  0
 21 22  1  0  0  0  0
 21 23  2  0  0  0  0
 19 20  1  0  0  0  0
 19 21  1  0  0  0  0
 17 18  1  0  0  0  0
 17 19  2  0  0  0  0
 15 16  1  0  0  0  0
 15 17  1  0  0  0  0
 14 15  2  0  0  0  0
 14 23  1  0  0  0  0
 11 12  1  0  0  0  0
 11 13  1  0  0  0  0
 11 14  1  0  0  0  0
  9 10  1  0  0  0  0
  9 11  1  0  0  0  0
  9 25  1  0  0  0  0
  7  8  1  0  0  0  0
  7  9  1  0  0  0  0
 29 30  1  0  0  0  0
 29 31  1  0  0  0  0
 29 32  1  0  0  0  0
 27 28  1  0  0  0  0
 27 29  1  0  0  0  0
M  END
$$$$
default_name
  -OEChem-02102213163D

 32 32  0     1  0  0  0  0  0999 V2000
   -3.8405   -3.7518    1.6252 H   0  0  0  0  0  0  0  0  0  0  0  0
   -3.7965   -2.8768    0.9782 C   0  0  0  0  0  0  0  0  0  0  0  0
   -4.5465   -2.1527    1.2902 H   0  0  0  0  0  0  0  0  0  0  0  0
   -3.9745   -3.1748   -0.0538 H   0  0  0  0  0  0  0  0  0  0  0  0
   -2.4245   -2.2537    1.0882 C   0  0  0  0  0  0  0  0  0  0  0  0
   -1.5805   -2.7478    1.8242 O   0  0  0  0  0  0  0  0  0  0  0  0
   -2.2045   -1.1637    0.3562 N   0  0  0  0  0  0  0  0  0  0  0  0
   -2.9595   -0.7907   -0.2008 H   0  0  0  0  0  0  0  0  0  0  0  0
   -0.9485   -0.4087    0.3482 C   0  0  1  0  0  0  0  0  0  0  0  0
   -0.3666   -0.6914    1.2269 H   0  0  0  0  0  0  0  0  0  0  0  0
   -0.1405   -0.7797   -0.9072 C   0  0  0  0  0  0  0  0  0  0  0  0
   -0.5845   -0.2874   -1.7736 H   0  0  0  0  0  0  0  0  0  0  0  0
    0.8760   -0.3984   -0.7990 H   0  0  0  0  0  0  0  0  0  0  0  0
   -0.0892   -2.2694   -1.1880 C   0  0  0  0  0  0  0  0  0  0  0  0
   -0.4611   -3.1956   -0.1951 C   0  0  0  0  0  0  0  0  0  0  0  0
   -0.7644   -2.8502    0.7832 H   0  0  0  0  0  0  0  0  0  0  0  0
   -0.4504   -4.5743   -0.4763 C   0  0  0  0  0  0  0  0  0  0  0  0
   -0.7338   -5.2839    0.2883 H   0  0  0  0  0  0  0  0  0  0  0  0
   -0.0700   -5.0290   -1.7504 C   0  0  0  0  0  0  0  0  0  0  0  0
   -0.0595   -6.0884   -1.9656 H   0  0  0  0  0  0  0  0  0  0  0  0
    0.3036   -4.1063   -2.7443 C   0  0  0  0  0  0  0  0  0  0  0  0
    0.6013   -4.4560   -3.7220 H   0  0  0  0  0  0  0  0  0  0  0  0
    0.2960   -2.7288   -2.4619 C   0  0  0  0  0  0  0  0  0  0  0  0
    0.5869   -2.0201   -3.2264 H   0  0  0  0  0  0  0  0  0  0  0  0
   -1.2168    1.1047    0.4313 C   0  0  0  0  0  0  0  0  0  0  0  0
   -2.0890    1.6186   -0.2704 O   0  0  0  0  0  0  0  0  0  0  0  0
   -0.4674    1.8182    1.2813 N   0  0  0  0  0  0  0  0  0  0  0  0
    0.2640    1.3348    1.7800 H   0  0  0  0  0  0  0  0  0  0  0  0
   -0.5889    3.2615    1.4722 C   0  0  0  0  0  0  0  0  0  0  0  0
   -1.6291    3.5206    1.6805 H   0  0  0  0  0  0  0  0  0  0  0  0
    0.0359    3.5855    2.3049 H   0  0  0  0  0  0  0  0  0  0  0  0
   -0.2760    3.7797    0.5637 H   0  0  0  0  0  0  0  0  0  0  0  0
  5  6  2  0  0  0  0
  5  7  1  0  0  0  0
  2  3  1  0  0  0  0
  2  4  1  0  0  0  0
  2  5  1  0  0  0  0
  1  2  1  0  0  0  0
 25 26  2  0  0  0  0
 25 27  1  0  0  0  0
 23 24  1  0  0  0  0
 21 22  1  0  0  0  0
 21 23  2  0  0  0  0
 19 20  1  0  0  0  0
 19 21  1  0  0  0  0
 17 18  1  0  0  0  0
 17 19  2  0  0  0  0
 15 16  1  0  0  0  0
 15 17  1  0  0  0  0
 14 15  2  0  0  0  0
 14 23  1  0  0  0  0
 11 12  1  0  0  0  0
 11 13  1  0  0  0  0
 11 14  1  0  0  0  0
  9 10  1  0  0  0  0
  9 11  1  0  0  0  0
  9 25  1  0  0  0  0
  7  8  1  0  0  0  0
  7  9  1  0  0  0  0
 29 30  1  0  0  0  0
 29 31  1  0  0  0  0
 29 32  1  0  0  0  0
 27 28  1  0  0  0  0
 27 29  1  0  0  0  0
M  END
$$$$
default_name
  -OEChem-02102213163D

 32 32  0     1  0  0  0  0  0999 V2000
   -3.8405   -3.7518    1.6252 H   0  0  0  0  0  0  0  0  0  0  0  0
   -3.7965   -2.8768    0.9782 C   0  0  0  0  0  0  0  0  0  0  0  0
   -4.5465   -2.1527    1.2902 H   0  0  0  0  0  0  0  0  0  0  0  0
   -3.9745   -3.1748   -0.0538 H   0  0  0  0  0  0  0  0  0  0  0  0
   -2.4245   -2.2537    1.0882 C   0  0  0  0  0  0  0  0  0  0  0  0
   -1.5805   -2.7478    1.8242 O   0  0  0  0  0  0  0  0  0  0  0  0
   -2.2045   -1.1637    0.3562 N   0  0  0  0  0  0  0  0  0  0  0  0
   -2.9595   -0.7907   -0.2008 H   0  0  0  0  0  0  0  0  0  0  0  0
   -0.9485   -0.4087    0.3482 C   0  0  1  0  0  0  0  0  0  0  0  0
   -0.3666   -0.6914    1.2269 H   0  0  0  0  0  0  0  0  0  0  0  0
   -0.1405   -0.7797   -0.9072 C   0  0  0  0  0  0  0  0  0  0  0  0
   -0.5845   -0.2874   -1.7736 H   0  0  0  0  0  0  0  0  0  0  0  0
    0.8760   -0.3984   -0.7990 H   0  0  0  0  0  0  0  0  0  0  0  0
   -0.0892   -2.2694   -1.1880 C   0  0  0  0  0  0  0  0  0  0  0  0
   -0.7444   -3.1788   -0.3361 C   0  0  0  0  0  0  0  0  0  0  0  0
   -1.2700   -2.8214    0.5381 H   0  0  0  0  0  0  0  0  0  0  0  0
   -0.7270   -4.5556   -0.6259 C   0  0  0  0  0  0  0  0  0  0  0  0
   -1.2285   -5.2524    0.0309 H   0  0  0  0  0  0  0  0  0  0  0  0
   -0.0567   -5.0252   -1.7682 C   0  0  0  0  0  0  0  0  0  0  0  0
   -0.0413   -6.0832   -1.9896 H   0  0  0  0  0  0  0  0  0  0  0  0
    0.6003   -4.1193   -2.6208 C   0  0  0  0  0  0  0  0  0  0  0  0
    1.1201   -4.4807   -3.4959 H   0  0  0  0  0  0  0  0  0  0  0  0
    0.5855   -2.7438   -2.3290 C   0  0  0  0  0  0  0  0  0  0  0  0
    1.0941   -2.0483   -2.9839 H   0  0  0  0  0  0  0  0  0  0  0  0
   -1.2168    1.1047    0.4313 C   0  0  0  0  0  0  0  0  0  0  0  0
   -2.0890    1.6186   -0.2704 O   0  0  0  0  0  0  0  0  0  0  0  0
   -0.4674    1.8182    1.2813 N   0  0  0  0  0  0  0  0  0  0  0  0
    0.2640    1.3348    1.7800 H   0  0  0  0  0  0  0  0  0  0  0  0
   -0.5889    3.2615    1.4722 C   0  0  0  0  0  0  0  0  0  0  0  0
   -1.6291    3.5206    1.6805 H   0  0  0  0  0  0  0  0  0  0  0  0
    0.0359    3.5855    2.3049 H   0  0  0  0  0  0  0  0  0  0  0  0
   -0.2760    3.7797    0.5637 H   0  0  0  0  0  0  0  0  0  0  0  0
  5  6  2  0  0  0  0
  5  7  1  0  0  0  0
  2  3  1  0  0  0  0
  2  4  1  0  0  0  0
  2  5  1  0  0  0  0
  1  2  1  0  0  0  0
 25 26  2  0  0  0  0
 25 27  1  0  0  0  0
 23 24  1  0  0  0  0
 21 22  1  0  0  0  0
 21 23  2  0  0  0  0
 19 20  1  0  0  0  0
 19 21  1  0  0  0  0
 17 18  1  0  0  0  0
 17 19  2  0  0  0  0
 15 16  1  0  0  0  0
 15 17  1  0  0  0  0
 14 15  2  0  0  0  0
 14 23  1  0  0  0  0
 11 12  1  0  0  0  0
 11 13  1  0  0  0  0
 11 14  1  0  0  0  0
  9 10  1  0  0  0  0
  9 11  1  0  0  0  0
  9 25  1  0  0  0  0
  7  8  1  0  0  0  0
  7  9  1  0  0  0  0
 29 30  1  0  0  0  0
 29 31  1  0  0  0  0
 29 32  1  0  0  0  0
 27 28  1  0  0  0  0
 27 29  1  0  0  0  0
M  END
$$$$
default_name
  -OEChem-02102213163D

 32 32  0     1  0  0  0  0  0999 V2000
   -3.8405   -3.7518    1.6252 H   0  0  0  0  0  0  0  0  0  0  0  0
   -3.7965   -2.8768    0.9782 C   0  0  0  0  0  0  0  0  0  0  0  0
   -4.5465   -2.1527    1.2902 H   0  0  0  0  0  0  0  0  0  0  0  0
   -3.9745   -3.1748   -0.0538 H   0  0  0  0  0  0  0  0  0  0  0  0
   -2.4245   -2.2537    1.0882 C   0  0  0  0  0  0  0  0  0  0  0  0
   -1.5805   -2.7478    1.8242 O   0  0  0  0  0  0  0  0  0  0  0  0
   -2.2045   -1.1637    0.3562 N   0  0  0  0  0  0  0  0  0  0  0  0
   -2.9595   -0.7907   -0.2008 H   0  0  0  0  0  0  0  0  0  0  0  0
   -0.9485   -0.4087    0.3482 C   0  0  1  0  0  0  0  0  0  0  0  0
   -0.3666   -0.6914    1.2269 H   0  0  0  0  0  0  0  0  0  0  0  0
   -0.1405   -0.7797   -0.9072 C   0  0  0  0  0  0  0  0  0  0  0  0
   -0.5845   -0.2874   -1.7736 H   0  0  0  0  0  0  0  0  0  0  0  0
    0.8760   -0.3984   -0.7990 H   0  0  0  0  0  0  0  0  0  0  0  0
   -0.0892   -2.2694   -1.1880 C   0  0  0  0  0  0  0  0  0  0  0  0
   -0.9813   -3.1478   -0.5441 C   0  0  0  0  0  0  0  0  0  0  0  0
   -1.6948   -2.7672    0.1732 H   0  0  0  0  0  0  0  0  0  0  0  0
   -0.9552   -4.5230   -0.8406 C   0  0  0  0  0  0  0  0  0  0  0  0
   -1.6393   -5.1961   -0.3431 H   0  0  0  0  0  0  0  0  0  0  0  0
   -0.0391   -5.0220   -1.7821 C   0  0  0  0  0  0  0  0  0  0  0  0
   -0.0174   -6.0789   -2.0081 H   0  0  0  0  0  0  0  0  0  0  0  0
    0.8548   -4.1473   -2.4262 C   0  0  0  0  0  0  0  0  0  0  0  0
    1.5627   -4.5314   -3.1459 H   0  0  0  0  0  0  0  0  0  0  0  0
    0.8307   -2.7734   -2.1272 C   0  0  0  0  0  0  0  0  0  0  0  0
    1.5211   -2.1020   -2.6210 H   0  0  0  0  0  0  0  0  0  0  0  0
   -1.2168    1.1047    0.4313 C   0  0  0  0  0  0  0  0  0  0  0  0
   -2.0890    1.6186   -0.2704 O   0  0  0  0  0  0  0  0  0  0  0  0
   -0.4674    1.8182    1.2813 N   0  0  0  0  0  0  0  0  0  0  0  0
    0.2640    1.3348    1.7800 H   0  0  0  0  0  0  0  0  0  0  0  0
   -0.5889    3.2615    1.4722 C   0  0  0  0  0  0  0  0  0  0  0  0
   -1.6291    3.5206    1.6805 H   0  0  0  0  0  0  0  0  0  0  0  0
    0.0359    3.5855    2.3049 H   0  0  0  0  0  0  0  0  0  0  0  0
   -0.2760    3.7797    0.5637 H   0  0  0  0  0  0  0  0  0  0  0  0
  5  6  2  0  0  0  0
  5  7  1  0  0  0  0
  2  3  1  0  0  0  0
  2  4  1  0  0  0  0
  2  5  1  0  0  0  0
  1  2  1  0  0  0  0
 25 26  2  0  0  0  0
 25 27  1  0  0  0  0
 23 24  1  0  0  0  0
 21 22  1  0  0  0  0
 21 23  2  0  0  0  0
 19 20  1  0  0  0  0
 19 21  1  0  0  0  0
 17 18  1  0  0  0  0
 17 19  2  0  0  0  0
 15 16  1  0  0  0  0
 15 17  1  0  0  0  0
 14 15  2  0  0  0  0
 14 23  1  0  0  0  0
 11 12  1  0  0  0  0
 11 13  1  0  0  0  0
 11 14  1  0  0  0  0
  9 10  1  0  0  0  0
  9 11  1  0  0  0  0
  9 25  1  0  0  0  0
  7  8  1  0  0  0  0
  7  9  1  0  0  0  0
 29 30  1  0  0  0  0
 29 31  1  0  0  0  0
 29 32  1  0  0  0  0
 27 28  1  0  0  0  0
 27 29  1  0  0  0  0
M  END
$$$$
default_name
  -OEChem-02102213163D

 32 32  0     1  0  0  0  0  0999 V2000
   -3.8405   -3.7518    1.6252 H   0  0  0  0  0  0  0  0  0  0  0  0
   -3.7965   -2.8768    0.9782 C   0  0  0  0  0  0  0  0  0  0  0  0
   -4.5465   -2.1527    1.2902 H   0  0  0  0  0  0  0  0  0  0  0  0
   -3.9745   -3.1748   -0.0538 H   0  0  0  0  0  0  0  0  0  0  0  0
   -2.4245   -2.2537    1.0882 C   0  0  0  0  0  0  0  0  0  0  0  0
   -1.5805   -2.7478    1.8242 O   0  0  0  0  0  0  0  0  0  0  0  0
   -2.2045   -1.1637    0.3562 N   0  0  0  0  0  0  0  0  0  0  0  0
   -2.9595   -0.7907   -0.2008 H   0  0  0  0  0  0  0  0  0  0  0  0
   -0.9485   -0.4087    0.3482 C   0  0  1  0  0  0  0  0  0  0  0  0
   -0.3666   -0.6914    1.2269 H   0  0  0  0  0  0  0  0  0  0  0  0
   -0.1405   -0.7797   -0.9072 C   0  0  0  0  0  0  0  0  0  0  0  0
   -0.5845   -0.2874   -1.7736 H   0  0  0  0  0  0  0  0  0  0  0  0
    0.8760   -0.3984   -0.7990 H   0  0  0  0  0  0  0  0  0  0  0  0
   -0.0892   -2.2694   -1.1880 C   0  0  0  0  0  0  0  0  0  0  0  0
   -1.1559   -3.1046   -0.8050 C   0  0  0  0  0  0  0  0  0  0  0  0
   -2.0097   -2.6914   -0.2868 H   0  0  0  0  0  0  0  0  0  0  0  0
   -1.1195   -4.4787   -1.1056 C   0  0  0  0  0  0  0  0  0  0  0  0
   -1.9384   -5.1187   -0.8084 H   0  0  0  0  0  0  0  0  0  0  0  0
   -0.0184   -5.0196   -1.7909 C   0  0  0  0  0  0  0  0  0  0  0  0
    0.0106   -6.0757   -2.0198 H   0  0  0  0  0  0  0  0  0  0  0  0
    1.0498   -4.1881   -2.1737 C   0  0  0  0  0  0  0  0  0  0  0  0
    1.8988   -4.6047   -2.6957 H   0  0  0  0  0  0  0  0  0  0  0  0
    1.0147   -2.8155   -1.8702 C   0  0  0  0  0  0  0  0  0  0  0  0
    1.8387   -2.1775   -2.1623 H   0  0  0  0  0  0  0  0  0  0  0  0
   -1.2168    1.1047    0.4313 C   0  0  0  0  0  0  0  0  0  0  0  0
   -2.0890    1.6186   -0.2704 O   0  0  0  0  0  0  0  0  0  0  0  0
   -0.4674    1.8182    1.2813 N   0  0  0  0  0  0  0  0  0  0  0  0
    0.2640    1.3348    1.7800 H   0  0  0  0  0  0  0  0  0  0  0  0
   -0.5889    3.2615    1.4722 C   0  0  0  0  0  0  0  0  0  0  0  0
   -1.6291    3.5206    1.6805 H   0  0  0  0  0  0  0  0  0  0  0  0
    0.0359    3.5855    2.3049 H   0  0  0  0  0  0  0  0  0  0  0  0
   -0.2760    3.7797    0.5637 H   0  0  0  0  0  0  0  0  0  0  0  0
  5  6  2  0  0  0  0
  5  7  1  0  0  0  0
  2  3  1  0  0  0  0
  2  4  1  0  0  0  0
  2  5  1  0  0  0  0
  1  2  1  0  0  0  0
 25 26  2  0  0  0  0
 25 27  1  0  0  0  0
 23 24  1  0  0  0  0
 21 22  1  0  0  0  0
 21 23  2  0  0  0  0
 19 20  1  0  0  0  0
 19 21  1  0  0  0  0
 17 18  1  0  0  0  0
 17 19  2  0  0  0  0
 15 16  1  0  0  0  0
 15 17  1  0  0  0  0
 14 15  2  0  0  0  0
 14 23  1  0  0  0  0
 11 12  1  0  0  0  0
 11 13  1  0  0  0  0
 11 14  1  0  0  0  0
  9 10  1  0  0  0  0
  9 11  1  0  0  0  0
  9 25  1  0  0  0  0
  7  8  1  0  0  0  0
  7  9  1  0  0  0  0
 29 30  1  0  0  0  0
 29 31  1  0  0  0  0
 29 32  1  0  0  0  0
 27 28  1  0  0  0  0
 27 29  1  0  0  0  0
M  END
$$$$
default_name
  -OEChem-02102213163D

 32 32  0     1  0  0  0  0  0999 V2000
   -3.8405   -3.7518    1.6252 H   0  0  0  0  0  0  0  0  0  0  0  0
   -3.7965   -2.8768    0.9782 C   0  0  0  0  0  0  0  0  0  0  0  0
   -4.5465   -2.1527    1.2902 H   0  0  0  0  0  0  0  0  0  0  0  0
   -3.9745   -3.1748   -0.0538 H   0  0  0  0  0  0  0  0  0  0  0  0
   -2.4245   -2.2537    1.0882 C   0  0  0  0  0  0  0  0  0  0  0  0
   -1.5805   -2.7478    1.8242 O   0  0  0  0  0  0  0  0  0  0  0  0
   -2.2045   -1.1637    0.3562 N   0  0  0  0  0  0  0  0  0  0  0  0
   -2.9595   -0.7907   -0.2008 H   0  0  0  0  0  0  0  0  0  0  0  0
   -0.9485   -0.4087    0.3482 C   0  0  1  0  0  0  0  0  0  0  0  0
   -0.3666   -0.6914    1.2269 H   0  0  0  0  0  0  0  0  0  0  0  0
   -0.1405   -0.7797   -0.9072 C   0  0  0  0  0  0  0  0  0  0  0  0
   -0.5845   -0.2874   -1.7736 H   0  0  0  0  0  0  0  0  0  0  0  0
    0.8760   -0.3984   -0.7990 H   0  0  0  0  0  0  0  0  0  0  0  0
   -0.0892   -2.2694   -1.1880 C   0  0  0  0  0  0  0  0  0  0  0  0
   -1.2561   -3.0523   -1.1010 C   0  0  0  0  0  0  0  0  0  0  0  0
   -2.1933   -2.5990   -0.8106 H   0  0  0  0  0  0  0  0  0  0  0  0
   -1.2087   -4.4257   -1.4031 C   0  0  0  0  0  0  0  0  0  0  0  0
   -2.1053   -5.0255   -1.3331 H   0  0  0  0  0  0  0  0  0  0  0  0
    0.0039   -5.0182   -1.7942 C   0  0  0  0  0  0  0  0  0  0  0  0
    0.0407   -6.0739   -2.0240 H   0  0  0  0  0  0  0  0  0  0  0  0
    1.1721   -4.2391   -1.8807 C   0  0  0  0  0  0  0  0  0  0  0  0
    2.1054   -4.6955   -2.1761 H   0  0  0  0  0  0  0  0  0  0  0  0
    1.1252   -2.8673   -1.5755 C   0  0  0  0  0  0  0  0  0  0  0  0
    2.0253   -2.2697   -1.6392 H   0  0  0  0  0  0  0  0  0  0  0  0
   -1.2168    1.1047    0.4313 C   0  0  0  0  0  0  0  0  0  0  0  0
   -2.0890    1.6186   -0.2704 O   0  0  0  0  0  0  0  0  0  0  0  0
   -0.4674    1.8182    1.2813 N   0  0  0  0  0  0  0  0  0  0  0  0
    0.2640    1.3348    1.7800 H   0  0  0  0  0  0  0  0  0  0  0  0
   -0.5889    3.2615    1.4722 C   0  0  0  0  0  0  0  0  0  0  0  0
   -1.6291    3.5206    1.6805 H   0  0  0  0  0  0  0  0  0  0  0  0
    0.0359    3.5855    2.3049 H   0  0  0  0  0  0  0  0  0  0  0  0
   -0.2760    3.7797    0.5637 H   0  0  0  0  0  0  0  0  0  0  0  0
  5  6  2  0  0  0  0
  5  7  1  0  0  0  0
  2  3  1  0  0  0  0
  2  4  1  0  0  0  0
  2  5  1  0  0  0  0
  1  2  1  0  0  0  0
 25 26  2  0  0  0  0
 25 27  1  0  0  0  0
 23 24  1  0  0  0  0
 21 22  1  0  0  0  0
 21 23  2  0  0  0  0
 19 20  1  0  0  0  0
 19 21  1  0  0  0  0
 17 18  1  0  0  0  0
 17 19  2  0  0  0  0
 15 16  1  0  0  0  0
 15 17  1  0  0  0  0
 14 15  2  0  0  0  0
 14 23  1  0  0  0  0
 11 12  1  0  0  0  0
 11 13  1  0  0  0  0
 11 14  1  0  0  0  0
  9 10  1  0  0  0  0
  9 11  1  0  0  0  0
  9 25  1  0  0  0  0
  7  8  1  0  0  0  0
  7  9  1  0  0  0  0
 29 30  1  0  0  0  0
 29 31  1  0  0  0  0
 29 32  1  0  0  0  0
 27 28  1  0  0  0  0
 27 29  1  0  0  0  0
M  END
$$$$
default_name
  -OEChem-02102213163D

 32 32  0     1  0  0  0  0  0999 V2000
   -3.8405   -3.7518    1.6252 H   0  0  0  0  0  0  0  0  0  0  0  0
   -3.7965   -2.8768    0.9782 C   0  0  0  0  0  0  0  0  0  0  0  0
   -4.5465   -2.1527    1.2902 H   0  0  0  0  0  0  0  0  0  0  0  0
   -3.9745   -3.1748   -0.0538 H   0  0  0  0  0  0  0  0  0  0  0  0
   -2.4245   -2.2537    1.0882 C   0  0  0  0  0  0  0  0  0  0  0  0
   -1.5805   -2.7478    1.8242 O   0  0  0  0  0  0  0  0  0  0  0  0
   -2.2045   -1.1637    0.3562 N   0  0  0  0  0  0  0  0  0  0  0  0
   -2.9595   -0.7907   -0.2008 H   0  0  0  0  0  0  0  0  0  0  0  0
   -0.9485   -0.4087    0.3482 C   0  0  1  0  0  0  0  0  0  0  0  0
   -0.3666   -0.6914    1.2269 H   0  0  0  0  0  0  0  0  0  0  0  0
   -0.1405   -0.7797   -0.9072 C   0  0  0  0  0  0  0  0  0  0  0  0
   -0.5845   -0.2874   -1.7736 H   0  0  0  0  0  0  0  0  0  0  0  0
    0.8760   -0.3984   -0.7990 H   0  0  0  0  0  0  0  0  0  0  0  0
   -0.0892   -2.2694   -1.1880 C   0  0  0  0  0  0  0  0  0  0  0  0
   -1.2751   -2.9943   -1.4119 C   0  0  0  0  0  0  0  0  0  0  0  0
   -2.2332   -2.4963   -1.3623 H   0  0  0  0  0  0  0  0  0  0  0  0
   -1.2168   -4.3677   -1.7126 C   0  0  0  0  0  0  0  0  0  0  0  0
   -2.1287   -4.9229   -1.8816 H   0  0  0  0  0  0  0  0  0  0  0  0
    0.0264   -5.0179   -1.7917 C   0  0  0  0  0  0  0  0  0  0  0  0
    0.0710   -6.0735   -2.0204 H   0  0  0  0  0  0  0  0  0  0  0  0
    1.2132   -4.2969   -1.5670 C   0  0  0  0  0  0  0  0  0  0  0  0
    2.1686   -4.7977   -1.6224 H   0  0  0  0  0  0  0  0  0  0  0  0
    1.1545   -2.9251   -1.2633 C   0  0  0  0  0  0  0  0  0  0  0  0
    2.0681   -2.3722   -1.0873 H   0  0  0  0  0  0  0  0  0  0  0  0
   -1.2168    1.1047    0.4313 C   0  0  0  0  0  0  0  0  0  0  0  0
   -2.0890    1.6186   -0.2704 O   0  0  0  0  0  0  0  0  0  0  0  0
   -0.4674    1.8182    1.2813 N   0  0  0  0  0  0  0  0  0  0  0  0
    0.2640    1.3348    1.7800 H   0  0  0  0  0  0  0  0  0  0  0  0
   -0.5889    3.2615    1.4722 C   0  0  0  0  0  0  0  0  0  0  0  0
   -1.6291    3.5206    1.6805 H   0  0  0  0  0  0  0  0  0  0  0  0
    0.0359    3.5855    2.3049 H   0  0  0  0  0  0  0  0  0  0  0  0
   -0.2760    3.7797    0.5637 H   0  0  0  0  0  0  0  0  0  0  0  0
  5  6  2  0  0  0  0
  5  7  1  0  0  0  0
  2  3  1  0  0  0  0
  2  4  1  0  0  0  0
  2  5  1  0  0  0  0
  1  2  1  0  0  0  0
 25 26  2  0  0  0  0
 25 27  1  0  0  0  0
 23 24  1  0  0  0  0
 21 22  1  0  0  0  0
 21 23  2  0  0  0  0
 19 20  1  0  0  0  0
 19 21  1  0  0  0  0
 17 18  1  0  0  0  0
 17 19  2  0  0  0  0
 15 16  1  0  0  0  0
 15 17  1  0  0  0  0
 14 15  2  0  0  0  0
 14 23  1  0  0  0  0
 11 12  1  0  0  0  0
 11 13  1  0  0  0  0
 11 14  1  0  0  0  0
  9 10  1  0  0  0  0
  9 11  1  0  0  0  0
  9 25  1  0  0  0  0
  7  8  1  0  0  0  0
  7  9  1  0  0  0  0
 29 30  1  0  0  0  0
 29 31  1  0  0  0  0
 29 32  1  0  0  0  0
 27 28  1  0  0  0  0
 27 29  1  0  0  0  0
M  END
$$$$
default_name
  -OEChem-02102213163D

 32 32  0     1  0  0  0  0  0999 V2000
   -3.8405   -3.7518    1.6252 H   0  0  0  0  0  0  0  0  0  0  0  0
   -3.7965   -2.8768    0.9782 C   0  0  0  0  0  0  0  0  0  0  0  0
   -4.5465   -2.1527    1.2902 H   0  0  0  0  0  0  0  0  0  0  0  0
   -3.9745   -3.1748   -0.0538 H   0  0  0  0  0  0  0  0  0  0  0  0
   -2.4245   -2.2537    1.0882 C   0  0  0  0  0  0  0  0  0  0  0  0
   -1.5805   -2.7478    1.8242 O   0  0  0  0  0  0  0  0  0  0  0  0
   -2.2045   -1.1637    0.3562 N   0  0  0  0  0  0  0  0  0  0  0  0
   -2.9595   -0.7907   -0.2008 H   0  0  0  0  0  0  0  0  0  0  0  0
   -0.9485   -0.4087    0.3482 C   0  0  1  0  0  0  0  0  0  0  0  0
   -0.3666   -0.6914    1.2269 H   0  0  0  0  0  0  0  0  0  0  0  0
   -0.1405   -0.7797   -0.9072 C   0  0  0  0  0  0  0  0  0  0  0  0
   -0.5845   -0.2874   -1.7736 H   0  0  0  0  0  0  0  0  0  0  0  0
    0.8760   -0.3984   -0.7990 H   0  0  0  0  0  0  0  0  0  0  0  0
   -0.0892   -2.2694   -1.1880 C   0  0  0  0  0  0  0  0  0  0  0  0
   -1.2117   -2.9347   -1.7166 C   0  0  0  0  0  0  0  0  0  0  0  0
   -2.1264   -2.3905   -1.9045 H   0  0  0  0  0  0  0  0  0  0  0  0
   -1.1431   -4.3085   -2.0130 C   0  0  0  0  0  0  0  0  0  0  0  0
   -2.0070   -4.8179   -2.4165 H   0  0  0  0  0  0  0  0  0  0  0  0
    0.0475   -5.0187   -1.7836 C   0  0  0  0  0  0  0  0  0  0  0  0
    0.0994   -6.0747   -2.0091 H   0  0  0  0  0  0  0  0  0  0  0  0
    1.1705   -4.3573   -1.2540 C   0  0  0  0  0  0  0  0  0  0  0  0
    2.0841   -4.9043   -1.0725 H   0  0  0  0  0  0  0  0  0  0  0  0
    1.1006   -2.9851   -0.9547 C   0  0  0  0  0  0  0  0  0  0  0  0
    1.9643   -2.4782   -0.5443 H   0  0  0  0  0  0  0  0  0  0  0  0
   -1.2168    1.1047    0.4313 C   0  0  0  0  0  0  0  0  0  0  0  0
   -2.0890    1.6186   -0.2704 O   0  0  0  0  0  0  0  0  0  0  0  0
   -0.4674    1.8182    1.2813 N   0  0  0  0  0  0  0  0  0  0  0  0
    0.2640    1.3348    1.7800 H   0  0  0  0  0  0  0  0  0  0  0  0
   -0.5889    3.2615    1.4722 C   0  0  0  0  0  0  0  0  0  0  0  0
   -1.6291    3.5206    1.6805 H   0  0  0  0  0  0  0  0  0  0  0  0
    0.0359    3.5855    2.3049 H   0  0  0  0  0  0  0  0  0  0  0  0
   -0.2760    3.7797    0.5637 H   0  0  0  0  0  0  0  0  0  0  0  0
  5  6  2  0  0  0  0
  5  7  1  0  0  0  0
  2  3  1  0  0  0  0
  2  4  1  0  0  0  0
  2  5  1  0  0  0  0
  1  2  1  0  0  0  0
 25 26  2  0  0  0  0
 25 27  1  0  0  0  0
 23 24  1  0  0  0  0
 21 22  1  0  0  0  0
 21 23  2  0  0  0  0
 19 20  1  0  0  0  0
 19 21  1  0  0  0  0
 17 18  1  0  0  0  0
 17 19  2  0  0  0  0
 15 16  1  0  0  0  0
 15 17  1  0  0  0  0
 14 15  2  0  0  0  0
 14 23  1  0  0  0  0
 11 12  1  0  0  0  0
 11 13  1  0  0  0  0
 11 14  1  0  0  0  0
  9 10  1  0  0  0  0
  9 11  1  0  0  0  0
  9 25  1  0  0  0  0
  7  8  1  0  0  0  0
  7  9  1  0  0  0  0
 29 30  1  0  0  0  0
 29 31  1  0  0  0  0
 29 32  1  0  0  0  0
 27 28  1  0  0  0  0
 27 29  1  0  0  0  0
M  END
$$$$
default_name
  -OEChem-02102213163D

 32 32  0     1  0  0  0  0  0999 V2000
   -3.8405   -3.7518    1.6252 H   0  0  0  0  0  0  0  0  0  0  0  0
   -3.7965   -2.8768    0.9782 C   0  0  0  0  0  0  0  0  0  0  0  0
   -4.5465   -2.1527    1.2902 H   0  0  0  0  0  0  0  0  0  0  0  0
   -3.9745   -3.1748   -0.0538 H   0  0  0  0  0  0  0  0  0  0  0  0
   -2.4245   -2.2537    1.0882 C   0  0  0  0  0  0  0  0  0  0  0  0
   -1.5805   -2.7478    1.8242 O   0  0  0  0  0  0  0  0  0  0  0  0
   -2.2045   -1.1637    0.3562 N   0  0  0  0  0  0  0  0  0  0  0  0
   -2.9595   -0.7907   -0.2008 H   0  0  0  0  0  0  0  0  0  0  0  0
   -0.9485   -0.4087    0.3482 C   0  0  1  0  0  0  0  0  0  0  0  0
   -0.3666   -0.6914    1.2269 H   0  0  0  0  0  0  0  0  0  0  0  0
   -0.1405   -0.7797   -0.9072 C   0  0  0  0  0  0  0  0  0  0  0  0
   -0.5845   -0.2874   -1.7736 H   0  0  0  0  0  0  0  0  0  0  0  0
    0.8760   -0.3984   -0.7990 H   0  0  0  0  0  0  0  0  0  0  0  0
   -0.0892   -2.2694   -1.1880 C   0  0  0  0  0  0  0  0  0  0  0  0
   -1.0701   -2.8775   -1.9942 C   0  0  0  0  0  0  0  0  0  0  0  0
   -1.8805   -2.2886   -2.4002 H   0  0  0  0  0  0  0  0  0  0  0  0
   -0.9927   -4.2522   -2.2840 C   0  0  0  0  0  0  0  0  0  0  0  0
   -1.7484   -4.7176   -2.9012 H   0  0  0  0  0  0  0  0  0  0  0  0
    0.0658   -5.0206   -1.7703 C   0  0  0  0  0  0  0  0  0  0  0  0
    0.1239   -6.0772   -1.9911 H   0  0  0  0  0  0  0  0  0  0  0  0
    1.0468   -4.4164   -0.9631 C   0  0  0  0  0  0  0  0  0  0  0  0
    1.8574   -5.0080   -0.5637 H   0  0  0  0  0  0  0  0  0  0  0  0
    0.9673   -3.0432   -0.6709 C   0  0  0  0  0  0  0  0  0  0  0  0
    1.7208   -2.5803   -0.0470 H   0  0  0  0  0  0  0  0  0  0  0  0
   -1.2168    1.1047    0.4313 C   0  0  0  0  0  0  0  0  0  0  0  0
   -2.0890    1.6186   -0.2704 O   0  0  0  0  0  0  0  0  0  0  0  0
   -0.4674    1.8182    1.2813 N   0  0  0  0  0  0  0  0  0  0  0  0
    0.2640    1.3348    1.7800 H   0  0  0  0  0  0  0  0  0  0  0  0
   -0.5889    3.2615    1.4722 C   0  0  0  0  0  0  0  0  0  0  0  0
   -1.6291    3.5206    1.6805 H   0  0  0  0  0  0  0  0  0  0  0  0
    0.0359    3.5855    2.3049 H   0  0  0  0  0  0  0  0  0  0  0  0
   -0.2760    3.7797    0.5637 H   0  0  0  0  0  0  0  0  0  0  0  0
  5  6  2  0  0  0  0
  5  7  1  0  0  0  0
  2  3  1  0  0  0  0
  2  4  1  0  0  0  0
  2  5  1  0  0  0  0
  1  2  1  0  0  0  0
 25 26  2  0  0  0  0
 25 27  1  0  0  0  0
 23 24  1  0  0  0  0
 21 22  1  0  0  0  0
 21 23  2  0  0  0  0
 19 20  1  0  0  0  0
 19 21  1  0  0  0  0
 17 18  1  0  0  0  0
 17 19  2  0  0  0  0
 15 16  1  0  0  0  0
 15 17  1  0  0  0  0
 14 15  2  0  0  0  0
 14 23  1  0  0  0  0
 11 12  1  0  0  0  0
 11 13  1  0  0  0  0
 11 14  1  0  0  0  0
  9 10  1  0  0  0  0
  9 11  1  0  0  0  0
  9 25  1  0  0  0  0
  7  8  1  0  0  0  0
  7  9  1  0  0  0  0
 29 30  1  0  0  0  0
 29 31  1  0  0  0  0
 29 32  1  0  0  0  0
 27 28  1  0  0  0  0
 27 29  1  0  0  0  0
M  END
$$$$
default_name
  -OEChem-02102213163D

 32 32  0     1  0  0  0  0  0999 V2000
   -3.8405   -3.7518    1.6252 H   0  0  0  0  0  0  0  0  0  0  0  0
   -3.7965   -2.8768    0.9782 C   0  0  0  0  0  0  0  0  0  0  0  0
   -4.5465   -2.1527    1.2902 H   0  0  0  0  0  0  0  0  0  0  0  0
   -3.9745   -3.1748   -0.0538 H   0  0  0  0  0  0  0  0  0  0  0  0
   -2.4245   -2.2537    1.0882 C   0  0  0  0  0  0  0  0  0  0  0  0
   -1.5805   -2.7478    1.8242 O   0  0  0  0  0  0  0  0  0  0  0  0
   -2.2045   -1.1637    0.3562 N   0  0  0  0  0  0  0  0  0  0  0  0
   -2.9595   -0.7907   -0.2008 H   0  0  0  0  0  0  0  0  0  0  0  0
   -0.9485   -0.4087    0.3482 C   0  0  1  0  0  0  0  0  0  0  0  0
   -0.3666   -0.6914    1.2269 H   0  0  0  0  0  0  0  0  0  0  0  0
   -0.1405   -0.7797   -0.9072 C   0  0  0  0  0  0  0  0  0  0  0  0
   -0.5845   -0.2874   -1.7736 H   0  0  0  0  0  0  0  0  0  0  0  0
    0.8760   -0.3984   -0.7990 H   0  0  0  0  0  0  0  0  0  0  0  0
   -0.0892   -2.2694   -1.1880 C   0  0  0  0  0  0  0  0  0  0  0  0
   -0.8601   -2.8266   -2.2259 C   0  0  0  0  0  0  0  0  0  0  0  0
   -1.5120   -2.1976   -2.8155 H   0  0  0  0  0  0  0  0  0  0  0  0
   -0.7759   -4.2027   -2.5071 C   0  0  0  0  0  0  0  0  0  0  0  0
   -1.3706   -4.6289   -3.3028 H   0  0  0  0  0  0  0  0  0  0  0  0
    0.0799   -5.0234   -1.7529 C   0  0  0  0  0  0  0  0  0  0  0  0
    0.1428   -6.0810   -1.9675 H   0  0  0  0  0  0  0  0  0  0  0  0
    0.8505   -4.4701   -0.7141 C   0  0  0  0  0  0  0  0  0  0  0  0
    1.5043   -5.1018   -0.1308 H   0  0  0  0  0  0  0  0  0  0  0  0
    0.7636   -3.0954   -0.4312 C   0  0  0  0  0  0  0  0  0  0  0  0
    1.3544   -2.6716    0.3705 H   0  0  0  0  0  0  0  0  0  0  0  0
   -1.2168    1.1047    0.4313 C   0  0  0  0  0  0  0  0  0  0  0  0
   -2.0890    1.6186   -0.2704 O   0  0  0  0  0  0  0  0  0  0  0  0
   -0.4674    1.8182    1.2813 N   0  0  0  0  0  0  0  0  0  0  0  0
    0.2640    1.3348    1.7800 H   0  0  0  0  0  0  0  0  0  0  0  0
   -0.5889    3.2615    1.4722 C   0  0  0  0  0  0  0  0  0  0  0  0
   -1.6291    3.5206    1.6805 H   0  0  0  0  0  0  0  0  0  0  0  0
    0.0359    3.5855    2.3049 H   0  0  0  0  0  0  0  0  0  0  0  0
   -0.2760    3.7797    0.5637 H   0  0  0  0  0  0  0  0  0  0  0  0
  5  6  2  0  0  0  0
  5  7  1  0  0  0  0
  2  3  1  0  0  0  0
  2  4  1  0  0  0  0
  2  5  1  0  0  0  0
  1  2  1  0  0  0  0
 25 26  2  0  0  0  0
 25 27  1  0  0  0  0
 23 24  1  0  0  0  0
 21 22  1  0  0  0  0
 21 23  2  0  0  0  0
 19 20  1  0  0  0  0
 19 21  1  0  0  0  0
 17 18  1  0  0  0  0
 17 19  2  0  0  0  0
 15 16  1  0  0  0  0
 15 17  1  0  0  0  0
 14 15  2  0  0  0  0
 14 23  1  0  0  0  0
 11 12  1  0  0  0  0
 11 13  1  0  0  0  0
 11 14  1  0  0  0  0
  9 10  1  0  0  0  0
  9 11  1  0  0  0  0
  9 25  1  0  0  0  0
  7  8  1  0  0  0  0
  7  9  1  0  0  0  0
 29 30  1  0  0  0  0
 29 31  1  0  0  0  0
 29 32  1  0  0  0  0
 27 28  1  0  0  0  0
 27 29  1  0  0  0  0
M  END
$$$$
default_name
  -OEChem-02102213163D

 32 32  0     1  0  0  0  0  0999 V2000
   -3.8405   -3.7518    1.6252 H   0  0  0  0  0  0  0  0  0  0  0  0
   -3.7965   -2.8768    0.9782 C   0  0  0  0  0  0  0  0  0  0  0  0
   -4.5465   -2.1527    1.2902 H   0  0  0  0  0  0  0  0  0  0  0  0
   -3.9745   -3.1748   -0.0538 H   0  0  0  0  0  0  0  0  0  0  0  0
   -2.4245   -2.2537    1.0882 C   0  0  0  0  0  0  0  0  0  0  0  0
   -1.5805   -2.7478    1.8242 O   0  0  0  0  0  0  0  0  0  0  0  0
   -2.2045   -1.1637    0.3562 N   0  0  0  0  0  0  0  0  0  0  0  0
   -2.9595   -0.7907   -0.2008 H   0  0  0  0  0  0  0  0  0  0  0  0
   -0.9485   -0.4087    0.3482 C   0  0  1  0  0  0  0  0  0  0  0  0
   -0.3666   -0.6914    1.2269 H   0  0  0  0  0  0  0  0  0  0  0  0
   -0.1405   -0.7797   -0.9072 C   0  0  0  0  0  0  0  0  0  0  0  0
   -0.5845   -0.2874   -1.7736 H   0  0  0  0  0  0  0  0  0  0  0  0
    0.8760   -0.3984   -0.7990 H   0  0  0  0  0  0  0  0  0  0  0  0
   -0.0892   -2.2694   -1.1880 C   0  0  0  0  0  0  0  0  0  0  0  0
   -0.5958   -2.7855   -2.3958 C   0  0  0  0  0  0  0  0  0  0  0  0
   -1.0462   -2.1237   -3.1222 H   0  0  0  0  0  0  0  0  0  0  0  0
   -0.5073   -4.1633   -2.6670 C   0  0  0  0  0  0  0  0  0  0  0  0
   -0.8993   -4.5578   -3.5939 H   0  0  0  0  0  0  0  0  0  0  0  0
    0.0891   -5.0269   -1.7326 C   0  0  0  0  0  0  0  0  0  0  0  0
    0.1549   -6.0858   -1.9399 H   0  0  0  0  0  0  0  0  0  0  0  0
    0.5950   -4.5148   -0.5239 C   0  0  0  0  0  0  0  0  0  0  0  0
    1.0486   -5.1792    0.1968 H   0  0  0  0  0  0  0  0  0  0  0  0
    0.5034   -3.1382   -0.2518 C   0  0  0  0  0  0  0  0  0  0  0  0
    0.8900   -2.7459    0.6799 H   0  0  0  0  0  0  0  0  0  0  0  0
   -1.2168    1.1047    0.4313 C   0  0  0  0  0  0  0  0  0  0  0  0
   -2.0890    1.6186   -0.2704 O   0  0  0  0  0  0  0  0  0  0  0  0
   -0.4674    1.8182    1.2813 N   0  0  0  0  0  0  0  0  0  0  0  0
    0.2640    1.3348    1.7800 H   0  0  0  0  0  0  0  0  0  0  0  0
   -0.5889    3.2615    1.4722 C   0  0  0  0  0  0  0  0  0  0  0  0
   -1.6291    3.5206    1.6805 H   0  0  0  0  0  0  0  0  0  0  0  0
    0.0359    3.5855    2.3049 H   0  0  0  0  0  0  0  0  0  0  0  0
   -0.2760    3.7797    0.5637 H   0  0  0  0  0  0  0  0  0  0  0  0
  5  6  2  0  0  0  0
  5  7  1  0  0  0  0
  2  3  1  0  0  0  0
  2  4  1  0  0  0  0
  2  5  1  0  0  0  0
  1  2  1  0  0  0  0
 25 26  2  0  0  0  0
 25 27  1  0  0  0  0
 23 24  1  0  0  0  0
 21 22  1  0  0  0  0
 21 23  2  0  0  0  0
 19 20  1  0  0  0  0
 19 21  1  0  0  0  0
 17 18  1  0  0  0  0
 17 19  2  0  0  0  0
 15 16  1  0  0  0  0
 15 17  1  0  0  0  0
 14 15  2  0  0  0  0
 14 23  1  0  0  0  0
 11 12  1  0  0  0  0
 11 13  1  0  0  0  0
 11 14  1  0  0  0  0
  9 10  1  0  0  0  0
  9 11  1  0  0  0  0
  9 25  1  0  0  0  0
  7  8  1  0  0  0  0
  7  9  1  0  0  0  0
 29 30  1  0  0  0  0
 29 31  1  0  0  0  0
 29 32  1  0  0  0  0
 27 28  1  0  0  0  0
 27 29  1  0  0  0  0
M  END
$$$$
default_name
  -OEChem-02102213163D

 32 32  0     1  0  0  0  0  0999 V2000
   -3.8405   -3.7518    1.6252 H   0  0  0  0  0  0  0  0  0  0  0  0
   -3.7965   -2.8768    0.9782 C   0  0  0  0  0  0  0  0  0  0  0  0
   -4.5465   -2.1527    1.2902 H   0  0  0  0  0  0  0  0  0  0  0  0
   -3.9745   -3.1748   -0.0538 H   0  0  0  0  0  0  0  0  0  0  0  0
   -2.4245   -2.2537    1.0882 C   0  0  0  0  0  0  0  0  0  0  0  0
   -1.5805   -2.7478    1.8242 O   0  0  0  0  0  0  0  0  0  0  0  0
   -2.2045   -1.1637    0.3562 N   0  0  0  0  0  0  0  0  0  0  0  0
   -2.9595   -0.7907   -0.2008 H   0  0  0  0  0  0  0  0  0  0  0  0
   -0.9485   -0.4087    0.3482 C   0  0  1  0  0  0  0  0  0  0  0  0
   -0.3666   -0.6914    1.2269 H   0  0  0  0  0  0  0  0  0  0  0  0
   -0.1405   -0.7797   -0.9072 C   0  0  0  0  0  0  0  0  0  0  0  0
   -0.5845   -0.2874   -1.7736 H   0  0  0  0  0  0  0  0  0  0  0  0
    0.8760   -0.3984   -0.7990 H   0  0  0  0  0  0  0  0  0  0  0  0
   -0.0892   -2.2694   -1.1880 C   0  0  0  0  0  0  0  0  0  0  0  0
   -0.2954   -2.7569   -2.4925 C   0  0  0  0  0  0  0  0  0  0  0  0
   -0.5147   -2.0720   -3.2994 H   0  0  0  0  0  0  0  0  0  0  0  0
   -0.2054   -4.1368   -2.7528 C   0  0  0  0  0  0  0  0  0  0  0  0
   -0.3667   -4.5092   -3.7547 H   0  0  0  0  0  0  0  0  0  0  0  0
    0.0926   -5.0309   -1.7106 C   0  0  0  0  0  0  0  0  0  0  0  0
    0.1594   -6.0913   -1.9102 H   0  0  0  0  0  0  0  0  0  0  0  0
    0.2977   -4.5473   -0.4056 C   0  0  0  0  0  0  0  0  0  0  0  0
    0.5214   -5.2350    0.3967 H   0  0  0  0  0  0  0  0  0  0  0  0
    0.2045   -3.1686   -0.1451 C   0  0  0  0  0  0  0  0  0  0  0  0
    0.3592   -2.7981    0.8600 H   0  0  0  0  0  0  0  0  0  0  0  0
   -1.2168    1.1047    0.4313 C   0  0  0  0  0  0  0  0  0  0  0  0
   -2.0890    1.6186   -0.2704 O   0  0  0  0  0  0  0  0  0  0  0  0
   -0.4674    1.8182    1.2813 N   0  0  0  0  0  0  0  0  0  0  0  0
    0.2640    1.3348    1.7800 H   0  0  0  0  0  0  0  0  0  0  0  0
   -0.5889    3.2615    1.4722 C   0  0  0  0  0  0  0  0  0  0  0  0
   -1.6291    3.5206    1.6805 H   0  0  0  0  0  0  0  0  0  0  0  0
    0.0359    3.5855    2.3049 H   0  0  0  0  0  0  0  0  0  0  0  0
   -0.2760    3.7797    0.5637 H   0  0  0  0  0  0  0  0  0  0  0  0
  5  6  2  0  0  0  0
  5  7  1  0  0  0  0
  2  3  1  0  0  0  0
  2  4  1  0  0  0  0
  2  5  1  0  0  0  0
  1  2  1  0  0  0  0
 25 26  2  0  0  0  0
 25 27  1  0  0  0  0
 23 24  1  0  0  0  0
 21 22  1  0  0  0  0
 21 23  2  0  0  0  0
 19 20  1  0  0  0  0
 19 21  1  0  0  0  0
 17 18  1  0  0  0  0
 17 19  2  0  0  0  0
 15 16  1  0  0  0  0
 15 17  1  0  0  0  0
 14 15  2  0  0  0  0
 14 23  1  0  0  0  0
 11 12  1  0  0  0  0
 11 13  1  0  0  0  0
 11 14  1  0  0  0  0
  9 10  1  0  0  0  0
  9 11  1  0  0  0  0
  9 25  1  0  0  0  0
  7  8  1  0  0  0  0
  7  9  1  0  0  0  0
 29 30  1  0  0  0  0
 29 31  1  0  0  0  0
 29 32  1  0  0  0  0
 27 28  1  0  0  0  0
 27 29  1  0  0  0  0
M  END
$$$$
default_name
  -OEChem-02102213163D

 32 32  0     1  0  0  0  0  0999 V2000
   -3.8405   -3.7518    1.6252 H   0  0  0  0  0  0  0  0  0  0  0  0
   -3.7965   -2.8768    0.9782 C   0  0  0  0  0  0  0  0  0  0  0  0
   -4.5465   -2.1527    1.2902 H   0  0  0  0  0  0  0  0  0  0  0  0
   -3.9745   -3.1748   -0.0538 H   0  0  0  0  0  0  0  0  0  0  0  0
   -2.4245   -2.2537    1.0882 C   0  0  0  0  0  0  0  0  0  0  0  0
   -1.5805   -2.7478    1.8242 O   0  0  0  0  0  0  0  0  0  0  0  0
   -2.2045   -1.1637    0.3562 N   0  0  0  0  0  0  0  0  0  0  0  0
   -2.9595   -0.7907   -0.2008 H   0  0  0  0  0  0  0  0  0  0  0  0
   -0.9485   -0.4087    0.3482 C   0  0  1  0  0  0  0  0  0  0  0  0
   -0.3666   -0.6914    1.2269 H   0  0  0  0  0  0  0  0  0  0  0  0
   -0.1405   -0.7797   -0.9072 C   0  0  0  0  0  0  0  0  0  0  0  0
   -0.5845   -0.2874   -1.7736 H   0  0  0  0  0  0  0  0  0  0  0  0
    0.8760   -0.3984   -0.7990 H   0  0  0  0  0  0  0  0  0  0  0  0
   -0.0892   -2.2694   -1.1880 C   0  0  0  0  0  0  0  0  0  0  0  0
    0.0207   -2.7429   -2.5092 C   0  0  0  0  0  0  0  0  0  0  0  0
    0.0462   -2.0460   -3.3351 H   0  0  0  0  0  0  0  0  0  0  0  0
    0.1093   -4.1248   -2.7588 C   0  0  0  0  0  0  0  0  0  0  0  0
    0.1910   -4.4863   -3.7742 H   0  0  0  0  0  0  0  0  0  0  0  0
    0.0902   -5.0352   -1.6885 C   0  0  0  0  0  0  0  0  0  0  0  0
    0.1559   -6.0970   -1.8804 H   0  0  0  0  0  0  0  0  0  0  0  0
   -0.0210   -4.5655   -0.3671 C   0  0  0  0  0  0  0  0  0  0  0  0
   -0.0412   -5.2655    0.4553 H   0  0  0  0  0  0  0  0  0  0  0  0
   -0.1129   -3.1846   -0.1182 C   0  0  0  0  0  0  0  0  0  0  0  0
   -0.2018   -2.8247    0.8986 H   0  0  0  0  0  0  0  0  0  0  0  0
   -1.2168    1.1047    0.4313 C   0  0  0  0  0  0  0  0  0  0  0  0
   -2.0890    1.6186   -0.2704 O   0  0  0  0  0  0  0  0  0  0  0  0
   -0.4674    1.8182    1.2813 N   0  0  0  0  0  0  0  0  0  0  0  0
    0.2640    1.3348    1.7800 H   0  0  0  0  0  0  0  0  0  0  0  0
   -0.5889    3.2615    1.4722 C   0  0  0  0  0  0  0  0  0  0  0  0
   -1.6291    3.5206    1.6805 H   0  0  0  0  0  0  0  0  0  0  0  0
    0.0359    3.5855    2.3049 H   0  0  0  0  0  0  0  0  0  0  0  0
   -0.2760    3.7797    0.5637 H   0  0  0  0  0  0  0  0  0  0  0  0
  5  6  2  0  0  0  0
  5  7  1  0  0  0  0
  2  3  1  0  0  0  0
  2  4  1  0  0  0  0
  2  5  1  0  0  0  0
  1  2  1  0  0  0  0
 25 26  2  0  0  0  0
 25 27  1  0  0  0  0
 23 24  1  0  0  0  0
 21 22  1  0  0  0  0
 21 23  2  0  0  0  0
 19 20  1  0  0  0  0
 19 21  1  0  0  0  0
 17 18  1  0  0  0  0
 17 19  2  0  0  0  0
 15 16  1  0  0  0  0
 15 17  1  0  0  0  0
 14 15  2  0  0  0  0
 14 23  1  0  0  0  0
 11 12  1  0  0  0  0
 11 13  1  0  0  0  0
 11 14  1  0  0  0  0
  9 10  1  0  0  0  0
  9 11  1  0  0  0  0
  9 25  1  0  0  0  0
  7  8  1  0  0  0  0
  7  9  1  0  0  0  0
 29 30  1  0  0  0  0
 29 31  1  0  0  0  0
 29 32  1  0  0  0  0
 27 28  1  0  0  0  0
 27 29  1  0  0  0  0
M  END
$$$$
default_name
  -OEChem-02102213163D

 32 32  0     1  0  0  0  0  0999 V2000
   -3.8405   -3.7518    1.6252 H   0  0  0  0  0  0  0  0  0  0  0  0
   -3.7965   -2.8768    0.9782 C   0  0  0  0  0  0  0  0  0  0  0  0
   -4.5465   -2.1527    1.2902 H   0  0  0  0  0  0  0  0  0  0  0  0
   -3.9745   -3.1748   -0.0538 H   0  0  0  0  0  0  0  0  0  0  0  0
   -2.4245   -2.2537    1.0882 C   0  0  0  0  0  0  0  0  0  0  0  0
   -1.5805   -2.7478    1.8242 O   0  0  0  0  0  0  0  0  0  0  0  0
   -2.2045   -1.1637    0.3562 N   0  0  0  0  0  0  0  0  0  0  0  0
   -2.9595   -0.7907   -0.2008 H   0  0  0  0  0  0  0  0  0  0  0  0
   -0.9485   -0.4087    0.3482 C   0  0  1  0  0  0  0  0  0  0  0  0
   -0.3666   -0.6914    1.2269 H   0  0  0  0  0  0  0  0  0  0  0  0
   -0.1405   -0.7797   -0.9072 C   0  0  0  0  0  0  0  0  0  0  0  0
   -0.5845   -0.2874   -1.7736 H   0  0  0  0  0  0  0  0  0  0  0  0
    0.8760   -0.3984   -0.7990 H   0  0  0  0  0  0  0  0  0  0  0  0
   -0.0892   -2.2694   -1.1880 C   0  0  0  0  0  0  0  0  0  0  0  0
    0.3309   -2.7443   -2.4449 C   0  0  0  0  0  0  0  0  0  0  0  0
    0.5983   -2.0474   -3.2267 H   0  0  0  0  0  0  0  0  0  0  0  0
    0.4154   -4.1283   -2.6844 C   0  0  0  0  0  0  0  0  0  0  0  0
    0.7357   -4.4908   -3.6511 H   0  0  0  0  0  0  0  0  0  0  0  0
    0.0820   -5.0394   -1.6678 C   0  0  0  0  0  0  0  0  0  0  0  0
    0.1446   -6.1026   -1.8526 H   0  0  0  0  0  0  0  0  0  0  0  0
   -0.3396   -4.5682   -0.4111 C   0  0  0  0  0  0  0  0  0  0  0  0
   -0.6011   -5.2684    0.3687 H   0  0  0  0  0  0  0  0  0  0  0  0
   -0.4271   -3.1851   -0.1731 C   0  0  0  0  0  0  0  0  0  0  0  0
   -0.7548   -2.8239    0.7930 H   0  0  0  0  0  0  0  0  0  0  0  0
   -1.2168    1.1047    0.4313 C   0  0  0  0  0  0  0  0  0  0  0  0
   -2.0890    1.6186   -0.2704 O   0  0  0  0  0  0  0  0  0  0  0  0
   -0.4674    1.8182    1.2813 N   0  0  0  0  0  0  0  0  0  0  0  0
    0.2640    1.3348    1.7800 H   0  0  0  0  0  0  0  0  0  0  0  0
   -0.5889    3.2615    1.4722 C   0  0  0  0  0  0  0  0  0  0  0  0
   -1.6291    3.5206    1.6805 H   0  0  0  0  0  0  0  0  0  0  0  0
    0.0359    3.5855    2.3049 H   0  0  0  0  0  0  0  0  0  0  0  0
   -0.2760    3.7797    0.5637 H   0  0  0  0  0  0  0  0  0  0  0  0
  5  6  2  0  0  0  0
  5  7  1  0  0  0  0
  2  3  1  0  0  0  0
  2  4  1  0  0  0  0
  2  5  1  0  0  0  0
  1  2  1  0  0  0  0
 25 26  2  0  0  0  0
 25 27  1  0  0  0  0
 23 24  1  0  0  0  0
 21 22  1  0  0  0  0
 21 23  2  0  0  0  0
 19 20  1  0  0  0  0
 19 21  1  0  0  0  0
 17 18  1  0  0  0  0
 17 19  2  0  0  0  0
 15 16  1  0  0  0  0
 15 17  1  0  0  0  0
 14 15  2  0  0  0  0
 14 23  1  0  0  0  0
 11 12  1  0  0  0  0
 11 13  1  0  0  0  0
 11 14  1  0  0  0  0
  9 10  1  0  0  0  0
  9 11  1  0  0  0  0
  9 25  1  0  0  0  0
  7  8  1  0  0  0  0
  7  9  1  0  0  0  0
 29 30  1  0  0  0  0
 29 31  1  0  0  0  0
 29 32  1  0  0  0  0
 27 28  1  0  0  0  0
 27 29  1  0  0  0  0
M  END
$$$$
default_name
  -OEChem-02102213163D

 32 32  0     1  0  0  0  0  0999 V2000
   -3.8405   -3.7518    1.6252 H   0  0  0  0  0  0  0  0  0  0  0  0
   -3.7965   -2.8768    0.9782 C   0  0  0  0  0  0  0  0  0  0  0  0
   -4.5465   -2.1527    1.2902 H   0  0  0  0  0  0  0  0  0  0  0  0
   -3.9745   -3.1748   -0.0538 H   0  0  0  0  0  0  0  0  0  0  0  0
   -2.4245   -2.2537    1.0882 C   0  0  0  0  0  0  0  0  0  0  0  0
   -1.5805   -2.7478    1.8242 O   0  0  0  0  0  0  0  0  0  0  0  0
   -2.2045   -1.1637    0.3562 N   0  0  0  0  0  0  0  0  0  0  0  0
   -2.9595   -0.7907   -0.2008 H   0  0  0  0  0  0  0  0  0  0  0  0
   -0.9485   -0.4087    0.3482 C   0  0  1  0  0  0  0  0  0  0  0  0
   -0.3666   -0.6914    1.2269 H   0  0  0  0  0  0  0  0  0  0  0  0
   -0.1405   -0.7797   -0.9072 C   0  0  0  0  0  0  0  0  0  0  0  0
   -0.4049   -0.0956   -1.7147 H   0  0  0  0  0  0  0  0  0  0  0  0
    0.9215   -0.6437   -0.6973 H   0  0  0  0  0  0  0  0  0  0  0  0
   -0.3771   -2.1964   -1.3948 C   0  0  0  0  0  0  0  0  0  0  0  0
    0.2932   -2.6797   -2.5346 C   0  0  0  0  0  0  0  0  0  0  0  0
    0.9648   -2.0347   -3.0835 H   0  0  0  0  0  0  0  0  0  0  0  0
    0.1001   -4.0079   -2.9568 C   0  0  0  0  0  0  0  0  0  0  0  0
    0.6137   -4.3762   -3.8337 H   0  0  0  0  0  0  0  0  0  0  0  0
   -0.7614   -4.8554   -2.2397 C   0  0  0  0  0  0  0  0  0  0  0  0
   -0.9115   -5.8752   -2.5654 H   0  0  0  0  0  0  0  0  0  0  0  0
   -1.4339   -4.3753   -1.1012 C   0  0  0  0  0  0  0  0  0  0  0  0
   -2.1003   -5.0250   -0.5530 H   0  0  0  0  0  0  0  0  0  0  0  0
   -1.2432   -3.0468   -0.6814 C   0  0  0  0  0  0  0  0  0  0  0  0
   -1.7637   -2.6776    0.1927 H   0  0  0  0  0  0  0  0  0  0  0  0
   -1.2168    1.1047    0.4313 C   0  0  0  0  0  0  0  0  0  0  0  0
   -2.0890    1.6186   -0.2704 O   0  0  0  0  0  0  0  0  0  0  0  0
   -0.4674    1.8182    1.2813 N   0  0  0  0  0  0  0  0  0  0  0  0
    0.2640    1.3348    1.7800 H   0  0  0  0  0  0  0  0  0  0  0  0
   -0.5889    3.2615    1.4722 C   0  0  0  0  0  0  0  0  0  0  0  0
   -1.6291    3.5206    1.6805 H   0  0  0  0  0  0  0  0  0  0  0  0
    0.0359    3.5855    2.3049 H   0  0  0  0  0  0  0  0  0  0  0  0
   -0.2760    3.7797    0.5637 H   0  0  0  0  0  0  0  0  0  0  0  0
  5  6  2  0  0  0  0
  5  7  1  0  0  0  0
  2  3  1  0  0  0  0
  2  4  1  0  0  0  0
  2  5  1  0  0  0  0
  1  2  1  0  0  0  0
 25 26  2  0  0  0  0
 25 27  1  0  0  0  0
 23 24  1  0  0  0  0
 21 22  1  0  0  0  0
 21 23  2  0  0  0  0
 19 20  1  0  0  0  0
 19 21  1  0  0  0  0
 17 18  1  0  0  0  0
 17 19  2  0  0  0  0
 15 16  1  0  0  0  0
 15 17  1  0  0  0  0
 14 15  2  0  0  0  0
 14 23  1  0  0  0  0
 11 12  1  0  0  0  0
 11 13  1  0  0  0  0
 11 14  1  0  0  0  0
  9 10  1  0  0  0  0
  9 11  1  0  0  0  0
  9 25  1  0  0  0  0
  7  8  1  0  0  0  0
  7  9  1  0  0  0  0
 29 30  1  0  0  0  0
 29 31  1  0  0  0  0
 29 32  1  0  0  0  0
 27 28  1  0  0  0  0
 27 29  1  0  0  0  0
M  END
$$$$
default_name
  -OEChem-02102213163D

 32 32  0     1  0  0  0  0  0999 V2000
   -3.8405   -3.7518    1.6252 H   0  0  0  0  0  0  0  0  0  0  0  0
   -3.7965   -2.8768    0.9782 C   0  0  0  0  0  0  0  0  0  0  0  0
   -4.5465   -2.1527    1.2902 H   0  0  0  0  0  0  0  0  0  0  0  0
   -3.9745   -3.1748   -0.0538 H   0  0  0  0  0  0  0  0  0  0  0  0
   -2.4245   -2.2537    1.0882 C   0  0  0  0  0  0  0  0  0  0  0  0
   -1.5805   -2.7478    1.8242 O   0  0  0  0  0  0  0  0  0  0  0  0
   -2.2045   -1.1637    0.3562 N   0  0  0  0  0  0  0  0  0  0  0  0
   -2.9595   -0.7907   -0.2008 H   0  0  0  0  0  0  0  0  0  0  0  0
   -0.9485   -0.4087    0.3482 C   0  0  1  0  0  0  0  0  0  0  0  0
   -0.3666   -0.6914    1.2269 H   0  0  0  0  0  0  0  0  0  0  0  0
   -0.1405   -0.7797   -0.9072 C   0  0  0  0  0  0  0  0  0  0  0  0
   -0.4049   -0.0956   -1.7147 H   0  0  0  0  0  0  0  0  0  0  0  0
    0.9215   -0.6437   -0.6973 H   0  0  0  0  0  0  0  0  0  0  0  0
   -0.3771   -2.1964   -1.3948 C   0  0  0  0  0  0  0  0  0  0  0  0
    0.5019   -2.7877   -2.3221 C   0  0  0  0  0  0  0  0  0  0  0  0
    1.3398   -2.2258   -2.7101 H   0  0  0  0  0  0  0  0  0  0  0  0
    0.2994   -4.1164   -2.7383 C   0  0  0  0  0  0  0  0  0  0  0  0
    0.9740   -4.5677   -3.4523 H   0  0  0  0  0  0  0  0  0  0  0  0
   -0.7803   -4.8566   -2.2273 C   0  0  0  0  0  0  0  0  0  0  0  0
   -0.9372   -5.8766   -2.5489 H   0  0  0  0  0  0  0  0  0  0  0  0
   -1.6613   -4.2682   -1.3017 C   0  0  0  0  0  0  0  0  0  0  0  0
   -2.4944   -4.8352   -0.9129 H   0  0  0  0  0  0  0  0  0  0  0  0
   -1.4606   -2.9392   -0.8884 C   0  0  0  0  0  0  0  0  0  0  0  0
   -2.1411   -2.4867   -0.1789 H   0  0  0  0  0  0  0  0  0  0  0  0
   -1.2168    1.1047    0.4313 C   0  0  0  0  0  0  0  0  0  0  0  0
   -2.0890    1.6186   -0.2704 O   0  0  0  0  0  0  0  0  0  0  0  0
   -0.4674    1.8182    1.2813 N   0  0  0  0  0  0  0  0  0  0  0  0
    0.2640    1.3348    1.7800 H   0  0  0  0  0  0  0  0  0  0  0  0
   -0.5889    3.2615    1.4722 C   0  0  0  0  0  0  0  0  0  0  0  0
   -1.6291    3.5206    1.6805 H   0  0  0  0  0  0  0  0  0  0  0  0
    0.0359    3.5855    2.3049 H   0  0  0  0  0  0  0  0  0  0  0  0
   -0.2760    3.7797    0.5637 H   0  0  0  0  0  0  0  0  0  0  0  0
  5  6  2  0  0  0  0
  5  7  1  0  0  0  0
  2  3  1  0  0  0  0
  2  4  1  0  0  0  0
  2  5  1  0  0  0  0
  1  2  1  0  0  0  0
 25 26  2  0  0  0  0
 25 27  1  0  0  0  0
 23 24  1  0  0  0  0
 21 22  1  0  0  0  0
 21 23  2  0  0  0  0
 19 20  1  0  0  0  0
 19 21  1  0  0  0  0
 17 18  1  0  0  0  0
 17 19  2  0  0  0  0
 15 16  1  0  0  0  0
 15 17  1  0  0  0  0
 14 15  2  0  0  0  0
 14 23  1  0  0  0  0
 11 12  1  0  0  0  0
 11 13  1  0  0  0  0
 11 14  1  0  0  0  0
  9 10  1  0  0  0  0
  9 11  1  0  0  0  0
  9 25  1  0  0  0  0
  7  8  1  0  0  0  0
  7  9  1  0  0  0  0
 29 30  1  0  0  0  0
 29 31  1  0  0  0  0
 29 32  1  0  0  0  0
 27 28  1  0  0  0  0
 27 29  1  0  0  0  0
M  END
$$$$
default_name
  -OEChem-02102213163D

 32 32  0     1  0  0  0  0  0999 V2000
   -3.8405   -3.7518    1.6252 H   0  0  0  0  0  0  0  0  0  0  0  0
   -3.7965   -2.8768    0.9782 C   0  0  0  0  0  0  0  0  0  0  0  0
   -4.5465   -2.1527    1.2902 H   0  0  0  0  0  0  0  0  0  0  0  0
   -3.9745   -3.1748   -0.0538 H   0  0  0  0  0  0  0  0  0  0  0  0
   -2.4245   -2.2537    1.0882 C   0  0  0  0  0  0  0  0  0  0  0  0
   -1.5805   -2.7478    1.8242 O   0  0  0  0  0  0  0  0  0  0  0  0
   -2.2045   -1.1637    0.3562 N   0  0  0  0  0  0  0  0  0  0  0  0
   -2.9595   -0.7907   -0.2008 H   0  0  0  0  0  0  0  0  0  0  0  0
   -0.9485   -0.4087    0.3482 C   0  0  1  0  0  0  0  0  0  0  0  0
   -0.3666   -0.6914    1.2269 H   0  0  0  0  0  0  0  0  0  0  0  0
   -0.1405   -0.7797   -0.9072 C   0  0  0  0  0  0  0  0  0  0  0  0
   -0.4049   -0.0956   -1.7147 H   0  0  0  0  0  0  0  0  0  0  0  0
    0.9215   -0.6437   -0.6973 H   0  0  0  0  0  0  0  0  0  0  0  0
   -0.3771   -2.1964   -1.3948 C   0  0  0  0  0  0  0  0  0  0  0  0
    0.6431   -2.9008   -2.0619 C   0  0  0  0  0  0  0  0  0  0  0  0
    1.5958   -2.4266   -2.2511 H   0  0  0  0  0  0  0  0  0  0  0  0
    0.4301   -4.2290   -2.4747 C   0  0  0  0  0  0  0  0  0  0  0  0
    1.2139   -4.7672   -2.9891 H   0  0  0  0  0  0  0  0  0  0  0  0
   -0.8016   -4.8555   -2.2198 C   0  0  0  0  0  0  0  0  0  0  0  0
   -0.9660   -5.8752   -2.5391 H   0  0  0  0  0  0  0  0  0  0  0  0
   -1.8236   -4.1540   -1.5548 C   0  0  0  0  0  0  0  0  0  0  0  0
   -2.7724   -4.6337   -1.3636 H   0  0  0  0  0  0  0  0  0  0  0  0
   -1.6117   -2.8256   -1.1453 C   0  0  0  0  0  0  0  0  0  0  0  0
   -2.3999   -2.2859   -0.6367 H   0  0  0  0  0  0  0  0  0  0  0  0
   -1.2168    1.1047    0.4313 C   0  0  0  0  0  0  0  0  0  0  0  0
   -2.0890    1.6186   -0.2704 O   0  0  0  0  0  0  0  0  0  0  0  0
   -0.4674    1.8182    1.2813 N   0  0  0  0  0  0  0  0  0  0  0  0
    0.2640    1.3348    1.7800 H   0  0  0  0  0  0  0  0  0  0  0  0
   -0.5889    3.2615    1.4722 C   0  0  0  0  0  0  0  0  0  0  0  0
   -1.6291    3.5206    1.6805 H   0  0  0  0  0  0  0  0  0  0  0  0
    0.0359    3.5855    2.3049 H   0  0  0  0  0  0  0  0  0  0  0  0
   -0.2760    3.7797    0.5637 H   0  0  0  0  0  0  0  0  0  0  0  0
  5  6  2  0  0  0  0
  5  7  1  0  0  0  0
  2  3  1  0  0  0  0
  2  4  1  0  0  0  0
  2  5  1  0  0  0  0
  1  2  1  0  0  0  0
 25 26  2  0  0  0  0
 25 27  1  0  0  0  0
 23 24  1  0  0  0  0
 21 22  1  0  0  0  0
 21 23  2  0  0  0  0
 19 20  1  0  0  0  0
 19 21  1  0  0  0  0
 17 18  1  0  0  0  0
 17 19  2  0  0  0  0
 15 16  1  0  0  0  0
 15 17  1  0  0  0  0
 14 15  2  0  0  0  0
 14 23  1  0  0  0  0
 11 12  1  0  0  0  0
 11 13  1  0  0  0  0
 11 14  1  0  0  0  0
  9 10  1  0  0  0  0
  9 11  1  0  0  0  0
  9 25  1  0  0  0  0
  7  8  1  0  0  0  0
  7  9  1  0  0  0  0
 29 30  1  0  0  0  0
 29 31  1  0  0  0  0
 29 32  1  0  0  0  0
 27 28  1  0  0  0  0
 27 29  1  0  0  0  0
M  END
$$$$
default_name
  -OEChem-02102213163D

 32 32  0     1  0  0  0  0  0999 V2000
   -3.8405   -3.7518    1.6252 H   0  0  0  0  0  0  0  0  0  0  0  0
   -3.7965   -2.8768    0.9782 C   0  0  0  0  0  0  0  0  0  0  0  0
   -4.5465   -2.1527    1.2902 H   0  0  0  0  0  0  0  0  0  0  0  0
   -3.9745   -3.1748   -0.0538 H   0  0  0  0  0  0  0  0  0  0  0  0
   -2.4245   -2.2537    1.0882 C   0  0  0  0  0  0  0  0  0  0  0  0
   -1.5805   -2.7478    1.8242 O   0  0  0  0  0  0  0  0  0  0  0  0
   -2.2045   -1.1637    0.3562 N   0  0  0  0  0  0  0  0  0  0  0  0
   -2.9595   -0.7907   -0.2008 H   0  0  0  0  0  0  0  0  0  0  0  0
   -0.9485   -0.4087    0.3482 C   0  0  1  0  0  0  0  0  0  0  0  0
   -0.3666   -0.6914    1.2269 H   0  0  0  0  0  0  0  0  0  0  0  0
   -0.1405   -0.7797   -0.9072 C   0  0  0  0  0  0  0  0  0  0  0  0
   -0.4049   -0.0956   -1.7147 H   0  0  0  0  0  0  0  0  0  0  0  0
    0.9215   -0.6437   -0.6973 H   0  0  0  0  0  0  0  0  0  0  0  0
   -0.3771   -2.1964   -1.3948 C   0  0  0  0  0  0  0  0  0  0  0  0
    0.7072   -3.0113   -1.7720 C   0  0  0  0  0  0  0  0  0  0  0  0
    1.7154   -2.6233   -1.7377 H   0  0  0  0  0  0  0  0  0  0  0  0
    0.4832   -4.3379   -2.1840 C   0  0  0  0  0  0  0  0  0  0  0  0
    1.3170   -4.9611   -2.4757 H   0  0  0  0  0  0  0  0  0  0  0  0
   -0.8239   -4.8525   -2.2179 C   0  0  0  0  0  0  0  0  0  0  0  0
   -0.9962   -5.8710   -2.5367 H   0  0  0  0  0  0  0  0  0  0  0  0
   -1.9098   -4.0404   -1.8431 C   0  0  0  0  0  0  0  0  0  0  0  0
   -2.9151   -4.4341   -1.8742 H   0  0  0  0  0  0  0  0  0  0  0  0
   -1.6860   -2.7136   -1.4345 C   0  0  0  0  0  0  0  0  0  0  0  0
   -2.5225   -2.0889   -1.1496 H   0  0  0  0  0  0  0  0  0  0  0  0
   -1.2168    1.1047    0.4313 C   0  0  0  0  0  0  0  0  0  0  0  0
   -2.0890    1.6186   -0.2704 O   0  0  0  0  0  0  0  0  0  0  0  0
   -0.4674    1.8182    1.2813 N   0  0  0  0  0  0  0  0  0  0  0  0
    0.2640    1.3348    1.7800 H   0  0  0  0  0  0  0  0  0  0  0  0
   -0.5889    3.2615    1.4722 C   0  0  0  0  0  0  0  0  0  0  0  0
   -1.6291    3.5206    1.6805 H   0  0  0  0  0  0  0  0  0  0  0  0
    0.0359    3.5855    2.3049 H   0  0  0  0  0  0  0  0  0  0  0  0
   -0.2760    3.7797    0.5637 H   0  0  0  0  0  0  0  0  0  0  0  0
  5  6  2  0  0  0  0
  5  7  1  0  0  0  0
  2  3  1  0  0  0  0
  2  4  1  0  0  0  0
  2  5  1  0  0  0  0
  1  2  1  0  0  0  0
 25 26  2  0  0  0  0
 25 27  1  0  0  0  0
 23 24  1  0  0  0  0
 21 22  1  0  0  0  0
 21 23  2  0  0  0  0
 19 20  1  0  0  0  0
 19 21  1  0  0  0  0
 17 18  1  0  0  0  0
 17 19  2  0  0  0  0
 15 16  1  0  0  0  0
 15 17  1  0  0  0  0
 14 15  2  0  0  0  0
 14 23  1  0  0  0  0
 11 12  1  0  0  0  0
 11 13  1  0  0  0  0
 11 14  1  0  0  0  0
  9 10  1  0  0  0  0
  9 11  1  0  0  0  0
  9 25  1  0  0  0  0
  7  8  1  0  0  0  0
  7  9  1  0  0  0  0
 29 30  1  0  0  0  0
 29 31  1  0  0  0  0
 29 32  1  0  0  0  0
 27 28  1  0  0  0  0
 27 29  1  0  0  0  0
M  END
$$$$
default_name
  -OEChem-02102213163D

 32 32  0     1  0  0  0  0  0999 V2000
   -3.8405   -3.7518    1.6252 H   0  0  0  0  0  0  0  0  0  0  0  0
   -3.7965   -2.8768    0.9782 C   0  0  0  0  0  0  0  0  0  0  0  0
   -4.5465   -2.1527    1.2902 H   0  0  0  0  0  0  0  0  0  0  0  0
   -3.9745   -3.1748   -0.0538 H   0  0  0  0  0  0  0  0  0  0  0  0
   -2.4245   -2.2537    1.0882 C   0  0  0  0  0  0  0  0  0  0  0  0
   -1.5805   -2.7478    1.8242 O   0  0  0  0  0  0  0  0  0  0  0  0
   -2.2045   -1.1637    0.3562 N   0  0  0  0  0  0  0  0  0  0  0  0
   -2.9595   -0.7907   -0.2008 H   0  0  0  0  0  0  0  0  0  0  0  0
   -0.9485   -0.4087    0.3482 C   0  0  1  0  0  0  0  0  0  0  0  0
   -0.3666   -0.6914    1.2269 H   0  0  0  0  0  0  0  0  0  0  0  0
   -0.1405   -0.7797   -0.9072 C   0  0  0  0  0  0  0  0  0  0  0  0
   -0.4049   -0.0956   -1.7147 H   0  0  0  0  0  0  0  0  0  0  0  0
    0.9215   -0.6437   -0.6973 H   0  0  0  0  0  0  0  0  0  0  0  0
   -0.3771   -2.1964   -1.3948 C   0  0  0  0  0  0  0  0  0  0  0  0
    0.6898   -3.1117   -1.4720 C   0  0  0  0  0  0  0  0  0  0  0  0
    1.6905   -2.8025   -1.2050 H   0  0  0  0  0  0  0  0  0  0  0  0
    0.4552   -4.4359   -1.8859 C   0  0  0  0  0  0  0  0  0  0  0  0
    1.2763   -5.1363   -1.9469 H   0  0  0  0  0  0  0  0  0  0  0  0
   -0.8457   -4.8476   -2.2215 C   0  0  0  0  0  0  0  0  0  0  0  0
   -1.0255   -5.8643   -2.5418 H   0  0  0  0  0  0  0  0  0  0  0  0
   -1.9138   -3.9351   -2.1469 C   0  0  0  0  0  0  0  0  0  0  0  0
   -2.9130   -4.2500   -2.4100 H   0  0  0  0  0  0  0  0  0  0  0  0
   -1.6785   -2.6110   -1.7363 C   0  0  0  0  0  0  0  0  0  0  0  0
   -2.5006   -1.9090   -1.6826 H   0  0  0  0  0  0  0  0  0  0  0  0
   -1.2168    1.1047    0.4313 C   0  0  0  0  0  0  0  0  0  0  0  0
   -2.0890    1.6186   -0.2704 O   0  0  0  0  0  0  0  0  0  0  0  0
   -0.4674    1.8182    1.2813 N   0  0  0  0  0  0  0  0  0  0  0  0
    0.2640    1.3348    1.7800 H   0  0  0  0  0  0  0  0  0  0  0  0
   -0.5889    3.2615    1.4722 C   0  0  0  0  0  0  0  0  0  0  0  0
   -1.6291    3.5206    1.6805 H   0  0  0  0  0  0  0  0  0  0  0  0
    0.0359    3.5855    2.3049 H   0  0  0  0  0  0  0  0  0  0  0  0
   -0.2760    3.7797    0.5637 H   0  0  0  0  0  0  0  0  0  0  0  0
  5  6  2  0  0  0  0
  5  7  1  0  0  0  0
  2  3  1  0  0  0  0
  2  4  1  0  0  0  0
  2  5  1  0  0  0  0
  1  2  1  0  0  0  0
 25 26  2  0  0  0  0
 25 27  1  0  0  0  0
 23 24  1  0  0  0  0
 21 22  1  0  0  0  0
 21 23  2  0  0  0  0
 19 20  1  0  0  0  0
 19 21  1  0  0  0  0
 17 18  1  0  0  0  0
 17 19  2  0  0  0  0
 15 16  1  0  0  0  0
 15 17  1  0  0  0  0
 14 15  2  0  0  0  0
 14 23  1  0  0  0  0
 11 12  1  0  0  0  0
 11 13  1  0  0  0  0
 11 14  1  0  0  0  0
  9 10  1  0  0  0  0
  9 11  1  0  0  0  0
  9 25  1  0  0  0  0
  7  8  1  0  0  0  0
  7  9  1  0  0  0  0
 29 30  1  0  0  0  0
 29 31  1  0  0  0  0
 29 32  1  0  0  0  0
 27 28  1  0  0  0  0
 27 29  1  0  0  0  0
M  END
$$$$
default_name
  -OEChem-02102213163D

 32 32  0     1  0  0  0  0  0999 V2000
   -3.8405   -3.7518    1.6252 H   0  0  0  0  0  0  0  0  0  0  0  0
   -3.7965   -2.8768    0.9782 C   0  0  0  0  0  0  0  0  0  0  0  0
   -4.5465   -2.1527    1.2902 H   0  0  0  0  0  0  0  0  0  0  0  0
   -3.9745   -3.1748   -0.0538 H   0  0  0  0  0  0  0  0  0  0  0  0
   -2.4245   -2.2537    1.0882 C   0  0  0  0  0  0  0  0  0  0  0  0
   -1.5805   -2.7478    1.8242 O   0  0  0  0  0  0  0  0  0  0  0  0
   -2.2045   -1.1637    0.3562 N   0  0  0  0  0  0  0  0  0  0  0  0
   -2.9595   -0.7907   -0.2008 H   0  0  0  0  0  0  0  0  0  0  0  0
   -0.9485   -0.4087    0.3482 C   0  0  1  0  0  0  0  0  0  0  0  0
   -0.3666   -0.6914    1.2269 H   0  0  0  0  0  0  0  0  0  0  0  0
   -0.1405   -0.7797   -0.9072 C   0  0  0  0  0  0  0  0  0  0  0  0
   -0.4049   -0.0956   -1.7147 H   0  0  0  0  0  0  0  0  0  0  0  0
    0.9215   -0.6437   -0.6973 H   0  0  0  0  0  0  0  0  0  0  0  0
   -0.3771   -2.1964   -1.3948 C   0  0  0  0  0  0  0  0  0  0  0  0
    0.5922   -3.1951   -1.1823 C   0  0  0  0  0  0  0  0  0  0  0  0
    1.5228   -2.9521   -0.6892 H   0  0  0  0  0  0  0  0  0  0  0  0
    0.3480   -4.5161   -1.6008 C   0  0  0  0  0  0  0  0  0  0  0  0
    1.0946   -5.2809   -1.4390 H   0  0  0  0  0  0  0  0  0  0  0  0
   -0.8655   -4.8412   -2.2304 C   0  0  0  0  0  0  0  0  0  0  0  0
   -1.0521   -5.8557   -2.5541 H   0  0  0  0  0  0  0  0  0  0  0  0
   -1.8355   -3.8454   -2.4457 C   0  0  0  0  0  0  0  0  0  0  0  0
   -2.7661   -4.0940   -2.9345 H   0  0  0  0  0  0  0  0  0  0  0  0
   -1.5899   -2.5246   -2.0303 C   0  0  0  0  0  0  0  0  0  0  0  0
   -2.3356   -1.7587   -2.1994 H   0  0  0  0  0  0  0  0  0  0  0  0
   -1.2168    1.1047    0.4313 C   0  0  0  0  0  0  0  0  0  0  0  0
   -2.0890    1.6186   -0.2704 O   0  0  0  0  0  0  0  0  0  0  0  0
   -0.4674    1.8182    1.2813 N   0  0  0  0  0  0  0  0  0  0  0  0
    0.2640    1.3348    1.7800 H   0  0  0  0  0  0  0  0  0  0  0  0
   -0.5889    3.2615    1.4722 C   0  0  0  0  0  0  0  0  0  0  0  0
   -1.6291    3.5206    1.6805 H   0  0  0  0  0  0  0  0  0  0  0  0
    0.0359    3.5855    2.3049 H   0  0  0  0  0  0  0  0  0  0  0  0
   -0.2760    3.7797    0.5637 H   0  0  0  0  0  0  0  0  0  0  0  0
  5  6  2  0  0  0  0
  5  7  1  0  0  0  0
  2  3  1  0  0  0  0
  2  4  1  0  0  0  0
  2  5  1  0  0  0  0
  1  2  1  0  0  0  0
 25 26  2  0  0  0  0
 25 27  1  0  0  0  0
 23 24  1  0  0  0  0
 21 22  1  0  0  0  0
 21 23  2  0  0  0  0
 19 20  1  0  0  0  0
 19 21  1  0  0  0  0
 17 18  1  0  0  0  0
 17 19  2  0  0  0  0
 15 16  1  0  0  0  0
 15 17  1  0  0  0  0
 14 15  2  0  0  0  0
 14 23  1  0  0  0  0
 11 12  1  0  0  0  0
 11 13  1  0  0  0  0
 11 14  1  0  0  0  0
  9 10  1  0  0  0  0
  9 11  1  0  0  0  0
  9 25  1  0  0  0  0
  7  8  1  0  0  0  0
  7  9  1  0  0  0  0
 29 30  1  0  0  0  0
 29 31  1  0  0  0  0
 29 32  1  0  0  0  0
 27 28  1  0  0  0  0
 27 29  1  0  0  0  0
M  END
$$$$
default_name
  -OEChem-02102213163D

 32 32  0     1  0  0  0  0  0999 V2000
   -3.8405   -3.7518    1.6252 H   0  0  0  0  0  0  0  0  0  0  0  0
   -3.7965   -2.8768    0.9782 C   0  0  0  0  0  0  0  0  0  0  0  0
   -4.5465   -2.1527    1.2902 H   0  0  0  0  0  0  0  0  0  0  0  0
   -3.9745   -3.1748   -0.0538 H   0  0  0  0  0  0  0  0  0  0  0  0
   -2.4245   -2.2537    1.0882 C   0  0  0  0  0  0  0  0  0  0  0  0
   -1.5805   -2.7478    1.8242 O   0  0  0  0  0  0  0  0  0  0  0  0
   -2.2045   -1.1637    0.3562 N   0  0  0  0  0  0  0  0  0  0  0  0
   -2.9595   -0.7907   -0.2008 H   0  0  0  0  0  0  0  0  0  0  0  0
   -0.9485   -0.4087    0.3482 C   0  0  1  0  0  0  0  0  0  0  0  0
   -0.3666   -0.6914    1.2269 H   0  0  0  0  0  0  0  0  0  0  0  0
   -0.1405   -0.7797   -0.9072 C   0  0  0  0  0  0  0  0  0  0  0  0
   -0.4049   -0.0956   -1.7147 H   0  0  0  0  0  0  0  0  0  0  0  0
    0.9215   -0.6437   -0.6973 H   0  0  0  0  0  0  0  0  0  0  0  0
   -0.3771   -2.1964   -1.3948 C   0  0  0  0  0  0  0  0  0  0  0  0
    0.4209   -3.2558   -0.9228 C   0  0  0  0  0  0  0  0  0  0  0  0
    1.2236   -3.0617   -0.2255 H   0  0  0  0  0  0  0  0  0  0  0  0
    0.1688   -4.5732   -1.3481 C   0  0  0  0  0  0  0  0  0  0  0  0
    0.7843   -5.3848   -0.9864 H   0  0  0  0  0  0  0  0  0  0  0  0
   -0.8819   -4.8338   -2.2441 C   0  0  0  0  0  0  0  0  0  0  0  0
   -1.0740   -5.8456   -2.5727 H   0  0  0  0  0  0  0  0  0  0  0  0
   -1.6802   -3.7773   -2.7189 C   0  0  0  0  0  0  0  0  0  0  0  0
   -2.4844   -3.9767   -3.4118 H   0  0  0  0  0  0  0  0  0  0  0  0
   -1.4260   -2.4604   -2.2962 C   0  0  0  0  0  0  0  0  0  0  0  0
   -2.0387   -1.6481   -2.6648 H   0  0  0  0  0  0  0  0  0  0  0  0
   -1.2168    1.1047    0.4313 C   0  0  0  0  0  0  0  0  0  0  0  0
   -2.0890    1.6186   -0.2704 O   0  0  0  0  0  0  0  0  0  0  0  0
   -0.4674    1.8182    1.2813 N   0  0  0  0  0  0  0  0  0  0  0  0
    0.2640    1.3348    1.7800 H   0  0  0  0  0  0  0  0  0  0  0  0
   -0.5889    3.2615    1.4722 C   0  0  0  0  0  0  0  0  0  0  0  0
   -1.6291    3.5206    1.6805 H   0  0  0  0  0  0  0  0  0  0  0  0
    0.0359    3.5855    2.3049 H   0  0  0  0  0  0  0  0  0  0  0  0
   -0.2760    3.7797    0.5637 H   0  0  0  0  0  0  0  0  0  0  0  0
  5  6  2  0  0  0  0
  5  7  1  0  0  0  0
  2  3  1  0  0  0  0
  2  4  1  0  0  0  0
  2  5  1  0  0  0  0
  1  2  1  0  0  0  0
 25 26  2  0  0  0  0
 25 27  1  0  0  0  0
 23 24  1  0  0  0  0
 21 22  1  0  0  0  0
 21 23  2  0  0  0  0
 19 20  1  0  0  0  0
 19 21  1  0  0  0  0
 17 18  1  0  0  0  0
 17 19  2  0  0  0  0
 15 16  1  0  0  0  0
 15 17  1  0  0  0  0
 14 15  2  0  0  0  0
 14 23  1  0  0  0  0
 11 12  1  0  0  0  0
 11 13  1  0  0  0  0
 11 14  1  0  0  0  0
  9 10  1  0  0  0  0
  9 11  1  0  0  0  0
  9 25  1  0  0  0  0
  7  8  1  0  0  0  0
  7  9  1  0  0  0  0
 29 30  1  0  0  0  0
 29 31  1  0  0  0  0
 29 32  1  0  0  0  0
 27 28  1  0  0  0  0
 27 29  1  0  0  0  0
M  END
$$$$
default_name
  -OEChem-02102213163D

 32 32  0     1  0  0  0  0  0999 V2000
   -3.8405   -3.7518    1.6252 H   0  0  0  0  0  0  0  0  0  0  0  0
   -3.7965   -2.8768    0.9782 C   0  0  0  0  0  0  0  0  0  0  0  0
   -4.5465   -2.1527    1.2902 H   0  0  0  0  0  0  0  0  0  0  0  0
   -3.9745   -3.1748   -0.0538 H   0  0  0  0  0  0  0  0  0  0  0  0
   -2.4245   -2.2537    1.0882 C   0  0  0  0  0  0  0  0  0  0  0  0
   -1.5805   -2.7478    1.8242 O   0  0  0  0  0  0  0  0  0  0  0  0
   -2.2045   -1.1637    0.3562 N   0  0  0  0  0  0  0  0  0  0  0  0
   -2.9595   -0.7907   -0.2008 H   0  0  0  0  0  0  0  0  0  0  0  0
   -0.9485   -0.4087    0.3482 C   0  0  1  0  0  0  0  0  0  0  0  0
   -0.3666   -0.6914    1.2269 H   0  0  0  0  0  0  0  0  0  0  0  0
   -0.1405   -0.7797   -0.9072 C   0  0  0  0  0  0  0  0  0  0  0  0
   -0.4049   -0.0956   -1.7147 H   0  0  0  0  0  0  0  0  0  0  0  0
    0.9215   -0.6437   -0.6973 H   0  0  0  0  0  0  0  0  0  0  0  0
   -0.3771   -2.1964   -1.3948 C   0  0  0  0  0  0  0  0  0  0  0  0
    0.1876   -3.2898   -0.7110 C   0  0  0  0  0  0  0  0  0  0  0  0
    0.8134   -3.1240    0.1545 H   0  0  0  0  0  0  0  0  0  0  0  0
   -0.0701   -4.6032   -1.1451 C   0  0  0  0  0  0  0  0  0  0  0  0
    0.3666   -5.4412   -0.6201 H   0  0  0  0  0  0  0  0  0  0  0  0
   -0.8938   -4.8258   -2.2616 C   0  0  0  0  0  0  0  0  0  0  0  0
   -1.0899   -5.8348   -2.5964 H   0  0  0  0  0  0  0  0  0  0  0  0
   -1.4585   -3.7354   -2.9481 C   0  0  0  0  0  0  0  0  0  0  0  0
   -2.0872   -3.9061   -3.8096 H   0  0  0  0  0  0  0  0  0  0  0  0
   -1.1980   -2.4228   -2.5160 C   0  0  0  0  0  0  0  0  0  0  0  0
   -1.6303   -1.5847   -3.0470 H   0  0  0  0  0  0  0  0  0  0  0  0
   -1.2168    1.1047    0.4313 C   0  0  0  0  0  0  0  0  0  0  0  0
   -2.0890    1.6186   -0.2704 O   0  0  0  0  0  0  0  0  0  0  0  0
   -0.4674    1.8182    1.2813 N   0  0  0  0  0  0  0  0  0  0  0  0
    0.2640    1.3348    1.7800 H   0  0  0  0  0  0  0  0  0  0  0  0
   -0.5889    3.2615    1.4722 C   0  0  0  0  0  0  0  0  0  0  0  0
   -1.6291    3.5206    1.6805 H   0  0  0  0  0  0  0  0  0  0  0  0
    0.0359    3.5855    2.3049 H   0  0  0  0  0  0  0  0  0  0  0  0
   -0.2760    3.7797    0.5637 H   0  0  0  0  0  0  0  0  0  0  0  0
  5  6  2  0  0  0  0
  5  7  1  0  0  0  0
  2  3  1  0  0  0  0
  2  4  1  0  0  0  0
  2  5  1  0  0  0  0
  1  2  1  0  0  0  0
 25 26  2  0  0  0  0
 25 27  1  0  0  0  0
 23 24  1  0  0  0  0
 21 22  1  0  0  0  0
 21 23  2  0  0  0  0
 19 20  1  0  0  0  0
 19 21  1  0  0  0  0
 17 18  1  0  0  0  0
 17 19  2  0  0  0  0
 15 16  1  0  0  0  0
 15 17  1  0  0  0  0
 14 15  2  0  0  0  0
 14 23  1  0  0  0  0
 11 12  1  0  0  0  0
 11 13  1  0  0  0  0
 11 14  1  0  0  0  0
  9 10  1  0  0  0  0
  9 11  1  0  0  0  0
  9 25  1  0  0  0  0
  7  8  1  0  0  0  0
  7  9  1  0  0  0  0
 29 30  1  0  0  0  0
 29 31  1  0  0  0  0
 29 32  1  0  0  0  0
 27 28  1  0  0  0  0
 27 29  1  0  0  0  0
M  END
$$$$
default_name
  -OEChem-02102213163D

 32 32  0     1  0  0  0  0  0999 V2000
   -3.8405   -3.7518    1.6252 H   0  0  0  0  0  0  0  0  0  0  0  0
   -3.7965   -2.8768    0.9782 C   0  0  0  0  0  0  0  0  0  0  0  0
   -4.5465   -2.1527    1.2902 H   0  0  0  0  0  0  0  0  0  0  0  0
   -3.9745   -3.1748   -0.0538 H   0  0  0  0  0  0  0  0  0  0  0  0
   -2.4245   -2.2537    1.0882 C   0  0  0  0  0  0  0  0  0  0  0  0
   -1.5805   -2.7478    1.8242 O   0  0  0  0  0  0  0  0  0  0  0  0
   -2.2045   -1.1637    0.3562 N   0  0  0  0  0  0  0  0  0  0  0  0
   -2.9595   -0.7907   -0.2008 H   0  0  0  0  0  0  0  0  0  0  0  0
   -0.9485   -0.4087    0.3482 C   0  0  1  0  0  0  0  0  0  0  0  0
   -0.3666   -0.6914    1.2269 H   0  0  0  0  0  0  0  0  0  0  0  0
   -0.1405   -0.7797   -0.9072 C   0  0  0  0  0  0  0  0  0  0  0  0
   -0.4049   -0.0956   -1.7147 H   0  0  0  0  0  0  0  0  0  0  0  0
    0.9215   -0.6437   -0.6973 H   0  0  0  0  0  0  0  0  0  0  0  0
   -0.3771   -2.1964   -1.3948 C   0  0  0  0  0  0  0  0  0  0  0  0
   -0.0917   -3.2946   -0.5615 C   0  0  0  0  0  0  0  0  0  0  0  0
    0.3202   -3.1348    0.4250 H   0  0  0  0  0  0  0  0  0  0  0  0
   -0.3525   -4.6041   -1.0054 C   0  0  0  0  0  0  0  0  0  0  0  0
   -0.1302   -5.4460   -0.3650 H   0  0  0  0  0  0  0  0  0  0  0  0
   -0.9004   -4.8178   -2.2817 C   0  0  0  0  0  0  0  0  0  0  0  0
   -1.0986   -5.8240   -2.6236 H   0  0  0  0  0  0  0  0  0  0  0  0
   -1.1854   -3.7227   -3.1175 C   0  0  0  0  0  0  0  0  0  0  0  0
   -1.6015   -3.8871   -4.1006 H   0  0  0  0  0  0  0  0  0  0  0  0
   -0.9216   -2.4143   -2.6748 C   0  0  0  0  0  0  0  0  0  0  0  0
   -1.1381   -1.5729   -3.3201 H   0  0  0  0  0  0  0  0  0  0  0  0
   -1.2168    1.1047    0.4313 C   0  0  0  0  0  0  0  0  0  0  0  0
   -2.0890    1.6186   -0.2704 O   0  0  0  0  0  0  0  0  0  0  0  0
   -0.4674    1.8182    1.2813 N   0  0  0  0  0  0  0  0  0  0  0  0
    0.2640    1.3348    1.7800 H   0  0  0  0  0  0  0  0  0  0  0  0
   -0.5889    3.2615    1.4722 C   0  0  0  0  0  0  0  0  0  0  0  0
   -1.6291    3.5206    1.6805 H   0  0  0  0  0  0  0  0  0  0  0  0
    0.0359    3.5855    2.3049 H   0  0  0  0  0  0  0  0  0  0  0  0
   -0.2760    3.7797    0.5637 H   0  0  0  0  0  0  0  0  0  0  0  0
  5  6  2  0  0  0  0
  5  7  1  0  0  0  0
  2  3  1  0  0  0  0
  2  4  1  0  0  0  0
  2  5  1  0  0  0  0
  1  2  1  0  0  0  0
 25 26  2  0  0  0  0
 25 27  1  0  0  0  0
 23 24  1  0  0  0  0
 21 22  1  0  0  0  0
 21 23  2  0  0  0  0
 19 20  1  0  0  0  0
 19 21  1  0  0  0  0
 17 18  1  0  0  0  0
 17 19  2  0  0  0  0
 15 16  1  0  0  0  0
 15 17  1  0  0  0  0
 14 15  2  0  0  0  0
 14 23  1  0  0  0  0
 11 12  1  0  0  0  0
 11 13  1  0  0  0  0
 11 14  1  0  0  0  0
  9 10  1  0  0  0  0
  9 11  1  0  0  0  0
  9 25  1  0  0  0  0
  7  8  1  0  0  0  0
  7  9  1  0  0  0  0
 29 30  1  0  0  0  0
 29 31  1  0  0  0  0
 29 32  1  0  0  0  0
 27 28  1  0  0  0  0
 27 29  1  0  0  0  0
M  END
$$$$
default_name
  -OEChem-02102213163D

 32 32  0     1  0  0  0  0  0999 V2000
   -3.8405   -3.7518    1.6252 H   0  0  0  0  0  0  0  0  0  0  0  0
   -3.7965   -2.8768    0.9782 C   0  0  0  0  0  0  0  0  0  0  0  0
   -4.5465   -2.1527    1.2902 H   0  0  0  0  0  0  0  0  0  0  0  0
   -3.9745   -3.1748   -0.0538 H   0  0  0  0  0  0  0  0  0  0  0  0
   -2.4245   -2.2537    1.0882 C   0  0  0  0  0  0  0  0  0  0  0  0
   -1.5805   -2.7478    1.8242 O   0  0  0  0  0  0  0  0  0  0  0  0
   -2.2045   -1.1637    0.3562 N   0  0  0  0  0  0  0  0  0  0  0  0
   -2.9595   -0.7907   -0.2008 H   0  0  0  0  0  0  0  0  0  0  0  0
   -0.9485   -0.4087    0.3482 C   0  0  1  0  0  0  0  0  0  0  0  0
   -0.3666   -0.6914    1.2269 H   0  0  0  0  0  0  0  0  0  0  0  0
   -0.1405   -0.7797   -0.9072 C   0  0  0  0  0  0  0  0  0  0  0  0
   -0.4049   -0.0956   -1.7147 H   0  0  0  0  0  0  0  0  0  0  0  0
    0.9215   -0.6437   -0.6973 H   0  0  0  0  0  0  0  0  0  0  0  0
   -0.3771   -2.1964   -1.3948 C   0  0  0  0  0  0  0  0  0  0  0  0
   -0.3980   -3.2700   -0.4844 C   0  0  0  0  0  0  0  0  0  0  0  0
   -0.2225   -3.0932    0.5674 H   0  0  0  0  0  0  0  0  0  0  0  0
   -0.6591   -4.5758   -0.9388 C   0  0  0  0  0  0  0  0  0  0  0  0
   -0.6721   -5.3991   -0.2384 H   0  0  0  0  0  0  0  0  0  0  0  0
   -0.9013   -4.8103   -2.3030 C   0  0  0  0  0  0  0  0  0  0  0  0
   -1.0995   -5.8139   -2.6524 H   0  0  0  0  0  0  0  0  0  0  0  0
   -0.8796   -3.7400   -3.2156 C   0  0  0  0  0  0  0  0  0  0  0  0
   -1.0604   -3.9208   -4.2651 H   0  0  0  0  0  0  0  0  0  0  0  0
   -0.6155   -2.4355   -2.7617 C   0  0  0  0  0  0  0  0  0  0  0  0
   -0.5957   -1.6135   -3.4653 H   0  0  0  0  0  0  0  0  0  0  0  0
   -1.2168    1.1047    0.4313 C   0  0  0  0  0  0  0  0  0  0  0  0
   -2.0890    1.6186   -0.2704 O   0  0  0  0  0  0  0  0  0  0  0  0
   -0.4674    1.8182    1.2813 N   0  0  0  0  0  0  0  0  0  0  0  0
    0.2640    1.3348    1.7800 H   0  0  0  0  0  0  0  0  0  0  0  0
   -0.5889    3.2615    1.4722 C   0  0  0  0  0  0  0  0  0  0  0  0
   -1.6291    3.5206    1.6805 H   0  0  0  0  0  0  0  0  0  0  0  0
    0.0359    3.5855    2.3049 H   0  0  0  0  0  0  0  0  0  0  0  0
   -0.2760    3.7797    0.5637 H   0  0  0  0  0  0  0  0  0  0  0  0
  5  6  2  0  0  0  0
  5  7  1  0  0  0  0
  2  3  1  0  0  0  0
  2  4  1  0  0  0  0
  2  5  1  0  0  0  0
  1  2  1  0  0  0  0
 25 26  2  0  0  0  0
 25 27  1  0  0  0  0
 23 24  1  0  0  0  0
 21 22  1  0  0  0  0
 21 23  2  0  0  0  0
 19 20  1  0  0  0  0
 19 21  1  0  0  0  0
 17 18  1  0  0  0  0
 17 19  2  0  0  0  0
 15 16  1  0  0  0  0
 15 17  1  0  0  0  0
 14 15  2  0  0  0  0
 14 23  1  0  0  0  0
 11 12  1  0  0  0  0
 11 13  1  0  0  0  0
 11 14  1  0  0  0  0
  9 10  1  0  0  0  0
  9 11  1  0  0  0  0
  9 25  1  0  0  0  0
  7  8  1  0  0  0  0
  7  9  1  0  0  0  0
 29 30  1  0  0  0  0
 29 31  1  0  0  0  0
 29 32  1  0  0  0  0
 27 28  1  0  0  0  0
 27 29  1  0  0  0  0
M  END
$$$$
default_name
  -OEChem-02102213163D

 32 32  0     1  0  0  0  0  0999 V2000
   -3.8405   -3.7518    1.6252 H   0  0  0  0  0  0  0  0  0  0  0  0
   -3.7965   -2.8768    0.9782 C   0  0  0  0  0  0  0  0  0  0  0  0
   -4.5465   -2.1527    1.2902 H   0  0  0  0  0  0  0  0  0  0  0  0
   -3.9745   -3.1748   -0.0538 H   0  0  0  0  0  0  0  0  0  0  0  0
   -2.4245   -2.2537    1.0882 C   0  0  0  0  0  0  0  0  0  0  0  0
   -1.5805   -2.7478    1.8242 O   0  0  0  0  0  0  0  0  0  0  0  0
   -2.2045   -1.1637    0.3562 N   0  0  0  0  0  0  0  0  0  0  0  0
   -2.9595   -0.7907   -0.2008 H   0  0  0  0  0  0  0  0  0  0  0  0
   -0.9485   -0.4087    0.3482 C   0  0  1  0  0  0  0  0  0  0  0  0
   -0.3666   -0.6914    1.2269 H   0  0  0  0  0  0  0  0  0  0  0  0
   -0.1405   -0.7797   -0.9072 C   0  0  0  0  0  0  0  0  0  0  0  0
   -0.4049   -0.0956   -1.7147 H   0  0  0  0  0  0  0  0  0  0  0  0
    0.9215   -0.6437   -0.6973 H   0  0  0  0  0  0  0  0  0  0  0  0
   -0.3771   -2.1964   -1.3948 C   0  0  0  0  0  0  0  0  0  0  0  0
   -0.7105   -3.2176   -0.4849 C   0  0  0  0  0  0  0  0  0  0  0  0
   -0.7777   -3.0021    0.5721 H   0  0  0  0  0  0  0  0  0  0  0  0
   -0.9689   -4.5203   -0.9497 C   0  0  0  0  0  0  0  0  0  0  0  0
   -1.2223   -5.3036   -0.2491 H   0  0  0  0  0  0  0  0  0  0  0  0
   -0.8964   -4.8038   -2.3241 C   0  0  0  0  0  0  0  0  0  0  0  0
   -1.0926   -5.8053   -2.6809 H   0  0  0  0  0  0  0  0  0  0  0  0
   -0.5620   -3.7860   -3.2358 C   0  0  0  0  0  0  0  0  0  0  0  0
   -0.5008   -4.0050   -4.2918 H   0  0  0  0  0  0  0  0  0  0  0  0
   -0.3005   -2.4850   -2.7708 C   0  0  0  0  0  0  0  0  0  0  0  0
   -0.0401   -1.7036   -3.4729 H   0  0  0  0  0  0  0  0  0  0  0  0
   -1.2168    1.1047    0.4313 C   0  0  0  0  0  0  0  0  0  0  0  0
   -2.0890    1.6186   -0.2704 O   0  0  0  0  0  0  0  0  0  0  0  0
   -0.4674    1.8182    1.2813 N   0  0  0  0  0  0  0  0  0  0  0  0
    0.2640    1.3348    1.7800 H   0  0  0  0  0  0  0  0  0  0  0  0
   -0.5889    3.2615    1.4722 C   0  0  0  0  0  0  0  0  0  0  0  0
   -1.6291    3.5206    1.6805 H   0  0  0  0  0  0  0  0  0  0  0  0
    0.0359    3.5855    2.3049 H   0  0  0  0  0  0  0  0  0  0  0  0
   -0.2760    3.7797    0.5637 H   0  0  0  0  0  0  0  0  0  0  0  0
  5  6  2  0  0  0  0
  5  7  1  0  0  0  0
  2  3  1  0  0  0  0
  2  4  1  0  0  0  0
  2  5  1  0  0  0  0
  1  2  1  0  0  0  0
 25 26  2  0  0  0  0
 25 27  1  0  0  0  0
 23 24  1  0  0  0  0
 21 22  1  0  0  0  0
 21 23  2  0  0  0  0
 19 20  1  0  0  0  0
 19 21  1  0  0  0  0
 17 18  1  0  0  0  0
 17 19  2  0  0  0  0
 15 16  1  0  0  0  0
 15 17  1  0  0  0  0
 14 15  2  0  0  0  0
 14 23  1  0  0  0  0
 11 12  1  0  0  0  0
 11 13  1  0  0  0  0
 11 14  1  0  0  0  0
  9 10  1  0  0  0  0
  9 11  1  0  0  0  0
  9 25  1  0  0  0  0
  7  8  1  0  0  0  0
  7  9  1  0  0  0  0
 29 30  1  0  0  0  0
 29 31  1  0  0  0  0
 29 32  1  0  0  0  0
 27 28  1  0  0  0  0
 27 29  1  0  0  0  0
M  END
$$$$
default_name
  -OEChem-02102213163D

 32 32  0     1  0  0  0  0  0999 V2000
   -3.8405   -3.7518    1.6252 H   0  0  0  0  0  0  0  0  0  0  0  0
   -3.7965   -2.8768    0.9782 C   0  0  0  0  0  0  0  0  0  0  0  0
   -4.5465   -2.1527    1.2902 H   0  0  0  0  0  0  0  0  0  0  0  0
   -3.9745   -3.1748   -0.0538 H   0  0  0  0  0  0  0  0  0  0  0  0
   -2.4245   -2.2537    1.0882 C   0  0  0  0  0  0  0  0  0  0  0  0
   -1.5805   -2.7478    1.8242 O   0  0  0  0  0  0  0  0  0  0  0  0
   -2.2045   -1.1637    0.3562 N   0  0  0  0  0  0  0  0  0  0  0  0
   -2.9595   -0.7907   -0.2008 H   0  0  0  0  0  0  0  0  0  0  0  0
   -0.9485   -0.4087    0.3482 C   0  0  1  0  0  0  0  0  0  0  0  0
   -0.3666   -0.6914    1.2269 H   0  0  0  0  0  0  0  0  0  0  0  0
   -0.1405   -0.7797   -0.9072 C   0  0  0  0  0  0  0  0  0  0  0  0
   -0.4049   -0.0956   -1.7147 H   0  0  0  0  0  0  0  0  0  0  0  0
    0.9215   -0.6437   -0.6973 H   0  0  0  0  0  0  0  0  0  0  0  0
   -0.3771   -2.1964   -1.3948 C   0  0  0  0  0  0  0  0  0  0  0  0
   -1.0079   -3.1410   -0.5631 C   0  0  0  0  0  0  0  0  0  0  0  0
   -1.3075   -2.8677    0.4387 H   0  0  0  0  0  0  0  0  0  0  0  0
   -1.2610   -4.4414   -1.0373 C   0  0  0  0  0  0  0  0  0  0  0  0
   -1.7432   -5.1660   -0.3962 H   0  0  0  0  0  0  0  0  0  0  0  0
   -0.8860   -4.7989   -2.3435 C   0  0  0  0  0  0  0  0  0  0  0  0
   -1.0784   -5.7986   -2.7070 H   0  0  0  0  0  0  0  0  0  0  0  0
   -0.2541   -3.8578   -3.1767 C   0  0  0  0  0  0  0  0  0  0  0  0
    0.0391   -4.1341   -4.1789 H   0  0  0  0  0  0  0  0  0  0  0  0
    0.0017   -2.5593   -2.7014 C   0  0  0  0  0  0  0  0  0  0  0  0
    0.4909   -1.8373   -3.3422 H   0  0  0  0  0  0  0  0  0  0  0  0
   -1.2168    1.1047    0.4313 C   0  0  0  0  0  0  0  0  0  0  0  0
   -2.0890    1.6186   -0.2704 O   0  0  0  0  0  0  0  0  0  0  0  0
   -0.4674    1.8182    1.2813 N   0  0  0  0  0  0  0  0  0  0  0  0
    0.2640    1.3348    1.7800 H   0  0  0  0  0  0  0  0  0  0  0  0
   -0.5889    3.2615    1.4722 C   0  0  0  0  0  0  0  0  0  0  0  0
   -1.6291    3.5206    1.6805 H   0  0  0  0  0  0  0  0  0  0  0  0
    0.0359    3.5855    2.3049 H   0  0  0  0  0  0  0  0  0  0  0  0
   -0.2760    3.7797    0.5637 H   0  0  0  0  0  0  0  0  0  0  0  0
  5  6  2  0  0  0  0
  5  7  1  0  0  0  0
  2  3  1  0  0  0  0
  2  4  1  0  0  0  0
  2  5  1  0  0  0  0
  1  2  1  0  0  0  0
 25 26  2  0  0  0  0
 25 27  1  0  0  0  0
 23 24  1  0  0  0  0
 21 22  1  0  0  0  0
 21 23  2  0  0  0  0
 19 20  1  0  0  0  0
 19 21  1  0  0  0  0
 17 18  1  0  0  0  0
 17 19  2  0  0  0  0
 15 16  1  0  0  0  0
 15 17  1  0  0  0  0
 14 15  2  0  0  0  0
 14 23  1  0  0  0  0
 11 12  1  0  0  0  0
 11 13  1  0  0  0  0
 11 14  1  0  0  0  0
  9 10  1  0  0  0  0
  9 11  1  0  0  0  0
  9 25  1  0  0  0  0
  7  8  1  0  0  0  0
  7  9  1  0  0  0  0
 29 30  1  0  0  0  0
 29 31  1  0  0  0  0
 29 32  1  0  0  0  0
 27 28  1  0  0  0  0
 27 29  1  0  0  0  0
M  END
$$$$
default_name
  -OEChem-02102213163D

 32 32  0     1  0  0  0  0  0999 V2000
   -3.8405   -3.7518    1.6252 H   0  0  0  0  0  0  0  0  0  0  0  0
   -3.7965   -2.8768    0.9782 C   0  0  0  0  0  0  0  0  0  0  0  0
   -4.5465   -2.1527    1.2902 H   0  0  0  0  0  0  0  0  0  0  0  0
   -3.9745   -3.1748   -0.0538 H   0  0  0  0  0  0  0  0  0  0  0  0
   -2.4245   -2.2537    1.0882 C   0  0  0  0  0  0  0  0  0  0  0  0
   -1.5805   -2.7478    1.8242 O   0  0  0  0  0  0  0  0  0  0  0  0
   -2.2045   -1.1637    0.3562 N   0  0  0  0  0  0  0  0  0  0  0  0
   -2.9595   -0.7907   -0.2008 H   0  0  0  0  0  0  0  0  0  0  0  0
   -0.9485   -0.4087    0.3482 C   0  0  1  0  0  0  0  0  0  0  0  0
   -0.3666   -0.6914    1.2269 H   0  0  0  0  0  0  0  0  0  0  0  0
   -0.1405   -0.7797   -0.9072 C   0  0  0  0  0  0  0  0  0  0  0  0
   -0.4049   -0.0956   -1.7147 H   0  0  0  0  0  0  0  0  0  0  0  0
    0.9215   -0.6437   -0.6973 H   0  0  0  0  0  0  0  0  0  0  0  0
   -0.3771   -2.1964   -1.3948 C   0  0  0  0  0  0  0  0  0  0  0  0
   -1.2698   -3.0455   -0.7137 C   0  0  0  0  0  0  0  0  0  0  0  0
   -1.7759   -2.6992    0.1764 H   0  0  0  0  0  0  0  0  0  0  0  0
   -1.5154   -4.3444   -1.1958 C   0  0  0  0  0  0  0  0  0  0  0  0
   -2.1993   -4.9956   -0.6698 H   0  0  0  0  0  0  0  0  0  0  0  0
   -0.8708   -4.7957   -2.3600 C   0  0  0  0  0  0  0  0  0  0  0  0
   -1.0577   -5.7945   -2.7291 H   0  0  0  0  0  0  0  0  0  0  0  0
    0.0230   -3.9504   -3.0423 C   0  0  0  0  0  0  0  0  0  0  0  0
    0.5227   -4.2991   -3.9341 H   0  0  0  0  0  0  0  0  0  0  0  0
    0.2707   -2.6535   -2.5583 C   0  0  0  0  0  0  0  0  0  0  0  0
    0.9611   -2.0053   -3.0822 H   0  0  0  0  0  0  0  0  0  0  0  0
   -1.2168    1.1047    0.4313 C   0  0  0  0  0  0  0  0  0  0  0  0
   -2.0890    1.6186   -0.2704 O   0  0  0  0  0  0  0  0  0  0  0  0
   -0.4674    1.8182    1.2813 N   0  0  0  0  0  0  0  0  0  0  0  0
    0.2640    1.3348    1.7800 H   0  0  0  0  0  0  0  0  0  0  0  0
   -0.5889    3.2615    1.4722 C   0  0  0  0  0  0  0  0  0  0  0  0
   -1.6291    3.5206    1.6805 H   0  0  0  0  0  0  0  0  0  0  0  0
    0.0359    3.5855    2.3049 H   0  0  0  0  0  0  0  0  0  0  0  0
   -0.2760    3.7797    0.5637 H   0  0  0  0  0  0  0  0  0  0  0  0
  5  6  2  0  0  0  0
  5  7  1  0  0  0  0
  2  3  1  0  0  0  0
  2  4  1  0  0  0  0
  2  5  1  0  0  0  0
  1  2  1  0  0  0  0
 25 26  2  0  0  0  0
 25 27  1  0  0  0  0
 23 24  1  0  0  0  0
 21 22  1  0  0  0  0
 21 23  2  0  0  0  0
 19 20  1  0  0  0  0
 19 21  1  0  0  0  0
 17 18  1  0  0  0  0
 17 19  2  0  0  0  0
 15 16  1  0  0  0  0
 15 17  1  0  0  0  0
 14 15  2  0  0  0  0
 14 23  1  0  0  0  0
 11 12  1  0  0  0  0
 11 13  1  0  0  0  0
 11 14  1  0  0  0  0
  9 10  1  0  0  0  0
  9 11  1  0  0  0  0
  9 25  1  0  0  0  0
  7  8  1  0  0  0  0
  7  9  1  0  0  0  0
 29 30  1  0  0  0  0
 29 31  1  0  0  0  0
 29 32  1  0  0  0  0
 27 28  1  0  0  0  0
 27 29  1  0  0  0  0
M  END
$$$$
default_name
  -OEChem-02102213163D

 32 32  0     1  0  0  0  0  0999 V2000
   -3.8405   -3.7518    1.6252 H   0  0  0  0  0  0  0  0  0  0  0  0
   -3.7965   -2.8768    0.9782 C   0  0  0  0  0  0  0  0  0  0  0  0
   -4.5465   -2.1527    1.2902 H   0  0  0  0  0  0  0  0  0  0  0  0
   -3.9745   -3.1748   -0.0538 H   0  0  0  0  0  0  0  0  0  0  0  0
   -2.4245   -2.2537    1.0882 C   0  0  0  0  0  0  0  0  0  0  0  0
   -1.5805   -2.7478    1.8242 O   0  0  0  0  0  0  0  0  0  0  0  0
   -2.2045   -1.1637    0.3562 N   0  0  0  0  0  0  0  0  0  0  0  0
   -2.9595   -0.7907   -0.2008 H   0  0  0  0  0  0  0  0  0  0  0  0
   -0.9485   -0.4087    0.3482 C   0  0  1  0  0  0  0  0  0  0  0  0
   -0.3666   -0.6914    1.2269 H   0  0  0  0  0  0  0  0  0  0  0  0
   -0.1405   -0.7797   -0.9072 C   0  0  0  0  0  0  0  0  0  0  0  0
   -0.4049   -0.0956   -1.7147 H   0  0  0  0  0  0  0  0  0  0  0  0
    0.9215   -0.6437   -0.6973 H   0  0  0  0  0  0  0  0  0  0  0  0
   -0.3771   -2.1964   -1.3948 C   0  0  0  0  0  0  0  0  0  0  0  0
   -1.4785   -2.9375   -0.9262 C   0  0  0  0  0  0  0  0  0  0  0  0
   -2.1509   -2.5081   -0.1969 H   0  0  0  0  0  0  0  0  0  0  0  0
   -1.7147   -4.2359   -1.4143 C   0  0  0  0  0  0  0  0  0  0  0  0
   -2.5595   -4.8042   -1.0512 H   0  0  0  0  0  0  0  0  0  0  0  0
   -0.8519   -4.7946   -2.3724 C   0  0  0  0  0  0  0  0  0  0  0  0
   -1.0321   -5.7931   -2.7456 H   0  0  0  0  0  0  0  0  0  0  0  0
    0.2505   -4.0574   -2.8417 C   0  0  0  0  0  0  0  0  0  0  0  0
    0.9169   -4.4888   -3.5741 H   0  0  0  0  0  0  0  0  0  0  0  0
    0.4882   -2.7611   -2.3513 C   0  0  0  0  0  0  0  0  0  0  0  0
    1.3385   -2.1962   -2.7106 H   0  0  0  0  0  0  0  0  0  0  0  0
   -1.2168    1.1047    0.4313 C   0  0  0  0  0  0  0  0  0  0  0  0
   -2.0890    1.6186   -0.2704 O   0  0  0  0  0  0  0  0  0  0  0  0
   -0.4674    1.8182    1.2813 N   0  0  0  0  0  0  0  0  0  0  0  0
    0.2640    1.3348    1.7800 H   0  0  0  0  0  0  0  0  0  0  0  0
   -0.5889    3.2615    1.4722 C   0  0  0  0  0  0  0  0  0  0  0  0
   -1.6291    3.5206    1.6805 H   0  0  0  0  0  0  0  0  0  0  0  0
    0.0359    3.5855    2.3049 H   0  0  0  0  0  0  0  0  0  0  0  0
   -0.2760    3.7797    0.5637 H   0  0  0  0  0  0  0  0  0  0  0  0
  5  6  2  0  0  0  0
  5  7  1  0  0  0  0
  2  3  1  0  0  0  0
  2  4  1  0  0  0  0
  2  5  1  0  0  0  0
  1  2  1  0  0  0  0
 25 26  2  0  0  0  0
 25 27  1  0  0  0  0
 23 24  1  0  0  0  0
 21 22  1  0  0  0  0
 21 23  2  0  0  0  0
 19 20  1  0  0  0  0
 19 21  1  0  0  0  0
 17 18  1  0  0  0  0
 17 19  2  0  0  0  0
 15 16  1  0  0  0  0
 15 17  1  0  0  0  0
 14 15  2  0  0  0  0
 14 23  1  0  0  0  0
 11 12  1  0  0  0  0
 11 13  1  0  0  0  0
 11 14  1  0  0  0  0
  9 10  1  0  0  0  0
  9 11  1  0  0  0  0
  9 25  1  0  0  0  0
  7  8  1  0  0  0  0
  7  9  1  0  0  0  0
 29 30  1  0  0  0  0
 29 31  1  0  0  0  0
 29 32  1  0  0  0  0
 27 28  1  0  0  0  0
 27 29  1  0  0  0  0
M  END
$$$$
default_name
  -OEChem-02102213163D

 32 32  0     1  0  0  0  0  0999 V2000
   -3.8405   -3.7518    1.6252 H   0  0  0  0  0  0  0  0  0  0  0  0
   -3.7965   -2.8768    0.9782 C   0  0  0  0  0  0  0  0  0  0  0  0
   -4.5465   -2.1527    1.2902 H   0  0  0  0  0  0  0  0  0  0  0  0
   -3.9745   -3.1748   -0.0538 H   0  0  0  0  0  0  0  0  0  0  0  0
   -2.4245   -2.2537    1.0882 C   0  0  0  0  0  0  0  0  0  0  0  0
   -1.5805   -2.7478    1.8242 O   0  0  0  0  0  0  0  0  0  0  0  0
   -2.2045   -1.1637    0.3562 N   0  0  0  0  0  0  0  0  0  0  0  0
   -2.9595   -0.7907   -0.2008 H   0  0  0  0  0  0  0  0  0  0  0  0
   -0.9485   -0.4087    0.3482 C   0  0  1  0  0  0  0  0  0  0  0  0
   -0.3666   -0.6914    1.2269 H   0  0  0  0  0  0  0  0  0  0  0  0
   -0.1405   -0.7797   -0.9072 C   0  0  0  0  0  0  0  0  0  0  0  0
   -0.4049   -0.0956   -1.7147 H   0  0  0  0  0  0  0  0  0  0  0  0
    0.9215   -0.6437   -0.6973 H   0  0  0  0  0  0  0  0  0  0  0  0
   -0.3771   -2.1964   -1.3948 C   0  0  0  0  0  0  0  0  0  0  0  0
   -1.6197   -2.8244   -1.1863 C   0  0  0  0  0  0  0  0  0  0  0  0
   -2.4069   -2.3073   -0.6560 H   0  0  0  0  0  0  0  0  0  0  0  0
   -1.8454   -4.1233   -1.6779 C   0  0  0  0  0  0  0  0  0  0  0  0
   -2.7994   -4.6047   -1.5144 H   0  0  0  0  0  0  0  0  0  0  0  0
   -0.8306   -4.7956   -2.3798 C   0  0  0  0  0  0  0  0  0  0  0  0
   -1.0032   -5.7945   -2.7554 H   0  0  0  0  0  0  0  0  0  0  0  0
    0.4128   -4.1716   -2.5886 C   0  0  0  0  0  0  0  0  0  0  0  0
    1.1948   -4.6903   -3.1235 H   0  0  0  0  0  0  0  0  0  0  0  0
    0.6392   -2.8747   -2.0944 C   0  0  0  0  0  0  0  0  0  0  0  0
    1.5973   -2.3970   -2.2528 H   0  0  0  0  0  0  0  0  0  0  0  0
   -1.2168    1.1047    0.4313 C   0  0  0  0  0  0  0  0  0  0  0  0
   -2.0890    1.6186   -0.2704 O   0  0  0  0  0  0  0  0  0  0  0  0
   -0.4674    1.8182    1.2813 N   0  0  0  0  0  0  0  0  0  0  0  0
    0.2640    1.3348    1.7800 H   0  0  0  0  0  0  0  0  0  0  0  0
   -0.5889    3.2615    1.4722 C   0  0  0  0  0  0  0  0  0  0  0  0
   -1.6291    3.5206    1.6805 H   0  0  0  0  0  0  0  0  0  0  0  0
    0.0359    3.5855    2.3049 H   0  0  0  0  0  0  0  0  0  0  0  0
   -0.2760    3.7797    0.5637 H   0  0  0  0  0  0  0  0  0  0  0  0
  5  6  2  0  0  0  0
  5  7  1  0  0  0  0
  2  3  1  0  0  0  0
  2  4  1  0  0  0  0
  2  5  1  0  0  0  0
  1  2  1  0  0  0  0
 25 26  2  0  0  0  0
 25 27  1  0  0  0  0
 23 24  1  0  0  0  0
 21 22  1  0  0  0  0
 21 23  2  0  0  0  0
 19 20  1  0  0  0  0
 19 21  1  0  0  0  0
 17 18  1  0  0  0  0
 17 19  2  0  0  0  0
 15 16  1  0  0  0  0
 15 17  1  0  0  0  0
 14 15  2  0  0  0  0
 14 23  1  0  0  0  0
 11 12  1  0  0  0  0
 11 13  1  0  0  0  0
 11 14  1  0  0  0  0
  9 10  1  0  0  0  0
  9 11  1  0  0  0  0
  9 25  1  0  0  0  0
  7  8  1  0  0  0  0
  7  9  1  0  0  0  0
 29 30  1  0  0  0  0
 29 31  1  0  0  0  0
 29 32  1  0  0  0  0
 27 28  1  0  0  0  0
 27 29  1  0  0  0  0
M  END
$$$$
default_name
  -OEChem-02102213163D

 32 32  0     1  0  0  0  0  0999 V2000
   -3.8405   -3.7518    1.6252 H   0  0  0  0  0  0  0  0  0  0  0  0
   -3.7965   -2.8768    0.9782 C   0  0  0  0  0  0  0  0  0  0  0  0
   -4.5465   -2.1527    1.2902 H   0  0  0  0  0  0  0  0  0  0  0  0
   -3.9745   -3.1748   -0.0538 H   0  0  0  0  0  0  0  0  0  0  0  0
   -2.4245   -2.2537    1.0882 C   0  0  0  0  0  0  0  0  0  0  0  0
   -1.5805   -2.7478    1.8242 O   0  0  0  0  0  0  0  0  0  0  0  0
   -2.2045   -1.1637    0.3562 N   0  0  0  0  0  0  0  0  0  0  0  0
   -2.9595   -0.7907   -0.2008 H   0  0  0  0  0  0  0  0  0  0  0  0
   -0.9485   -0.4087    0.3482 C   0  0  1  0  0  0  0  0  0  0  0  0
   -0.3666   -0.6914    1.2269 H   0  0  0  0  0  0  0  0  0  0  0  0
   -0.1405   -0.7797   -0.9072 C   0  0  0  0  0  0  0  0  0  0  0  0
   -0.4049   -0.0956   -1.7147 H   0  0  0  0  0  0  0  0  0  0  0  0
    0.9215   -0.6437   -0.6973 H   0  0  0  0  0  0  0  0  0  0  0  0
   -0.3771   -2.1964   -1.3948 C   0  0  0  0  0  0  0  0  0  0  0  0
   -1.6838   -2.7139   -1.4763 C   0  0  0  0  0  0  0  0  0  0  0  0
   -2.5265   -2.1106   -1.1693 H   0  0  0  0  0  0  0  0  0  0  0  0
   -1.8985   -4.0144   -1.9686 C   0  0  0  0  0  0  0  0  0  0  0  0
   -2.9025   -4.4107   -2.0279 H   0  0  0  0  0  0  0  0  0  0  0  0
   -0.8083   -4.7987   -2.3818 C   0  0  0  0  0  0  0  0  0  0  0  0
   -0.9731   -5.7987   -2.7579 H   0  0  0  0  0  0  0  0  0  0  0  0
    0.4989   -4.2852   -2.3003 C   0  0  0  0  0  0  0  0  0  0  0  0
    1.3376   -4.8899   -2.6129 H   0  0  0  0  0  0  0  0  0  0  0  0
    0.7135   -2.9867   -1.8052 C   0  0  0  0  0  0  0  0  0  0  0  0
    1.7199   -2.5941   -1.7399 H   0  0  0  0  0  0  0  0  0  0  0  0
   -1.2168    1.1047    0.4313 C   0  0  0  0  0  0  0  0  0  0  0  0
   -2.0890    1.6186   -0.2704 O   0  0  0  0  0  0  0  0  0  0  0  0
   -0.4674    1.8182    1.2813 N   0  0  0  0  0  0  0  0  0  0  0  0
    0.2640    1.3348    1.7800 H   0  0  0  0  0  0  0  0  0  0  0  0
   -0.5889    3.2615    1.4722 C   0  0  0  0  0  0  0  0  0  0  0  0
   -1.6291    3.5206    1.6805 H   0  0  0  0  0  0  0  0  0  0  0  0
    0.0359    3.5855    2.3049 H   0  0  0  0  0  0  0  0  0  0  0  0
   -0.2760    3.7797    0.5637 H   0  0  0  0  0  0  0  0  0  0  0  0
  5  6  2  0  0  0  0
  5  7  1  0  0  0  0
  2  3  1  0  0  0  0
  2  4  1  0  0  0  0
  2  5  1  0  0  0  0
  1  2  1  0  0  0  0
 25 26  2  0  0  0  0
 25 27  1  0  0  0  0
 23 24  1  0  0  0  0
 21 22  1  0  0  0  0
 21 23  2  0  0  0  0
 19 20  1  0  0  0  0
 19 21  1  0  0  0  0
 17 18  1  0  0  0  0
 17 19  2  0  0  0  0
 15 16  1  0  0  0  0
 15 17  1  0  0  0  0
 14 15  2  0  0  0  0
 14 23  1  0  0  0  0
 11 12  1  0  0  0  0
 11 13  1  0  0  0  0
 11 14  1  0  0  0  0
  9 10  1  0  0  0  0
  9 11  1  0  0  0  0
  9 25  1  0  0  0  0
  7  8  1  0  0  0  0
  7  9  1  0  0  0  0
 29 30  1  0  0  0  0
 29 31  1  0  0  0  0
 29 32  1  0  0  0  0
 27 28  1  0  0  0  0
 27 29  1  0  0  0  0
M  END
$$$$
default_name
  -OEChem-02102213163D

 32 32  0     1  0  0  0  0  0999 V2000
   -3.8405   -3.7518    1.6252 H   0  0  0  0  0  0  0  0  0  0  0  0
   -3.7965   -2.8768    0.9782 C   0  0  0  0  0  0  0  0  0  0  0  0
   -4.5465   -2.1527    1.2902 H   0  0  0  0  0  0  0  0  0  0  0  0
   -3.9745   -3.1748   -0.0538 H   0  0  0  0  0  0  0  0  0  0  0  0
   -2.4245   -2.2537    1.0882 C   0  0  0  0  0  0  0  0  0  0  0  0
   -1.5805   -2.7478    1.8242 O   0  0  0  0  0  0  0  0  0  0  0  0
   -2.2045   -1.1637    0.3562 N   0  0  0  0  0  0  0  0  0  0  0  0
   -2.9595   -0.7907   -0.2008 H   0  0  0  0  0  0  0  0  0  0  0  0
   -0.9485   -0.4087    0.3482 C   0  0  1  0  0  0  0  0  0  0  0  0
   -0.3666   -0.6914    1.2269 H   0  0  0  0  0  0  0  0  0  0  0  0
   -0.1405   -0.7797   -0.9072 C   0  0  0  0  0  0  0  0  0  0  0  0
   -0.4049   -0.0956   -1.7147 H   0  0  0  0  0  0  0  0  0  0  0  0
    0.9215   -0.6437   -0.6973 H   0  0  0  0  0  0  0  0  0  0  0  0
   -0.3771   -2.1964   -1.3948 C   0  0  0  0  0  0  0  0  0  0  0  0
   -1.6664   -2.6135   -1.7763 C   0  0  0  0  0  0  0  0  0  0  0  0
   -2.5016   -1.9314   -1.7021 H   0  0  0  0  0  0  0  0  0  0  0  0
   -1.8705   -3.9165   -2.2667 C   0  0  0  0  0  0  0  0  0  0  0  0
   -2.8618   -4.2355   -2.5566 H   0  0  0  0  0  0  0  0  0  0  0  0
   -0.7865   -4.8036   -2.3782 C   0  0  0  0  0  0  0  0  0  0  0  0
   -0.9437   -5.8054   -2.7528 H   0  0  0  0  0  0  0  0  0  0  0  0
    0.5030   -4.3905   -1.9965 C   0  0  0  0  0  0  0  0  0  0  0  0
    1.3354   -5.0740   -2.0771 H   0  0  0  0  0  0  0  0  0  0  0  0
    0.7061   -3.0893   -1.5034 C   0  0  0  0  0  0  0  0  0  0  0  0
    1.6980   -2.7739   -1.2069 H   0  0  0  0  0  0  0  0  0  0  0  0
   -1.2168    1.1047    0.4313 C   0  0  0  0  0  0  0  0  0  0  0  0
   -2.0890    1.6186   -0.2704 O   0  0  0  0  0  0  0  0  0  0  0  0
   -0.4674    1.8182    1.2813 N   0  0  0  0  0  0  0  0  0  0  0  0
    0.2640    1.3348    1.7800 H   0  0  0  0  0  0  0  0  0  0  0  0
   -0.5889    3.2615    1.4722 C   0  0  0  0  0  0  0  0  0  0  0  0
   -1.6291    3.5206    1.6805 H   0  0  0  0  0  0  0  0  0  0  0  0
    0.0359    3.5855    2.3049 H   0  0  0  0  0  0  0  0  0  0  0  0
   -0.2760    3.7797    0.5637 H   0  0  0  0  0  0  0  0  0  0  0  0
  5  6  2  0  0  0  0
  5  7  1  0  0  0  0
  2  3  1  0  0  0  0
  2  4  1  0  0  0  0
  2  5  1  0  0  0  0
  1  2  1  0  0  0  0
 25 26  2  0  0  0  0
 25 27  1  0  0  0  0
 23 24  1  0  0  0  0
 21 22  1  0  0  0  0
 21 23  2  0  0  0  0
 19 20  1  0  0  0  0
 19 21  1  0  0  0  0
 17 18  1  0  0  0  0
 17 19  2  0  0  0  0
 15 16  1  0  0  0  0
 15 17  1  0  0  0  0
 14 15  2  0  0  0  0
 14 23  1  0  0  0  0
 11 12  1  0  0  0  0
 11 13  1  0  0  0  0
 11 14  1  0  0  0  0
  9 10  1  0  0  0  0
  9 11  1  0  0  0  0
  9 25  1  0  0  0  0
  7  8  1  0  0  0  0
  7  9  1  0  0  0  0
 29 30  1  0  0  0  0
 29 31  1  0  0  0  0
 29 32  1  0  0  0  0
 27 28  1  0  0  0  0
 27 29  1  0  0  0  0
M  END
$$$$
default_name
  -OEChem-02102213163D

 32 32  0     1  0  0  0  0  0999 V2000
   -3.8405   -3.7518    1.6252 H   0  0  0  0  0  0  0  0  0  0  0  0
   -3.7965   -2.8768    0.9782 C   0  0  0  0  0  0  0  0  0  0  0  0
   -4.5465   -2.1527    1.2902 H   0  0  0  0  0  0  0  0  0  0  0  0
   -3.9745   -3.1748   -0.0538 H   0  0  0  0  0  0  0  0  0  0  0  0
   -2.4245   -2.2537    1.0882 C   0  0  0  0  0  0  0  0  0  0  0  0
   -1.5805   -2.7478    1.8242 O   0  0  0  0  0  0  0  0  0  0  0  0
   -2.2045   -1.1637    0.3562 N   0  0  0  0  0  0  0  0  0  0  0  0
   -2.9595   -0.7907   -0.2008 H   0  0  0  0  0  0  0  0  0  0  0  0
   -0.9485   -0.4087    0.3482 C   0  0  1  0  0  0  0  0  0  0  0  0
   -0.3666   -0.6914    1.2269 H   0  0  0  0  0  0  0  0  0  0  0  0
   -0.1405   -0.7797   -0.9072 C   0  0  0  0  0  0  0  0  0  0  0  0
   -0.4049   -0.0956   -1.7147 H   0  0  0  0  0  0  0  0  0  0  0  0
    0.9215   -0.6437   -0.6973 H   0  0  0  0  0  0  0  0  0  0  0  0
   -0.3771   -2.1964   -1.3948 C   0  0  0  0  0  0  0  0  0  0  0  0
   -1.5688   -2.5301   -2.0660 C   0  0  0  0  0  0  0  0  0  0  0  0
   -2.3339   -1.7819   -2.2179 H   0  0  0  0  0  0  0  0  0  0  0  0
   -1.7633   -3.8362   -2.5518 C   0  0  0  0  0  0  0  0  0  0  0  0
   -2.6802   -4.0910   -3.0646 H   0  0  0  0  0  0  0  0  0  0  0  0
   -0.7667   -4.8099   -2.3693 C   0  0  0  0  0  0  0  0  0  0  0  0
   -0.9172   -5.8140   -2.7405 H   0  0  0  0  0  0  0  0  0  0  0  0
    0.4247   -4.4802   -1.6978 C   0  0  0  0  0  0  0  0  0  0  0  0
    1.1885   -5.2300   -1.5526 H   0  0  0  0  0  0  0  0  0  0  0  0
    0.6174   -3.1757   -1.2095 C   0  0  0  0  0  0  0  0  0  0  0  0
    1.5330   -2.9242   -0.6901 H   0  0  0  0  0  0  0  0  0  0  0  0
   -1.2168    1.1047    0.4313 C   0  0  0  0  0  0  0  0  0  0  0  0
   -2.0890    1.6186   -0.2704 O   0  0  0  0  0  0  0  0  0  0  0  0
   -0.4674    1.8182    1.2813 N   0  0  0  0  0  0  0  0  0  0  0  0
    0.2640    1.3348    1.7800 H   0  0  0  0  0  0  0  0  0  0  0  0
   -0.5889    3.2615    1.4722 C   0  0  0  0  0  0  0  0  0  0  0  0
   -1.6291    3.5206    1.6805 H   0  0  0  0  0  0  0  0  0  0  0  0
    0.0359    3.5855    2.3049 H   0  0  0  0  0  0  0  0  0  0  0  0
   -0.2760    3.7797    0.5637 H   0  0  0  0  0  0  0  0  0  0  0  0
  5  6  2  0  0  0  0
  5  7  1  0  0  0  0
  2  3  1  0  0  0  0
  2  4  1  0  0  0  0
  2  5  1  0  0  0  0
  1  2  1  0  0  0  0
 25 26  2  0  0  0  0
 25 27  1  0  0  0  0
 23 24  1  0  0  0  0
 21 22  1  0  0  0  0
 21 23  2  0  0  0  0
 19 20  1  0  0  0  0
 19 21  1  0  0  0  0
 17 18  1  0  0  0  0
 17 19  2  0  0  0  0
 15 16  1  0  0  0  0
 15 17  1  0  0  0  0
 14 15  2  0  0  0  0
 14 23  1  0  0  0  0
 11 12  1  0  0  0  0
 11 13  1  0  0  0  0
 11 14  1  0  0  0  0
  9 10  1  0  0  0  0
  9 11  1  0  0  0  0
  9 25  1  0  0  0  0
  7  8  1  0  0  0  0
  7  9  1  0  0  0  0
 29 30  1  0  0  0  0
 29 31  1  0  0  0  0
 29 32  1  0  0  0  0
 27 28  1  0  0  0  0
 27 29  1  0  0  0  0
M  END
$$$$
default_name
  -OEChem-02102213163D

 32 32  0     1  0  0  0  0  0999 V2000
   -3.8405   -3.7518    1.6252 H   0  0  0  0  0  0  0  0  0  0  0  0
   -3.7965   -2.8768    0.9782 C   0  0  0  0  0  0  0  0  0  0  0  0
   -4.5465   -2.1527    1.2902 H   0  0  0  0  0  0  0  0  0  0  0  0
   -3.9745   -3.1748   -0.0538 H   0  0  0  0  0  0  0  0  0  0  0  0
   -2.4245   -2.2537    1.0882 C   0  0  0  0  0  0  0  0  0  0  0  0
   -1.5805   -2.7478    1.8242 O   0  0  0  0  0  0  0  0  0  0  0  0
   -2.2045   -1.1637    0.3562 N   0  0  0  0  0  0  0  0  0  0  0  0
   -2.9595   -0.7907   -0.2008 H   0  0  0  0  0  0  0  0  0  0  0  0
   -0.9485   -0.4087    0.3482 C   0  0  1  0  0  0  0  0  0  0  0  0
   -0.3666   -0.6914    1.2269 H   0  0  0  0  0  0  0  0  0  0  0  0
   -0.1405   -0.7797   -0.9072 C   0  0  0  0  0  0  0  0  0  0  0  0
   -0.4049   -0.0956   -1.7147 H   0  0  0  0  0  0  0  0  0  0  0  0
    0.9215   -0.6437   -0.6973 H   0  0  0  0  0  0  0  0  0  0  0  0
   -0.3771   -2.1964   -1.3948 C   0  0  0  0  0  0  0  0  0  0  0  0
   -1.3975   -2.4693   -2.3255 C   0  0  0  0  0  0  0  0  0  0  0  0
   -2.0347   -1.6722   -2.6816 H   0  0  0  0  0  0  0  0  0  0  0  0
   -1.5841   -3.7792   -2.8045 C   0  0  0  0  0  0  0  0  0  0  0  0
   -2.3699   -3.9870   -3.5171 H   0  0  0  0  0  0  0  0  0  0  0  0
   -0.7503   -4.8174   -2.3556 C   0  0  0  0  0  0  0  0  0  0  0  0
   -0.8952   -5.8241   -2.7218 H   0  0  0  0  0  0  0  0  0  0  0  0
    0.2694   -4.5484   -1.4245 C   0  0  0  0  0  0  0  0  0  0  0  0
    0.9069   -5.3473   -1.0753 H   0  0  0  0  0  0  0  0  0  0  0  0
    0.4535   -3.2399   -0.9435 C   0  0  0  0  0  0  0  0  0  0  0  0
    1.2361   -3.0348   -0.2247 H   0  0  0  0  0  0  0  0  0  0  0  0
   -1.2168    1.1047    0.4313 C   0  0  0  0  0  0  0  0  0  0  0  0
   -2.0890    1.6186   -0.2704 O   0  0  0  0  0  0  0  0  0  0  0  0
   -0.4674    1.8182    1.2813 N   0  0  0  0  0  0  0  0  0  0  0  0
    0.2640    1.3348    1.7800 H   0  0  0  0  0  0  0  0  0  0  0  0
   -0.5889    3.2615    1.4722 C   0  0  0  0  0  0  0  0  0  0  0  0
   -1.6291    3.5206    1.6805 H   0  0  0  0  0  0  0  0  0  0  0  0
    0.0359    3.5855    2.3049 H   0  0  0  0  0  0  0  0  0  0  0  0
   -0.2760    3.7797    0.5637 H   0  0  0  0  0  0  0  0  0  0  0  0
  5  6  2  0  0  0  0
  5  7  1  0  0  0  0
  2  3  1  0  0  0  0
  2  4  1  0  0  0  0
  2  5  1  0  0  0  0
  1  2  1  0  0  0  0
 25 26  2  0  0  0  0
 25 27  1  0  0  0  0
 23 24  1  0  0  0  0
 21 22  1  0  0  0  0
 21 23  2  0  0  0  0
 19 20  1  0  0  0  0
 19 21  1  0  0  0  0
 17 18  1  0  0  0  0
 17 19  2  0  0  0  0
 15 16  1  0  0  0  0
 15 17  1  0  0  0  0
 14 15  2  0  0  0  0
 14 23  1  0  0  0  0
 11 12  1  0  0  0  0
 11 13  1  0  0  0  0
 11 14  1  0  0  0  0
  9 10  1  0  0  0  0
  9 11  1  0  0  0  0
  9 25  1  0  0  0  0
  7  8  1  0  0  0  0
  7  9  1  0  0  0  0
 29 30  1  0  0  0  0
 29 31  1  0  0  0  0
 29 32  1  0  0  0  0
 27 28  1  0  0  0  0
 27 29  1  0  0  0  0
M  END
$$$$
default_name
  -OEChem-02102213163D

 32 32  0     1  0  0  0  0  0999 V2000
   -3.8405   -3.7518    1.6252 H   0  0  0  0  0  0  0  0  0  0  0  0
   -3.7965   -2.8768    0.9782 C   0  0  0  0  0  0  0  0  0  0  0  0
   -4.5465   -2.1527    1.2902 H   0  0  0  0  0  0  0  0  0  0  0  0
   -3.9745   -3.1748   -0.0538 H   0  0  0  0  0  0  0  0  0  0  0  0
   -2.4245   -2.2537    1.0882 C   0  0  0  0  0  0  0  0  0  0  0  0
   -1.5805   -2.7478    1.8242 O   0  0  0  0  0  0  0  0  0  0  0  0
   -2.2045   -1.1637    0.3562 N   0  0  0  0  0  0  0  0  0  0  0  0
   -2.9595   -0.7907   -0.2008 H   0  0  0  0  0  0  0  0  0  0  0  0
   -0.9485   -0.4087    0.3482 C   0  0  1  0  0  0  0  0  0  0  0  0
   -0.3666   -0.6914    1.2269 H   0  0  0  0  0  0  0  0  0  0  0  0
   -0.1405   -0.7797   -0.9072 C   0  0  0  0  0  0  0  0  0  0  0  0
   -0.4049   -0.0956   -1.7147 H   0  0  0  0  0  0  0  0  0  0  0  0
    0.9215   -0.6437   -0.6973 H   0  0  0  0  0  0  0  0  0  0  0  0
   -0.3771   -2.1964   -1.3948 C   0  0  0  0  0  0  0  0  0  0  0  0
   -1.1642   -2.4354   -2.5373 C   0  0  0  0  0  0  0  0  0  0  0  0
   -1.6245   -1.6099   -3.0616 H   0  0  0  0  0  0  0  0  0  0  0  0
   -1.3452   -3.7492   -3.0075 C   0  0  0  0  0  0  0  0  0  0  0  0
   -1.9521   -3.9307   -3.8835 H   0  0  0  0  0  0  0  0  0  0  0  0
   -0.7384   -4.8254   -2.3381 C   0  0  0  0  0  0  0  0  0  0  0  0
   -0.8793   -5.8349   -2.6981 H   0  0  0  0  0  0  0  0  0  0  0  0
    0.0476   -4.5902   -1.1954 C   0  0  0  0  0  0  0  0  0  0  0  0
    0.5097   -5.4179   -0.6775 H   0  0  0  0  0  0  0  0  0  0  0  0
    0.2255   -3.2775   -0.7237 C   0  0  0  0  0  0  0  0  0  0  0  0
    0.8277   -3.0982    0.1575 H   0  0  0  0  0  0  0  0  0  0  0  0
   -1.2168    1.1047    0.4313 C   0  0  0  0  0  0  0  0  0  0  0  0
   -2.0890    1.6186   -0.2704 O   0  0  0  0  0  0  0  0  0  0  0  0
   -0.4674    1.8182    1.2813 N   0  0  0  0  0  0  0  0  0  0  0  0
    0.2640    1.3348    1.7800 H   0  0  0  0  0  0  0  0  0  0  0  0
   -0.5889    3.2615    1.4722 C   0  0  0  0  0  0  0  0  0  0  0  0
   -1.6291    3.5206    1.6805 H   0  0  0  0  0  0  0  0  0  0  0  0
    0.0359    3.5855    2.3049 H   0  0  0  0  0  0  0  0  0  0  0  0
   -0.2760    3.7797    0.5637 H   0  0  0  0  0  0  0  0  0  0  0  0
  5  6  2  0  0  0  0
  5  7  1  0  0  0  0
  2  3  1  0  0  0  0
  2  4  1  0  0  0  0
  2  5  1  0  0  0  0
  1  2  1  0  0  0  0
 25 26  2  0  0  0  0
 25 27  1  0  0  0  0
 23 24  1  0  0  0  0
 21 22  1  0  0  0  0
 21 23  2  0  0  0  0
 19 20  1  0  0  0  0
 19 21  1  0  0  0  0
 17 18  1  0  0  0  0
 17 19  2  0  0  0  0
 15 16  1  0  0  0  0
 15 17  1  0  0  0  0
 14 15  2  0  0  0  0
 14 23  1  0  0  0  0
 11 12  1  0  0  0  0
 11 13  1  0  0  0  0
 11 14  1  0  0  0  0
  9 10  1  0  0  0  0
  9 11  1  0  0  0  0
  9 25  1  0  0  0  0
  7  8  1  0  0  0  0
  7  9  1  0  0  0  0
 29 30  1  0  0  0  0
 29 31  1  0  0  0  0
 29 32  1  0  0  0  0
 27 28  1  0  0  0  0
 27 29  1  0  0  0  0
M  END
$$$$
default_name
  -OEChem-02102213163D

 32 32  0     1  0  0  0  0  0999 V2000
   -3.8405   -3.7518    1.6252 H   0  0  0  0  0  0  0  0  0  0  0  0
   -3.7965   -2.8768    0.9782 C   0  0  0  0  0  0  0  0  0  0  0  0
   -4.5465   -2.1527    1.2902 H   0  0  0  0  0  0  0  0  0  0  0  0
   -3.9745   -3.1748   -0.0538 H   0  0  0  0  0  0  0  0  0  0  0  0
   -2.4245   -2.2537    1.0882 C   0  0  0  0  0  0  0  0  0  0  0  0
   -1.5805   -2.7478    1.8242 O   0  0  0  0  0  0  0  0  0  0  0  0
   -2.2045   -1.1637    0.3562 N   0  0  0  0  0  0  0  0  0  0  0  0
   -2.9595   -0.7907   -0.2008 H   0  0  0  0  0  0  0  0  0  0  0  0
   -0.9485   -0.4087    0.3482 C   0  0  1  0  0  0  0  0  0  0  0  0
   -0.3666   -0.6914    1.2269 H   0  0  0  0  0  0  0  0  0  0  0  0
   -0.1405   -0.7797   -0.9072 C   0  0  0  0  0  0  0  0  0  0  0  0
   -0.4049   -0.0956   -1.7147 H   0  0  0  0  0  0  0  0  0  0  0  0
    0.9215   -0.6437   -0.6973 H   0  0  0  0  0  0  0  0  0  0  0  0
   -0.3771   -2.1964   -1.3948 C   0  0  0  0  0  0  0  0  0  0  0  0
   -0.8849   -2.4306   -2.6868 C   0  0  0  0  0  0  0  0  0  0  0  0
   -1.1313   -1.5991   -3.3320 H   0  0  0  0  0  0  0  0  0  0  0  0
   -1.0628   -3.7482   -3.1472 C   0  0  0  0  0  0  0  0  0  0  0  0
   -1.4553   -3.9258   -4.1386 H   0  0  0  0  0  0  0  0  0  0  0  0
   -0.7317   -4.8334   -2.3180 C   0  0  0  0  0  0  0  0  0  0  0  0
   -0.8706   -5.8457   -2.6709 H   0  0  0  0  0  0  0  0  0  0  0  0
   -0.2255   -4.6029   -1.0259 C   0  0  0  0  0  0  0  0  0  0  0  0
    0.0240   -5.4370   -0.3865 H   0  0  0  0  0  0  0  0  0  0  0  0
   -0.0509   -3.2860   -0.5649 C   0  0  0  0  0  0  0  0  0  0  0  0
    0.3355   -3.1100    0.4306 H   0  0  0  0  0  0  0  0  0  0  0  0
   -1.2168    1.1047    0.4313 C   0  0  0  0  0  0  0  0  0  0  0  0
   -2.0890    1.6186   -0.2704 O   0  0  0  0  0  0  0  0  0  0  0  0
   -0.4674    1.8182    1.2813 N   0  0  0  0  0  0  0  0  0  0  0  0
    0.2640    1.3348    1.7800 H   0  0  0  0  0  0  0  0  0  0  0  0
   -0.5889    3.2615    1.4722 C   0  0  0  0  0  0  0  0  0  0  0  0
   -1.6291    3.5206    1.6805 H   0  0  0  0  0  0  0  0  0  0  0  0
    0.0359    3.5855    2.3049 H   0  0  0  0  0  0  0  0  0  0  0  0
   -0.2760    3.7797    0.5637 H   0  0  0  0  0  0  0  0  0  0  0  0
  5  6  2  0  0  0  0
  5  7  1  0  0  0  0
  2  3  1  0  0  0  0
  2  4  1  0  0  0  0
  2  5  1  0  0  0  0
  1  2  1  0  0  0  0
 25 26  2  0  0  0  0
 25 27  1  0  0  0  0
 23 24  1  0  0  0  0
 21 22  1  0  0  0  0
 21 23  2  0  0  0  0
 19 20  1  0  0  0  0
 19 21  1  0  0  0  0
 17 18  1  0  0  0  0
 17 19  2  0  0  0  0
 15 16  1  0  0  0  0
 15 17  1  0  0  0  0
 14 15  2  0  0  0  0
 14 23  1  0  0  0  0
 11 12  1  0  0  0  0
 11 13  1  0  0  0  0
 11 14  1  0  0  0  0
  9 10  1  0  0  0  0
  9 11  1  0  0  0  0
  9 25  1  0  0  0  0
  7  8  1  0  0  0  0
  7  9  1  0  0  0  0
 29 30  1  0  0  0  0
 29 31  1  0  0  0  0
 29 32  1  0  0  0  0
 27 28  1  0  0  0  0
 27 29  1  0  0  0  0
M  END
$$$$
default_name
  -OEChem-02102213163D

 32 32  0     1  0  0  0  0  0999 V2000
   -3.8405   -3.7518    1.6252 H   0  0  0  0  0  0  0  0  0  0  0  0
   -3.7965   -2.8768    0.9782 C   0  0  0  0  0  0  0  0  0  0  0  0
   -4.5465   -2.1527    1.2902 H   0  0  0  0  0  0  0  0  0  0  0  0
   -3.9745   -3.1748   -0.0538 H   0  0  0  0  0  0  0  0  0  0  0  0
   -2.4245   -2.2537    1.0882 C   0  0  0  0  0  0  0  0  0  0  0  0
   -1.5805   -2.7478    1.8242 O   0  0  0  0  0  0  0  0  0  0  0  0
   -2.2045   -1.1637    0.3562 N   0  0  0  0  0  0  0  0  0  0  0  0
   -2.9595   -0.7907   -0.2008 H   0  0  0  0  0  0  0  0  0  0  0  0
   -0.9485   -0.4087    0.3482 C   0  0  1  0  0  0  0  0  0  0  0  0
   -0.3666   -0.6914    1.2269 H   0  0  0  0  0  0  0  0  0  0  0  0
   -0.1405   -0.7797   -0.9072 C   0  0  0  0  0  0  0  0  0  0  0  0
   -0.4049   -0.0956   -1.7147 H   0  0  0  0  0  0  0  0  0  0  0  0
    0.9215   -0.6437   -0.6973 H   0  0  0  0  0  0  0  0  0  0  0  0
   -0.3771   -2.1964   -1.3948 C   0  0  0  0  0  0  0  0  0  0  0  0
   -0.5786   -2.4552   -2.7639 C   0  0  0  0  0  0  0  0  0  0  0  0
   -0.5886   -1.6407   -3.4745 H   0  0  0  0  0  0  0  0  0  0  0  0
   -0.7562   -3.7765   -3.2138 C   0  0  0  0  0  0  0  0  0  0  0  0
   -0.9134   -3.9727   -4.2651 H   0  0  0  0  0  0  0  0  0  0  0  0
   -0.7309   -4.8409   -2.2967 C   0  0  0  0  0  0  0  0  0  0  0  0
   -0.8697   -5.8558   -2.6421 H   0  0  0  0  0  0  0  0  0  0  0  0
   -0.5312   -4.5857   -0.9278 C   0  0  0  0  0  0  0  0  0  0  0  0
   -0.5171   -5.4032   -0.2220 H   0  0  0  0  0  0  0  0  0  0  0  0
   -0.3570   -3.2648   -0.4780 C   0  0  0  0  0  0  0  0  0  0  0  0
   -0.2068   -3.0695    0.5758 H   0  0  0  0  0  0  0  0  0  0  0  0
   -1.2168    1.1047    0.4313 C   0  0  0  0  0  0  0  0  0  0  0  0
   -2.0890    1.6186   -0.2704 O   0  0  0  0  0  0  0  0  0  0  0  0
   -0.4674    1.8182    1.2813 N   0  0  0  0  0  0  0  0  0  0  0  0
    0.2640    1.3348    1.7800 H   0  0  0  0  0  0  0  0  0  0  0  0
   -0.5889    3.2615    1.4722 C   0  0  0  0  0  0  0  0  0  0  0  0
   -1.6291    3.5206    1.6805 H   0  0  0  0  0  0  0  0  0  0  0  0
    0.0359    3.5855    2.3049 H   0  0  0  0  0  0  0  0  0  0  0  0
   -0.2760    3.7797    0.5637 H   0  0  0  0  0  0  0  0  0  0  0  0
  5  6  2  0  0  0  0
  5  7  1  0  0  0  0
  2  3  1  0  0  0  0
  2  4  1  0  0  0  0
  2  5  1  0  0  0  0
  1  2  1  0  0  0  0
 25 26  2  0  0  0  0
 25 27  1  0  0  0  0
 23 24  1  0  0  0  0
 21 22  1  0  0  0  0
 21 23  2  0  0  0  0
 19 20  1  0  0  0  0
 19 21  1  0  0  0  0
 17 18  1  0  0  0  0
 17 19  2  0  0  0  0
 15 16  1  0  0  0  0
 15 17  1  0  0  0  0
 14 15  2  0  0  0  0
 14 23  1  0  0  0  0
 11 12  1  0  0  0  0
 11 13  1  0  0  0  0
 11 14  1  0  0  0  0
  9 10  1  0  0  0  0
  9 11  1  0  0  0  0
  9 25  1  0  0  0  0
  7  8  1  0  0  0  0
  7  9  1  0  0  0  0
 29 30  1  0  0  0  0
 29 31  1  0  0  0  0
 29 32  1  0  0  0  0
 27 28  1  0  0  0  0
 27 29  1  0  0  0  0
M  END
$$$$
default_name
  -OEChem-02102213163D

 32 32  0     1  0  0  0  0  0999 V2000
   -3.8405   -3.7518    1.6252 H   0  0  0  0  0  0  0  0  0  0  0  0
   -3.7965   -2.8768    0.9782 C   0  0  0  0  0  0  0  0  0  0  0  0
   -4.5465   -2.1527    1.2902 H   0  0  0  0  0  0  0  0  0  0  0  0
   -3.9745   -3.1748   -0.0538 H   0  0  0  0  0  0  0  0  0  0  0  0
   -2.4245   -2.2537    1.0882 C   0  0  0  0  0  0  0  0  0  0  0  0
   -1.5805   -2.7478    1.8242 O   0  0  0  0  0  0  0  0  0  0  0  0
   -2.2045   -1.1637    0.3562 N   0  0  0  0  0  0  0  0  0  0  0  0
   -2.9595   -0.7907   -0.2008 H   0  0  0  0  0  0  0  0  0  0  0  0
   -0.9485   -0.4087    0.3482 C   0  0  1  0  0  0  0  0  0  0  0  0
   -0.3666   -0.6914    1.2269 H   0  0  0  0  0  0  0  0  0  0  0  0
   -0.1405   -0.7797   -0.9072 C   0  0  0  0  0  0  0  0  0  0  0  0
   -0.4049   -0.0956   -1.7147 H   0  0  0  0  0  0  0  0  0  0  0  0
    0.9215   -0.6437   -0.6973 H   0  0  0  0  0  0  0  0  0  0  0  0
   -0.3771   -2.1964   -1.3948 C   0  0  0  0  0  0  0  0  0  0  0  0
   -0.2661   -2.5075   -2.7633 C   0  0  0  0  0  0  0  0  0  0  0  0
   -0.0334   -1.7318   -3.4791 H   0  0  0  0  0  0  0  0  0  0  0  0
   -0.4464   -3.8320   -3.2029 C   0  0  0  0  0  0  0  0  0  0  0  0
   -0.3632   -4.0683   -4.2545 H   0  0  0  0  0  0  0  0  0  0  0  0
   -0.7358   -4.8473   -2.2756 C   0  0  0  0  0  0  0  0  0  0  0  0
   -0.8766   -5.8645   -2.6137 H   0  0  0  0  0  0  0  0  0  0  0  0
   -0.8489   -4.5396   -0.9076 C   0  0  0  0  0  0  0  0  0  0  0  0
   -1.0767   -5.3190   -0.1953 H   0  0  0  0  0  0  0  0  0  0  0  0
   -0.6719   -3.2153   -0.4690 C   0  0  0  0  0  0  0  0  0  0  0  0
   -0.7625   -2.9793    0.5834 H   0  0  0  0  0  0  0  0  0  0  0  0
   -1.2168    1.1047    0.4313 C   0  0  0  0  0  0  0  0  0  0  0  0
   -2.0890    1.6186   -0.2704 O   0  0  0  0  0  0  0  0  0  0  0  0
   -0.4674    1.8182    1.2813 N   0  0  0  0  0  0  0  0  0  0  0  0
    0.2640    1.3348    1.7800 H   0  0  0  0  0  0  0  0  0  0  0  0
   -0.5889    3.2615    1.4722 C   0  0  0  0  0  0  0  0  0  0  0  0
   -1.6291    3.5206    1.6805 H   0  0  0  0  0  0  0  0  0  0  0  0
    0.0359    3.5855    2.3049 H   0  0  0  0  0  0  0  0  0  0  0  0
   -0.2760    3.7797    0.5637 H   0  0  0  0  0  0  0  0  0  0  0  0
  5  6  2  0  0  0  0
  5  7  1  0  0  0  0
  2  3  1  0  0  0  0
  2  4  1  0  0  0  0
  2  5  1  0  0  0  0
  1  2  1  0  0  0  0
 25 26  2  0  0  0  0
 25 27  1  0  0  0  0
 23 24  1  0  0  0  0
 21 22  1  0  0  0  0
 21 23  2  0  0  0  0
 19 20  1  0  0  0  0
 19 21  1  0  0  0  0
 17 18  1  0  0  0  0
 17 19  2  0  0  0  0
 15 16  1  0  0  0  0
 15 17  1  0  0  0  0
 14 15  2  0  0  0  0
 14 23  1  0  0  0  0
 11 12  1  0  0  0  0
 11 13  1  0  0  0  0
 11 14  1  0  0  0  0
  9 10  1  0  0  0  0
  9 11  1  0  0  0  0
  9 25  1  0  0  0  0
  7  8  1  0  0  0  0
  7  9  1  0  0  0  0
 29 30  1  0  0  0  0
 29 31  1  0  0  0  0
 29 32  1  0  0  0  0
 27 28  1  0  0  0  0
 27 29  1  0  0  0  0
M  END
$$$$
default_name
  -OEChem-02102213163D

 32 32  0     1  0  0  0  0  0999 V2000
   -3.8405   -3.7518    1.6252 H   0  0  0  0  0  0  0  0  0  0  0  0
   -3.7965   -2.8768    0.9782 C   0  0  0  0  0  0  0  0  0  0  0  0
   -4.5465   -2.1527    1.2902 H   0  0  0  0  0  0  0  0  0  0  0  0
   -3.9745   -3.1748   -0.0538 H   0  0  0  0  0  0  0  0  0  0  0  0
   -2.4245   -2.2537    1.0882 C   0  0  0  0  0  0  0  0  0  0  0  0
   -1.5805   -2.7478    1.8242 O   0  0  0  0  0  0  0  0  0  0  0  0
   -2.2045   -1.1637    0.3562 N   0  0  0  0  0  0  0  0  0  0  0  0
   -2.9595   -0.7907   -0.2008 H   0  0  0  0  0  0  0  0  0  0  0  0
   -0.9485   -0.4087    0.3482 C   0  0  1  0  0  0  0  0  0  0  0  0
   -0.3666   -0.6914    1.2269 H   0  0  0  0  0  0  0  0  0  0  0  0
   -0.1405   -0.7797   -0.9072 C   0  0  0  0  0  0  0  0  0  0  0  0
   -0.4049   -0.0956   -1.7147 H   0  0  0  0  0  0  0  0  0  0  0  0
    0.9215   -0.6437   -0.6973 H   0  0  0  0  0  0  0  0  0  0  0  0
   -0.3771   -2.1964   -1.3948 C   0  0  0  0  0  0  0  0  0  0  0  0
    0.0312   -2.5841   -2.6851 C   0  0  0  0  0  0  0  0  0  0  0  0
    0.4964   -1.8662   -3.3458 H   0  0  0  0  0  0  0  0  0  0  0  0
   -0.1543   -3.9109   -3.1153 C   0  0  0  0  0  0  0  0  0  0  0  0
    0.1576   -4.2059   -4.1073 H   0  0  0  0  0  0  0  0  0  0  0  0
   -0.7462   -4.8523   -2.2561 C   0  0  0  0  0  0  0  0  0  0  0  0
   -0.8909   -5.8711   -2.5875 H   0  0  0  0  0  0  0  0  0  0  0  0
   -1.1567   -4.4678   -0.9667 C   0  0  0  0  0  0  0  0  0  0  0  0
   -1.6167   -5.1900   -0.3082 H   0  0  0  0  0  0  0  0  0  0  0  0
   -0.9742   -3.1410   -0.5383 C   0  0  0  0  0  0  0  0  0  0  0  0
   -1.2935   -2.8456    0.4527 H   0  0  0  0  0  0  0  0  0  0  0  0
   -1.2168    1.1047    0.4313 C   0  0  0  0  0  0  0  0  0  0  0  0
   -2.0890    1.6186   -0.2704 O   0  0  0  0  0  0  0  0  0  0  0  0
   -0.4674    1.8182    1.2813 N   0  0  0  0  0  0  0  0  0  0  0  0
    0.2640    1.3348    1.7800 H   0  0  0  0  0  0  0  0  0  0  0  0
   -0.5889    3.2615    1.4722 C   0  0  0  0  0  0  0  0  0  0  0  0
   -1.6291    3.5206    1.6805 H   0  0  0  0  0  0  0  0  0  0  0  0
    0.0359    3.5855    2.3049 H   0  0  0  0  0  0  0  0  0  0  0  0
   -0.2760    3.7797    0.5637 H   0  0  0  0  0  0  0  0  0  0  0  0
  5  6  2  0  0  0  0
  5  7  1  0  0  0  0
  2  3  1  0  0  0  0
  2  4  1  0  0  0  0
  2  5  1  0  0  0  0
  1  2  1  0  0  0  0
 25 26  2  0  0  0  0
 25 27  1  0  0  0  0
 23 24  1  0  0  0  0
 21 22  1  0  0  0  0
 21 23  2  0  0  0  0
 19 20  1  0  0  0  0
 19 21  1  0  0  0  0
 17 18  1  0  0  0  0
 17 19  2  0  0  0  0
 15 16  1  0  0  0  0
 15 17  1  0  0  0  0
 14 15  2  0  0  0  0
 14 23  1  0  0  0  0
 11 12  1  0  0  0  0
 11 13  1  0  0  0  0
 11 14  1  0  0  0  0
  9 10  1  0  0  0  0
  9 11  1  0  0  0  0
  9 25  1  0  0  0  0
  7  8  1  0  0  0  0
  7  9  1  0  0  0  0
 29 30  1  0  0  0  0
 29 31  1  0  0  0  0
 29 32  1  0  0  0  0
 27 28  1  0  0  0  0
 27 29  1  0  0  0  0
M  END
$$$$
default_name
  -OEChem-02102213163D

 32 32  0     1  0  0  0  0  0999 V2000
   -3.8405   -3.7518    1.6252 H   0  0  0  0  0  0  0  0  0  0  0  0
   -3.7965   -2.8768    0.9782 C   0  0  0  0  0  0  0  0  0  0  0  0
   -4.5465   -2.1527    1.2902 H   0  0  0  0  0  0  0  0  0  0  0  0
   -3.9745   -3.1748   -0.0538 H   0  0  0  0  0  0  0  0  0  0  0  0
   -2.4245   -2.2537    1.0882 C   0  0  0  0  0  0  0  0  0  0  0  0
   -1.5805   -2.7478    1.8242 O   0  0  0  0  0  0  0  0  0  0  0  0
   -2.2045   -1.1637    0.3562 N   0  0  0  0  0  0  0  0  0  0  0  0
   -2.9595   -0.7907   -0.2008 H   0  0  0  0  0  0  0  0  0  0  0  0
   -0.9485   -0.4087    0.3482 C   0  0  1  0  0  0  0  0  0  0  0  0
   -0.3666   -0.6914    1.2269 H   0  0  0  0  0  0  0  0  0  0  0  0
   -0.1405   -0.7797   -0.9072 C   0  0  0  0  0  0  0  0  0  0  0  0
   -0.1947    0.0438   -1.6206 H   0  0  0  0  0  0  0  0  0  0  0  0
    0.9072   -0.9041   -0.6295 H   0  0  0  0  0  0  0  0  0  0  0  0
   -0.6268   -2.0369   -1.6027 C   0  0  0  0  0  0  0  0  0  0  0  0
    0.0147   -2.5018   -2.7664 C   0  0  0  0  0  0  0  0  0  0  0  0
    0.8455   -1.9514   -3.1849 H   0  0  0  0  0  0  0  0  0  0  0  0
   -0.4159   -3.6913   -3.3825 C   0  0  0  0  0  0  0  0  0  0  0  0
    0.0764   -4.0451   -4.2774 H   0  0  0  0  0  0  0  0  0  0  0  0
   -1.4867   -4.4186   -2.8356 C   0  0  0  0  0  0  0  0  0  0  0  0
   -1.8190   -5.3312   -3.3103 H   0  0  0  0  0  0  0  0  0  0  0  0
   -2.1309   -3.9561   -1.6737 C   0  0  0  0  0  0  0  0  0  0  0  0
   -2.9575   -4.5121   -1.2563 H   0  0  0  0  0  0  0  0  0  0  0  0
   -1.7024   -2.7656   -1.0601 C   0  0  0  0  0  0  0  0  0  0  0  0
   -2.2011   -2.4090   -0.1681 H   0  0  0  0  0  0  0  0  0  0  0  0
   -1.2168    1.1047    0.4313 C   0  0  0  0  0  0  0  0  0  0  0  0
   -2.0890    1.6186   -0.2704 O   0  0  0  0  0  0  0  0  0  0  0  0
   -0.4674    1.8182    1.2813 N   0  0  0  0  0  0  0  0  0  0  0  0
    0.2640    1.3348    1.7800 H   0  0  0  0  0  0  0  0  0  0  0  0
   -0.5889    3.2615    1.4722 C   0  0  0  0  0  0  0  0  0  0  0  0
   -1.6291    3.5206    1.6805 H   0  0  0  0  0  0  0  0  0  0  0  0
    0.0359    3.5855    2.3049 H   0  0  0  0  0  0  0  0  0  0  0  0
   -0.2760    3.7797    0.5637 H   0  0  0  0  0  0  0  0  0  0  0  0
  5  6  2  0  0  0  0
  5  7  1  0  0  0  0
  2  3  1  0  0  0  0
  2  4  1  0  0  0  0
  2  5  1  0  0  0  0
  1  2  1  0  0  0  0
 25 26  2  0  0  0  0
 25 27  1  0  0  0  0
 23 24  1  0  0  0  0
 21 22  1  0  0  0  0
 21 23  2  0  0  0  0
 19 20  1  0  0  0  0
 19 21  1  0  0  0  0
 17 18  1  0  0  0  0
 17 19  2  0  0  0  0
 15 16  1  0  0  0  0
 15 17  1  0  0  0  0
 14 15  2  0  0  0  0
 14 23  1  0  0  0  0
 11 12  1  0  0  0  0
 11 13  1  0  0  0  0
 11 14  1  0  0  0  0
  9 10  1  0  0  0  0
  9 11  1  0  0  0  0
  9 25  1  0  0  0  0
  7  8  1  0  0  0  0
  7  9  1  0  0  0  0
 29 30  1  0  0  0  0
 29 31  1  0  0  0  0
 29 32  1  0  0  0  0
 27 28  1  0  0  0  0
 27 29  1  0  0  0  0
M  END
$$$$
default_name
  -OEChem-02102213163D

 32 32  0     1  0  0  0  0  0999 V2000
   -3.8405   -3.7518    1.6252 H   0  0  0  0  0  0  0  0  0  0  0  0
   -3.7965   -2.8768    0.9782 C   0  0  0  0  0  0  0  0  0  0  0  0
   -4.5465   -2.1527    1.2902 H   0  0  0  0  0  0  0  0  0  0  0  0
   -3.9745   -3.1748   -0.0538 H   0  0  0  0  0  0  0  0  0  0  0  0
   -2.4245   -2.2537    1.0882 C   0  0  0  0  0  0  0  0  0  0  0  0
   -1.5805   -2.7478    1.8242 O   0  0  0  0  0  0  0  0  0  0  0  0
   -2.2045   -1.1637    0.3562 N   0  0  0  0  0  0  0  0  0  0  0  0
   -2.9595   -0.7907   -0.2008 H   0  0  0  0  0  0  0  0  0  0  0  0
   -0.9485   -0.4087    0.3482 C   0  0  1  0  0  0  0  0  0  0  0  0
   -0.3666   -0.6914    1.2269 H   0  0  0  0  0  0  0  0  0  0  0  0
   -0.1405   -0.7797   -0.9072 C   0  0  0  0  0  0  0  0  0  0  0  0
   -0.1947    0.0438   -1.6206 H   0  0  0  0  0  0  0  0  0  0  0  0
    0.9072   -0.9041   -0.6295 H   0  0  0  0  0  0  0  0  0  0  0  0
   -0.6268   -2.0369   -1.6027 C   0  0  0  0  0  0  0  0  0  0  0  0
    0.1795   -2.6788   -2.5617 C   0  0  0  0  0  0  0  0  0  0  0  0
    1.1429   -2.2655   -2.8251 H   0  0  0  0  0  0  0  0  0  0  0  0
   -0.2608   -3.8675   -3.1724 C   0  0  0  0  0  0  0  0  0  0  0  0
    0.3588   -4.3574   -3.9104 H   0  0  0  0  0  0  0  0  0  0  0  0
   -1.5063   -4.4172   -2.8244 C   0  0  0  0  0  0  0  0  0  0  0  0
   -1.8456   -5.3292   -3.2954 H   0  0  0  0  0  0  0  0  0  0  0  0
   -2.3152   -3.7775   -1.8676 C   0  0  0  0  0  0  0  0  0  0  0  0
   -3.2750   -4.1970   -1.6039 H   0  0  0  0  0  0  0  0  0  0  0  0
   -1.8763   -2.5878   -1.2598 C   0  0  0  0  0  0  0  0  0  0  0  0
   -2.5010   -2.0949   -0.5263 H   0  0  0  0  0  0  0  0  0  0  0  0
   -1.2168    1.1047    0.4313 C   0  0  0  0  0  0  0  0  0  0  0  0
   -2.0890    1.6186   -0.2704 O   0  0  0  0  0  0  0  0  0  0  0  0
   -0.4674    1.8182    1.2813 N   0  0  0  0  0  0  0  0  0  0  0  0
    0.2640    1.3348    1.7800 H   0  0  0  0  0  0  0  0  0  0  0  0
   -0.5889    3.2615    1.4722 C   0  0  0  0  0  0  0  0  0  0  0  0
   -1.6291    3.5206    1.6805 H   0  0  0  0  0  0  0  0  0  0  0  0
    0.0359    3.5855    2.3049 H   0  0  0  0  0  0  0  0  0  0  0  0
   -0.2760    3.7797    0.5637 H   0  0  0  0  0  0  0  0  0  0  0  0
  5  6  2  0  0  0  0
  5  7  1  0  0  0  0
  2  3  1  0  0  0  0
  2  4  1  0  0  0  0
  2  5  1  0  0  0  0
  1  2  1  0  0  0  0
 25 26  2  0  0  0  0
 25 27  1  0  0  0  0
 23 24  1  0  0  0  0
 21 22  1  0  0  0  0
 21 23  2  0  0  0  0
 19 20  1  0  0  0  0
 19 21  1  0  0  0  0
 17 18  1  0  0  0  0
 17 19  2  0  0  0  0
 15 16  1  0  0  0  0
 15 17  1  0  0  0  0
 14 15  2  0  0  0  0
 14 23  1  0  0  0  0
 11 12  1  0  0  0  0
 11 13  1  0  0  0  0
 11 14  1  0  0  0  0
  9 10  1  0  0  0  0
  9 11  1  0  0  0  0
  9 25  1  0  0  0  0
  7  8  1  0  0  0  0
  7  9  1  0  0  0  0
 29 30  1  0  0  0  0
 29 31  1  0  0  0  0
 29 32  1  0  0  0  0
 27 28  1  0  0  0  0
 27 29  1  0  0  0  0
M  END
$$$$
default_name
  -OEChem-02102213163D

 32 32  0     1  0  0  0  0  0999 V2000
   -3.8405   -3.7518    1.6252 H   0  0  0  0  0  0  0  0  0  0  0  0
   -3.7965   -2.8768    0.9782 C   0  0  0  0  0  0  0  0  0  0  0  0
   -4.5465   -2.1527    1.2902 H   0  0  0  0  0  0  0  0  0  0  0  0
   -3.9745   -3.1748   -0.0538 H   0  0  0  0  0  0  0  0  0  0  0  0
   -2.4245   -2.2537    1.0882 C   0  0  0  0  0  0  0  0  0  0  0  0
   -1.5805   -2.7478    1.8242 O   0  0  0  0  0  0  0  0  0  0  0  0
   -2.2045   -1.1637    0.3562 N   0  0  0  0  0  0  0  0  0  0  0  0
   -2.9595   -0.7907   -0.2008 H   0  0  0  0  0  0  0  0  0  0  0  0
   -0.9485   -0.4087    0.3482 C   0  0  1  0  0  0  0  0  0  0  0  0
   -0.3666   -0.6914    1.2269 H   0  0  0  0  0  0  0  0  0  0  0  0
   -0.1405   -0.7797   -0.9072 C   0  0  0  0  0  0  0  0  0  0  0  0
   -0.1947    0.0438   -1.6206 H   0  0  0  0  0  0  0  0  0  0  0  0
    0.9072   -0.9041   -0.6295 H   0  0  0  0  0  0  0  0  0  0  0  0
   -0.6268   -2.0369   -1.6027 C   0  0  0  0  0  0  0  0  0  0  0  0
    0.2738   -2.8524   -2.3139 C   0  0  0  0  0  0  0  0  0  0  0  0
    1.3157   -2.5743   -2.3877 H   0  0  0  0  0  0  0  0  0  0  0  0
   -0.1769   -4.0387   -2.9217 C   0  0  0  0  0  0  0  0  0  0  0  0
    0.5158   -4.6620   -3.4695 H   0  0  0  0  0  0  0  0  0  0  0  0
   -1.5275   -4.4126   -2.8179 C   0  0  0  0  0  0  0  0  0  0  0  0
   -1.8742   -5.3228   -3.2869 H   0  0  0  0  0  0  0  0  0  0  0  0
   -2.4304   -3.5993   -2.1092 C   0  0  0  0  0  0  0  0  0  0  0  0
   -3.4697   -3.8838   -2.0340 H   0  0  0  0  0  0  0  0  0  0  0  0
   -1.9803   -2.4121   -1.5048 C   0  0  0  0  0  0  0  0  0  0  0  0
   -2.6766   -1.7855   -0.9626 H   0  0  0  0  0  0  0  0  0  0  0  0
   -1.2168    1.1047    0.4313 C   0  0  0  0  0  0  0  0  0  0  0  0
   -2.0890    1.6186   -0.2704 O   0  0  0  0  0  0  0  0  0  0  0  0
   -0.4674    1.8182    1.2813 N   0  0  0  0  0  0  0  0  0  0  0  0
    0.2640    1.3348    1.7800 H   0  0  0  0  0  0  0  0  0  0  0  0
   -0.5889    3.2615    1.4722 C   0  0  0  0  0  0  0  0  0  0  0  0
   -1.6291    3.5206    1.6805 H   0  0  0  0  0  0  0  0  0  0  0  0
    0.0359    3.5855    2.3049 H   0  0  0  0  0  0  0  0  0  0  0  0
   -0.2760    3.7797    0.5637 H   0  0  0  0  0  0  0  0  0  0  0  0
  5  6  2  0  0  0  0
  5  7  1  0  0  0  0
  2  3  1  0  0  0  0
  2  4  1  0  0  0  0
  2  5  1  0  0  0  0
  1  2  1  0  0  0  0
 25 26  2  0  0  0  0
 25 27  1  0  0  0  0
 23 24  1  0  0  0  0
 21 22  1  0  0  0  0
 21 23  2  0  0  0  0
 19 20  1  0  0  0  0
 19 21  1  0  0  0  0
 17 18  1  0  0  0  0
 17 19  2  0  0  0  0
 15 16  1  0  0  0  0
 15 17  1  0  0  0  0
 14 15  2  0  0  0  0
 14 23  1  0  0  0  0
 11 12  1  0  0  0  0
 11 13  1  0  0  0  0
 11 14  1  0  0  0  0
  9 10  1  0  0  0  0
  9 11  1  0  0  0  0
  9 25  1  0  0  0  0
  7  8  1  0  0  0  0
  7  9  1  0  0  0  0
 29 30  1  0  0  0  0
 29 31  1  0  0  0  0
 29 32  1  0  0  0  0
 27 28  1  0  0  0  0
 27 29  1  0  0  0  0
M  END
$$$$
default_name
  -OEChem-02102213163D

 32 32  0     1  0  0  0  0  0999 V2000
   -3.8405   -3.7518    1.6252 H   0  0  0  0  0  0  0  0  0  0  0  0
   -3.7965   -2.8768    0.9782 C   0  0  0  0  0  0  0  0  0  0  0  0
   -4.5465   -2.1527    1.2902 H   0  0  0  0  0  0  0  0  0  0  0  0
   -3.9745   -3.1748   -0.0538 H   0  0  0  0  0  0  0  0  0  0  0  0
   -2.4245   -2.2537    1.0882 C   0  0  0  0  0  0  0  0  0  0  0  0
   -1.5805   -2.7478    1.8242 O   0  0  0  0  0  0  0  0  0  0  0  0
   -2.2045   -1.1637    0.3562 N   0  0  0  0  0  0  0  0  0  0  0  0
   -2.9595   -0.7907   -0.2008 H   0  0  0  0  0  0  0  0  0  0  0  0
   -0.9485   -0.4087    0.3482 C   0  0  1  0  0  0  0  0  0  0  0  0
   -0.3666   -0.6914    1.2269 H   0  0  0  0  0  0  0  0  0  0  0  0
   -0.1405   -0.7797   -0.9072 C   0  0  0  0  0  0  0  0  0  0  0  0
   -0.1947    0.0438   -1.6206 H   0  0  0  0  0  0  0  0  0  0  0  0
    0.9072   -0.9041   -0.6295 H   0  0  0  0  0  0  0  0  0  0  0  0
   -0.6268   -2.0369   -1.6027 C   0  0  0  0  0  0  0  0  0  0  0  0
    0.2912   -3.0106   -2.0400 C   0  0  0  0  0  0  0  0  0  0  0  0
    1.3522   -2.8568   -1.9025 H   0  0  0  0  0  0  0  0  0  0  0  0
   -0.1700   -4.1932   -2.6472 C   0  0  0  0  0  0  0  0  0  0  0  0
    0.5367   -4.9384   -2.9846 H   0  0  0  0  0  0  0  0  0  0  0  0
   -1.5488   -4.4051   -2.8166 C   0  0  0  0  0  0  0  0  0  0  0  0
   -1.9029   -5.3126   -3.2853 H   0  0  0  0  0  0  0  0  0  0  0  0
   -2.4687   -3.4335   -2.3821 C   0  0  0  0  0  0  0  0  0  0  0  0
   -3.5283   -3.5938   -2.5172 H   0  0  0  0  0  0  0  0  0  0  0  0
   -2.0074   -2.2503   -1.7783 C   0  0  0  0  0  0  0  0  0  0  0  0
   -2.7159   -1.5021   -1.4475 H   0  0  0  0  0  0  0  0  0  0  0  0
   -1.2168    1.1047    0.4313 C   0  0  0  0  0  0  0  0  0  0  0  0
   -2.0890    1.6186   -0.2704 O   0  0  0  0  0  0  0  0  0  0  0  0
   -0.4674    1.8182    1.2813 N   0  0  0  0  0  0  0  0  0  0  0  0
    0.2640    1.3348    1.7800 H   0  0  0  0  0  0  0  0  0  0  0  0
   -0.5889    3.2615    1.4722 C   0  0  0  0  0  0  0  0  0  0  0  0
   -1.6291    3.5206    1.6805 H   0  0  0  0  0  0  0  0  0  0  0  0
    0.0359    3.5855    2.3049 H   0  0  0  0  0  0  0  0  0  0  0  0
   -0.2760    3.7797    0.5637 H   0  0  0  0  0  0  0  0  0  0  0  0
  5  6  2  0  0  0  0
  5  7  1  0  0  0  0
  2  3  1  0  0  0  0
  2  4  1  0  0  0  0
  2  5  1  0  0  0  0
  1  2  1  0  0  0  0
 25 26  2  0  0  0  0
 25 27  1  0  0  0  0
 23 24  1  0  0  0  0
 21 22  1  0  0  0  0
 21 23  2  0  0  0  0
 19 20  1  0  0  0  0
 19 21  1  0  0  0  0
 17 18  1  0  0  0  0
 17 19  2  0  0  0  0
 15 16  1  0  0  0  0
 15 17  1  0  0  0  0
 14 15  2  0  0  0  0
 14 23  1  0  0  0  0
 11 12  1  0  0  0  0
 11 13  1  0  0  0  0
 11 14  1  0  0  0  0
  9 10  1  0  0  0  0
  9 11  1  0  0  0  0
  9 25  1  0  0  0  0
  7  8  1  0  0  0  0
  7  9  1  0  0  0  0
 29 30  1  0  0  0  0
 29 31  1  0  0  0  0
 29 32  1  0  0  0  0
 27 28  1  0  0  0  0
 27 29  1  0  0  0  0
M  END
$$$$
default_name
  -OEChem-02102213163D

 32 32  0     1  0  0  0  0  0999 V2000
   -3.8405   -3.7518    1.6252 H   0  0  0  0  0  0  0  0  0  0  0  0
   -3.7965   -2.8768    0.9782 C   0  0  0  0  0  0  0  0  0  0  0  0
   -4.5465   -2.1527    1.2902 H   0  0  0  0  0  0  0  0  0  0  0  0
   -3.9745   -3.1748   -0.0538 H   0  0  0  0  0  0  0  0  0  0  0  0
   -2.4245   -2.2537    1.0882 C   0  0  0  0  0  0  0  0  0  0  0  0
   -1.5805   -2.7478    1.8242 O   0  0  0  0  0  0  0  0  0  0  0  0
   -2.2045   -1.1637    0.3562 N   0  0  0  0  0  0  0  0  0  0  0  0
   -2.9595   -0.7907   -0.2008 H   0  0  0  0  0  0  0  0  0  0  0  0
   -0.9485   -0.4087    0.3482 C   0  0  1  0  0  0  0  0  0  0  0  0
   -0.3666   -0.6914    1.2269 H   0  0  0  0  0  0  0  0  0  0  0  0
   -0.1405   -0.7797   -0.9072 C   0  0  0  0  0  0  0  0  0  0  0  0
   -0.1947    0.0438   -1.6206 H   0  0  0  0  0  0  0  0  0  0  0  0
    0.9072   -0.9041   -0.6295 H   0  0  0  0  0  0  0  0  0  0  0  0
   -0.6268   -2.0369   -1.6027 C   0  0  0  0  0  0  0  0  0  0  0  0
    0.2303   -3.1428   -1.7585 C   0  0  0  0  0  0  0  0  0  0  0  0
    1.2498   -3.0937   -1.4026 H   0  0  0  0  0  0  0  0  0  0  0  0
   -0.2405   -4.3204   -2.3679 C   0  0  0  0  0  0  0  0  0  0  0  0
    0.4200   -5.1675   -2.4888 H   0  0  0  0  0  0  0  0  0  0  0  0
   -1.5687   -4.3952   -2.8205 C   0  0  0  0  0  0  0  0  0  0  0  0
   -1.9298   -5.2992   -3.2908 H   0  0  0  0  0  0  0  0  0  0  0  0
   -2.4274   -3.2915   -2.6677 C   0  0  0  0  0  0  0  0  0  0  0  0
   -3.4468   -3.3469   -3.0205 H   0  0  0  0  0  0  0  0  0  0  0  0
   -1.9556   -2.1135   -2.0617 C   0  0  0  0  0  0  0  0  0  0  0  0
   -2.6163   -1.2639   -1.9477 H   0  0  0  0  0  0  0  0  0  0  0  0
   -1.2168    1.1047    0.4313 C   0  0  0  0  0  0  0  0  0  0  0  0
   -2.0890    1.6186   -0.2704 O   0  0  0  0  0  0  0  0  0  0  0  0
   -0.4674    1.8182    1.2813 N   0  0  0  0  0  0  0  0  0  0  0  0
    0.2640    1.3348    1.7800 H   0  0  0  0  0  0  0  0  0  0  0  0
   -0.5889    3.2615    1.4722 C   0  0  0  0  0  0  0  0  0  0  0  0
   -1.6291    3.5206    1.6805 H   0  0  0  0  0  0  0  0  0  0  0  0
    0.0359    3.5855    2.3049 H   0  0  0  0  0  0  0  0  0  0  0  0
   -0.2760    3.7797    0.5637 H   0  0  0  0  0  0  0  0  0  0  0  0
  5  6  2  0  0  0  0
  5  7  1  0  0  0  0
  2  3  1  0  0  0  0
  2  4  1  0  0  0  0
  2  5  1  0  0  0  0
  1  2  1  0  0  0  0
 25 26  2  0  0  0  0
 25 27  1  0  0  0  0
 23 24  1  0  0  0  0
 21 22  1  0  0  0  0
 21 23  2  0  0  0  0
 19 20  1  0  0  0  0
 19 21  1  0  0  0  0
 17 18  1  0  0  0  0
 17 19  2  0  0  0  0
 15 16  1  0  0  0  0
 15 17  1  0  0  0  0
 14 15  2  0  0  0  0
 14 23  1  0  0  0  0
 11 12  1  0  0  0  0
 11 13  1  0  0  0  0
 11 14  1  0  0  0  0
  9 10  1  0  0  0  0
  9 11  1  0  0  0  0
  9 25  1  0  0  0  0
  7  8  1  0  0  0  0
  7  9  1  0  0  0  0
 29 30  1  0  0  0  0
 29 31  1  0  0  0  0
 29 32  1  0  0  0  0
 27 28  1  0  0  0  0
 27 29  1  0  0  0  0
M  END
$$$$
default_name
  -OEChem-02102213163D

 32 32  0     1  0  0  0  0  0999 V2000
   -3.8405   -3.7518    1.6252 H   0  0  0  0  0  0  0  0  0  0  0  0
   -3.7965   -2.8768    0.9782 C   0  0  0  0  0  0  0  0  0  0  0  0
   -4.5465   -2.1527    1.2902 H   0  0  0  0  0  0  0  0  0  0  0  0
   -3.9745   -3.1748   -0.0538 H   0  0  0  0  0  0  0  0  0  0  0  0
   -2.4245   -2.2537    1.0882 C   0  0  0  0  0  0  0  0  0  0  0  0
   -1.5805   -2.7478    1.8242 O   0  0  0  0  0  0  0  0  0  0  0  0
   -2.2045   -1.1637    0.3562 N   0  0  0  0  0  0  0  0  0  0  0  0
   -2.9595   -0.7907   -0.2008 H   0  0  0  0  0  0  0  0  0  0  0  0
   -0.9485   -0.4087    0.3482 C   0  0  1  0  0  0  0  0  0  0  0  0
   -0.3666   -0.6914    1.2269 H   0  0  0  0  0  0  0  0  0  0  0  0
   -0.1405   -0.7797   -0.9072 C   0  0  0  0  0  0  0  0  0  0  0  0
   -0.1947    0.0438   -1.6206 H   0  0  0  0  0  0  0  0  0  0  0  0
    0.9072   -0.9041   -0.6295 H   0  0  0  0  0  0  0  0  0  0  0  0
   -0.6268   -2.0369   -1.6027 C   0  0  0  0  0  0  0  0  0  0  0  0
    0.0955   -3.2399   -1.4887 C   0  0  0  0  0  0  0  0  0  0  0  0
    1.0155   -3.2690   -0.9220 H   0  0  0  0  0  0  0  0  0  0  0  0
   -0.3837   -4.4118   -2.1026 C   0  0  0  0  0  0  0  0  0  0  0  0
    0.1738   -5.3339   -2.0160 H   0  0  0  0  0  0  0  0  0  0  0  0
   -1.5860   -4.3836   -2.8294 C   0  0  0  0  0  0  0  0  0  0  0  0
   -1.9529   -5.2835   -3.3030 H   0  0  0  0  0  0  0  0  0  0  0  0
   -2.3095   -3.1828   -2.9465 C   0  0  0  0  0  0  0  0  0  0  0  0
   -3.2309   -3.1598   -3.5097 H   0  0  0  0  0  0  0  0  0  0  0  0
   -1.8286   -2.0111   -2.3357 C   0  0  0  0  0  0  0  0  0  0  0  0
   -2.3844   -1.0872   -2.4293 H   0  0  0  0  0  0  0  0  0  0  0  0
   -1.2168    1.1047    0.4313 C   0  0  0  0  0  0  0  0  0  0  0  0
   -2.0890    1.6186   -0.2704 O   0  0  0  0  0  0  0  0  0  0  0  0
   -0.4674    1.8182    1.2813 N   0  0  0  0  0  0  0  0  0  0  0  0
    0.2640    1.3348    1.7800 H   0  0  0  0  0  0  0  0  0  0  0  0
   -0.5889    3.2615    1.4722 C   0  0  0  0  0  0  0  0  0  0  0  0
   -1.6291    3.5206    1.6805 H   0  0  0  0  0  0  0  0  0  0  0  0
    0.0359    3.5855    2.3049 H   0  0  0  0  0  0  0  0  0  0  0  0
   -0.2760    3.7797    0.5637 H   0  0  0  0  0  0  0  0  0  0  0  0
  5  6  2  0  0  0  0
  5  7  1  0  0  0  0
  2  3  1  0  0  0  0
  2  4  1  0  0  0  0
  2  5  1  0  0  0  0
  1  2  1  0  0  0  0
 25 26  2  0  0  0  0
 25 27  1  0  0  0  0
 23 24  1  0  0  0  0
 21 22  1  0  0  0  0
 21 23  2  0  0  0  0
 19 20  1  0  0  0  0
 19 21  1  0  0  0  0
 17 18  1  0  0  0  0
 17 19  2  0  0  0  0
 15 16  1  0  0  0  0
 15 17  1  0  0  0  0
 14 15  2  0  0  0  0
 14 23  1  0  0  0  0
 11 12  1  0  0  0  0
 11 13  1  0  0  0  0
 11 14  1  0  0  0  0
  9 10  1  0  0  0  0
  9 11  1  0  0  0  0
  9 25  1  0  0  0  0
  7  8  1  0  0  0  0
  7  9  1  0  0  0  0
 29 30  1  0  0  0  0
 29 31  1  0  0  0  0
 29 32  1  0  0  0  0
 27 28  1  0  0  0  0
 27 29  1  0  0  0  0
M  END
$$$$
default_name
  -OEChem-02102213163D

 32 32  0     1  0  0  0  0  0999 V2000
   -3.8405   -3.7518    1.6252 H   0  0  0  0  0  0  0  0  0  0  0  0
   -3.7965   -2.8768    0.9782 C   0  0  0  0  0  0  0  0  0  0  0  0
   -4.5465   -2.1527    1.2902 H   0  0  0  0  0  0  0  0  0  0  0  0
   -3.9745   -3.1748   -0.0538 H   0  0  0  0  0  0  0  0  0  0  0  0
   -2.4245   -2.2537    1.0882 C   0  0  0  0  0  0  0  0  0  0  0  0
   -1.5805   -2.7478    1.8242 O   0  0  0  0  0  0  0  0  0  0  0  0
   -2.2045   -1.1637    0.3562 N   0  0  0  0  0  0  0  0  0  0  0  0
   -2.9595   -0.7907   -0.2008 H   0  0  0  0  0  0  0  0  0  0  0  0
   -0.9485   -0.4087    0.3482 C   0  0  1  0  0  0  0  0  0  0  0  0
   -0.3666   -0.6914    1.2269 H   0  0  0  0  0  0  0  0  0  0  0  0
   -0.1405   -0.7797   -0.9072 C   0  0  0  0  0  0  0  0  0  0  0  0
   -0.1947    0.0438   -1.6206 H   0  0  0  0  0  0  0  0  0  0  0  0
    0.9072   -0.9041   -0.6295 H   0  0  0  0  0  0  0  0  0  0  0  0
   -0.6268   -2.0369   -1.6027 C   0  0  0  0  0  0  0  0  0  0  0  0
   -0.1041   -3.2953   -1.2490 C   0  0  0  0  0  0  0  0  0  0  0  0
    0.6653   -3.3706   -0.4935 H   0  0  0  0  0  0  0  0  0  0  0  0
   -0.5897   -4.4611   -1.8695 C   0  0  0  0  0  0  0  0  0  0  0  0
   -0.1852   -5.4261   -1.5982 H   0  0  0  0  0  0  0  0  0  0  0  0
   -1.5994   -4.3711   -2.8426 C   0  0  0  0  0  0  0  0  0  0  0  0
   -1.9708   -5.2666   -3.3210 H   0  0  0  0  0  0  0  0  0  0  0  0
   -2.1229   -3.1151   -3.1995 C   0  0  0  0  0  0  0  0  0  0  0  0
   -2.8952   -3.0452   -3.9514 H   0  0  0  0  0  0  0  0  0  0  0  0
   -1.6350   -1.9499   -2.5816 C   0  0  0  0  0  0  0  0  0  0  0  0
   -2.0362   -0.9839   -2.8594 H   0  0  0  0  0  0  0  0  0  0  0  0
   -1.2168    1.1047    0.4313 C   0  0  0  0  0  0  0  0  0  0  0  0
   -2.0890    1.6186   -0.2704 O   0  0  0  0  0  0  0  0  0  0  0  0
   -0.4674    1.8182    1.2813 N   0  0  0  0  0  0  0  0  0  0  0  0
    0.2640    1.3348    1.7800 H   0  0  0  0  0  0  0  0  0  0  0  0
   -0.5889    3.2615    1.4722 C   0  0  0  0  0  0  0  0  0  0  0  0
   -1.6291    3.5206    1.6805 H   0  0  0  0  0  0  0  0  0  0  0  0
    0.0359    3.5855    2.3049 H   0  0  0  0  0  0  0  0  0  0  0  0
   -0.2760    3.7797    0.5637 H   0  0  0  0  0  0  0  0  0  0  0  0
  5  6  2  0  0  0  0
  5  7  1  0  0  0  0
  2  3  1  0  0  0  0
  2  4  1  0  0  0  0
  2  5  1  0  0  0  0
  1  2  1  0  0  0  0
 25 26  2  0  0  0  0
 25 27  1  0  0  0  0
 23 24  1  0  0  0  0
 21 22  1  0  0  0  0
 21 23  2  0  0  0  0
 19 20  1  0  0  0  0
 19 21  1  0  0  0  0
 17 18  1  0  0  0  0
 17 19  2  0  0  0  0
 15 16  1  0  0  0  0
 15 17  1  0  0  0  0
 14 15  2  0  0  0  0
 14 23  1  0  0  0  0
 11 12  1  0  0  0  0
 11 13  1  0  0  0  0
 11 14  1  0  0  0  0
  9 10  1  0  0  0  0
  9 11  1  0  0  0  0
  9 25  1  0  0  0  0
  7  8  1  0  0  0  0
  7  9  1  0  0  0  0
 29 30  1  0  0  0  0
 29 31  1  0  0  0  0
 29 32  1  0  0  0  0
 27 28  1  0  0  0  0
 27 29  1  0  0  0  0
M  END
$$$$
default_name
  -OEChem-02102213163D

 32 32  0     1  0  0  0  0  0999 V2000
   -3.8405   -3.7518    1.6252 H   0  0  0  0  0  0  0  0  0  0  0  0
   -3.7965   -2.8768    0.9782 C   0  0  0  0  0  0  0  0  0  0  0  0
   -4.5465   -2.1527    1.2902 H   0  0  0  0  0  0  0  0  0  0  0  0
   -3.9745   -3.1748   -0.0538 H   0  0  0  0  0  0  0  0  0  0  0  0
   -2.4245   -2.2537    1.0882 C   0  0  0  0  0  0  0  0  0  0  0  0
   -1.5805   -2.7478    1.8242 O   0  0  0  0  0  0  0  0  0  0  0  0
   -2.2045   -1.1637    0.3562 N   0  0  0  0  0  0  0  0  0  0  0  0
   -2.9595   -0.7907   -0.2008 H   0  0  0  0  0  0  0  0  0  0  0  0
   -0.9485   -0.4087    0.3482 C   0  0  1  0  0  0  0  0  0  0  0  0
   -0.3666   -0.6914    1.2269 H   0  0  0  0  0  0  0  0  0  0  0  0
   -0.1405   -0.7797   -0.9072 C   0  0  0  0  0  0  0  0  0  0  0  0
   -0.1947    0.0438   -1.6206 H   0  0  0  0  0  0  0  0  0  0  0  0
    0.9072   -0.9041   -0.6295 H   0  0  0  0  0  0  0  0  0  0  0  0
   -0.6268   -2.0369   -1.6027 C   0  0  0  0  0  0  0  0  0  0  0  0
   -0.3549   -3.3053   -1.0556 C   0  0  0  0  0  0  0  0  0  0  0  0
    0.2231   -3.3916   -0.1464 H   0  0  0  0  0  0  0  0  0  0  0  0
   -0.8446   -4.4649   -1.6844 C   0  0  0  0  0  0  0  0  0  0  0  0
   -0.6325   -5.4380   -1.2641 H   0  0  0  0  0  0  0  0  0  0  0  0
   -1.6080   -4.3585   -2.8593 C   0  0  0  0  0  0  0  0  0  0  0  0
   -1.9823   -5.2496   -3.3437 H   0  0  0  0  0  0  0  0  0  0  0  0
   -1.8803   -3.0927   -3.4095 C   0  0  0  0  0  0  0  0  0  0  0  0
   -2.4625   -3.0111   -4.3156 H   0  0  0  0  0  0  0  0  0  0  0  0
   -1.3880   -1.9342   -2.7827 C   0  0  0  0  0  0  0  0  0  0  0  0
   -1.5953   -0.9612   -3.2087 H   0  0  0  0  0  0  0  0  0  0  0  0
   -1.2168    1.1047    0.4313 C   0  0  0  0  0  0  0  0  0  0  0  0
   -2.0890    1.6186   -0.2704 O   0  0  0  0  0  0  0  0  0  0  0  0
   -0.4674    1.8182    1.2813 N   0  0  0  0  0  0  0  0  0  0  0  0
    0.2640    1.3348    1.7800 H   0  0  0  0  0  0  0  0  0  0  0  0
   -0.5889    3.2615    1.4722 C   0  0  0  0  0  0  0  0  0  0  0  0
   -1.6291    3.5206    1.6805 H   0  0  0  0  0  0  0  0  0  0  0  0
    0.0359    3.5855    2.3049 H   0  0  0  0  0  0  0  0  0  0  0  0
   -0.2760    3.7797    0.5637 H   0  0  0  0  0  0  0  0  0  0  0  0
  5  6  2  0  0  0  0
  5  7  1  0  0  0  0
  2  3  1  0  0  0  0
  2  4  1  0  0  0  0
  2  5  1  0  0  0  0
  1  2  1  0  0  0  0
 25 26  2  0  0  0  0
 25 27  1  0  0  0  0
 23 24  1  0  0  0  0
 21 22  1  0  0  0  0
 21 23  2  0  0  0  0
 19 20  1  0  0  0  0
 19 21  1  0  0  0  0
 17 18  1  0  0  0  0
 17 19  2  0  0  0  0
 15 16  1  0  0  0  0
 15 17  1  0  0  0  0
 14 15  2  0  0  0  0
 14 23  1  0  0  0  0
 11 12  1  0  0  0  0
 11 13  1  0  0  0  0
 11 14  1  0  0  0  0
  9 10  1  0  0  0  0
  9 11  1  0  0  0  0
  9 25  1  0  0  0  0
  7  8  1  0  0  0  0
  7  9  1  0  0  0  0
 29 30  1  0  0  0  0
 29 31  1  0  0  0  0
 29 32  1  0  0  0  0
 27 28  1  0  0  0  0
 27 29  1  0  0  0  0
M  END
$$$$
default_name
  -OEChem-02102213163D

 32 32  0     1  0  0  0  0  0999 V2000
   -3.8405   -3.7518    1.6252 H   0  0  0  0  0  0  0  0  0  0  0  0
   -3.7965   -2.8768    0.9782 C   0  0  0  0  0  0  0  0  0  0  0  0
   -4.5465   -2.1527    1.2902 H   0  0  0  0  0  0  0  0  0  0  0  0
   -3.9745   -3.1748   -0.0538 H   0  0  0  0  0  0  0  0  0  0  0  0
   -2.4245   -2.2537    1.0882 C   0  0  0  0  0  0  0  0  0  0  0  0
   -1.5805   -2.7478    1.8242 O   0  0  0  0  0  0  0  0  0  0  0  0
   -2.2045   -1.1637    0.3562 N   0  0  0  0  0  0  0  0  0  0  0  0
   -2.9595   -0.7907   -0.2008 H   0  0  0  0  0  0  0  0  0  0  0  0
   -0.9485   -0.4087    0.3482 C   0  0  1  0  0  0  0  0  0  0  0  0
   -0.3666   -0.6914    1.2269 H   0  0  0  0  0  0  0  0  0  0  0  0
   -0.1405   -0.7797   -0.9072 C   0  0  0  0  0  0  0  0  0  0  0  0
   -0.1947    0.0438   -1.6206 H   0  0  0  0  0  0  0  0  0  0  0  0
    0.9072   -0.9041   -0.6295 H   0  0  0  0  0  0  0  0  0  0  0  0
   -0.6268   -2.0369   -1.6027 C   0  0  0  0  0  0  0  0  0  0  0  0
   -0.6398   -3.2691   -0.9218 C   0  0  0  0  0  0  0  0  0  0  0  0
   -0.2810   -3.3306    0.0959 H   0  0  0  0  0  0  0  0  0  0  0  0
   -1.1310   -4.4230   -1.5600 C   0  0  0  0  0  0  0  0  0  0  0  0
   -1.1377   -5.3686   -1.0363 H   0  0  0  0  0  0  0  0  0  0  0  0
   -1.6113   -4.3468   -2.8784 C   0  0  0  0  0  0  0  0  0  0  0  0
   -1.9864   -5.2338   -3.3694 H   0  0  0  0  0  0  0  0  0  0  0  0
   -1.5983   -3.1174   -3.5621 C   0  0  0  0  0  0  0  0  0  0  0  0
   -1.9624   -3.0597   -4.5774 H   0  0  0  0  0  0  0  0  0  0  0  0
   -1.1044   -1.9651   -2.9252 C   0  0  0  0  0  0  0  0  0  0  0  0
   -1.0918   -1.0206   -3.4535 H   0  0  0  0  0  0  0  0  0  0  0  0
   -1.2168    1.1047    0.4313 C   0  0  0  0  0  0  0  0  0  0  0  0
   -2.0890    1.6186   -0.2704 O   0  0  0  0  0  0  0  0  0  0  0  0
   -0.4674    1.8182    1.2813 N   0  0  0  0  0  0  0  0  0  0  0  0
    0.2640    1.3348    1.7800 H   0  0  0  0  0  0  0  0  0  0  0  0
   -0.5889    3.2615    1.4722 C   0  0  0  0  0  0  0  0  0  0  0  0
   -1.6291    3.5206    1.6805 H   0  0  0  0  0  0  0  0  0  0  0  0
    0.0359    3.5855    2.3049 H   0  0  0  0  0  0  0  0  0  0  0  0
   -0.2760    3.7797    0.5637 H   0  0  0  0  0  0  0  0  0  0  0  0
  5  6  2  0  0  0  0
  5  7  1  0  0  0  0
  2  3  1  0  0  0  0
  2  4  1  0  0  0  0
  2  5  1  0  0  0  0
  1  2  1  0  0  0  0
 25 26  2  0  0  0  0
 25 27  1  0  0  0  0
 23 24  1  0  0  0  0
 21 22  1  0  0  0  0
 21 23  2  0  0  0  0
 19 20  1  0  0  0  0
 19 21  1  0  0  0  0
 17 18  1  0  0  0  0
 17 19  2  0  0  0  0
 15 16  1  0  0  0  0
 15 17  1  0  0  0  0
 14 15  2  0  0  0  0
 14 23  1  0  0  0  0
 11 12  1  0  0  0  0
 11 13  1  0  0  0  0
 11 14  1  0  0  0  0
  9 10  1  0  0  0  0
  9 11  1  0  0  0  0
  9 25  1  0  0  0  0
  7  8  1  0  0  0  0
  7  9  1  0  0  0  0
 29 30  1  0  0  0  0
 29 31  1  0  0  0  0
 29 32  1  0  0  0  0
 27 28  1  0  0  0  0
 27 29  1  0  0  0  0
M  END
$$$$
default_name
  -OEChem-02102213163D

 32 32  0     1  0  0  0  0  0999 V2000
   -3.8405   -3.7518    1.6252 H   0  0  0  0  0  0  0  0  0  0  0  0
   -3.7965   -2.8768    0.9782 C   0  0  0  0  0  0  0  0  0  0  0  0
   -4.5465   -2.1527    1.2902 H   0  0  0  0  0  0  0  0  0  0  0  0
   -3.9745   -3.1748   -0.0538 H   0  0  0  0  0  0  0  0  0  0  0  0
   -2.4245   -2.2537    1.0882 C   0  0  0  0  0  0  0  0  0  0  0  0
   -1.5805   -2.7478    1.8242 O   0  0  0  0  0  0  0  0  0  0  0  0
   -2.2045   -1.1637    0.3562 N   0  0  0  0  0  0  0  0  0  0  0  0
   -2.9595   -0.7907   -0.2008 H   0  0  0  0  0  0  0  0  0  0  0  0
   -0.9485   -0.4087    0.3482 C   0  0  1  0  0  0  0  0  0  0  0  0
   -0.3666   -0.6914    1.2269 H   0  0  0  0  0  0  0  0  0  0  0  0
   -0.1405   -0.7797   -0.9072 C   0  0  0  0  0  0  0  0  0  0  0  0
   -0.1947    0.0438   -1.6206 H   0  0  0  0  0  0  0  0  0  0  0  0
    0.9072   -0.9041   -0.6295 H   0  0  0  0  0  0  0  0  0  0  0  0
   -0.6268   -2.0369   -1.6027 C   0  0  0  0  0  0  0  0  0  0  0  0
   -0.9395   -3.1892   -0.8567 C   0  0  0  0  0  0  0  0  0  0  0  0
   -0.8127   -3.1918    0.2167 H   0  0  0  0  0  0  0  0  0  0  0  0
   -1.4292   -4.3381   -1.5047 C   0  0  0  0  0  0  0  0  0  0  0  0
   -1.6663   -5.2227   -0.9304 H   0  0  0  0  0  0  0  0  0  0  0  0
   -1.6090   -4.3366   -2.8984 C   0  0  0  0  0  0  0  0  0  0  0  0
   -1.9830   -5.2201   -3.3965 H   0  0  0  0  0  0  0  0  0  0  0  0
   -1.2961   -3.1873   -3.6470 C   0  0  0  0  0  0  0  0  0  0  0  0
   -1.4290   -3.1878   -4.7189 H   0  0  0  0  0  0  0  0  0  0  0  0
   -0.8035   -2.0404   -2.9995 C   0  0  0  0  0  0  0  0  0  0  0  0
   -0.5600   -1.1580   -3.5769 H   0  0  0  0  0  0  0  0  0  0  0  0
   -1.2168    1.1047    0.4313 C   0  0  0  0  0  0  0  0  0  0  0  0
   -2.0890    1.6186   -0.2704 O   0  0  0  0  0  0  0  0  0  0  0  0
   -0.4674    1.8182    1.2813 N   0  0  0  0  0  0  0  0  0  0  0  0
    0.2640    1.3348    1.7800 H   0  0  0  0  0  0  0  0  0  0  0  0
   -0.5889    3.2615    1.4722 C   0  0  0  0  0  0  0  0  0  0  0  0
   -1.6291    3.5206    1.6805 H   0  0  0  0  0  0  0  0  0  0  0  0
    0.0359    3.5855    2.3049 H   0  0  0  0  0  0  0  0  0  0  0  0
   -0.2760    3.7797    0.5637 H   0  0  0  0  0  0  0  0  0  0  0  0
  5  6  2  0  0  0  0
  5  7  1  0  0  0  0
  2  3  1  0  0  0  0
  2  4  1  0  0  0  0
  2  5  1  0  0  0  0
  1  2  1  0  0  0  0
 25 26  2  0  0  0  0
 25 27  1  0  0  0  0
 23 24  1  0  0  0  0
 21 22  1  0  0  0  0
 21 23  2  0  0  0  0
 19 20  1  0  0  0  0
 19 21  1  0  0  0  0
 17 18  1  0  0  0  0
 17 19  2  0  0  0  0
 15 16  1  0  0  0  0
 15 17  1  0  0  0  0
 14 15  2  0  0  0  0
 14 23  1  0  0  0  0
 11 12  1  0  0  0  0
 11 13  1  0  0  0  0
 11 14  1  0  0  0  0
  9 10  1  0  0  0  0
  9 11  1  0  0  0  0
  9 25  1  0  0  0  0
  7  8  1  0  0  0  0
  7  9  1  0  0  0  0
 29 30  1  0  0  0  0
 29 31  1  0  0  0  0
 29 32  1  0  0  0  0
 27 28  1  0  0  0  0
 27 29  1  0  0  0  0
M  END
$$$$
default_name
  -OEChem-02102213163D

 32 32  0     1  0  0  0  0  0999 V2000
   -3.8405   -3.7518    1.6252 H   0  0  0  0  0  0  0  0  0  0  0  0
   -3.7965   -2.8768    0.9782 C   0  0  0  0  0  0  0  0  0  0  0  0
   -4.5465   -2.1527    1.2902 H   0  0  0  0  0  0  0  0  0  0  0  0
   -3.9745   -3.1748   -0.0538 H   0  0  0  0  0  0  0  0  0  0  0  0
   -2.4245   -2.2537    1.0882 C   0  0  0  0  0  0  0  0  0  0  0  0
   -1.5805   -2.7478    1.8242 O   0  0  0  0  0  0  0  0  0  0  0  0
   -2.2045   -1.1637    0.3562 N   0  0  0  0  0  0  0  0  0  0  0  0
   -2.9595   -0.7907   -0.2008 H   0  0  0  0  0  0  0  0  0  0  0  0
   -0.9485   -0.4087    0.3482 C   0  0  1  0  0  0  0  0  0  0  0  0
   -0.3666   -0.6914    1.2269 H   0  0  0  0  0  0  0  0  0  0  0  0
   -0.1405   -0.7797   -0.9072 C   0  0  0  0  0  0  0  0  0  0  0  0
   -0.1947    0.0438   -1.6206 H   0  0  0  0  0  0  0  0  0  0  0  0
    0.9072   -0.9041   -0.6295 H   0  0  0  0  0  0  0  0  0  0  0  0
   -0.6268   -2.0369   -1.6027 C   0  0  0  0  0  0  0  0  0  0  0  0
   -1.2334   -3.0711   -0.8648 C   0  0  0  0  0  0  0  0  0  0  0  0
   -1.3357   -2.9846    0.2078 H   0  0  0  0  0  0  0  0  0  0  0  0
   -1.7192   -4.2162   -1.5224 C   0  0  0  0  0  0  0  0  0  0  0  0
   -2.1823   -5.0103   -0.9536 H   0  0  0  0  0  0  0  0  0  0  0  0
   -1.6012   -4.3287   -2.9181 C   0  0  0  0  0  0  0  0  0  0  0  0
   -1.9723   -5.2095   -3.4231 H   0  0  0  0  0  0  0  0  0  0  0  0
   -0.9942   -3.2978   -3.6583 C   0  0  0  0  0  0  0  0  0  0  0  0
   -0.8986   -3.3865   -4.7306 H   0  0  0  0  0  0  0  0  0  0  0  0
   -0.5059   -2.1549   -3.0005 C   0  0  0  0  0  0  0  0  0  0  0  0
   -0.0361   -1.3640   -3.5707 H   0  0  0  0  0  0  0  0  0  0  0  0
   -1.2168    1.1047    0.4313 C   0  0  0  0  0  0  0  0  0  0  0  0
   -2.0890    1.6186   -0.2704 O   0  0  0  0  0  0  0  0  0  0  0  0
   -0.4674    1.8182    1.2813 N   0  0  0  0  0  0  0  0  0  0  0  0
    0.2640    1.3348    1.7800 H   0  0  0  0  0  0  0  0  0  0  0  0
   -0.5889    3.2615    1.4722 C   0  0  0  0  0  0  0  0  0  0  0  0
   -1.6291    3.5206    1.6805 H   0  0  0  0  0  0  0  0  0  0  0  0
    0.0359    3.5855    2.3049 H   0  0  0  0  0  0  0  0  0  0  0  0
   -0.2760    3.7797    0.5637 H   0  0  0  0  0  0  0  0  0  0  0  0
  5  6  2  0  0  0  0
  5  7  1  0  0  0  0
  2  3  1  0  0  0  0
  2  4  1  0  0  0  0
  2  5  1  0  0  0  0
  1  2  1  0  0  0  0
 25 26  2  0  0  0  0
 25 27  1  0  0  0  0
 23 24  1  0  0  0  0
 21 22  1  0  0  0  0
 21 23  2  0  0  0  0
 19 20  1  0  0  0  0
 19 21  1  0  0  0  0
 17 18  1  0  0  0  0
 17 19  2  0  0  0  0
 15 16  1  0  0  0  0
 15 17  1  0  0  0  0
 14 15  2  0  0  0  0
 14 23  1  0  0  0  0
 11 12  1  0  0  0  0
 11 13  1  0  0  0  0
 11 14  1  0  0  0  0
  9 10  1  0  0  0  0
  9 11  1  0  0  0  0
  9 25  1  0  0  0  0
  7  8  1  0  0  0  0
  7  9  1  0  0  0  0
 29 30  1  0  0  0  0
 29 31  1  0  0  0  0
 29 32  1  0  0  0  0
 27 28  1  0  0  0  0
 27 29  1  0  0  0  0
M  END
$$$$
default_name
  -OEChem-02102213163D

 32 32  0     1  0  0  0  0  0999 V2000
   -3.8405   -3.7518    1.6252 H   0  0  0  0  0  0  0  0  0  0  0  0
   -3.7965   -2.8768    0.9782 C   0  0  0  0  0  0  0  0  0  0  0  0
   -4.5465   -2.1527    1.2902 H   0  0  0  0  0  0  0  0  0  0  0  0
   -3.9745   -3.1748   -0.0538 H   0  0  0  0  0  0  0  0  0  0  0  0
   -2.4245   -2.2537    1.0882 C   0  0  0  0  0  0  0  0  0  0  0  0
   -1.5805   -2.7478    1.8242 O   0  0  0  0  0  0  0  0  0  0  0  0
   -2.2045   -1.1637    0.3562 N   0  0  0  0  0  0  0  0  0  0  0  0
   -2.9595   -0.7907   -0.2008 H   0  0  0  0  0  0  0  0  0  0  0  0
   -0.9485   -0.4087    0.3482 C   0  0  1  0  0  0  0  0  0  0  0  0
   -0.3666   -0.6914    1.2269 H   0  0  0  0  0  0  0  0  0  0  0  0
   -0.1405   -0.7797   -0.9072 C   0  0  0  0  0  0  0  0  0  0  0  0
   -0.1947    0.0438   -1.6206 H   0  0  0  0  0  0  0  0  0  0  0  0
    0.9072   -0.9041   -0.6295 H   0  0  0  0  0  0  0  0  0  0  0  0
   -0.6268   -2.0369   -1.6027 C   0  0  0  0  0  0  0  0  0  0  0  0
   -1.5015   -2.9228   -0.9454 C   0  0  0  0  0  0  0  0  0  0  0  0
   -1.8144   -2.7231    0.0698 H   0  0  0  0  0  0  0  0  0  0  0  0
   -1.9809   -4.0656   -1.6118 C   0  0  0  0  0  0  0  0  0  0  0  0
   -2.6505   -4.7458   -1.1043 H   0  0  0  0  0  0  0  0  0  0  0  0
   -1.5885   -4.3236   -2.9362 C   0  0  0  0  0  0  0  0  0  0  0  0
   -1.9550   -5.2028   -3.4473 H   0  0  0  0  0  0  0  0  0  0  0  0
   -0.7134   -3.4412   -3.5954 C   0  0  0  0  0  0  0  0  0  0  0  0
   -0.4073   -3.6423   -4.6116 H   0  0  0  0  0  0  0  0  0  0  0  0
   -0.2318   -2.3010   -2.9280 C   0  0  0  0  0  0  0  0  0  0  0  0
    0.4441   -1.6247   -3.4352 H   0  0  0  0  0  0  0  0  0  0  0  0
   -1.2168    1.1047    0.4313 C   0  0  0  0  0  0  0  0  0  0  0  0
   -2.0890    1.6186   -0.2704 O   0  0  0  0  0  0  0  0  0  0  0  0
   -0.4674    1.8182    1.2813 N   0  0  0  0  0  0  0  0  0  0  0  0
    0.2640    1.3348    1.7800 H   0  0  0  0  0  0  0  0  0  0  0  0
   -0.5889    3.2615    1.4722 C   0  0  0  0  0  0  0  0  0  0  0  0
   -1.6291    3.5206    1.6805 H   0  0  0  0  0  0  0  0  0  0  0  0
    0.0359    3.5855    2.3049 H   0  0  0  0  0  0  0  0  0  0  0  0
   -0.2760    3.7797    0.5637 H   0  0  0  0  0  0  0  0  0  0  0  0
  5  6  2  0  0  0  0
  5  7  1  0  0  0  0
  2  3  1  0  0  0  0
  2  4  1  0  0  0  0
  2  5  1  0  0  0  0
  1  2  1  0  0  0  0
 25 26  2  0  0  0  0
 25 27  1  0  0  0  0
 23 24  1  0  0  0  0
 21 22  1  0  0  0  0
 21 23  2  0  0  0  0
 19 20  1  0  0  0  0
 19 21  1  0  0  0  0
 17 18  1  0  0  0  0
 17 19  2  0  0  0  0
 15 16  1  0  0  0  0
 15 17  1  0  0  0  0
 14 15  2  0  0  0  0
 14 23  1  0  0  0  0
 11 12  1  0  0  0  0
 11 13  1  0  0  0  0
 11 14  1  0  0  0  0
  9 10  1  0  0  0  0
  9 11  1  0  0  0  0
  9 25  1  0  0  0  0
  7  8  1  0  0  0  0
  7  9  1  0  0  0  0
 29 30  1  0  0  0  0
 29 31  1  0  0  0  0
 29 32  1  0  0  0  0
 27 28  1  0  0  0  0
 27 29  1  0  0  0  0
M  END
$$$$
default_name
  -OEChem-02102213163D

 32 32  0     1  0  0  0  0  0999 V2000
   -3.8405   -3.7518    1.6252 H   0  0  0  0  0  0  0  0  0  0  0  0
   -3.7965   -2.8768    0.9782 C   0  0  0  0  0  0  0  0  0  0  0  0
   -4.5465   -2.1527    1.2902 H   0  0  0  0  0  0  0  0  0  0  0  0
   -3.9745   -3.1748   -0.0538 H   0  0  0  0  0  0  0  0  0  0  0  0
   -2.4245   -2.2537    1.0882 C   0  0  0  0  0  0  0  0  0  0  0  0
   -1.5805   -2.7478    1.8242 O   0  0  0  0  0  0  0  0  0  0  0  0
   -2.2045   -1.1637    0.3562 N   0  0  0  0  0  0  0  0  0  0  0  0
   -2.9595   -0.7907   -0.2008 H   0  0  0  0  0  0  0  0  0  0  0  0
   -0.9485   -0.4087    0.3482 C   0  0  1  0  0  0  0  0  0  0  0  0
   -0.3666   -0.6914    1.2269 H   0  0  0  0  0  0  0  0  0  0  0  0
   -0.1405   -0.7797   -0.9072 C   0  0  0  0  0  0  0  0  0  0  0  0
   -0.1947    0.0438   -1.6206 H   0  0  0  0  0  0  0  0  0  0  0  0
    0.9072   -0.9041   -0.6295 H   0  0  0  0  0  0  0  0  0  0  0  0
   -0.6268   -2.0369   -1.6027 C   0  0  0  0  0  0  0  0  0  0  0  0
   -1.7256   -2.7544   -1.0931 C   0  0  0  0  0  0  0  0  0  0  0  0
   -2.2161   -2.4252   -0.1879 H   0  0  0  0  0  0  0  0  0  0  0  0
   -2.1968   -3.8963   -1.7667 C   0  0  0  0  0  0  0  0  0  0  0  0
   -3.0390   -4.4473   -1.3723 H   0  0  0  0  0  0  0  0  0  0  0  0
   -1.5718   -4.3217   -2.9513 C   0  0  0  0  0  0  0  0  0  0  0  0
   -1.9323   -5.2004   -3.4676 H   0  0  0  0  0  0  0  0  0  0  0  0
   -0.4726   -3.6079   -3.4624 C   0  0  0  0  0  0  0  0  0  0  0  0
    0.0113   -3.9379   -4.3700 H   0  0  0  0  0  0  0  0  0  0  0  0
    0.0001   -2.4686   -2.7872 C   0  0  0  0  0  0  0  0  0  0  0  0
    0.8479   -1.9223   -3.1796 H   0  0  0  0  0  0  0  0  0  0  0  0
   -1.2168    1.1047    0.4313 C   0  0  0  0  0  0  0  0  0  0  0  0
   -2.0890    1.6186   -0.2704 O   0  0  0  0  0  0  0  0  0  0  0  0
   -0.4674    1.8182    1.2813 N   0  0  0  0  0  0  0  0  0  0  0  0
    0.2640    1.3348    1.7800 H   0  0  0  0  0  0  0  0  0  0  0  0
   -0.5889    3.2615    1.4722 C   0  0  0  0  0  0  0  0  0  0  0  0
   -1.6291    3.5206    1.6805 H   0  0  0  0  0  0  0  0  0  0  0  0
    0.0359    3.5855    2.3049 H   0  0  0  0  0  0  0  0  0  0  0  0
   -0.2760    3.7797    0.5637 H   0  0  0  0  0  0  0  0  0  0  0  0
  5  6  2  0  0  0  0
  5  7  1  0  0  0  0
  2  3  1  0  0  0  0
  2  4  1  0  0  0  0
  2  5  1  0  0  0  0
  1  2  1  0  0  0  0
 25 26  2  0  0  0  0
 25 27  1  0  0  0  0
 23 24  1  0  0  0  0
 21 22  1  0  0  0  0
 21 23  2  0  0  0  0
 19 20  1  0  0  0  0
 19 21  1  0  0  0  0
 17 18  1  0  0  0  0
 17 19  2  0  0  0  0
 15 16  1  0  0  0  0
 15 17  1  0  0  0  0
 14 15  2  0  0  0  0
 14 23  1  0  0  0  0
 11 12  1  0  0  0  0
 11 13  1  0  0  0  0
 11 14  1  0  0  0  0
  9 10  1  0  0  0  0
  9 11  1  0  0  0  0
  9 25  1  0  0  0  0
  7  8  1  0  0  0  0
  7  9  1  0  0  0  0
 29 30  1  0  0  0  0
 29 31  1  0  0  0  0
 29 32  1  0  0  0  0
 27 28  1  0  0  0  0
 27 29  1  0  0  0  0
M  END
$$$$
default_name
  -OEChem-02102213163D

 32 32  0     1  0  0  0  0  0999 V2000
   -3.8405   -3.7518    1.6252 H   0  0  0  0  0  0  0  0  0  0  0  0
   -3.7965   -2.8768    0.9782 C   0  0  0  0  0  0  0  0  0  0  0  0
   -4.5465   -2.1527    1.2902 H   0  0  0  0  0  0  0  0  0  0  0  0
   -3.9745   -3.1748   -0.0538 H   0  0  0  0  0  0  0  0  0  0  0  0
   -2.4245   -2.2537    1.0882 C   0  0  0  0  0  0  0  0  0  0  0  0
   -1.5805   -2.7478    1.8242 O   0  0  0  0  0  0  0  0  0  0  0  0
   -2.2045   -1.1637    0.3562 N   0  0  0  0  0  0  0  0  0  0  0  0
   -2.9595   -0.7907   -0.2008 H   0  0  0  0  0  0  0  0  0  0  0  0
   -0.9485   -0.4087    0.3482 C   0  0  1  0  0  0  0  0  0  0  0  0
   -0.3666   -0.6914    1.2269 H   0  0  0  0  0  0  0  0  0  0  0  0
   -0.1405   -0.7797   -0.9072 C   0  0  0  0  0  0  0  0  0  0  0  0
   -0.1947    0.0438   -1.6206 H   0  0  0  0  0  0  0  0  0  0  0  0
    0.9072   -0.9041   -0.6295 H   0  0  0  0  0  0  0  0  0  0  0  0
   -0.6268   -2.0369   -1.6027 C   0  0  0  0  0  0  0  0  0  0  0  0
   -1.8905   -2.5774   -1.2978 C   0  0  0  0  0  0  0  0  0  0  0  0
   -2.5136   -2.1111   -0.5477 H   0  0  0  0  0  0  0  0  0  0  0  0
   -2.3519   -3.7202   -1.9768 C   0  0  0  0  0  0  0  0  0  0  0  0
   -3.3214   -4.1350   -1.7393 H   0  0  0  0  0  0  0  0  0  0  0  0
   -1.5522   -4.3231   -2.9625 C   0  0  0  0  0  0  0  0  0  0  0  0
   -1.9057   -5.2024   -3.4825 H   0  0  0  0  0  0  0  0  0  0  0  0
   -0.2883   -3.7865   -3.2685 C   0  0  0  0  0  0  0  0  0  0  0  0
    0.3288   -4.2530   -4.0223 H   0  0  0  0  0  0  0  0  0  0  0  0
    0.1739   -2.6464   -2.5874 C   0  0  0  0  0  0  0  0  0  0  0  0
    1.1478   -2.2365   -2.8215 H   0  0  0  0  0  0  0  0  0  0  0  0
   -1.2168    1.1047    0.4313 C   0  0  0  0  0  0  0  0  0  0  0  0
   -2.0890    1.6186   -0.2704 O   0  0  0  0  0  0  0  0  0  0  0  0
   -0.4674    1.8182    1.2813 N   0  0  0  0  0  0  0  0  0  0  0  0
    0.2640    1.3348    1.7800 H   0  0  0  0  0  0  0  0  0  0  0  0
   -0.5889    3.2615    1.4722 C   0  0  0  0  0  0  0  0  0  0  0  0
   -1.6291    3.5206    1.6805 H   0  0  0  0  0  0  0  0  0  0  0  0
    0.0359    3.5855    2.3049 H   0  0  0  0  0  0  0  0  0  0  0  0
   -0.2760    3.7797    0.5637 H   0  0  0  0  0  0  0  0  0  0  0  0
  5  6  2  0  0  0  0
  5  7  1  0  0  0  0
  2  3  1  0  0  0  0
  2  4  1  0  0  0  0
  2  5  1  0  0  0  0
  1  2  1  0  0  0  0
 25 26  2  0  0  0  0
 25 27  1  0  0  0  0
 23 24  1  0  0  0  0
 21 22  1  0  0  0  0
 21 23  2  0  0  0  0
 19 20  1  0  0  0  0
 19 21  1  0  0  0  0
 17 18  1  0  0  0  0
 17 19  2  0  0  0  0
 15 16  1  0  0  0  0
 15 17  1  0  0  0  0
 14 15  2  0  0  0  0
 14 23  1  0  0  0  0
 11 12  1  0  0  0  0
 11 13  1  0  0  0  0
 11 14  1  0  0  0  0
  9 10  1  0  0  0  0
  9 11  1  0  0  0  0
  9 25  1  0  0  0  0
  7  8  1  0  0  0  0
  7  9  1  0  0  0  0
 29 30  1  0  0  0  0
 29 31  1  0  0  0  0
 29 32  1  0  0  0  0
 27 28  1  0  0  0  0
 27 29  1  0  0  0  0
M  END
$$$$
default_name
  -OEChem-02102213163D

 32 32  0     1  0  0  0  0  0999 V2000
   -3.8405   -3.7518    1.6252 H   0  0  0  0  0  0  0  0  0  0  0  0
   -3.7965   -2.8768    0.9782 C   0  0  0  0  0  0  0  0  0  0  0  0
   -4.5465   -2.1527    1.2902 H   0  0  0  0  0  0  0  0  0  0  0  0
   -3.9745   -3.1748   -0.0538 H   0  0  0  0  0  0  0  0  0  0  0  0
   -2.4245   -2.2537    1.0882 C   0  0  0  0  0  0  0  0  0  0  0  0
   -1.5805   -2.7478    1.8242 O   0  0  0  0  0  0  0  0  0  0  0  0
   -2.2045   -1.1637    0.3562 N   0  0  0  0  0  0  0  0  0  0  0  0
   -2.9595   -0.7907   -0.2008 H   0  0  0  0  0  0  0  0  0  0  0  0
   -0.9485   -0.4087    0.3482 C   0  0  1  0  0  0  0  0  0  0  0  0
   -0.3666   -0.6914    1.2269 H   0  0  0  0  0  0  0  0  0  0  0  0
   -0.1405   -0.7797   -0.9072 C   0  0  0  0  0  0  0  0  0  0  0  0
   -0.1947    0.0438   -1.6206 H   0  0  0  0  0  0  0  0  0  0  0  0
    0.9072   -0.9041   -0.6295 H   0  0  0  0  0  0  0  0  0  0  0  0
   -0.6268   -2.0369   -1.6027 C   0  0  0  0  0  0  0  0  0  0  0  0
   -1.9847   -2.4039   -1.5455 C   0  0  0  0  0  0  0  0  0  0  0  0
   -2.6864   -1.8023   -0.9851 H   0  0  0  0  0  0  0  0  0  0  0  0
   -2.4358   -3.5490   -2.2276 C   0  0  0  0  0  0  0  0  0  0  0  0
   -3.4784   -3.8304   -2.1803 H   0  0  0  0  0  0  0  0  0  0  0  0
   -1.5310   -4.3277   -2.9689 C   0  0  0  0  0  0  0  0  0  0  0  0
   -1.8771   -5.2088   -3.4910 H   0  0  0  0  0  0  0  0  0  0  0  0
   -0.1731   -3.9647   -3.0269 C   0  0  0  0  0  0  0  0  0  0  0  0
    0.5235   -4.5662   -3.5923 H   0  0  0  0  0  0  0  0  0  0  0  0
    0.2779   -2.8221   -2.3425 C   0  0  0  0  0  0  0  0  0  0  0  0
    1.3235   -2.5458   -2.3851 H   0  0  0  0  0  0  0  0  0  0  0  0
   -1.2168    1.1047    0.4313 C   0  0  0  0  0  0  0  0  0  0  0  0
   -2.0890    1.6186   -0.2704 O   0  0  0  0  0  0  0  0  0  0  0  0
   -0.4674    1.8182    1.2813 N   0  0  0  0  0  0  0  0  0  0  0  0
    0.2640    1.3348    1.7800 H   0  0  0  0  0  0  0  0  0  0  0  0
   -0.5889    3.2615    1.4722 C   0  0  0  0  0  0  0  0  0  0  0  0
   -1.6291    3.5206    1.6805 H   0  0  0  0  0  0  0  0  0  0  0  0
    0.0359    3.5855    2.3049 H   0  0  0  0  0  0  0  0  0  0  0  0
   -0.2760    3.7797    0.5637 H   0  0  0  0  0  0  0  0  0  0  0  0
  5  6  2  0  0  0  0
  5  7  1  0  0  0  0
  2  3  1  0  0  0  0
  2  4  1  0  0  0  0
  2  5  1  0  0  0  0
  1  2  1  0  0  0  0
 25 26  2  0  0  0  0
 25 27  1  0  0  0  0
 23 24  1  0  0  0  0
 21 22  1  0  0  0  0
 21 23  2  0  0  0  0
 19 20  1  0  0  0  0
 19 21  1  0  0  0  0
 17 18  1  0  0  0  0
 17 19  2  0  0  0  0
 15 16  1  0  0  0  0
 15 17  1  0  0  0  0
 14 15  2  0  0  0  0
 14 23  1  0  0  0  0
 11 12  1  0  0  0  0
 11 13  1  0  0  0  0
 11 14  1  0  0  0  0
  9 10  1  0  0  0  0
  9 11  1  0  0  0  0
  9 25  1  0  0  0  0
  7  8  1  0  0  0  0
  7  9  1  0  0  0  0
 29 30  1  0  0  0  0
 29 31  1  0  0  0  0
 29 32  1  0  0  0  0
 27 28  1  0  0  0  0
 27 29  1  0  0  0  0
M  END
$$$$
default_name
  -OEChem-02102213163D

 32 32  0     1  0  0  0  0  0999 V2000
   -3.8405   -3.7518    1.6252 H   0  0  0  0  0  0  0  0  0  0  0  0
   -3.7965   -2.8768    0.9782 C   0  0  0  0  0  0  0  0  0  0  0  0
   -4.5465   -2.1527    1.2902 H   0  0  0  0  0  0  0  0  0  0  0  0
   -3.9745   -3.1748   -0.0538 H   0  0  0  0  0  0  0  0  0  0  0  0
   -2.4245   -2.2537    1.0882 C   0  0  0  0  0  0  0  0  0  0  0  0
   -1.5805   -2.7478    1.8242 O   0  0  0  0  0  0  0  0  0  0  0  0
   -2.2045   -1.1637    0.3562 N   0  0  0  0  0  0  0  0  0  0  0  0
   -2.9595   -0.7907   -0.2008 H   0  0  0  0  0  0  0  0  0  0  0  0
   -0.9485   -0.4087    0.3482 C   0  0  1  0  0  0  0  0  0  0  0  0
   -0.3666   -0.6914    1.2269 H   0  0  0  0  0  0  0  0  0  0  0  0
   -0.1405   -0.7797   -0.9072 C   0  0  0  0  0  0  0  0  0  0  0  0
   -0.1947    0.0438   -1.6206 H   0  0  0  0  0  0  0  0  0  0  0  0
    0.9072   -0.9041   -0.6295 H   0  0  0  0  0  0  0  0  0  0  0  0
   -0.6268   -2.0369   -1.6027 C   0  0  0  0  0  0  0  0  0  0  0  0
   -2.0021   -2.2456   -1.8195 C   0  0  0  0  0  0  0  0  0  0  0  0
   -2.7228   -1.5198   -1.4703 H   0  0  0  0  0  0  0  0  0  0  0  0
   -2.4427   -3.3945   -2.5020 C   0  0  0  0  0  0  0  0  0  0  0  0
   -3.4993   -3.5541   -2.6651 H   0  0  0  0  0  0  0  0  0  0  0  0
   -1.5097   -4.3352   -2.9703 C   0  0  0  0  0  0  0  0  0  0  0  0
   -1.8484   -5.2190   -3.4926 H   0  0  0  0  0  0  0  0  0  0  0  0
   -0.1348   -4.1305   -2.7540 C   0  0  0  0  0  0  0  0  0  0  0  0
    0.5821   -4.8562   -3.1091 H   0  0  0  0  0  0  0  0  0  0  0  0
    0.3050   -2.9839   -2.0690 C   0  0  0  0  0  0  0  0  0  0  0  0
    1.3628   -2.8292   -1.9003 H   0  0  0  0  0  0  0  0  0  0  0  0
   -1.2168    1.1047    0.4313 C   0  0  0  0  0  0  0  0  0  0  0  0
   -2.0890    1.6186   -0.2704 O   0  0  0  0  0  0  0  0  0  0  0  0
   -0.4674    1.8182    1.2813 N   0  0  0  0  0  0  0  0  0  0  0  0
    0.2640    1.3348    1.7800 H   0  0  0  0  0  0  0  0  0  0  0  0
   -0.5889    3.2615    1.4722 C   0  0  0  0  0  0  0  0  0  0  0  0
   -1.6291    3.5206    1.6805 H   0  0  0  0  0  0  0  0  0  0  0  0
    0.0359    3.5855    2.3049 H   0  0  0  0  0  0  0  0  0  0  0  0
   -0.2760    3.7797    0.5637 H   0  0  0  0  0  0  0  0  0  0  0  0
  5  6  2  0  0  0  0
  5  7  1  0  0  0  0
  2  3  1  0  0  0  0
  2  4  1  0  0  0  0
  2  5  1  0  0  0  0
  1  2  1  0  0  0  0
 25 26  2  0  0  0  0
 25 27  1  0  0  0  0
 23 24  1  0  0  0  0
 21 22  1  0  0  0  0
 21 23  2  0  0  0  0
 19 20  1  0  0  0  0
 19 21  1  0  0  0  0
 17 18  1  0  0  0  0
 17 19  2  0  0  0  0
 15 16  1  0  0  0  0
 15 17  1  0  0  0  0
 14 15  2  0  0  0  0
 14 23  1  0  0  0  0
 11 12  1  0  0  0  0
 11 13  1  0  0  0  0
 11 14  1  0  0  0  0
  9 10  1  0  0  0  0
  9 11  1  0  0  0  0
  9 25  1  0  0  0  0
  7  8  1  0  0  0  0
  7  9  1  0  0  0  0
 29 30  1  0  0  0  0
 29 31  1  0  0  0  0
 29 32  1  0  0  0  0
 27 28  1  0  0  0  0
 27 29  1  0  0  0  0
M  END
$$$$
default_name
  -OEChem-02102213163D

 32 32  0     1  0  0  0  0  0999 V2000
   -3.8405   -3.7518    1.6252 H   0  0  0  0  0  0  0  0  0  0  0  0
   -3.7965   -2.8768    0.9782 C   0  0  0  0  0  0  0  0  0  0  0  0
   -4.5465   -2.1527    1.2902 H   0  0  0  0  0  0  0  0  0  0  0  0
   -3.9745   -3.1748   -0.0538 H   0  0  0  0  0  0  0  0  0  0  0  0
   -2.4245   -2.2537    1.0882 C   0  0  0  0  0  0  0  0  0  0  0  0
   -1.5805   -2.7478    1.8242 O   0  0  0  0  0  0  0  0  0  0  0  0
   -2.2045   -1.1637    0.3562 N   0  0  0  0  0  0  0  0  0  0  0  0
   -2.9595   -0.7907   -0.2008 H   0  0  0  0  0  0  0  0  0  0  0  0
   -0.9485   -0.4087    0.3482 C   0  0  1  0  0  0  0  0  0  0  0  0
   -0.3666   -0.6914    1.2269 H   0  0  0  0  0  0  0  0  0  0  0  0
   -0.1405   -0.7797   -0.9072 C   0  0  0  0  0  0  0  0  0  0  0  0
   -0.1947    0.0438   -1.6206 H   0  0  0  0  0  0  0  0  0  0  0  0
    0.9072   -0.9041   -0.6295 H   0  0  0  0  0  0  0  0  0  0  0  0
   -0.6268   -2.0369   -1.6027 C   0  0  0  0  0  0  0  0  0  0  0  0
   -1.9412   -2.1134   -2.1009 C   0  0  0  0  0  0  0  0  0  0  0  0
   -2.6204   -1.2828   -1.9702 H   0  0  0  0  0  0  0  0  0  0  0  0
   -2.3721   -3.2672   -2.7814 C   0  0  0  0  0  0  0  0  0  0  0  0
   -3.3826   -3.3249   -3.1609 H   0  0  0  0  0  0  0  0  0  0  0  0
   -1.4898   -4.3451   -2.9664 C   0  0  0  0  0  0  0  0  0  0  0  0
   -1.8216   -5.2324   -3.4871 H   0  0  0  0  0  0  0  0  0  0  0  0
   -0.1761   -4.2725   -2.4684 C   0  0  0  0  0  0  0  0  0  0  0  0
    0.5006   -5.1031   -2.6058 H   0  0  0  0  0  0  0  0  0  0  0  0
    0.2532   -3.1206   -1.7856 C   0  0  0  0  0  0  0  0  0  0  0  0
    1.2631   -3.0674   -1.4000 H   0  0  0  0  0  0  0  0  0  0  0  0
   -1.2168    1.1047    0.4313 C   0  0  0  0  0  0  0  0  0  0  0  0
   -2.0890    1.6186   -0.2704 O   0  0  0  0  0  0  0  0  0  0  0  0
   -0.4674    1.8182    1.2813 N   0  0  0  0  0  0  0  0  0  0  0  0
    0.2640    1.3348    1.7800 H   0  0  0  0  0  0  0  0  0  0  0  0
   -0.5889    3.2615    1.4722 C   0  0  0  0  0  0  0  0  0  0  0  0
   -1.6291    3.5206    1.6805 H   0  0  0  0  0  0  0  0  0  0  0  0
    0.0359    3.5855    2.3049 H   0  0  0  0  0  0  0  0  0  0  0  0
   -0.2760    3.7797    0.5637 H   0  0  0  0  0  0  0  0  0  0  0  0
  5  6  2  0  0  0  0
  5  7  1  0  0  0  0
  2  3  1  0  0  0  0
  2  4  1  0  0  0  0
  2  5  1  0  0  0  0
  1  2  1  0  0  0  0
 25 26  2  0  0  0  0
 25 27  1  0  0  0  0
 23 24  1  0  0  0  0
 21 22  1  0  0  0  0
 21 23  2  0  0  0  0
 19 20  1  0  0  0  0
 19 21  1  0  0  0  0
 17 18  1  0  0  0  0
 17 19  2  0  0  0  0
 15 16  1  0  0  0  0
 15 17  1  0  0  0  0
 14 15  2  0  0  0  0
 14 23  1  0  0  0  0
 11 12  1  0  0  0  0
 11 13  1  0  0  0  0
 11 14  1  0  0  0  0
  9 10  1  0  0  0  0
  9 11  1  0  0  0  0
  9 25  1  0  0  0  0
  7  8  1  0  0  0  0
  7  9  1  0  0  0  0
 29 30  1  0  0  0  0
 29 31  1  0  0  0  0
 29 32  1  0  0  0  0
 27 28  1  0  0  0  0
 27 29  1  0  0  0  0
M  END
$$$$
default_name
  -OEChem-02102213163D

 32 32  0     1  0  0  0  0  0999 V2000
   -3.8405   -3.7518    1.6252 H   0  0  0  0  0  0  0  0  0  0  0  0
   -3.7965   -2.8768    0.9782 C   0  0  0  0  0  0  0  0  0  0  0  0
   -4.5465   -2.1527    1.2902 H   0  0  0  0  0  0  0  0  0  0  0  0
   -3.9745   -3.1748   -0.0538 H   0  0  0  0  0  0  0  0  0  0  0  0
   -2.4245   -2.2537    1.0882 C   0  0  0  0  0  0  0  0  0  0  0  0
   -1.5805   -2.7478    1.8242 O   0  0  0  0  0  0  0  0  0  0  0  0
   -2.2045   -1.1637    0.3562 N   0  0  0  0  0  0  0  0  0  0  0  0
   -2.9595   -0.7907   -0.2008 H   0  0  0  0  0  0  0  0  0  0  0  0
   -0.9485   -0.4087    0.3482 C   0  0  1  0  0  0  0  0  0  0  0  0
   -0.3666   -0.6914    1.2269 H   0  0  0  0  0  0  0  0  0  0  0  0
   -0.1405   -0.7797   -0.9072 C   0  0  0  0  0  0  0  0  0  0  0  0
   -0.1947    0.0438   -1.6206 H   0  0  0  0  0  0  0  0  0  0  0  0
    0.9072   -0.9041   -0.6295 H   0  0  0  0  0  0  0  0  0  0  0  0
   -0.6268   -2.0369   -1.6027 C   0  0  0  0  0  0  0  0  0  0  0  0
   -1.8064   -2.0163   -2.3707 C   0  0  0  0  0  0  0  0  0  0  0  0
   -2.3862   -1.1076   -2.4508 H   0  0  0  0  0  0  0  0  0  0  0  0
   -2.2290   -3.1758   -3.0466 C   0  0  0  0  0  0  0  0  0  0  0  0
   -3.1364   -3.1585   -3.6338 H   0  0  0  0  0  0  0  0  0  0  0  0
   -1.4725   -4.3567   -2.9575 C   0  0  0  0  0  0  0  0  0  0  0  0
   -1.7984   -5.2481   -3.4749 H   0  0  0  0  0  0  0  0  0  0  0  0
   -0.2940   -4.3811   -2.1896 C   0  0  0  0  0  0  0  0  0  0  0  0
    0.2847   -5.2902   -2.1166 H   0  0  0  0  0  0  0  0  0  0  0  0
    0.1262   -3.2231   -1.5116 C   0  0  0  0  0  0  0  0  0  0  0  0
    1.0313   -3.2441   -0.9185 H   0  0  0  0  0  0  0  0  0  0  0  0
   -1.2168    1.1047    0.4313 C   0  0  0  0  0  0  0  0  0  0  0  0
   -2.0890    1.6186   -0.2704 O   0  0  0  0  0  0  0  0  0  0  0  0
   -0.4674    1.8182    1.2813 N   0  0  0  0  0  0  0  0  0  0  0  0
    0.2640    1.3348    1.7800 H   0  0  0  0  0  0  0  0  0  0  0  0
   -0.5889    3.2615    1.4722 C   0  0  0  0  0  0  0  0  0  0  0  0
   -1.6291    3.5206    1.6805 H   0  0  0  0  0  0  0  0  0  0  0  0
    0.0359    3.5855    2.3049 H   0  0  0  0  0  0  0  0  0  0  0  0
   -0.2760    3.7797    0.5637 H   0  0  0  0  0  0  0  0  0  0  0  0
  5  6  2  0  0  0  0
  5  7  1  0  0  0  0
  2  3  1  0  0  0  0
  2  4  1  0  0  0  0
  2  5  1  0  0  0  0
  1  2  1  0  0  0  0
 25 26  2  0  0  0  0
 25 27  1  0  0  0  0
 23 24  1  0  0  0  0
 21 22  1  0  0  0  0
 21 23  2  0  0  0  0
 19 20  1  0  0  0  0
 19 21  1  0  0  0  0
 17 18  1  0  0  0  0
 17 19  2  0  0  0  0
 15 16  1  0  0  0  0
 15 17  1  0  0  0  0
 14 15  2  0  0  0  0
 14 23  1  0  0  0  0
 11 12  1  0  0  0  0
 11 13  1  0  0  0  0
 11 14  1  0  0  0  0
  9 10  1  0  0  0  0
  9 11  1  0  0  0  0
  9 25  1  0  0  0  0
  7  8  1  0  0  0  0
  7  9  1  0  0  0  0
 29 30  1  0  0  0  0
 29 31  1  0  0  0  0
 29 32  1  0  0  0  0
 27 28  1  0  0  0  0
 27 29  1  0  0  0  0
M  END
$$$$
default_name
  -OEChem-02102213163D

 32 32  0     1  0  0  0  0  0999 V2000
   -3.8405   -3.7518    1.6252 H   0  0  0  0  0  0  0  0  0  0  0  0
   -3.7965   -2.8768    0.9782 C   0  0  0  0  0  0  0  0  0  0  0  0
   -4.5465   -2.1527    1.2902 H   0  0  0  0  0  0  0  0  0  0  0  0
   -3.9745   -3.1748   -0.0538 H   0  0  0  0  0  0  0  0  0  0  0  0
   -2.4245   -2.2537    1.0882 C   0  0  0  0  0  0  0  0  0  0  0  0
   -1.5805   -2.7478    1.8242 O   0  0  0  0  0  0  0  0  0  0  0  0
   -2.2045   -1.1637    0.3562 N   0  0  0  0  0  0  0  0  0  0  0  0
   -2.9595   -0.7907   -0.2008 H   0  0  0  0  0  0  0  0  0  0  0  0
   -0.9485   -0.4087    0.3482 C   0  0  1  0  0  0  0  0  0  0  0  0
   -0.3666   -0.6914    1.2269 H   0  0  0  0  0  0  0  0  0  0  0  0
   -0.1405   -0.7797   -0.9072 C   0  0  0  0  0  0  0  0  0  0  0  0
   -0.1947    0.0438   -1.6206 H   0  0  0  0  0  0  0  0  0  0  0  0
    0.9072   -0.9041   -0.6295 H   0  0  0  0  0  0  0  0  0  0  0  0
   -0.6268   -2.0369   -1.6027 C   0  0  0  0  0  0  0  0  0  0  0  0
   -1.6068   -1.9609   -2.6105 C   0  0  0  0  0  0  0  0  0  0  0  0
   -2.0360   -1.0060   -2.8793 H   0  0  0  0  0  0  0  0  0  0  0  0
   -2.0229   -3.1266   -3.2798 C   0  0  0  0  0  0  0  0  0  0  0  0
   -2.7774   -3.0663   -4.0515 H   0  0  0  0  0  0  0  0  0  0  0  0
   -1.4591   -4.3692   -2.9443 C   0  0  0  0  0  0  0  0  0  0  0  0
   -1.7805   -5.2650   -3.4568 H   0  0  0  0  0  0  0  0  0  0  0  0
   -0.4806   -4.4489   -1.9366 C   0  0  0  0  0  0  0  0  0  0  0  0
   -0.0511   -5.4047   -1.6748 H   0  0  0  0  0  0  0  0  0  0  0  0
   -0.0674   -3.2842   -1.2657 C   0  0  0  0  0  0  0  0  0  0  0  0
    0.6830   -3.3474   -0.4883 H   0  0  0  0  0  0  0  0  0  0  0  0
   -1.2168    1.1047    0.4313 C   0  0  0  0  0  0  0  0  0  0  0  0
   -2.0890    1.6186   -0.2704 O   0  0  0  0  0  0  0  0  0  0  0  0
   -0.4674    1.8182    1.2813 N   0  0  0  0  0  0  0  0  0  0  0  0
    0.2640    1.3348    1.7800 H   0  0  0  0  0  0  0  0  0  0  0  0
   -0.5889    3.2615    1.4722 C   0  0  0  0  0  0  0  0  0  0  0  0
   -1.6291    3.5206    1.6805 H   0  0  0  0  0  0  0  0  0  0  0  0
    0.0359    3.5855    2.3049 H   0  0  0  0  0  0  0  0  0  0  0  0
   -0.2760    3.7797    0.5637 H   0  0  0  0  0  0  0  0  0  0  0  0
  5  6  2  0  0  0  0
  5  7  1  0  0  0  0
  2  3  1  0  0  0  0
  2  4  1  0  0  0  0
  2  5  1  0  0  0  0
  1  2  1  0  0  0  0
 25 26  2  0  0  0  0
 25 27  1  0  0  0  0
 23 24  1  0  0  0  0
 21 22  1  0  0  0  0
 21 23  2  0  0  0  0
 19 20  1  0  0  0  0
 19 21  1  0  0  0  0
 17 18  1  0  0  0  0
 17 19  2  0  0  0  0
 15 16  1  0  0  0  0
 15 17  1  0  0  0  0
 14 15  2  0  0  0  0
 14 23  1  0  0  0  0
 11 12  1  0  0  0  0
 11 13  1  0  0  0  0
 11 14  1  0  0  0  0
  9 10  1  0  0  0  0
  9 11  1  0  0  0  0
  9 25  1  0  0  0  0
  7  8  1  0  0  0  0
  7  9  1  0  0  0  0
 29 30  1  0  0  0  0
 29 31  1  0  0  0  0
 29 32  1  0  0  0  0
 27 28  1  0  0  0  0
 27 29  1  0  0  0  0
M  END
$$$$
default_name
  -OEChem-02102213163D

 32 32  0     1  0  0  0  0  0999 V2000
   -3.8405   -3.7518    1.6252 H   0  0  0  0  0  0  0  0  0  0  0  0
   -3.7965   -2.8768    0.9782 C   0  0  0  0  0  0  0  0  0  0  0  0
   -4.5465   -2.1527    1.2902 H   0  0  0  0  0  0  0  0  0  0  0  0
   -3.9745   -3.1748   -0.0538 H   0  0  0  0  0  0  0  0  0  0  0  0
   -2.4245   -2.2537    1.0882 C   0  0  0  0  0  0  0  0  0  0  0  0
   -1.5805   -2.7478    1.8242 O   0  0  0  0  0  0  0  0  0  0  0  0
   -2.2045   -1.1637    0.3562 N   0  0  0  0  0  0  0  0  0  0  0  0
   -2.9595   -0.7907   -0.2008 H   0  0  0  0  0  0  0  0  0  0  0  0
   -0.9485   -0.4087    0.3482 C   0  0  1  0  0  0  0  0  0  0  0  0
   -0.3666   -0.6914    1.2269 H   0  0  0  0  0  0  0  0  0  0  0  0
   -0.1405   -0.7797   -0.9072 C   0  0  0  0  0  0  0  0  0  0  0  0
   -0.1947    0.0438   -1.6206 H   0  0  0  0  0  0  0  0  0  0  0  0
    0.9072   -0.9041   -0.6295 H   0  0  0  0  0  0  0  0  0  0  0  0
   -0.6268   -2.0369   -1.6027 C   0  0  0  0  0  0  0  0  0  0  0  0
   -1.3560   -1.9509   -2.8038 C   0  0  0  0  0  0  0  0  0  0  0  0
   -1.5938   -0.9849   -3.2265 H   0  0  0  0  0  0  0  0  0  0  0  0
   -1.7681   -3.1228   -3.4648 C   0  0  0  0  0  0  0  0  0  0  0  0
   -2.3301   -3.0545   -4.3857 H   0  0  0  0  0  0  0  0  0  0  0  0
   -1.4504   -4.3818   -2.9275 C   0  0  0  0  0  0  0  0  0  0  0  0
   -1.7691   -5.2820   -3.4342 H   0  0  0  0  0  0  0  0  0  0  0  0
   -0.7232   -4.4712   -1.7267 C   0  0  0  0  0  0  0  0  0  0  0  0
   -0.4837   -5.4388   -1.3107 H   0  0  0  0  0  0  0  0  0  0  0  0
   -0.3144   -3.2999   -1.0646 C   0  0  0  0  0  0  0  0  0  0  0  0
    0.2421   -3.3701   -0.1390 H   0  0  0  0  0  0  0  0  0  0  0  0
   -1.2168    1.1047    0.4313 C   0  0  0  0  0  0  0  0  0  0  0  0
   -2.0890    1.6186   -0.2704 O   0  0  0  0  0  0  0  0  0  0  0  0
   -0.4674    1.8182    1.2813 N   0  0  0  0  0  0  0  0  0  0  0  0
    0.2640    1.3348    1.7800 H   0  0  0  0  0  0  0  0  0  0  0  0
   -0.5889    3.2615    1.4722 C   0  0  0  0  0  0  0  0  0  0  0  0
   -1.6291    3.5206    1.6805 H   0  0  0  0  0  0  0  0  0  0  0  0
    0.0359    3.5855    2.3049 H   0  0  0  0  0  0  0  0  0  0  0  0
   -0.2760    3.7797    0.5637 H   0  0  0  0  0  0  0  0  0  0  0  0
  5  6  2  0  0  0  0
  5  7  1  0  0  0  0
  2  3  1  0  0  0  0
  2  4  1  0  0  0  0
  2  5  1  0  0  0  0
  1  2  1  0  0  0  0
 25 26  2  0  0  0  0
 25 27  1  0  0  0  0
 23 24  1  0  0  0  0
 21 22  1  0  0  0  0
 21 23  2  0  0  0  0
 19 20  1  0  0  0  0
 19 21  1  0  0  0  0
 17 18  1  0  0  0  0
 17 19  2  0  0  0  0
 15 16  1  0  0  0  0
 15 17  1  0  0  0  0
 14 15  2  0  0  0  0
 14 23  1  0  0  0  0
 11 12  1  0  0  0  0
 11 13  1  0  0  0  0
 11 14  1  0  0  0  0
  9 10  1  0  0  0  0
  9 11  1  0  0  0  0
  9 25  1  0  0  0  0
  7  8  1  0  0  0  0
  7  9  1  0  0  0  0
 29 30  1  0  0  0  0
 29 31  1  0  0  0  0
 29 32  1  0  0  0  0
 27 28  1  0  0  0  0
 27 29  1  0  0  0  0
M  END
$$$$
default_name
  -OEChem-02102213163D

 32 32  0     1  0  0  0  0  0999 V2000
   -3.8405   -3.7518    1.6252 H   0  0  0  0  0  0  0  0  0  0  0  0
   -3.7965   -2.8768    0.9782 C   0  0  0  0  0  0  0  0  0  0  0  0
   -4.5465   -2.1527    1.2902 H   0  0  0  0  0  0  0  0  0  0  0  0
   -3.9745   -3.1748   -0.0538 H   0  0  0  0  0  0  0  0  0  0  0  0
   -2.4245   -2.2537    1.0882 C   0  0  0  0  0  0  0  0  0  0  0  0
   -1.5805   -2.7478    1.8242 O   0  0  0  0  0  0  0  0  0  0  0  0
   -2.2045   -1.1637    0.3562 N   0  0  0  0  0  0  0  0  0  0  0  0
   -2.9595   -0.7907   -0.2008 H   0  0  0  0  0  0  0  0  0  0  0  0
   -0.9485   -0.4087    0.3482 C   0  0  1  0  0  0  0  0  0  0  0  0
   -0.3666   -0.6914    1.2269 H   0  0  0  0  0  0  0  0  0  0  0  0
   -0.1405   -0.7797   -0.9072 C   0  0  0  0  0  0  0  0  0  0  0  0
   -0.1947    0.0438   -1.6206 H   0  0  0  0  0  0  0  0  0  0  0  0
    0.9072   -0.9041   -0.6295 H   0  0  0  0  0  0  0  0  0  0  0  0
   -0.6268   -2.0369   -1.6027 C   0  0  0  0  0  0  0  0  0  0  0  0
   -1.0711   -1.9871   -2.9376 C   0  0  0  0  0  0  0  0  0  0  0  0
   -1.0896   -1.0459   -3.4687 H   0  0  0  0  0  0  0  0  0  0  0  0
   -1.4817   -3.1647   -3.5892 C   0  0  0  0  0  0  0  0  0  0  0  0
   -1.8249   -3.1238   -4.6135 H   0  0  0  0  0  0  0  0  0  0  0  0
   -1.4472   -4.3935   -2.9085 C   0  0  0  0  0  0  0  0  0  0  0  0
   -1.7649   -5.2979   -3.4084 H   0  0  0  0  0  0  0  0  0  0  0  0
   -1.0052   -4.4466   -1.5740 C   0  0  0  0  0  0  0  0  0  0  0  0
   -0.9838   -5.3902   -1.0489 H   0  0  0  0  0  0  0  0  0  0  0  0
   -0.5980   -3.2691   -0.9220 C   0  0  0  0  0  0  0  0  0  0  0  0
   -0.2614   -3.3107    0.1057 H   0  0  0  0  0  0  0  0  0  0  0  0
   -1.2168    1.1047    0.4313 C   0  0  0  0  0  0  0  0  0  0  0  0
   -2.0890    1.6186   -0.2704 O   0  0  0  0  0  0  0  0  0  0  0  0
   -0.4674    1.8182    1.2813 N   0  0  0  0  0  0  0  0  0  0  0  0
    0.2640    1.3348    1.7800 H   0  0  0  0  0  0  0  0  0  0  0  0
   -0.5889    3.2615    1.4722 C   0  0  0  0  0  0  0  0  0  0  0  0
   -1.6291    3.5206    1.6805 H   0  0  0  0  0  0  0  0  0  0  0  0
    0.0359    3.5855    2.3049 H   0  0  0  0  0  0  0  0  0  0  0  0
   -0.2760    3.7797    0.5637 H   0  0  0  0  0  0  0  0  0  0  0  0
  5  6  2  0  0  0  0
  5  7  1  0  0  0  0
  2  3  1  0  0  0  0
  2  4  1  0  0  0  0
  2  5  1  0  0  0  0
  1  2  1  0  0  0  0
 25 26  2  0  0  0  0
 25 27  1  0  0  0  0
 23 24  1  0  0  0  0
 21 22  1  0  0  0  0
 21 23  2  0  0  0  0
 19 20  1  0  0  0  0
 19 21  1  0  0  0  0
 17 18  1  0  0  0  0
 17 19  2  0  0  0  0
 15 16  1  0  0  0  0
 15 17  1  0  0  0  0
 14 15  2  0  0  0  0
 14 23  1  0  0  0  0
 11 12  1  0  0  0  0
 11 13  1  0  0  0  0
 11 14  1  0  0  0  0
  9 10  1  0  0  0  0
  9 11  1  0  0  0  0
  9 25  1  0  0  0  0
  7  8  1  0  0  0  0
  7  9  1  0  0  0  0
 29 30  1  0  0  0  0
 29 31  1  0  0  0  0
 29 32  1  0  0  0  0
 27 28  1  0  0  0  0
 27 29  1  0  0  0  0
M  END
$$$$
default_name
  -OEChem-02102213163D

 32 32  0     1  0  0  0  0  0999 V2000
   -3.8405   -3.7518    1.6252 H   0  0  0  0  0  0  0  0  0  0  0  0
   -3.7965   -2.8768    0.9782 C   0  0  0  0  0  0  0  0  0  0  0  0
   -4.5465   -2.1527    1.2902 H   0  0  0  0  0  0  0  0  0  0  0  0
   -3.9745   -3.1748   -0.0538 H   0  0  0  0  0  0  0  0  0  0  0  0
   -2.4245   -2.2537    1.0882 C   0  0  0  0  0  0  0  0  0  0  0  0
   -1.5805   -2.7478    1.8242 O   0  0  0  0  0  0  0  0  0  0  0  0
   -2.2045   -1.1637    0.3562 N   0  0  0  0  0  0  0  0  0  0  0  0
   -2.9595   -0.7907   -0.2008 H   0  0  0  0  0  0  0  0  0  0  0  0
   -0.9485   -0.4087    0.3482 C   0  0  1  0  0  0  0  0  0  0  0  0
   -0.3666   -0.6914    1.2269 H   0  0  0  0  0  0  0  0  0  0  0  0
   -0.1405   -0.7797   -0.9072 C   0  0  0  0  0  0  0  0  0  0  0  0
   -0.1947    0.0438   -1.6206 H   0  0  0  0  0  0  0  0  0  0  0  0
    0.9072   -0.9041   -0.6295 H   0  0  0  0  0  0  0  0  0  0  0  0
   -0.6268   -2.0369   -1.6027 C   0  0  0  0  0  0  0  0  0  0  0  0
   -0.7714   -2.0670   -3.0027 C   0  0  0  0  0  0  0  0  0  0  0  0
   -0.5579   -1.1847   -3.5895 H   0  0  0  0  0  0  0  0  0  0  0  0
   -1.1834   -3.2495   -3.6445 C   0  0  0  0  0  0  0  0  0  0  0  0
   -1.2963   -3.2697   -4.7194 H   0  0  0  0  0  0  0  0  0  0  0  0
   -1.4495   -4.4037   -2.8885 C   0  0  0  0  0  0  0  0  0  0  0  0
   -1.7683   -5.3115   -3.3813 H   0  0  0  0  0  0  0  0  0  0  0  0
   -1.3074   -4.3766   -1.4891 C   0  0  0  0  0  0  0  0  0  0  0  0
   -1.5172   -5.2622   -0.9074 H   0  0  0  0  0  0  0  0  0  0  0  0
   -0.8989   -3.1938   -0.8478 C   0  0  0  0  0  0  0  0  0  0  0  0
   -0.7932   -3.1733    0.2291 H   0  0  0  0  0  0  0  0  0  0  0  0
   -1.2168    1.1047    0.4313 C   0  0  0  0  0  0  0  0  0  0  0  0
   -2.0890    1.6186   -0.2704 O   0  0  0  0  0  0  0  0  0  0  0  0
   -0.4674    1.8182    1.2813 N   0  0  0  0  0  0  0  0  0  0  0  0
    0.2640    1.3348    1.7800 H   0  0  0  0  0  0  0  0  0  0  0  0
   -0.5889    3.2615    1.4722 C   0  0  0  0  0  0  0  0  0  0  0  0
   -1.6291    3.5206    1.6805 H   0  0  0  0  0  0  0  0  0  0  0  0
    0.0359    3.5855    2.3049 H   0  0  0  0  0  0  0  0  0  0  0  0
   -0.2760    3.7797    0.5637 H   0  0  0  0  0  0  0  0  0  0  0  0
  5  6  2  0  0  0  0
  5  7  1  0  0  0  0
  2  3  1  0  0  0  0
  2  4  1  0  0  0  0
  2  5  1  0  0  0  0
  1  2  1  0  0  0  0
 25 26  2  0  0  0  0
 25 27  1  0  0  0  0
 23 24  1  0  0  0  0
 21 22  1  0  0  0  0
 21 23  2  0  0  0  0
 19 20  1  0  0  0  0
 19 21  1  0  0  0  0
 17 18  1  0  0  0  0
 17 19  2  0  0  0  0
 15 16  1  0  0  0  0
 15 17  1  0  0  0  0
 14 15  2  0  0  0  0
 14 23  1  0  0  0  0
 11 12  1  0  0  0  0
 11 13  1  0  0  0  0
 11 14  1  0  0  0  0
  9 10  1  0  0  0  0
  9 11  1  0  0  0  0
  9 25  1  0  0  0  0
  7  8  1  0  0  0  0
  7  9  1  0  0  0  0
 29 30  1  0  0  0  0
 29 31  1  0  0  0  0
 29 32  1  0  0  0  0
 27 28  1  0  0  0  0
 27 29  1  0  0  0  0
M  END
$$$$
default_name
  -OEChem-02102213163D

 32 32  0     1  0  0  0  0  0999 V2000
   -3.8405   -3.7518    1.6252 H   0  0  0  0  0  0  0  0  0  0  0  0
   -3.7965   -2.8768    0.9782 C   0  0  0  0  0  0  0  0  0  0  0  0
   -4.5465   -2.1527    1.2902 H   0  0  0  0  0  0  0  0  0  0  0  0
   -3.9745   -3.1748   -0.0538 H   0  0  0  0  0  0  0  0  0  0  0  0
   -2.4245   -2.2537    1.0882 C   0  0  0  0  0  0  0  0  0  0  0  0
   -1.5805   -2.7478    1.8242 O   0  0  0  0  0  0  0  0  0  0  0  0
   -2.2045   -1.1637    0.3562 N   0  0  0  0  0  0  0  0  0  0  0  0
   -2.9595   -0.7907   -0.2008 H   0  0  0  0  0  0  0  0  0  0  0  0
   -0.9485   -0.4087    0.3482 C   0  0  1  0  0  0  0  0  0  0  0  0
   -0.3666   -0.6914    1.2269 H   0  0  0  0  0  0  0  0  0  0  0  0
   -0.1405   -0.7797   -0.9072 C   0  0  0  0  0  0  0  0  0  0  0  0
   -0.1947    0.0438   -1.6206 H   0  0  0  0  0  0  0  0  0  0  0  0
    0.9072   -0.9041   -0.6295 H   0  0  0  0  0  0  0  0  0  0  0  0
   -0.6268   -2.0369   -1.6027 C   0  0  0  0  0  0  0  0  0  0  0  0
   -0.4775   -2.1851   -2.9947 C   0  0  0  0  0  0  0  0  0  0  0  0
   -0.0349   -1.3920   -3.5806 H   0  0  0  0  0  0  0  0  0  0  0  0
   -0.8935   -3.3714   -3.6268 C   0  0  0  0  0  0  0  0  0  0  0  0
   -0.7803   -3.4821   -4.6961 H   0  0  0  0  0  0  0  0  0  0  0  0
   -1.4573   -4.4116   -2.8687 C   0  0  0  0  0  0  0  0  0  0  0  0
   -1.7790   -5.3221   -3.3548 H   0  0  0  0  0  0  0  0  0  0  0  0
   -1.6093   -4.2662   -1.4778 C   0  0  0  0  0  0  0  0  0  0  0  0
   -2.0476   -5.0635   -0.8957 H   0  0  0  0  0  0  0  0  0  0  0  0
   -1.1965   -3.0792   -0.8468 C   0  0  0  0  0  0  0  0  0  0  0  0
   -1.3170   -2.9673    0.2229 H   0  0  0  0  0  0  0  0  0  0  0  0
   -1.2168    1.1047    0.4313 C   0  0  0  0  0  0  0  0  0  0  0  0
   -2.0890    1.6186   -0.2704 O   0  0  0  0  0  0  0  0  0  0  0  0
   -0.4674    1.8182    1.2813 N   0  0  0  0  0  0  0  0  0  0  0  0
    0.2640    1.3348    1.7800 H   0  0  0  0  0  0  0  0  0  0  0  0
   -0.5889    3.2615    1.4722 C   0  0  0  0  0  0  0  0  0  0  0  0
   -1.6291    3.5206    1.6805 H   0  0  0  0  0  0  0  0  0  0  0  0
    0.0359    3.5855    2.3049 H   0  0  0  0  0  0  0  0  0  0  0  0
   -0.2760    3.7797    0.5637 H   0  0  0  0  0  0  0  0  0  0  0  0
  5  6  2  0  0  0  0
  5  7  1  0  0  0  0
  2  3  1  0  0  0  0
  2  4  1  0  0  0  0
  2  5  1  0  0  0  0
  1  2  1  0  0  0  0
 25 26  2  0  0  0  0
 25 27  1  0  0  0  0
 23 24  1  0  0  0  0
 21 22  1  0  0  0  0
 21 23  2  0  0  0  0
 19 20  1  0  0  0  0
 19 21  1  0  0  0  0
 17 18  1  0  0  0  0
 17 19  2  0  0  0  0
 15 16  1  0  0  0  0
 15 17  1  0  0  0  0
 14 15  2  0  0  0  0
 14 23  1  0  0  0  0
 11 12  1  0  0  0  0
 11 13  1  0  0  0  0
 11 14  1  0  0  0  0
  9 10  1  0  0  0  0
  9 11  1  0  0  0  0
  9 25  1  0  0  0  0
  7  8  1  0  0  0  0
  7  9  1  0  0  0  0
 29 30  1  0  0  0  0
 29 31  1  0  0  0  0
 29 32  1  0  0  0  0
 27 28  1  0  0  0  0
 27 29  1  0  0  0  0
M  END
$$$$
default_name
  -OEChem-02102213163D

 32 32  0     1  0  0  0  0  0999 V2000
   -3.8405   -3.7518    1.6252 H   0  0  0  0  0  0  0  0  0  0  0  0
   -3.7965   -2.8768    0.9782 C   0  0  0  0  0  0  0  0  0  0  0  0
   -4.5465   -2.1527    1.2902 H   0  0  0  0  0  0  0  0  0  0  0  0
   -3.9745   -3.1748   -0.0538 H   0  0  0  0  0  0  0  0  0  0  0  0
   -2.4245   -2.2537    1.0882 C   0  0  0  0  0  0  0  0  0  0  0  0
   -1.5805   -2.7478    1.8242 O   0  0  0  0  0  0  0  0  0  0  0  0
   -2.2045   -1.1637    0.3562 N   0  0  0  0  0  0  0  0  0  0  0  0
   -2.9595   -0.7907   -0.2008 H   0  0  0  0  0  0  0  0  0  0  0  0
   -0.9485   -0.4087    0.3482 C   0  0  1  0  0  0  0  0  0  0  0  0
   -0.3666   -0.6914    1.2269 H   0  0  0  0  0  0  0  0  0  0  0  0
   -0.1405   -0.7797   -0.9072 C   0  0  0  0  0  0  0  0  0  0  0  0
   -0.1947    0.0438   -1.6206 H   0  0  0  0  0  0  0  0  0  0  0  0
    0.9072   -0.9041   -0.6295 H   0  0  0  0  0  0  0  0  0  0  0  0
   -0.6268   -2.0369   -1.6027 C   0  0  0  0  0  0  0  0  0  0  0  0
   -0.2094   -2.3334   -2.9141 C   0  0  0  0  0  0  0  0  0  0  0  0
    0.4437   -1.6535   -3.4426 H   0  0  0  0  0  0  0  0  0  0  0  0
   -0.6317   -3.5221   -3.5375 C   0  0  0  0  0  0  0  0  0  0  0  0
   -0.3121   -3.7466   -4.5454 H   0  0  0  0  0  0  0  0  0  0  0  0
   -1.4700   -4.4167   -2.8507 C   0  0  0  0  0  0  0  0  0  0  0  0
   -1.7963   -5.3288   -3.3305 H   0  0  0  0  0  0  0  0  0  0  0  0
   -1.8901   -4.1227   -1.5407 C   0  0  0  0  0  0  0  0  0  0  0  0
   -2.5389   -4.8077   -1.0147 H   0  0  0  0  0  0  0  0  0  0  0  0
   -1.4706   -2.9332   -0.9192 C   0  0  0  0  0  0  0  0  0  0  0  0
   -1.7972   -2.7066    0.0874 H   0  0  0  0  0  0  0  0  0  0  0  0
   -1.2168    1.1047    0.4313 C   0  0  0  0  0  0  0  0  0  0  0  0
   -2.0890    1.6186   -0.2704 O   0  0  0  0  0  0  0  0  0  0  0  0
   -0.4674    1.8182    1.2813 N   0  0  0  0  0  0  0  0  0  0  0  0
    0.2640    1.3348    1.7800 H   0  0  0  0  0  0  0  0  0  0  0  0
   -0.5889    3.2615    1.4722 C   0  0  0  0  0  0  0  0  0  0  0  0
   -1.6291    3.5206    1.6805 H   0  0  0  0  0  0  0  0  0  0  0  0
    0.0359    3.5855    2.3049 H   0  0  0  0  0  0  0  0  0  0  0  0
   -0.2760    3.7797    0.5637 H   0  0  0  0  0  0  0  0  0  0  0  0
  5  6  2  0  0  0  0
  5  7  1  0  0  0  0
  2  3  1  0  0  0  0
  2  4  1  0  0  0  0
  2  5  1  0  0  0  0
  1  2  1  0  0  0  0
 25 26  2  0  0  0  0
 25 27  1  0  0  0  0
 23 24  1  0  0  0  0
 21 22  1  0  0  0  0
 21 23  2  0  0  0  0
 19 20  1  0  0  0  0
 19 21  1  0  0  0  0
 17 18  1  0  0  0  0
 17 19  2  0  0  0  0
 15 16  1  0  0  0  0
 15 17  1  0  0  0  0
 14 15  2  0  0  0  0
 14 23  1  0  0  0  0
 11 12  1  0  0  0  0
 11 13  1  0  0  0  0
 11 14  1  0  0  0  0
  9 10  1  0  0  0  0
  9 11  1  0  0  0  0
  9 25  1  0  0  0  0
  7  8  1  0  0  0  0
  7  9  1  0  0  0  0
 29 30  1  0  0  0  0
 29 31  1  0  0  0  0
 29 32  1  0  0  0  0
 27 28  1  0  0  0  0
 27 29  1  0  0  0  0
M  END
$$$$
default_name
  -OEChem-02102213163D

 32 32  0     1  0  0  0  0  0999 V2000
   -3.8405   -3.7518    1.6252 H   0  0  0  0  0  0  0  0  0  0  0  0
   -3.7965   -2.8768    0.9782 C   0  0  0  0  0  0  0  0  0  0  0  0
   -4.5465   -2.1527    1.2902 H   0  0  0  0  0  0  0  0  0  0  0  0
   -3.9745   -3.1748   -0.0538 H   0  0  0  0  0  0  0  0  0  0  0  0
   -2.4245   -2.2537    1.0882 C   0  0  0  0  0  0  0  0  0  0  0  0
   -1.5805   -2.7478    1.8242 O   0  0  0  0  0  0  0  0  0  0  0  0
   -2.2045   -1.1637    0.3562 N   0  0  0  0  0  0  0  0  0  0  0  0
   -2.9595   -0.7907   -0.2008 H   0  0  0  0  0  0  0  0  0  0  0  0
   -0.9485   -0.4087    0.3482 C   0  0  1  0  0  0  0  0  0  0  0  0
   -0.3666   -0.6914    1.2269 H   0  0  0  0  0  0  0  0  0  0  0  0
   -0.1405   -0.7797   -0.9072 C   0  0  0  0  0  0  0  0  0  0  0  0
    0.0320    0.1213   -1.4976 H   0  0  0  0  0  0  0  0  0  0  0  0
    0.8343   -1.1618   -0.6003 H   0  0  0  0  0  0  0  0  0  0  0  0
   -0.8213   -1.8019   -1.7973 C   0  0  0  0  0  0  0  0  0  0  0  0
   -0.2022   -2.2397   -2.9835 C   0  0  0  0  0  0  0  0  0  0  0  0
    0.7542   -1.8319   -3.2790 H   0  0  0  0  0  0  0  0  0  0  0  0
   -0.8209   -3.2186   -3.7828 C   0  0  0  0  0  0  0  0  0  0  0  0
   -0.3450   -3.5515   -4.6945 H   0  0  0  0  0  0  0  0  0  0  0  0
   -2.0578   -3.7625   -3.3971 C   0  0  0  0  0  0  0  0  0  0  0  0
   -2.5342   -4.5128   -4.0125 H   0  0  0  0  0  0  0  0  0  0  0  0
   -2.6799   -3.3261   -2.2132 C   0  0  0  0  0  0  0  0  0  0  0  0
   -3.6333   -3.7401   -1.9194 H   0  0  0  0  0  0  0  0  0  0  0  0
   -2.0630   -2.3454   -1.4163 C   0  0  0  0  0  0  0  0  0  0  0  0
   -2.5442   -2.0081   -0.5075 H   0  0  0  0  0  0  0  0  0  0  0  0
   -1.2168    1.1047    0.4313 C   0  0  0  0  0  0  0  0  0  0  0  0
   -2.0890    1.6186   -0.2704 O   0  0  0  0  0  0  0  0  0  0  0  0
   -0.4674    1.8182    1.2813 N   0  0  0  0  0  0  0  0  0  0  0  0
    0.2640    1.3348    1.7800 H   0  0  0  0  0  0  0  0  0  0  0  0
   -0.5889    3.2615    1.4722 C   0  0  0  0  0  0  0  0  0  0  0  0
   -1.6291    3.5206    1.6805 H   0  0  0  0  0  0  0  0  0  0  0  0
    0.0359    3.5855    2.3049 H   0  0  0  0  0  0  0  0  0  0  0  0
   -0.2760    3.7797    0.5637 H   0  0  0  0  0  0  0  0  0  0  0  0
  5  6  2  0  0  0  0
  5  7  1  0  0  0  0
  2  3  1  0  0  0  0
  2  4  1  0  0  0  0
  2  5  1  0  0  0  0
  1  2  1  0  0  0  0
 25 26  2  0  0  0  0
 25 27  1  0  0  0  0
 23 24  1  0  0  0  0
 21 22  1  0  0  0  0
 21 23  2  0  0  0  0
 19 20  1  0  0  0  0
 19 21  1  0  0  0  0
 17 18  1  0  0  0  0
 17 19  2  0  0  0  0
 15 16  1  0  0  0  0
 15 17  1  0  0  0  0
 14 15  2  0  0  0  0
 14 23  1  0  0  0  0
 11 12  1  0  0  0  0
 11 13  1  0  0  0  0
 11 14  1  0  0  0  0
  9 10  1  0  0  0  0
  9 11  1  0  0  0  0
  9 25  1  0  0  0  0
  7  8  1  0  0  0  0
  7  9  1  0  0  0  0
 29 30  1  0  0  0  0
 29 31  1  0  0  0  0
 29 32  1  0  0  0  0
 27 28  1  0  0  0  0
 27 29  1  0  0  0  0
M  END
$$$$
default_name
  -OEChem-02102213163D

 32 32  0     1  0  0  0  0  0999 V2000
   -3.8405   -3.7518    1.6252 H   0  0  0  0  0  0  0  0  0  0  0  0
   -3.7965   -2.8768    0.9782 C   0  0  0  0  0  0  0  0  0  0  0  0
   -4.5465   -2.1527    1.2902 H   0  0  0  0  0  0  0  0  0  0  0  0
   -3.9745   -3.1748   -0.0538 H   0  0  0  0  0  0  0  0  0  0  0  0
   -2.4245   -2.2537    1.0882 C   0  0  0  0  0  0  0  0  0  0  0  0
   -1.5805   -2.7478    1.8242 O   0  0  0  0  0  0  0  0  0  0  0  0
   -2.2045   -1.1637    0.3562 N   0  0  0  0  0  0  0  0  0  0  0  0
   -2.9595   -0.7907   -0.2008 H   0  0  0  0  0  0  0  0  0  0  0  0
   -0.9485   -0.4087    0.3482 C   0  0  1  0  0  0  0  0  0  0  0  0
   -0.3666   -0.6914    1.2269 H   0  0  0  0  0  0  0  0  0  0  0  0
   -0.1405   -0.7797   -0.9072 C   0  0  0  0  0  0  0  0  0  0  0  0
    0.0320    0.1213   -1.4976 H   0  0  0  0  0  0  0  0  0  0  0  0
    0.8343   -1.1618   -0.6003 H   0  0  0  0  0  0  0  0  0  0  0  0
   -0.8213   -1.8019   -1.7973 C   0  0  0  0  0  0  0  0  0  0  0  0
   -0.0938   -2.4730   -2.7985 C   0  0  0  0  0  0  0  0  0  0  0  0
    0.9515   -2.2465   -2.9539 H   0  0  0  0  0  0  0  0  0  0  0  0
   -0.7222   -3.4497   -3.5929 C   0  0  0  0  0  0  0  0  0  0  0  0
   -0.1624   -3.9620   -4.3627 H   0  0  0  0  0  0  0  0  0  0  0  0
   -2.0775   -3.7583   -3.3868 C   0  0  0  0  0  0  0  0  0  0  0  0
   -2.5609   -4.5070   -3.9987 H   0  0  0  0  0  0  0  0  0  0  0  0
   -2.8078   -3.0885   -2.3883 C   0  0  0  0  0  0  0  0  0  0  0  0
   -3.8510   -3.3217   -2.2333 H   0  0  0  0  0  0  0  0  0  0  0  0
   -2.1804   -2.1101   -1.5967 C   0  0  0  0  0  0  0  0  0  0  0  0
   -2.7442   -1.5931   -0.8311 H   0  0  0  0  0  0  0  0  0  0  0  0
   -1.2168    1.1047    0.4313 C   0  0  0  0  0  0  0  0  0  0  0  0
   -2.0890    1.6186   -0.2704 O   0  0  0  0  0  0  0  0  0  0  0  0
   -0.4674    1.8182    1.2813 N   0  0  0  0  0  0  0  0  0  0  0  0
    0.2640    1.3348    1.7800 H   0  0  0  0  0  0  0  0  0  0  0  0
   -0.5889    3.2615    1.4722 C   0  0  0  0  0  0  0  0  0  0  0  0
   -1.6291    3.5206    1.6805 H   0  0  0  0  0  0  0  0  0  0  0  0
    0.0359    3.5855    2.3049 H   0  0  0  0  0  0  0  0  0  0  0  0
   -0.2760    3.7797    0.5637 H   0  0  0  0  0  0  0  0  0  0  0  0
  5  6  2  0  0  0  0
  5  7  1  0  0  0  0
  2  3  1  0  0  0  0
  2  4  1  0  0  0  0
  2  5  1  0  0  0  0
  1  2  1  0  0  0  0
 25 26  2  0  0  0  0
 25 27  1  0  0  0  0
 23 24  1  0  0  0  0
 21 22  1  0  0  0  0
 21 23  2  0  0  0  0
 19 20  1  0  0  0  0
 19 21  1  0  0  0  0
 17 18  1  0  0  0  0
 17 19  2  0  0  0  0
 15 16  1  0  0  0  0
 15 17  1  0  0  0  0
 14 15  2  0  0  0  0
 14 23  1  0  0  0  0
 11 12  1  0  0  0  0
 11 13  1  0  0  0  0
 11 14  1  0  0  0  0
  9 10  1  0  0  0  0
  9 11  1  0  0  0  0
  9 25  1  0  0  0  0
  7  8  1  0  0  0  0
  7  9  1  0  0  0  0
 29 30  1  0  0  0  0
 29 31  1  0  0  0  0
 29 32  1  0  0  0  0
 27 28  1  0  0  0  0
 27 29  1  0  0  0  0
M  END
$$$$
default_name
  -OEChem-02102213163D

 32 32  0     1  0  0  0  0  0999 V2000
   -3.8405   -3.7518    1.6252 H   0  0  0  0  0  0  0  0  0  0  0  0
   -3.7965   -2.8768    0.9782 C   0  0  0  0  0  0  0  0  0  0  0  0
   -4.5465   -2.1527    1.2902 H   0  0  0  0  0  0  0  0  0  0  0  0
   -3.9745   -3.1748   -0.0538 H   0  0  0  0  0  0  0  0  0  0  0  0
   -2.4245   -2.2537    1.0882 C   0  0  0  0  0  0  0  0  0  0  0  0
   -1.5805   -2.7478    1.8242 O   0  0  0  0  0  0  0  0  0  0  0  0
   -2.2045   -1.1637    0.3562 N   0  0  0  0  0  0  0  0  0  0  0  0
   -2.9595   -0.7907   -0.2008 H   0  0  0  0  0  0  0  0  0  0  0  0
   -0.9485   -0.4087    0.3482 C   0  0  1  0  0  0  0  0  0  0  0  0
   -0.3666   -0.6914    1.2269 H   0  0  0  0  0  0  0  0  0  0  0  0
   -0.1405   -0.7797   -0.9072 C   0  0  0  0  0  0  0  0  0  0  0  0
    0.0320    0.1213   -1.4976 H   0  0  0  0  0  0  0  0  0  0  0  0
    0.8343   -1.1618   -0.6003 H   0  0  0  0  0  0  0  0  0  0  0  0
   -0.8213   -1.8019   -1.7973 C   0  0  0  0  0  0  0  0  0  0  0  0
   -0.0569   -2.6933   -2.5738 C   0  0  0  0  0  0  0  0  0  0  0  0
    1.0225   -2.6392   -2.5572 H   0  0  0  0  0  0  0  0  0  0  0  0
   -0.6951   -3.6659   -3.3654 C   0  0  0  0  0  0  0  0  0  0  0  0
   -0.1063   -4.3477   -3.9628 H   0  0  0  0  0  0  0  0  0  0  0  0
   -2.0977   -3.7501   -3.3807 C   0  0  0  0  0  0  0  0  0  0  0  0
   -2.5881   -4.4958   -3.9907 H   0  0  0  0  0  0  0  0  0  0  0  0
   -2.8647   -2.8599   -2.6072 C   0  0  0  0  0  0  0  0  0  0  0  0
   -3.9430   -2.9210   -2.6231 H   0  0  0  0  0  0  0  0  0  0  0  0
   -2.2266   -1.8859   -1.8188 C   0  0  0  0  0  0  0  0  0  0  0  0
   -2.8179   -1.1995   -1.2267 H   0  0  0  0  0  0  0  0  0  0  0  0
   -1.2168    1.1047    0.4313 C   0  0  0  0  0  0  0  0  0  0  0  0
   -2.0890    1.6186   -0.2704 O   0  0  0  0  0  0  0  0  0  0  0  0
   -0.4674    1.8182    1.2813 N   0  0  0  0  0  0  0  0  0  0  0  0
    0.2640    1.3348    1.7800 H   0  0  0  0  0  0  0  0  0  0  0  0
   -0.5889    3.2615    1.4722 C   0  0  0  0  0  0  0  0  0  0  0  0
   -1.6291    3.5206    1.6805 H   0  0  0  0  0  0  0  0  0  0  0  0
    0.0359    3.5855    2.3049 H   0  0  0  0  0  0  0  0  0  0  0  0
   -0.2760    3.7797    0.5637 H   0  0  0  0  0  0  0  0  0  0  0  0
  5  6  2  0  0  0  0
  5  7  1  0  0  0  0
  2  3  1  0  0  0  0
  2  4  1  0  0  0  0
  2  5  1  0  0  0  0
  1  2  1  0  0  0  0
 25 26  2  0  0  0  0
 25 27  1  0  0  0  0
 23 24  1  0  0  0  0
 21 22  1  0  0  0  0
 21 23  2  0  0  0  0
 19 20  1  0  0  0  0
 19 21  1  0  0  0  0
 17 18  1  0  0  0  0
 17 19  2  0  0  0  0
 15 16  1  0  0  0  0
 15 17  1  0  0  0  0
 14 15  2  0  0  0  0
 14 23  1  0  0  0  0
 11 12  1  0  0  0  0
 11 13  1  0  0  0  0
 11 14  1  0  0  0  0
  9 10  1  0  0  0  0
  9 11  1  0  0  0  0
  9 25  1  0  0  0  0
  7  8  1  0  0  0  0
  7  9  1  0  0  0  0
 29 30  1  0  0  0  0
 29 31  1  0  0  0  0
 29 32  1  0  0  0  0
 27 28  1  0  0  0  0
 27 29  1  0  0  0  0
M  END
$$$$
default_name
  -OEChem-02102213163D

 32 32  0     1  0  0  0  0  0999 V2000
   -3.8405   -3.7518    1.6252 H   0  0  0  0  0  0  0  0  0  0  0  0
   -3.7965   -2.8768    0.9782 C   0  0  0  0  0  0  0  0  0  0  0  0
   -4.5465   -2.1527    1.2902 H   0  0  0  0  0  0  0  0  0  0  0  0
   -3.9745   -3.1748   -0.0538 H   0  0  0  0  0  0  0  0  0  0  0  0
   -2.4245   -2.2537    1.0882 C   0  0  0  0  0  0  0  0  0  0  0  0
   -1.5805   -2.7478    1.8242 O   0  0  0  0  0  0  0  0  0  0  0  0
   -2.2045   -1.1637    0.3562 N   0  0  0  0  0  0  0  0  0  0  0  0
   -2.9595   -0.7907   -0.2008 H   0  0  0  0  0  0  0  0  0  0  0  0
   -0.9485   -0.4087    0.3482 C   0  0  1  0  0  0  0  0  0  0  0  0
   -0.3666   -0.6914    1.2269 H   0  0  0  0  0  0  0  0  0  0  0  0
   -0.1405   -0.7797   -0.9072 C   0  0  0  0  0  0  0  0  0  0  0  0
    0.0320    0.1213   -1.4976 H   0  0  0  0  0  0  0  0  0  0  0  0
    0.8343   -1.1618   -0.6003 H   0  0  0  0  0  0  0  0  0  0  0  0
   -0.8213   -1.8019   -1.7973 C   0  0  0  0  0  0  0  0  0  0  0  0
   -0.0938   -2.8857   -2.3247 C   0  0  0  0  0  0  0  0  0  0  0  0
    0.9623   -2.9832   -2.1161 H   0  0  0  0  0  0  0  0  0  0  0  0
   -0.7415   -3.8524   -3.1158 C   0  0  0  0  0  0  0  0  0  0  0  0
   -0.1805   -4.6824   -3.5218 H   0  0  0  0  0  0  0  0  0  0  0  0
   -2.1171   -3.7385   -3.3794 C   0  0  0  0  0  0  0  0  0  0  0  0
   -2.6141   -4.4799   -3.9891 H   0  0  0  0  0  0  0  0  0  0  0  0
   -2.8467   -2.6559   -2.8552 C   0  0  0  0  0  0  0  0  0  0  0  0
   -3.9029   -2.5653   -3.0622 H   0  0  0  0  0  0  0  0  0  0  0  0
   -2.1985   -1.6882   -2.0674 C   0  0  0  0  0  0  0  0  0  0  0  0
   -2.7602   -0.8540   -1.6675 H   0  0  0  0  0  0  0  0  0  0  0  0
   -1.2168    1.1047    0.4313 C   0  0  0  0  0  0  0  0  0  0  0  0
   -2.0890    1.6186   -0.2704 O   0  0  0  0  0  0  0  0  0  0  0  0
   -0.4674    1.8182    1.2813 N   0  0  0  0  0  0  0  0  0  0  0  0
    0.2640    1.3348    1.7800 H   0  0  0  0  0  0  0  0  0  0  0  0
   -0.5889    3.2615    1.4722 C   0  0  0  0  0  0  0  0  0  0  0  0
   -1.6291    3.5206    1.6805 H   0  0  0  0  0  0  0  0  0  0  0  0
    0.0359    3.5855    2.3049 H   0  0  0  0  0  0  0  0  0  0  0  0
   -0.2760    3.7797    0.5637 H   0  0  0  0  0  0  0  0  0  0  0  0
  5  6  2  0  0  0  0
  5  7  1  0  0  0  0
  2  3  1  0  0  0  0
  2  4  1  0  0  0  0
  2  5  1  0  0  0  0
  1  2  1  0  0  0  0
 25 26  2  0  0  0  0
 25 27  1  0  0  0  0
 23 24  1  0  0  0  0
 21 22  1  0  0  0  0
 21 23  2  0  0  0  0
 19 20  1  0  0  0  0
 19 21  1  0  0  0  0
 17 18  1  0  0  0  0
 17 19  2  0  0  0  0
 15 16  1  0  0  0  0
 15 17  1  0  0  0  0
 14 15  2  0  0  0  0
 14 23  1  0  0  0  0
 11 12  1  0  0  0  0
 11 13  1  0  0  0  0
 11 14  1  0  0  0  0
  9 10  1  0  0  0  0
  9 11  1  0  0  0  0
  9 25  1  0  0  0  0
  7  8  1  0  0  0  0
  7  9  1  0  0  0  0
 29 30  1  0  0  0  0
 29 31  1  0  0  0  0
 29 32  1  0  0  0  0
 27 28  1  0  0  0  0
 27 29  1  0  0  0  0
M  END
$$$$
default_name
  -OEChem-02102213163D

 32 32  0     1  0  0  0  0  0999 V2000
   -3.8405   -3.7518    1.6252 H   0  0  0  0  0  0  0  0  0  0  0  0
   -3.7965   -2.8768    0.9782 C   0  0  0  0  0  0  0  0  0  0  0  0
   -4.5465   -2.1527    1.2902 H   0  0  0  0  0  0  0  0  0  0  0  0
   -3.9745   -3.1748   -0.0538 H   0  0  0  0  0  0  0  0  0  0  0  0
   -2.4245   -2.2537    1.0882 C   0  0  0  0  0  0  0  0  0  0  0  0
   -1.5805   -2.7478    1.8242 O   0  0  0  0  0  0  0  0  0  0  0  0
   -2.2045   -1.1637    0.3562 N   0  0  0  0  0  0  0  0  0  0  0  0
   -2.9595   -0.7907   -0.2008 H   0  0  0  0  0  0  0  0  0  0  0  0
   -0.9485   -0.4087    0.3482 C   0  0  1  0  0  0  0  0  0  0  0  0
   -0.3666   -0.6914    1.2269 H   0  0  0  0  0  0  0  0  0  0  0  0
   -0.1405   -0.7797   -0.9072 C   0  0  0  0  0  0  0  0  0  0  0  0
    0.0320    0.1213   -1.4976 H   0  0  0  0  0  0  0  0  0  0  0  0
    0.8343   -1.1618   -0.6003 H   0  0  0  0  0  0  0  0  0  0  0  0
   -0.8213   -1.8019   -1.7973 C   0  0  0  0  0  0  0  0  0  0  0  0
   -0.2022   -3.0369   -2.0682 C   0  0  0  0  0  0  0  0  0  0  0  0
    0.7749   -3.2551   -1.6606 H   0  0  0  0  0  0  0  0  0  0  0  0
   -0.8581   -3.9965   -2.8611 C   0  0  0  0  0  0  0  0  0  0  0  0
   -0.3798   -4.9431   -3.0700 H   0  0  0  0  0  0  0  0  0  0  0  0
   -2.1342   -3.7241   -3.3828 C   0  0  0  0  0  0  0  0  0  0  0  0
   -2.6371   -4.4604   -3.9939 H   0  0  0  0  0  0  0  0  0  0  0  0
   -2.7551   -2.4904   -3.1153 C   0  0  0  0  0  0  0  0  0  0  0  0
   -3.7336   -2.2787   -3.5207 H   0  0  0  0  0  0  0  0  0  0  0  0
   -2.0979   -1.5303   -2.3256 C   0  0  0  0  0  0  0  0  0  0  0  0
   -2.5752   -0.5803   -2.1233 H   0  0  0  0  0  0  0  0  0  0  0  0
   -1.2168    1.1047    0.4313 C   0  0  0  0  0  0  0  0  0  0  0  0
   -2.0890    1.6186   -0.2704 O   0  0  0  0  0  0  0  0  0  0  0  0
   -0.4674    1.8182    1.2813 N   0  0  0  0  0  0  0  0  0  0  0  0
    0.2640    1.3348    1.7800 H   0  0  0  0  0  0  0  0  0  0  0  0
   -0.5889    3.2615    1.4722 C   0  0  0  0  0  0  0  0  0  0  0  0
   -1.6291    3.5206    1.6805 H   0  0  0  0  0  0  0  0  0  0  0  0
    0.0359    3.5855    2.3049 H   0  0  0  0  0  0  0  0  0  0  0  0
   -0.2760    3.7797    0.5637 H   0  0  0  0  0  0  0  0  0  0  0  0
  5  6  2  0  0  0  0
  5  7  1  0  0  0  0
  2  3  1  0  0  0  0
  2  4  1  0  0  0  0
  2  5  1  0  0  0  0
  1  2  1  0  0  0  0
 25 26  2  0  0  0  0
 25 27  1  0  0  0  0
 23 24  1  0  0  0  0
 21 22  1  0  0  0  0
 21 23  2  0  0  0  0
 19 20  1  0  0  0  0
 19 21  1  0  0  0  0
 17 18  1  0  0  0  0
 17 19  2  0  0  0  0
 15 16  1  0  0  0  0
 15 17  1  0  0  0  0
 14 15  2  0  0  0  0
 14 23  1  0  0  0  0
 11 12  1  0  0  0  0
 11 13  1  0  0  0  0
 11 14  1  0  0  0  0
  9 10  1  0  0  0  0
  9 11  1  0  0  0  0
  9 25  1  0  0  0  0
  7  8  1  0  0  0  0
  7  9  1  0  0  0  0
 29 30  1  0  0  0  0
 29 31  1  0  0  0  0
 29 32  1  0  0  0  0
 27 28  1  0  0  0  0
 27 29  1  0  0  0  0
M  END
$$$$
default_name
  -OEChem-02102213163D

 32 32  0     1  0  0  0  0  0999 V2000
   -3.8405   -3.7518    1.6252 H   0  0  0  0  0  0  0  0  0  0  0  0
   -3.7965   -2.8768    0.9782 C   0  0  0  0  0  0  0  0  0  0  0  0
   -4.5465   -2.1527    1.2902 H   0  0  0  0  0  0  0  0  0  0  0  0
   -3.9745   -3.1748   -0.0538 H   0  0  0  0  0  0  0  0  0  0  0  0
   -2.4245   -2.2537    1.0882 C   0  0  0  0  0  0  0  0  0  0  0  0
   -1.5805   -2.7478    1.8242 O   0  0  0  0  0  0  0  0  0  0  0  0
   -2.2045   -1.1637    0.3562 N   0  0  0  0  0  0  0  0  0  0  0  0
   -2.9595   -0.7907   -0.2008 H   0  0  0  0  0  0  0  0  0  0  0  0
   -0.9485   -0.4087    0.3482 C   0  0  1  0  0  0  0  0  0  0  0  0
   -0.3666   -0.6914    1.2269 H   0  0  0  0  0  0  0  0  0  0  0  0
   -0.1405   -0.7797   -0.9072 C   0  0  0  0  0  0  0  0  0  0  0  0
    0.0320    0.1213   -1.4976 H   0  0  0  0  0  0  0  0  0  0  0  0
    0.8343   -1.1618   -0.6003 H   0  0  0  0  0  0  0  0  0  0  0  0
   -0.8213   -1.8019   -1.7973 C   0  0  0  0  0  0  0  0  0  0  0  0
   -0.3745   -3.1367   -1.8217 C   0  0  0  0  0  0  0  0  0  0  0  0
    0.4731   -3.4363   -1.2217 H   0  0  0  0  0  0  0  0  0  0  0  0
   -1.0371   -4.0884   -2.6187 C   0  0  0  0  0  0  0  0  0  0  0  0
   -0.6908   -5.1122   -2.6380 H   0  0  0  0  0  0  0  0  0  0  0  0
   -2.1479   -3.7080   -3.3907 C   0  0  0  0  0  0  0  0  0  0  0  0
   -2.6555   -4.4387   -4.0048 H   0  0  0  0  0  0  0  0  0  0  0  0
   -2.5961   -2.3747   -3.3698 C   0  0  0  0  0  0  0  0  0  0  0  0
   -3.4466   -2.0810   -3.9673 H   0  0  0  0  0  0  0  0  0  0  0  0
   -1.9317   -1.4231   -2.5758 C   0  0  0  0  0  0  0  0  0  0  0  0
   -2.2754   -0.3970   -2.5631 H   0  0  0  0  0  0  0  0  0  0  0  0
   -1.2168    1.1047    0.4313 C   0  0  0  0  0  0  0  0  0  0  0  0
   -2.0890    1.6186   -0.2704 O   0  0  0  0  0  0  0  0  0  0  0  0
   -0.4674    1.8182    1.2813 N   0  0  0  0  0  0  0  0  0  0  0  0
    0.2640    1.3348    1.7800 H   0  0  0  0  0  0  0  0  0  0  0  0
   -0.5889    3.2615    1.4722 C   0  0  0  0  0  0  0  0  0  0  0  0
   -1.6291    3.5206    1.6805 H   0  0  0  0  0  0  0  0  0  0  0  0
    0.0359    3.5855    2.3049 H   0  0  0  0  0  0  0  0  0  0  0  0
   -0.2760    3.7797    0.5637 H   0  0  0  0  0  0  0  0  0  0  0  0
  5  6  2  0  0  0  0
  5  7  1  0  0  0  0
  2  3  1  0  0  0  0
  2  4  1  0  0  0  0
  2  5  1  0  0  0  0
  1  2  1  0  0  0  0
 25 26  2  0  0  0  0
 25 27  1  0  0  0  0
 23 24  1  0  0  0  0
 21 22  1  0  0  0  0
 21 23  2  0  0  0  0
 19 20  1  0  0  0  0
 19 21  1  0  0  0  0
 17 18  1  0  0  0  0
 17 19  2  0  0  0  0
 15 16  1  0  0  0  0
 15 17  1  0  0  0  0
 14 15  2  0  0  0  0
 14 23  1  0  0  0  0
 11 12  1  0  0  0  0
 11 13  1  0  0  0  0
 11 14  1  0  0  0  0
  9 10  1  0  0  0  0
  9 11  1  0  0  0  0
  9 25  1  0  0  0  0
  7  8  1  0  0  0  0
  7  9  1  0  0  0  0
 29 30  1  0  0  0  0
 29 31  1  0  0  0  0
 29 32  1  0  0  0  0
 27 28  1  0  0  0  0
 27 29  1  0  0  0  0
M  END
$$$$
default_name
  -OEChem-02102213163D

 32 32  0     1  0  0  0  0  0999 V2000
   -3.8405   -3.7518    1.6252 H   0  0  0  0  0  0  0  0  0  0  0  0
   -3.7965   -2.8768    0.9782 C   0  0  0  0  0  0  0  0  0  0  0  0
   -4.5465   -2.1527    1.2902 H   0  0  0  0  0  0  0  0  0  0  0  0
   -3.9745   -3.1748   -0.0538 H   0  0  0  0  0  0  0  0  0  0  0  0
   -2.4245   -2.2537    1.0882 C   0  0  0  0  0  0  0  0  0  0  0  0
   -1.5805   -2.7478    1.8242 O   0  0  0  0  0  0  0  0  0  0  0  0
   -2.2045   -1.1637    0.3562 N   0  0  0  0  0  0  0  0  0  0  0  0
   -2.9595   -0.7907   -0.2008 H   0  0  0  0  0  0  0  0  0  0  0  0
   -0.9485   -0.4087    0.3482 C   0  0  1  0  0  0  0  0  0  0  0  0
   -0.3666   -0.6914    1.2269 H   0  0  0  0  0  0  0  0  0  0  0  0
   -0.1405   -0.7797   -0.9072 C   0  0  0  0  0  0  0  0  0  0  0  0
    0.0320    0.1213   -1.4976 H   0  0  0  0  0  0  0  0  0  0  0  0
    0.8343   -1.1618   -0.6003 H   0  0  0  0  0  0  0  0  0  0  0  0
   -0.8213   -1.8019   -1.7973 C   0  0  0  0  0  0  0  0  0  0  0  0
   -0.5991   -3.1783   -1.6022 C   0  0  0  0  0  0  0  0  0  0  0  0
    0.0775   -3.5146   -0.8293 H   0  0  0  0  0  0  0  0  0  0  0  0
   -1.2662   -4.1218   -2.4051 C   0  0  0  0  0  0  0  0  0  0  0  0
   -1.0922   -5.1781   -2.2553 H   0  0  0  0  0  0  0  0  0  0  0  0
   -2.1574   -3.6913   -3.4027 C   0  0  0  0  0  0  0  0  0  0  0  0
   -2.6681   -4.4161   -4.0211 H   0  0  0  0  0  0  0  0  0  0  0  0
   -2.3806   -2.3166   -3.6013 C   0  0  0  0  0  0  0  0  0  0  0  0
   -3.0615   -1.9854   -4.3716 H   0  0  0  0  0  0  0  0  0  0  0  0
   -1.7113   -1.3739   -2.8009 C   0  0  0  0  0  0  0  0  0  0  0  0
   -1.8813   -0.3165   -2.9570 H   0  0  0  0  0  0  0  0  0  0  0  0
   -1.2168    1.1047    0.4313 C   0  0  0  0  0  0  0  0  0  0  0  0
   -2.0890    1.6186   -0.2704 O   0  0  0  0  0  0  0  0  0  0  0  0
   -0.4674    1.8182    1.2813 N   0  0  0  0  0  0  0  0  0  0  0  0
    0.2640    1.3348    1.7800 H   0  0  0  0  0  0  0  0  0  0  0  0
   -0.5889    3.2615    1.4722 C   0  0  0  0  0  0  0  0  0  0  0  0
   -1.6291    3.5206    1.6805 H   0  0  0  0  0  0  0  0  0  0  0  0
    0.0359    3.5855    2.3049 H   0  0  0  0  0  0  0  0  0  0  0  0
   -0.2760    3.7797    0.5637 H   0  0  0  0  0  0  0  0  0  0  0  0
  5  6  2  0  0  0  0
  5  7  1  0  0  0  0
  2  3  1  0  0  0  0
  2  4  1  0  0  0  0
  2  5  1  0  0  0  0
  1  2  1  0  0  0  0
 25 26  2  0  0  0  0
 25 27  1  0  0  0  0
 23 24  1  0  0  0  0
 21 22  1  0  0  0  0
 21 23  2  0  0  0  0
 19 20  1  0  0  0  0
 19 21  1  0  0  0  0
 17 18  1  0  0  0  0
 17 19  2  0  0  0  0
 15 16  1  0  0  0  0
 15 17  1  0  0  0  0
 14 15  2  0  0  0  0
 14 23  1  0  0  0  0
 11 12  1  0  0  0  0
 11 13  1  0  0  0  0
 11 14  1  0  0  0  0
  9 10  1  0  0  0  0
  9 11  1  0  0  0  0
  9 25  1  0  0  0  0
  7  8  1  0  0  0  0
  7  9  1  0  0  0  0
 29 30  1  0  0  0  0
 29 31  1  0  0  0  0
 29 32  1  0  0  0  0
 27 28  1  0  0  0  0
 27 29  1  0  0  0  0
M  END
$$$$
default_name
  -OEChem-02102213163D

 32 32  0     1  0  0  0  0  0999 V2000
   -3.8405   -3.7518    1.6252 H   0  0  0  0  0  0  0  0  0  0  0  0
   -3.7965   -2.8768    0.9782 C   0  0  0  0  0  0  0  0  0  0  0  0
   -4.5465   -2.1527    1.2902 H   0  0  0  0  0  0  0  0  0  0  0  0
   -3.9745   -3.1748   -0.0538 H   0  0  0  0  0  0  0  0  0  0  0  0
   -2.4245   -2.2537    1.0882 C   0  0  0  0  0  0  0  0  0  0  0  0
   -1.5805   -2.7478    1.8242 O   0  0  0  0  0  0  0  0  0  0  0  0
   -2.2045   -1.1637    0.3562 N   0  0  0  0  0  0  0  0  0  0  0  0
   -2.9595   -0.7907   -0.2008 H   0  0  0  0  0  0  0  0  0  0  0  0
   -0.9485   -0.4087    0.3482 C   0  0  1  0  0  0  0  0  0  0  0  0
   -0.3666   -0.6914    1.2269 H   0  0  0  0  0  0  0  0  0  0  0  0
   -0.1405   -0.7797   -0.9072 C   0  0  0  0  0  0  0  0  0  0  0  0
    0.0320    0.1213   -1.4976 H   0  0  0  0  0  0  0  0  0  0  0  0
    0.8343   -1.1618   -0.6003 H   0  0  0  0  0  0  0  0  0  0  0  0
   -0.8213   -1.8019   -1.7973 C   0  0  0  0  0  0  0  0  0  0  0  0
   -0.8607   -3.1588   -1.4244 C   0  0  0  0  0  0  0  0  0  0  0  0
   -0.3849   -3.4845   -0.5102 H   0  0  0  0  0  0  0  0  0  0  0  0
   -1.5298   -4.0944   -2.2349 C   0  0  0  0  0  0  0  0  0  0  0  0
   -1.5567   -5.1363   -1.9480 H   0  0  0  0  0  0  0  0  0  0  0  0
   -2.1619   -3.6751   -3.4178 C   0  0  0  0  0  0  0  0  0  0  0  0
   -2.6740   -4.3943   -4.0416 H   0  0  0  0  0  0  0  0  0  0  0  0
   -2.1232   -2.3201   -3.7941 C   0  0  0  0  0  0  0  0  0  0  0  0
   -2.6044   -1.9986   -4.7061 H   0  0  0  0  0  0  0  0  0  0  0  0
   -1.4516   -1.3859   -2.9857 C   0  0  0  0  0  0  0  0  0  0  0  0
   -1.4197   -0.3444   -3.2780 H   0  0  0  0  0  0  0  0  0  0  0  0
   -1.2168    1.1047    0.4313 C   0  0  0  0  0  0  0  0  0  0  0  0
   -2.0890    1.6186   -0.2704 O   0  0  0  0  0  0  0  0  0  0  0  0
   -0.4674    1.8182    1.2813 N   0  0  0  0  0  0  0  0  0  0  0  0
    0.2640    1.3348    1.7800 H   0  0  0  0  0  0  0  0  0  0  0  0
   -0.5889    3.2615    1.4722 C   0  0  0  0  0  0  0  0  0  0  0  0
   -1.6291    3.5206    1.6805 H   0  0  0  0  0  0  0  0  0  0  0  0
    0.0359    3.5855    2.3049 H   0  0  0  0  0  0  0  0  0  0  0  0
   -0.2760    3.7797    0.5637 H   0  0  0  0  0  0  0  0  0  0  0  0
  5  6  2  0  0  0  0
  5  7  1  0  0  0  0
  2  3  1  0  0  0  0
  2  4  1  0  0  0  0
  2  5  1  0  0  0  0
  1  2  1  0  0  0  0
 25 26  2  0  0  0  0
 25 27  1  0  0  0  0
 23 24  1  0  0  0  0
 21 22  1  0  0  0  0
 21 23  2  0  0  0  0
 19 20  1  0  0  0  0
 19 21  1  0  0  0  0
 17 18  1  0  0  0  0
 17 19  2  0  0  0  0
 15 16  1  0  0  0  0
 15 17  1  0  0  0  0
 14 15  2  0  0  0  0
 14 23  1  0  0  0  0
 11 12  1  0  0  0  0
 11 13  1  0  0  0  0
 11 14  1  0  0  0  0
  9 10  1  0  0  0  0
  9 11  1  0  0  0  0
  9 25  1  0  0  0  0
  7  8  1  0  0  0  0
  7  9  1  0  0  0  0
 29 30  1  0  0  0  0
 29 31  1  0  0  0  0
 29 32  1  0  0  0  0
 27 28  1  0  0  0  0
 27 29  1  0  0  0  0
M  END
$$$$
default_name
  -OEChem-02102213163D

 32 32  0     1  0  0  0  0  0999 V2000
   -3.8405   -3.7518    1.6252 H   0  0  0  0  0  0  0  0  0  0  0  0
   -3.7965   -2.8768    0.9782 C   0  0  0  0  0  0  0  0  0  0  0  0
   -4.5465   -2.1527    1.2902 H   0  0  0  0  0  0  0  0  0  0  0  0
   -3.9745   -3.1748   -0.0538 H   0  0  0  0  0  0  0  0  0  0  0  0
   -2.4245   -2.2537    1.0882 C   0  0  0  0  0  0  0  0  0  0  0  0
   -1.5805   -2.7478    1.8242 O   0  0  0  0  0  0  0  0  0  0  0  0
   -2.2045   -1.1637    0.3562 N   0  0  0  0  0  0  0  0  0  0  0  0
   -2.9595   -0.7907   -0.2008 H   0  0  0  0  0  0  0  0  0  0  0  0
   -0.9485   -0.4087    0.3482 C   0  0  1  0  0  0  0  0  0  0  0  0
   -0.3666   -0.6914    1.2269 H   0  0  0  0  0  0  0  0  0  0  0  0
   -0.1405   -0.7797   -0.9072 C   0  0  0  0  0  0  0  0  0  0  0  0
    0.0320    0.1213   -1.4976 H   0  0  0  0  0  0  0  0  0  0  0  0
    0.8343   -1.1618   -0.6003 H   0  0  0  0  0  0  0  0  0  0  0  0
   -0.8213   -1.8019   -1.7973 C   0  0  0  0  0  0  0  0  0  0  0  0
   -1.1414   -3.0797   -1.3006 C   0  0  0  0  0  0  0  0  0  0  0  0
   -0.8826   -3.3481   -0.2861 H   0  0  0  0  0  0  0  0  0  0  0  0
   -1.8100   -4.0082   -2.1196 C   0  0  0  0  0  0  0  0  0  0  0  0
   -2.0526   -4.9897   -1.7371 H   0  0  0  0  0  0  0  0  0  0  0  0
   -2.1612   -3.6605   -3.4351 C   0  0  0  0  0  0  0  0  0  0  0  0
   -2.6728   -4.3748   -4.0650 H   0  0  0  0  0  0  0  0  0  0  0  0
   -1.8415   -2.3851   -3.9350 C   0  0  0  0  0  0  0  0  0  0  0  0
   -2.1065   -2.1196   -4.9479 H   0  0  0  0  0  0  0  0  0  0  0  0
   -1.1704   -1.4585   -3.1174 C   0  0  0  0  0  0  0  0  0  0  0  0
   -0.9220   -0.4787   -3.5043 H   0  0  0  0  0  0  0  0  0  0  0  0
   -1.2168    1.1047    0.4313 C   0  0  0  0  0  0  0  0  0  0  0  0
   -2.0890    1.6186   -0.2704 O   0  0  0  0  0  0  0  0  0  0  0  0
   -0.4674    1.8182    1.2813 N   0  0  0  0  0  0  0  0  0  0  0  0
    0.2640    1.3348    1.7800 H   0  0  0  0  0  0  0  0  0  0  0  0
   -0.5889    3.2615    1.4722 C   0  0  0  0  0  0  0  0  0  0  0  0
   -1.6291    3.5206    1.6805 H   0  0  0  0  0  0  0  0  0  0  0  0
    0.0359    3.5855    2.3049 H   0  0  0  0  0  0  0  0  0  0  0  0
   -0.2760    3.7797    0.5637 H   0  0  0  0  0  0  0  0  0  0  0  0
  5  6  2  0  0  0  0
  5  7  1  0  0  0  0
  2  3  1  0  0  0  0
  2  4  1  0  0  0  0
  2  5  1  0  0  0  0
  1  2  1  0  0  0  0
 25 26  2  0  0  0  0
 25 27  1  0  0  0  0
 23 24  1  0  0  0  0
 21 22  1  0  0  0  0
 21 23  2  0  0  0  0
 19 20  1  0  0  0  0
 19 21  1  0  0  0  0
 17 18  1  0  0  0  0
 17 19  2  0  0  0  0
 15 16  1  0  0  0  0
 15 17  1  0  0  0  0
 14 15  2  0  0  0  0
 14 23  1  0  0  0  0
 11 12  1  0  0  0  0
 11 13  1  0  0  0  0
 11 14  1  0  0  0  0
  9 10  1  0  0  0  0
  9 11  1  0  0  0  0
  9 25  1  0  0  0  0
  7  8  1  0  0  0  0
  7  9  1  0  0  0  0
 29 30  1  0  0  0  0
 29 31  1  0  0  0  0
 29 32  1  0  0  0  0
 27 28  1  0  0  0  0
 27 29  1  0  0  0  0
M  END
$$$$
default_name
  -OEChem-02102213163D

 32 32  0     1  0  0  0  0  0999 V2000
   -3.8405   -3.7518    1.6252 H   0  0  0  0  0  0  0  0  0  0  0  0
   -3.7965   -2.8768    0.9782 C   0  0  0  0  0  0  0  0  0  0  0  0
   -4.5465   -2.1527    1.2902 H   0  0  0  0  0  0  0  0  0  0  0  0
   -3.9745   -3.1748   -0.0538 H   0  0  0  0  0  0  0  0  0  0  0  0
   -2.4245   -2.2537    1.0882 C   0  0  0  0  0  0  0  0  0  0  0  0
   -1.5805   -2.7478    1.8242 O   0  0  0  0  0  0  0  0  0  0  0  0
   -2.2045   -1.1637    0.3562 N   0  0  0  0  0  0  0  0  0  0  0  0
   -2.9595   -0.7907   -0.2008 H   0  0  0  0  0  0  0  0  0  0  0  0
   -0.9485   -0.4087    0.3482 C   0  0  1  0  0  0  0  0  0  0  0  0
   -0.3666   -0.6914    1.2269 H   0  0  0  0  0  0  0  0  0  0  0  0
   -0.1405   -0.7797   -0.9072 C   0  0  0  0  0  0  0  0  0  0  0  0
    0.0320    0.1213   -1.4976 H   0  0  0  0  0  0  0  0  0  0  0  0
    0.8343   -1.1618   -0.6003 H   0  0  0  0  0  0  0  0  0  0  0  0
   -0.8213   -1.8019   -1.7973 C   0  0  0  0  0  0  0  0  0  0  0  0
   -1.4222   -2.9462   -1.2392 C   0  0  0  0  0  0  0  0  0  0  0  0
   -1.3818   -3.1148   -0.1723 H   0  0  0  0  0  0  0  0  0  0  0  0
   -2.0877   -3.8690   -2.0672 C   0  0  0  0  0  0  0  0  0  0  0  0
   -2.5461   -4.7483   -1.6369 H   0  0  0  0  0  0  0  0  0  0  0  0
   -2.1553   -3.6486   -3.4533 C   0  0  0  0  0  0  0  0  0  0  0  0
   -2.6645   -4.3588   -4.0897 H   0  0  0  0  0  0  0  0  0  0  0  0
   -1.5547   -2.5069   -4.0145 C   0  0  0  0  0  0  0  0  0  0  0  0
   -1.6019   -2.3401   -5.0806 H   0  0  0  0  0  0  0  0  0  0  0  0
   -0.8868   -1.5866   -3.1872 C   0  0  0  0  0  0  0  0  0  0  0  0
   -0.4223   -0.7104   -3.6205 H   0  0  0  0  0  0  0  0  0  0  0  0
   -1.2168    1.1047    0.4313 C   0  0  0  0  0  0  0  0  0  0  0  0
   -2.0890    1.6186   -0.2704 O   0  0  0  0  0  0  0  0  0  0  0  0
   -0.4674    1.8182    1.2813 N   0  0  0  0  0  0  0  0  0  0  0  0
    0.2640    1.3348    1.7800 H   0  0  0  0  0  0  0  0  0  0  0  0
   -0.5889    3.2615    1.4722 C   0  0  0  0  0  0  0  0  0  0  0  0
   -1.6291    3.5206    1.6805 H   0  0  0  0  0  0  0  0  0  0  0  0
    0.0359    3.5855    2.3049 H   0  0  0  0  0  0  0  0  0  0  0  0
   -0.2760    3.7797    0.5637 H   0  0  0  0  0  0  0  0  0  0  0  0
  5  6  2  0  0  0  0
  5  7  1  0  0  0  0
  2  3  1  0  0  0  0
  2  4  1  0  0  0  0
  2  5  1  0  0  0  0
  1  2  1  0  0  0  0
 25 26  2  0  0  0  0
 25 27  1  0  0  0  0
 23 24  1  0  0  0  0
 21 22  1  0  0  0  0
 21 23  2  0  0  0  0
 19 20  1  0  0  0  0
 19 21  1  0  0  0  0
 17 18  1  0  0  0  0
 17 19  2  0  0  0  0
 15 16  1  0  0  0  0
 15 17  1  0  0  0  0
 14 15  2  0  0  0  0
 14 23  1  0  0  0  0
 11 12  1  0  0  0  0
 11 13  1  0  0  0  0
 11 14  1  0  0  0  0
  9 10  1  0  0  0  0
  9 11  1  0  0  0  0
  9 25  1  0  0  0  0
  7  8  1  0  0  0  0
  7  9  1  0  0  0  0
 29 30  1  0  0  0  0
 29 31  1  0  0  0  0
 29 32  1  0  0  0  0
 27 28  1  0  0  0  0
 27 29  1  0  0  0  0
M  END
$$$$
default_name
  -OEChem-02102213163D

 32 32  0     1  0  0  0  0  0999 V2000
   -3.8405   -3.7518    1.6252 H   0  0  0  0  0  0  0  0  0  0  0  0
   -3.7965   -2.8768    0.9782 C   0  0  0  0  0  0  0  0  0  0  0  0
   -4.5465   -2.1527    1.2902 H   0  0  0  0  0  0  0  0  0  0  0  0
   -3.9745   -3.1748   -0.0538 H   0  0  0  0  0  0  0  0  0  0  0  0
   -2.4245   -2.2537    1.0882 C   0  0  0  0  0  0  0  0  0  0  0  0
   -1.5805   -2.7478    1.8242 O   0  0  0  0  0  0  0  0  0  0  0  0
   -2.2045   -1.1637    0.3562 N   0  0  0  0  0  0  0  0  0  0  0  0
   -2.9595   -0.7907   -0.2008 H   0  0  0  0  0  0  0  0  0  0  0  0
   -0.9485   -0.4087    0.3482 C   0  0  1  0  0  0  0  0  0  0  0  0
   -0.3666   -0.6914    1.2269 H   0  0  0  0  0  0  0  0  0  0  0  0
   -0.1405   -0.7797   -0.9072 C   0  0  0  0  0  0  0  0  0  0  0  0
    0.0320    0.1213   -1.4976 H   0  0  0  0  0  0  0  0  0  0  0  0
    0.8343   -1.1618   -0.6003 H   0  0  0  0  0  0  0  0  0  0  0  0
   -0.8213   -1.8019   -1.7973 C   0  0  0  0  0  0  0  0  0  0  0  0
   -1.6838   -2.7675   -1.2444 C   0  0  0  0  0  0  0  0  0  0  0  0
   -1.8483   -2.8003   -0.1766 H   0  0  0  0  0  0  0  0  0  0  0  0
   -2.3438   -3.6862   -2.0811 C   0  0  0  0  0  0  0  0  0  0  0  0
   -3.0036   -4.4285   -1.6542 H   0  0  0  0  0  0  0  0  0  0  0  0
   -2.1445   -3.6400   -3.4713 C   0  0  0  0  0  0  0  0  0  0  0  0
   -2.6499   -4.3474   -4.1139 H   0  0  0  0  0  0  0  0  0  0  0  0
   -1.2823   -2.6774   -4.0270 C   0  0  0  0  0  0  0  0  0  0  0  0
   -1.1247   -2.6453   -5.0951 H   0  0  0  0  0  0  0  0  0  0  0  0
   -0.6202   -1.7615   -3.1903 C   0  0  0  0  0  0  0  0  0  0  0  0
    0.0455   -1.0236   -3.6187 H   0  0  0  0  0  0  0  0  0  0  0  0
   -1.2168    1.1047    0.4313 C   0  0  0  0  0  0  0  0  0  0  0  0
   -2.0890    1.6186   -0.2704 O   0  0  0  0  0  0  0  0  0  0  0  0
   -0.4674    1.8182    1.2813 N   0  0  0  0  0  0  0  0  0  0  0  0
    0.2640    1.3348    1.7800 H   0  0  0  0  0  0  0  0  0  0  0  0
   -0.5889    3.2615    1.4722 C   0  0  0  0  0  0  0  0  0  0  0  0
   -1.6291    3.5206    1.6805 H   0  0  0  0  0  0  0  0  0  0  0  0
    0.0359    3.5855    2.3049 H   0  0  0  0  0  0  0  0  0  0  0  0
   -0.2760    3.7797    0.5637 H   0  0  0  0  0  0  0  0  0  0  0  0
  5  6  2  0  0  0  0
  5  7  1  0  0  0  0
  2  3  1  0  0  0  0
  2  4  1  0  0  0  0
  2  5  1  0  0  0  0
  1  2  1  0  0  0  0
 25 26  2  0  0  0  0
 25 27  1  0  0  0  0
 23 24  1  0  0  0  0
 21 22  1  0  0  0  0
 21 23  2  0  0  0  0
 19 20  1  0  0  0  0
 19 21  1  0  0  0  0
 17 18  1  0  0  0  0
 17 19  2  0  0  0  0
 15 16  1  0  0  0  0
 15 17  1  0  0  0  0
 14 15  2  0  0  0  0
 14 23  1  0  0  0  0
 11 12  1  0  0  0  0
 11 13  1  0  0  0  0
 11 14  1  0  0  0  0
  9 10  1  0  0  0  0
  9 11  1  0  0  0  0
  9 25  1  0  0  0  0
  7  8  1  0  0  0  0
  7  9  1  0  0  0  0
 29 30  1  0  0  0  0
 29 31  1  0  0  0  0
 29 32  1  0  0  0  0
 27 28  1  0  0  0  0
 27 29  1  0  0  0  0
M  END
$$$$
default_name
  -OEChem-02102213163D

 32 32  0     1  0  0  0  0  0999 V2000
   -3.8405   -3.7518    1.6252 H   0  0  0  0  0  0  0  0  0  0  0  0
   -3.7965   -2.8768    0.9782 C   0  0  0  0  0  0  0  0  0  0  0  0
   -4.5465   -2.1527    1.2902 H   0  0  0  0  0  0  0  0  0  0  0  0
   -3.9745   -3.1748   -0.0538 H   0  0  0  0  0  0  0  0  0  0  0  0
   -2.4245   -2.2537    1.0882 C   0  0  0  0  0  0  0  0  0  0  0  0
   -1.5805   -2.7478    1.8242 O   0  0  0  0  0  0  0  0  0  0  0  0
   -2.2045   -1.1637    0.3562 N   0  0  0  0  0  0  0  0  0  0  0  0
   -2.9595   -0.7907   -0.2008 H   0  0  0  0  0  0  0  0  0  0  0  0
   -0.9485   -0.4087    0.3482 C   0  0  1  0  0  0  0  0  0  0  0  0
   -0.3666   -0.6914    1.2269 H   0  0  0  0  0  0  0  0  0  0  0  0
   -0.1405   -0.7797   -0.9072 C   0  0  0  0  0  0  0  0  0  0  0  0
    0.0320    0.1213   -1.4976 H   0  0  0  0  0  0  0  0  0  0  0  0
    0.8343   -1.1618   -0.6003 H   0  0  0  0  0  0  0  0  0  0  0  0
   -0.8213   -1.8019   -1.7973 C   0  0  0  0  0  0  0  0  0  0  0  0
   -1.9084   -2.5557   -1.3157 C   0  0  0  0  0  0  0  0  0  0  0  0
   -2.2504   -2.4262   -0.2986 H   0  0  0  0  0  0  0  0  0  0  0  0
   -2.5611   -3.4724   -2.1605 C   0  0  0  0  0  0  0  0  0  0  0  0
   -3.3939   -4.0521   -1.7879 H   0  0  0  0  0  0  0  0  0  0  0  0
   -2.1297   -3.6355   -3.4878 C   0  0  0  0  0  0  0  0  0  0  0  0
   -2.6297   -4.3415   -4.1361 H   0  0  0  0  0  0  0  0  0  0  0  0
   -1.0429   -2.8849   -3.9718 C   0  0  0  0  0  0  0  0  0  0  0  0
   -0.7077   -3.0142   -4.9905 H   0  0  0  0  0  0  0  0  0  0  0  0
   -0.3887   -1.9713   -3.1264 C   0  0  0  0  0  0  0  0  0  0  0  0
    0.4495   -1.3969   -3.4990 H   0  0  0  0  0  0  0  0  0  0  0  0
   -1.2168    1.1047    0.4313 C   0  0  0  0  0  0  0  0  0  0  0  0
   -2.0890    1.6186   -0.2704 O   0  0  0  0  0  0  0  0  0  0  0  0
   -0.4674    1.8182    1.2813 N   0  0  0  0  0  0  0  0  0  0  0  0
    0.2640    1.3348    1.7800 H   0  0  0  0  0  0  0  0  0  0  0  0
   -0.5889    3.2615    1.4722 C   0  0  0  0  0  0  0  0  0  0  0  0
   -1.6291    3.5206    1.6805 H   0  0  0  0  0  0  0  0  0  0  0  0
    0.0359    3.5855    2.3049 H   0  0  0  0  0  0  0  0  0  0  0  0
   -0.2760    3.7797    0.5637 H   0  0  0  0  0  0  0  0  0  0  0  0
  5  6  2  0  0  0  0
  5  7  1  0  0  0  0
  2  3  1  0  0  0  0
  2  4  1  0  0  0  0
  2  5  1  0  0  0  0
  1  2  1  0  0  0  0
 25 26  2  0  0  0  0
 25 27  1  0  0  0  0
 23 24  1  0  0  0  0
 21 22  1  0  0  0  0
 21 23  2  0  0  0  0
 19 20  1  0  0  0  0
 19 21  1  0  0  0  0
 17 18  1  0  0  0  0
 17 19  2  0  0  0  0
 15 16  1  0  0  0  0
 15 17  1  0  0  0  0
 14 15  2  0  0  0  0
 14 23  1  0  0  0  0
 11 12  1  0  0  0  0
 11 13  1  0  0  0  0
 11 14  1  0  0  0  0
  9 10  1  0  0  0  0
  9 11  1  0  0  0  0
  9 25  1  0  0  0  0
  7  8  1  0  0  0  0
  7  9  1  0  0  0  0
 29 30  1  0  0  0  0
 29 31  1  0  0  0  0
 29 32  1  0  0  0  0
 27 28  1  0  0  0  0
 27 29  1  0  0  0  0
M  END
$$$$
default_name
  -OEChem-02102213163D

 32 32  0     1  0  0  0  0  0999 V2000
   -3.8405   -3.7518    1.6252 H   0  0  0  0  0  0  0  0  0  0  0  0
   -3.7965   -2.8768    0.9782 C   0  0  0  0  0  0  0  0  0  0  0  0
   -4.5465   -2.1527    1.2902 H   0  0  0  0  0  0  0  0  0  0  0  0
   -3.9745   -3.1748   -0.0538 H   0  0  0  0  0  0  0  0  0  0  0  0
   -2.4245   -2.2537    1.0882 C   0  0  0  0  0  0  0  0  0  0  0  0
   -1.5805   -2.7478    1.8242 O   0  0  0  0  0  0  0  0  0  0  0  0
   -2.2045   -1.1637    0.3562 N   0  0  0  0  0  0  0  0  0  0  0  0
   -2.9595   -0.7907   -0.2008 H   0  0  0  0  0  0  0  0  0  0  0  0
   -0.9485   -0.4087    0.3482 C   0  0  1  0  0  0  0  0  0  0  0  0
   -0.3666   -0.6914    1.2269 H   0  0  0  0  0  0  0  0  0  0  0  0
   -0.1405   -0.7797   -0.9072 C   0  0  0  0  0  0  0  0  0  0  0  0
    0.0320    0.1213   -1.4976 H   0  0  0  0  0  0  0  0  0  0  0  0
    0.8343   -1.1618   -0.6003 H   0  0  0  0  0  0  0  0  0  0  0  0
   -0.8213   -1.8019   -1.7973 C   0  0  0  0  0  0  0  0  0  0  0  0
   -2.0808   -2.3253   -1.4484 C   0  0  0  0  0  0  0  0  0  0  0  0
   -2.5608   -2.0180   -0.5300 H   0  0  0  0  0  0  0  0  0  0  0  0
   -2.7246   -3.2421   -2.2999 C   0  0  0  0  0  0  0  0  0  0  0  0
   -3.6905   -3.6447   -2.0288 H   0  0  0  0  0  0  0  0  0  0  0  0
   -2.1119   -3.6353   -3.5017 C   0  0  0  0  0  0  0  0  0  0  0  0
   -2.6055   -4.3414   -4.1547 H   0  0  0  0  0  0  0  0  0  0  0  0
   -0.8527   -3.1153   -3.8527 C   0  0  0  0  0  0  0  0  0  0  0  0
   -0.3792   -3.4217   -4.7738 H   0  0  0  0  0  0  0  0  0  0  0  0
   -0.2080   -2.2017   -3.0000 C   0  0  0  0  0  0  0  0  0  0  0  0
    0.7621   -1.8050   -3.2695 H   0  0  0  0  0  0  0  0  0  0  0  0
   -1.2168    1.1047    0.4313 C   0  0  0  0  0  0  0  0  0  0  0  0
   -2.0890    1.6186   -0.2704 O   0  0  0  0  0  0  0  0  0  0  0  0
   -0.4674    1.8182    1.2813 N   0  0  0  0  0  0  0  0  0  0  0  0
    0.2640    1.3348    1.7800 H   0  0  0  0  0  0  0  0  0  0  0  0
   -0.5889    3.2615    1.4722 C   0  0  0  0  0  0  0  0  0  0  0  0
   -1.6291    3.5206    1.6805 H   0  0  0  0  0  0  0  0  0  0  0  0
    0.0359    3.5855    2.3049 H   0  0  0  0  0  0  0  0  0  0  0  0
   -0.2760    3.7797    0.5637 H   0  0  0  0  0  0  0  0  0  0  0  0
  5  6  2  0  0  0  0
  5  7  1  0  0  0  0
  2  3  1  0  0  0  0
  2  4  1  0  0  0  0
  2  5  1  0  0  0  0
  1  2  1  0  0  0  0
 25 26  2  0  0  0  0
 25 27  1  0  0  0  0
 23 24  1  0  0  0  0
 21 22  1  0  0  0  0
 21 23  2  0  0  0  0
 19 20  1  0  0  0  0
 19 21  1  0  0  0  0
 17 18  1  0  0  0  0
 17 19  2  0  0  0  0
 15 16  1  0  0  0  0
 15 17  1  0  0  0  0
 14 15  2  0  0  0  0
 14 23  1  0  0  0  0
 11 12  1  0  0  0  0
 11 13  1  0  0  0  0
 11 14  1  0  0  0  0
  9 10  1  0  0  0  0
  9 11  1  0  0  0  0
  9 25  1  0  0  0  0
  7  8  1  0  0  0  0
  7  9  1  0  0  0  0
 29 30  1  0  0  0  0
 29 31  1  0  0  0  0
 29 32  1  0  0  0  0
 27 28  1  0  0  0  0
 27 29  1  0  0  0  0
M  END
$$$$
default_name
  -OEChem-02102213163D

 32 32  0     1  0  0  0  0  0999 V2000
   -3.8405   -3.7518    1.6252 H   0  0  0  0  0  0  0  0  0  0  0  0
   -3.7965   -2.8768    0.9782 C   0  0  0  0  0  0  0  0  0  0  0  0
   -4.5465   -2.1527    1.2902 H   0  0  0  0  0  0  0  0  0  0  0  0
   -3.9745   -3.1748   -0.0538 H   0  0  0  0  0  0  0  0  0  0  0  0
   -2.4245   -2.2537    1.0882 C   0  0  0  0  0  0  0  0  0  0  0  0
   -1.5805   -2.7478    1.8242 O   0  0  0  0  0  0  0  0  0  0  0  0
   -2.2045   -1.1637    0.3562 N   0  0  0  0  0  0  0  0  0  0  0  0
   -2.9595   -0.7907   -0.2008 H   0  0  0  0  0  0  0  0  0  0  0  0
   -0.9485   -0.4087    0.3482 C   0  0  1  0  0  0  0  0  0  0  0  0
   -0.3666   -0.6914    1.2269 H   0  0  0  0  0  0  0  0  0  0  0  0
   -0.1405   -0.7797   -0.9072 C   0  0  0  0  0  0  0  0  0  0  0  0
    0.0320    0.1213   -1.4976 H   0  0  0  0  0  0  0  0  0  0  0  0
    0.8343   -1.1618   -0.6003 H   0  0  0  0  0  0  0  0  0  0  0  0
   -0.8213   -1.8019   -1.7973 C   0  0  0  0  0  0  0  0  0  0  0  0
   -2.1891   -2.0921   -1.6334 C   0  0  0  0  0  0  0  0  0  0  0  0
   -2.7582   -1.6034   -0.8552 H   0  0  0  0  0  0  0  0  0  0  0  0
   -2.8233   -3.0109   -2.4898 C   0  0  0  0  0  0  0  0  0  0  0  0
   -3.8731   -3.2342   -2.3605 H   0  0  0  0  0  0  0  0  0  0  0  0
   -2.0922   -3.6395   -3.5120 C   0  0  0  0  0  0  0  0  0  0  0  0
   -2.5789   -4.3472   -4.1684 H   0  0  0  0  0  0  0  0  0  0  0  0
   -0.7249   -3.3529   -3.6776 C   0  0  0  0  0  0  0  0  0  0  0  0
   -0.1615   -3.8401   -4.4599 H   0  0  0  0  0  0  0  0  0  0  0  0
   -0.0906   -2.4371   -2.8196 C   0  0  0  0  0  0  0  0  0  0  0  0
    0.9621   -2.2200   -2.9459 H   0  0  0  0  0  0  0  0  0  0  0  0
   -1.2168    1.1047    0.4313 C   0  0  0  0  0  0  0  0  0  0  0  0
   -2.0890    1.6186   -0.2704 O   0  0  0  0  0  0  0  0  0  0  0  0
   -0.4674    1.8182    1.2813 N   0  0  0  0  0  0  0  0  0  0  0  0
    0.2640    1.3348    1.7800 H   0  0  0  0  0  0  0  0  0  0  0  0
   -0.5889    3.2615    1.4722 C   0  0  0  0  0  0  0  0  0  0  0  0
   -1.6291    3.5206    1.6805 H   0  0  0  0  0  0  0  0  0  0  0  0
    0.0359    3.5855    2.3049 H   0  0  0  0  0  0  0  0  0  0  0  0
   -0.2760    3.7797    0.5637 H   0  0  0  0  0  0  0  0  0  0  0  0
  5  6  2  0  0  0  0
  5  7  1  0  0  0  0
  2  3  1  0  0  0  0
  2  4  1  0  0  0  0
  2  5  1  0  0  0  0
  1  2  1  0  0  0  0
 25 26  2  0  0  0  0
 25 27  1  0  0  0  0
 23 24  1  0  0  0  0
 21 22  1  0  0  0  0
 21 23  2  0  0  0  0
 19 20  1  0  0  0  0
 19 21  1  0  0  0  0
 17 18  1  0  0  0  0
 17 19  2  0  0  0  0
 15 16  1  0  0  0  0
 15 17  1  0  0  0  0
 14 15  2  0  0  0  0
 14 23  1  0  0  0  0
 11 12  1  0  0  0  0
 11 13  1  0  0  0  0
 11 14  1  0  0  0  0
  9 10  1  0  0  0  0
  9 11  1  0  0  0  0
  9 25  1  0  0  0  0
  7  8  1  0  0  0  0
  7  9  1  0  0  0  0
 29 30  1  0  0  0  0
 29 31  1  0  0  0  0
 29 32  1  0  0  0  0
 27 28  1  0  0  0  0
 27 29  1  0  0  0  0
M  END
$$$$
default_name
  -OEChem-02102213163D

 32 32  0     1  0  0  0  0  0999 V2000
   -3.8405   -3.7518    1.6252 H   0  0  0  0  0  0  0  0  0  0  0  0
   -3.7965   -2.8768    0.9782 C   0  0  0  0  0  0  0  0  0  0  0  0
   -4.5465   -2.1527    1.2902 H   0  0  0  0  0  0  0  0  0  0  0  0
   -3.9745   -3.1748   -0.0538 H   0  0  0  0  0  0  0  0  0  0  0  0
   -2.4245   -2.2537    1.0882 C   0  0  0  0  0  0  0  0  0  0  0  0
   -1.5805   -2.7478    1.8242 O   0  0  0  0  0  0  0  0  0  0  0  0
   -2.2045   -1.1637    0.3562 N   0  0  0  0  0  0  0  0  0  0  0  0
   -2.9595   -0.7907   -0.2008 H   0  0  0  0  0  0  0  0  0  0  0  0
   -0.9485   -0.4087    0.3482 C   0  0  1  0  0  0  0  0  0  0  0  0
   -0.3666   -0.6914    1.2269 H   0  0  0  0  0  0  0  0  0  0  0  0
   -0.1405   -0.7797   -0.9072 C   0  0  0  0  0  0  0  0  0  0  0  0
    0.0320    0.1213   -1.4976 H   0  0  0  0  0  0  0  0  0  0  0  0
    0.8343   -1.1618   -0.6003 H   0  0  0  0  0  0  0  0  0  0  0  0
   -0.8213   -1.8019   -1.7973 C   0  0  0  0  0  0  0  0  0  0  0  0
   -2.2261   -1.8717   -1.8581 C   0  0  0  0  0  0  0  0  0  0  0  0
   -2.8291   -1.2107   -1.2518 H   0  0  0  0  0  0  0  0  0  0  0  0
   -2.8504   -2.7948   -2.7173 C   0  0  0  0  0  0  0  0  0  0  0  0
   -3.9292   -2.8485   -2.7605 H   0  0  0  0  0  0  0  0  0  0  0  0
   -2.0720   -3.6477   -3.5181 C   0  0  0  0  0  0  0  0  0  0  0  0
   -2.5517   -4.3584   -4.1764 H   0  0  0  0  0  0  0  0  0  0  0  0
   -0.6680   -3.5815   -3.4587 C   0  0  0  0  0  0  0  0  0  0  0  0
   -0.0695   -4.2408   -4.0701 H   0  0  0  0  0  0  0  0  0  0  0  0
   -0.0444   -2.6612   -2.5975 C   0  0  0  0  0  0  0  0  0  0  0  0
    1.0358   -2.6136   -2.5502 H   0  0  0  0  0  0  0  0  0  0  0  0
   -1.2168    1.1047    0.4313 C   0  0  0  0  0  0  0  0  0  0  0  0
   -2.0890    1.6186   -0.2704 O   0  0  0  0  0  0  0  0  0  0  0  0
   -0.4674    1.8182    1.2813 N   0  0  0  0  0  0  0  0  0  0  0  0
    0.2640    1.3348    1.7800 H   0  0  0  0  0  0  0  0  0  0  0  0
   -0.5889    3.2615    1.4722 C   0  0  0  0  0  0  0  0  0  0  0  0
   -1.6291    3.5206    1.6805 H   0  0  0  0  0  0  0  0  0  0  0  0
    0.0359    3.5855    2.3049 H   0  0  0  0  0  0  0  0  0  0  0  0
   -0.2760    3.7797    0.5637 H   0  0  0  0  0  0  0  0  0  0  0  0
  5  6  2  0  0  0  0
  5  7  1  0  0  0  0
  2  3  1  0  0  0  0
  2  4  1  0  0  0  0
  2  5  1  0  0  0  0
  1  2  1  0  0  0  0
 25 26  2  0  0  0  0
 25 27  1  0  0  0  0
 23 24  1  0  0  0  0
 21 22  1  0  0  0  0
 21 23  2  0  0  0  0
 19 20  1  0  0  0  0
 19 21  1  0  0  0  0
 17 18  1  0  0  0  0
 17 19  2  0  0  0  0
 15 16  1  0  0  0  0
 15 17  1  0  0  0  0
 14 15  2  0  0  0  0
 14 23  1  0  0  0  0
 11 12  1  0  0  0  0
 11 13  1  0  0  0  0
 11 14  1  0  0  0  0
  9 10  1  0  0  0  0
  9 11  1  0  0  0  0
  9 25  1  0  0  0  0
  7  8  1  0  0  0  0
  7  9  1  0  0  0  0
 29 30  1  0  0  0  0
 29 31  1  0  0  0  0
 29 32  1  0  0  0  0
 27 28  1  0  0  0  0
 27 29  1  0  0  0  0
M  END
$$$$
default_name
  -OEChem-02102213163D

 32 32  0     1  0  0  0  0  0999 V2000
   -3.8405   -3.7518    1.6252 H   0  0  0  0  0  0  0  0  0  0  0  0
   -3.7965   -2.8768    0.9782 C   0  0  0  0  0  0  0  0  0  0  0  0
   -4.5465   -2.1527    1.2902 H   0  0  0  0  0  0  0  0  0  0  0  0
   -3.9745   -3.1748   -0.0538 H   0  0  0  0  0  0  0  0  0  0  0  0
   -2.4245   -2.2537    1.0882 C   0  0  0  0  0  0  0  0  0  0  0  0
   -1.5805   -2.7478    1.8242 O   0  0  0  0  0  0  0  0  0  0  0  0
   -2.2045   -1.1637    0.3562 N   0  0  0  0  0  0  0  0  0  0  0  0
   -2.9595   -0.7907   -0.2008 H   0  0  0  0  0  0  0  0  0  0  0  0
   -0.9485   -0.4087    0.3482 C   0  0  1  0  0  0  0  0  0  0  0  0
   -0.3666   -0.6914    1.2269 H   0  0  0  0  0  0  0  0  0  0  0  0
   -0.1405   -0.7797   -0.9072 C   0  0  0  0  0  0  0  0  0  0  0  0
    0.0320    0.1213   -1.4976 H   0  0  0  0  0  0  0  0  0  0  0  0
    0.8343   -1.1618   -0.6003 H   0  0  0  0  0  0  0  0  0  0  0  0
   -0.8213   -1.8019   -1.7973 C   0  0  0  0  0  0  0  0  0  0  0  0
   -2.1892   -1.6794   -2.1072 C   0  0  0  0  0  0  0  0  0  0  0  0
   -2.7689   -0.8667   -1.6929 H   0  0  0  0  0  0  0  0  0  0  0  0
   -2.8040   -2.6083   -2.9669 C   0  0  0  0  0  0  0  0  0  0  0  0
   -3.8550   -2.5139   -3.2015 H   0  0  0  0  0  0  0  0  0  0  0  0
   -2.0527   -3.6594   -3.5194 C   0  0  0  0  0  0  0  0  0  0  0  0
   -2.5256   -4.3743   -4.1780 H   0  0  0  0  0  0  0  0  0  0  0  0
   -0.6860   -3.7855   -3.2107 C   0  0  0  0  0  0  0  0  0  0  0  0
   -0.1096   -4.5965   -3.6310 H   0  0  0  0  0  0  0  0  0  0  0  0
   -0.0726   -2.8590   -2.3489 C   0  0  0  0  0  0  0  0  0  0  0  0
    0.9781   -2.9591   -2.1095 H   0  0  0  0  0  0  0  0  0  0  0  0
   -1.2168    1.1047    0.4313 C   0  0  0  0  0  0  0  0  0  0  0  0
   -2.0890    1.6186   -0.2704 O   0  0  0  0  0  0  0  0  0  0  0  0
   -0.4674    1.8182    1.2813 N   0  0  0  0  0  0  0  0  0  0  0  0
    0.2640    1.3348    1.7800 H   0  0  0  0  0  0  0  0  0  0  0  0
   -0.5889    3.2615    1.4722 C   0  0  0  0  0  0  0  0  0  0  0  0
   -1.6291    3.5206    1.6805 H   0  0  0  0  0  0  0  0  0  0  0  0
    0.0359    3.5855    2.3049 H   0  0  0  0  0  0  0  0  0  0  0  0
   -0.2760    3.7797    0.5637 H   0  0  0  0  0  0  0  0  0  0  0  0
  5  6  2  0  0  0  0
  5  7  1  0  0  0  0
  2  3  1  0  0  0  0
  2  4  1  0  0  0  0
  2  5  1  0  0  0  0
  1  2  1  0  0  0  0
 25 26  2  0  0  0  0
 25 27  1  0  0  0  0
 23 24  1  0  0  0  0
 21 22  1  0  0  0  0
 21 23  2  0  0  0  0
 19 20  1  0  0  0  0
 19 21  1  0  0  0  0
 17 18  1  0  0  0  0
 17 19  2  0  0  0  0
 15 16  1  0  0  0  0
 15 17  1  0  0  0  0
 14 15  2  0  0  0  0
 14 23  1  0  0  0  0
 11 12  1  0  0  0  0
 11 13  1  0  0  0  0
 11 14  1  0  0  0  0
  9 10  1  0  0  0  0
  9 11  1  0  0  0  0
  9 25  1  0  0  0  0
  7  8  1  0  0  0  0
  7  9  1  0  0  0  0
 29 30  1  0  0  0  0
 29 31  1  0  0  0  0
 29 32  1  0  0  0  0
 27 28  1  0  0  0  0
 27 29  1  0  0  0  0
M  END
$$$$
default_name
  -OEChem-02102213163D

 32 32  0     1  0  0  0  0  0999 V2000
   -3.8405   -3.7518    1.6252 H   0  0  0  0  0  0  0  0  0  0  0  0
   -3.7965   -2.8768    0.9782 C   0  0  0  0  0  0  0  0  0  0  0  0
   -4.5465   -2.1527    1.2902 H   0  0  0  0  0  0  0  0  0  0  0  0
   -3.9745   -3.1748   -0.0538 H   0  0  0  0  0  0  0  0  0  0  0  0
   -2.4245   -2.2537    1.0882 C   0  0  0  0  0  0  0  0  0  0  0  0
   -1.5805   -2.7478    1.8242 O   0  0  0  0  0  0  0  0  0  0  0  0
   -2.2045   -1.1637    0.3562 N   0  0  0  0  0  0  0  0  0  0  0  0
   -2.9595   -0.7907   -0.2008 H   0  0  0  0  0  0  0  0  0  0  0  0
   -0.9485   -0.4087    0.3482 C   0  0  1  0  0  0  0  0  0  0  0  0
   -0.3666   -0.6914    1.2269 H   0  0  0  0  0  0  0  0  0  0  0  0
   -0.1405   -0.7797   -0.9072 C   0  0  0  0  0  0  0  0  0  0  0  0
    0.0320    0.1213   -1.4976 H   0  0  0  0  0  0  0  0  0  0  0  0
    0.8343   -1.1618   -0.6003 H   0  0  0  0  0  0  0  0  0  0  0  0
   -0.8213   -1.8019   -1.7973 C   0  0  0  0  0  0  0  0  0  0  0  0
   -2.0808   -1.5282   -2.3637 C   0  0  0  0  0  0  0  0  0  0  0  0
   -2.5815   -0.5948   -2.1484 H   0  0  0  0  0  0  0  0  0  0  0  0
   -2.6874   -2.4642   -3.2216 C   0  0  0  0  0  0  0  0  0  0  0  0
   -3.6557   -2.2532   -3.6533 H   0  0  0  0  0  0  0  0  0  0  0  0
   -2.0355   -3.6737   -3.5160 C   0  0  0  0  0  0  0  0  0  0  0  0
   -2.5027   -4.3938   -4.1732 H   0  0  0  0  0  0  0  0  0  0  0  0
   -0.7776   -3.9510   -2.9506 C   0  0  0  0  0  0  0  0  0  0  0  0
   -0.2789   -4.8830   -3.1725 H   0  0  0  0  0  0  0  0  0  0  0  0
   -0.1732   -3.0168   -2.0907 C   0  0  0  0  0  0  0  0  0  0  0  0
    0.7931   -3.2328   -1.6537 H   0  0  0  0  0  0  0  0  0  0  0  0
   -1.2168    1.1047    0.4313 C   0  0  0  0  0  0  0  0  0  0  0  0
   -2.0890    1.6186   -0.2704 O   0  0  0  0  0  0  0  0  0  0  0  0
   -0.4674    1.8182    1.2813 N   0  0  0  0  0  0  0  0  0  0  0  0
    0.2640    1.3348    1.7800 H   0  0  0  0  0  0  0  0  0  0  0  0
   -0.5889    3.2615    1.4722 C   0  0  0  0  0  0  0  0  0  0  0  0
   -1.6291    3.5206    1.6805 H   0  0  0  0  0  0  0  0  0  0  0  0
    0.0359    3.5855    2.3049 H   0  0  0  0  0  0  0  0  0  0  0  0
   -0.2760    3.7797    0.5637 H   0  0  0  0  0  0  0  0  0  0  0  0
  5  6  2  0  0  0  0
  5  7  1  0  0  0  0
  2  3  1  0  0  0  0
  2  4  1  0  0  0  0
  2  5  1  0  0  0  0
  1  2  1  0  0  0  0
 25 26  2  0  0  0  0
 25 27  1  0  0  0  0
 23 24  1  0  0  0  0
 21 22  1  0  0  0  0
 21 23  2  0  0  0  0
 19 20  1  0  0  0  0
 19 21  1  0  0  0  0
 17 18  1  0  0  0  0
 17 19  2  0  0  0  0
 15 16  1  0  0  0  0
 15 17  1  0  0  0  0
 14 15  2  0  0  0  0
 14 23  1  0  0  0  0
 11 12  1  0  0  0  0
 11 13  1  0  0  0  0
 11 14  1  0  0  0  0
  9 10  1  0  0  0  0
  9 11  1  0  0  0  0
  9 25  1  0  0  0  0
  7  8  1  0  0  0  0
  7  9  1  0  0  0  0
 29 30  1  0  0  0  0
 29 31  1  0  0  0  0
 29 32  1  0  0  0  0
 27 28  1  0  0  0  0
 27 29  1  0  0  0  0
M  END
$$$$
default_name
  -OEChem-02102213163D

 32 32  0     1  0  0  0  0  0999 V2000
   -3.8405   -3.7518    1.6252 H   0  0  0  0  0  0  0  0  0  0  0  0
   -3.7965   -2.8768    0.9782 C   0  0  0  0  0  0  0  0  0  0  0  0
   -4.5465   -2.1527    1.2902 H   0  0  0  0  0  0  0  0  0  0  0  0
   -3.9745   -3.1748   -0.0538 H   0  0  0  0  0  0  0  0  0  0  0  0
   -2.4245   -2.2537    1.0882 C   0  0  0  0  0  0  0  0  0  0  0  0
   -1.5805   -2.7478    1.8242 O   0  0  0  0  0  0  0  0  0  0  0  0
   -2.2045   -1.1637    0.3562 N   0  0  0  0  0  0  0  0  0  0  0  0
   -2.9595   -0.7907   -0.2008 H   0  0  0  0  0  0  0  0  0  0  0  0
   -0.9485   -0.4087    0.3482 C   0  0  1  0  0  0  0  0  0  0  0  0
   -0.3666   -0.6914    1.2269 H   0  0  0  0  0  0  0  0  0  0  0  0
   -0.1405   -0.7797   -0.9072 C   0  0  0  0  0  0  0  0  0  0  0  0
    0.0320    0.1213   -1.4976 H   0  0  0  0  0  0  0  0  0  0  0  0
    0.8343   -1.1618   -0.6003 H   0  0  0  0  0  0  0  0  0  0  0  0
   -0.8213   -1.8019   -1.7973 C   0  0  0  0  0  0  0  0  0  0  0  0
   -1.9085   -1.4284   -2.6101 C   0  0  0  0  0  0  0  0  0  0  0  0
   -2.2797   -0.4135   -2.5873 H   0  0  0  0  0  0  0  0  0  0  0  0
   -2.5084   -2.3723   -3.4639 C   0  0  0  0  0  0  0  0  0  0  0  0
   -3.3447   -2.0841   -4.0853 H   0  0  0  0  0  0  0  0  0  0  0  0
   -2.0218   -3.6898   -3.5081 C   0  0  0  0  0  0  0  0  0  0  0  0
   -2.4843   -4.4156   -4.1623 H   0  0  0  0  0  0  0  0  0  0  0  0
   -0.9366   -4.0667   -2.6961 C   0  0  0  0  0  0  0  0  0  0  0  0
   -0.5659   -5.0808   -2.7259 H   0  0  0  0  0  0  0  0  0  0  0  0
   -0.3393   -3.1241   -1.8405 C   0  0  0  0  0  0  0  0  0  0  0  0
    0.4933   -3.4161   -1.2139 H   0  0  0  0  0  0  0  0  0  0  0  0
   -1.2168    1.1047    0.4313 C   0  0  0  0  0  0  0  0  0  0  0  0
   -2.0890    1.6186   -0.2704 O   0  0  0  0  0  0  0  0  0  0  0  0
   -0.4674    1.8182    1.2813 N   0  0  0  0  0  0  0  0  0  0  0  0
    0.2640    1.3348    1.7800 H   0  0  0  0  0  0  0  0  0  0  0  0
   -0.5889    3.2615    1.4722 C   0  0  0  0  0  0  0  0  0  0  0  0
   -1.6291    3.5206    1.6805 H   0  0  0  0  0  0  0  0  0  0  0  0
    0.0359    3.5855    2.3049 H   0  0  0  0  0  0  0  0  0  0  0  0
   -0.2760    3.7797    0.5637 H   0  0  0  0  0  0  0  0  0  0  0  0
  5  6  2  0  0  0  0
  5  7  1  0  0  0  0
  2  3  1  0  0  0  0
  2  4  1  0  0  0  0
  2  5  1  0  0  0  0
  1  2  1  0  0  0  0
 25 26  2  0  0  0  0
 25 27  1  0  0  0  0
 23 24  1  0  0  0  0
 21 22  1  0  0  0  0
 21 23  2  0  0  0  0
 19 20  1  0  0  0  0
 19 21  1  0  0  0  0
 17 18  1  0  0  0  0
 17 19  2  0  0  0  0
 15 16  1  0  0  0  0
 15 17  1  0  0  0  0
 14 15  2  0  0  0  0
 14 23  1  0  0  0  0
 11 12  1  0  0  0  0
 11 13  1  0  0  0  0
 11 14  1  0  0  0  0
  9 10  1  0  0  0  0
  9 11  1  0  0  0  0
  9 25  1  0  0  0  0
  7  8  1  0  0  0  0
  7  9  1  0  0  0  0
 29 30  1  0  0  0  0
 29 31  1  0  0  0  0
 29 32  1  0  0  0  0
 27 28  1  0  0  0  0
 27 29  1  0  0  0  0
M  END
$$$$
default_name
  -OEChem-02102213163D

 32 32  0     1  0  0  0  0  0999 V2000
   -3.8405   -3.7518    1.6252 H   0  0  0  0  0  0  0  0  0  0  0  0
   -3.7965   -2.8768    0.9782 C   0  0  0  0  0  0  0  0  0  0  0  0
   -4.5465   -2.1527    1.2902 H   0  0  0  0  0  0  0  0  0  0  0  0
   -3.9745   -3.1748   -0.0538 H   0  0  0  0  0  0  0  0  0  0  0  0
   -2.4245   -2.2537    1.0882 C   0  0  0  0  0  0  0  0  0  0  0  0
   -1.5805   -2.7478    1.8242 O   0  0  0  0  0  0  0  0  0  0  0  0
   -2.2045   -1.1637    0.3562 N   0  0  0  0  0  0  0  0  0  0  0  0
   -2.9595   -0.7907   -0.2008 H   0  0  0  0  0  0  0  0  0  0  0  0
   -0.9485   -0.4087    0.3482 C   0  0  1  0  0  0  0  0  0  0  0  0
   -0.3666   -0.6914    1.2269 H   0  0  0  0  0  0  0  0  0  0  0  0
   -0.1405   -0.7797   -0.9072 C   0  0  0  0  0  0  0  0  0  0  0  0
    0.0320    0.1213   -1.4976 H   0  0  0  0  0  0  0  0  0  0  0  0
    0.8343   -1.1618   -0.6003 H   0  0  0  0  0  0  0  0  0  0  0  0
   -0.8213   -1.8019   -1.7973 C   0  0  0  0  0  0  0  0  0  0  0  0
   -1.6838   -1.3868   -2.8297 C   0  0  0  0  0  0  0  0  0  0  0  0
   -1.8841   -0.3353   -2.9797 H   0  0  0  0  0  0  0  0  0  0  0  0
   -2.2793   -2.3389   -3.6775 C   0  0  0  0  0  0  0  0  0  0  0  0
   -2.9433   -2.0182   -4.4680 H   0  0  0  0  0  0  0  0  0  0  0  0
   -2.0123   -3.7065   -3.4961 C   0  0  0  0  0  0  0  0  0  0  0  0
   -2.4717   -4.4381   -4.1461 H   0  0  0  0  0  0  0  0  0  0  0  0
   -1.1521   -4.1248   -2.4646 C   0  0  0  0  0  0  0  0  0  0  0  0
   -0.9510   -5.1764   -2.3216 H   0  0  0  0  0  0  0  0  0  0  0  0
   -0.5598   -3.1733   -1.6154 C   0  0  0  0  0  0  0  0  0  0  0  0
    0.0992   -3.4966   -0.8200 H   0  0  0  0  0  0  0  0  0  0  0  0
   -1.2168    1.1047    0.4313 C   0  0  0  0  0  0  0  0  0  0  0  0
   -2.0890    1.6186   -0.2704 O   0  0  0  0  0  0  0  0  0  0  0  0
   -0.4674    1.8182    1.2813 N   0  0  0  0  0  0  0  0  0  0  0  0
    0.2640    1.3348    1.7800 H   0  0  0  0  0  0  0  0  0  0  0  0
   -0.5889    3.2615    1.4722 C   0  0  0  0  0  0  0  0  0  0  0  0
   -1.6291    3.5206    1.6805 H   0  0  0  0  0  0  0  0  0  0  0  0
    0.0359    3.5855    2.3049 H   0  0  0  0  0  0  0  0  0  0  0  0
   -0.2760    3.7797    0.5637 H   0  0  0  0  0  0  0  0  0  0  0  0
  5  6  2  0  0  0  0
  5  7  1  0  0  0  0
  2  3  1  0  0  0  0
  2  4  1  0  0  0  0
  2  5  1  0  0  0  0
  1  2  1  0  0  0  0
 25 26  2  0  0  0  0
 25 27  1  0  0  0  0
 23 24  1  0  0  0  0
 21 22  1  0  0  0  0
 21 23  2  0  0  0  0
 19 20  1  0  0  0  0
 19 21  1  0  0  0  0
 17 18  1  0  0  0  0
 17 19  2  0  0  0  0
 15 16  1  0  0  0  0
 15 17  1  0  0  0  0
 14 15  2  0  0  0  0
 14 23  1  0  0  0  0
 11 12  1  0  0  0  0
 11 13  1  0  0  0  0
 11 14  1  0  0  0  0
  9 10  1  0  0  0  0
  9 11  1  0  0  0  0
  9 25  1  0  0  0  0
  7  8  1  0  0  0  0
  7  9  1  0  0  0  0
 29 30  1  0  0  0  0
 29 31  1  0  0  0  0
 29 32  1  0  0  0  0
 27 28  1  0  0  0  0
 27 29  1  0  0  0  0
M  END
$$$$
default_name
  -OEChem-02102213163D

 32 32  0     1  0  0  0  0  0999 V2000
   -3.8405   -3.7518    1.6252 H   0  0  0  0  0  0  0  0  0  0  0  0
   -3.7965   -2.8768    0.9782 C   0  0  0  0  0  0  0  0  0  0  0  0
   -4.5465   -2.1527    1.2902 H   0  0  0  0  0  0  0  0  0  0  0  0
   -3.9745   -3.1748   -0.0538 H   0  0  0  0  0  0  0  0  0  0  0  0
   -2.4245   -2.2537    1.0882 C   0  0  0  0  0  0  0  0  0  0  0  0
   -1.5805   -2.7478    1.8242 O   0  0  0  0  0  0  0  0  0  0  0  0
   -2.2045   -1.1637    0.3562 N   0  0  0  0  0  0  0  0  0  0  0  0
   -2.9595   -0.7907   -0.2008 H   0  0  0  0  0  0  0  0  0  0  0  0
   -0.9485   -0.4087    0.3482 C   0  0  1  0  0  0  0  0  0  0  0  0
   -0.3666   -0.6914    1.2269 H   0  0  0  0  0  0  0  0  0  0  0  0
   -0.1405   -0.7797   -0.9072 C   0  0  0  0  0  0  0  0  0  0  0  0
    0.0320    0.1213   -1.4976 H   0  0  0  0  0  0  0  0  0  0  0  0
    0.8343   -1.1618   -0.6003 H   0  0  0  0  0  0  0  0  0  0  0  0
   -0.8213   -1.8019   -1.7973 C   0  0  0  0  0  0  0  0  0  0  0  0
   -1.4223   -1.4063   -3.0074 C   0  0  0  0  0  0  0  0  0  0  0  0
   -1.4217   -0.3654   -3.2988 H   0  0  0  0  0  0  0  0  0  0  0  0
   -2.0157   -2.3662   -3.8478 C   0  0  0  0  0  0  0  0  0  0  0  0
   -2.4788   -2.0600   -4.7752 H   0  0  0  0  0  0  0  0  0  0  0  0
   -2.0078   -3.7227   -3.4810 C   0  0  0  0  0  0  0  0  0  0  0  0
   -2.4658   -4.4599   -4.1255 H   0  0  0  0  0  0  0  0  0  0  0  0
   -1.4095   -4.1213   -2.2718 C   0  0  0  0  0  0  0  0  0  0  0  0
   -1.4081   -5.1632   -1.9871 H   0  0  0  0  0  0  0  0  0  0  0  0
   -0.8194   -3.1612   -1.4306 C   0  0  0  0  0  0  0  0  0  0  0  0
   -0.3624   -3.4687   -0.4990 H   0  0  0  0  0  0  0  0  0  0  0  0
   -1.2168    1.1047    0.4313 C   0  0  0  0  0  0  0  0  0  0  0  0
   -2.0890    1.6186   -0.2704 O   0  0  0  0  0  0  0  0  0  0  0  0
   -0.4674    1.8182    1.2813 N   0  0  0  0  0  0  0  0  0  0  0  0
    0.2640    1.3348    1.7800 H   0  0  0  0  0  0  0  0  0  0  0  0
   -0.5889    3.2615    1.4722 C   0  0  0  0  0  0  0  0  0  0  0  0
   -1.6291    3.5206    1.6805 H   0  0  0  0  0  0  0  0  0  0  0  0
    0.0359    3.5855    2.3049 H   0  0  0  0  0  0  0  0  0  0  0  0
   -0.2760    3.7797    0.5637 H   0  0  0  0  0  0  0  0  0  0  0  0
  5  6  2  0  0  0  0
  5  7  1  0  0  0  0
  2  3  1  0  0  0  0
  2  4  1  0  0  0  0
  2  5  1  0  0  0  0
  1  2  1  0  0  0  0
 25 26  2  0  0  0  0
 25 27  1  0  0  0  0
 23 24  1  0  0  0  0
 21 22  1  0  0  0  0
 21 23  2  0  0  0  0
 19 20  1  0  0  0  0
 19 21  1  0  0  0  0
 17 18  1  0  0  0  0
 17 19  2  0  0  0  0
 15 16  1  0  0  0  0
 15 17  1  0  0  0  0
 14 15  2  0  0  0  0
 14 23  1  0  0  0  0
 11 12  1  0  0  0  0
 11 13  1  0  0  0  0
 11 14  1  0  0  0  0
  9 10  1  0  0  0  0
  9 11  1  0  0  0  0
  9 25  1  0  0  0  0
  7  8  1  0  0  0  0
  7  9  1  0  0  0  0
 29 30  1  0  0  0  0
 29 31  1  0  0  0  0
 29 32  1  0  0  0  0
 27 28  1  0  0  0  0
 27 29  1  0  0  0  0
M  END
$$$$
default_name
  -OEChem-02102213163D

 32 32  0     1  0  0  0  0  0999 V2000
   -3.8405   -3.7518    1.6252 H   0  0  0  0  0  0  0  0  0  0  0  0
   -3.7965   -2.8768    0.9782 C   0  0  0  0  0  0  0  0  0  0  0  0
   -4.5465   -2.1527    1.2902 H   0  0  0  0  0  0  0  0  0  0  0  0
   -3.9745   -3.1748   -0.0538 H   0  0  0  0  0  0  0  0  0  0  0  0
   -2.4245   -2.2537    1.0882 C   0  0  0  0  0  0  0  0  0  0  0  0
   -1.5805   -2.7478    1.8242 O   0  0  0  0  0  0  0  0  0  0  0  0
   -2.2045   -1.1637    0.3562 N   0  0  0  0  0  0  0  0  0  0  0  0
   -2.9595   -0.7907   -0.2008 H   0  0  0  0  0  0  0  0  0  0  0  0
   -0.9485   -0.4087    0.3482 C   0  0  1  0  0  0  0  0  0  0  0  0
   -0.3666   -0.6914    1.2269 H   0  0  0  0  0  0  0  0  0  0  0  0
   -0.1405   -0.7797   -0.9072 C   0  0  0  0  0  0  0  0  0  0  0  0
    0.0320    0.1213   -1.4976 H   0  0  0  0  0  0  0  0  0  0  0  0
    0.8343   -1.1618   -0.6003 H   0  0  0  0  0  0  0  0  0  0  0  0
   -0.8213   -1.8019   -1.7973 C   0  0  0  0  0  0  0  0  0  0  0  0
   -1.1415   -1.4854   -3.1312 C   0  0  0  0  0  0  0  0  0  0  0  0
   -0.9240   -0.5018   -3.5229 H   0  0  0  0  0  0  0  0  0  0  0  0
   -1.7355   -2.4525   -3.9630 C   0  0  0  0  0  0  0  0  0  0  0  0
   -1.9829   -2.2066   -4.9862 H   0  0  0  0  0  0  0  0  0  0  0  0
   -2.0085   -3.7373   -3.4637 C   0  0  0  0  0  0  0  0  0  0  0  0
   -2.4670   -4.4795   -4.1021 H   0  0  0  0  0  0  0  0  0  0  0  0
   -1.6912   -4.0563   -2.1309 C   0  0  0  0  0  0  0  0  0  0  0  0
   -1.9060   -5.0422   -1.7453 H   0  0  0  0  0  0  0  0  0  0  0  0
   -1.1006   -3.0887   -1.2989 C   0  0  0  0  0  0  0  0  0  0  0  0
   -0.8601   -3.3344   -0.2727 H   0  0  0  0  0  0  0  0  0  0  0  0
   -1.2168    1.1047    0.4313 C   0  0  0  0  0  0  0  0  0  0  0  0
   -2.0890    1.6186   -0.2704 O   0  0  0  0  0  0  0  0  0  0  0  0
   -0.4674    1.8182    1.2813 N   0  0  0  0  0  0  0  0  0  0  0  0
    0.2640    1.3348    1.7800 H   0  0  0  0  0  0  0  0  0  0  0  0
   -0.5889    3.2615    1.4722 C   0  0  0  0  0  0  0  0  0  0  0  0
   -1.6291    3.5206    1.6805 H   0  0  0  0  0  0  0  0  0  0  0  0
    0.0359    3.5855    2.3049 H   0  0  0  0  0  0  0  0  0  0  0  0
   -0.2760    3.7797    0.5637 H   0  0  0  0  0  0  0  0  0  0  0  0
  5  6  2  0  0  0  0
  5  7  1  0  0  0  0
  2  3  1  0  0  0  0
  2  4  1  0  0  0  0
  2  5  1  0  0  0  0
  1  2  1  0  0  0  0
 25 26  2  0  0  0  0
 25 27  1  0  0  0  0
 23 24  1  0  0  0  0
 21 22  1  0  0  0  0
 21 23  2  0  0  0  0
 19 20  1  0  0  0  0
 19 21  1  0  0  0  0
 17 18  1  0  0  0  0
 17 19  2  0  0  0  0
 15 16  1  0  0  0  0
 15 17  1  0  0  0  0
 14 15  2  0  0  0  0
 14 23  1  0  0  0  0
 11 12  1  0  0  0  0
 11 13  1  0  0  0  0
 11 14  1  0  0  0  0
  9 10  1  0  0  0  0
  9 11  1  0  0  0  0
  9 25  1  0  0  0  0
  7  8  1  0  0  0  0
  7  9  1  0  0  0  0
 29 30  1  0  0  0  0
 29 31  1  0  0  0  0
 29 32  1  0  0  0  0
 27 28  1  0  0  0  0
 27 29  1  0  0  0  0
M  END
$$$$
default_name
  -OEChem-02102213163D

 32 32  0     1  0  0  0  0  0999 V2000
   -3.8405   -3.7518    1.6252 H   0  0  0  0  0  0  0  0  0  0  0  0
   -3.7965   -2.8768    0.9782 C   0  0  0  0  0  0  0  0  0  0  0  0
   -4.5465   -2.1527    1.2902 H   0  0  0  0  0  0  0  0  0  0  0  0
   -3.9745   -3.1748   -0.0538 H   0  0  0  0  0  0  0  0  0  0  0  0
   -2.4245   -2.2537    1.0882 C   0  0  0  0  0  0  0  0  0  0  0  0
   -1.5805   -2.7478    1.8242 O   0  0  0  0  0  0  0  0  0  0  0  0
   -2.2045   -1.1637    0.3562 N   0  0  0  0  0  0  0  0  0  0  0  0
   -2.9595   -0.7907   -0.2008 H   0  0  0  0  0  0  0  0  0  0  0  0
   -0.9485   -0.4087    0.3482 C   0  0  1  0  0  0  0  0  0  0  0  0
   -0.3666   -0.6914    1.2269 H   0  0  0  0  0  0  0  0  0  0  0  0
   -0.1405   -0.7797   -0.9072 C   0  0  0  0  0  0  0  0  0  0  0  0
    0.0320    0.1213   -1.4976 H   0  0  0  0  0  0  0  0  0  0  0  0
    0.8343   -1.1618   -0.6003 H   0  0  0  0  0  0  0  0  0  0  0  0
   -0.8213   -1.8019   -1.7973 C   0  0  0  0  0  0  0  0  0  0  0  0
   -0.8608   -1.6189   -3.1926 C   0  0  0  0  0  0  0  0  0  0  0  0
   -0.4249   -0.7351   -3.6367 H   0  0  0  0  0  0  0  0  0  0  0  0
   -1.4579   -2.5917   -4.0155 C   0  0  0  0  0  0  0  0  0  0  0  0
   -1.4894   -2.4480   -5.0864 H   0  0  0  0  0  0  0  0  0  0  0  0
   -2.0144   -3.7492   -3.4455 C   0  0  0  0  0  0  0  0  0  0  0  0
   -2.4752   -4.4955   -4.0775 H   0  0  0  0  0  0  0  0  0  0  0  0
   -1.9780   -3.9345   -2.0514 C   0  0  0  0  0  0  0  0  0  0  0  0
   -2.4106   -4.8216   -1.6126 H   0  0  0  0  0  0  0  0  0  0  0  0
   -1.3842   -2.9606   -1.2291 C   0  0  0  0  0  0  0  0  0  0  0  0
   -1.3598   -3.1027   -0.1565 H   0  0  0  0  0  0  0  0  0  0  0  0
   -1.2168    1.1047    0.4313 C   0  0  0  0  0  0  0  0  0  0  0  0
   -2.0890    1.6186   -0.2704 O   0  0  0  0  0  0  0  0  0  0  0  0
   -0.4674    1.8182    1.2813 N   0  0  0  0  0  0  0  0  0  0  0  0
    0.2640    1.3348    1.7800 H   0  0  0  0  0  0  0  0  0  0  0  0
   -0.5889    3.2615    1.4722 C   0  0  0  0  0  0  0  0  0  0  0  0
   -1.6291    3.5206    1.6805 H   0  0  0  0  0  0  0  0  0  0  0  0
    0.0359    3.5855    2.3049 H   0  0  0  0  0  0  0  0  0  0  0  0
   -0.2760    3.7797    0.5637 H   0  0  0  0  0  0  0  0  0  0  0  0
  5  6  2  0  0  0  0
  5  7  1  0  0  0  0
  2  3  1  0  0  0  0
  2  4  1  0  0  0  0
  2  5  1  0  0  0  0
  1  2  1  0  0  0  0
 25 26  2  0  0  0  0
 25 27  1  0  0  0  0
 23 24  1  0  0  0  0
 21 22  1  0  0  0  0
 21 23  2  0  0  0  0
 19 20  1  0  0  0  0
 19 21  1  0  0  0  0
 17 18  1  0  0  0  0
 17 19  2  0  0  0  0
 15 16  1  0  0  0  0
 15 17  1  0  0  0  0
 14 15  2  0  0  0  0
 14 23  1  0  0  0  0
 11 12  1  0  0  0  0
 11 13  1  0  0  0  0
 11 14  1  0  0  0  0
  9 10  1  0  0  0  0
  9 11  1  0  0  0  0
  9 25  1  0  0  0  0
  7  8  1  0  0  0  0
  7  9  1  0  0  0  0
 29 30  1  0  0  0  0
 29 31  1  0  0  0  0
 29 32  1  0  0  0  0
 27 28  1  0  0  0  0
 27 29  1  0  0  0  0
M  END
$$$$
default_name
  -OEChem-02102213163D

 32 32  0     1  0  0  0  0  0999 V2000
   -3.8405   -3.7518    1.6252 H   0  0  0  0  0  0  0  0  0  0  0  0
   -3.7965   -2.8768    0.9782 C   0  0  0  0  0  0  0  0  0  0  0  0
   -4.5465   -2.1527    1.2902 H   0  0  0  0  0  0  0  0  0  0  0  0
   -3.9745   -3.1748   -0.0538 H   0  0  0  0  0  0  0  0  0  0  0  0
   -2.4245   -2.2537    1.0882 C   0  0  0  0  0  0  0  0  0  0  0  0
   -1.5805   -2.7478    1.8242 O   0  0  0  0  0  0  0  0  0  0  0  0
   -2.2045   -1.1637    0.3562 N   0  0  0  0  0  0  0  0  0  0  0  0
   -2.9595   -0.7907   -0.2008 H   0  0  0  0  0  0  0  0  0  0  0  0
   -0.9485   -0.4087    0.3482 C   0  0  1  0  0  0  0  0  0  0  0  0
   -0.3666   -0.6914    1.2269 H   0  0  0  0  0  0  0  0  0  0  0  0
   -0.1405   -0.7797   -0.9072 C   0  0  0  0  0  0  0  0  0  0  0  0
    0.0320    0.1213   -1.4976 H   0  0  0  0  0  0  0  0  0  0  0  0
    0.8343   -1.1618   -0.6003 H   0  0  0  0  0  0  0  0  0  0  0  0
   -0.8213   -1.8019   -1.7973 C   0  0  0  0  0  0  0  0  0  0  0  0
   -0.5992   -1.7976   -3.1875 C   0  0  0  0  0  0  0  0  0  0  0  0
    0.0417   -1.0496   -3.6324 H   0  0  0  0  0  0  0  0  0  0  0  0
   -1.2017   -2.7745   -4.0016 C   0  0  0  0  0  0  0  0  0  0  0  0
   -1.0319   -2.7678   -5.0691 H   0  0  0  0  0  0  0  0  0  0  0  0
   -2.0252   -3.7578   -3.4275 C   0  0  0  0  0  0  0  0  0  0  0  0
   -2.4899   -4.5068   -4.0532 H   0  0  0  0  0  0  0  0  0  0  0  0
   -2.2504   -3.7640   -2.0389 C   0  0  0  0  0  0  0  0  0  0  0  0
   -2.8878   -4.5165   -1.5981 H   0  0  0  0  0  0  0  0  0  0  0  0
   -1.6509   -2.7857   -1.2260 C   0  0  0  0  0  0  0  0  0  0  0  0
   -1.8276   -2.7895   -0.1583 H   0  0  0  0  0  0  0  0  0  0  0  0
   -1.2168    1.1047    0.4313 C   0  0  0  0  0  0  0  0  0  0  0  0
   -2.0890    1.6186   -0.2704 O   0  0  0  0  0  0  0  0  0  0  0  0
   -0.4674    1.8182    1.2813 N   0  0  0  0  0  0  0  0  0  0  0  0
    0.2640    1.3348    1.7800 H   0  0  0  0  0  0  0  0  0  0  0  0
   -0.5889    3.2615    1.4722 C   0  0  0  0  0  0  0  0  0  0  0  0
   -1.6291    3.5206    1.6805 H   0  0  0  0  0  0  0  0  0  0  0  0
    0.0359    3.5855    2.3049 H   0  0  0  0  0  0  0  0  0  0  0  0
   -0.2760    3.7797    0.5637 H   0  0  0  0  0  0  0  0  0  0  0  0
  5  6  2  0  0  0  0
  5  7  1  0  0  0  0
  2  3  1  0  0  0  0
  2  4  1  0  0  0  0
  2  5  1  0  0  0  0
  1  2  1  0  0  0  0
 25 26  2  0  0  0  0
 25 27  1  0  0  0  0
 23 24  1  0  0  0  0
 21 22  1  0  0  0  0
 21 23  2  0  0  0  0
 19 20  1  0  0  0  0
 19 21  1  0  0  0  0
 17 18  1  0  0  0  0
 17 19  2  0  0  0  0
 15 16  1  0  0  0  0
 15 17  1  0  0  0  0
 14 15  2  0  0  0  0
 14 23  1  0  0  0  0
 11 12  1  0  0  0  0
 11 13  1  0  0  0  0
 11 14  1  0  0  0  0
  9 10  1  0  0  0  0
  9 11  1  0  0  0  0
  9 25  1  0  0  0  0
  7  8  1  0  0  0  0
  7  9  1  0  0  0  0
 29 30  1  0  0  0  0
 29 31  1  0  0  0  0
 29 32  1  0  0  0  0
 27 28  1  0  0  0  0
 27 29  1  0  0  0  0
M  END
$$$$
default_name
  -OEChem-02102213163D

 32 32  0     1  0  0  0  0  0999 V2000
   -3.8405   -3.7518    1.6252 H   0  0  0  0  0  0  0  0  0  0  0  0
   -3.7965   -2.8768    0.9782 C   0  0  0  0  0  0  0  0  0  0  0  0
   -4.5465   -2.1527    1.2902 H   0  0  0  0  0  0  0  0  0  0  0  0
   -3.9745   -3.1748   -0.0538 H   0  0  0  0  0  0  0  0  0  0  0  0
   -2.4245   -2.2537    1.0882 C   0  0  0  0  0  0  0  0  0  0  0  0
   -1.5805   -2.7478    1.8242 O   0  0  0  0  0  0  0  0  0  0  0  0
   -2.2045   -1.1637    0.3562 N   0  0  0  0  0  0  0  0  0  0  0  0
   -2.9595   -0.7907   -0.2008 H   0  0  0  0  0  0  0  0  0  0  0  0
   -0.9485   -0.4087    0.3482 C   0  0  1  0  0  0  0  0  0  0  0  0
   -0.3666   -0.6914    1.2269 H   0  0  0  0  0  0  0  0  0  0  0  0
   -0.1405   -0.7797   -0.9072 C   0  0  0  0  0  0  0  0  0  0  0  0
    0.0320    0.1213   -1.4976 H   0  0  0  0  0  0  0  0  0  0  0  0
    0.8343   -1.1618   -0.6003 H   0  0  0  0  0  0  0  0  0  0  0  0
   -0.8213   -1.8019   -1.7973 C   0  0  0  0  0  0  0  0  0  0  0  0
   -0.3746   -2.0094   -3.1162 C   0  0  0  0  0  0  0  0  0  0  0  0
    0.4438   -1.4237   -3.5104 H   0  0  0  0  0  0  0  0  0  0  0  0
   -0.9844   -2.9883   -3.9222 C   0  0  0  0  0  0  0  0  0  0  0  0
   -0.6415   -3.1442   -4.9354 H   0  0  0  0  0  0  0  0  0  0  0  0
   -2.0400   -3.7623   -3.4110 C   0  0  0  0  0  0  0  0  0  0  0  0
   -2.5100   -4.5127   -4.0311 H   0  0  0  0  0  0  0  0  0  0  0  0
   -2.4898   -3.5565   -2.0940 C   0  0  0  0  0  0  0  0  0  0  0  0
   -3.3048   -4.1476   -1.7027 H   0  0  0  0  0  0  0  0  0  0  0  0
   -1.8824   -2.5758   -1.2899 C   0  0  0  0  0  0  0  0  0  0  0  0
   -2.2316   -2.4162   -0.2780 H   0  0  0  0  0  0  0  0  0  0  0  0
   -1.2168    1.1047    0.4313 C   0  0  0  0  0  0  0  0  0  0  0  0
   -2.0890    1.6186   -0.2704 O   0  0  0  0  0  0  0  0  0  0  0  0
   -0.4674    1.8182    1.2813 N   0  0  0  0  0  0  0  0  0  0  0  0
    0.2640    1.3348    1.7800 H   0  0  0  0  0  0  0  0  0  0  0  0
   -0.5889    3.2615    1.4722 C   0  0  0  0  0  0  0  0  0  0  0  0
   -1.6291    3.5206    1.6805 H   0  0  0  0  0  0  0  0  0  0  0  0
    0.0359    3.5855    2.3049 H   0  0  0  0  0  0  0  0  0  0  0  0
   -0.2760    3.7797    0.5637 H   0  0  0  0  0  0  0  0  0  0  0  0
  5  6  2  0  0  0  0
  5  7  1  0  0  0  0
  2  3  1  0  0  0  0
  2  4  1  0  0  0  0
  2  5  1  0  0  0  0
  1  2  1  0  0  0  0
 25 26  2  0  0  0  0
 25 27  1  0  0  0  0
 23 24  1  0  0  0  0
 21 22  1  0  0  0  0
 21 23  2  0  0  0  0
 19 20  1  0  0  0  0
 19 21  1  0  0  0  0
 17 18  1  0  0  0  0
 17 19  2  0  0  0  0
 15 16  1  0  0  0  0
 15 17  1  0  0  0  0
 14 15  2  0  0  0  0
 14 23  1  0  0  0  0
 11 12  1  0  0  0  0
 11 13  1  0  0  0  0
 11 14  1  0  0  0  0
  9 10  1  0  0  0  0
  9 11  1  0  0  0  0
  9 25  1  0  0  0  0
  7  8  1  0  0  0  0
  7  9  1  0  0  0  0
 29 30  1  0  0  0  0
 29 31  1  0  0  0  0
 29 32  1  0  0  0  0
 27 28  1  0  0  0  0
 27 29  1  0  0  0  0
M  END
$$$$
default_name
  -OEChem-02102213163D

 32 32  0     1  0  0  0  0  0999 V2000
   -3.8405   -3.7518    1.6252 H   0  0  0  0  0  0  0  0  0  0  0  0
   -3.7965   -2.8768    0.9782 C   0  0  0  0  0  0  0  0  0  0  0  0
   -4.5465   -2.1527    1.2902 H   0  0  0  0  0  0  0  0  0  0  0  0
   -3.9745   -3.1748   -0.0538 H   0  0  0  0  0  0  0  0  0  0  0  0
   -2.4245   -2.2537    1.0882 C   0  0  0  0  0  0  0  0  0  0  0  0
   -1.5805   -2.7478    1.8242 O   0  0  0  0  0  0  0  0  0  0  0  0
   -2.2045   -1.1637    0.3562 N   0  0  0  0  0  0  0  0  0  0  0  0
   -2.9595   -0.7907   -0.2008 H   0  0  0  0  0  0  0  0  0  0  0  0
   -0.9485   -0.4087    0.3482 C   0  0  1  0  0  0  0  0  0  0  0  0
   -0.3666   -0.6914    1.2269 H   0  0  0  0  0  0  0  0  0  0  0  0
   -0.1405   -0.7797   -0.9072 C   0  0  0  0  0  0  0  0  0  0  0  0
    0.2596    0.1315   -1.3541 H   0  0  0  0  0  0  0  0  0  0  0  0
    0.7075   -1.3993   -0.6117 H   0  0  0  0  0  0  0  0  0  0  0  0
   -0.9475   -1.5073   -1.9656 C   0  0  0  0  0  0  0  0  0  0  0  0
   -0.3429   -1.9112   -3.1711 C   0  0  0  0  0  0  0  0  0  0  0  0
    0.6971   -1.6844   -3.3593 H   0  0  0  0  0  0  0  0  0  0  0  0
   -1.0872   -2.6220   -4.1305 C   0  0  0  0  0  0  0  0  0  0  0  0
   -0.6217   -2.9290   -5.0566 H   0  0  0  0  0  0  0  0  0  0  0  0
   -2.4359   -2.9317   -3.8859 C   0  0  0  0  0  0  0  0  0  0  0  0
   -3.0084   -3.4757   -4.6241 H   0  0  0  0  0  0  0  0  0  0  0  0
   -3.0435   -2.5282   -2.6830 C   0  0  0  0  0  0  0  0  0  0  0  0
   -4.0817   -2.7614   -2.4972 H   0  0  0  0  0  0  0  0  0  0  0  0
   -2.3003   -1.8150   -1.7258 C   0  0  0  0  0  0  0  0  0  0  0  0
   -2.7699   -1.5023   -0.8022 H   0  0  0  0  0  0  0  0  0  0  0  0
   -1.2168    1.1047    0.4313 C   0  0  0  0  0  0  0  0  0  0  0  0
   -2.0890    1.6186   -0.2704 O   0  0  0  0  0  0  0  0  0  0  0  0
   -0.4674    1.8182    1.2813 N   0  0  0  0  0  0  0  0  0  0  0  0
    0.2640    1.3348    1.7800 H   0  0  0  0  0  0  0  0  0  0  0  0
   -0.5889    3.2615    1.4722 C   0  0  0  0  0  0  0  0  0  0  0  0
   -1.6291    3.5206    1.6805 H   0  0  0  0  0  0  0  0  0  0  0  0
    0.0359    3.5855    2.3049 H   0  0  0  0  0  0  0  0  0  0  0  0
   -0.2760    3.7797    0.5637 H   0  0  0  0  0  0  0  0  0  0  0  0
  5  6  2  0  0  0  0
  5  7  1  0  0  0  0
  2  3  1  0  0  0  0
  2  4  1  0  0  0  0
  2  5  1  0  0  0  0
  1  2  1  0  0  0  0
 25 26  2  0  0  0  0
 25 27  1  0  0  0  0
 23 24  1  0  0  0  0
 21 22  1  0  0  0  0
 21 23  2  0  0  0  0
 19 20  1  0  0  0  0
 19 21  1  0  0  0  0
 17 18  1  0  0  0  0
 17 19  2  0  0  0  0
 15 16  1  0  0  0  0
 15 17  1  0  0  0  0
 14 15  2  0  0  0  0
 14 23  1  0  0  0  0
 11 12  1  0  0  0  0
 11 13  1  0  0  0  0
 11 14  1  0  0  0  0
  9 10  1  0  0  0  0
  9 11  1  0  0  0  0
  9 25  1  0  0  0  0
  7  8  1  0  0  0  0
  7  9  1  0  0  0  0
 29 30  1  0  0  0  0
 29 31  1  0  0  0  0
 29 32  1  0  0  0  0
 27 28  1  0  0  0  0
 27 29  1  0  0  0  0
M  END
$$$$
default_name
  -OEChem-02102213163D

 32 32  0     1  0  0  0  0  0999 V2000
   -3.8405   -3.7518    1.6252 H   0  0  0  0  0  0  0  0  0  0  0  0
   -3.7965   -2.8768    0.9782 C   0  0  0  0  0  0  0  0  0  0  0  0
   -4.5465   -2.1527    1.2902 H   0  0  0  0  0  0  0  0  0  0  0  0
   -3.9745   -3.1748   -0.0538 H   0  0  0  0  0  0  0  0  0  0  0  0
   -2.4245   -2.2537    1.0882 C   0  0  0  0  0  0  0  0  0  0  0  0
   -1.5805   -2.7478    1.8242 O   0  0  0  0  0  0  0  0  0  0  0  0
   -2.2045   -1.1637    0.3562 N   0  0  0  0  0  0  0  0  0  0  0  0
   -2.9595   -0.7907   -0.2008 H   0  0  0  0  0  0  0  0  0  0  0  0
   -0.9485   -0.4087    0.3482 C   0  0  1  0  0  0  0  0  0  0  0  0
   -0.3666   -0.6914    1.2269 H   0  0  0  0  0  0  0  0  0  0  0  0
   -0.1405   -0.7797   -0.9072 C   0  0  0  0  0  0  0  0  0  0  0  0
    0.2596    0.1315   -1.3541 H   0  0  0  0  0  0  0  0  0  0  0  0
    0.7075   -1.3993   -0.6117 H   0  0  0  0  0  0  0  0  0  0  0  0
   -0.9475   -1.5073   -1.9656 C   0  0  0  0  0  0  0  0  0  0  0  0
   -0.2997   -2.1843   -3.0163 C   0  0  0  0  0  0  0  0  0  0  0  0
    0.7787   -2.1703   -3.0876 H   0  0  0  0  0  0  0  0  0  0  0  0
   -1.0534   -2.8916   -3.9710 C   0  0  0  0  0  0  0  0  0  0  0  0
   -0.5542   -3.4086   -4.7784 H   0  0  0  0  0  0  0  0  0  0  0  0
   -2.4550   -2.9248   -3.8761 C   0  0  0  0  0  0  0  0  0  0  0  0
   -3.0342   -3.4662   -4.6109 H   0  0  0  0  0  0  0  0  0  0  0  0
   -3.1056   -2.2481   -2.8283 C   0  0  0  0  0  0  0  0  0  0  0  0
   -4.1833   -2.2690   -2.7582 H   0  0  0  0  0  0  0  0  0  0  0  0
   -2.3522   -1.5386   -1.8762 C   0  0  0  0  0  0  0  0  0  0  0  0
   -2.8541   -1.0157   -1.0725 H   0  0  0  0  0  0  0  0  0  0  0  0
   -1.2168    1.1047    0.4313 C   0  0  0  0  0  0  0  0  0  0  0  0
   -2.0890    1.6186   -0.2704 O   0  0  0  0  0  0  0  0  0  0  0  0
   -0.4674    1.8182    1.2813 N   0  0  0  0  0  0  0  0  0  0  0  0
    0.2640    1.3348    1.7800 H   0  0  0  0  0  0  0  0  0  0  0  0
   -0.5889    3.2615    1.4722 C   0  0  0  0  0  0  0  0  0  0  0  0
   -1.6291    3.5206    1.6805 H   0  0  0  0  0  0  0  0  0  0  0  0
    0.0359    3.5855    2.3049 H   0  0  0  0  0  0  0  0  0  0  0  0
   -0.2760    3.7797    0.5637 H   0  0  0  0  0  0  0  0  0  0  0  0
  5  6  2  0  0  0  0
  5  7  1  0  0  0  0
  2  3  1  0  0  0  0
  2  4  1  0  0  0  0
  2  5  1  0  0  0  0
  1  2  1  0  0  0  0
 25 26  2  0  0  0  0
 25 27  1  0  0  0  0
 23 24  1  0  0  0  0
 21 22  1  0  0  0  0
 21 23  2  0  0  0  0
 19 20  1  0  0  0  0
 19 21  1  0  0  0  0
 17 18  1  0  0  0  0
 17 19  2  0  0  0  0
 15 16  1  0  0  0  0
 15 17  1  0  0  0  0
 14 15  2  0  0  0  0
 14 23  1  0  0  0  0
 11 12  1  0  0  0  0
 11 13  1  0  0  0  0
 11 14  1  0  0  0  0
  9 10  1  0  0  0  0
  9 11  1  0  0  0  0
  9 25  1  0  0  0  0
  7  8  1  0  0  0  0
  7  9  1  0  0  0  0
 29 30  1  0  0  0  0
 29 31  1  0  0  0  0
 29 32  1  0  0  0  0
 27 28  1  0  0  0  0
 27 29  1  0  0  0  0
M  END
$$$$
default_name
  -OEChem-02102213163D

 32 32  0     1  0  0  0  0  0999 V2000
   -3.8405   -3.7518    1.6252 H   0  0  0  0  0  0  0  0  0  0  0  0
   -3.7965   -2.8768    0.9782 C   0  0  0  0  0  0  0  0  0  0  0  0
   -4.5465   -2.1527    1.2902 H   0  0  0  0  0  0  0  0  0  0  0  0
   -3.9745   -3.1748   -0.0538 H   0  0  0  0  0  0  0  0  0  0  0  0
   -2.4245   -2.2537    1.0882 C   0  0  0  0  0  0  0  0  0  0  0  0
   -1.5805   -2.7478    1.8242 O   0  0  0  0  0  0  0  0  0  0  0  0
   -2.2045   -1.1637    0.3562 N   0  0  0  0  0  0  0  0  0  0  0  0
   -2.9595   -0.7907   -0.2008 H   0  0  0  0  0  0  0  0  0  0  0  0
   -0.9485   -0.4087    0.3482 C   0  0  1  0  0  0  0  0  0  0  0  0
   -0.3666   -0.6914    1.2269 H   0  0  0  0  0  0  0  0  0  0  0  0
   -0.1405   -0.7797   -0.9072 C   0  0  0  0  0  0  0  0  0  0  0  0
    0.2596    0.1315   -1.3541 H   0  0  0  0  0  0  0  0  0  0  0  0
    0.7075   -1.3993   -0.6117 H   0  0  0  0  0  0  0  0  0  0  0  0
   -0.9475   -1.5073   -1.9656 C   0  0  0  0  0  0  0  0  0  0  0  0
   -0.3265   -2.4346   -2.8238 C   0  0  0  0  0  0  0  0  0  0  0  0
    0.7362   -2.6169   -2.7481 H   0  0  0  0  0  0  0  0  0  0  0  0
   -1.0893   -3.1360   -3.7756 C   0  0  0  0  0  0  0  0  0  0  0  0
   -0.6100   -3.8457   -4.4353 H   0  0  0  0  0  0  0  0  0  0  0  0
   -2.4735   -2.9133   -3.8699 C   0  0  0  0  0  0  0  0  0  0  0  0
   -3.0591   -3.4505   -4.6028 H   0  0  0  0  0  0  0  0  0  0  0  0
   -3.0969   -1.9863   -3.0149 C   0  0  0  0  0  0  0  0  0  0  0  0
   -4.1600   -1.8110   -3.0908 H   0  0  0  0  0  0  0  0  0  0  0  0
   -2.3338   -1.2830   -2.0659 C   0  0  0  0  0  0  0  0  0  0  0  0
   -2.8141   -0.5677   -1.4110 H   0  0  0  0  0  0  0  0  0  0  0  0
   -1.2168    1.1047    0.4313 C   0  0  0  0  0  0  0  0  0  0  0  0
   -2.0890    1.6186   -0.2704 O   0  0  0  0  0  0  0  0  0  0  0  0
   -0.4674    1.8182    1.2813 N   0  0  0  0  0  0  0  0  0  0  0  0
    0.2640    1.3348    1.7800 H   0  0  0  0  0  0  0  0  0  0  0  0
   -0.5889    3.2615    1.4722 C   0  0  0  0  0  0  0  0  0  0  0  0
   -1.6291    3.5206    1.6805 H   0  0  0  0  0  0  0  0  0  0  0  0
    0.0359    3.5855    2.3049 H   0  0  0  0  0  0  0  0  0  0  0  0
   -0.2760    3.7797    0.5637 H   0  0  0  0  0  0  0  0  0  0  0  0
  5  6  2  0  0  0  0
  5  7  1  0  0  0  0
  2  3  1  0  0  0  0
  2  4  1  0  0  0  0
  2  5  1  0  0  0  0
  1  2  1  0  0  0  0
 25 26  2  0  0  0  0
 25 27  1  0  0  0  0
 23 24  1  0  0  0  0
 21 22  1  0  0  0  0
 21 23  2  0  0  0  0
 19 20  1  0  0  0  0
 19 21  1  0  0  0  0
 17 18  1  0  0  0  0
 17 19  2  0  0  0  0
 15 16  1  0  0  0  0
 15 17  1  0  0  0  0
 14 15  2  0  0  0  0
 14 23  1  0  0  0  0
 11 12  1  0  0  0  0
 11 13  1  0  0  0  0
 11 14  1  0  0  0  0
  9 10  1  0  0  0  0
  9 11  1  0  0  0  0
  9 25  1  0  0  0  0
  7  8  1  0  0  0  0
  7  9  1  0  0  0  0
 29 30  1  0  0  0  0
 29 31  1  0  0  0  0
 29 32  1  0  0  0  0
 27 28  1  0  0  0  0
 27 29  1  0  0  0  0
M  END
$$$$
default_name
  -OEChem-02102213163D

 32 32  0     1  0  0  0  0  0999 V2000
   -3.8405   -3.7518    1.6252 H   0  0  0  0  0  0  0  0  0  0  0  0
   -3.7965   -2.8768    0.9782 C   0  0  0  0  0  0  0  0  0  0  0  0
   -4.5465   -2.1527    1.2902 H   0  0  0  0  0  0  0  0  0  0  0  0
   -3.9745   -3.1748   -0.0538 H   0  0  0  0  0  0  0  0  0  0  0  0
   -2.4245   -2.2537    1.0882 C   0  0  0  0  0  0  0  0  0  0  0  0
   -1.5805   -2.7478    1.8242 O   0  0  0  0  0  0  0  0  0  0  0  0
   -2.2045   -1.1637    0.3562 N   0  0  0  0  0  0  0  0  0  0  0  0
   -2.9595   -0.7907   -0.2008 H   0  0  0  0  0  0  0  0  0  0  0  0
   -0.9485   -0.4087    0.3482 C   0  0  1  0  0  0  0  0  0  0  0  0
   -0.3666   -0.6914    1.2269 H   0  0  0  0  0  0  0  0  0  0  0  0
   -0.1405   -0.7797   -0.9072 C   0  0  0  0  0  0  0  0  0  0  0  0
    0.2596    0.1315   -1.3541 H   0  0  0  0  0  0  0  0  0  0  0  0
    0.7075   -1.3993   -0.6117 H   0  0  0  0  0  0  0  0  0  0  0  0
   -0.9475   -1.5073   -1.9656 C   0  0  0  0  0  0  0  0  0  0  0  0
   -0.4215   -2.6449   -2.6067 C   0  0  0  0  0  0  0  0  0  0  0  0
    0.5723   -2.9939   -2.3640 H   0  0  0  0  0  0  0  0  0  0  0  0
   -1.1923   -3.3388   -3.5577 C   0  0  0  0  0  0  0  0  0  0  0  0
   -0.7855   -4.2106   -4.0507 H   0  0  0  0  0  0  0  0  0  0  0  0
   -2.4900   -2.8980   -3.8678 C   0  0  0  0  0  0  0  0  0  0  0  0
   -3.0813   -3.4297   -4.6001 H   0  0  0  0  0  0  0  0  0  0  0  0
   -3.0181   -1.7607   -3.2301 C   0  0  0  0  0  0  0  0  0  0  0  0
   -4.0135   -1.4185   -3.4723 H   0  0  0  0  0  0  0  0  0  0  0  0
   -2.2463   -1.0655   -2.2822 C   0  0  0  0  0  0  0  0  0  0  0  0
   -2.6524   -0.1887   -1.7947 H   0  0  0  0  0  0  0  0  0  0  0  0
   -1.2168    1.1047    0.4313 C   0  0  0  0  0  0  0  0  0  0  0  0
   -2.0890    1.6186   -0.2704 O   0  0  0  0  0  0  0  0  0  0  0  0
   -0.4674    1.8182    1.2813 N   0  0  0  0  0  0  0  0  0  0  0  0
    0.2640    1.3348    1.7800 H   0  0  0  0  0  0  0  0  0  0  0  0
   -0.5889    3.2615    1.4722 C   0  0  0  0  0  0  0  0  0  0  0  0
   -1.6291    3.5206    1.6805 H   0  0  0  0  0  0  0  0  0  0  0  0
    0.0359    3.5855    2.3049 H   0  0  0  0  0  0  0  0  0  0  0  0
   -0.2760    3.7797    0.5637 H   0  0  0  0  0  0  0  0  0  0  0  0
  5  6  2  0  0  0  0
  5  7  1  0  0  0  0
  2  3  1  0  0  0  0
  2  4  1  0  0  0  0
  2  5  1  0  0  0  0
  1  2  1  0  0  0  0
 25 26  2  0  0  0  0
 25 27  1  0  0  0  0
 23 24  1  0  0  0  0
 21 22  1  0  0  0  0
 21 23  2  0  0  0  0
 19 20  1  0  0  0  0
 19 21  1  0  0  0  0
 17 18  1  0  0  0  0
 17 19  2  0  0  0  0
 15 16  1  0  0  0  0
 15 17  1  0  0  0  0
 14 15  2  0  0  0  0
 14 23  1  0  0  0  0
 11 12  1  0  0  0  0
 11 13  1  0  0  0  0
 11 14  1  0  0  0  0
  9 10  1  0  0  0  0
  9 11  1  0  0  0  0
  9 25  1  0  0  0  0
  7  8  1  0  0  0  0
  7  9  1  0  0  0  0
 29 30  1  0  0  0  0
 29 31  1  0  0  0  0
 29 32  1  0  0  0  0
 27 28  1  0  0  0  0
 27 29  1  0  0  0  0
M  END
$$$$
default_name
  -OEChem-02102213163D

 32 32  0     1  0  0  0  0  0999 V2000
   -3.8405   -3.7518    1.6252 H   0  0  0  0  0  0  0  0  0  0  0  0
   -3.7965   -2.8768    0.9782 C   0  0  0  0  0  0  0  0  0  0  0  0
   -4.5465   -2.1527    1.2902 H   0  0  0  0  0  0  0  0  0  0  0  0
   -3.9745   -3.1748   -0.0538 H   0  0  0  0  0  0  0  0  0  0  0  0
   -2.4245   -2.2537    1.0882 C   0  0  0  0  0  0  0  0  0  0  0  0
   -1.5805   -2.7478    1.8242 O   0  0  0  0  0  0  0  0  0  0  0  0
   -2.2045   -1.1637    0.3562 N   0  0  0  0  0  0  0  0  0  0  0  0
   -2.9595   -0.7907   -0.2008 H   0  0  0  0  0  0  0  0  0  0  0  0
   -0.9485   -0.4087    0.3482 C   0  0  1  0  0  0  0  0  0  0  0  0
   -0.3666   -0.6914    1.2269 H   0  0  0  0  0  0  0  0  0  0  0  0
   -0.1405   -0.7797   -0.9072 C   0  0  0  0  0  0  0  0  0  0  0  0
    0.2596    0.1315   -1.3541 H   0  0  0  0  0  0  0  0  0  0  0  0
    0.7075   -1.3993   -0.6117 H   0  0  0  0  0  0  0  0  0  0  0  0
   -0.9475   -1.5073   -1.9656 C   0  0  0  0  0  0  0  0  0  0  0  0
   -0.5782   -2.8011   -2.3799 C   0  0  0  0  0  0  0  0  0  0  0  0
    0.2981   -3.2756   -1.9614 H   0  0  0  0  0  0  0  0  0  0  0  0
   -1.3555   -3.4860   -3.3320 C   0  0  0  0  0  0  0  0  0  0  0  0
   -1.0687   -4.4784   -3.6507 H   0  0  0  0  0  0  0  0  0  0  0  0
   -2.5035   -2.8800   -3.8699 C   0  0  0  0  0  0  0  0  0  0  0  0
   -3.0993   -3.4053   -4.6032 H   0  0  0  0  0  0  0  0  0  0  0  0
   -2.8745   -1.5866   -3.4592 C   0  0  0  0  0  0  0  0  0  0  0  0
   -3.7538   -1.1184   -3.8766 H   0  0  0  0  0  0  0  0  0  0  0  0
   -2.0957   -0.9010   -2.5101 C   0  0  0  0  0  0  0  0  0  0  0  0
   -2.3802    0.0952   -2.1974 H   0  0  0  0  0  0  0  0  0  0  0  0
   -1.2168    1.1047    0.4313 C   0  0  0  0  0  0  0  0  0  0  0  0
   -2.0890    1.6186   -0.2704 O   0  0  0  0  0  0  0  0  0  0  0  0
   -0.4674    1.8182    1.2813 N   0  0  0  0  0  0  0  0  0  0  0  0
    0.2640    1.3348    1.7800 H   0  0  0  0  0  0  0  0  0  0  0  0
   -0.5889    3.2615    1.4722 C   0  0  0  0  0  0  0  0  0  0  0  0
   -1.6291    3.5206    1.6805 H   0  0  0  0  0  0  0  0  0  0  0  0
    0.0359    3.5855    2.3049 H   0  0  0  0  0  0  0  0  0  0  0  0
   -0.2760    3.7797    0.5637 H   0  0  0  0  0  0  0  0  0  0  0  0
  5  6  2  0  0  0  0
  5  7  1  0  0  0  0
  2  3  1  0  0  0  0
  2  4  1  0  0  0  0
  2  5  1  0  0  0  0
  1  2  1  0  0  0  0
 25 26  2  0  0  0  0
 25 27  1  0  0  0  0
 23 24  1  0  0  0  0
 21 22  1  0  0  0  0
 21 23  2  0  0  0  0
 19 20  1  0  0  0  0
 19 21  1  0  0  0  0
 17 18  1  0  0  0  0
 17 19  2  0  0  0  0
 15 16  1  0  0  0  0
 15 17  1  0  0  0  0
 14 15  2  0  0  0  0
 14 23  1  0  0  0  0
 11 12  1  0  0  0  0
 11 13  1  0  0  0  0
 11 14  1  0  0  0  0
  9 10  1  0  0  0  0
  9 11  1  0  0  0  0
  9 25  1  0  0  0  0
  7  8  1  0  0  0  0
  7  9  1  0  0  0  0
 29 30  1  0  0  0  0
 29 31  1  0  0  0  0
 29 32  1  0  0  0  0
 27 28  1  0  0  0  0
 27 29  1  0  0  0  0
M  END
$$$$
default_name
  -OEChem-02102213163D

 32 32  0     1  0  0  0  0  0999 V2000
   -3.8405   -3.7518    1.6252 H   0  0  0  0  0  0  0  0  0  0  0  0
   -3.7965   -2.8768    0.9782 C   0  0  0  0  0  0  0  0  0  0  0  0
   -4.5465   -2.1527    1.2902 H   0  0  0  0  0  0  0  0  0  0  0  0
   -3.9745   -3.1748   -0.0538 H   0  0  0  0  0  0  0  0  0  0  0  0
   -2.4245   -2.2537    1.0882 C   0  0  0  0  0  0  0  0  0  0  0  0
   -1.5805   -2.7478    1.8242 O   0  0  0  0  0  0  0  0  0  0  0  0
   -2.2045   -1.1637    0.3562 N   0  0  0  0  0  0  0  0  0  0  0  0
   -2.9595   -0.7907   -0.2008 H   0  0  0  0  0  0  0  0  0  0  0  0
   -0.9485   -0.4087    0.3482 C   0  0  1  0  0  0  0  0  0  0  0  0
   -0.3666   -0.6914    1.2269 H   0  0  0  0  0  0  0  0  0  0  0  0
   -0.1405   -0.7797   -0.9072 C   0  0  0  0  0  0  0  0  0  0  0  0
    0.2596    0.1315   -1.3541 H   0  0  0  0  0  0  0  0  0  0  0  0
    0.7075   -1.3993   -0.6117 H   0  0  0  0  0  0  0  0  0  0  0  0
   -0.9475   -1.5073   -1.9656 C   0  0  0  0  0  0  0  0  0  0  0  0
   -0.7860   -2.8924   -2.1587 C   0  0  0  0  0  0  0  0  0  0  0  0
   -0.0675   -3.4427   -1.5678 H   0  0  0  0  0  0  0  0  0  0  0  0
   -1.5677   -3.5677   -3.1141 C   0  0  0  0  0  0  0  0  0  0  0  0
   -1.4403   -4.6308   -3.2626 H   0  0  0  0  0  0  0  0  0  0  0  0
   -2.5130   -2.8604   -3.8761 C   0  0  0  0  0  0  0  0  0  0  0  0
   -3.1119   -3.3788   -4.6117 H   0  0  0  0  0  0  0  0  0  0  0  0
   -2.6759   -1.4760   -3.6867 C   0  0  0  0  0  0  0  0  0  0  0  0
   -3.3986   -0.9311   -4.2762 H   0  0  0  0  0  0  0  0  0  0  0  0
   -1.8921   -0.8008   -2.7342 C   0  0  0  0  0  0  0  0  0  0  0  0
   -2.0160    0.2649   -2.5917 H   0  0  0  0  0  0  0  0  0  0  0  0
   -1.2168    1.1047    0.4313 C   0  0  0  0  0  0  0  0  0  0  0  0
   -2.0890    1.6186   -0.2704 O   0  0  0  0  0  0  0  0  0  0  0  0
   -0.4674    1.8182    1.2813 N   0  0  0  0  0  0  0  0  0  0  0  0
    0.2640    1.3348    1.7800 H   0  0  0  0  0  0  0  0  0  0  0  0
   -0.5889    3.2615    1.4722 C   0  0  0  0  0  0  0  0  0  0  0  0
   -1.6291    3.5206    1.6805 H   0  0  0  0  0  0  0  0  0  0  0  0
    0.0359    3.5855    2.3049 H   0  0  0  0  0  0  0  0  0  0  0  0
   -0.2760    3.7797    0.5637 H   0  0  0  0  0  0  0  0  0  0  0  0
  5  6  2  0  0  0  0
  5  7  1  0  0  0  0
  2  3  1  0  0  0  0
  2  4  1  0  0  0  0
  2  5  1  0  0  0  0
  1  2  1  0  0  0  0
 25 26  2  0  0  0  0
 25 27  1  0  0  0  0
 23 24  1  0  0  0  0
 21 22  1  0  0  0  0
 21 23  2  0  0  0  0
 19 20  1  0  0  0  0
 19 21  1  0  0  0  0
 17 18  1  0  0  0  0
 17 19  2  0  0  0  0
 15 16  1  0  0  0  0
 15 17  1  0  0  0  0
 14 15  2  0  0  0  0
 14 23  1  0  0  0  0
 11 12  1  0  0  0  0
 11 13  1  0  0  0  0
 11 14  1  0  0  0  0
  9 10  1  0  0  0  0
  9 11  1  0  0  0  0
  9 25  1  0  0  0  0
  7  8  1  0  0  0  0
  7  9  1  0  0  0  0
 29 30  1  0  0  0  0
 29 31  1  0  0  0  0
 29 32  1  0  0  0  0
 27 28  1  0  0  0  0
 27 29  1  0  0  0  0
M  END
$$$$
default_name
  -OEChem-02102213163D

 32 32  0     1  0  0  0  0  0999 V2000
   -3.8405   -3.7518    1.6252 H   0  0  0  0  0  0  0  0  0  0  0  0
   -3.7965   -2.8768    0.9782 C   0  0  0  0  0  0  0  0  0  0  0  0
   -4.5465   -2.1527    1.2902 H   0  0  0  0  0  0  0  0  0  0  0  0
   -3.9745   -3.1748   -0.0538 H   0  0  0  0  0  0  0  0  0  0  0  0
   -2.4245   -2.2537    1.0882 C   0  0  0  0  0  0  0  0  0  0  0  0
   -1.5805   -2.7478    1.8242 O   0  0  0  0  0  0  0  0  0  0  0  0
   -2.2045   -1.1637    0.3562 N   0  0  0  0  0  0  0  0  0  0  0  0
   -2.9595   -0.7907   -0.2008 H   0  0  0  0  0  0  0  0  0  0  0  0
   -0.9485   -0.4087    0.3482 C   0  0  1  0  0  0  0  0  0  0  0  0
   -0.3666   -0.6914    1.2269 H   0  0  0  0  0  0  0  0  0  0  0  0
   -0.1405   -0.7797   -0.9072 C   0  0  0  0  0  0  0  0  0  0  0  0
    0.2596    0.1315   -1.3541 H   0  0  0  0  0  0  0  0  0  0  0  0
    0.7075   -1.3993   -0.6117 H   0  0  0  0  0  0  0  0  0  0  0  0
   -0.9475   -1.5073   -1.9656 C   0  0  0  0  0  0  0  0  0  0  0  0
   -1.0306   -2.9126   -1.9584 C   0  0  0  0  0  0  0  0  0  0  0  0
   -0.4997   -3.4839   -1.2099 H   0  0  0  0  0  0  0  0  0  0  0  0
   -1.8145   -3.5783   -2.9186 C   0  0  0  0  0  0  0  0  0  0  0  0
   -1.8749   -4.6576   -2.9129 H   0  0  0  0  0  0  0  0  0  0  0  0
   -2.5179   -2.8406   -3.8860 C   0  0  0  0  0  0  0  0  0  0  0  0
   -3.1183   -3.3522   -4.6252 H   0  0  0  0  0  0  0  0  0  0  0  0
   -2.4358   -1.4363   -3.8970 C   0  0  0  0  0  0  0  0  0  0  0  0
   -2.9720   -0.8694   -4.6438 H   0  0  0  0  0  0  0  0  0  0  0  0
   -1.6496   -0.7715   -2.9392 C   0  0  0  0  0  0  0  0  0  0  0  0
   -1.5846    0.3088   -2.9508 H   0  0  0  0  0  0  0  0  0  0  0  0
   -1.2168    1.1047    0.4313 C   0  0  0  0  0  0  0  0  0  0  0  0
   -2.0890    1.6186   -0.2704 O   0  0  0  0  0  0  0  0  0  0  0  0
   -0.4674    1.8182    1.2813 N   0  0  0  0  0  0  0  0  0  0  0  0
    0.2640    1.3348    1.7800 H   0  0  0  0  0  0  0  0  0  0  0  0
   -0.5889    3.2615    1.4722 C   0  0  0  0  0  0  0  0  0  0  0  0
   -1.6291    3.5206    1.6805 H   0  0  0  0  0  0  0  0  0  0  0  0
    0.0359    3.5855    2.3049 H   0  0  0  0  0  0  0  0  0  0  0  0
   -0.2760    3.7797    0.5637 H   0  0  0  0  0  0  0  0  0  0  0  0
  5  6  2  0  0  0  0
  5  7  1  0  0  0  0
  2  3  1  0  0  0  0
  2  4  1  0  0  0  0
  2  5  1  0  0  0  0
  1  2  1  0  0  0  0
 25 26  2  0  0  0  0
 25 27  1  0  0  0  0
 23 24  1  0  0  0  0
 21 22  1  0  0  0  0
 21 23  2  0  0  0  0
 19 20  1  0  0  0  0
 19 21  1  0  0  0  0
 17 18  1  0  0  0  0
 17 19  2  0  0  0  0
 15 16  1  0  0  0  0
 15 17  1  0  0  0  0
 14 15  2  0  0  0  0
 14 23  1  0  0  0  0
 11 12  1  0  0  0  0
 11 13  1  0  0  0  0
 11 14  1  0  0  0  0
  9 10  1  0  0  0  0
  9 11  1  0  0  0  0
  9 25  1  0  0  0  0
  7  8  1  0  0  0  0
  7  9  1  0  0  0  0
 29 30  1  0  0  0  0
 29 31  1  0  0  0  0
 29 32  1  0  0  0  0
 27 28  1  0  0  0  0
 27 29  1  0  0  0  0
M  END
$$$$
default_name
  -OEChem-02102213163D

 32 32  0     1  0  0  0  0  0999 V2000
   -3.8405   -3.7518    1.6252 H   0  0  0  0  0  0  0  0  0  0  0  0
   -3.7965   -2.8768    0.9782 C   0  0  0  0  0  0  0  0  0  0  0  0
   -4.5465   -2.1527    1.2902 H   0  0  0  0  0  0  0  0  0  0  0  0
   -3.9745   -3.1748   -0.0538 H   0  0  0  0  0  0  0  0  0  0  0  0
   -2.4245   -2.2537    1.0882 C   0  0  0  0  0  0  0  0  0  0  0  0
   -1.5805   -2.7478    1.8242 O   0  0  0  0  0  0  0  0  0  0  0  0
   -2.2045   -1.1637    0.3562 N   0  0  0  0  0  0  0  0  0  0  0  0
   -2.9595   -0.7907   -0.2008 H   0  0  0  0  0  0  0  0  0  0  0  0
   -0.9485   -0.4087    0.3482 C   0  0  1  0  0  0  0  0  0  0  0  0
   -0.3666   -0.6914    1.2269 H   0  0  0  0  0  0  0  0  0  0  0  0
   -0.1405   -0.7797   -0.9072 C   0  0  0  0  0  0  0  0  0  0  0  0
    0.2596    0.1315   -1.3541 H   0  0  0  0  0  0  0  0  0  0  0  0
    0.7075   -1.3993   -0.6117 H   0  0  0  0  0  0  0  0  0  0  0  0
   -0.9475   -1.5073   -1.9656 C   0  0  0  0  0  0  0  0  0  0  0  0
   -1.2954   -2.8604   -1.7924 C   0  0  0  0  0  0  0  0  0  0  0  0
   -0.9690   -3.3963   -0.9123 H   0  0  0  0  0  0  0  0  0  0  0  0
   -2.0791   -3.5170   -2.7591 C   0  0  0  0  0  0  0  0  0  0  0  0
   -2.3429   -4.5567   -2.6254 H   0  0  0  0  0  0  0  0  0  0  0  0
   -2.5177   -2.8220   -3.8989 C   0  0  0  0  0  0  0  0  0  0  0  0
   -3.1179   -3.3272   -4.6427 H   0  0  0  0  0  0  0  0  0  0  0  0
   -2.1706   -1.4703   -4.0758 C   0  0  0  0  0  0  0  0  0  0  0  0
   -2.5032   -0.9374   -4.9545 H   0  0  0  0  0  0  0  0  0  0  0  0
   -1.3846   -0.8153   -3.1112 C   0  0  0  0  0  0  0  0  0  0  0  0
   -1.1155    0.2237   -3.2501 H   0  0  0  0  0  0  0  0  0  0  0  0
   -1.2168    1.1047    0.4313 C   0  0  0  0  0  0  0  0  0  0  0  0
   -2.0890    1.6186   -0.2704 O   0  0  0  0  0  0  0  0  0  0  0  0
   -0.4674    1.8182    1.2813 N   0  0  0  0  0  0  0  0  0  0  0  0
    0.2640    1.3348    1.7800 H   0  0  0  0  0  0  0  0  0  0  0  0
   -0.5889    3.2615    1.4722 C   0  0  0  0  0  0  0  0  0  0  0  0
   -1.6291    3.5206    1.6805 H   0  0  0  0  0  0  0  0  0  0  0  0
    0.0359    3.5855    2.3049 H   0  0  0  0  0  0  0  0  0  0  0  0
   -0.2760    3.7797    0.5637 H   0  0  0  0  0  0  0  0  0  0  0  0
  5  6  2  0  0  0  0
  5  7  1  0  0  0  0
  2  3  1  0  0  0  0
  2  4  1  0  0  0  0
  2  5  1  0  0  0  0
  1  2  1  0  0  0  0
 25 26  2  0  0  0  0
 25 27  1  0  0  0  0
 23 24  1  0  0  0  0
 21 22  1  0  0  0  0
 21 23  2  0  0  0  0
 19 20  1  0  0  0  0
 19 21  1  0  0  0  0
 17 18  1  0  0  0  0
 17 19  2  0  0  0  0
 15 16  1  0  0  0  0
 15 17  1  0  0  0  0
 14 15  2  0  0  0  0
 14 23  1  0  0  0  0
 11 12  1  0  0  0  0
 11 13  1  0  0  0  0
 11 14  1  0  0  0  0
  9 10  1  0  0  0  0
  9 11  1  0  0  0  0
  9 25  1  0  0  0  0
  7  8  1  0  0  0  0
  7  9  1  0  0  0  0
 29 30  1  0  0  0  0
 29 31  1  0  0  0  0
 29 32  1  0  0  0  0
 27 28  1  0  0  0  0
 27 29  1  0  0  0  0
M  END
$$$$
default_name
  -OEChem-02102213163D

 32 32  0     1  0  0  0  0  0999 V2000
   -3.8405   -3.7518    1.6252 H   0  0  0  0  0  0  0  0  0  0  0  0
   -3.7965   -2.8768    0.9782 C   0  0  0  0  0  0  0  0  0  0  0  0
   -4.5465   -2.1527    1.2902 H   0  0  0  0  0  0  0  0  0  0  0  0
   -3.9745   -3.1748   -0.0538 H   0  0  0  0  0  0  0  0  0  0  0  0
   -2.4245   -2.2537    1.0882 C   0  0  0  0  0  0  0  0  0  0  0  0
   -1.5805   -2.7478    1.8242 O   0  0  0  0  0  0  0  0  0  0  0  0
   -2.2045   -1.1637    0.3562 N   0  0  0  0  0  0  0  0  0  0  0  0
   -2.9595   -0.7907   -0.2008 H   0  0  0  0  0  0  0  0  0  0  0  0
   -0.9485   -0.4087    0.3482 C   0  0  1  0  0  0  0  0  0  0  0  0
   -0.3666   -0.6914    1.2269 H   0  0  0  0  0  0  0  0  0  0  0  0
   -0.1405   -0.7797   -0.9072 C   0  0  0  0  0  0  0  0  0  0  0  0
    0.2596    0.1315   -1.3541 H   0  0  0  0  0  0  0  0  0  0  0  0
    0.7075   -1.3993   -0.6117 H   0  0  0  0  0  0  0  0  0  0  0  0
   -0.9475   -1.5073   -1.9656 C   0  0  0  0  0  0  0  0  0  0  0  0
   -1.5623   -2.7393   -1.6721 C   0  0  0  0  0  0  0  0  0  0  0  0
   -1.4435   -3.1860   -0.6951 H   0  0  0  0  0  0  0  0  0  0  0  0
   -2.3434   -3.3881   -2.6462 C   0  0  0  0  0  0  0  0  0  0  0  0
   -2.8125   -4.3352   -2.4196 H   0  0  0  0  0  0  0  0  0  0  0  0
   -2.5127   -2.8058   -3.9139 C   0  0  0  0  0  0  0  0  0  0  0  0
   -3.1109   -3.3055   -4.6630 H   0  0  0  0  0  0  0  0  0  0  0  0
   -1.8985   -1.5756   -4.2109 C   0  0  0  0  0  0  0  0  0  0  0  0
   -2.0240   -1.1306   -5.1871 H   0  0  0  0  0  0  0  0  0  0  0  0
   -1.1152   -0.9291   -3.2383 C   0  0  0  0  0  0  0  0  0  0  0  0
   -0.6405    0.0157   -3.4692 H   0  0  0  0  0  0  0  0  0  0  0  0
   -1.2168    1.1047    0.4313 C   0  0  0  0  0  0  0  0  0  0  0  0
   -2.0890    1.6186   -0.2704 O   0  0  0  0  0  0  0  0  0  0  0  0
   -0.4674    1.8182    1.2813 N   0  0  0  0  0  0  0  0  0  0  0  0
    0.2640    1.3348    1.7800 H   0  0  0  0  0  0  0  0  0  0  0  0
   -0.5889    3.2615    1.4722 C   0  0  0  0  0  0  0  0  0  0  0  0
   -1.6291    3.5206    1.6805 H   0  0  0  0  0  0  0  0  0  0  0  0
    0.0359    3.5855    2.3049 H   0  0  0  0  0  0  0  0  0  0  0  0
   -0.2760    3.7797    0.5637 H   0  0  0  0  0  0  0  0  0  0  0  0
  5  6  2  0  0  0  0
  5  7  1  0  0  0  0
  2  3  1  0  0  0  0
  2  4  1  0  0  0  0
  2  5  1  0  0  0  0
  1  2  1  0  0  0  0
 25 26  2  0  0  0  0
 25 27  1  0  0  0  0
 23 24  1  0  0  0  0
 21 22  1  0  0  0  0
 21 23  2  0  0  0  0
 19 20  1  0  0  0  0
 19 21  1  0  0  0  0
 17 18  1  0  0  0  0
 17 19  2  0  0  0  0
 15 16  1  0  0  0  0
 15 17  1  0  0  0  0
 14 15  2  0  0  0  0
 14 23  1  0  0  0  0
 11 12  1  0  0  0  0
 11 13  1  0  0  0  0
 11 14  1  0  0  0  0
  9 10  1  0  0  0  0
  9 11  1  0  0  0  0
  9 25  1  0  0  0  0
  7  8  1  0  0  0  0
  7  9  1  0  0  0  0
 29 30  1  0  0  0  0
 29 31  1  0  0  0  0
 29 32  1  0  0  0  0
 27 28  1  0  0  0  0
 27 29  1  0  0  0  0
M  END
$$$$
default_name
  -OEChem-02102213163D

 32 32  0     1  0  0  0  0  0999 V2000
   -3.8405   -3.7518    1.6252 H   0  0  0  0  0  0  0  0  0  0  0  0
   -3.7965   -2.8768    0.9782 C   0  0  0  0  0  0  0  0  0  0  0  0
   -4.5465   -2.1527    1.2902 H   0  0  0  0  0  0  0  0  0  0  0  0
   -3.9745   -3.1748   -0.0538 H   0  0  0  0  0  0  0  0  0  0  0  0
   -2.4245   -2.2537    1.0882 C   0  0  0  0  0  0  0  0  0  0  0  0
   -1.5805   -2.7478    1.8242 O   0  0  0  0  0  0  0  0  0  0  0  0
   -2.2045   -1.1637    0.3562 N   0  0  0  0  0  0  0  0  0  0  0  0
   -2.9595   -0.7907   -0.2008 H   0  0  0  0  0  0  0  0  0  0  0  0
   -0.9485   -0.4087    0.3482 C   0  0  1  0  0  0  0  0  0  0  0  0
   -0.3666   -0.6914    1.2269 H   0  0  0  0  0  0  0  0  0  0  0  0
   -0.1405   -0.7797   -0.9072 C   0  0  0  0  0  0  0  0  0  0  0  0
    0.2596    0.1315   -1.3541 H   0  0  0  0  0  0  0  0  0  0  0  0
    0.7075   -1.3993   -0.6117 H   0  0  0  0  0  0  0  0  0  0  0  0
   -0.9475   -1.5073   -1.9656 C   0  0  0  0  0  0  0  0  0  0  0  0
   -1.8132   -2.5575   -1.6058 C   0  0  0  0  0  0  0  0  0  0  0  0
   -1.8908   -2.8673   -0.5731 H   0  0  0  0  0  0  0  0  0  0  0  0
   -2.5894   -3.2002   -2.5877 C   0  0  0  0  0  0  0  0  0  0  0  0
   -3.2516   -4.0081   -2.3097 H   0  0  0  0  0  0  0  0  0  0  0  0
   -2.5030   -2.7932   -3.9299 C   0  0  0  0  0  0  0  0  0  0  0  0
   -3.0976   -3.2886   -4.6847 H   0  0  0  0  0  0  0  0  0  0  0  0
   -1.6378   -1.7451   -4.2931 C   0  0  0  0  0  0  0  0  0  0  0  0
   -1.5672   -1.4357   -5.3256 H   0  0  0  0  0  0  0  0  0  0  0  0
   -0.8597   -1.1052   -3.3120 C   0  0  0  0  0  0  0  0  0  0  0  0
   -0.1920   -0.3012   -3.5932 H   0  0  0  0  0  0  0  0  0  0  0  0
   -1.2168    1.1047    0.4313 C   0  0  0  0  0  0  0  0  0  0  0  0
   -2.0890    1.6186   -0.2704 O   0  0  0  0  0  0  0  0  0  0  0  0
   -0.4674    1.8182    1.2813 N   0  0  0  0  0  0  0  0  0  0  0  0
    0.2640    1.3348    1.7800 H   0  0  0  0  0  0  0  0  0  0  0  0
   -0.5889    3.2615    1.4722 C   0  0  0  0  0  0  0  0  0  0  0  0
   -1.6291    3.5206    1.6805 H   0  0  0  0  0  0  0  0  0  0  0  0
    0.0359    3.5855    2.3049 H   0  0  0  0  0  0  0  0  0  0  0  0
   -0.2760    3.7797    0.5637 H   0  0  0  0  0  0  0  0  0  0  0  0
  5  6  2  0  0  0  0
  5  7  1  0  0  0  0
  2  3  1  0  0  0  0
  2  4  1  0  0  0  0
  2  5  1  0  0  0  0
  1  2  1  0  0  0  0
 25 26  2  0  0  0  0
 25 27  1  0  0  0  0
 23 24  1  0  0  0  0
 21 22  1  0  0  0  0
 21 23  2  0  0  0  0
 19 20  1  0  0  0  0
 19 21  1  0  0  0  0
 17 18  1  0  0  0  0
 17 19  2  0  0  0  0
 15 16  1  0  0  0  0
 15 17  1  0  0  0  0
 14 15  2  0  0  0  0
 14 23  1  0  0  0  0
 11 12  1  0  0  0  0
 11 13  1  0  0  0  0
 11 14  1  0  0  0  0
  9 10  1  0  0  0  0
  9 11  1  0  0  0  0
  9 25  1  0  0  0  0
  7  8  1  0  0  0  0
  7  9  1  0  0  0  0
 29 30  1  0  0  0  0
 29 31  1  0  0  0  0
 29 32  1  0  0  0  0
 27 28  1  0  0  0  0
 27 29  1  0  0  0  0
M  END
$$$$
default_name
  -OEChem-02102213163D

 32 32  0     1  0  0  0  0  0999 V2000
   -3.8405   -3.7518    1.6252 H   0  0  0  0  0  0  0  0  0  0  0  0
   -3.7965   -2.8768    0.9782 C   0  0  0  0  0  0  0  0  0  0  0  0
   -4.5465   -2.1527    1.2902 H   0  0  0  0  0  0  0  0  0  0  0  0
   -3.9745   -3.1748   -0.0538 H   0  0  0  0  0  0  0  0  0  0  0  0
   -2.4245   -2.2537    1.0882 C   0  0  0  0  0  0  0  0  0  0  0  0
   -1.5805   -2.7478    1.8242 O   0  0  0  0  0  0  0  0  0  0  0  0
   -2.2045   -1.1637    0.3562 N   0  0  0  0  0  0  0  0  0  0  0  0
   -2.9595   -0.7907   -0.2008 H   0  0  0  0  0  0  0  0  0  0  0  0
   -0.9485   -0.4087    0.3482 C   0  0  1  0  0  0  0  0  0  0  0  0
   -0.3666   -0.6914    1.2269 H   0  0  0  0  0  0  0  0  0  0  0  0
   -0.1405   -0.7797   -0.9072 C   0  0  0  0  0  0  0  0  0  0  0  0
    0.2596    0.1315   -1.3541 H   0  0  0  0  0  0  0  0  0  0  0  0
    0.7075   -1.3993   -0.6117 H   0  0  0  0  0  0  0  0  0  0  0  0
   -0.9475   -1.5073   -1.9656 C   0  0  0  0  0  0  0  0  0  0  0  0
   -2.0310   -2.3275   -1.5979 C   0  0  0  0  0  0  0  0  0  0  0  0
   -2.2805   -2.4618   -0.5548 H   0  0  0  0  0  0  0  0  0  0  0  0
   -2.8004   -2.9663   -2.5877 C   0  0  0  0  0  0  0  0  0  0  0  0
   -3.6304   -3.5977   -2.3030 H   0  0  0  0  0  0  0  0  0  0  0  0
   -2.4894   -2.7849   -3.9460 C   0  0  0  0  0  0  0  0  0  0  0  0
   -3.0791   -3.2776   -4.7063 H   0  0  0  0  0  0  0  0  0  0  0  0
   -1.4064   -1.9672   -4.3168 C   0  0  0  0  0  0  0  0  0  0  0  0
   -1.1639   -1.8320   -5.3607 H   0  0  0  0  0  0  0  0  0  0  0  0
   -0.6356   -1.3316   -3.3273 C   0  0  0  0  0  0  0  0  0  0  0  0
    0.1993   -0.7054   -3.6137 H   0  0  0  0  0  0  0  0  0  0  0  0
   -1.2168    1.1047    0.4313 C   0  0  0  0  0  0  0  0  0  0  0  0
   -2.0890    1.6186   -0.2704 O   0  0  0  0  0  0  0  0  0  0  0  0
   -0.4674    1.8182    1.2813 N   0  0  0  0  0  0  0  0  0  0  0  0
    0.2640    1.3348    1.7800 H   0  0  0  0  0  0  0  0  0  0  0  0
   -0.5889    3.2615    1.4722 C   0  0  0  0  0  0  0  0  0  0  0  0
   -1.6291    3.5206    1.6805 H   0  0  0  0  0  0  0  0  0  0  0  0
    0.0359    3.5855    2.3049 H   0  0  0  0  0  0  0  0  0  0  0  0
   -0.2760    3.7797    0.5637 H   0  0  0  0  0  0  0  0  0  0  0  0
  5  6  2  0  0  0  0
  5  7  1  0  0  0  0
  2  3  1  0  0  0  0
  2  4  1  0  0  0  0
  2  5  1  0  0  0  0
  1  2  1  0  0  0  0
 25 26  2  0  0  0  0
 25 27  1  0  0  0  0
 23 24  1  0  0  0  0
 21 22  1  0  0  0  0
 21 23  2  0  0  0  0
 19 20  1  0  0  0  0
 19 21  1  0  0  0  0
 17 18  1  0  0  0  0
 17 19  2  0  0  0  0
 15 16  1  0  0  0  0
 15 17  1  0  0  0  0
 14 15  2  0  0  0  0
 14 23  1  0  0  0  0
 11 12  1  0  0  0  0
 11 13  1  0  0  0  0
 11 14  1  0  0  0  0
  9 10  1  0  0  0  0
  9 11  1  0  0  0  0
  9 25  1  0  0  0  0
  7  8  1  0  0  0  0
  7  9  1  0  0  0  0
 29 30  1  0  0  0  0
 29 31  1  0  0  0  0
 29 32  1  0  0  0  0
 27 28  1  0  0  0  0
 27 29  1  0  0  0  0
M  END
$$$$
default_name
  -OEChem-02102213163D

 32 32  0     1  0  0  0  0  0999 V2000
   -3.8405   -3.7518    1.6252 H   0  0  0  0  0  0  0  0  0  0  0  0
   -3.7965   -2.8768    0.9782 C   0  0  0  0  0  0  0  0  0  0  0  0
   -4.5465   -2.1527    1.2902 H   0  0  0  0  0  0  0  0  0  0  0  0
   -3.9745   -3.1748   -0.0538 H   0  0  0  0  0  0  0  0  0  0  0  0
   -2.4245   -2.2537    1.0882 C   0  0  0  0  0  0  0  0  0  0  0  0
   -1.5805   -2.7478    1.8242 O   0  0  0  0  0  0  0  0  0  0  0  0
   -2.2045   -1.1637    0.3562 N   0  0  0  0  0  0  0  0  0  0  0  0
   -2.9595   -0.7907   -0.2008 H   0  0  0  0  0  0  0  0  0  0  0  0
   -0.9485   -0.4087    0.3482 C   0  0  1  0  0  0  0  0  0  0  0  0
   -0.3666   -0.6914    1.2269 H   0  0  0  0  0  0  0  0  0  0  0  0
   -0.1405   -0.7797   -0.9072 C   0  0  0  0  0  0  0  0  0  0  0  0
    0.2596    0.1315   -1.3541 H   0  0  0  0  0  0  0  0  0  0  0  0
    0.7075   -1.3993   -0.6117 H   0  0  0  0  0  0  0  0  0  0  0  0
   -0.9475   -1.5073   -1.9656 C   0  0  0  0  0  0  0  0  0  0  0  0
   -2.2008   -2.0649   -1.6489 C   0  0  0  0  0  0  0  0  0  0  0  0
   -2.5859   -1.9973   -0.6413 H   0  0  0  0  0  0  0  0  0  0  0  0
   -2.9620   -2.7023   -2.6460 C   0  0  0  0  0  0  0  0  0  0  0  0
   -3.9229   -3.1320   -2.4002 H   0  0  0  0  0  0  0  0  0  0  0  0
   -2.4728   -2.7816   -3.9609 C   0  0  0  0  0  0  0  0  0  0  0  0
   -3.0566   -3.2734   -4.7264 H   0  0  0  0  0  0  0  0  0  0  0  0
   -1.2201   -2.2268   -4.2804 C   0  0  0  0  0  0  0  0  0  0  0  0
   -0.8415   -2.2925   -5.2899 H   0  0  0  0  0  0  0  0  0  0  0  0
   -0.4582   -1.5928   -3.2830 C   0  0  0  0  0  0  0  0  0  0  0  0
    0.5069   -1.1693   -3.5293 H   0  0  0  0  0  0  0  0  0  0  0  0
   -1.2168    1.1047    0.4313 C   0  0  0  0  0  0  0  0  0  0  0  0
   -2.0890    1.6186   -0.2704 O   0  0  0  0  0  0  0  0  0  0  0  0
   -0.4674    1.8182    1.2813 N   0  0  0  0  0  0  0  0  0  0  0  0
    0.2640    1.3348    1.7800 H   0  0  0  0  0  0  0  0  0  0  0  0
   -0.5889    3.2615    1.4722 C   0  0  0  0  0  0  0  0  0  0  0  0
   -1.6291    3.5206    1.6805 H   0  0  0  0  0  0  0  0  0  0  0  0
    0.0359    3.5855    2.3049 H   0  0  0  0  0  0  0  0  0  0  0  0
   -0.2760    3.7797    0.5637 H   0  0  0  0  0  0  0  0  0  0  0  0
  5  6  2  0  0  0  0
  5  7  1  0  0  0  0
  2  3  1  0  0  0  0
  2  4  1  0  0  0  0
  2  5  1  0  0  0  0
  1  2  1  0  0  0  0
 25 26  2  0  0  0  0
 25 27  1  0  0  0  0
 23 24  1  0  0  0  0
 21 22  1  0  0  0  0
 21 23  2  0  0  0  0
 19 20  1  0  0  0  0
 19 21  1  0  0  0  0
 17 18  1  0  0  0  0
 17 19  2  0  0  0  0
 15 16  1  0  0  0  0
 15 17  1  0  0  0  0
 14 15  2  0  0  0  0
 14 23  1  0  0  0  0
 11 12  1  0  0  0  0
 11 13  1  0  0  0  0
 11 14  1  0  0  0  0
  9 10  1  0  0  0  0
  9 11  1  0  0  0  0
  9 25  1  0  0  0  0
  7  8  1  0  0  0  0
  7  9  1  0  0  0  0
 29 30  1  0  0  0  0
 29 31  1  0  0  0  0
 29 32  1  0  0  0  0
 27 28  1  0  0  0  0
 27 29  1  0  0  0  0
M  END
$$$$
default_name
  -OEChem-02102213163D

 32 32  0     1  0  0  0  0  0999 V2000
   -3.8405   -3.7518    1.6252 H   0  0  0  0  0  0  0  0  0  0  0  0
   -3.7965   -2.8768    0.9782 C   0  0  0  0  0  0  0  0  0  0  0  0
   -4.5465   -2.1527    1.2902 H   0  0  0  0  0  0  0  0  0  0  0  0
   -3.9745   -3.1748   -0.0538 H   0  0  0  0  0  0  0  0  0  0  0  0
   -2.4245   -2.2537    1.0882 C   0  0  0  0  0  0  0  0  0  0  0  0
   -1.5805   -2.7478    1.8242 O   0  0  0  0  0  0  0  0  0  0  0  0
   -2.2045   -1.1637    0.3562 N   0  0  0  0  0  0  0  0  0  0  0  0
   -2.9595   -0.7907   -0.2008 H   0  0  0  0  0  0  0  0  0  0  0  0
   -0.9485   -0.4087    0.3482 C   0  0  1  0  0  0  0  0  0  0  0  0
   -0.3666   -0.6914    1.2269 H   0  0  0  0  0  0  0  0  0  0  0  0
   -0.1405   -0.7797   -0.9072 C   0  0  0  0  0  0  0  0  0  0  0  0
    0.2596    0.1315   -1.3541 H   0  0  0  0  0  0  0  0  0  0  0  0
    0.7075   -1.3993   -0.6117 H   0  0  0  0  0  0  0  0  0  0  0  0
   -0.9475   -1.5073   -1.9656 C   0  0  0  0  0  0  0  0  0  0  0  0
   -2.3110   -1.7876   -1.7555 C   0  0  0  0  0  0  0  0  0  0  0  0
   -2.7863   -1.5053   -0.8267 H   0  0  0  0  0  0  0  0  0  0  0  0
   -3.0631   -2.4261   -2.7588 C   0  0  0  0  0  0  0  0  0  0  0  0
   -4.1093   -2.6427   -2.5944 H   0  0  0  0  0  0  0  0  0  0  0  0
   -2.4542   -2.7835   -3.9738 C   0  0  0  0  0  0  0  0  0  0  0  0
   -3.0315   -3.2761   -4.7437 H   0  0  0  0  0  0  0  0  0  0  0  0
   -1.0916   -2.5062   -4.1864 C   0  0  0  0  0  0  0  0  0  0  0  0
   -0.6221   -2.7857   -5.1181 H   0  0  0  0  0  0  0  0  0  0  0  0
   -0.3394   -1.8711   -3.1822 C   0  0  0  0  0  0  0  0  0  0  0  0
    0.7097   -1.6613   -3.3457 H   0  0  0  0  0  0  0  0  0  0  0  0
   -1.2168    1.1047    0.4313 C   0  0  0  0  0  0  0  0  0  0  0  0
   -2.0890    1.6186   -0.2704 O   0  0  0  0  0  0  0  0  0  0  0  0
   -0.4674    1.8182    1.2813 N   0  0  0  0  0  0  0  0  0  0  0  0
    0.2640    1.3348    1.7800 H   0  0  0  0  0  0  0  0  0  0  0  0
   -0.5889    3.2615    1.4722 C   0  0  0  0  0  0  0  0  0  0  0  0
   -1.6291    3.5206    1.6805 H   0  0  0  0  0  0  0  0  0  0  0  0
    0.0359    3.5855    2.3049 H   0  0  0  0  0  0  0  0  0  0  0  0
   -0.2760    3.7797    0.5637 H   0  0  0  0  0  0  0  0  0  0  0  0
  5  6  2  0  0  0  0
  5  7  1  0  0  0  0
  2  3  1  0  0  0  0
  2  4  1  0  0  0  0
  2  5  1  0  0  0  0
  1  2  1  0  0  0  0
 25 26  2  0  0  0  0
 25 27  1  0  0  0  0
 23 24  1  0  0  0  0
 21 22  1  0  0  0  0
 21 23  2  0  0  0  0
 19 20  1  0  0  0  0
 19 21  1  0  0  0  0
 17 18  1  0  0  0  0
 17 19  2  0  0  0  0
 15 16  1  0  0  0  0
 15 17  1  0  0  0  0
 14 15  2  0  0  0  0
 14 23  1  0  0  0  0
 11 12  1  0  0  0  0
 11 13  1  0  0  0  0
 11 14  1  0  0  0  0
  9 10  1  0  0  0  0
  9 11  1  0  0  0  0
  9 25  1  0  0  0  0
  7  8  1  0  0  0  0
  7  9  1  0  0  0  0
 29 30  1  0  0  0  0
 29 31  1  0  0  0  0
 29 32  1  0  0  0  0
 27 28  1  0  0  0  0
 27 29  1  0  0  0  0
M  END
$$$$
default_name
  -OEChem-02102213163D

 32 32  0     1  0  0  0  0  0999 V2000
   -3.8405   -3.7518    1.6252 H   0  0  0  0  0  0  0  0  0  0  0  0
   -3.7965   -2.8768    0.9782 C   0  0  0  0  0  0  0  0  0  0  0  0
   -4.5465   -2.1527    1.2902 H   0  0  0  0  0  0  0  0  0  0  0  0
   -3.9745   -3.1748   -0.0538 H   0  0  0  0  0  0  0  0  0  0  0  0
   -2.4245   -2.2537    1.0882 C   0  0  0  0  0  0  0  0  0  0  0  0
   -1.5805   -2.7478    1.8242 O   0  0  0  0  0  0  0  0  0  0  0  0
   -2.2045   -1.1637    0.3562 N   0  0  0  0  0  0  0  0  0  0  0  0
   -2.9595   -0.7907   -0.2008 H   0  0  0  0  0  0  0  0  0  0  0  0
   -0.9485   -0.4087    0.3482 C   0  0  1  0  0  0  0  0  0  0  0  0
   -0.3666   -0.6914    1.2269 H   0  0  0  0  0  0  0  0  0  0  0  0
   -0.1405   -0.7797   -0.9072 C   0  0  0  0  0  0  0  0  0  0  0  0
    0.2596    0.1315   -1.3541 H   0  0  0  0  0  0  0  0  0  0  0  0
    0.7075   -1.3993   -0.6117 H   0  0  0  0  0  0  0  0  0  0  0  0
   -0.9475   -1.5073   -1.9656 C   0  0  0  0  0  0  0  0  0  0  0  0
   -2.3542   -1.5145   -1.9103 C   0  0  0  0  0  0  0  0  0  0  0  0
   -2.8680   -1.0195   -1.0984 H   0  0  0  0  0  0  0  0  0  0  0  0
   -3.0969   -2.1566   -2.9183 C   0  0  0  0  0  0  0  0  0  0  0  0
   -4.1769   -2.1632   -2.8726 H   0  0  0  0  0  0  0  0  0  0  0  0
   -2.4351   -2.7904   -3.9836 C   0  0  0  0  0  0  0  0  0  0  0  0
   -3.0057   -3.2857   -4.7568 H   0  0  0  0  0  0  0  0  0  0  0  0
   -1.0295   -2.7863   -4.0411 C   0  0  0  0  0  0  0  0  0  0  0  0
   -0.5205   -3.2782   -4.8570 H   0  0  0  0  0  0  0  0  0  0  0  0
   -0.2875   -2.1475   -3.0318 C   0  0  0  0  0  0  0  0  0  0  0  0
    0.7939   -2.1479   -3.0754 H   0  0  0  0  0  0  0  0  0  0  0  0
   -1.2168    1.1047    0.4313 C   0  0  0  0  0  0  0  0  0  0  0  0
   -2.0890    1.6186   -0.2704 O   0  0  0  0  0  0  0  0  0  0  0  0
   -0.4674    1.8182    1.2813 N   0  0  0  0  0  0  0  0  0  0  0  0
    0.2640    1.3348    1.7800 H   0  0  0  0  0  0  0  0  0  0  0  0
   -0.5889    3.2615    1.4722 C   0  0  0  0  0  0  0  0  0  0  0  0
   -1.6291    3.5206    1.6805 H   0  0  0  0  0  0  0  0  0  0  0  0
    0.0359    3.5855    2.3049 H   0  0  0  0  0  0  0  0  0  0  0  0
   -0.2760    3.7797    0.5637 H   0  0  0  0  0  0  0  0  0  0  0  0
  5  6  2  0  0  0  0
  5  7  1  0  0  0  0
  2  3  1  0  0  0  0
  2  4  1  0  0  0  0
  2  5  1  0  0  0  0
  1  2  1  0  0  0  0
 25 26  2  0  0  0  0
 25 27  1  0  0  0  0
 23 24  1  0  0  0  0
 21 22  1  0  0  0  0
 21 23  2  0  0  0  0
 19 20  1  0  0  0  0
 19 21  1  0  0  0  0
 17 18  1  0  0  0  0
 17 19  2  0  0  0  0
 15 16  1  0  0  0  0
 15 17  1  0  0  0  0
 14 15  2  0  0  0  0
 14 23  1  0  0  0  0
 11 12  1  0  0  0  0
 11 13  1  0  0  0  0
 11 14  1  0  0  0  0
  9 10  1  0  0  0  0
  9 11  1  0  0  0  0
  9 25  1  0  0  0  0
  7  8  1  0  0  0  0
  7  9  1  0  0  0  0
 29 30  1  0  0  0  0
 29 31  1  0  0  0  0
 29 32  1  0  0  0  0
 27 28  1  0  0  0  0
 27 29  1  0  0  0  0
M  END
$$$$
default_name
  -OEChem-02102213163D

 32 32  0     1  0  0  0  0  0999 V2000
   -3.8405   -3.7518    1.6252 H   0  0  0  0  0  0  0  0  0  0  0  0
   -3.7965   -2.8768    0.9782 C   0  0  0  0  0  0  0  0  0  0  0  0
   -4.5465   -2.1527    1.2902 H   0  0  0  0  0  0  0  0  0  0  0  0
   -3.9745   -3.1748   -0.0538 H   0  0  0  0  0  0  0  0  0  0  0  0
   -2.4245   -2.2537    1.0882 C   0  0  0  0  0  0  0  0  0  0  0  0
   -1.5805   -2.7478    1.8242 O   0  0  0  0  0  0  0  0  0  0  0  0
   -2.2045   -1.1637    0.3562 N   0  0  0  0  0  0  0  0  0  0  0  0
   -2.9595   -0.7907   -0.2008 H   0  0  0  0  0  0  0  0  0  0  0  0
   -0.9485   -0.4087    0.3482 C   0  0  1  0  0  0  0  0  0  0  0  0
   -0.3666   -0.6914    1.2269 H   0  0  0  0  0  0  0  0  0  0  0  0
   -0.1405   -0.7797   -0.9072 C   0  0  0  0  0  0  0  0  0  0  0  0
    0.2596    0.1315   -1.3541 H   0  0  0  0  0  0  0  0  0  0  0  0
    0.7075   -1.3993   -0.6117 H   0  0  0  0  0  0  0  0  0  0  0  0
   -0.9475   -1.5073   -1.9656 C   0  0  0  0  0  0  0  0  0  0  0  0
   -2.3273   -1.2643   -2.1028 C   0  0  0  0  0  0  0  0  0  0  0  0
   -2.8254   -0.5728   -1.4379 H   0  0  0  0  0  0  0  0  0  0  0  0
   -3.0610   -1.9121   -3.1137 C   0  0  0  0  0  0  0  0  0  0  0  0
   -4.1210   -1.7260   -3.2157 H   0  0  0  0  0  0  0  0  0  0  0  0
   -2.4166   -2.8019   -3.9898 C   0  0  0  0  0  0  0  0  0  0  0  0
   -2.9808   -3.3014   -4.7650 H   0  0  0  0  0  0  0  0  0  0  0  0
   -1.0382   -3.0481   -3.8545 C   0  0  0  0  0  0  0  0  0  0  0  0
   -0.5438   -3.7362   -4.5244 H   0  0  0  0  0  0  0  0  0  0  0  0
   -0.3059   -2.4031   -2.8421 C   0  0  0  0  0  0  0  0  0  0  0  0
    0.7539   -2.5959   -2.7369 H   0  0  0  0  0  0  0  0  0  0  0  0
   -1.2168    1.1047    0.4313 C   0  0  0  0  0  0  0  0  0  0  0  0
   -2.0890    1.6186   -0.2704 O   0  0  0  0  0  0  0  0  0  0  0  0
   -0.4674    1.8182    1.2813 N   0  0  0  0  0  0  0  0  0  0  0  0
    0.2640    1.3348    1.7800 H   0  0  0  0  0  0  0  0  0  0  0  0
   -0.5889    3.2615    1.4722 C   0  0  0  0  0  0  0  0  0  0  0  0
   -1.6291    3.5206    1.6805 H   0  0  0  0  0  0  0  0  0  0  0  0
    0.0359    3.5855    2.3049 H   0  0  0  0  0  0  0  0  0  0  0  0
   -0.2760    3.7797    0.5637 H   0  0  0  0  0  0  0  0  0  0  0  0
  5  6  2  0  0  0  0
  5  7  1  0  0  0  0
  2  3  1  0  0  0  0
  2  4  1  0  0  0  0
  2  5  1  0  0  0  0
  1  2  1  0  0  0  0
 25 26  2  0  0  0  0
 25 27  1  0  0  0  0
 23 24  1  0  0  0  0
 21 22  1  0  0  0  0
 21 23  2  0  0  0  0
 19 20  1  0  0  0  0
 19 21  1  0  0  0  0
 17 18  1  0  0  0  0
 17 19  2  0  0  0  0
 15 16  1  0  0  0  0
 15 17  1  0  0  0  0
 14 15  2  0  0  0  0
 14 23  1  0  0  0  0
 11 12  1  0  0  0  0
 11 13  1  0  0  0  0
 11 14  1  0  0  0  0
  9 10  1  0  0  0  0
  9 11  1  0  0  0  0
  9 25  1  0  0  0  0
  7  8  1  0  0  0  0
  7  9  1  0  0  0  0
 29 30  1  0  0  0  0
 29 31  1  0  0  0  0
 29 32  1  0  0  0  0
 27 28  1  0  0  0  0
 27 29  1  0  0  0  0
M  END
$$$$
default_name
  -OEChem-02102213163D

 32 32  0     1  0  0  0  0  0999 V2000
   -3.8405   -3.7518    1.6252 H   0  0  0  0  0  0  0  0  0  0  0  0
   -3.7965   -2.8768    0.9782 C   0  0  0  0  0  0  0  0  0  0  0  0
   -4.5465   -2.1527    1.2902 H   0  0  0  0  0  0  0  0  0  0  0  0
   -3.9745   -3.1748   -0.0538 H   0  0  0  0  0  0  0  0  0  0  0  0
   -2.4245   -2.2537    1.0882 C   0  0  0  0  0  0  0  0  0  0  0  0
   -1.5805   -2.7478    1.8242 O   0  0  0  0  0  0  0  0  0  0  0  0
   -2.2045   -1.1637    0.3562 N   0  0  0  0  0  0  0  0  0  0  0  0
   -2.9595   -0.7907   -0.2008 H   0  0  0  0  0  0  0  0  0  0  0  0
   -0.9485   -0.4087    0.3482 C   0  0  1  0  0  0  0  0  0  0  0  0
   -0.3666   -0.6914    1.2269 H   0  0  0  0  0  0  0  0  0  0  0  0
   -0.1405   -0.7797   -0.9072 C   0  0  0  0  0  0  0  0  0  0  0  0
    0.2596    0.1315   -1.3541 H   0  0  0  0  0  0  0  0  0  0  0  0
    0.7075   -1.3993   -0.6117 H   0  0  0  0  0  0  0  0  0  0  0  0
   -0.9475   -1.5073   -1.9656 C   0  0  0  0  0  0  0  0  0  0  0  0
   -2.2323   -1.0539   -2.3198 C   0  0  0  0  0  0  0  0  0  0  0  0
   -2.6615   -0.1959   -1.8220 H   0  0  0  0  0  0  0  0  0  0  0  0
   -2.9580   -1.7093   -3.3316 C   0  0  0  0  0  0  0  0  0  0  0  0
   -3.9455   -1.3611   -3.6003 H   0  0  0  0  0  0  0  0  0  0  0  0
   -2.4001   -2.8172   -3.9919 C   0  0  0  0  0  0  0  0  0  0  0  0
   -2.9586   -3.3222   -4.7676 H   0  0  0  0  0  0  0  0  0  0  0  0
   -1.1170   -3.2737   -3.6393 C   0  0  0  0  0  0  0  0  0  0  0  0
   -0.6902   -4.1286   -4.1430 H   0  0  0  0  0  0  0  0  0  0  0  0
   -0.3934   -2.6206   -2.6258 C   0  0  0  0  0  0  0  0  0  0  0  0
    0.5922   -2.9748   -2.3532 H   0  0  0  0  0  0  0  0  0  0  0  0
   -1.2168    1.1047    0.4313 C   0  0  0  0  0  0  0  0  0  0  0  0
   -2.0890    1.6186   -0.2704 O   0  0  0  0  0  0  0  0  0  0  0  0
   -0.4674    1.8182    1.2813 N   0  0  0  0  0  0  0  0  0  0  0  0
    0.2640    1.3348    1.7800 H   0  0  0  0  0  0  0  0  0  0  0  0
   -0.5889    3.2615    1.4722 C   0  0  0  0  0  0  0  0  0  0  0  0
   -1.6291    3.5206    1.6805 H   0  0  0  0  0  0  0  0  0  0  0  0
    0.0359    3.5855    2.3049 H   0  0  0  0  0  0  0  0  0  0  0  0
   -0.2760    3.7797    0.5637 H   0  0  0  0  0  0  0  0  0  0  0  0
  5  6  2  0  0  0  0
  5  7  1  0  0  0  0
  2  3  1  0  0  0  0
  2  4  1  0  0  0  0
  2  5  1  0  0  0  0
  1  2  1  0  0  0  0
 25 26  2  0  0  0  0
 25 27  1  0  0  0  0
 23 24  1  0  0  0  0
 21 22  1  0  0  0  0
 21 23  2  0  0  0  0
 19 20  1  0  0  0  0
 19 21  1  0  0  0  0
 17 18  1  0  0  0  0
 17 19  2  0  0  0  0
 15 16  1  0  0  0  0
 15 17  1  0  0  0  0
 14 15  2  0  0  0  0
 14 23  1  0  0  0  0
 11 12  1  0  0  0  0
 11 13  1  0  0  0  0
 11 14  1  0  0  0  0
  9 10  1  0  0  0  0
  9 11  1  0  0  0  0
  9 25  1  0  0  0  0
  7  8  1  0  0  0  0
  7  9  1  0  0  0  0
 29 30  1  0  0  0  0
 29 31  1  0  0  0  0
 29 32  1  0  0  0  0
 27 28  1  0  0  0  0
 27 29  1  0  0  0  0
M  END
$$$$
default_name
  -OEChem-02102213163D

 32 32  0     1  0  0  0  0  0999 V2000
   -3.8405   -3.7518    1.6252 H   0  0  0  0  0  0  0  0  0  0  0  0
   -3.7965   -2.8768    0.9782 C   0  0  0  0  0  0  0  0  0  0  0  0
   -4.5465   -2.1527    1.2902 H   0  0  0  0  0  0  0  0  0  0  0  0
   -3.9745   -3.1748   -0.0538 H   0  0  0  0  0  0  0  0  0  0  0  0
   -2.4245   -2.2537    1.0882 C   0  0  0  0  0  0  0  0  0  0  0  0
   -1.5805   -2.7478    1.8242 O   0  0  0  0  0  0  0  0  0  0  0  0
   -2.2045   -1.1637    0.3562 N   0  0  0  0  0  0  0  0  0  0  0  0
   -2.9595   -0.7907   -0.2008 H   0  0  0  0  0  0  0  0  0  0  0  0
   -0.9485   -0.4087    0.3482 C   0  0  1  0  0  0  0  0  0  0  0  0
   -0.3666   -0.6914    1.2269 H   0  0  0  0  0  0  0  0  0  0  0  0
   -0.1405   -0.7797   -0.9072 C   0  0  0  0  0  0  0  0  0  0  0  0
    0.2596    0.1315   -1.3541 H   0  0  0  0  0  0  0  0  0  0  0  0
    0.7075   -1.3993   -0.6117 H   0  0  0  0  0  0  0  0  0  0  0  0
   -0.9475   -1.5073   -1.9656 C   0  0  0  0  0  0  0  0  0  0  0  0
   -2.0756   -0.8978   -2.5467 C   0  0  0  0  0  0  0  0  0  0  0  0
   -2.3874    0.0858   -2.2246 H   0  0  0  0  0  0  0  0  0  0  0  0
   -2.7948   -1.5621   -3.5573 C   0  0  0  0  0  0  0  0  0  0  0  0
   -3.6623   -1.0933   -4.0003 H   0  0  0  0  0  0  0  0  0  0  0  0
   -2.3866   -2.8352   -3.9898 C   0  0  0  0  0  0  0  0  0  0  0  0
   -2.9406   -3.3466   -4.7645 H   0  0  0  0  0  0  0  0  0  0  0  0
   -1.2606   -3.4478   -3.4102 C   0  0  0  0  0  0  0  0  0  0  0  0
   -0.9499   -4.4287   -3.7387 H   0  0  0  0  0  0  0  0  0  0  0  0
   -0.5441   -2.7851   -2.3979 C   0  0  0  0  0  0  0  0  0  0  0  0
    0.3200   -3.2588   -1.9505 H   0  0  0  0  0  0  0  0  0  0  0  0
   -1.2168    1.1047    0.4313 C   0  0  0  0  0  0  0  0  0  0  0  0
   -2.0890    1.6186   -0.2704 O   0  0  0  0  0  0  0  0  0  0  0  0
   -0.4674    1.8182    1.2813 N   0  0  0  0  0  0  0  0  0  0  0  0
    0.2640    1.3348    1.7800 H   0  0  0  0  0  0  0  0  0  0  0  0
   -0.5889    3.2615    1.4722 C   0  0  0  0  0  0  0  0  0  0  0  0
   -1.6291    3.5206    1.6805 H   0  0  0  0  0  0  0  0  0  0  0  0
    0.0359    3.5855    2.3049 H   0  0  0  0  0  0  0  0  0  0  0  0
   -0.2760    3.7797    0.5637 H   0  0  0  0  0  0  0  0  0  0  0  0
  5  6  2  0  0  0  0
  5  7  1  0  0  0  0
  2  3  1  0  0  0  0
  2  4  1  0  0  0  0
  2  5  1  0  0  0  0
  1  2  1  0  0  0  0
 25 26  2  0  0  0  0
 25 27  1  0  0  0  0
 23 24  1  0  0  0  0
 21 22  1  0  0  0  0
 21 23  2  0  0  0  0
 19 20  1  0  0  0  0
 19 21  1  0  0  0  0
 17 18  1  0  0  0  0
 17 19  2  0  0  0  0
 15 16  1  0  0  0  0
 15 17  1  0  0  0  0
 14 15  2  0  0  0  0
 14 23  1  0  0  0  0
 11 12  1  0  0  0  0
 11 13  1  0  0  0  0
 11 14  1  0  0  0  0
  9 10  1  0  0  0  0
  9 11  1  0  0  0  0
  9 25  1  0  0  0  0
  7  8  1  0  0  0  0
  7  9  1  0  0  0  0
 29 30  1  0  0  0  0
 29 31  1  0  0  0  0
 29 32  1  0  0  0  0
 27 28  1  0  0  0  0
 27 29  1  0  0  0  0
M  END
$$$$
default_name
  -OEChem-02102213163D

 32 32  0     1  0  0  0  0  0999 V2000
   -3.8405   -3.7518    1.6252 H   0  0  0  0  0  0  0  0  0  0  0  0
   -3.7965   -2.8768    0.9782 C   0  0  0  0  0  0  0  0  0  0  0  0
   -4.5465   -2.1527    1.2902 H   0  0  0  0  0  0  0  0  0  0  0  0
   -3.9745   -3.1748   -0.0538 H   0  0  0  0  0  0  0  0  0  0  0  0
   -2.4245   -2.2537    1.0882 C   0  0  0  0  0  0  0  0  0  0  0  0
   -1.5805   -2.7478    1.8242 O   0  0  0  0  0  0  0  0  0  0  0  0
   -2.2045   -1.1637    0.3562 N   0  0  0  0  0  0  0  0  0  0  0  0
   -2.9595   -0.7907   -0.2008 H   0  0  0  0  0  0  0  0  0  0  0  0
   -0.9485   -0.4087    0.3482 C   0  0  1  0  0  0  0  0  0  0  0  0
   -0.3666   -0.6914    1.2269 H   0  0  0  0  0  0  0  0  0  0  0  0
   -0.1405   -0.7797   -0.9072 C   0  0  0  0  0  0  0  0  0  0  0  0
    0.2596    0.1315   -1.3541 H   0  0  0  0  0  0  0  0  0  0  0  0
    0.7075   -1.3993   -0.6117 H   0  0  0  0  0  0  0  0  0  0  0  0
   -0.9475   -1.5073   -1.9656 C   0  0  0  0  0  0  0  0  0  0  0  0
   -1.8679   -0.8065   -2.7678 C   0  0  0  0  0  0  0  0  0  0  0  0
   -2.0218    0.2529   -2.6182 H   0  0  0  0  0  0  0  0  0  0  0  0
   -2.5826   -1.4804   -3.7752 C   0  0  0  0  0  0  0  0  0  0  0  0
   -3.2907   -0.9409   -4.3884 H   0  0  0  0  0  0  0  0  0  0  0  0
   -2.3771   -2.8548   -3.9835 C   0  0  0  0  0  0  0  0  0  0  0  0
   -2.9280   -3.3730   -4.7560 H   0  0  0  0  0  0  0  0  0  0  0  0
   -1.4592   -3.5584   -3.1827 C   0  0  0  0  0  0  0  0  0  0  0  0
   -1.3052   -4.6160   -3.3391 H   0  0  0  0  0  0  0  0  0  0  0  0
   -0.7476   -2.8853   -2.1738 C   0  0  0  0  0  0  0  0  0  0  0  0
   -0.0442   -3.4285   -1.5562 H   0  0  0  0  0  0  0  0  0  0  0  0
   -1.2168    1.1047    0.4313 C   0  0  0  0  0  0  0  0  0  0  0  0
   -2.0890    1.6186   -0.2704 O   0  0  0  0  0  0  0  0  0  0  0  0
   -0.4674    1.8182    1.2813 N   0  0  0  0  0  0  0  0  0  0  0  0
    0.2640    1.3348    1.7800 H   0  0  0  0  0  0  0  0  0  0  0  0
   -0.5889    3.2615    1.4722 C   0  0  0  0  0  0  0  0  0  0  0  0
   -1.6291    3.5206    1.6805 H   0  0  0  0  0  0  0  0  0  0  0  0
    0.0359    3.5855    2.3049 H   0  0  0  0  0  0  0  0  0  0  0  0
   -0.2760    3.7797    0.5637 H   0  0  0  0  0  0  0  0  0  0  0  0
  5  6  2  0  0  0  0
  5  7  1  0  0  0  0
  2  3  1  0  0  0  0
  2  4  1  0  0  0  0
  2  5  1  0  0  0  0
  1  2  1  0  0  0  0
 25 26  2  0  0  0  0
 25 27  1  0  0  0  0
 23 24  1  0  0  0  0
 21 22  1  0  0  0  0
 21 23  2  0  0  0  0
 19 20  1  0  0  0  0
 19 21  1  0  0  0  0
 17 18  1  0  0  0  0
 17 19  2  0  0  0  0
 15 16  1  0  0  0  0
 15 17  1  0  0  0  0
 14 15  2  0  0  0  0
 14 23  1  0  0  0  0
 11 12  1  0  0  0  0
 11 13  1  0  0  0  0
 11 14  1  0  0  0  0
  9 10  1  0  0  0  0
  9 11  1  0  0  0  0
  9 25  1  0  0  0  0
  7  8  1  0  0  0  0
  7  9  1  0  0  0  0
 29 30  1  0  0  0  0
 29 31  1  0  0  0  0
 29 32  1  0  0  0  0
 27 28  1  0  0  0  0
 27 29  1  0  0  0  0
M  END
$$$$
default_name
  -OEChem-02102213163D

 32 32  0     1  0  0  0  0  0999 V2000
   -3.8405   -3.7518    1.6252 H   0  0  0  0  0  0  0  0  0  0  0  0
   -3.7965   -2.8768    0.9782 C   0  0  0  0  0  0  0  0  0  0  0  0
   -4.5465   -2.1527    1.2902 H   0  0  0  0  0  0  0  0  0  0  0  0
   -3.9745   -3.1748   -0.0538 H   0  0  0  0  0  0  0  0  0  0  0  0
   -2.4245   -2.2537    1.0882 C   0  0  0  0  0  0  0  0  0  0  0  0
   -1.5805   -2.7478    1.8242 O   0  0  0  0  0  0  0  0  0  0  0  0
   -2.2045   -1.1637    0.3562 N   0  0  0  0  0  0  0  0  0  0  0  0
   -2.9595   -0.7907   -0.2008 H   0  0  0  0  0  0  0  0  0  0  0  0
   -0.9485   -0.4087    0.3482 C   0  0  1  0  0  0  0  0  0  0  0  0
   -0.3666   -0.6914    1.2269 H   0  0  0  0  0  0  0  0  0  0  0  0
   -0.1405   -0.7797   -0.9072 C   0  0  0  0  0  0  0  0  0  0  0  0
    0.2596    0.1315   -1.3541 H   0  0  0  0  0  0  0  0  0  0  0  0
    0.7075   -1.3993   -0.6117 H   0  0  0  0  0  0  0  0  0  0  0  0
   -0.9475   -1.5073   -1.9656 C   0  0  0  0  0  0  0  0  0  0  0  0
   -1.6233   -0.7862   -2.9682 C   0  0  0  0  0  0  0  0  0  0  0  0
   -1.5896    0.2941   -2.9761 H   0  0  0  0  0  0  0  0  0  0  0  0
   -2.3358   -1.4698   -3.9707 C   0  0  0  0  0  0  0  0  0  0  0  0
   -2.8561   -0.9142   -4.7381 H   0  0  0  0  0  0  0  0  0  0  0  0
   -2.3723   -2.8746   -3.9737 C   0  0  0  0  0  0  0  0  0  0  0  0
   -2.9216   -3.3997   -4.7425 H   0  0  0  0  0  0  0  0  0  0  0  0
   -1.6993   -3.5981   -2.9724 C   0  0  0  0  0  0  0  0  0  0  0  0
   -1.7318   -4.6778   -2.9714 H   0  0  0  0  0  0  0  0  0  0  0  0
   -0.9901   -2.9146   -1.9688 C   0  0  0  0  0  0  0  0  0  0  0  0
   -0.4756   -3.4723   -1.1971 H   0  0  0  0  0  0  0  0  0  0  0  0
   -1.2168    1.1047    0.4313 C   0  0  0  0  0  0  0  0  0  0  0  0
   -2.0890    1.6186   -0.2704 O   0  0  0  0  0  0  0  0  0  0  0  0
   -0.4674    1.8182    1.2813 N   0  0  0  0  0  0  0  0  0  0  0  0
    0.2640    1.3348    1.7800 H   0  0  0  0  0  0  0  0  0  0  0  0
   -0.5889    3.2615    1.4722 C   0  0  0  0  0  0  0  0  0  0  0  0
   -1.6291    3.5206    1.6805 H   0  0  0  0  0  0  0  0  0  0  0  0
    0.0359    3.5855    2.3049 H   0  0  0  0  0  0  0  0  0  0  0  0
   -0.2760    3.7797    0.5637 H   0  0  0  0  0  0  0  0  0  0  0  0
  5  6  2  0  0  0  0
  5  7  1  0  0  0  0
  2  3  1  0  0  0  0
  2  4  1  0  0  0  0
  2  5  1  0  0  0  0
  1  2  1  0  0  0  0
 25 26  2  0  0  0  0
 25 27  1  0  0  0  0
 23 24  1  0  0  0  0
 21 22  1  0  0  0  0
 21 23  2  0  0  0  0
 19 20  1  0  0  0  0
 19 21  1  0  0  0  0
 17 18  1  0  0  0  0
 17 19  2  0  0  0  0
 15 16  1  0  0  0  0
 15 17  1  0  0  0  0
 14 15  2  0  0  0  0
 14 23  1  0  0  0  0
 11 12  1  0  0  0  0
 11 13  1  0  0  0  0
 11 14  1  0  0  0  0
  9 10  1  0  0  0  0
  9 11  1  0  0  0  0
  9 25  1  0  0  0  0
  7  8  1  0  0  0  0
  7  9  1  0  0  0  0
 29 30  1  0  0  0  0
 29 31  1  0  0  0  0
 29 32  1  0  0  0  0
 27 28  1  0  0  0  0
 27 29  1  0  0  0  0
M  END
$$$$
default_name
  -OEChem-02102213163D

 32 32  0     1  0  0  0  0  0999 V2000
   -3.8405   -3.7518    1.6252 H   0  0  0  0  0  0  0  0  0  0  0  0
   -3.7965   -2.8768    0.9782 C   0  0  0  0  0  0  0  0  0  0  0  0
   -4.5465   -2.1527    1.2902 H   0  0  0  0  0  0  0  0  0  0  0  0
   -3.9745   -3.1748   -0.0538 H   0  0  0  0  0  0  0  0  0  0  0  0
   -2.4245   -2.2537    1.0882 C   0  0  0  0  0  0  0  0  0  0  0  0
   -1.5805   -2.7478    1.8242 O   0  0  0  0  0  0  0  0  0  0  0  0
   -2.2045   -1.1637    0.3562 N   0  0  0  0  0  0  0  0  0  0  0  0
   -2.9595   -0.7907   -0.2008 H   0  0  0  0  0  0  0  0  0  0  0  0
   -0.9485   -0.4087    0.3482 C   0  0  1  0  0  0  0  0  0  0  0  0
   -0.3666   -0.6914    1.2269 H   0  0  0  0  0  0  0  0  0  0  0  0
   -0.1405   -0.7797   -0.9072 C   0  0  0  0  0  0  0  0  0  0  0  0
    0.2596    0.1315   -1.3541 H   0  0  0  0  0  0  0  0  0  0  0  0
    0.7075   -1.3993   -0.6117 H   0  0  0  0  0  0  0  0  0  0  0  0
   -0.9475   -1.5073   -1.9656 C   0  0  0  0  0  0  0  0  0  0  0  0
   -1.3585   -0.8385   -3.1342 C   0  0  0  0  0  0  0  0  0  0  0  0
   -1.1202    0.2065   -3.2737 H   0  0  0  0  0  0  0  0  0  0  0  0
   -2.0712   -1.5311   -4.1303 C   0  0  0  0  0  0  0  0  0  0  0  0
   -2.3881   -1.0150   -5.0256 H   0  0  0  0  0  0  0  0  0  0  0  0
   -2.3724   -2.8932   -3.9608 C   0  0  0  0  0  0  0  0  0  0  0  0
   -2.9220   -3.4247   -4.7250 H   0  0  0  0  0  0  0  0  0  0  0  0
   -1.9644   -3.5641   -2.7936 C   0  0  0  0  0  0  0  0  0  0  0  0
   -2.2006   -4.6097   -2.6607 H   0  0  0  0  0  0  0  0  0  0  0  0
   -1.2551   -2.8708   -1.7968 C   0  0  0  0  0  0  0  0  0  0  0  0
   -0.9447   -3.3873   -0.8978 H   0  0  0  0  0  0  0  0  0  0  0  0
   -1.2168    1.1047    0.4313 C   0  0  0  0  0  0  0  0  0  0  0  0
   -2.0890    1.6186   -0.2704 O   0  0  0  0  0  0  0  0  0  0  0  0
   -0.4674    1.8182    1.2813 N   0  0  0  0  0  0  0  0  0  0  0  0
    0.2640    1.3348    1.7800 H   0  0  0  0  0  0  0  0  0  0  0  0
   -0.5889    3.2615    1.4722 C   0  0  0  0  0  0  0  0  0  0  0  0
   -1.6291    3.5206    1.6805 H   0  0  0  0  0  0  0  0  0  0  0  0
    0.0359    3.5855    2.3049 H   0  0  0  0  0  0  0  0  0  0  0  0
   -0.2760    3.7797    0.5637 H   0  0  0  0  0  0  0  0  0  0  0  0
  5  6  2  0  0  0  0
  5  7  1  0  0  0  0
  2  3  1  0  0  0  0
  2  4  1  0  0  0  0
  2  5  1  0  0  0  0
  1  2  1  0  0  0  0
 25 26  2  0  0  0  0
 25 27  1  0  0  0  0
 23 24  1  0  0  0  0
 21 22  1  0  0  0  0
 21 23  2  0  0  0  0
 19 20  1  0  0  0  0
 19 21  1  0  0  0  0
 17 18  1  0  0  0  0
 17 19  2  0  0  0  0
 15 16  1  0  0  0  0
 15 17  1  0  0  0  0
 14 15  2  0  0  0  0
 14 23  1  0  0  0  0
 11 12  1  0  0  0  0
 11 13  1  0  0  0  0
 11 14  1  0  0  0  0
  9 10  1  0  0  0  0
  9 11  1  0  0  0  0
  9 25  1  0  0  0  0
  7  8  1  0  0  0  0
  7  9  1  0  0  0  0
 29 30  1  0  0  0  0
 29 31  1  0  0  0  0
 29 32  1  0  0  0  0
 27 28  1  0  0  0  0
 27 29  1  0  0  0  0
M  END
$$$$
default_name
  -OEChem-02102213163D

 32 32  0     1  0  0  0  0  0999 V2000
   -3.8405   -3.7518    1.6252 H   0  0  0  0  0  0  0  0  0  0  0  0
   -3.7965   -2.8768    0.9782 C   0  0  0  0  0  0  0  0  0  0  0  0
   -4.5465   -2.1527    1.2902 H   0  0  0  0  0  0  0  0  0  0  0  0
   -3.9745   -3.1748   -0.0538 H   0  0  0  0  0  0  0  0  0  0  0  0
   -2.4245   -2.2537    1.0882 C   0  0  0  0  0  0  0  0  0  0  0  0
   -1.5805   -2.7478    1.8242 O   0  0  0  0  0  0  0  0  0  0  0  0
   -2.2045   -1.1637    0.3562 N   0  0  0  0  0  0  0  0  0  0  0  0
   -2.9595   -0.7907   -0.2008 H   0  0  0  0  0  0  0  0  0  0  0  0
   -0.9485   -0.4087    0.3482 C   0  0  1  0  0  0  0  0  0  0  0  0
   -0.3666   -0.6914    1.2269 H   0  0  0  0  0  0  0  0  0  0  0  0
   -0.1405   -0.7797   -0.9072 C   0  0  0  0  0  0  0  0  0  0  0  0
    0.2596    0.1315   -1.3541 H   0  0  0  0  0  0  0  0  0  0  0  0
    0.7075   -1.3993   -0.6117 H   0  0  0  0  0  0  0  0  0  0  0  0
   -0.9475   -1.5073   -1.9656 C   0  0  0  0  0  0  0  0  0  0  0  0
   -1.0916   -0.9596   -3.2544 C   0  0  0  0  0  0  0  0  0  0  0  0
   -0.6457   -0.0038   -3.4909 H   0  0  0  0  0  0  0  0  0  0  0  0
   -1.8069   -1.6601   -4.2431 C   0  0  0  0  0  0  0  0  0  0  0  0
   -1.9185   -1.2365   -5.2314 H   0  0  0  0  0  0  0  0  0  0  0  0
   -2.3774   -2.9094   -3.9458 C   0  0  0  0  0  0  0  0  0  0  0  0
   -2.9290   -3.4464   -4.7048 H   0  0  0  0  0  0  0  0  0  0  0  0
   -2.2366   -3.4588   -2.6585 C   0  0  0  0  0  0  0  0  0  0  0  0
   -2.6798   -4.4166   -2.4282 H   0  0  0  0  0  0  0  0  0  0  0  0
   -1.5245   -2.7570   -1.6697 C   0  0  0  0  0  0  0  0  0  0  0  0
   -1.4197   -3.1793   -0.6787 H   0  0  0  0  0  0  0  0  0  0  0  0
   -1.2168    1.1047    0.4313 C   0  0  0  0  0  0  0  0  0  0  0  0
   -2.0890    1.6186   -0.2704 O   0  0  0  0  0  0  0  0  0  0  0  0
   -0.4674    1.8182    1.2813 N   0  0  0  0  0  0  0  0  0  0  0  0
    0.2640    1.3348    1.7800 H   0  0  0  0  0  0  0  0  0  0  0  0
   -0.5889    3.2615    1.4722 C   0  0  0  0  0  0  0  0  0  0  0  0
   -1.6291    3.5206    1.6805 H   0  0  0  0  0  0  0  0  0  0  0  0
    0.0359    3.5855    2.3049 H   0  0  0  0  0  0  0  0  0  0  0  0
   -0.2760    3.7797    0.5637 H   0  0  0  0  0  0  0  0  0  0  0  0
  5  6  2  0  0  0  0
  5  7  1  0  0  0  0
  2  3  1  0  0  0  0
  2  4  1  0  0  0  0
  2  5  1  0  0  0  0
  1  2  1  0  0  0  0
 25 26  2  0  0  0  0
 25 27  1  0  0  0  0
 23 24  1  0  0  0  0
 21 22  1  0  0  0  0
 21 23  2  0  0  0  0
 19 20  1  0  0  0  0
 19 21  1  0  0  0  0
 17 18  1  0  0  0  0
 17 19  2  0  0  0  0
 15 16  1  0  0  0  0
 15 17  1  0  0  0  0
 14 15  2  0  0  0  0
 14 23  1  0  0  0  0
 11 12  1  0  0  0  0
 11 13  1  0  0  0  0
 11 14  1  0  0  0  0
  9 10  1  0  0  0  0
  9 11  1  0  0  0  0
  9 25  1  0  0  0  0
  7  8  1  0  0  0  0
  7  9  1  0  0  0  0
 29 30  1  0  0  0  0
 29 31  1  0  0  0  0
 29 32  1  0  0  0  0
 27 28  1  0  0  0  0
 27 29  1  0  0  0  0
M  END
$$$$
default_name
  -OEChem-02102213163D

 32 32  0     1  0  0  0  0  0999 V2000
   -3.8405   -3.7518    1.6252 H   0  0  0  0  0  0  0  0  0  0  0  0
   -3.7965   -2.8768    0.9782 C   0  0  0  0  0  0  0  0  0  0  0  0
   -4.5465   -2.1527    1.2902 H   0  0  0  0  0  0  0  0  0  0  0  0
   -3.9745   -3.1748   -0.0538 H   0  0  0  0  0  0  0  0  0  0  0  0
   -2.4245   -2.2537    1.0882 C   0  0  0  0  0  0  0  0  0  0  0  0
   -1.5805   -2.7478    1.8242 O   0  0  0  0  0  0  0  0  0  0  0  0
   -2.2045   -1.1637    0.3562 N   0  0  0  0  0  0  0  0  0  0  0  0
   -2.9595   -0.7907   -0.2008 H   0  0  0  0  0  0  0  0  0  0  0  0
   -0.9485   -0.4087    0.3482 C   0  0  1  0  0  0  0  0  0  0  0  0
   -0.3666   -0.6914    1.2269 H   0  0  0  0  0  0  0  0  0  0  0  0
   -0.1405   -0.7797   -0.9072 C   0  0  0  0  0  0  0  0  0  0  0  0
    0.2596    0.1315   -1.3541 H   0  0  0  0  0  0  0  0  0  0  0  0
    0.7075   -1.3993   -0.6117 H   0  0  0  0  0  0  0  0  0  0  0  0
   -0.9475   -1.5073   -1.9656 C   0  0  0  0  0  0  0  0  0  0  0  0
   -0.8406   -1.1413   -3.3208 C   0  0  0  0  0  0  0  0  0  0  0  0
   -0.1984   -0.3225   -3.6129 H   0  0  0  0  0  0  0  0  0  0  0  0
   -1.5609   -1.8479   -4.3016 C   0  0  0  0  0  0  0  0  0  0  0  0
   -1.4794   -1.5636   -5.3413 H   0  0  0  0  0  0  0  0  0  0  0  0
   -2.3871   -2.9220   -3.9298 C   0  0  0  0  0  0  0  0  0  0  0  0
   -2.9422   -3.4633   -4.6831 H   0  0  0  0  0  0  0  0  0  0  0  0
   -2.4973   -3.2893   -2.5763 C   0  0  0  0  0  0  0  0  0  0  0  0
   -3.1366   -4.1115   -2.2897 H   0  0  0  0  0  0  0  0  0  0  0  0
   -1.7800   -2.5809   -1.5960 C   0  0  0  0  0  0  0  0  0  0  0  0
   -1.8682   -2.8624   -0.5547 H   0  0  0  0  0  0  0  0  0  0  0  0
   -1.2168    1.1047    0.4313 C   0  0  0  0  0  0  0  0  0  0  0  0
   -2.0890    1.6186   -0.2704 O   0  0  0  0  0  0  0  0  0  0  0  0
   -0.4674    1.8182    1.2813 N   0  0  0  0  0  0  0  0  0  0  0  0
    0.2640    1.3348    1.7800 H   0  0  0  0  0  0  0  0  0  0  0  0
   -0.5889    3.2615    1.4722 C   0  0  0  0  0  0  0  0  0  0  0  0
   -1.6291    3.5206    1.6805 H   0  0  0  0  0  0  0  0  0  0  0  0
    0.0359    3.5855    2.3049 H   0  0  0  0  0  0  0  0  0  0  0  0
   -0.2760    3.7797    0.5637 H   0  0  0  0  0  0  0  0  0  0  0  0
  5  6  2  0  0  0  0
  5  7  1  0  0  0  0
  2  3  1  0  0  0  0
  2  4  1  0  0  0  0
  2  5  1  0  0  0  0
  1  2  1  0  0  0  0
 25 26  2  0  0  0  0
 25 27  1  0  0  0  0
 23 24  1  0  0  0  0
 21 22  1  0  0  0  0
 21 23  2  0  0  0  0
 19 20  1  0  0  0  0
 19 21  1  0  0  0  0
 17 18  1  0  0  0  0
 17 19  2  0  0  0  0
 15 16  1  0  0  0  0
 15 17  1  0  0  0  0
 14 15  2  0  0  0  0
 14 23  1  0  0  0  0
 11 12  1  0  0  0  0
 11 13  1  0  0  0  0
 11 14  1  0  0  0  0
  9 10  1  0  0  0  0
  9 11  1  0  0  0  0
  9 25  1  0  0  0  0
  7  8  1  0  0  0  0
  7  9  1  0  0  0  0
 29 30  1  0  0  0  0
 29 31  1  0  0  0  0
 29 32  1  0  0  0  0
 27 28  1  0  0  0  0
 27 29  1  0  0  0  0
M  END
$$$$
default_name
  -OEChem-02102213163D

 32 32  0     1  0  0  0  0  0999 V2000
   -3.8405   -3.7518    1.6252 H   0  0  0  0  0  0  0  0  0  0  0  0
   -3.7965   -2.8768    0.9782 C   0  0  0  0  0  0  0  0  0  0  0  0
   -4.5465   -2.1527    1.2902 H   0  0  0  0  0  0  0  0  0  0  0  0
   -3.9745   -3.1748   -0.0538 H   0  0  0  0  0  0  0  0  0  0  0  0
   -2.4245   -2.2537    1.0882 C   0  0  0  0  0  0  0  0  0  0  0  0
   -1.5805   -2.7478    1.8242 O   0  0  0  0  0  0  0  0  0  0  0  0
   -2.2045   -1.1637    0.3562 N   0  0  0  0  0  0  0  0  0  0  0  0
   -2.9595   -0.7907   -0.2008 H   0  0  0  0  0  0  0  0  0  0  0  0
   -0.9485   -0.4087    0.3482 C   0  0  1  0  0  0  0  0  0  0  0  0
   -0.3666   -0.6914    1.2269 H   0  0  0  0  0  0  0  0  0  0  0  0
   -0.1405   -0.7797   -0.9072 C   0  0  0  0  0  0  0  0  0  0  0  0
    0.2596    0.1315   -1.3541 H   0  0  0  0  0  0  0  0  0  0  0  0
    0.7075   -1.3993   -0.6117 H   0  0  0  0  0  0  0  0  0  0  0  0
   -0.9475   -1.5073   -1.9656 C   0  0  0  0  0  0  0  0  0  0  0  0
   -0.6229   -1.3714   -3.3287 C   0  0  0  0  0  0  0  0  0  0  0  0
    0.1912   -0.7280   -3.6312 H   0  0  0  0  0  0  0  0  0  0  0  0
   -1.3499   -2.0818   -4.3016 C   0  0  0  0  0  0  0  0  0  0  0  0
   -1.1007   -1.9740   -5.3479 H   0  0  0  0  0  0  0  0  0  0  0  0
   -2.4007   -2.9303   -3.9137 C   0  0  0  0  0  0  0  0  0  0  0  0
   -2.9608   -3.4742   -4.6614 H   0  0  0  0  0  0  0  0  0  0  0  0
   -2.7287   -3.0672   -2.5526 C   0  0  0  0  0  0  0  0  0  0  0  0
   -3.5399   -3.7152   -2.2546 H   0  0  0  0  0  0  0  0  0  0  0  0
   -2.0041   -2.3545   -1.5807 C   0  0  0  0  0  0  0  0  0  0  0  0
   -2.2595   -2.4582   -0.5342 H   0  0  0  0  0  0  0  0  0  0  0  0
   -1.2168    1.1047    0.4313 C   0  0  0  0  0  0  0  0  0  0  0  0
   -2.0890    1.6186   -0.2704 O   0  0  0  0  0  0  0  0  0  0  0  0
   -0.4674    1.8182    1.2813 N   0  0  0  0  0  0  0  0  0  0  0  0
    0.2640    1.3348    1.7800 H   0  0  0  0  0  0  0  0  0  0  0  0
   -0.5889    3.2615    1.4722 C   0  0  0  0  0  0  0  0  0  0  0  0
   -1.6291    3.5206    1.6805 H   0  0  0  0  0  0  0  0  0  0  0  0
    0.0359    3.5855    2.3049 H   0  0  0  0  0  0  0  0  0  0  0  0
   -0.2760    3.7797    0.5637 H   0  0  0  0  0  0  0  0  0  0  0  0
  5  6  2  0  0  0  0
  5  7  1  0  0  0  0
  2  3  1  0  0  0  0
  2  4  1  0  0  0  0
  2  5  1  0  0  0  0
  1  2  1  0  0  0  0
 25 26  2  0  0  0  0
 25 27  1  0  0  0  0
 23 24  1  0  0  0  0
 21 22  1  0  0  0  0
 21 23  2  0  0  0  0
 19 20  1  0  0  0  0
 19 21  1  0  0  0  0
 17 18  1  0  0  0  0
 17 19  2  0  0  0  0
 15 16  1  0  0  0  0
 15 17  1  0  0  0  0
 14 15  2  0  0  0  0
 14 23  1  0  0  0  0
 11 12  1  0  0  0  0
 11 13  1  0  0  0  0
 11 14  1  0  0  0  0
  9 10  1  0  0  0  0
  9 11  1  0  0  0  0
  9 25  1  0  0  0  0
  7  8  1  0  0  0  0
  7  9  1  0  0  0  0
 29 30  1  0  0  0  0
 29 31  1  0  0  0  0
 29 32  1  0  0  0  0
 27 28  1  0  0  0  0
 27 29  1  0  0  0  0
M  END
$$$$
default_name
  -OEChem-02102213163D

 32 32  0     1  0  0  0  0  0999 V2000
   -3.8405   -3.7518    1.6252 H   0  0  0  0  0  0  0  0  0  0  0  0
   -3.7965   -2.8768    0.9782 C   0  0  0  0  0  0  0  0  0  0  0  0
   -4.5465   -2.1527    1.2902 H   0  0  0  0  0  0  0  0  0  0  0  0
   -3.9745   -3.1748   -0.0538 H   0  0  0  0  0  0  0  0  0  0  0  0
   -2.4245   -2.2537    1.0882 C   0  0  0  0  0  0  0  0  0  0  0  0
   -1.5805   -2.7478    1.8242 O   0  0  0  0  0  0  0  0  0  0  0  0
   -2.2045   -1.1637    0.3562 N   0  0  0  0  0  0  0  0  0  0  0  0
   -2.9595   -0.7907   -0.2008 H   0  0  0  0  0  0  0  0  0  0  0  0
   -0.9485   -0.4087    0.3482 C   0  0  1  0  0  0  0  0  0  0  0  0
   -0.3666   -0.6914    1.2269 H   0  0  0  0  0  0  0  0  0  0  0  0
   -0.1405   -0.7797   -0.9072 C   0  0  0  0  0  0  0  0  0  0  0  0
    0.2596    0.1315   -1.3541 H   0  0  0  0  0  0  0  0  0  0  0  0
    0.7075   -1.3993   -0.6117 H   0  0  0  0  0  0  0  0  0  0  0  0
   -0.9475   -1.5073   -1.9656 C   0  0  0  0  0  0  0  0  0  0  0  0
   -0.4531   -1.6340   -3.2776 C   0  0  0  0  0  0  0  0  0  0  0  0
    0.4967   -1.1925   -3.5447 H   0  0  0  0  0  0  0  0  0  0  0  0
   -1.1883   -2.3459   -4.2433 C   0  0  0  0  0  0  0  0  0  0  0  0
   -0.8081   -2.4397   -5.2508 H   0  0  0  0  0  0  0  0  0  0  0  0
   -2.4174   -2.9336   -3.8987 C   0  0  0  0  0  0  0  0  0  0  0  0
   -2.9833   -3.4785   -4.6413 H   0  0  0  0  0  0  0  0  0  0  0  0
   -2.9150   -2.8076   -2.5890 C   0  0  0  0  0  0  0  0  0  0  0  0
   -3.8623   -3.2547   -2.3254 H   0  0  0  0  0  0  0  0  0  0  0  0
   -2.1815   -2.0933   -1.6250 C   0  0  0  0  0  0  0  0  0  0  0  0
   -2.5671   -1.9943   -0.6186 H   0  0  0  0  0  0  0  0  0  0  0  0
   -1.2168    1.1047    0.4313 C   0  0  0  0  0  0  0  0  0  0  0  0
   -2.0890    1.6186   -0.2704 O   0  0  0  0  0  0  0  0  0  0  0  0
   -0.4674    1.8182    1.2813 N   0  0  0  0  0  0  0  0  0  0  0  0
    0.2640    1.3348    1.7800 H   0  0  0  0  0  0  0  0  0  0  0  0
   -0.5889    3.2615    1.4722 C   0  0  0  0  0  0  0  0  0  0  0  0
   -1.6291    3.5206    1.6805 H   0  0  0  0  0  0  0  0  0  0  0  0
    0.0359    3.5855    2.3049 H   0  0  0  0  0  0  0  0  0  0  0  0
   -0.2760    3.7797    0.5637 H   0  0  0  0  0  0  0  0  0  0  0  0
  5  6  2  0  0  0  0
  5  7  1  0  0  0  0
  2  3  1  0  0  0  0
  2  4  1  0  0  0  0
  2  5  1  0  0  0  0
  1  2  1  0  0  0  0
 25 26  2  0  0  0  0
 25 27  1  0  0  0  0
 23 24  1  0  0  0  0
 21 22  1  0  0  0  0
 21 23  2  0  0  0  0
 19 20  1  0  0  0  0
 19 21  1  0  0  0  0
 17 18  1  0  0  0  0
 17 19  2  0  0  0  0
 15 16  1  0  0  0  0
 15 17  1  0  0  0  0
 14 15  2  0  0  0  0
 14 23  1  0  0  0  0
 11 12  1  0  0  0  0
 11 13  1  0  0  0  0
 11 14  1  0  0  0  0
  9 10  1  0  0  0  0
  9 11  1  0  0  0  0
  9 25  1  0  0  0  0
  7  8  1  0  0  0  0
  7  9  1  0  0  0  0
 29 30  1  0  0  0  0
 29 31  1  0  0  0  0
 29 32  1  0  0  0  0
 27 28  1  0  0  0  0
 27 29  1  0  0  0  0
M  END
$$$$
default_name
  -OEChem-02102213163D

 32 32  0     1  0  0  0  0  0999 V2000
   -3.8405   -3.7518    1.6252 H   0  0  0  0  0  0  0  0  0  0  0  0
   -3.7965   -2.8768    0.9782 C   0  0  0  0  0  0  0  0  0  0  0  0
   -4.5465   -2.1527    1.2902 H   0  0  0  0  0  0  0  0  0  0  0  0
   -3.9745   -3.1748   -0.0538 H   0  0  0  0  0  0  0  0  0  0  0  0
   -2.4245   -2.2537    1.0882 C   0  0  0  0  0  0  0  0  0  0  0  0
   -1.5805   -2.7478    1.8242 O   0  0  0  0  0  0  0  0  0  0  0  0
   -2.2045   -1.1637    0.3562 N   0  0  0  0  0  0  0  0  0  0  0  0
   -2.9595   -0.7907   -0.2008 H   0  0  0  0  0  0  0  0  0  0  0  0
   -0.9485   -0.4087    0.3482 C   0  0  1  0  0  0  0  0  0  0  0  0
   -0.3666   -0.6914    1.2269 H   0  0  0  0  0  0  0  0  0  0  0  0
   -0.1405   -0.7797   -0.9072 C   0  0  0  0  0  0  0  0  0  0  0  0
    0.4727    0.0738   -1.1999 H   0  0  0  0  0  0  0  0  0  0  0  0
    0.5356   -1.6004   -0.6629 H   0  0  0  0  0  0  0  0  0  0  0  0
   -0.9966   -1.1732   -2.0959 C   0  0  0  0  0  0  0  0  0  0  0  0
   -0.3976   -1.5387   -3.3164 C   0  0  0  0  0  0  0  0  0  0  0  0
    0.6781   -1.5190   -3.4204 H   0  0  0  0  0  0  0  0  0  0  0  0
   -1.1968   -1.9423   -4.4019 C   0  0  0  0  0  0  0  0  0  0  0  0
   -0.7350   -2.2201   -5.3390 H   0  0  0  0  0  0  0  0  0  0  0  0
   -2.5951   -1.9830   -4.2687 C   0  0  0  0  0  0  0  0  0  0  0  0
   -3.2092   -2.2907   -5.1035 H   0  0  0  0  0  0  0  0  0  0  0  0
   -3.1969   -1.6169   -3.0510 C   0  0  0  0  0  0  0  0  0  0  0  0
   -4.2720   -1.6429   -2.9502 H   0  0  0  0  0  0  0  0  0  0  0  0
   -2.3982   -1.2105   -1.9674 C   0  0  0  0  0  0  0  0  0  0  0  0
   -2.8626   -0.9259   -1.0322 H   0  0  0  0  0  0  0  0  0  0  0  0
   -1.2168    1.1047    0.4313 C   0  0  0  0  0  0  0  0  0  0  0  0
   -2.0890    1.6186   -0.2704 O   0  0  0  0  0  0  0  0  0  0  0  0
   -0.4674    1.8182    1.2813 N   0  0  0  0  0  0  0  0  0  0  0  0
    0.2640    1.3348    1.7800 H   0  0  0  0  0  0  0  0  0  0  0  0
   -0.5889    3.2615    1.4722 C   0  0  0  0  0  0  0  0  0  0  0  0
   -1.6291    3.5206    1.6805 H   0  0  0  0  0  0  0  0  0  0  0  0
    0.0359    3.5855    2.3049 H   0  0  0  0  0  0  0  0  0  0  0  0
   -0.2760    3.7797    0.5637 H   0  0  0  0  0  0  0  0  0  0  0  0
  5  6  2  0  0  0  0
  5  7  1  0  0  0  0
  2  3  1  0  0  0  0
  2  4  1  0  0  0  0
  2  5  1  0  0  0  0
  1  2  1  0  0  0  0
 25 26  2  0  0  0  0
 25 27  1  0  0  0  0
 23 24  1  0  0  0  0
 21 22  1  0  0  0  0
 21 23  2  0  0  0  0
 19 20  1  0  0  0  0
 19 21  1  0  0  0  0
 17 18  1  0  0  0  0
 17 19  2  0  0  0  0
 15 16  1  0  0  0  0
 15 17  1  0  0  0  0
 14 15  2  0  0  0  0
 14 23  1  0  0  0  0
 11 12  1  0  0  0  0
 11 13  1  0  0  0  0
 11 14  1  0  0  0  0
  9 10  1  0  0  0  0
  9 11  1  0  0  0  0
  9 25  1  0  0  0  0
  7  8  1  0  0  0  0
  7  9  1  0  0  0  0
 29 30  1  0  0  0  0
 29 31  1  0  0  0  0
 29 32  1  0  0  0  0
 27 28  1  0  0  0  0
 27 29  1  0  0  0  0
M  END
$$$$
default_name
  -OEChem-02102213163D

 32 32  0     1  0  0  0  0  0999 V2000
   -3.8405   -3.7518    1.6252 H   0  0  0  0  0  0  0  0  0  0  0  0
   -3.7965   -2.8768    0.9782 C   0  0  0  0  0  0  0  0  0  0  0  0
   -4.5465   -2.1527    1.2902 H   0  0  0  0  0  0  0  0  0  0  0  0
   -3.9745   -3.1748   -0.0538 H   0  0  0  0  0  0  0  0  0  0  0  0
   -2.4245   -2.2537    1.0882 C   0  0  0  0  0  0  0  0  0  0  0  0
   -1.5805   -2.7478    1.8242 O   0  0  0  0  0  0  0  0  0  0  0  0
   -2.2045   -1.1637    0.3562 N   0  0  0  0  0  0  0  0  0  0  0  0
   -2.9595   -0.7907   -0.2008 H   0  0  0  0  0  0  0  0  0  0  0  0
   -0.9485   -0.4087    0.3482 C   0  0  1  0  0  0  0  0  0  0  0  0
   -0.3666   -0.6914    1.2269 H   0  0  0  0  0  0  0  0  0  0  0  0
   -0.1405   -0.7797   -0.9072 C   0  0  0  0  0  0  0  0  0  0  0  0
    0.4727    0.0738   -1.1999 H   0  0  0  0  0  0  0  0  0  0  0  0
    0.5356   -1.6004   -0.6629 H   0  0  0  0  0  0  0  0  0  0  0  0
   -0.9966   -1.1732   -2.0959 C   0  0  0  0  0  0  0  0  0  0  0  0
   -0.4239   -1.8324   -3.2002 C   0  0  0  0  0  0  0  0  0  0  0  0
    0.6363   -2.0420   -3.2172 H   0  0  0  0  0  0  0  0  0  0  0  0
   -1.2319   -2.2311   -4.2810 C   0  0  0  0  0  0  0  0  0  0  0  0
   -0.7897   -2.7347   -5.1291 H   0  0  0  0  0  0  0  0  0  0  0  0
   -2.6131   -1.9734   -4.2589 C   0  0  0  0  0  0  0  0  0  0  0  0
   -3.2334   -2.2776   -5.0903 H   0  0  0  0  0  0  0  0  0  0  0  0
   -3.1883   -1.3136   -3.1576 C   0  0  0  0  0  0  0  0  0  0  0  0
   -4.2491   -1.1107   -3.1429 H   0  0  0  0  0  0  0  0  0  0  0  0
   -2.3801   -0.9124   -2.0791 C   0  0  0  0  0  0  0  0  0  0  0  0
   -2.8232   -0.4019   -1.2340 H   0  0  0  0  0  0  0  0  0  0  0  0
   -1.2168    1.1047    0.4313 C   0  0  0  0  0  0  0  0  0  0  0  0
   -2.0890    1.6186   -0.2704 O   0  0  0  0  0  0  0  0  0  0  0  0
   -0.4674    1.8182    1.2813 N   0  0  0  0  0  0  0  0  0  0  0  0
    0.2640    1.3348    1.7800 H   0  0  0  0  0  0  0  0  0  0  0  0
   -0.5889    3.2615    1.4722 C   0  0  0  0  0  0  0  0  0  0  0  0
   -1.6291    3.5206    1.6805 H   0  0  0  0  0  0  0  0  0  0  0  0
    0.0359    3.5855    2.3049 H   0  0  0  0  0  0  0  0  0  0  0  0
   -0.2760    3.7797    0.5637 H   0  0  0  0  0  0  0  0  0  0  0  0
  5  6  2  0  0  0  0
  5  7  1  0  0  0  0
  2  3  1  0  0  0  0
  2  4  1  0  0  0  0
  2  5  1  0  0  0  0
  1  2  1  0  0  0  0
 25 26  2  0  0  0  0
 25 27  1  0  0  0  0
 23 24  1  0  0  0  0
 21 22  1  0  0  0  0
 21 23  2  0  0  0  0
 19 20  1  0  0  0  0
 19 21  1  0  0  0  0
 17 18  1  0  0  0  0
 17 19  2  0  0  0  0
 15 16  1  0  0  0  0
 15 17  1  0  0  0  0
 14 15  2  0  0  0  0
 14 23  1  0  0  0  0
 11 12  1  0  0  0  0
 11 13  1  0  0  0  0
 11 14  1  0  0  0  0
  9 10  1  0  0  0  0
  9 11  1  0  0  0  0
  9 25  1  0  0  0  0
  7  8  1  0  0  0  0
  7  9  1  0  0  0  0
 29 30  1  0  0  0  0
 29 31  1  0  0  0  0
 29 32  1  0  0  0  0
 27 28  1  0  0  0  0
 27 29  1  0  0  0  0
M  END
$$$$
default_name
  -OEChem-02102213163D

 32 32  0     1  0  0  0  0  0999 V2000
   -3.8405   -3.7518    1.6252 H   0  0  0  0  0  0  0  0  0  0  0  0
   -3.7965   -2.8768    0.9782 C   0  0  0  0  0  0  0  0  0  0  0  0
   -4.5465   -2.1527    1.2902 H   0  0  0  0  0  0  0  0  0  0  0  0
   -3.9745   -3.1748   -0.0538 H   0  0  0  0  0  0  0  0  0  0  0  0
   -2.4245   -2.2537    1.0882 C   0  0  0  0  0  0  0  0  0  0  0  0
   -1.5805   -2.7478    1.8242 O   0  0  0  0  0  0  0  0  0  0  0  0
   -2.2045   -1.1637    0.3562 N   0  0  0  0  0  0  0  0  0  0  0  0
   -2.9595   -0.7907   -0.2008 H   0  0  0  0  0  0  0  0  0  0  0  0
   -0.9485   -0.4087    0.3482 C   0  0  1  0  0  0  0  0  0  0  0  0
   -0.3666   -0.6914    1.2269 H   0  0  0  0  0  0  0  0  0  0  0  0
   -0.1405   -0.7797   -0.9072 C   0  0  0  0  0  0  0  0  0  0  0  0
    0.4727    0.0738   -1.1999 H   0  0  0  0  0  0  0  0  0  0  0  0
    0.5356   -1.6004   -0.6629 H   0  0  0  0  0  0  0  0  0  0  0  0
   -0.9966   -1.1732   -2.0959 C   0  0  0  0  0  0  0  0  0  0  0  0
   -0.5167   -2.0937   -3.0469 C   0  0  0  0  0  0  0  0  0  0  0  0
    0.4762   -2.5090   -2.9473 H   0  0  0  0  0  0  0  0  0  0  0  0
   -1.3325   -2.4852   -4.1245 C   0  0  0  0  0  0  0  0  0  0  0  0
   -0.9611   -3.1901   -4.8550 H   0  0  0  0  0  0  0  0  0  0  0  0
   -2.6292   -1.9591   -4.2520 C   0  0  0  0  0  0  0  0  0  0  0  0
   -3.2550   -2.2581   -5.0812 H   0  0  0  0  0  0  0  0  0  0  0  0
   -3.1113   -1.0380   -3.3043 C   0  0  0  0  0  0  0  0  0  0  0  0
   -4.1060   -0.6293   -3.4053 H   0  0  0  0  0  0  0  0  0  0  0  0
   -2.2946   -0.6444   -2.2294 C   0  0  0  0  0  0  0  0  0  0  0  0
   -2.6654    0.0669   -1.5028 H   0  0  0  0  0  0  0  0  0  0  0  0
   -1.2168    1.1047    0.4313 C   0  0  0  0  0  0  0  0  0  0  0  0
   -2.0890    1.6186   -0.2704 O   0  0  0  0  0  0  0  0  0  0  0  0
   -0.4674    1.8182    1.2813 N   0  0  0  0  0  0  0  0  0  0  0  0
    0.2640    1.3348    1.7800 H   0  0  0  0  0  0  0  0  0  0  0  0
   -0.5889    3.2615    1.4722 C   0  0  0  0  0  0  0  0  0  0  0  0
   -1.6291    3.5206    1.6805 H   0  0  0  0  0  0  0  0  0  0  0  0
    0.0359    3.5855    2.3049 H   0  0  0  0  0  0  0  0  0  0  0  0
   -0.2760    3.7797    0.5637 H   0  0  0  0  0  0  0  0  0  0  0  0
  5  6  2  0  0  0  0
  5  7  1  0  0  0  0
  2  3  1  0  0  0  0
  2  4  1  0  0  0  0
  2  5  1  0  0  0  0
  1  2  1  0  0  0  0
 25 26  2  0  0  0  0
 25 27  1  0  0  0  0
 23 24  1  0  0  0  0
 21 22  1  0  0  0  0
 21 23  2  0  0  0  0
 19 20  1  0  0  0  0
 19 21  1  0  0  0  0
 17 18  1  0  0  0  0
 17 19  2  0  0  0  0
 15 16  1  0  0  0  0
 15 17  1  0  0  0  0
 14 15  2  0  0  0  0
 14 23  1  0  0  0  0
 11 12  1  0  0  0  0
 11 13  1  0  0  0  0
 11 14  1  0  0  0  0
  9 10  1  0  0  0  0
  9 11  1  0  0  0  0
  9 25  1  0  0  0  0
  7  8  1  0  0  0  0
  7  9  1  0  0  0  0
 29 30  1  0  0  0  0
 29 31  1  0  0  0  0
 29 32  1  0  0  0  0
 27 28  1  0  0  0  0
 27 29  1  0  0  0  0
M  END
$$$$
default_name
  -OEChem-02102213163D

 32 32  0     1  0  0  0  0  0999 V2000
   -3.8405   -3.7518    1.6252 H   0  0  0  0  0  0  0  0  0  0  0  0
   -3.7965   -2.8768    0.9782 C   0  0  0  0  0  0  0  0  0  0  0  0
   -4.5465   -2.1527    1.2902 H   0  0  0  0  0  0  0  0  0  0  0  0
   -3.9745   -3.1748   -0.0538 H   0  0  0  0  0  0  0  0  0  0  0  0
   -2.4245   -2.2537    1.0882 C   0  0  0  0  0  0  0  0  0  0  0  0
   -1.5805   -2.7478    1.8242 O   0  0  0  0  0  0  0  0  0  0  0  0
   -2.2045   -1.1637    0.3562 N   0  0  0  0  0  0  0  0  0  0  0  0
   -2.9595   -0.7907   -0.2008 H   0  0  0  0  0  0  0  0  0  0  0  0
   -0.9485   -0.4087    0.3482 C   0  0  1  0  0  0  0  0  0  0  0  0
   -0.3666   -0.6914    1.2269 H   0  0  0  0  0  0  0  0  0  0  0  0
   -0.1405   -0.7797   -0.9072 C   0  0  0  0  0  0  0  0  0  0  0  0
    0.4727    0.0738   -1.1999 H   0  0  0  0  0  0  0  0  0  0  0  0
    0.5356   -1.6004   -0.6629 H   0  0  0  0  0  0  0  0  0  0  0  0
   -0.9966   -1.1732   -2.0959 C   0  0  0  0  0  0  0  0  0  0  0  0
   -0.6696   -2.3049   -2.8669 C   0  0  0  0  0  0  0  0  0  0  0  0
    0.2088   -2.8882   -2.6292 H   0  0  0  0  0  0  0  0  0  0  0  0
   -1.4917   -2.6874   -3.9429 C   0  0  0  0  0  0  0  0  0  0  0  0
   -1.2374   -3.5552   -4.5352 H   0  0  0  0  0  0  0  0  0  0  0  0
   -2.6423   -1.9410   -4.2486 C   0  0  0  0  0  0  0  0  0  0  0  0
   -3.2726   -2.2336   -5.0767 H   0  0  0  0  0  0  0  0  0  0  0  0
   -2.9711   -0.8088   -3.4811 C   0  0  0  0  0  0  0  0  0  0  0  0
   -3.8526   -0.2318   -3.7194 H   0  0  0  0  0  0  0  0  0  0  0  0
   -2.1476   -0.4248   -2.4079 C   0  0  0  0  0  0  0  0  0  0  0  0
   -2.3998    0.4484   -1.8204 H   0  0  0  0  0  0  0  0  0  0  0  0
   -1.2168    1.1047    0.4313 C   0  0  0  0  0  0  0  0  0  0  0  0
   -2.0890    1.6186   -0.2704 O   0  0  0  0  0  0  0  0  0  0  0  0
   -0.4674    1.8182    1.2813 N   0  0  0  0  0  0  0  0  0  0  0  0
    0.2640    1.3348    1.7800 H   0  0  0  0  0  0  0  0  0  0  0  0
   -0.5889    3.2615    1.4722 C   0  0  0  0  0  0  0  0  0  0  0  0
   -1.6291    3.5206    1.6805 H   0  0  0  0  0  0  0  0  0  0  0  0
    0.0359    3.5855    2.3049 H   0  0  0  0  0  0  0  0  0  0  0  0
   -0.2760    3.7797    0.5637 H   0  0  0  0  0  0  0  0  0  0  0  0
  5  6  2  0  0  0  0
  5  7  1  0  0  0  0
  2  3  1  0  0  0  0
  2  4  1  0  0  0  0
  2  5  1  0  0  0  0
  1  2  1  0  0  0  0
 25 26  2  0  0  0  0
 25 27  1  0  0  0  0
 23 24  1  0  0  0  0
 21 22  1  0  0  0  0
 21 23  2  0  0  0  0
 19 20  1  0  0  0  0
 19 21  1  0  0  0  0
 17 18  1  0  0  0  0
 17 19  2  0  0  0  0
 15 16  1  0  0  0  0
 15 17  1  0  0  0  0
 14 15  2  0  0  0  0
 14 23  1  0  0  0  0
 11 12  1  0  0  0  0
 11 13  1  0  0  0  0
 11 14  1  0  0  0  0
  9 10  1  0  0  0  0
  9 11  1  0  0  0  0
  9 25  1  0  0  0  0
  7  8  1  0  0  0  0
  7  9  1  0  0  0  0
 29 30  1  0  0  0  0
 29 31  1  0  0  0  0
 29 32  1  0  0  0  0
 27 28  1  0  0  0  0
 27 29  1  0  0  0  0
M  END
$$$$
default_name
  -OEChem-02102213163D

 32 32  0     1  0  0  0  0  0999 V2000
   -3.8405   -3.7518    1.6252 H   0  0  0  0  0  0  0  0  0  0  0  0
   -3.7965   -2.8768    0.9782 C   0  0  0  0  0  0  0  0  0  0  0  0
   -4.5465   -2.1527    1.2902 H   0  0  0  0  0  0  0  0  0  0  0  0
   -3.9745   -3.1748   -0.0538 H   0  0  0  0  0  0  0  0  0  0  0  0
   -2.4245   -2.2537    1.0882 C   0  0  0  0  0  0  0  0  0  0  0  0
   -1.5805   -2.7478    1.8242 O   0  0  0  0  0  0  0  0  0  0  0  0
   -2.2045   -1.1637    0.3562 N   0  0  0  0  0  0  0  0  0  0  0  0
   -2.9595   -0.7907   -0.2008 H   0  0  0  0  0  0  0  0  0  0  0  0
   -0.9485   -0.4087    0.3482 C   0  0  1  0  0  0  0  0  0  0  0  0
   -0.3666   -0.6914    1.2269 H   0  0  0  0  0  0  0  0  0  0  0  0
   -0.1405   -0.7797   -0.9072 C   0  0  0  0  0  0  0  0  0  0  0  0
    0.4727    0.0738   -1.1999 H   0  0  0  0  0  0  0  0  0  0  0  0
    0.5356   -1.6004   -0.6629 H   0  0  0  0  0  0  0  0  0  0  0  0
   -0.9966   -1.1732   -2.0959 C   0  0  0  0  0  0  0  0  0  0  0  0
   -0.8722   -2.4515   -2.6724 C   0  0  0  0  0  0  0  0  0  0  0  0
   -0.1479   -3.1538   -2.2845 H   0  0  0  0  0  0  0  0  0  0  0  0
   -1.6987   -2.8239   -3.7486 C   0  0  0  0  0  0  0  0  0  0  0  0
   -1.5998   -3.8051   -4.1915 H   0  0  0  0  0  0  0  0  0  0  0  0
   -2.6516   -1.9203   -4.2488 C   0  0  0  0  0  0  0  0  0  0  0  0
   -3.2849   -2.2056   -5.0771 H   0  0  0  0  0  0  0  0  0  0  0  0
   -2.7774   -0.6417   -3.6760 C   0  0  0  0  0  0  0  0  0  0  0  0
   -3.5061    0.0550   -4.0638 H   0  0  0  0  0  0  0  0  0  0  0  0
   -1.9491   -0.2686   -2.6026 C   0  0  0  0  0  0  0  0  0  0  0  0
   -2.0446    0.7166   -2.1650 H   0  0  0  0  0  0  0  0  0  0  0  0
   -1.2168    1.1047    0.4313 C   0  0  0  0  0  0  0  0  0  0  0  0
   -2.0890    1.6186   -0.2704 O   0  0  0  0  0  0  0  0  0  0  0  0
   -0.4674    1.8182    1.2813 N   0  0  0  0  0  0  0  0  0  0  0  0
    0.2640    1.3348    1.7800 H   0  0  0  0  0  0  0  0  0  0  0  0
   -0.5889    3.2615    1.4722 C   0  0  0  0  0  0  0  0  0  0  0  0
   -1.6291    3.5206    1.6805 H   0  0  0  0  0  0  0  0  0  0  0  0
    0.0359    3.5855    2.3049 H   0  0  0  0  0  0  0  0  0  0  0  0
   -0.2760    3.7797    0.5637 H   0  0  0  0  0  0  0  0  0  0  0  0
  5  6  2  0  0  0  0
  5  7  1  0  0  0  0
  2  3  1  0  0  0  0
  2  4  1  0  0  0  0
  2  5  1  0  0  0  0
  1  2  1  0  0  0  0
 25 26  2  0  0  0  0
 25 27  1  0  0  0  0
 23 24  1  0  0  0  0
 21 22  1  0  0  0  0
 21 23  2  0  0  0  0
 19 20  1  0  0  0  0
 19 21  1  0  0  0  0
 17 18  1  0  0  0  0
 17 19  2  0  0  0  0
 15 16  1  0  0  0  0
 15 17  1  0  0  0  0
 14 15  2  0  0  0  0
 14 23  1  0  0  0  0
 11 12  1  0  0  0  0
 11 13  1  0  0  0  0
 11 14  1  0  0  0  0
  9 10  1  0  0  0  0
  9 11  1  0  0  0  0
  9 25  1  0  0  0  0
  7  8  1  0  0  0  0
  7  9  1  0  0  0  0
 29 30  1  0  0  0  0
 29 31  1  0  0  0  0
 29 32  1  0  0  0  0
 27 28  1  0  0  0  0
 27 29  1  0  0  0  0
M  END
$$$$
default_name
  -OEChem-02102213163D

 32 32  0     1  0  0  0  0  0999 V2000
   -3.8405   -3.7518    1.6252 H   0  0  0  0  0  0  0  0  0  0  0  0
   -3.7965   -2.8768    0.9782 C   0  0  0  0  0  0  0  0  0  0  0  0
   -4.5465   -2.1527    1.2902 H   0  0  0  0  0  0  0  0  0  0  0  0
   -3.9745   -3.1748   -0.0538 H   0  0  0  0  0  0  0  0  0  0  0  0
   -2.4245   -2.2537    1.0882 C   0  0  0  0  0  0  0  0  0  0  0  0
   -1.5805   -2.7478    1.8242 O   0  0  0  0  0  0  0  0  0  0  0  0
   -2.2045   -1.1637    0.3562 N   0  0  0  0  0  0  0  0  0  0  0  0
   -2.9595   -0.7907   -0.2008 H   0  0  0  0  0  0  0  0  0  0  0  0
   -0.9485   -0.4087    0.3482 C   0  0  1  0  0  0  0  0  0  0  0  0
   -0.3666   -0.6914    1.2269 H   0  0  0  0  0  0  0  0  0  0  0  0
   -0.1405   -0.7797   -0.9072 C   0  0  0  0  0  0  0  0  0  0  0  0
    0.4727    0.0738   -1.1999 H   0  0  0  0  0  0  0  0  0  0  0  0
    0.5356   -1.6004   -0.6629 H   0  0  0  0  0  0  0  0  0  0  0  0
   -0.9966   -1.1732   -2.0959 C   0  0  0  0  0  0  0  0  0  0  0  0
   -1.1108   -2.5237   -2.4767 C   0  0  0  0  0  0  0  0  0  0  0  0
   -0.5694   -3.2876   -1.9366 H   0  0  0  0  0  0  0  0  0  0  0  0
   -1.9394   -2.8854   -3.5549 C   0  0  0  0  0  0  0  0  0  0  0  0
   -2.0236   -3.9227   -3.8473 H   0  0  0  0  0  0  0  0  0  0  0  0
   -2.6563   -1.8986   -4.2526 C   0  0  0  0  0  0  0  0  0  0  0  0
   -3.2910   -2.1762   -5.0824 H   0  0  0  0  0  0  0  0  0  0  0  0
   -2.5433   -0.5480   -3.8756 C   0  0  0  0  0  0  0  0  0  0  0  0
   -3.0901    0.2113   -4.4152 H   0  0  0  0  0  0  0  0  0  0  0  0
   -1.7126   -0.1864   -2.8001 C   0  0  0  0  0  0  0  0  0  0  0  0
   -1.6239    0.8533   -2.5132 H   0  0  0  0  0  0  0  0  0  0  0  0
   -1.2168    1.1047    0.4313 C   0  0  0  0  0  0  0  0  0  0  0  0
   -2.0890    1.6186   -0.2704 O   0  0  0  0  0  0  0  0  0  0  0  0
   -0.4674    1.8182    1.2813 N   0  0  0  0  0  0  0  0  0  0  0  0
    0.2640    1.3348    1.7800 H   0  0  0  0  0  0  0  0  0  0  0  0
   -0.5889    3.2615    1.4722 C   0  0  0  0  0  0  0  0  0  0  0  0
   -1.6291    3.5206    1.6805 H   0  0  0  0  0  0  0  0  0  0  0  0
    0.0359    3.5855    2.3049 H   0  0  0  0  0  0  0  0  0  0  0  0
   -0.2760    3.7797    0.5637 H   0  0  0  0  0  0  0  0  0  0  0  0
  5  6  2  0  0  0  0
  5  7  1  0  0  0  0
  2  3  1  0  0  0  0
  2  4  1  0  0  0  0
  2  5  1  0  0  0  0
  1  2  1  0  0  0  0
 25 26  2  0  0  0  0
 25 27  1  0  0  0  0
 23 24  1  0  0  0  0
 21 22  1  0  0  0  0
 21 23  2  0  0  0  0
 19 20  1  0  0  0  0
 19 21  1  0  0  0  0
 17 18  1  0  0  0  0
 17 19  2  0  0  0  0
 15 16  1  0  0  0  0
 15 17  1  0  0  0  0
 14 15  2  0  0  0  0
 14 23  1  0  0  0  0
 11 12  1  0  0  0  0
 11 13  1  0  0  0  0
 11 14  1  0  0  0  0
  9 10  1  0  0  0  0
  9 11  1  0  0  0  0
  9 25  1  0  0  0  0
  7  8  1  0  0  0  0
  7  9  1  0  0  0  0
 29 30  1  0  0  0  0
 29 31  1  0  0  0  0
 29 32  1  0  0  0  0
 27 28  1  0  0  0  0
 27 29  1  0  0  0  0
M  END
$$$$
default_name
  -OEChem-02102213163D

 32 32  0     1  0  0  0  0  0999 V2000
   -3.8405   -3.7518    1.6252 H   0  0  0  0  0  0  0  0  0  0  0  0
   -3.7965   -2.8768    0.9782 C   0  0  0  0  0  0  0  0  0  0  0  0
   -4.5465   -2.1527    1.2902 H   0  0  0  0  0  0  0  0  0  0  0  0
   -3.9745   -3.1748   -0.0538 H   0  0  0  0  0  0  0  0  0  0  0  0
   -2.4245   -2.2537    1.0882 C   0  0  0  0  0  0  0  0  0  0  0  0
   -1.5805   -2.7478    1.8242 O   0  0  0  0  0  0  0  0  0  0  0  0
   -2.2045   -1.1637    0.3562 N   0  0  0  0  0  0  0  0  0  0  0  0
   -2.9595   -0.7907   -0.2008 H   0  0  0  0  0  0  0  0  0  0  0  0
   -0.9485   -0.4087    0.3482 C   0  0  1  0  0  0  0  0  0  0  0  0
   -0.3666   -0.6914    1.2269 H   0  0  0  0  0  0  0  0  0  0  0  0
   -0.1405   -0.7797   -0.9072 C   0  0  0  0  0  0  0  0  0  0  0  0
    0.4727    0.0738   -1.1999 H   0  0  0  0  0  0  0  0  0  0  0  0
    0.5356   -1.6004   -0.6629 H   0  0  0  0  0  0  0  0  0  0  0  0
   -0.9966   -1.1732   -2.0959 C   0  0  0  0  0  0  0  0  0  0  0  0
   -1.3689   -2.5165   -2.2932 C   0  0  0  0  0  0  0  0  0  0  0  0
   -1.0270   -3.2805   -1.6094 H   0  0  0  0  0  0  0  0  0  0  0  0
   -2.1973   -2.8677   -3.3750 C   0  0  0  0  0  0  0  0  0  0  0  0
   -2.4799   -3.9001   -3.5261 H   0  0  0  0  0  0  0  0  0  0  0  0
   -2.6562   -1.8771   -4.2598 C   0  0  0  0  0  0  0  0  0  0  0  0
   -3.2907   -2.1473   -5.0922 H   0  0  0  0  0  0  0  0  0  0  0  0
   -2.2847   -0.5341   -4.0663 C   0  0  0  0  0  0  0  0  0  0  0  0
   -2.6329    0.2267   -4.7495 H   0  0  0  0  0  0  0  0  0  0  0  0
   -1.4542   -0.1839   -2.9871 C   0  0  0  0  0  0  0  0  0  0  0  0
   -1.1664    0.8492   -2.8413 H   0  0  0  0  0  0  0  0  0  0  0  0
   -1.2168    1.1047    0.4313 C   0  0  0  0  0  0  0  0  0  0  0  0
   -2.0890    1.6186   -0.2704 O   0  0  0  0  0  0  0  0  0  0  0  0
   -0.4674    1.8182    1.2813 N   0  0  0  0  0  0  0  0  0  0  0  0
    0.2640    1.3348    1.7800 H   0  0  0  0  0  0  0  0  0  0  0  0
   -0.5889    3.2615    1.4722 C   0  0  0  0  0  0  0  0  0  0  0  0
   -1.6291    3.5206    1.6805 H   0  0  0  0  0  0  0  0  0  0  0  0
    0.0359    3.5855    2.3049 H   0  0  0  0  0  0  0  0  0  0  0  0
   -0.2760    3.7797    0.5637 H   0  0  0  0  0  0  0  0  0  0  0  0
  5  6  2  0  0  0  0
  5  7  1  0  0  0  0
  2  3  1  0  0  0  0
  2  4  1  0  0  0  0
  2  5  1  0  0  0  0
  1  2  1  0  0  0  0
 25 26  2  0  0  0  0
 25 27  1  0  0  0  0
 23 24  1  0  0  0  0
 21 22  1  0  0  0  0
 21 23  2  0  0  0  0
 19 20  1  0  0  0  0
 19 21  1  0  0  0  0
 17 18  1  0  0  0  0
 17 19  2  0  0  0  0
 15 16  1  0  0  0  0
 15 17  1  0  0  0  0
 14 15  2  0  0  0  0
 14 23  1  0  0  0  0
 11 12  1  0  0  0  0
 11 13  1  0  0  0  0
 11 14  1  0  0  0  0
  9 10  1  0  0  0  0
  9 11  1  0  0  0  0
  9 25  1  0  0  0  0
  7  8  1  0  0  0  0
  7  9  1  0  0  0  0
 29 30  1  0  0  0  0
 29 31  1  0  0  0  0
 29 32  1  0  0  0  0
 27 28  1  0  0  0  0
 27 29  1  0  0  0  0
M  END
$$$$
default_name
  -OEChem-02102213163D

 32 32  0     1  0  0  0  0  0999 V2000
   -3.8405   -3.7518    1.6252 H   0  0  0  0  0  0  0  0  0  0  0  0
   -3.7965   -2.8768    0.9782 C   0  0  0  0  0  0  0  0  0  0  0  0
   -4.5465   -2.1527    1.2902 H   0  0  0  0  0  0  0  0  0  0  0  0
   -3.9745   -3.1748   -0.0538 H   0  0  0  0  0  0  0  0  0  0  0  0
   -2.4245   -2.2537    1.0882 C   0  0  0  0  0  0  0  0  0  0  0  0
   -1.5805   -2.7478    1.8242 O   0  0  0  0  0  0  0  0  0  0  0  0
   -2.2045   -1.1637    0.3562 N   0  0  0  0  0  0  0  0  0  0  0  0
   -2.9595   -0.7907   -0.2008 H   0  0  0  0  0  0  0  0  0  0  0  0
   -0.9485   -0.4087    0.3482 C   0  0  1  0  0  0  0  0  0  0  0  0
   -0.3666   -0.6914    1.2269 H   0  0  0  0  0  0  0  0  0  0  0  0
   -0.1405   -0.7797   -0.9072 C   0  0  0  0  0  0  0  0  0  0  0  0
    0.4727    0.0738   -1.1999 H   0  0  0  0  0  0  0  0  0  0  0  0
    0.5356   -1.6004   -0.6629 H   0  0  0  0  0  0  0  0  0  0  0  0
   -0.9966   -1.1732   -2.0959 C   0  0  0  0  0  0  0  0  0  0  0  0
   -1.6292   -2.4303   -2.1343 C   0  0  0  0  0  0  0  0  0  0  0  0
   -1.4896   -3.1331   -1.3251 H   0  0  0  0  0  0  0  0  0  0  0  0
   -2.4550   -2.7720   -3.2211 C   0  0  0  0  0  0  0  0  0  0  0  0
   -2.9377   -3.7388   -3.2499 H   0  0  0  0  0  0  0  0  0  0  0  0
   -2.6512   -1.8575   -4.2698 C   0  0  0  0  0  0  0  0  0  0  0  0
   -3.2838   -2.1209   -5.1059 H   0  0  0  0  0  0  0  0  0  0  0  0
   -2.0194   -0.6010   -4.2353 C   0  0  0  0  0  0  0  0  0  0  0  0
   -2.1658    0.0999   -5.0439 H   0  0  0  0  0  0  0  0  0  0  0  0
   -1.1915   -0.2611   -3.1506 C   0  0  0  0  0  0  0  0  0  0  0  0
   -0.7034    0.7045   -3.1269 H   0  0  0  0  0  0  0  0  0  0  0  0
   -1.2168    1.1047    0.4313 C   0  0  0  0  0  0  0  0  0  0  0  0
   -2.0890    1.6186   -0.2704 O   0  0  0  0  0  0  0  0  0  0  0  0
   -0.4674    1.8182    1.2813 N   0  0  0  0  0  0  0  0  0  0  0  0
    0.2640    1.3348    1.7800 H   0  0  0  0  0  0  0  0  0  0  0  0
   -0.5889    3.2615    1.4722 C   0  0  0  0  0  0  0  0  0  0  0  0
   -1.6291    3.5206    1.6805 H   0  0  0  0  0  0  0  0  0  0  0  0
    0.0359    3.5855    2.3049 H   0  0  0  0  0  0  0  0  0  0  0  0
   -0.2760    3.7797    0.5637 H   0  0  0  0  0  0  0  0  0  0  0  0
  5  6  2  0  0  0  0
  5  7  1  0  0  0  0
  2  3  1  0  0  0  0
  2  4  1  0  0  0  0
  2  5  1  0  0  0  0
  1  2  1  0  0  0  0
 25 26  2  0  0  0  0
 25 27  1  0  0  0  0
 23 24  1  0  0  0  0
 21 22  1  0  0  0  0
 21 23  2  0  0  0  0
 19 20  1  0  0  0  0
 19 21  1  0  0  0  0
 17 18  1  0  0  0  0
 17 19  2  0  0  0  0
 15 16  1  0  0  0  0
 15 17  1  0  0  0  0
 14 15  2  0  0  0  0
 14 23  1  0  0  0  0
 11 12  1  0  0  0  0
 11 13  1  0  0  0  0
 11 14  1  0  0  0  0
  9 10  1  0  0  0  0
  9 11  1  0  0  0  0
  9 25  1  0  0  0  0
  7  8  1  0  0  0  0
  7  9  1  0  0  0  0
 29 30  1  0  0  0  0
 29 31  1  0  0  0  0
 29 32  1  0  0  0  0
 27 28  1  0  0  0  0
 27 29  1  0  0  0  0
M  END
$$$$
default_name
  -OEChem-02102213163D

 32 32  0     1  0  0  0  0  0999 V2000
   -3.8405   -3.7518    1.6252 H   0  0  0  0  0  0  0  0  0  0  0  0
   -3.7965   -2.8768    0.9782 C   0  0  0  0  0  0  0  0  0  0  0  0
   -4.5465   -2.1527    1.2902 H   0  0  0  0  0  0  0  0  0  0  0  0
   -3.9745   -3.1748   -0.0538 H   0  0  0  0  0  0  0  0  0  0  0  0
   -2.4245   -2.2537    1.0882 C   0  0  0  0  0  0  0  0  0  0  0  0
   -1.5805   -2.7478    1.8242 O   0  0  0  0  0  0  0  0  0  0  0  0
   -2.2045   -1.1637    0.3562 N   0  0  0  0  0  0  0  0  0  0  0  0
   -2.9595   -0.7907   -0.2008 H   0  0  0  0  0  0  0  0  0  0  0  0
   -0.9485   -0.4087    0.3482 C   0  0  1  0  0  0  0  0  0  0  0  0
   -0.3666   -0.6914    1.2269 H   0  0  0  0  0  0  0  0  0  0  0  0
   -0.1405   -0.7797   -0.9072 C   0  0  0  0  0  0  0  0  0  0  0  0
    0.4727    0.0738   -1.1999 H   0  0  0  0  0  0  0  0  0  0  0  0
    0.5356   -1.6004   -0.6629 H   0  0  0  0  0  0  0  0  0  0  0  0
   -0.9966   -1.1732   -2.0959 C   0  0  0  0  0  0  0  0  0  0  0  0
   -1.8737   -2.2711   -2.0109 C   0  0  0  0  0  0  0  0  0  0  0  0
   -1.9256   -2.8554   -1.1030 H   0  0  0  0  0  0  0  0  0  0  0  0
   -2.6948   -2.6048   -3.1038 C   0  0  0  0  0  0  0  0  0  0  0  0
   -3.3657   -3.4498   -3.0373 H   0  0  0  0  0  0  0  0  0  0  0  0
   -2.6418   -1.8410   -4.2821 C   0  0  0  0  0  0  0  0  0  0  0  0
   -3.2709   -2.0988   -5.1225 H   0  0  0  0  0  0  0  0  0  0  0  0
   -1.7653   -0.7442   -4.3709 C   0  0  0  0  0  0  0  0  0  0  0  0
   -1.7205   -0.1603   -5.2784 H   0  0  0  0  0  0  0  0  0  0  0  0
   -0.9425   -0.4129   -3.2797 C   0  0  0  0  0  0  0  0  0  0  0  0
   -0.2662    0.4290   -3.3505 H   0  0  0  0  0  0  0  0  0  0  0  0
   -1.2168    1.1047    0.4313 C   0  0  0  0  0  0  0  0  0  0  0  0
   -2.0890    1.6186   -0.2704 O   0  0  0  0  0  0  0  0  0  0  0  0
   -0.4674    1.8182    1.2813 N   0  0  0  0  0  0  0  0  0  0  0  0
    0.2640    1.3348    1.7800 H   0  0  0  0  0  0  0  0  0  0  0  0
   -0.5889    3.2615    1.4722 C   0  0  0  0  0  0  0  0  0  0  0  0
   -1.6291    3.5206    1.6805 H   0  0  0  0  0  0  0  0  0  0  0  0
    0.0359    3.5855    2.3049 H   0  0  0  0  0  0  0  0  0  0  0  0
   -0.2760    3.7797    0.5637 H   0  0  0  0  0  0  0  0  0  0  0  0
  5  6  2  0  0  0  0
  5  7  1  0  0  0  0
  2  3  1  0  0  0  0
  2  4  1  0  0  0  0
  2  5  1  0  0  0  0
  1  2  1  0  0  0  0
 25 26  2  0  0  0  0
 25 27  1  0  0  0  0
 23 24  1  0  0  0  0
 21 22  1  0  0  0  0
 21 23  2  0  0  0  0
 19 20  1  0  0  0  0
 19 21  1  0  0  0  0
 17 18  1  0  0  0  0
 17 19  2  0  0  0  0
 15 16  1  0  0  0  0
 15 17  1  0  0  0  0
 14 15  2  0  0  0  0
 14 23  1  0  0  0  0
 11 12  1  0  0  0  0
 11 13  1  0  0  0  0
 11 14  1  0  0  0  0
  9 10  1  0  0  0  0
  9 11  1  0  0  0  0
  9 25  1  0  0  0  0
  7  8  1  0  0  0  0
  7  9  1  0  0  0  0
 29 30  1  0  0  0  0
 29 31  1  0  0  0  0
 29 32  1  0  0  0  0
 27 28  1  0  0  0  0
 27 29  1  0  0  0  0
M  END
$$$$
default_name
  -OEChem-02102213163D

 32 32  0     1  0  0  0  0  0999 V2000
   -3.8405   -3.7518    1.6252 H   0  0  0  0  0  0  0  0  0  0  0  0
   -3.7965   -2.8768    0.9782 C   0  0  0  0  0  0  0  0  0  0  0  0
   -4.5465   -2.1527    1.2902 H   0  0  0  0  0  0  0  0  0  0  0  0
   -3.9745   -3.1748   -0.0538 H   0  0  0  0  0  0  0  0  0  0  0  0
   -2.4245   -2.2537    1.0882 C   0  0  0  0  0  0  0  0  0  0  0  0
   -1.5805   -2.7478    1.8242 O   0  0  0  0  0  0  0  0  0  0  0  0
   -2.2045   -1.1637    0.3562 N   0  0  0  0  0  0  0  0  0  0  0  0
   -2.9595   -0.7907   -0.2008 H   0  0  0  0  0  0  0  0  0  0  0  0
   -0.9485   -0.4087    0.3482 C   0  0  1  0  0  0  0  0  0  0  0  0
   -0.3666   -0.6914    1.2269 H   0  0  0  0  0  0  0  0  0  0  0  0
   -0.1405   -0.7797   -0.9072 C   0  0  0  0  0  0  0  0  0  0  0  0
    0.4727    0.0738   -1.1999 H   0  0  0  0  0  0  0  0  0  0  0  0
    0.5356   -1.6004   -0.6629 H   0  0  0  0  0  0  0  0  0  0  0  0
   -0.9966   -1.1732   -2.0959 C   0  0  0  0  0  0  0  0  0  0  0  0
   -2.0860   -2.0497   -1.9314 C   0  0  0  0  0  0  0  0  0  0  0  0
   -2.3053   -2.4662   -0.9584 H   0  0  0  0  0  0  0  0  0  0  0  0
   -2.9004   -2.3775   -3.0310 C   0  0  0  0  0  0  0  0  0  0  0  0
   -3.7348   -3.0527   -2.9030 H   0  0  0  0  0  0  0  0  0  0  0  0
   -2.6285   -1.8287   -4.2957 C   0  0  0  0  0  0  0  0  0  0  0  0
   -3.2528   -2.0825   -5.1409 H   0  0  0  0  0  0  0  0  0  0  0  0
   -1.5398   -0.9538   -4.4639 C   0  0  0  0  0  0  0  0  0  0  0  0
   -1.3275   -0.5361   -5.4371 H   0  0  0  0  0  0  0  0  0  0  0  0
   -0.7241   -0.6289   -3.3655 C   0  0  0  0  0  0  0  0  0  0  0  0
    0.1151    0.0417   -3.4969 H   0  0  0  0  0  0  0  0  0  0  0  0
   -1.2168    1.1047    0.4313 C   0  0  0  0  0  0  0  0  0  0  0  0
   -2.0890    1.6186   -0.2704 O   0  0  0  0  0  0  0  0  0  0  0  0
   -0.4674    1.8182    1.2813 N   0  0  0  0  0  0  0  0  0  0  0  0
    0.2640    1.3348    1.7800 H   0  0  0  0  0  0  0  0  0  0  0  0
   -0.5889    3.2615    1.4722 C   0  0  0  0  0  0  0  0  0  0  0  0
   -1.6291    3.5206    1.6805 H   0  0  0  0  0  0  0  0  0  0  0  0
    0.0359    3.5855    2.3049 H   0  0  0  0  0  0  0  0  0  0  0  0
   -0.2760    3.7797    0.5637 H   0  0  0  0  0  0  0  0  0  0  0  0
  5  6  2  0  0  0  0
  5  7  1  0  0  0  0
  2  3  1  0  0  0  0
  2  4  1  0  0  0  0
  2  5  1  0  0  0  0
  1  2  1  0  0  0  0
 25 26  2  0  0  0  0
 25 27  1  0  0  0  0
 23 24  1  0  0  0  0
 21 22  1  0  0  0  0
 21 23  2  0  0  0  0
 19 20  1  0  0  0  0
 19 21  1  0  0  0  0
 17 18  1  0  0  0  0
 17 19  2  0  0  0  0
 15 16  1  0  0  0  0
 15 17  1  0  0  0  0
 14 15  2  0  0  0  0
 14 23  1  0  0  0  0
 11 12  1  0  0  0  0
 11 13  1  0  0  0  0
 11 14  1  0  0  0  0
  9 10  1  0  0  0  0
  9 11  1  0  0  0  0
  9 25  1  0  0  0  0
  7  8  1  0  0  0  0
  7  9  1  0  0  0  0
 29 30  1  0  0  0  0
 29 31  1  0  0  0  0
 29 32  1  0  0  0  0
 27 28  1  0  0  0  0
 27 29  1  0  0  0  0
M  END
$$$$
default_name
  -OEChem-02102213163D

 32 32  0     1  0  0  0  0  0999 V2000
   -3.8405   -3.7518    1.6252 H   0  0  0  0  0  0  0  0  0  0  0  0
   -3.7965   -2.8768    0.9782 C   0  0  0  0  0  0  0  0  0  0  0  0
   -4.5465   -2.1527    1.2902 H   0  0  0  0  0  0  0  0  0  0  0  0
   -3.9745   -3.1748   -0.0538 H   0  0  0  0  0  0  0  0  0  0  0  0
   -2.4245   -2.2537    1.0882 C   0  0  0  0  0  0  0  0  0  0  0  0
   -1.5805   -2.7478    1.8242 O   0  0  0  0  0  0  0  0  0  0  0  0
   -2.2045   -1.1637    0.3562 N   0  0  0  0  0  0  0  0  0  0  0  0
   -2.9595   -0.7907   -0.2008 H   0  0  0  0  0  0  0  0  0  0  0  0
   -0.9485   -0.4087    0.3482 C   0  0  1  0  0  0  0  0  0  0  0  0
   -0.3666   -0.6914    1.2269 H   0  0  0  0  0  0  0  0  0  0  0  0
   -0.1405   -0.7797   -0.9072 C   0  0  0  0  0  0  0  0  0  0  0  0
    0.4727    0.0738   -1.1999 H   0  0  0  0  0  0  0  0  0  0  0  0
    0.5356   -1.6004   -0.6629 H   0  0  0  0  0  0  0  0  0  0  0  0
   -0.9966   -1.1732   -2.0959 C   0  0  0  0  0  0  0  0  0  0  0  0
   -2.2514   -1.7811   -1.9012 C   0  0  0  0  0  0  0  0  0  0  0  0
   -2.6029   -1.9921   -0.9011 H   0  0  0  0  0  0  0  0  0  0  0  0
   -3.0578   -2.1057   -3.0076 C   0  0  0  0  0  0  0  0  0  0  0  0
   -4.0198   -2.5747   -2.8560 H   0  0  0  0  0  0  0  0  0  0  0  0
   -2.6123   -1.8216   -4.3097 C   0  0  0  0  0  0  0  0  0  0  0  0
   -3.2308   -2.0731   -5.1599 H   0  0  0  0  0  0  0  0  0  0  0  0
   -1.3583   -1.2156   -4.5079 C   0  0  0  0  0  0  0  0  0  0  0  0
   -1.0134   -1.0021   -5.5090 H   0  0  0  0  0  0  0  0  0  0  0  0
   -0.5512   -0.8944   -3.4021 C   0  0  0  0  0  0  0  0  0  0  0  0
    0.4148   -0.4312   -3.5561 H   0  0  0  0  0  0  0  0  0  0  0  0
   -1.2168    1.1047    0.4313 C   0  0  0  0  0  0  0  0  0  0  0  0
   -2.0890    1.6186   -0.2704 O   0  0  0  0  0  0  0  0  0  0  0  0
   -0.4674    1.8182    1.2813 N   0  0  0  0  0  0  0  0  0  0  0  0
    0.2640    1.3348    1.7800 H   0  0  0  0  0  0  0  0  0  0  0  0
   -0.5889    3.2615    1.4722 C   0  0  0  0  0  0  0  0  0  0  0  0
   -1.6291    3.5206    1.6805 H   0  0  0  0  0  0  0  0  0  0  0  0
    0.0359    3.5855    2.3049 H   0  0  0  0  0  0  0  0  0  0  0  0
   -0.2760    3.7797    0.5637 H   0  0  0  0  0  0  0  0  0  0  0  0
  5  6  2  0  0  0  0
  5  7  1  0  0  0  0
  2  3  1  0  0  0  0
  2  4  1  0  0  0  0
  2  5  1  0  0  0  0
  1  2  1  0  0  0  0
 25 26  2  0  0  0  0
 25 27  1  0  0  0  0
 23 24  1  0  0  0  0
 21 22  1  0  0  0  0
 21 23  2  0  0  0  0
 19 20  1  0  0  0  0
 19 21  1  0  0  0  0
 17 18  1  0  0  0  0
 17 19  2  0  0  0  0
 15 16  1  0  0  0  0
 15 17  1  0  0  0  0
 14 15  2  0  0  0  0
 14 23  1  0  0  0  0
 11 12  1  0  0  0  0
 11 13  1  0  0  0  0
 11 14  1  0  0  0  0
  9 10  1  0  0  0  0
  9 11  1  0  0  0  0
  9 25  1  0  0  0  0
  7  8  1  0  0  0  0
  7  9  1  0  0  0  0
 29 30  1  0  0  0  0
 29 31  1  0  0  0  0
 29 32  1  0  0  0  0
 27 28  1  0  0  0  0
 27 29  1  0  0  0  0
M  END
$$$$
default_name
  -OEChem-02102213163D

 32 32  0     1  0  0  0  0  0999 V2000
   -3.8405   -3.7518    1.6252 H   0  0  0  0  0  0  0  0  0  0  0  0
   -3.7965   -2.8768    0.9782 C   0  0  0  0  0  0  0  0  0  0  0  0
   -4.5465   -2.1527    1.2902 H   0  0  0  0  0  0  0  0  0  0  0  0
   -3.9745   -3.1748   -0.0538 H   0  0  0  0  0  0  0  0  0  0  0  0
   -2.4245   -2.2537    1.0882 C   0  0  0  0  0  0  0  0  0  0  0  0
   -1.5805   -2.7478    1.8242 O   0  0  0  0  0  0  0  0  0  0  0  0
   -2.2045   -1.1637    0.3562 N   0  0  0  0  0  0  0  0  0  0  0  0
   -2.9595   -0.7907   -0.2008 H   0  0  0  0  0  0  0  0  0  0  0  0
   -0.9485   -0.4087    0.3482 C   0  0  1  0  0  0  0  0  0  0  0  0
   -0.3666   -0.6914    1.2269 H   0  0  0  0  0  0  0  0  0  0  0  0
   -0.1405   -0.7797   -0.9072 C   0  0  0  0  0  0  0  0  0  0  0  0
    0.4727    0.0738   -1.1999 H   0  0  0  0  0  0  0  0  0  0  0  0
    0.5356   -1.6004   -0.6629 H   0  0  0  0  0  0  0  0  0  0  0  0
   -0.9966   -1.1732   -2.0959 C   0  0  0  0  0  0  0  0  0  0  0  0
   -2.3587   -1.4837   -1.9223 C   0  0  0  0  0  0  0  0  0  0  0  0
   -2.7980   -1.4655   -0.9349 H   0  0  0  0  0  0  0  0  0  0  0  0
   -3.1562   -1.8077   -3.0354 C   0  0  0  0  0  0  0  0  0  0  0  0
   -4.2013   -2.0484   -2.8996 H   0  0  0  0  0  0  0  0  0  0  0  0
   -2.5942   -1.8200   -4.3233 C   0  0  0  0  0  0  0  0  0  0  0  0
   -3.2064   -2.0713   -5.1781 H   0  0  0  0  0  0  0  0  0  0  0  0
   -1.2331   -1.5117   -4.5001 C   0  0  0  0  0  0  0  0  0  0  0  0
   -0.7997   -1.5264   -5.4893 H   0  0  0  0  0  0  0  0  0  0  0  0
   -0.4356   -1.1912   -3.3871 C   0  0  0  0  0  0  0  0  0  0  0  0
    0.6122   -0.9574   -3.5241 H   0  0  0  0  0  0  0  0  0  0  0  0
   -1.2168    1.1047    0.4313 C   0  0  0  0  0  0  0  0  0  0  0  0
   -2.0890    1.6186   -0.2704 O   0  0  0  0  0  0  0  0  0  0  0  0
   -0.4674    1.8182    1.2813 N   0  0  0  0  0  0  0  0  0  0  0  0
    0.2640    1.3348    1.7800 H   0  0  0  0  0  0  0  0  0  0  0  0
   -0.5889    3.2615    1.4722 C   0  0  0  0  0  0  0  0  0  0  0  0
   -1.6291    3.5206    1.6805 H   0  0  0  0  0  0  0  0  0  0  0  0
    0.0359    3.5855    2.3049 H   0  0  0  0  0  0  0  0  0  0  0  0
   -0.2760    3.7797    0.5637 H   0  0  0  0  0  0  0  0  0  0  0  0
  5  6  2  0  0  0  0
  5  7  1  0  0  0  0
  2  3  1  0  0  0  0
  2  4  1  0  0  0  0
  2  5  1  0  0  0  0
  1  2  1  0  0  0  0
 25 26  2  0  0  0  0
 25 27  1  0  0  0  0
 23 24  1  0  0  0  0
 21 22  1  0  0  0  0
 21 23  2  0  0  0  0
 19 20  1  0  0  0  0
 19 21  1  0  0  0  0
 17 18  1  0  0  0  0
 17 19  2  0  0  0  0
 15 16  1  0  0  0  0
 15 17  1  0  0  0  0
 14 15  2  0  0  0  0
 14 23  1  0  0  0  0
 11 12  1  0  0  0  0
 11 13  1  0  0  0  0
 11 14  1  0  0  0  0
  9 10  1  0  0  0  0
  9 11  1  0  0  0  0
  9 25  1  0  0  0  0
  7  8  1  0  0  0  0
  7  9  1  0  0  0  0
 29 30  1  0  0  0  0
 29 31  1  0  0  0  0
 29 32  1  0  0  0  0
 27 28  1  0  0  0  0
 27 29  1  0  0  0  0
M  END
$$$$
default_name
  -OEChem-02102213163D

 32 32  0     1  0  0  0  0  0999 V2000
   -3.8405   -3.7518    1.6252 H   0  0  0  0  0  0  0  0  0  0  0  0
   -3.7965   -2.8768    0.9782 C   0  0  0  0  0  0  0  0  0  0  0  0
   -4.5465   -2.1527    1.2902 H   0  0  0  0  0  0  0  0  0  0  0  0
   -3.9745   -3.1748   -0.0538 H   0  0  0  0  0  0  0  0  0  0  0  0
   -2.4245   -2.2537    1.0882 C   0  0  0  0  0  0  0  0  0  0  0  0
   -1.5805   -2.7478    1.8242 O   0  0  0  0  0  0  0  0  0  0  0  0
   -2.2045   -1.1637    0.3562 N   0  0  0  0  0  0  0  0  0  0  0  0
   -2.9595   -0.7907   -0.2008 H   0  0  0  0  0  0  0  0  0  0  0  0
   -0.9485   -0.4087    0.3482 C   0  0  1  0  0  0  0  0  0  0  0  0
   -0.3666   -0.6914    1.2269 H   0  0  0  0  0  0  0  0  0  0  0  0
   -0.1405   -0.7797   -0.9072 C   0  0  0  0  0  0  0  0  0  0  0  0
    0.4727    0.0738   -1.1999 H   0  0  0  0  0  0  0  0  0  0  0  0
    0.5356   -1.6004   -0.6629 H   0  0  0  0  0  0  0  0  0  0  0  0
   -0.9966   -1.1732   -2.0959 C   0  0  0  0  0  0  0  0  0  0  0  0
   -2.4006   -1.1778   -1.9934 C   0  0  0  0  0  0  0  0  0  0  0  0
   -2.8773   -0.9222   -1.0576 H   0  0  0  0  0  0  0  0  0  0  0  0
   -3.1890   -1.5040   -3.1123 C   0  0  0  0  0  0  0  0  0  0  0  0
   -4.2669   -1.5095   -3.0307 H   0  0  0  0  0  0  0  0  0  0  0  0
   -2.5755   -1.8242   -4.3353 C   0  0  0  0  0  0  0  0  0  0  0  0
   -3.1812   -2.0771   -5.1943 H   0  0  0  0  0  0  0  0  0  0  0  0
   -1.1727   -1.8220   -4.4408 C   0  0  0  0  0  0  0  0  0  0  0  0
   -0.7009   -2.0734   -5.3794 H   0  0  0  0  0  0  0  0  0  0  0  0
   -0.3851   -1.4992   -3.3215 C   0  0  0  0  0  0  0  0  0  0  0  0
    0.6941   -1.5011   -3.4031 H   0  0  0  0  0  0  0  0  0  0  0  0
   -1.2168    1.1047    0.4313 C   0  0  0  0  0  0  0  0  0  0  0  0
   -2.0890    1.6186   -0.2704 O   0  0  0  0  0  0  0  0  0  0  0  0
   -0.4674    1.8182    1.2813 N   0  0  0  0  0  0  0  0  0  0  0  0
    0.2640    1.3348    1.7800 H   0  0  0  0  0  0  0  0  0  0  0  0
   -0.5889    3.2615    1.4722 C   0  0  0  0  0  0  0  0  0  0  0  0
   -1.6291    3.5206    1.6805 H   0  0  0  0  0  0  0  0  0  0  0  0
    0.0359    3.5855    2.3049 H   0  0  0  0  0  0  0  0  0  0  0  0
   -0.2760    3.7797    0.5637 H   0  0  0  0  0  0  0  0  0  0  0  0
  5  6  2  0  0  0  0
  5  7  1  0  0  0  0
  2  3  1  0  0  0  0
  2  4  1  0  0  0  0
  2  5  1  0  0  0  0
  1  2  1  0  0  0  0
 25 26  2  0  0  0  0
 25 27  1  0  0  0  0
 23 24  1  0  0  0  0
 21 22  1  0  0  0  0
 21 23  2  0  0  0  0
 19 20  1  0  0  0  0
 19 21  1  0  0  0  0
 17 18  1  0  0  0  0
 17 19  2  0  0  0  0
 15 16  1  0  0  0  0
 15 17  1  0  0  0  0
 14 15  2  0  0  0  0
 14 23  1  0  0  0  0
 11 12  1  0  0  0  0
 11 13  1  0  0  0  0
 11 14  1  0  0  0  0
  9 10  1  0  0  0  0
  9 11  1  0  0  0  0
  9 25  1  0  0  0  0
  7  8  1  0  0  0  0
  7  9  1  0  0  0  0
 29 30  1  0  0  0  0
 29 31  1  0  0  0  0
 29 32  1  0  0  0  0
 27 28  1  0  0  0  0
 27 29  1  0  0  0  0
M  END
$$$$
default_name
  -OEChem-02102213163D

 32 32  0     1  0  0  0  0  0999 V2000
   -3.8405   -3.7518    1.6252 H   0  0  0  0  0  0  0  0  0  0  0  0
   -3.7965   -2.8768    0.9782 C   0  0  0  0  0  0  0  0  0  0  0  0
   -4.5465   -2.1527    1.2902 H   0  0  0  0  0  0  0  0  0  0  0  0
   -3.9745   -3.1748   -0.0538 H   0  0  0  0  0  0  0  0  0  0  0  0
   -2.4245   -2.2537    1.0882 C   0  0  0  0  0  0  0  0  0  0  0  0
   -1.5805   -2.7478    1.8242 O   0  0  0  0  0  0  0  0  0  0  0  0
   -2.2045   -1.1637    0.3562 N   0  0  0  0  0  0  0  0  0  0  0  0
   -2.9595   -0.7907   -0.2008 H   0  0  0  0  0  0  0  0  0  0  0  0
   -0.9485   -0.4087    0.3482 C   0  0  1  0  0  0  0  0  0  0  0  0
   -0.3666   -0.6914    1.2269 H   0  0  0  0  0  0  0  0  0  0  0  0
   -0.1405   -0.7797   -0.9072 C   0  0  0  0  0  0  0  0  0  0  0  0
    0.4727    0.0738   -1.1999 H   0  0  0  0  0  0  0  0  0  0  0  0
    0.5356   -1.6004   -0.6629 H   0  0  0  0  0  0  0  0  0  0  0  0
   -0.9966   -1.1732   -2.0959 C   0  0  0  0  0  0  0  0  0  0  0  0
   -2.3743   -0.8842   -2.1095 C   0  0  0  0  0  0  0  0  0  0  0  0
   -2.8356   -0.3992   -1.2608 H   0  0  0  0  0  0  0  0  0  0  0  0
   -3.1539   -1.2153   -3.2332 C   0  0  0  0  0  0  0  0  0  0  0  0
   -4.2121   -0.9948   -3.2405 H   0  0  0  0  0  0  0  0  0  0  0  0
   -2.5575   -1.8337   -4.3451 C   0  0  0  0  0  0  0  0  0  0  0  0
   -3.1570   -2.0902   -5.2074 H   0  0  0  0  0  0  0  0  0  0  0  0
   -1.1814   -2.1253   -4.3342 C   0  0  0  0  0  0  0  0  0  0  0  0
   -0.7239   -2.6056   -5.1866 H   0  0  0  0  0  0  0  0  0  0  0  0
   -0.4032   -1.7973   -3.2098 C   0  0  0  0  0  0  0  0  0  0  0  0
    0.6548   -2.0252   -3.2013 H   0  0  0  0  0  0  0  0  0  0  0  0
   -1.2168    1.1047    0.4313 C   0  0  0  0  0  0  0  0  0  0  0  0
   -2.0890    1.6186   -0.2704 O   0  0  0  0  0  0  0  0  0  0  0  0
   -0.4674    1.8182    1.2813 N   0  0  0  0  0  0  0  0  0  0  0  0
    0.2640    1.3348    1.7800 H   0  0  0  0  0  0  0  0  0  0  0  0
   -0.5889    3.2615    1.4722 C   0  0  0  0  0  0  0  0  0  0  0  0
   -1.6291    3.5206    1.6805 H   0  0  0  0  0  0  0  0  0  0  0  0
    0.0359    3.5855    2.3049 H   0  0  0  0  0  0  0  0  0  0  0  0
   -0.2760    3.7797    0.5637 H   0  0  0  0  0  0  0  0  0  0  0  0
  5  6  2  0  0  0  0
  5  7  1  0  0  0  0
  2  3  1  0  0  0  0
  2  4  1  0  0  0  0
  2  5  1  0  0  0  0
  1  2  1  0  0  0  0
 25 26  2  0  0  0  0
 25 27  1  0  0  0  0
 23 24  1  0  0  0  0
 21 22  1  0  0  0  0
 21 23  2  0  0  0  0
 19 20  1  0  0  0  0
 19 21  1  0  0  0  0
 17 18  1  0  0  0  0
 17 19  2  0  0  0  0
 15 16  1  0  0  0  0
 15 17  1  0  0  0  0
 14 15  2  0  0  0  0
 14 23  1  0  0  0  0
 11 12  1  0  0  0  0
 11 13  1  0  0  0  0
 11 14  1  0  0  0  0
  9 10  1  0  0  0  0
  9 11  1  0  0  0  0
  9 25  1  0  0  0  0
  7  8  1  0  0  0  0
  7  9  1  0  0  0  0
 29 30  1  0  0  0  0
 29 31  1  0  0  0  0
 29 32  1  0  0  0  0
 27 28  1  0  0  0  0
 27 29  1  0  0  0  0
M  END
$$$$
default_name
  -OEChem-02102213163D

 32 32  0     1  0  0  0  0  0999 V2000
   -3.8405   -3.7518    1.6252 H   0  0  0  0  0  0  0  0  0  0  0  0
   -3.7965   -2.8768    0.9782 C   0  0  0  0  0  0  0  0  0  0  0  0
   -4.5465   -2.1527    1.2902 H   0  0  0  0  0  0  0  0  0  0  0  0
   -3.9745   -3.1748   -0.0538 H   0  0  0  0  0  0  0  0  0  0  0  0
   -2.4245   -2.2537    1.0882 C   0  0  0  0  0  0  0  0  0  0  0  0
   -1.5805   -2.7478    1.8242 O   0  0  0  0  0  0  0  0  0  0  0  0
   -2.2045   -1.1637    0.3562 N   0  0  0  0  0  0  0  0  0  0  0  0
   -2.9595   -0.7907   -0.2008 H   0  0  0  0  0  0  0  0  0  0  0  0
   -0.9485   -0.4087    0.3482 C   0  0  1  0  0  0  0  0  0  0  0  0
   -0.3666   -0.6914    1.2269 H   0  0  0  0  0  0  0  0  0  0  0  0
   -0.1405   -0.7797   -0.9072 C   0  0  0  0  0  0  0  0  0  0  0  0
    0.4727    0.0738   -1.1999 H   0  0  0  0  0  0  0  0  0  0  0  0
    0.5356   -1.6004   -0.6629 H   0  0  0  0  0  0  0  0  0  0  0  0
   -0.9966   -1.1732   -2.0959 C   0  0  0  0  0  0  0  0  0  0  0  0
   -2.2816   -0.6229   -2.2628 C   0  0  0  0  0  0  0  0  0  0  0  0
   -2.6755    0.0678   -1.5307 H   0  0  0  0  0  0  0  0  0  0  0  0
   -3.0533   -0.9611   -3.3897 C   0  0  0  0  0  0  0  0  0  0  0  0
   -4.0408   -0.5394   -3.5147 H   0  0  0  0  0  0  0  0  0  0  0  0
   -2.5414   -1.8480   -4.3520 C   0  0  0  0  0  0  0  0  0  0  0  0
   -3.1353   -2.1097   -5.2166 H   0  0  0  0  0  0  0  0  0  0  0  0
   -1.2584   -2.4009   -4.1875 C   0  0  0  0  0  0  0  0  0  0  0  0
   -0.8669   -3.0869   -4.9243 H   0  0  0  0  0  0  0  0  0  0  0  0
   -0.4887   -2.0653   -3.0595 C   0  0  0  0  0  0  0  0  0  0  0  0
    0.4969   -2.4939   -2.9324 H   0  0  0  0  0  0  0  0  0  0  0  0
   -1.2168    1.1047    0.4313 C   0  0  0  0  0  0  0  0  0  0  0  0
   -2.0890    1.6186   -0.2704 O   0  0  0  0  0  0  0  0  0  0  0  0
   -0.4674    1.8182    1.2813 N   0  0  0  0  0  0  0  0  0  0  0  0
    0.2640    1.3348    1.7800 H   0  0  0  0  0  0  0  0  0  0  0  0
   -0.5889    3.2615    1.4722 C   0  0  0  0  0  0  0  0  0  0  0  0
   -1.6291    3.5206    1.6805 H   0  0  0  0  0  0  0  0  0  0  0  0
    0.0359    3.5855    2.3049 H   0  0  0  0  0  0  0  0  0  0  0  0
   -0.2760    3.7797    0.5637 H   0  0  0  0  0  0  0  0  0  0  0  0
  5  6  2  0  0  0  0
  5  7  1  0  0  0  0
  2  3  1  0  0  0  0
  2  4  1  0  0  0  0
  2  5  1  0  0  0  0
  1  2  1  0  0  0  0
 25 26  2  0  0  0  0
 25 27  1  0  0  0  0
 23 24  1  0  0  0  0
 21 22  1  0  0  0  0
 21 23  2  0  0  0  0
 19 20  1  0  0  0  0
 19 21  1  0  0  0  0
 17 18  1  0  0  0  0
 17 19  2  0  0  0  0
 15 16  1  0  0  0  0
 15 17  1  0  0  0  0
 14 15  2  0  0  0  0
 14 23  1  0  0  0  0
 11 12  1  0  0  0  0
 11 13  1  0  0  0  0
 11 14  1  0  0  0  0
  9 10  1  0  0  0  0
  9 11  1  0  0  0  0
  9 25  1  0  0  0  0
  7  8  1  0  0  0  0
  7  9  1  0  0  0  0
 29 30  1  0  0  0  0
 29 31  1  0  0  0  0
 29 32  1  0  0  0  0
 27 28  1  0  0  0  0
 27 29  1  0  0  0  0
M  END
$$$$
default_name
  -OEChem-02102213163D

 32 32  0     1  0  0  0  0  0999 V2000
   -3.8405   -3.7518    1.6252 H   0  0  0  0  0  0  0  0  0  0  0  0
   -3.7965   -2.8768    0.9782 C   0  0  0  0  0  0  0  0  0  0  0  0
   -4.5465   -2.1527    1.2902 H   0  0  0  0  0  0  0  0  0  0  0  0
   -3.9745   -3.1748   -0.0538 H   0  0  0  0  0  0  0  0  0  0  0  0
   -2.4245   -2.2537    1.0882 C   0  0  0  0  0  0  0  0  0  0  0  0
   -1.5805   -2.7478    1.8242 O   0  0  0  0  0  0  0  0  0  0  0  0
   -2.2045   -1.1637    0.3562 N   0  0  0  0  0  0  0  0  0  0  0  0
   -2.9595   -0.7907   -0.2008 H   0  0  0  0  0  0  0  0  0  0  0  0
   -0.9485   -0.4087    0.3482 C   0  0  1  0  0  0  0  0  0  0  0  0
   -0.3666   -0.6914    1.2269 H   0  0  0  0  0  0  0  0  0  0  0  0
   -0.1405   -0.7797   -0.9072 C   0  0  0  0  0  0  0  0  0  0  0  0
    0.4727    0.0738   -1.1999 H   0  0  0  0  0  0  0  0  0  0  0  0
    0.5356   -1.6004   -0.6629 H   0  0  0  0  0  0  0  0  0  0  0  0
   -0.9966   -1.1732   -2.0959 C   0  0  0  0  0  0  0  0  0  0  0  0
   -2.1287   -0.4117   -2.4429 C   0  0  0  0  0  0  0  0  0  0  0  0
   -2.4080    0.4470   -1.8488 H   0  0  0  0  0  0  0  0  0  0  0  0
   -2.8941   -0.7589   -3.5713 C   0  0  0  0  0  0  0  0  0  0  0  0
   -3.7645   -0.1743   -3.8345 H   0  0  0  0  0  0  0  0  0  0  0  0
   -2.5283   -1.8661   -4.3555 C   0  0  0  0  0  0  0  0  0  0  0  0
   -3.1178   -2.1343   -5.2211 H   0  0  0  0  0  0  0  0  0  0  0  0
   -1.3985   -2.6301   -4.0107 C   0  0  0  0  0  0  0  0  0  0  0  0
   -1.1204   -3.4845   -4.6102 H   0  0  0  0  0  0  0  0  0  0  0  0
   -0.6357   -2.2849   -2.8810 C   0  0  0  0  0  0  0  0  0  0  0  0
    0.2314   -2.8754   -2.6149 H   0  0  0  0  0  0  0  0  0  0  0  0
   -1.2168    1.1047    0.4313 C   0  0  0  0  0  0  0  0  0  0  0  0
   -2.0890    1.6186   -0.2704 O   0  0  0  0  0  0  0  0  0  0  0  0
   -0.4674    1.8182    1.2813 N   0  0  0  0  0  0  0  0  0  0  0  0
    0.2640    1.3348    1.7800 H   0  0  0  0  0  0  0  0  0  0  0  0
   -0.5889    3.2615    1.4722 C   0  0  0  0  0  0  0  0  0  0  0  0
   -1.6291    3.5206    1.6805 H   0  0  0  0  0  0  0  0  0  0  0  0
    0.0359    3.5855    2.3049 H   0  0  0  0  0  0  0  0  0  0  0  0
   -0.2760    3.7797    0.5637 H   0  0  0  0  0  0  0  0  0  0  0  0
  5  6  2  0  0  0  0
  5  7  1  0  0  0  0
  2  3  1  0  0  0  0
  2  4  1  0  0  0  0
  2  5  1  0  0  0  0
  1  2  1  0  0  0  0
 25 26  2  0  0  0  0
 25 27  1  0  0  0  0
 23 24  1  0  0  0  0
 21 22  1  0  0  0  0
 21 23  2  0  0  0  0
 19 20  1  0  0  0  0
 19 21  1  0  0  0  0
 17 18  1  0  0  0  0
 17 19  2  0  0  0  0
 15 16  1  0  0  0  0
 15 17  1  0  0  0  0
 14 15  2  0  0  0  0
 14 23  1  0  0  0  0
 11 12  1  0  0  0  0
 11 13  1  0  0  0  0
 11 14  1  0  0  0  0
  9 10  1  0  0  0  0
  9 11  1  0  0  0  0
  9 25  1  0  0  0  0
  7  8  1  0  0  0  0
  7  9  1  0  0  0  0
 29 30  1  0  0  0  0
 29 31  1  0  0  0  0
 29 32  1  0  0  0  0
 27 28  1  0  0  0  0
 27 29  1  0  0  0  0
M  END
$$$$
default_name
  -OEChem-02102213163D

 32 32  0     1  0  0  0  0  0999 V2000
   -3.8405   -3.7518    1.6252 H   0  0  0  0  0  0  0  0  0  0  0  0
   -3.7965   -2.8768    0.9782 C   0  0  0  0  0  0  0  0  0  0  0  0
   -4.5465   -2.1527    1.2902 H   0  0  0  0  0  0  0  0  0  0  0  0
   -3.9745   -3.1748   -0.0538 H   0  0  0  0  0  0  0  0  0  0  0  0
   -2.4245   -2.2537    1.0882 C   0  0  0  0  0  0  0  0  0  0  0  0
   -1.5805   -2.7478    1.8242 O   0  0  0  0  0  0  0  0  0  0  0  0
   -2.2045   -1.1637    0.3562 N   0  0  0  0  0  0  0  0  0  0  0  0
   -2.9595   -0.7907   -0.2008 H   0  0  0  0  0  0  0  0  0  0  0  0
   -0.9485   -0.4087    0.3482 C   0  0  1  0  0  0  0  0  0  0  0  0
   -0.3666   -0.6914    1.2269 H   0  0  0  0  0  0  0  0  0  0  0  0
   -0.1405   -0.7797   -0.9072 C   0  0  0  0  0  0  0  0  0  0  0  0
    0.4727    0.0738   -1.1999 H   0  0  0  0  0  0  0  0  0  0  0  0
    0.5356   -1.6004   -0.6629 H   0  0  0  0  0  0  0  0  0  0  0  0
   -0.9966   -1.1732   -2.0959 C   0  0  0  0  0  0  0  0  0  0  0  0
   -1.9260   -0.2650   -2.6374 C   0  0  0  0  0  0  0  0  0  0  0  0
   -2.0514    0.7126   -2.1936 H   0  0  0  0  0  0  0  0  0  0  0  0
   -2.6871   -0.6224   -3.7656 C   0  0  0  0  0  0  0  0  0  0  0  0
   -3.4021    0.0755   -4.1782 H   0  0  0  0  0  0  0  0  0  0  0  0
   -2.5191   -1.8868   -4.3553 C   0  0  0  0  0  0  0  0  0  0  0  0
   -3.1055   -2.1622   -5.2207 H   0  0  0  0  0  0  0  0  0  0  0  0
   -1.5922   -2.7973   -3.8158 C   0  0  0  0  0  0  0  0  0  0  0  0
   -1.4669   -3.7712   -4.2657 H   0  0  0  0  0  0  0  0  0  0  0  0
   -0.8342   -2.4411   -2.6863 C   0  0  0  0  0  0  0  0  0  0  0  0
   -0.1239   -3.1437   -2.2702 H   0  0  0  0  0  0  0  0  0  0  0  0
   -1.2168    1.1047    0.4313 C   0  0  0  0  0  0  0  0  0  0  0  0
   -2.0890    1.6186   -0.2704 O   0  0  0  0  0  0  0  0  0  0  0  0
   -0.4674    1.8182    1.2813 N   0  0  0  0  0  0  0  0  0  0  0  0
    0.2640    1.3348    1.7800 H   0  0  0  0  0  0  0  0  0  0  0  0
   -0.5889    3.2615    1.4722 C   0  0  0  0  0  0  0  0  0  0  0  0
   -1.6291    3.5206    1.6805 H   0  0  0  0  0  0  0  0  0  0  0  0
    0.0359    3.5855    2.3049 H   0  0  0  0  0  0  0  0  0  0  0  0
   -0.2760    3.7797    0.5637 H   0  0  0  0  0  0  0  0  0  0  0  0
  5  6  2  0  0  0  0
  5  7  1  0  0  0  0
  2  3  1  0  0  0  0
  2  4  1  0  0  0  0
  2  5  1  0  0  0  0
  1  2  1  0  0  0  0
 25 26  2  0  0  0  0
 25 27  1  0  0  0  0
 23 24  1  0  0  0  0
 21 22  1  0  0  0  0
 21 23  2  0  0  0  0
 19 20  1  0  0  0  0
 19 21  1  0  0  0  0
 17 18  1  0  0  0  0
 17 19  2  0  0  0  0
 15 16  1  0  0  0  0
 15 17  1  0  0  0  0
 14 15  2  0  0  0  0
 14 23  1  0  0  0  0
 11 12  1  0  0  0  0
 11 13  1  0  0  0  0
 11 14  1  0  0  0  0
  9 10  1  0  0  0  0
  9 11  1  0  0  0  0
  9 25  1  0  0  0  0
  7  8  1  0  0  0  0
  7  9  1  0  0  0  0
 29 30  1  0  0  0  0
 29 31  1  0  0  0  0
 29 32  1  0  0  0  0
 27 28  1  0  0  0  0
 27 29  1  0  0  0  0
M  END
$$$$
default_name
  -OEChem-02102213163D

 32 32  0     1  0  0  0  0  0999 V2000
   -3.8405   -3.7518    1.6252 H   0  0  0  0  0  0  0  0  0  0  0  0
   -3.7965   -2.8768    0.9782 C   0  0  0  0  0  0  0  0  0  0  0  0
   -4.5465   -2.1527    1.2902 H   0  0  0  0  0  0  0  0  0  0  0  0
   -3.9745   -3.1748   -0.0538 H   0  0  0  0  0  0  0  0  0  0  0  0
   -2.4245   -2.2537    1.0882 C   0  0  0  0  0  0  0  0  0  0  0  0
   -1.5805   -2.7478    1.8242 O   0  0  0  0  0  0  0  0  0  0  0  0
   -2.2045   -1.1637    0.3562 N   0  0  0  0  0  0  0  0  0  0  0  0
   -2.9595   -0.7907   -0.2008 H   0  0  0  0  0  0  0  0  0  0  0  0
   -0.9485   -0.4087    0.3482 C   0  0  1  0  0  0  0  0  0  0  0  0
   -0.3666   -0.6914    1.2269 H   0  0  0  0  0  0  0  0  0  0  0  0
   -0.1405   -0.7797   -0.9072 C   0  0  0  0  0  0  0  0  0  0  0  0
    0.4727    0.0738   -1.1999 H   0  0  0  0  0  0  0  0  0  0  0  0
    0.5356   -1.6004   -0.6629 H   0  0  0  0  0  0  0  0  0  0  0  0
   -0.9966   -1.1732   -2.0959 C   0  0  0  0  0  0  0  0  0  0  0  0
   -1.6875   -0.1928   -2.8330 C   0  0  0  0  0  0  0  0  0  0  0  0
   -1.6299    0.8464   -2.5414 H   0  0  0  0  0  0  0  0  0  0  0  0
   -2.4464   -0.5609   -3.9593 C   0  0  0  0  0  0  0  0  0  0  0  0
   -2.9782    0.1932   -4.5224 H   0  0  0  0  0  0  0  0  0  0  0  0
   -2.5143   -1.9086   -4.3515 C   0  0  0  0  0  0  0  0  0  0  0  0
   -3.0993   -2.1916   -5.2154 H   0  0  0  0  0  0  0  0  0  0  0  0
   -1.8264   -2.8910   -3.6162 C   0  0  0  0  0  0  0  0  0  0  0  0
   -1.8829   -3.9276   -3.9143 H   0  0  0  0  0  0  0  0  0  0  0  0
   -1.0707   -2.5232   -2.4888 C   0  0  0  0  0  0  0  0  0  0  0  0
   -0.5446   -3.2804   -1.9220 H   0  0  0  0  0  0  0  0  0  0  0  0
   -1.2168    1.1047    0.4313 C   0  0  0  0  0  0  0  0  0  0  0  0
   -2.0890    1.6186   -0.2704 O   0  0  0  0  0  0  0  0  0  0  0  0
   -0.4674    1.8182    1.2813 N   0  0  0  0  0  0  0  0  0  0  0  0
    0.2640    1.3348    1.7800 H   0  0  0  0  0  0  0  0  0  0  0  0
   -0.5889    3.2615    1.4722 C   0  0  0  0  0  0  0  0  0  0  0  0
   -1.6291    3.5206    1.6805 H   0  0  0  0  0  0  0  0  0  0  0  0
    0.0359    3.5855    2.3049 H   0  0  0  0  0  0  0  0  0  0  0  0
   -0.2760    3.7797    0.5637 H   0  0  0  0  0  0  0  0  0  0  0  0
  5  6  2  0  0  0  0
  5  7  1  0  0  0  0
  2  3  1  0  0  0  0
  2  4  1  0  0  0  0
  2  5  1  0  0  0  0
  1  2  1  0  0  0  0
 25 26  2  0  0  0  0
 25 27  1  0  0  0  0
 23 24  1  0  0  0  0
 21 22  1  0  0  0  0
 21 23  2  0  0  0  0
 19 20  1  0  0  0  0
 19 21  1  0  0  0  0
 17 18  1  0  0  0  0
 17 19  2  0  0  0  0
 15 16  1  0  0  0  0
 15 17  1  0  0  0  0
 14 15  2  0  0  0  0
 14 23  1  0  0  0  0
 11 12  1  0  0  0  0
 11 13  1  0  0  0  0
 11 14  1  0  0  0  0
  9 10  1  0  0  0  0
  9 11  1  0  0  0  0
  9 25  1  0  0  0  0
  7  8  1  0  0  0  0
  7  9  1  0  0  0  0
 29 30  1  0  0  0  0
 29 31  1  0  0  0  0
 29 32  1  0  0  0  0
 27 28  1  0  0  0  0
 27 29  1  0  0  0  0
M  END
$$$$
default_name
  -OEChem-02102213163D

 32 32  0     1  0  0  0  0  0999 V2000
   -3.8405   -3.7518    1.6252 H   0  0  0  0  0  0  0  0  0  0  0  0
   -3.7965   -2.8768    0.9782 C   0  0  0  0  0  0  0  0  0  0  0  0
   -4.5465   -2.1527    1.2902 H   0  0  0  0  0  0  0  0  0  0  0  0
   -3.9745   -3.1748   -0.0538 H   0  0  0  0  0  0  0  0  0  0  0  0
   -2.4245   -2.2537    1.0882 C   0  0  0  0  0  0  0  0  0  0  0  0
   -1.5805   -2.7478    1.8242 O   0  0  0  0  0  0  0  0  0  0  0  0
   -2.2045   -1.1637    0.3562 N   0  0  0  0  0  0  0  0  0  0  0  0
   -2.9595   -0.7907   -0.2008 H   0  0  0  0  0  0  0  0  0  0  0  0
   -0.9485   -0.4087    0.3482 C   0  0  1  0  0  0  0  0  0  0  0  0
   -0.3666   -0.6914    1.2269 H   0  0  0  0  0  0  0  0  0  0  0  0
   -0.1405   -0.7797   -0.9072 C   0  0  0  0  0  0  0  0  0  0  0  0
    0.4727    0.0738   -1.1999 H   0  0  0  0  0  0  0  0  0  0  0  0
    0.5356   -1.6004   -0.6629 H   0  0  0  0  0  0  0  0  0  0  0  0
   -0.9966   -1.1732   -2.0959 C   0  0  0  0  0  0  0  0  0  0  0  0
   -1.4293   -0.2001   -3.0166 C   0  0  0  0  0  0  0  0  0  0  0  0
   -1.1723    0.8393   -2.8686 H   0  0  0  0  0  0  0  0  0  0  0  0
   -2.1884   -0.5786   -4.1392 C   0  0  0  0  0  0  0  0  0  0  0  0
   -2.5219    0.1705   -4.8435 H   0  0  0  0  0  0  0  0  0  0  0  0
   -2.5145   -1.9300   -4.3443 C   0  0  0  0  0  0  0  0  0  0  0  0
   -3.0997   -2.2205   -5.2056 H   0  0  0  0  0  0  0  0  0  0  0  0
   -2.0849   -2.9048   -3.4254 C   0  0  0  0  0  0  0  0  0  0  0  0
   -2.3400   -3.9429   -3.5801 H   0  0  0  0  0  0  0  0  0  0  0  0
   -1.3291   -2.5258   -2.3019 C   0  0  0  0  0  0  0  0  0  0  0  0
   -1.0021   -3.2762   -1.5939 H   0  0  0  0  0  0  0  0  0  0  0  0
   -1.2168    1.1047    0.4313 C   0  0  0  0  0  0  0  0  0  0  0  0
   -2.0890    1.6186   -0.2704 O   0  0  0  0  0  0  0  0  0  0  0  0
   -0.4674    1.8182    1.2813 N   0  0  0  0  0  0  0  0  0  0  0  0
    0.2640    1.3348    1.7800 H   0  0  0  0  0  0  0  0  0  0  0  0
   -0.5889    3.2615    1.4722 C   0  0  0  0  0  0  0  0  0  0  0  0
   -1.6291    3.5206    1.6805 H   0  0  0  0  0  0  0  0  0  0  0  0
    0.0359    3.5855    2.3049 H   0  0  0  0  0  0  0  0  0  0  0  0
   -0.2760    3.7797    0.5637 H   0  0  0  0  0  0  0  0  0  0  0  0
  5  6  2  0  0  0  0
  5  7  1  0  0  0  0
  2  3  1  0  0  0  0
  2  4  1  0  0  0  0
  2  5  1  0  0  0  0
  1  2  1  0  0  0  0
 25 26  2  0  0  0  0
 25 27  1  0  0  0  0
 23 24  1  0  0  0  0
 21 22  1  0  0  0  0
 21 23  2  0  0  0  0
 19 20  1  0  0  0  0
 19 21  1  0  0  0  0
 17 18  1  0  0  0  0
 17 19  2  0  0  0  0
 15 16  1  0  0  0  0
 15 17  1  0  0  0  0
 14 15  2  0  0  0  0
 14 23  1  0  0  0  0
 11 12  1  0  0  0  0
 11 13  1  0  0  0  0
 11 14  1  0  0  0  0
  9 10  1  0  0  0  0
  9 11  1  0  0  0  0
  9 25  1  0  0  0  0
  7  8  1  0  0  0  0
  7  9  1  0  0  0  0
 29 30  1  0  0  0  0
 29 31  1  0  0  0  0
 29 32  1  0  0  0  0
 27 28  1  0  0  0  0
 27 29  1  0  0  0  0
M  END
$$$$
default_name
  -OEChem-02102213163D

 32 32  0     1  0  0  0  0  0999 V2000
   -3.8405   -3.7518    1.6252 H   0  0  0  0  0  0  0  0  0  0  0  0
   -3.7965   -2.8768    0.9782 C   0  0  0  0  0  0  0  0  0  0  0  0
   -4.5465   -2.1527    1.2902 H   0  0  0  0  0  0  0  0  0  0  0  0
   -3.9745   -3.1748   -0.0538 H   0  0  0  0  0  0  0  0  0  0  0  0
   -2.4245   -2.2537    1.0882 C   0  0  0  0  0  0  0  0  0  0  0  0
   -1.5805   -2.7478    1.8242 O   0  0  0  0  0  0  0  0  0  0  0  0
   -2.2045   -1.1637    0.3562 N   0  0  0  0  0  0  0  0  0  0  0  0
   -2.9595   -0.7907   -0.2008 H   0  0  0  0  0  0  0  0  0  0  0  0
   -0.9485   -0.4087    0.3482 C   0  0  1  0  0  0  0  0  0  0  0  0
   -0.3666   -0.6914    1.2269 H   0  0  0  0  0  0  0  0  0  0  0  0
   -0.1405   -0.7797   -0.9072 C   0  0  0  0  0  0  0  0  0  0  0  0
    0.4727    0.0738   -1.1999 H   0  0  0  0  0  0  0  0  0  0  0  0
    0.5356   -1.6004   -0.6629 H   0  0  0  0  0  0  0  0  0  0  0  0
   -0.9966   -1.1732   -2.0959 C   0  0  0  0  0  0  0  0  0  0  0  0
   -1.1691   -0.2862   -3.1754 C   0  0  0  0  0  0  0  0  0  0  0  0
   -0.7097    0.6919   -3.1530 H   0  0  0  0  0  0  0  0  0  0  0  0
   -1.9308   -0.6743   -4.2931 C   0  0  0  0  0  0  0  0  0  0  0  0
   -2.0641    0.0092   -5.1198 H   0  0  0  0  0  0  0  0  0  0  0  0
   -2.5194   -1.9497   -4.3342 C   0  0  0  0  0  0  0  0  0  0  0  0
   -3.1066   -2.2469   -5.1919 H   0  0  0  0  0  0  0  0  0  0  0  0
   -2.3503   -2.8379   -3.2565 C   0  0  0  0  0  0  0  0  0  0  0  0
   -2.8071   -3.8162   -3.2856 H   0  0  0  0  0  0  0  0  0  0  0  0
   -1.5917   -2.4485   -2.1383 C   0  0  0  0  0  0  0  0  0  0  0  0
   -1.4651   -3.1315   -1.3084 H   0  0  0  0  0  0  0  0  0  0  0  0
   -1.2168    1.1047    0.4313 C   0  0  0  0  0  0  0  0  0  0  0  0
   -2.0890    1.6186   -0.2704 O   0  0  0  0  0  0  0  0  0  0  0  0
   -0.4674    1.8182    1.2813 N   0  0  0  0  0  0  0  0  0  0  0  0
    0.2640    1.3348    1.7800 H   0  0  0  0  0  0  0  0  0  0  0  0
   -0.5889    3.2615    1.4722 C   0  0  0  0  0  0  0  0  0  0  0  0
   -1.6291    3.5206    1.6805 H   0  0  0  0  0  0  0  0  0  0  0  0
    0.0359    3.5855    2.3049 H   0  0  0  0  0  0  0  0  0  0  0  0
   -0.2760    3.7797    0.5637 H   0  0  0  0  0  0  0  0  0  0  0  0
  5  6  2  0  0  0  0
  5  7  1  0  0  0  0
  2  3  1  0  0  0  0
  2  4  1  0  0  0  0
  2  5  1  0  0  0  0
  1  2  1  0  0  0  0
 25 26  2  0  0  0  0
 25 27  1  0  0  0  0
 23 24  1  0  0  0  0
 21 22  1  0  0  0  0
 21 23  2  0  0  0  0
 19 20  1  0  0  0  0
 19 21  1  0  0  0  0
 17 18  1  0  0  0  0
 17 19  2  0  0  0  0
 15 16  1  0  0  0  0
 15 17  1  0  0  0  0
 14 15  2  0  0  0  0
 14 23  1  0  0  0  0
 11 12  1  0  0  0  0
 11 13  1  0  0  0  0
 11 14  1  0  0  0  0
  9 10  1  0  0  0  0
  9 11  1  0  0  0  0
  9 25  1  0  0  0  0
  7  8  1  0  0  0  0
  7  9  1  0  0  0  0
 29 30  1  0  0  0  0
 29 31  1  0  0  0  0
 29 32  1  0  0  0  0
 27 28  1  0  0  0  0
 27 29  1  0  0  0  0
M  END
$$$$
default_name
  -OEChem-02102213163D

 32 32  0     1  0  0  0  0  0999 V2000
   -3.8405   -3.7518    1.6252 H   0  0  0  0  0  0  0  0  0  0  0  0
   -3.7965   -2.8768    0.9782 C   0  0  0  0  0  0  0  0  0  0  0  0
   -4.5465   -2.1527    1.2902 H   0  0  0  0  0  0  0  0  0  0  0  0
   -3.9745   -3.1748   -0.0538 H   0  0  0  0  0  0  0  0  0  0  0  0
   -2.4245   -2.2537    1.0882 C   0  0  0  0  0  0  0  0  0  0  0  0
   -1.5805   -2.7478    1.8242 O   0  0  0  0  0  0  0  0  0  0  0  0
   -2.2045   -1.1637    0.3562 N   0  0  0  0  0  0  0  0  0  0  0  0
   -2.9595   -0.7907   -0.2008 H   0  0  0  0  0  0  0  0  0  0  0  0
   -0.9485   -0.4087    0.3482 C   0  0  1  0  0  0  0  0  0  0  0  0
   -0.3666   -0.6914    1.2269 H   0  0  0  0  0  0  0  0  0  0  0  0
   -0.1405   -0.7797   -0.9072 C   0  0  0  0  0  0  0  0  0  0  0  0
    0.4727    0.0738   -1.1999 H   0  0  0  0  0  0  0  0  0  0  0  0
    0.5356   -1.6004   -0.6629 H   0  0  0  0  0  0  0  0  0  0  0  0
   -0.9966   -1.1732   -2.0959 C   0  0  0  0  0  0  0  0  0  0  0  0
   -0.9245   -0.4455   -3.2988 C   0  0  0  0  0  0  0  0  0  0  0  0
   -0.2737    0.4141   -3.3750 H   0  0  0  0  0  0  0  0  0  0  0  0
   -1.6910   -0.8415   -4.4104 C   0  0  0  0  0  0  0  0  0  0  0  0
   -1.6361   -0.2798   -5.3323 H   0  0  0  0  0  0  0  0  0  0  0  0
   -2.5288   -1.9662   -4.3220 C   0  0  0  0  0  0  0  0  0  0  0  0
   -3.1195   -2.2690   -5.1752 H   0  0  0  0  0  0  0  0  0  0  0  0
   -2.6043   -2.6947   -3.1209 C   0  0  0  0  0  0  0  0  0  0  0  0
   -3.2524   -3.5560   -3.0511 H   0  0  0  0  0  0  0  0  0  0  0  0
   -1.8407   -2.2967   -2.0092 C   0  0  0  0  0  0  0  0  0  0  0  0
   -1.9022   -2.8561   -1.0848 H   0  0  0  0  0  0  0  0  0  0  0  0
   -1.2168    1.1047    0.4313 C   0  0  0  0  0  0  0  0  0  0  0  0
   -2.0890    1.6186   -0.2704 O   0  0  0  0  0  0  0  0  0  0  0  0
   -0.4674    1.8182    1.2813 N   0  0  0  0  0  0  0  0  0  0  0  0
    0.2640    1.3348    1.7800 H   0  0  0  0  0  0  0  0  0  0  0  0
   -0.5889    3.2615    1.4722 C   0  0  0  0  0  0  0  0  0  0  0  0
   -1.6291    3.5206    1.6805 H   0  0  0  0  0  0  0  0  0  0  0  0
    0.0359    3.5855    2.3049 H   0  0  0  0  0  0  0  0  0  0  0  0
   -0.2760    3.7797    0.5637 H   0  0  0  0  0  0  0  0  0  0  0  0
  5  6  2  0  0  0  0
  5  7  1  0  0  0  0
  2  3  1  0  0  0  0
  2  4  1  0  0  0  0
  2  5  1  0  0  0  0
  1  2  1  0  0  0  0
 25 26  2  0  0  0  0
 25 27  1  0  0  0  0
 23 24  1  0  0  0  0
 21 22  1  0  0  0  0
 21 23  2  0  0  0  0
 19 20  1  0  0  0  0
 19 21  1  0  0  0  0
 17 18  1  0  0  0  0
 17 19  2  0  0  0  0
 15 16  1  0  0  0  0
 15 17  1  0  0  0  0
 14 15  2  0  0  0  0
 14 23  1  0  0  0  0
 11 12  1  0  0  0  0
 11 13  1  0  0  0  0
 11 14  1  0  0  0  0
  9 10  1  0  0  0  0
  9 11  1  0  0  0  0
  9 25  1  0  0  0  0
  7  8  1  0  0  0  0
  7  9  1  0  0  0  0
 29 30  1  0  0  0  0
 29 31  1  0  0  0  0
 29 32  1  0  0  0  0
 27 28  1  0  0  0  0
 27 29  1  0  0  0  0
M  END
$$$$
default_name
  -OEChem-02102213163D

 32 32  0     1  0  0  0  0  0999 V2000
   -3.8405   -3.7518    1.6252 H   0  0  0  0  0  0  0  0  0  0  0  0
   -3.7965   -2.8768    0.9782 C   0  0  0  0  0  0  0  0  0  0  0  0
   -4.5465   -2.1527    1.2902 H   0  0  0  0  0  0  0  0  0  0  0  0
   -3.9745   -3.1748   -0.0538 H   0  0  0  0  0  0  0  0  0  0  0  0
   -2.4245   -2.2537    1.0882 C   0  0  0  0  0  0  0  0  0  0  0  0
   -1.5805   -2.7478    1.8242 O   0  0  0  0  0  0  0  0  0  0  0  0
   -2.2045   -1.1637    0.3562 N   0  0  0  0  0  0  0  0  0  0  0  0
   -2.9595   -0.7907   -0.2008 H   0  0  0  0  0  0  0  0  0  0  0  0
   -0.9485   -0.4087    0.3482 C   0  0  1  0  0  0  0  0  0  0  0  0
   -0.3666   -0.6914    1.2269 H   0  0  0  0  0  0  0  0  0  0  0  0
   -0.1405   -0.7797   -0.9072 C   0  0  0  0  0  0  0  0  0  0  0  0
    0.4727    0.0738   -1.1999 H   0  0  0  0  0  0  0  0  0  0  0  0
    0.5356   -1.6004   -0.6629 H   0  0  0  0  0  0  0  0  0  0  0  0
   -0.9966   -1.1732   -2.0959 C   0  0  0  0  0  0  0  0  0  0  0  0
   -0.7123   -0.6669   -3.3784 C   0  0  0  0  0  0  0  0  0  0  0  0
    0.1060    0.0250   -3.5196 H   0  0  0  0  0  0  0  0  0  0  0  0
   -1.4854   -1.0688   -4.4832 C   0  0  0  0  0  0  0  0  0  0  0  0
   -1.2670   -0.6768   -5.4667 H   0  0  0  0  0  0  0  0  0  0  0  0
   -2.5421   -1.9784   -4.3084 C   0  0  0  0  0  0  0  0  0  0  0  0
   -3.1375   -2.2853   -5.1568 H   0  0  0  0  0  0  0  0  0  0  0  0
   -2.8298   -2.4851   -3.0279 C   0  0  0  0  0  0  0  0  0  0  0  0
   -3.6455   -3.1801   -2.8925 H   0  0  0  0  0  0  0  0  0  0  0  0
   -2.0591   -2.0808   -1.9234 C   0  0  0  0  0  0  0  0  0  0  0  0
   -2.2836   -2.4687   -0.9384 H   0  0  0  0  0  0  0  0  0  0  0  0
   -1.2168    1.1047    0.4313 C   0  0  0  0  0  0  0  0  0  0  0  0
   -2.0890    1.6186   -0.2704 O   0  0  0  0  0  0  0  0  0  0  0  0
   -0.4674    1.8182    1.2813 N   0  0  0  0  0  0  0  0  0  0  0  0
    0.2640    1.3348    1.7800 H   0  0  0  0  0  0  0  0  0  0  0  0
   -0.5889    3.2615    1.4722 C   0  0  0  0  0  0  0  0  0  0  0  0
   -1.6291    3.5206    1.6805 H   0  0  0  0  0  0  0  0  0  0  0  0
    0.0359    3.5855    2.3049 H   0  0  0  0  0  0  0  0  0  0  0  0
   -0.2760    3.7797    0.5637 H   0  0  0  0  0  0  0  0  0  0  0  0
  5  6  2  0  0  0  0
  5  7  1  0  0  0  0
  2  3  1  0  0  0  0
  2  4  1  0  0  0  0
  2  5  1  0  0  0  0
  1  2  1  0  0  0  0
 25 26  2  0  0  0  0
 25 27  1  0  0  0  0
 23 24  1  0  0  0  0
 21 22  1  0  0  0  0
 21 23  2  0  0  0  0
 19 20  1  0  0  0  0
 19 21  1  0  0  0  0
 17 18  1  0  0  0  0
 17 19  2  0  0  0  0
 15 16  1  0  0  0  0
 15 17  1  0  0  0  0
 14 15  2  0  0  0  0
 14 23  1  0  0  0  0
 11 12  1  0  0  0  0
 11 13  1  0  0  0  0
 11 14  1  0  0  0  0
  9 10  1  0  0  0  0
  9 11  1  0  0  0  0
  9 25  1  0  0  0  0
  7  8  1  0  0  0  0
  7  9  1  0  0  0  0
 29 30  1  0  0  0  0
 29 31  1  0  0  0  0
 29 32  1  0  0  0  0
 27 28  1  0  0  0  0
 27 29  1  0  0  0  0
M  END
$$$$
default_name
  -OEChem-02102213163D

 32 32  0     1  0  0  0  0  0999 V2000
   -3.8405   -3.7518    1.6252 H   0  0  0  0  0  0  0  0  0  0  0  0
   -3.7965   -2.8768    0.9782 C   0  0  0  0  0  0  0  0  0  0  0  0
   -4.5465   -2.1527    1.2902 H   0  0  0  0  0  0  0  0  0  0  0  0
   -3.9745   -3.1748   -0.0538 H   0  0  0  0  0  0  0  0  0  0  0  0
   -2.4245   -2.2537    1.0882 C   0  0  0  0  0  0  0  0  0  0  0  0
   -1.5805   -2.7478    1.8242 O   0  0  0  0  0  0  0  0  0  0  0  0
   -2.2045   -1.1637    0.3562 N   0  0  0  0  0  0  0  0  0  0  0  0
   -2.9595   -0.7907   -0.2008 H   0  0  0  0  0  0  0  0  0  0  0  0
   -0.9485   -0.4087    0.3482 C   0  0  1  0  0  0  0  0  0  0  0  0
   -0.3666   -0.6914    1.2269 H   0  0  0  0  0  0  0  0  0  0  0  0
   -0.1405   -0.7797   -0.9072 C   0  0  0  0  0  0  0  0  0  0  0  0
    0.4727    0.0738   -1.1999 H   0  0  0  0  0  0  0  0  0  0  0  0
    0.5356   -1.6004   -0.6629 H   0  0  0  0  0  0  0  0  0  0  0  0
   -0.9966   -1.1732   -2.0959 C   0  0  0  0  0  0  0  0  0  0  0  0
   -0.5469   -0.9355   -3.4086 C   0  0  0  0  0  0  0  0  0  0  0  0
    0.4036   -0.4491   -3.5770 H   0  0  0  0  0  0  0  0  0  0  0  0
   -1.3280   -1.3407   -4.5066 C   0  0  0  0  0  0  0  0  0  0  0  0
   -0.9820   -1.1548   -5.5137 H   0  0  0  0  0  0  0  0  0  0  0  0
   -2.5583   -1.9855   -4.2943 C   0  0  0  0  0  0  0  0  0  0  0  0
   -3.1595   -2.2947   -5.1379 H   0  0  0  0  0  0  0  0  0  0  0  0
   -3.0114   -2.2233   -2.9839 C   0  0  0  0  0  0  0  0  0  0  0  0
   -3.9596   -2.7141   -2.8205 H   0  0  0  0  0  0  0  0  0  0  0  0
   -2.2320   -1.8153   -1.8868 C   0  0  0  0  0  0  0  0  0  0  0  0
   -2.5832   -1.9958   -0.8791 H   0  0  0  0  0  0  0  0  0  0  0  0
   -1.2168    1.1047    0.4313 C   0  0  0  0  0  0  0  0  0  0  0  0
   -2.0890    1.6186   -0.2704 O   0  0  0  0  0  0  0  0  0  0  0  0
   -0.4674    1.8182    1.2813 N   0  0  0  0  0  0  0  0  0  0  0  0
    0.2640    1.3348    1.7800 H   0  0  0  0  0  0  0  0  0  0  0  0
   -0.5889    3.2615    1.4722 C   0  0  0  0  0  0  0  0  0  0  0  0
   -1.6291    3.5206    1.6805 H   0  0  0  0  0  0  0  0  0  0  0  0
    0.0359    3.5855    2.3049 H   0  0  0  0  0  0  0  0  0  0  0  0
   -0.2760    3.7797    0.5637 H   0  0  0  0  0  0  0  0  0  0  0  0
  5  6  2  0  0  0  0
  5  7  1  0  0  0  0
  2  3  1  0  0  0  0
  2  4  1  0  0  0  0
  2  5  1  0  0  0  0
  1  2  1  0  0  0  0
 25 26  2  0  0  0  0
 25 27  1  0  0  0  0
 23 24  1  0  0  0  0
 21 22  1  0  0  0  0
 21 23  2  0  0  0  0
 19 20  1  0  0  0  0
 19 21  1  0  0  0  0
 17 18  1  0  0  0  0
 17 19  2  0  0  0  0
 15 16  1  0  0  0  0
 15 17  1  0  0  0  0
 14 15  2  0  0  0  0
 14 23  1  0  0  0  0
 11 12  1  0  0  0  0
 11 13  1  0  0  0  0
 11 14  1  0  0  0  0
  9 10  1  0  0  0  0
  9 11  1  0  0  0  0
  9 25  1  0  0  0  0
  7  8  1  0  0  0  0
  7  9  1  0  0  0  0
 29 30  1  0  0  0  0
 29 31  1  0  0  0  0
 29 32  1  0  0  0  0
 27 28  1  0  0  0  0
 27 29  1  0  0  0  0
M  END
$$$$
default_name
  -OEChem-02102213163D

 32 32  0     1  0  0  0  0  0999 V2000
   -3.8405   -3.7518    1.6252 H   0  0  0  0  0  0  0  0  0  0  0  0
   -3.7965   -2.8768    0.9782 C   0  0  0  0  0  0  0  0  0  0  0  0
   -4.5465   -2.1527    1.2902 H   0  0  0  0  0  0  0  0  0  0  0  0
   -3.9745   -3.1748   -0.0538 H   0  0  0  0  0  0  0  0  0  0  0  0
   -2.4245   -2.2537    1.0882 C   0  0  0  0  0  0  0  0  0  0  0  0
   -1.5805   -2.7478    1.8242 O   0  0  0  0  0  0  0  0  0  0  0  0
   -2.2045   -1.1637    0.3562 N   0  0  0  0  0  0  0  0  0  0  0  0
   -2.9595   -0.7907   -0.2008 H   0  0  0  0  0  0  0  0  0  0  0  0
   -0.9485   -0.4087    0.3482 C   0  0  1  0  0  0  0  0  0  0  0  0
   -0.3666   -0.6914    1.2269 H   0  0  0  0  0  0  0  0  0  0  0  0
   -0.1405   -0.7797   -0.9072 C   0  0  0  0  0  0  0  0  0  0  0  0
    0.4727    0.0738   -1.1999 H   0  0  0  0  0  0  0  0  0  0  0  0
    0.5356   -1.6004   -0.6629 H   0  0  0  0  0  0  0  0  0  0  0  0
   -0.9966   -1.1732   -2.0959 C   0  0  0  0  0  0  0  0  0  0  0  0
   -0.4396   -1.2328   -3.3874 C   0  0  0  0  0  0  0  0  0  0  0  0
    0.5987   -0.9757   -3.5431 H   0  0  0  0  0  0  0  0  0  0  0  0
   -1.2296   -1.6386   -4.4788 C   0  0  0  0  0  0  0  0  0  0  0  0
   -0.8006   -1.6812   -5.4701 H   0  0  0  0  0  0  0  0  0  0  0  0
   -2.5764   -1.9871   -4.2808 C   0  0  0  0  0  0  0  0  0  0  0  0
   -3.1840   -2.2966   -5.1197 H   0  0  0  0  0  0  0  0  0  0  0  0
   -3.1366   -1.9272   -2.9917 C   0  0  0  0  0  0  0  0  0  0  0  0
   -4.1733   -2.1898   -2.8402 H   0  0  0  0  0  0  0  0  0  0  0  0
   -2.3477   -1.5185   -1.9018 C   0  0  0  0  0  0  0  0  0  0  0  0
   -2.7807   -1.4696   -0.9111 H   0  0  0  0  0  0  0  0  0  0  0  0
   -1.2168    1.1047    0.4313 C   0  0  0  0  0  0  0  0  0  0  0  0
   -2.0890    1.6186   -0.2704 O   0  0  0  0  0  0  0  0  0  0  0  0
   -0.4674    1.8182    1.2813 N   0  0  0  0  0  0  0  0  0  0  0  0
    0.2640    1.3348    1.7800 H   0  0  0  0  0  0  0  0  0  0  0  0
   -0.5889    3.2615    1.4722 C   0  0  0  0  0  0  0  0  0  0  0  0
   -1.6291    3.5206    1.6805 H   0  0  0  0  0  0  0  0  0  0  0  0
    0.0359    3.5855    2.3049 H   0  0  0  0  0  0  0  0  0  0  0  0
   -0.2760    3.7797    0.5637 H   0  0  0  0  0  0  0  0  0  0  0  0
  5  6  2  0  0  0  0
  5  7  1  0  0  0  0
  2  3  1  0  0  0  0
  2  4  1  0  0  0  0
  2  5  1  0  0  0  0
  1  2  1  0  0  0  0
 25 26  2  0  0  0  0
 25 27  1  0  0  0  0
 23 24  1  0  0  0  0
 21 22  1  0  0  0  0
 21 23  2  0  0  0  0
 19 20  1  0  0  0  0
 19 21  1  0  0  0  0
 17 18  1  0  0  0  0
 17 19  2  0  0  0  0
 15 16  1  0  0  0  0
 15 17  1  0  0  0  0
 14 15  2  0  0  0  0
 14 23  1  0  0  0  0
 11 12  1  0  0  0  0
 11 13  1  0  0  0  0
 11 14  1  0  0  0  0
  9 10  1  0  0  0  0
  9 11  1  0  0  0  0
  9 25  1  0  0  0  0
  7  8  1  0  0  0  0
  7  9  1  0  0  0  0
 29 30  1  0  0  0  0
 29 31  1  0  0  0  0
 29 32  1  0  0  0  0
 27 28  1  0  0  0  0
 27 29  1  0  0  0  0
M  END
$$$$
default_name
  -OEChem-02102213163D

 32 32  0     1  0  0  0  0  0999 V2000
   -3.8405   -3.7518    1.6252 H   0  0  0  0  0  0  0  0  0  0  0  0
   -3.7965   -2.8768    0.9782 C   0  0  0  0  0  0  0  0  0  0  0  0
   -4.5465   -2.1527    1.2902 H   0  0  0  0  0  0  0  0  0  0  0  0
   -3.9745   -3.1748   -0.0538 H   0  0  0  0  0  0  0  0  0  0  0  0
   -2.4245   -2.2537    1.0882 C   0  0  0  0  0  0  0  0  0  0  0  0
   -1.5805   -2.7478    1.8242 O   0  0  0  0  0  0  0  0  0  0  0  0
   -2.2045   -1.1637    0.3562 N   0  0  0  0  0  0  0  0  0  0  0  0
   -2.9595   -0.7907   -0.2008 H   0  0  0  0  0  0  0  0  0  0  0  0
   -0.9485   -0.4087    0.3482 C   0  0  1  0  0  0  0  0  0  0  0  0
   -0.3666   -0.6914    1.2269 H   0  0  0  0  0  0  0  0  0  0  0  0
   -0.1405   -0.7797   -0.9072 C   0  0  0  0  0  0  0  0  0  0  0  0
    0.6567   -0.0480   -1.0455 H   0  0  0  0  0  0  0  0  0  0  0  0
    0.3303   -1.7513   -0.7505 H   0  0  0  0  0  0  0  0  0  0  0  0
   -0.9653   -0.8225   -2.1794 C   0  0  0  0  0  0  0  0  0  0  0  0
   -0.3628   -1.1476   -3.4095 C   0  0  0  0  0  0  0  0  0  0  0  0
    0.6985   -1.3469   -3.4582 H   0  0  0  0  0  0  0  0  0  0  0  0
   -1.1421   -1.2257   -4.5785 C   0  0  0  0  0  0  0  0  0  0  0  0
   -0.6770   -1.4730   -5.5224 H   0  0  0  0  0  0  0  0  0  0  0  0
   -2.5246   -0.9809   -4.5194 C   0  0  0  0  0  0  0  0  0  0  0  0
   -3.1229   -1.0385   -5.4180 H   0  0  0  0  0  0  0  0  0  0  0  0
   -3.1296   -0.6542   -3.2921 C   0  0  0  0  0  0  0  0  0  0  0  0
   -4.1913   -0.4607   -3.2476 H   0  0  0  0  0  0  0  0  0  0  0  0
   -2.3499   -0.5731   -2.1247 C   0  0  0  0  0  0  0  0  0  0  0  0
   -2.8160   -0.3184   -1.1817 H   0  0  0  0  0  0  0  0  0  0  0  0
   -1.2168    1.1047    0.4313 C   0  0  0  0  0  0  0  0  0  0  0  0
   -2.0890    1.6186   -0.2704 O   0  0  0  0  0  0  0  0  0  0  0  0
   -0.4674    1.8182    1.2813 N   0  0  0  0  0  0  0  0  0  0  0  0
    0.2640    1.3348    1.7800 H   0  0  0  0  0  0  0  0  0  0  0  0
   -0.5889    3.2615    1.4722 C   0  0  0  0  0  0  0  0  0  0  0  0
   -1.6291    3.5206    1.6805 H   0  0  0  0  0  0  0  0  0  0  0  0
    0.0359    3.5855    2.3049 H   0  0  0  0  0  0  0  0  0  0  0  0
   -0.2760    3.7797    0.5637 H   0  0  0  0  0  0  0  0  0  0  0  0
  5  6  2  0  0  0  0
  5  7  1  0  0  0  0
  2  3  1  0  0  0  0
  2  4  1  0  0  0  0
  2  5  1  0  0  0  0
  1  2  1  0  0  0  0
 25 26  2  0  0  0  0
 25 27  1  0  0  0  0
 23 24  1  0  0  0  0
 21 22  1  0  0  0  0
 21 23  2  0  0  0  0
 19 20  1  0  0  0  0
 19 21  1  0  0  0  0
 17 18  1  0  0  0  0
 17 19  2  0  0  0  0
 15 16  1  0  0  0  0
 15 17  1  0  0  0  0
 14 15  2  0  0  0  0
 14 23  1  0  0  0  0
 11 12  1  0  0  0  0
 11 13  1  0  0  0  0
 11 14  1  0  0  0  0
  9 10  1  0  0  0  0
  9 11  1  0  0  0  0
  9 25  1  0  0  0  0
  7  8  1  0  0  0  0
  7  9  1  0  0  0  0
 29 30  1  0  0  0  0
 29 31  1  0  0  0  0
 29 32  1  0  0  0  0
 27 28  1  0  0  0  0
 27 29  1  0  0  0  0
M  END
$$$$
default_name
  -OEChem-02102213163D

 32 32  0     1  0  0  0  0  0999 V2000
   -3.8405   -3.7518    1.6252 H   0  0  0  0  0  0  0  0  0  0  0  0
   -3.7965   -2.8768    0.9782 C   0  0  0  0  0  0  0  0  0  0  0  0
   -4.5465   -2.1527    1.2902 H   0  0  0  0  0  0  0  0  0  0  0  0
   -3.9745   -3.1748   -0.0538 H   0  0  0  0  0  0  0  0  0  0  0  0
   -2.4245   -2.2537    1.0882 C   0  0  0  0  0  0  0  0  0  0  0  0
   -1.5805   -2.7478    1.8242 O   0  0  0  0  0  0  0  0  0  0  0  0
   -2.2045   -1.1637    0.3562 N   0  0  0  0  0  0  0  0  0  0  0  0
   -2.9595   -0.7907   -0.2008 H   0  0  0  0  0  0  0  0  0  0  0  0
   -0.9485   -0.4087    0.3482 C   0  0  1  0  0  0  0  0  0  0  0  0
   -0.3666   -0.6914    1.2269 H   0  0  0  0  0  0  0  0  0  0  0  0
   -0.1405   -0.7797   -0.9072 C   0  0  0  0  0  0  0  0  0  0  0  0
    0.6567   -0.0480   -1.0455 H   0  0  0  0  0  0  0  0  0  0  0  0
    0.3303   -1.7513   -0.7505 H   0  0  0  0  0  0  0  0  0  0  0  0
   -0.9653   -0.8225   -2.1794 C   0  0  0  0  0  0  0  0  0  0  0  0
   -0.4581   -1.4411   -3.3378 C   0  0  0  0  0  0  0  0  0  0  0  0
    0.5339   -1.8704   -3.3339 H   0  0  0  0  0  0  0  0  0  0  0  0
   -1.2454   -1.5132   -4.5018 C   0  0  0  0  0  0  0  0  0  0  0  0
   -0.8530   -1.9864   -5.3910 H   0  0  0  0  0  0  0  0  0  0  0  0
   -2.5409   -0.9690   -4.5092 C   0  0  0  0  0  0  0  0  0  0  0  0
   -3.1448   -1.0223   -5.4043 H   0  0  0  0  0  0  0  0  0  0  0  0
   -3.0502   -0.3488   -3.3539 C   0  0  0  0  0  0  0  0  0  0  0  0
   -4.0440    0.0744   -3.3611 H   0  0  0  0  0  0  0  0  0  0  0  0
   -2.2620   -0.2739   -2.1918 C   0  0  0  0  0  0  0  0  0  0  0  0
   -2.6537    0.2064   -1.3046 H   0  0  0  0  0  0  0  0  0  0  0  0
   -1.2168    1.1047    0.4313 C   0  0  0  0  0  0  0  0  0  0  0  0
   -2.0890    1.6186   -0.2704 O   0  0  0  0  0  0  0  0  0  0  0  0
   -0.4674    1.8182    1.2813 N   0  0  0  0  0  0  0  0  0  0  0  0
    0.2640    1.3348    1.7800 H   0  0  0  0  0  0  0  0  0  0  0  0
   -0.5889    3.2615    1.4722 C   0  0  0  0  0  0  0  0  0  0  0  0
   -1.6291    3.5206    1.6805 H   0  0  0  0  0  0  0  0  0  0  0  0
    0.0359    3.5855    2.3049 H   0  0  0  0  0  0  0  0  0  0  0  0
   -0.2760    3.7797    0.5637 H   0  0  0  0  0  0  0  0  0  0  0  0
  5  6  2  0  0  0  0
  5  7  1  0  0  0  0
  2  3  1  0  0  0  0
  2  4  1  0  0  0  0
  2  5  1  0  0  0  0
  1  2  1  0  0  0  0
 25 26  2  0  0  0  0
 25 27  1  0  0  0  0
 23 24  1  0  0  0  0
 21 22  1  0  0  0  0
 21 23  2  0  0  0  0
 19 20  1  0  0  0  0
 19 21  1  0  0  0  0
 17 18  1  0  0  0  0
 17 19  2  0  0  0  0
 15 16  1  0  0  0  0
 15 17  1  0  0  0  0
 14 15  2  0  0  0  0
 14 23  1  0  0  0  0
 11 12  1  0  0  0  0
 11 13  1  0  0  0  0
 11 14  1  0  0  0  0
  9 10  1  0  0  0  0
  9 11  1  0  0  0  0
  9 25  1  0  0  0  0
  7  8  1  0  0  0  0
  7  9  1  0  0  0  0
 29 30  1  0  0  0  0
 29 31  1  0  0  0  0
 29 32  1  0  0  0  0
 27 28  1  0  0  0  0
 27 29  1  0  0  0  0
M  END
$$$$
default_name
  -OEChem-02102213163D

 32 32  0     1  0  0  0  0  0999 V2000
   -3.8405   -3.7518    1.6252 H   0  0  0  0  0  0  0  0  0  0  0  0
   -3.7965   -2.8768    0.9782 C   0  0  0  0  0  0  0  0  0  0  0  0
   -4.5465   -2.1527    1.2902 H   0  0  0  0  0  0  0  0  0  0  0  0
   -3.9745   -3.1748   -0.0538 H   0  0  0  0  0  0  0  0  0  0  0  0
   -2.4245   -2.2537    1.0882 C   0  0  0  0  0  0  0  0  0  0  0  0
   -1.5805   -2.7478    1.8242 O   0  0  0  0  0  0  0  0  0  0  0  0
   -2.2045   -1.1637    0.3562 N   0  0  0  0  0  0  0  0  0  0  0  0
   -2.9595   -0.7907   -0.2008 H   0  0  0  0  0  0  0  0  0  0  0  0
   -0.9485   -0.4087    0.3482 C   0  0  1  0  0  0  0  0  0  0  0  0
   -0.3666   -0.6914    1.2269 H   0  0  0  0  0  0  0  0  0  0  0  0
   -0.1405   -0.7797   -0.9072 C   0  0  0  0  0  0  0  0  0  0  0  0
    0.6567   -0.0480   -1.0455 H   0  0  0  0  0  0  0  0  0  0  0  0
    0.3303   -1.7513   -0.7505 H   0  0  0  0  0  0  0  0  0  0  0  0
   -0.9653   -0.8225   -2.1794 C   0  0  0  0  0  0  0  0  0  0  0  0
   -0.6145   -1.6939   -3.2280 C   0  0  0  0  0  0  0  0  0  0  0  0
    0.2603   -2.3228   -3.1413 H   0  0  0  0  0  0  0  0  0  0  0  0
   -1.4081   -1.7578   -4.3881 C   0  0  0  0  0  0  0  0  0  0  0  0
   -1.1355   -2.4257   -5.1931 H   0  0  0  0  0  0  0  0  0  0  0  0
   -2.5542   -0.9526   -4.5012 C   0  0  0  0  0  0  0  0  0  0  0  0
   -3.1626   -1.0000   -5.3935 H   0  0  0  0  0  0  0  0  0  0  0  0
   -2.9068   -0.0796   -3.4559 C   0  0  0  0  0  0  0  0  0  0  0  0
   -3.7847    0.5434   -3.5449 H   0  0  0  0  0  0  0  0  0  0  0  0
   -2.1116   -0.0136   -2.2980 C   0  0  0  0  0  0  0  0  0  0  0  0
   -2.3821    0.6609   -1.4960 H   0  0  0  0  0  0  0  0  0  0  0  0
   -1.2168    1.1047    0.4313 C   0  0  0  0  0  0  0  0  0  0  0  0
   -2.0890    1.6186   -0.2704 O   0  0  0  0  0  0  0  0  0  0  0  0
   -0.4674    1.8182    1.2813 N   0  0  0  0  0  0  0  0  0  0  0  0
    0.2640    1.3348    1.7800 H   0  0  0  0  0  0  0  0  0  0  0  0
   -0.5889    3.2615    1.4722 C   0  0  0  0  0  0  0  0  0  0  0  0
   -1.6291    3.5206    1.6805 H   0  0  0  0  0  0  0  0  0  0  0  0
    0.0359    3.5855    2.3049 H   0  0  0  0  0  0  0  0  0  0  0  0
   -0.2760    3.7797    0.5637 H   0  0  0  0  0  0  0  0  0  0  0  0
  5  6  2  0  0  0  0
  5  7  1  0  0  0  0
  2  3  1  0  0  0  0
  2  4  1  0  0  0  0
  2  5  1  0  0  0  0
  1  2  1  0  0  0  0
 25 26  2  0  0  0  0
 25 27  1  0  0  0  0
 23 24  1  0  0  0  0
 21 22  1  0  0  0  0
 21 23  2  0  0  0  0
 19 20  1  0  0  0  0
 19 21  1  0  0  0  0
 17 18  1  0  0  0  0
 17 19  2  0  0  0  0
 15 16  1  0  0  0  0
 15 17  1  0  0  0  0
 14 15  2  0  0  0  0
 14 23  1  0  0  0  0
 11 12  1  0  0  0  0
 11 13  1  0  0  0  0
 11 14  1  0  0  0  0
  9 10  1  0  0  0  0
  9 11  1  0  0  0  0
  9 25  1  0  0  0  0
  7  8  1  0  0  0  0
  7  9  1  0  0  0  0
 29 30  1  0  0  0  0
 29 31  1  0  0  0  0
 29 32  1  0  0  0  0
 27 28  1  0  0  0  0
 27 29  1  0  0  0  0
M  END
$$$$
default_name
  -OEChem-02102213163D

 32 32  0     1  0  0  0  0  0999 V2000
   -3.8405   -3.7518    1.6252 H   0  0  0  0  0  0  0  0  0  0  0  0
   -3.7965   -2.8768    0.9782 C   0  0  0  0  0  0  0  0  0  0  0  0
   -4.5465   -2.1527    1.2902 H   0  0  0  0  0  0  0  0  0  0  0  0
   -3.9745   -3.1748   -0.0538 H   0  0  0  0  0  0  0  0  0  0  0  0
   -2.4245   -2.2537    1.0882 C   0  0  0  0  0  0  0  0  0  0  0  0
   -1.5805   -2.7478    1.8242 O   0  0  0  0  0  0  0  0  0  0  0  0
   -2.2045   -1.1637    0.3562 N   0  0  0  0  0  0  0  0  0  0  0  0
   -2.9595   -0.7907   -0.2008 H   0  0  0  0  0  0  0  0  0  0  0  0
   -0.9485   -0.4087    0.3482 C   0  0  1  0  0  0  0  0  0  0  0  0
   -0.3666   -0.6914    1.2269 H   0  0  0  0  0  0  0  0  0  0  0  0
   -0.1405   -0.7797   -0.9072 C   0  0  0  0  0  0  0  0  0  0  0  0
    0.6567   -0.0480   -1.0455 H   0  0  0  0  0  0  0  0  0  0  0  0
    0.3303   -1.7513   -0.7505 H   0  0  0  0  0  0  0  0  0  0  0  0
   -0.9653   -0.8225   -2.1794 C   0  0  0  0  0  0  0  0  0  0  0  0
   -0.8212   -1.8886   -3.0874 C   0  0  0  0  0  0  0  0  0  0  0  0
   -0.1035   -2.6733   -2.8937 H   0  0  0  0  0  0  0  0  0  0  0  0
   -1.6192   -1.9427   -4.2450 C   0  0  0  0  0  0  0  0  0  0  0  0
   -1.5051   -2.7608   -4.9422 H   0  0  0  0  0  0  0  0  0  0  0  0
   -2.5635   -0.9327   -4.4958 C   0  0  0  0  0  0  0  0  0  0  0  0
   -3.1750   -0.9730   -5.3864 H   0  0  0  0  0  0  0  0  0  0  0  0
   -2.7091    0.1349   -3.5913 C   0  0  0  0  0  0  0  0  0  0  0  0
   -3.4310    0.9142   -3.7867 H   0  0  0  0  0  0  0  0  0  0  0  0
   -1.9090    0.1904   -2.4362 C   0  0  0  0  0  0  0  0  0  0  0  0
   -2.0197    1.0139   -1.7428 H   0  0  0  0  0  0  0  0  0  0  0  0
   -1.2168    1.1047    0.4313 C   0  0  0  0  0  0  0  0  0  0  0  0
   -2.0890    1.6186   -0.2704 O   0  0  0  0  0  0  0  0  0  0  0  0
   -0.4674    1.8182    1.2813 N   0  0  0  0  0  0  0  0  0  0  0  0
    0.2640    1.3348    1.7800 H   0  0  0  0  0  0  0  0  0  0  0  0
   -0.5889    3.2615    1.4722 C   0  0  0  0  0  0  0  0  0  0  0  0
   -1.6291    3.5206    1.6805 H   0  0  0  0  0  0  0  0  0  0  0  0
    0.0359    3.5855    2.3049 H   0  0  0  0  0  0  0  0  0  0  0  0
   -0.2760    3.7797    0.5637 H   0  0  0  0  0  0  0  0  0  0  0  0
  5  6  2  0  0  0  0
  5  7  1  0  0  0  0
  2  3  1  0  0  0  0
  2  4  1  0  0  0  0
  2  5  1  0  0  0  0
  1  2  1  0  0  0  0
 25 26  2  0  0  0  0
 25 27  1  0  0  0  0
 23 24  1  0  0  0  0
 21 22  1  0  0  0  0
 21 23  2  0  0  0  0
 19 20  1  0  0  0  0
 19 21  1  0  0  0  0
 17 18  1  0  0  0  0
 17 19  2  0  0  0  0
 15 16  1  0  0  0  0
 15 17  1  0  0  0  0
 14 15  2  0  0  0  0
 14 23  1  0  0  0  0
 11 12  1  0  0  0  0
 11 13  1  0  0  0  0
 11 14  1  0  0  0  0
  9 10  1  0  0  0  0
  9 11  1  0  0  0  0
  9 25  1  0  0  0  0
  7  8  1  0  0  0  0
  7  9  1  0  0  0  0
 29 30  1  0  0  0  0
 29 31  1  0  0  0  0
 29 32  1  0  0  0  0
 27 28  1  0  0  0  0
 27 29  1  0  0  0  0
M  END
$$$$
default_name
  -OEChem-02102213163D

 32 32  0     1  0  0  0  0  0999 V2000
   -3.8405   -3.7518    1.6252 H   0  0  0  0  0  0  0  0  0  0  0  0
   -3.7965   -2.8768    0.9782 C   0  0  0  0  0  0  0  0  0  0  0  0
   -4.5465   -2.1527    1.2902 H   0  0  0  0  0  0  0  0  0  0  0  0
   -3.9745   -3.1748   -0.0538 H   0  0  0  0  0  0  0  0  0  0  0  0
   -2.4245   -2.2537    1.0882 C   0  0  0  0  0  0  0  0  0  0  0  0
   -1.5805   -2.7478    1.8242 O   0  0  0  0  0  0  0  0  0  0  0  0
   -2.2045   -1.1637    0.3562 N   0  0  0  0  0  0  0  0  0  0  0  0
   -2.9595   -0.7907   -0.2008 H   0  0  0  0  0  0  0  0  0  0  0  0
   -0.9485   -0.4087    0.3482 C   0  0  1  0  0  0  0  0  0  0  0  0
   -0.3666   -0.6914    1.2269 H   0  0  0  0  0  0  0  0  0  0  0  0
   -0.1405   -0.7797   -0.9072 C   0  0  0  0  0  0  0  0  0  0  0  0
    0.6567   -0.0480   -1.0455 H   0  0  0  0  0  0  0  0  0  0  0  0
    0.3303   -1.7513   -0.7505 H   0  0  0  0  0  0  0  0  0  0  0  0
   -0.9653   -0.8225   -2.1794 C   0  0  0  0  0  0  0  0  0  0  0  0
   -1.0641   -2.0120   -2.9258 C   0  0  0  0  0  0  0  0  0  0  0  0
   -0.5328   -2.8980   -2.6078 H   0  0  0  0  0  0  0  0  0  0  0  0
   -1.8643   -2.0553   -4.0823 C   0  0  0  0  0  0  0  0  0  0  0  0
   -1.9368   -2.9690   -4.6554 H   0  0  0  0  0  0  0  0  0  0  0  0
   -2.5682   -0.9107   -4.4935 C   0  0  0  0  0  0  0  0  0  0  0  0
   -3.1812   -0.9433   -5.3834 H   0  0  0  0  0  0  0  0  0  0  0  0
   -2.4705    0.2801   -3.7508 C   0  0  0  0  0  0  0  0  0  0  0  0
   -3.0072    1.1615   -4.0697 H   0  0  0  0  0  0  0  0  0  0  0  0
   -1.6681    0.3239   -2.5969 C   0  0  0  0  0  0  0  0  0  0  0  0
   -1.5911    1.2415   -2.0283 H   0  0  0  0  0  0  0  0  0  0  0  0
   -1.2168    1.1047    0.4313 C   0  0  0  0  0  0  0  0  0  0  0  0
   -2.0890    1.6186   -0.2704 O   0  0  0  0  0  0  0  0  0  0  0  0
   -0.4674    1.8182    1.2813 N   0  0  0  0  0  0  0  0  0  0  0  0
    0.2640    1.3348    1.7800 H   0  0  0  0  0  0  0  0  0  0  0  0
   -0.5889    3.2615    1.4722 C   0  0  0  0  0  0  0  0  0  0  0  0
   -1.6291    3.5206    1.6805 H   0  0  0  0  0  0  0  0  0  0  0  0
    0.0359    3.5855    2.3049 H   0  0  0  0  0  0  0  0  0  0  0  0
   -0.2760    3.7797    0.5637 H   0  0  0  0  0  0  0  0  0  0  0  0
  5  6  2  0  0  0  0
  5  7  1  0  0  0  0
  2  3  1  0  0  0  0
  2  4  1  0  0  0  0
  2  5  1  0  0  0  0
  1  2  1  0  0  0  0
 25 26  2  0  0  0  0
 25 27  1  0  0  0  0
 23 24  1  0  0  0  0
 21 22  1  0  0  0  0
 21 23  2  0  0  0  0
 19 20  1  0  0  0  0
 19 21  1  0  0  0  0
 17 18  1  0  0  0  0
 17 19  2  0  0  0  0
 15 16  1  0  0  0  0
 15 17  1  0  0  0  0
 14 15  2  0  0  0  0
 14 23  1  0  0  0  0
 11 12  1  0  0  0  0
 11 13  1  0  0  0  0
 11 14  1  0  0  0  0
  9 10  1  0  0  0  0
  9 11  1  0  0  0  0
  9 25  1  0  0  0  0
  7  8  1  0  0  0  0
  7  9  1  0  0  0  0
 29 30  1  0  0  0  0
 29 31  1  0  0  0  0
 29 32  1  0  0  0  0
 27 28  1  0  0  0  0
 27 29  1  0  0  0  0
M  END
$$$$
default_name
  -OEChem-02102213163D

 32 32  0     1  0  0  0  0  0999 V2000
   -3.8405   -3.7518    1.6252 H   0  0  0  0  0  0  0  0  0  0  0  0
   -3.7965   -2.8768    0.9782 C   0  0  0  0  0  0  0  0  0  0  0  0
   -4.5465   -2.1527    1.2902 H   0  0  0  0  0  0  0  0  0  0  0  0
   -3.9745   -3.1748   -0.0538 H   0  0  0  0  0  0  0  0  0  0  0  0
   -2.4245   -2.2537    1.0882 C   0  0  0  0  0  0  0  0  0  0  0  0
   -1.5805   -2.7478    1.8242 O   0  0  0  0  0  0  0  0  0  0  0  0
   -2.2045   -1.1637    0.3562 N   0  0  0  0  0  0  0  0  0  0  0  0
   -2.9595   -0.7907   -0.2008 H   0  0  0  0  0  0  0  0  0  0  0  0
   -0.9485   -0.4087    0.3482 C   0  0  1  0  0  0  0  0  0  0  0  0
   -0.3666   -0.6914    1.2269 H   0  0  0  0  0  0  0  0  0  0  0  0
   -0.1405   -0.7797   -0.9072 C   0  0  0  0  0  0  0  0  0  0  0  0
    0.6567   -0.0480   -1.0455 H   0  0  0  0  0  0  0  0  0  0  0  0
    0.3303   -1.7513   -0.7505 H   0  0  0  0  0  0  0  0  0  0  0  0
   -0.9653   -0.8225   -2.1794 C   0  0  0  0  0  0  0  0  0  0  0  0
   -1.3268   -2.0558   -2.7540 C   0  0  0  0  0  0  0  0  0  0  0  0
   -0.9984   -2.9816   -2.3031 H   0  0  0  0  0  0  0  0  0  0  0  0
   -2.1267   -2.0880   -3.9111 C   0  0  0  0  0  0  0  0  0  0  0  0
   -2.4010   -3.0360   -4.3522 H   0  0  0  0  0  0  0  0  0  0  0  0
   -2.5680   -0.8881   -4.4944 C   0  0  0  0  0  0  0  0  0  0  0  0
   -3.1807   -0.9128   -5.3847 H   0  0  0  0  0  0  0  0  0  0  0  0
   -2.2074    0.3461   -3.9236 C   0  0  0  0  0  0  0  0  0  0  0  0
   -2.5421    1.2686   -4.3749 H   0  0  0  0  0  0  0  0  0  0  0  0
   -1.4052    0.3780   -2.7691 C   0  0  0  0  0  0  0  0  0  0  0  0
   -1.1257    1.3282   -2.3329 H   0  0  0  0  0  0  0  0  0  0  0  0
   -1.2168    1.1047    0.4313 C   0  0  0  0  0  0  0  0  0  0  0  0
   -2.0890    1.6186   -0.2704 O   0  0  0  0  0  0  0  0  0  0  0  0
   -0.4674    1.8182    1.2813 N   0  0  0  0  0  0  0  0  0  0  0  0
    0.2640    1.3348    1.7800 H   0  0  0  0  0  0  0  0  0  0  0  0
   -0.5889    3.2615    1.4722 C   0  0  0  0  0  0  0  0  0  0  0  0
   -1.6291    3.5206    1.6805 H   0  0  0  0  0  0  0  0  0  0  0  0
    0.0359    3.5855    2.3049 H   0  0  0  0  0  0  0  0  0  0  0  0
   -0.2760    3.7797    0.5637 H   0  0  0  0  0  0  0  0  0  0  0  0
  5  6  2  0  0  0  0
  5  7  1  0  0  0  0
  2  3  1  0  0  0  0
  2  4  1  0  0  0  0
  2  5  1  0  0  0  0
  1  2  1  0  0  0  0
 25 26  2  0  0  0  0
 25 27  1  0  0  0  0
 23 24  1  0  0  0  0
 21 22  1  0  0  0  0
 21 23  2  0  0  0  0
 19 20  1  0  0  0  0
 19 21  1  0  0  0  0
 17 18  1  0  0  0  0
 17 19  2  0  0  0  0
 15 16  1  0  0  0  0
 15 17  1  0  0  0  0
 14 15  2  0  0  0  0
 14 23  1  0  0  0  0
 11 12  1  0  0  0  0
 11 13  1  0  0  0  0
 11 14  1  0  0  0  0
  9 10  1  0  0  0  0
  9 11  1  0  0  0  0
  9 25  1  0  0  0  0
  7  8  1  0  0  0  0
  7  9  1  0  0  0  0
 29 30  1  0  0  0  0
 29 31  1  0  0  0  0
 29 32  1  0  0  0  0
 27 28  1  0  0  0  0
 27 29  1  0  0  0  0
M  END
$$$$
default_name
  -OEChem-02102213163D

 32 32  0     1  0  0  0  0  0999 V2000
   -3.8405   -3.7518    1.6252 H   0  0  0  0  0  0  0  0  0  0  0  0
   -3.7965   -2.8768    0.9782 C   0  0  0  0  0  0  0  0  0  0  0  0
   -4.5465   -2.1527    1.2902 H   0  0  0  0  0  0  0  0  0  0  0  0
   -3.9745   -3.1748   -0.0538 H   0  0  0  0  0  0  0  0  0  0  0  0
   -2.4245   -2.2537    1.0882 C   0  0  0  0  0  0  0  0  0  0  0  0
   -1.5805   -2.7478    1.8242 O   0  0  0  0  0  0  0  0  0  0  0  0
   -2.2045   -1.1637    0.3562 N   0  0  0  0  0  0  0  0  0  0  0  0
   -2.9595   -0.7907   -0.2008 H   0  0  0  0  0  0  0  0  0  0  0  0
   -0.9485   -0.4087    0.3482 C   0  0  1  0  0  0  0  0  0  0  0  0
   -0.3666   -0.6914    1.2269 H   0  0  0  0  0  0  0  0  0  0  0  0
   -0.1405   -0.7797   -0.9072 C   0  0  0  0  0  0  0  0  0  0  0  0
    0.6567   -0.0480   -1.0455 H   0  0  0  0  0  0  0  0  0  0  0  0
    0.3303   -1.7513   -0.7505 H   0  0  0  0  0  0  0  0  0  0  0  0
   -0.9653   -0.8225   -2.1794 C   0  0  0  0  0  0  0  0  0  0  0  0
   -1.5912   -2.0169   -2.5839 C   0  0  0  0  0  0  0  0  0  0  0  0
   -1.4685   -2.9185   -2.0005 H   0  0  0  0  0  0  0  0  0  0  0  0
   -2.3885   -2.0385   -3.7431 C   0  0  0  0  0  0  0  0  0  0  0  0
   -2.8661   -2.9573   -4.0533 H   0  0  0  0  0  0  0  0  0  0  0  0
   -2.5629   -0.8664   -4.4984 C   0  0  0  0  0  0  0  0  0  0  0  0
   -3.1736   -0.8836   -5.3903 H   0  0  0  0  0  0  0  0  0  0  0  0
   -1.9377    0.3284   -4.0979 C   0  0  0  0  0  0  0  0  0  0  0  0
   -2.0673    1.2281   -4.6813 H   0  0  0  0  0  0  0  0  0  0  0  0
   -1.1383    0.3489   -2.9412 C   0  0  0  0  0  0  0  0  0  0  0  0
   -0.6551    1.2680   -2.6360 H   0  0  0  0  0  0  0  0  0  0  0  0
   -1.2168    1.1047    0.4313 C   0  0  0  0  0  0  0  0  0  0  0  0
   -2.0890    1.6186   -0.2704 O   0  0  0  0  0  0  0  0  0  0  0  0
   -0.4674    1.8182    1.2813 N   0  0  0  0  0  0  0  0  0  0  0  0
    0.2640    1.3348    1.7800 H   0  0  0  0  0  0  0  0  0  0  0  0
   -0.5889    3.2615    1.4722 C   0  0  0  0  0  0  0  0  0  0  0  0
   -1.6291    3.5206    1.6805 H   0  0  0  0  0  0  0  0  0  0  0  0
    0.0359    3.5855    2.3049 H   0  0  0  0  0  0  0  0  0  0  0  0
   -0.2760    3.7797    0.5637 H   0  0  0  0  0  0  0  0  0  0  0  0
  5  6  2  0  0  0  0
  5  7  1  0  0  0  0
  2  3  1  0  0  0  0
  2  4  1  0  0  0  0
  2  5  1  0  0  0  0
  1  2  1  0  0  0  0
 25 26  2  0  0  0  0
 25 27  1  0  0  0  0
 23 24  1  0  0  0  0
 21 22  1  0  0  0  0
 21 23  2  0  0  0  0
 19 20  1  0  0  0  0
 19 21  1  0  0  0  0
 17 18  1  0  0  0  0
 17 19  2  0  0  0  0
 15 16  1  0  0  0  0
 15 17  1  0  0  0  0
 14 15  2  0  0  0  0
 14 23  1  0  0  0  0
 11 12  1  0  0  0  0
 11 13  1  0  0  0  0
 11 14  1  0  0  0  0
  9 10  1  0  0  0  0
  9 11  1  0  0  0  0
  9 25  1  0  0  0  0
  7  8  1  0  0  0  0
  7  9  1  0  0  0  0
 29 30  1  0  0  0  0
 29 31  1  0  0  0  0
 29 32  1  0  0  0  0
 27 28  1  0  0  0  0
 27 29  1  0  0  0  0
M  END
$$$$
default_name
  -OEChem-02102213163D

 32 32  0     1  0  0  0  0  0999 V2000
   -3.8405   -3.7518    1.6252 H   0  0  0  0  0  0  0  0  0  0  0  0
   -3.7965   -2.8768    0.9782 C   0  0  0  0  0  0  0  0  0  0  0  0
   -4.5465   -2.1527    1.2902 H   0  0  0  0  0  0  0  0  0  0  0  0
   -3.9745   -3.1748   -0.0538 H   0  0  0  0  0  0  0  0  0  0  0  0
   -2.4245   -2.2537    1.0882 C   0  0  0  0  0  0  0  0  0  0  0  0
   -1.5805   -2.7478    1.8242 O   0  0  0  0  0  0  0  0  0  0  0  0
   -2.2045   -1.1637    0.3562 N   0  0  0  0  0  0  0  0  0  0  0  0
   -2.9595   -0.7907   -0.2008 H   0  0  0  0  0  0  0  0  0  0  0  0
   -0.9485   -0.4087    0.3482 C   0  0  1  0  0  0  0  0  0  0  0  0
   -0.3666   -0.6914    1.2269 H   0  0  0  0  0  0  0  0  0  0  0  0
   -0.1405   -0.7797   -0.9072 C   0  0  0  0  0  0  0  0  0  0  0  0
    0.6567   -0.0480   -1.0455 H   0  0  0  0  0  0  0  0  0  0  0  0
    0.3303   -1.7513   -0.7505 H   0  0  0  0  0  0  0  0  0  0  0  0
   -0.9653   -0.8225   -2.1794 C   0  0  0  0  0  0  0  0  0  0  0  0
   -1.8394   -1.8979   -2.4270 C   0  0  0  0  0  0  0  0  0  0  0  0
   -1.9110   -2.7128   -1.7205 H   0  0  0  0  0  0  0  0  0  0  0  0
   -2.6319   -1.9102   -3.5896 C   0  0  0  0  0  0  0  0  0  0  0  0
   -3.3005   -2.7382   -3.7791 H   0  0  0  0  0  0  0  0  0  0  0  0
   -2.5533   -0.8472   -4.5053 C   0  0  0  0  0  0  0  0  0  0  0  0
   -3.1604   -0.8578   -5.3997 H   0  0  0  0  0  0  0  0  0  0  0  0
   -1.6797    0.2283   -4.2617 C   0  0  0  0  0  0  0  0  0  0  0  0
   -1.6152    1.0428   -4.9682 H   0  0  0  0  0  0  0  0  0  0  0  0
   -0.8855    0.2387   -3.1014 C   0  0  0  0  0  0  0  0  0  0  0  0
   -0.2114    1.0650   -2.9168 H   0  0  0  0  0  0  0  0  0  0  0  0
   -1.2168    1.1047    0.4313 C   0  0  0  0  0  0  0  0  0  0  0  0
   -2.0890    1.6186   -0.2704 O   0  0  0  0  0  0  0  0  0  0  0  0
   -0.4674    1.8182    1.2813 N   0  0  0  0  0  0  0  0  0  0  0  0
    0.2640    1.3348    1.7800 H   0  0  0  0  0  0  0  0  0  0  0  0
   -0.5889    3.2615    1.4722 C   0  0  0  0  0  0  0  0  0  0  0  0
   -1.6291    3.5206    1.6805 H   0  0  0  0  0  0  0  0  0  0  0  0
    0.0359    3.5855    2.3049 H   0  0  0  0  0  0  0  0  0  0  0  0
   -0.2760    3.7797    0.5637 H   0  0  0  0  0  0  0  0  0  0  0  0
  5  6  2  0  0  0  0
  5  7  1  0  0  0  0
  2  3  1  0  0  0  0
  2  4  1  0  0  0  0
  2  5  1  0  0  0  0
  1  2  1  0  0  0  0
 25 26  2  0  0  0  0
 25 27  1  0  0  0  0
 23 24  1  0  0  0  0
 21 22  1  0  0  0  0
 21 23  2  0  0  0  0
 19 20  1  0  0  0  0
 19 21  1  0  0  0  0
 17 18  1  0  0  0  0
 17 19  2  0  0  0  0
 15 16  1  0  0  0  0
 15 17  1  0  0  0  0
 14 15  2  0  0  0  0
 14 23  1  0  0  0  0
 11 12  1  0  0  0  0
 11 13  1  0  0  0  0
 11 14  1  0  0  0  0
  9 10  1  0  0  0  0
  9 11  1  0  0  0  0
  9 25  1  0  0  0  0
  7  8  1  0  0  0  0
  7  9  1  0  0  0  0
 29 30  1  0  0  0  0
 29 31  1  0  0  0  0
 29 32  1  0  0  0  0
 27 28  1  0  0  0  0
 27 29  1  0  0  0  0
M  END
$$$$
default_name
  -OEChem-02102213163D

 32 32  0     1  0  0  0  0  0999 V2000
   -3.8405   -3.7518    1.6252 H   0  0  0  0  0  0  0  0  0  0  0  0
   -3.7965   -2.8768    0.9782 C   0  0  0  0  0  0  0  0  0  0  0  0
   -4.5465   -2.1527    1.2902 H   0  0  0  0  0  0  0  0  0  0  0  0
   -3.9745   -3.1748   -0.0538 H   0  0  0  0  0  0  0  0  0  0  0  0
   -2.4245   -2.2537    1.0882 C   0  0  0  0  0  0  0  0  0  0  0  0
   -1.5805   -2.7478    1.8242 O   0  0  0  0  0  0  0  0  0  0  0  0
   -2.2045   -1.1637    0.3562 N   0  0  0  0  0  0  0  0  0  0  0  0
   -2.9595   -0.7907   -0.2008 H   0  0  0  0  0  0  0  0  0  0  0  0
   -0.9485   -0.4087    0.3482 C   0  0  1  0  0  0  0  0  0  0  0  0
   -0.3666   -0.6914    1.2269 H   0  0  0  0  0  0  0  0  0  0  0  0
   -0.1405   -0.7797   -0.9072 C   0  0  0  0  0  0  0  0  0  0  0  0
    0.6567   -0.0480   -1.0455 H   0  0  0  0  0  0  0  0  0  0  0  0
    0.3303   -1.7513   -0.7505 H   0  0  0  0  0  0  0  0  0  0  0  0
   -0.9653   -0.8225   -2.1794 C   0  0  0  0  0  0  0  0  0  0  0  0
   -2.0545   -1.7070   -2.2940 C   0  0  0  0  0  0  0  0  0  0  0  0
   -2.2959   -2.3787   -1.4822 H   0  0  0  0  0  0  0  0  0  0  0  0
   -2.8402   -1.7118   -3.4613 C   0  0  0  0  0  0  0  0  0  0  0  0
   -3.6745   -2.3936   -3.5482 H   0  0  0  0  0  0  0  0  0  0  0  0
   -2.5397   -0.8316   -4.5146 C   0  0  0  0  0  0  0  0  0  0  0  0
   -3.1419   -0.8370   -5.4124 H   0  0  0  0  0  0  0  0  0  0  0  0
   -1.4511    0.0525   -4.4041 C   0  0  0  0  0  0  0  0  0  0  0  0
   -1.2167    0.7253   -5.2159 H   0  0  0  0  0  0  0  0  0  0  0  0
   -0.6641    0.0548   -3.2387 C   0  0  0  0  0  0  0  0  0  0  0  0
    0.1751    0.7331   -3.1562 H   0  0  0  0  0  0  0  0  0  0  0  0
   -1.2168    1.1047    0.4313 C   0  0  0  0  0  0  0  0  0  0  0  0
   -2.0890    1.6186   -0.2704 O   0  0  0  0  0  0  0  0  0  0  0  0
   -0.4674    1.8182    1.2813 N   0  0  0  0  0  0  0  0  0  0  0  0
    0.2640    1.3348    1.7800 H   0  0  0  0  0  0  0  0  0  0  0  0
   -0.5889    3.2615    1.4722 C   0  0  0  0  0  0  0  0  0  0  0  0
   -1.6291    3.5206    1.6805 H   0  0  0  0  0  0  0  0  0  0  0  0
    0.0359    3.5855    2.3049 H   0  0  0  0  0  0  0  0  0  0  0  0
   -0.2760    3.7797    0.5637 H   0  0  0  0  0  0  0  0  0  0  0  0
  5  6  2  0  0  0  0
  5  7  1  0  0  0  0
  2  3  1  0  0  0  0
  2  4  1  0  0  0  0
  2  5  1  0  0  0  0
  1  2  1  0  0  0  0
 25 26  2  0  0  0  0
 25 27  1  0  0  0  0
 23 24  1  0  0  0  0
 21 22  1  0  0  0  0
 21 23  2  0  0  0  0
 19 20  1  0  0  0  0
 19 21  1  0  0  0  0
 17 18  1  0  0  0  0
 17 19  2  0  0  0  0
 15 16  1  0  0  0  0
 15 17  1  0  0  0  0
 14 15  2  0  0  0  0
 14 23  1  0  0  0  0
 11 12  1  0  0  0  0
 11 13  1  0  0  0  0
 11 14  1  0  0  0  0
  9 10  1  0  0  0  0
  9 11  1  0  0  0  0
  9 25  1  0  0  0  0
  7  8  1  0  0  0  0
  7  9  1  0  0  0  0
 29 30  1  0  0  0  0
 29 31  1  0  0  0  0
 29 32  1  0  0  0  0
 27 28  1  0  0  0  0
 27 29  1  0  0  0  0
M  END
$$$$
default_name
  -OEChem-02102213163D

 32 32  0     1  0  0  0  0  0999 V2000
   -3.8405   -3.7518    1.6252 H   0  0  0  0  0  0  0  0  0  0  0  0
   -3.7965   -2.8768    0.9782 C   0  0  0  0  0  0  0  0  0  0  0  0
   -4.5465   -2.1527    1.2902 H   0  0  0  0  0  0  0  0  0  0  0  0
   -3.9745   -3.1748   -0.0538 H   0  0  0  0  0  0  0  0  0  0  0  0
   -2.4245   -2.2537    1.0882 C   0  0  0  0  0  0  0  0  0  0  0  0
   -1.5805   -2.7478    1.8242 O   0  0  0  0  0  0  0  0  0  0  0  0
   -2.2045   -1.1637    0.3562 N   0  0  0  0  0  0  0  0  0  0  0  0
   -2.9595   -0.7907   -0.2008 H   0  0  0  0  0  0  0  0  0  0  0  0
   -0.9485   -0.4087    0.3482 C   0  0  1  0  0  0  0  0  0  0  0  0
   -0.3666   -0.6914    1.2269 H   0  0  0  0  0  0  0  0  0  0  0  0
   -0.1405   -0.7797   -0.9072 C   0  0  0  0  0  0  0  0  0  0  0  0
    0.6567   -0.0480   -1.0455 H   0  0  0  0  0  0  0  0  0  0  0  0
    0.3303   -1.7513   -0.7505 H   0  0  0  0  0  0  0  0  0  0  0  0
   -0.9653   -0.8225   -2.1794 C   0  0  0  0  0  0  0  0  0  0  0  0
   -2.2218   -1.4572   -2.1939 C   0  0  0  0  0  0  0  0  0  0  0  0
   -2.5969   -1.9389   -1.3019 H   0  0  0  0  0  0  0  0  0  0  0  0
   -2.9993   -1.4569   -3.3667 C   0  0  0  0  0  0  0  0  0  0  0  0
   -3.9627   -1.9472   -3.3763 H   0  0  0  0  0  0  0  0  0  0  0  0
   -2.5232   -0.8209   -4.5257 C   0  0  0  0  0  0  0  0  0  0  0  0
   -3.1195   -0.8227   -5.4274 H   0  0  0  0  0  0  0  0  0  0  0  0
   -1.2674   -0.1870   -4.5151 C   0  0  0  0  0  0  0  0  0  0  0  0
   -0.8989    0.2973   -5.4075 H   0  0  0  0  0  0  0  0  0  0  0  0
   -0.4892   -0.1903   -3.3439 C   0  0  0  0  0  0  0  0  0  0  0  0
    0.4782    0.2949   -3.3380 H   0  0  0  0  0  0  0  0  0  0  0  0
   -1.2168    1.1047    0.4313 C   0  0  0  0  0  0  0  0  0  0  0  0
   -2.0890    1.6186   -0.2704 O   0  0  0  0  0  0  0  0  0  0  0  0
   -0.4674    1.8182    1.2813 N   0  0  0  0  0  0  0  0  0  0  0  0
    0.2640    1.3348    1.7800 H   0  0  0  0  0  0  0  0  0  0  0  0
   -0.5889    3.2615    1.4722 C   0  0  0  0  0  0  0  0  0  0  0  0
   -1.6291    3.5206    1.6805 H   0  0  0  0  0  0  0  0  0  0  0  0
    0.0359    3.5855    2.3049 H   0  0  0  0  0  0  0  0  0  0  0  0
   -0.2760    3.7797    0.5637 H   0  0  0  0  0  0  0  0  0  0  0  0
  5  6  2  0  0  0  0
  5  7  1  0  0  0  0
  2  3  1  0  0  0  0
  2  4  1  0  0  0  0
  2  5  1  0  0  0  0
  1  2  1  0  0  0  0
 25 26  2  0  0  0  0
 25 27  1  0  0  0  0
 23 24  1  0  0  0  0
 21 22  1  0  0  0  0
 21 23  2  0  0  0  0
 19 20  1  0  0  0  0
 19 21  1  0  0  0  0
 17 18  1  0  0  0  0
 17 19  2  0  0  0  0
 15 16  1  0  0  0  0
 15 17  1  0  0  0  0
 14 15  2  0  0  0  0
 14 23  1  0  0  0  0
 11 12  1  0  0  0  0
 11 13  1  0  0  0  0
 11 14  1  0  0  0  0
  9 10  1  0  0  0  0
  9 11  1  0  0  0  0
  9 25  1  0  0  0  0
  7  8  1  0  0  0  0
  7  9  1  0  0  0  0
 29 30  1  0  0  0  0
 29 31  1  0  0  0  0
 29 32  1  0  0  0  0
 27 28  1  0  0  0  0
 27 29  1  0  0  0  0
M  END
$$$$
default_name
  -OEChem-02102213163D

 32 32  0     1  0  0  0  0  0999 V2000
   -3.8405   -3.7518    1.6252 H   0  0  0  0  0  0  0  0  0  0  0  0
   -3.7965   -2.8768    0.9782 C   0  0  0  0  0  0  0  0  0  0  0  0
   -4.5465   -2.1527    1.2902 H   0  0  0  0  0  0  0  0  0  0  0  0
   -3.9745   -3.1748   -0.0538 H   0  0  0  0  0  0  0  0  0  0  0  0
   -2.4245   -2.2537    1.0882 C   0  0  0  0  0  0  0  0  0  0  0  0
   -1.5805   -2.7478    1.8242 O   0  0  0  0  0  0  0  0  0  0  0  0
   -2.2045   -1.1637    0.3562 N   0  0  0  0  0  0  0  0  0  0  0  0
   -2.9595   -0.7907   -0.2008 H   0  0  0  0  0  0  0  0  0  0  0  0
   -0.9485   -0.4087    0.3482 C   0  0  1  0  0  0  0  0  0  0  0  0
   -0.3666   -0.6914    1.2269 H   0  0  0  0  0  0  0  0  0  0  0  0
   -0.1405   -0.7797   -0.9072 C   0  0  0  0  0  0  0  0  0  0  0  0
    0.6567   -0.0480   -1.0455 H   0  0  0  0  0  0  0  0  0  0  0  0
    0.3303   -1.7513   -0.7505 H   0  0  0  0  0  0  0  0  0  0  0  0
   -0.9653   -0.8225   -2.1794 C   0  0  0  0  0  0  0  0  0  0  0  0
   -2.3299   -1.1656   -2.1336 C   0  0  0  0  0  0  0  0  0  0  0  0
   -2.7934   -1.4233   -1.1918 H   0  0  0  0  0  0  0  0  0  0  0  0
   -3.0983   -1.1629   -3.3123 C   0  0  0  0  0  0  0  0  0  0  0  0
   -4.1454   -1.4292   -3.2753 H   0  0  0  0  0  0  0  0  0  0  0  0
   -2.5048   -0.8157   -4.5378 C   0  0  0  0  0  0  0  0  0  0  0  0
   -3.0947   -0.8159   -5.4437 H   0  0  0  0  0  0  0  0  0  0  0  0
   -1.1411   -0.4738   -4.5873 C   0  0  0  0  0  0  0  0  0  0  0  0
   -0.6834   -0.2121   -5.5301 H   0  0  0  0  0  0  0  0  0  0  0  0
   -0.3726   -0.4797   -3.4097 C   0  0  0  0  0  0  0  0  0  0  0  0
    0.6772   -0.2197   -3.4497 H   0  0  0  0  0  0  0  0  0  0  0  0
   -1.2168    1.1047    0.4313 C   0  0  0  0  0  0  0  0  0  0  0  0
   -2.0890    1.6186   -0.2704 O   0  0  0  0  0  0  0  0  0  0  0  0
   -0.4674    1.8182    1.2813 N   0  0  0  0  0  0  0  0  0  0  0  0
    0.2640    1.3348    1.7800 H   0  0  0  0  0  0  0  0  0  0  0  0
   -0.5889    3.2615    1.4722 C   0  0  0  0  0  0  0  0  0  0  0  0
   -1.6291    3.5206    1.6805 H   0  0  0  0  0  0  0  0  0  0  0  0
    0.0359    3.5855    2.3049 H   0  0  0  0  0  0  0  0  0  0  0  0
   -0.2760    3.7797    0.5637 H   0  0  0  0  0  0  0  0  0  0  0  0
  5  6  2  0  0  0  0
  5  7  1  0  0  0  0
  2  3  1  0  0  0  0
  2  4  1  0  0  0  0
  2  5  1  0  0  0  0
  1  2  1  0  0  0  0
 25 26  2  0  0  0  0
 25 27  1  0  0  0  0
 23 24  1  0  0  0  0
 21 22  1  0  0  0  0
 21 23  2  0  0  0  0
 19 20  1  0  0  0  0
 19 21  1  0  0  0  0
 17 18  1  0  0  0  0
 17 19  2  0  0  0  0
 15 16  1  0  0  0  0
 15 17  1  0  0  0  0
 14 15  2  0  0  0  0
 14 23  1  0  0  0  0
 11 12  1  0  0  0  0
 11 13  1  0  0  0  0
 11 14  1  0  0  0  0
  9 10  1  0  0  0  0
  9 11  1  0  0  0  0
  9 25  1  0  0  0  0
  7  8  1  0  0  0  0
  7  9  1  0  0  0  0
 29 30  1  0  0  0  0
 29 31  1  0  0  0  0
 29 32  1  0  0  0  0
 27 28  1  0  0  0  0
 27 29  1  0  0  0  0
M  END
$$$$
default_name
  -OEChem-02102213163D

 32 32  0     1  0  0  0  0  0999 V2000
   -3.8405   -3.7518    1.6252 H   0  0  0  0  0  0  0  0  0  0  0  0
   -3.7965   -2.8768    0.9782 C   0  0  0  0  0  0  0  0  0  0  0  0
   -4.5465   -2.1527    1.2902 H   0  0  0  0  0  0  0  0  0  0  0  0
   -3.9745   -3.1748   -0.0538 H   0  0  0  0  0  0  0  0  0  0  0  0
   -2.4245   -2.2537    1.0882 C   0  0  0  0  0  0  0  0  0  0  0  0
   -1.5805   -2.7478    1.8242 O   0  0  0  0  0  0  0  0  0  0  0  0
   -2.2045   -1.1637    0.3562 N   0  0  0  0  0  0  0  0  0  0  0  0
   -2.9595   -0.7907   -0.2008 H   0  0  0  0  0  0  0  0  0  0  0  0
   -0.9485   -0.4087    0.3482 C   0  0  1  0  0  0  0  0  0  0  0  0
   -0.3666   -0.6914    1.2269 H   0  0  0  0  0  0  0  0  0  0  0  0
   -0.1405   -0.7797   -0.9072 C   0  0  0  0  0  0  0  0  0  0  0  0
    0.6567   -0.0480   -1.0455 H   0  0  0  0  0  0  0  0  0  0  0  0
    0.3303   -1.7513   -0.7505 H   0  0  0  0  0  0  0  0  0  0  0  0
   -0.9653   -0.8225   -2.1794 C   0  0  0  0  0  0  0  0  0  0  0  0
   -2.3715   -0.8519   -2.1172 C   0  0  0  0  0  0  0  0  0  0  0  0
   -2.8722   -0.8672   -1.1595 H   0  0  0  0  0  0  0  0  0  0  0  0
   -3.1306   -0.8497   -3.3020 C   0  0  0  0  0  0  0  0  0  0  0  0
   -4.2101   -0.8749   -3.2520 H   0  0  0  0  0  0  0  0  0  0  0  0
   -2.4858   -0.8163   -4.5501 C   0  0  0  0  0  0  0  0  0  0  0  0
   -3.0690   -0.8171   -5.4603 H   0  0  0  0  0  0  0  0  0  0  0  0
   -1.0809   -0.7884   -4.6158 C   0  0  0  0  0  0  0  0  0  0  0  0
   -0.5850   -0.7682   -5.5752 H   0  0  0  0  0  0  0  0  0  0  0  0
   -0.3224   -0.7939   -3.4317 C   0  0  0  0  0  0  0  0  0  0  0  0
    0.7584   -0.7758   -3.4837 H   0  0  0  0  0  0  0  0  0  0  0  0
   -1.2168    1.1047    0.4313 C   0  0  0  0  0  0  0  0  0  0  0  0
   -2.0890    1.6186   -0.2704 O   0  0  0  0  0  0  0  0  0  0  0  0
   -0.4674    1.8182    1.2813 N   0  0  0  0  0  0  0  0  0  0  0  0
    0.2640    1.3348    1.7800 H   0  0  0  0  0  0  0  0  0  0  0  0
   -0.5889    3.2615    1.4722 C   0  0  0  0  0  0  0  0  0  0  0  0
   -1.6291    3.5206    1.6805 H   0  0  0  0  0  0  0  0  0  0  0  0
    0.0359    3.5855    2.3049 H   0  0  0  0  0  0  0  0  0  0  0  0
   -0.2760    3.7797    0.5637 H   0  0  0  0  0  0  0  0  0  0  0  0
  5  6  2  0  0  0  0
  5  7  1  0  0  0  0
  2  3  1  0  0  0  0
  2  4  1  0  0  0  0
  2  5  1  0  0  0  0
  1  2  1  0  0  0  0
 25 26  2  0  0  0  0
 25 27  1  0  0  0  0
 23 24  1  0  0  0  0
 21 22  1  0  0  0  0
 21 23  2  0  0  0  0
 19 20  1  0  0  0  0
 19 21  1  0  0  0  0
 17 18  1  0  0  0  0
 17 19  2  0  0  0  0
 15 16  1  0  0  0  0
 15 17  1  0  0  0  0
 14 15  2  0  0  0  0
 14 23  1  0  0  0  0
 11 12  1  0  0  0  0
 11 13  1  0  0  0  0
 11 14  1  0  0  0  0
  9 10  1  0  0  0  0
  9 11  1  0  0  0  0
  9 25  1  0  0  0  0
  7  8  1  0  0  0  0
  7  9  1  0  0  0  0
 29 30  1  0  0  0  0
 29 31  1  0  0  0  0
 29 32  1  0  0  0  0
 27 28  1  0  0  0  0
 27 29  1  0  0  0  0
M  END
$$$$
default_name
  -OEChem-02102213163D

 32 32  0     1  0  0  0  0  0999 V2000
   -3.8405   -3.7518    1.6252 H   0  0  0  0  0  0  0  0  0  0  0  0
   -3.7965   -2.8768    0.9782 C   0  0  0  0  0  0  0  0  0  0  0  0
   -4.5465   -2.1527    1.2902 H   0  0  0  0  0  0  0  0  0  0  0  0
   -3.9745   -3.1748   -0.0538 H   0  0  0  0  0  0  0  0  0  0  0  0
   -2.4245   -2.2537    1.0882 C   0  0  0  0  0  0  0  0  0  0  0  0
   -1.5805   -2.7478    1.8242 O   0  0  0  0  0  0  0  0  0  0  0  0
   -2.2045   -1.1637    0.3562 N   0  0  0  0  0  0  0  0  0  0  0  0
   -2.9595   -0.7907   -0.2008 H   0  0  0  0  0  0  0  0  0  0  0  0
   -0.9485   -0.4087    0.3482 C   0  0  1  0  0  0  0  0  0  0  0  0
   -0.3666   -0.6914    1.2269 H   0  0  0  0  0  0  0  0  0  0  0  0
   -0.1405   -0.7797   -0.9072 C   0  0  0  0  0  0  0  0  0  0  0  0
    0.6567   -0.0480   -1.0455 H   0  0  0  0  0  0  0  0  0  0  0  0
    0.3303   -1.7513   -0.7505 H   0  0  0  0  0  0  0  0  0  0  0  0
   -0.9653   -0.8225   -2.1794 C   0  0  0  0  0  0  0  0  0  0  0  0
   -2.3436   -0.5375   -2.1459 C   0  0  0  0  0  0  0  0  0  0  0  0
   -2.8277   -0.3083   -1.2070 H   0  0  0  0  0  0  0  0  0  0  0  0
   -3.0938   -0.5388   -3.3363 C   0  0  0  0  0  0  0  0  0  0  0  0
   -4.1525   -0.3223   -3.3079 H   0  0  0  0  0  0  0  0  0  0  0  0
   -2.4675   -0.8228   -4.5617 C   0  0  0  0  0  0  0  0  0  0  0  0
   -3.0444   -0.8260   -5.4760 H   0  0  0  0  0  0  0  0  0  0  0  0
   -1.0908   -1.1094   -4.5986 C   0  0  0  0  0  0  0  0  0  0  0  0
   -0.6103   -1.3331   -5.5398 H   0  0  0  0  0  0  0  0  0  0  0  0
   -0.3420   -1.1113   -3.4084 C   0  0  0  0  0  0  0  0  0  0  0  0
    0.7165   -1.3353   -3.4377 H   0  0  0  0  0  0  0  0  0  0  0  0
   -1.2168    1.1047    0.4313 C   0  0  0  0  0  0  0  0  0  0  0  0
   -2.0890    1.6186   -0.2704 O   0  0  0  0  0  0  0  0  0  0  0  0
   -0.4674    1.8182    1.2813 N   0  0  0  0  0  0  0  0  0  0  0  0
    0.2640    1.3348    1.7800 H   0  0  0  0  0  0  0  0  0  0  0  0
   -0.5889    3.2615    1.4722 C   0  0  0  0  0  0  0  0  0  0  0  0
   -1.6291    3.5206    1.6805 H   0  0  0  0  0  0  0  0  0  0  0  0
    0.0359    3.5855    2.3049 H   0  0  0  0  0  0  0  0  0  0  0  0
   -0.2760    3.7797    0.5637 H   0  0  0  0  0  0  0  0  0  0  0  0
  5  6  2  0  0  0  0
  5  7  1  0  0  0  0
  2  3  1  0  0  0  0
  2  4  1  0  0  0  0
  2  5  1  0  0  0  0
  1  2  1  0  0  0  0
 25 26  2  0  0  0  0
 25 27  1  0  0  0  0
 23 24  1  0  0  0  0
 21 22  1  0  0  0  0
 21 23  2  0  0  0  0
 19 20  1  0  0  0  0
 19 21  1  0  0  0  0
 17 18  1  0  0  0  0
 17 19  2  0  0  0  0
 15 16  1  0  0  0  0
 15 17  1  0  0  0  0
 14 15  2  0  0  0  0
 14 23  1  0  0  0  0
 11 12  1  0  0  0  0
 11 13  1  0  0  0  0
 11 14  1  0  0  0  0
  9 10  1  0  0  0  0
  9 11  1  0  0  0  0
  9 25  1  0  0  0  0
  7  8  1  0  0  0  0
  7  9  1  0  0  0  0
 29 30  1  0  0  0  0
 29 31  1  0  0  0  0
 29 32  1  0  0  0  0
 27 28  1  0  0  0  0
 27 29  1  0  0  0  0
M  END
$$$$
default_name
  -OEChem-02102213163D

 32 32  0     1  0  0  0  0  0999 V2000
   -3.8405   -3.7518    1.6252 H   0  0  0  0  0  0  0  0  0  0  0  0
   -3.7965   -2.8768    0.9782 C   0  0  0  0  0  0  0  0  0  0  0  0
   -4.5465   -2.1527    1.2902 H   0  0  0  0  0  0  0  0  0  0  0  0
   -3.9745   -3.1748   -0.0538 H   0  0  0  0  0  0  0  0  0  0  0  0
   -2.4245   -2.2537    1.0882 C   0  0  0  0  0  0  0  0  0  0  0  0
   -1.5805   -2.7478    1.8242 O   0  0  0  0  0  0  0  0  0  0  0  0
   -2.2045   -1.1637    0.3562 N   0  0  0  0  0  0  0  0  0  0  0  0
   -2.9595   -0.7907   -0.2008 H   0  0  0  0  0  0  0  0  0  0  0  0
   -0.9485   -0.4087    0.3482 C   0  0  1  0  0  0  0  0  0  0  0  0
   -0.3666   -0.6914    1.2269 H   0  0  0  0  0  0  0  0  0  0  0  0
   -0.1405   -0.7797   -0.9072 C   0  0  0  0  0  0  0  0  0  0  0  0
    0.6567   -0.0480   -1.0455 H   0  0  0  0  0  0  0  0  0  0  0  0
    0.3303   -1.7513   -0.7505 H   0  0  0  0  0  0  0  0  0  0  0  0
   -0.9653   -0.8225   -2.1794 C   0  0  0  0  0  0  0  0  0  0  0  0
   -2.2482   -0.2440   -2.2175 C   0  0  0  0  0  0  0  0  0  0  0  0
   -2.6631    0.2151   -1.3313 H   0  0  0  0  0  0  0  0  0  0  0  0
   -2.9905   -0.2512   -3.4129 C   0  0  0  0  0  0  0  0  0  0  0  0
   -3.9765    0.1912   -3.4393 H   0  0  0  0  0  0  0  0  0  0  0  0
   -2.4512   -0.8346   -4.5719 C   0  0  0  0  0  0  0  0  0  0  0  0
   -3.0225   -0.8423   -5.4896 H   0  0  0  0  0  0  0  0  0  0  0  0
   -1.1701   -1.4149   -4.5369 C   0  0  0  0  0  0  0  0  0  0  0  0
   -0.7577   -1.8682   -5.4263 H   0  0  0  0  0  0  0  0  0  0  0  0
   -0.4299   -1.4104   -3.3413 C   0  0  0  0  0  0  0  0  0  0  0  0
    0.5542   -1.8601   -3.3148 H   0  0  0  0  0  0  0  0  0  0  0  0
   -1.2168    1.1047    0.4313 C   0  0  0  0  0  0  0  0  0  0  0  0
   -2.0890    1.6186   -0.2704 O   0  0  0  0  0  0  0  0  0  0  0  0
   -0.4674    1.8182    1.2813 N   0  0  0  0  0  0  0  0  0  0  0  0
    0.2640    1.3348    1.7800 H   0  0  0  0  0  0  0  0  0  0  0  0
   -0.5889    3.2615    1.4722 C   0  0  0  0  0  0  0  0  0  0  0  0
   -1.6291    3.5206    1.6805 H   0  0  0  0  0  0  0  0  0  0  0  0
    0.0359    3.5855    2.3049 H   0  0  0  0  0  0  0  0  0  0  0  0
   -0.2760    3.7797    0.5637 H   0  0  0  0  0  0  0  0  0  0  0  0
  5  6  2  0  0  0  0
  5  7  1  0  0  0  0
  2  3  1  0  0  0  0
  2  4  1  0  0  0  0
  2  5  1  0  0  0  0
  1  2  1  0  0  0  0
 25 26  2  0  0  0  0
 25 27  1  0  0  0  0
 23 24  1  0  0  0  0
 21 22  1  0  0  0  0
 21 23  2  0  0  0  0
 19 20  1  0  0  0  0
 19 21  1  0  0  0  0
 17 18  1  0  0  0  0
 17 19  2  0  0  0  0
 15 16  1  0  0  0  0
 15 17  1  0  0  0  0
 14 15  2  0  0  0  0
 14 23  1  0  0  0  0
 11 12  1  0  0  0  0
 11 13  1  0  0  0  0
 11 14  1  0  0  0  0
  9 10  1  0  0  0  0
  9 11  1  0  0  0  0
  9 25  1  0  0  0  0
  7  8  1  0  0  0  0
  7  9  1  0  0  0  0
 29 30  1  0  0  0  0
 29 31  1  0  0  0  0
 29 32  1  0  0  0  0
 27 28  1  0  0  0  0
 27 29  1  0  0  0  0
M  END
$$$$
default_name
  -OEChem-02102213163D

 32 32  0     1  0  0  0  0  0999 V2000
   -3.8405   -3.7518    1.6252 H   0  0  0  0  0  0  0  0  0  0  0  0
   -3.7965   -2.8768    0.9782 C   0  0  0  0  0  0  0  0  0  0  0  0
   -4.5465   -2.1527    1.2902 H   0  0  0  0  0  0  0  0  0  0  0  0
   -3.9745   -3.1748   -0.0538 H   0  0  0  0  0  0  0  0  0  0  0  0
   -2.4245   -2.2537    1.0882 C   0  0  0  0  0  0  0  0  0  0  0  0
   -1.5805   -2.7478    1.8242 O   0  0  0  0  0  0  0  0  0  0  0  0
   -2.2045   -1.1637    0.3562 N   0  0  0  0  0  0  0  0  0  0  0  0
   -2.9595   -0.7907   -0.2008 H   0  0  0  0  0  0  0  0  0  0  0  0
   -0.9485   -0.4087    0.3482 C   0  0  1  0  0  0  0  0  0  0  0  0
   -0.3666   -0.6914    1.2269 H   0  0  0  0  0  0  0  0  0  0  0  0
   -0.1405   -0.7797   -0.9072 C   0  0  0  0  0  0  0  0  0  0  0  0
    0.6567   -0.0480   -1.0455 H   0  0  0  0  0  0  0  0  0  0  0  0
    0.3303   -1.7513   -0.7505 H   0  0  0  0  0  0  0  0  0  0  0  0
   -0.9653   -0.8225   -2.1794 C   0  0  0  0  0  0  0  0  0  0  0  0
   -2.0919    0.0087   -2.3274 C   0  0  0  0  0  0  0  0  0  0  0  0
   -2.3896    0.6675   -1.5239 H   0  0  0  0  0  0  0  0  0  0  0  0
   -2.8278   -0.0067   -3.5266 C   0  0  0  0  0  0  0  0  0  0  0  0
   -3.6940    0.6305   -3.6372 H   0  0  0  0  0  0  0  0  0  0  0  0
   -2.4379   -0.8511   -4.5800 C   0  0  0  0  0  0  0  0  0  0  0  0
   -3.0047   -0.8646   -5.5004 H   0  0  0  0  0  0  0  0  0  0  0  0
   -1.3136   -1.6840   -4.4348 C   0  0  0  0  0  0  0  0  0  0  0  0
   -1.0170   -2.3371   -5.2424 H   0  0  0  0  0  0  0  0  0  0  0  0
   -0.5803   -1.6708   -3.2351 C   0  0  0  0  0  0  0  0  0  0  0  0
    0.2825   -2.3146   -3.1234 H   0  0  0  0  0  0  0  0  0  0  0  0
   -1.2168    1.1047    0.4313 C   0  0  0  0  0  0  0  0  0  0  0  0
   -2.0890    1.6186   -0.2704 O   0  0  0  0  0  0  0  0  0  0  0  0
   -0.4674    1.8182    1.2813 N   0  0  0  0  0  0  0  0  0  0  0  0
    0.2640    1.3348    1.7800 H   0  0  0  0  0  0  0  0  0  0  0  0
   -0.5889    3.2615    1.4722 C   0  0  0  0  0  0  0  0  0  0  0  0
   -1.6291    3.5206    1.6805 H   0  0  0  0  0  0  0  0  0  0  0  0
    0.0359    3.5855    2.3049 H   0  0  0  0  0  0  0  0  0  0  0  0
   -0.2760    3.7797    0.5637 H   0  0  0  0  0  0  0  0  0  0  0  0
  5  6  2  0  0  0  0
  5  7  1  0  0  0  0
  2  3  1  0  0  0  0
  2  4  1  0  0  0  0
  2  5  1  0  0  0  0
  1  2  1  0  0  0  0
 25 26  2  0  0  0  0
 25 27  1  0  0  0  0
 23 24  1  0  0  0  0
 21 22  1  0  0  0  0
 21 23  2  0  0  0  0
 19 20  1  0  0  0  0
 19 21  1  0  0  0  0
 17 18  1  0  0  0  0
 17 19  2  0  0  0  0
 15 16  1  0  0  0  0
 15 17  1  0  0  0  0
 14 15  2  0  0  0  0
 14 23  1  0  0  0  0
 11 12  1  0  0  0  0
 11 13  1  0  0  0  0
 11 14  1  0  0  0  0
  9 10  1  0  0  0  0
  9 11  1  0  0  0  0
  9 25  1  0  0  0  0
  7  8  1  0  0  0  0
  7  9  1  0  0  0  0
 29 30  1  0  0  0  0
 29 31  1  0  0  0  0
 29 32  1  0  0  0  0
 27 28  1  0  0  0  0
 27 29  1  0  0  0  0
M  END
$$$$
default_name
  -OEChem-02102213163D

 32 32  0     1  0  0  0  0  0999 V2000
   -3.8405   -3.7518    1.6252 H   0  0  0  0  0  0  0  0  0  0  0  0
   -3.7965   -2.8768    0.9782 C   0  0  0  0  0  0  0  0  0  0  0  0
   -4.5465   -2.1527    1.2902 H   0  0  0  0  0  0  0  0  0  0  0  0
   -3.9745   -3.1748   -0.0538 H   0  0  0  0  0  0  0  0  0  0  0  0
   -2.4245   -2.2537    1.0882 C   0  0  0  0  0  0  0  0  0  0  0  0
   -1.5805   -2.7478    1.8242 O   0  0  0  0  0  0  0  0  0  0  0  0
   -2.2045   -1.1637    0.3562 N   0  0  0  0  0  0  0  0  0  0  0  0
   -2.9595   -0.7907   -0.2008 H   0  0  0  0  0  0  0  0  0  0  0  0
   -0.9485   -0.4087    0.3482 C   0  0  1  0  0  0  0  0  0  0  0  0
   -0.3666   -0.6914    1.2269 H   0  0  0  0  0  0  0  0  0  0  0  0
   -0.1405   -0.7797   -0.9072 C   0  0  0  0  0  0  0  0  0  0  0  0
    0.6567   -0.0480   -1.0455 H   0  0  0  0  0  0  0  0  0  0  0  0
    0.3303   -1.7513   -0.7505 H   0  0  0  0  0  0  0  0  0  0  0  0
   -0.9653   -0.8225   -2.1794 C   0  0  0  0  0  0  0  0  0  0  0  0
   -1.8852    0.2035   -2.4679 C   0  0  0  0  0  0  0  0  0  0  0  0
   -2.0258    1.0180   -1.7715 H   0  0  0  0  0  0  0  0  0  0  0  0
   -2.6167    0.1782   -3.6697 C   0  0  0  0  0  0  0  0  0  0  0  0
   -3.3244    0.9656   -3.8881 H   0  0  0  0  0  0  0  0  0  0  0  0
   -2.4286   -0.8710   -4.5854 C   0  0  0  0  0  0  0  0  0  0  0  0
   -2.9923   -0.8916   -5.5075 H   0  0  0  0  0  0  0  0  0  0  0  0
   -1.5113   -1.8985   -4.2995 C   0  0  0  0  0  0  0  0  0  0  0  0
   -1.3706   -2.7079   -5.0007 H   0  0  0  0  0  0  0  0  0  0  0  0
   -0.7828   -1.8748   -3.0969 C   0  0  0  0  0  0  0  0  0  0  0  0
   -0.0799   -2.6676   -2.8766 H   0  0  0  0  0  0  0  0  0  0  0  0
   -1.2168    1.1047    0.4313 C   0  0  0  0  0  0  0  0  0  0  0  0
   -2.0890    1.6186   -0.2704 O   0  0  0  0  0  0  0  0  0  0  0  0
   -0.4674    1.8182    1.2813 N   0  0  0  0  0  0  0  0  0  0  0  0
    0.2640    1.3348    1.7800 H   0  0  0  0  0  0  0  0  0  0  0  0
   -0.5889    3.2615    1.4722 C   0  0  0  0  0  0  0  0  0  0  0  0
   -1.6291    3.5206    1.6805 H   0  0  0  0  0  0  0  0  0  0  0  0
    0.0359    3.5855    2.3049 H   0  0  0  0  0  0  0  0  0  0  0  0
   -0.2760    3.7797    0.5637 H   0  0  0  0  0  0  0  0  0  0  0  0
  5  6  2  0  0  0  0
  5  7  1  0  0  0  0
  2  3  1  0  0  0  0
  2  4  1  0  0  0  0
  2  5  1  0  0  0  0
  1  2  1  0  0  0  0
 25 26  2  0  0  0  0
 25 27  1  0  0  0  0
 23 24  1  0  0  0  0
 21 22  1  0  0  0  0
 21 23  2  0  0  0  0
 19 20  1  0  0  0  0
 19 21  1  0  0  0  0
 17 18  1  0  0  0  0
 17 19  2  0  0  0  0
 15 16  1  0  0  0  0
 15 17  1  0  0  0  0
 14 15  2  0  0  0  0
 14 23  1  0  0  0  0
 11 12  1  0  0  0  0
 11 13  1  0  0  0  0
 11 14  1  0  0  0  0
  9 10  1  0  0  0  0
  9 11  1  0  0  0  0
  9 25  1  0  0  0  0
  7  8  1  0  0  0  0
  7  9  1  0  0  0  0
 29 30  1  0  0  0  0
 29 31  1  0  0  0  0
 29 32  1  0  0  0  0
 27 28  1  0  0  0  0
 27 29  1  0  0  0  0
M  END
$$$$
default_name
  -OEChem-02102213163D

 32 32  0     1  0  0  0  0  0999 V2000
   -3.8405   -3.7518    1.6252 H   0  0  0  0  0  0  0  0  0  0  0  0
   -3.7965   -2.8768    0.9782 C   0  0  0  0  0  0  0  0  0  0  0  0
   -4.5465   -2.1527    1.2902 H   0  0  0  0  0  0  0  0  0  0  0  0
   -3.9745   -3.1748   -0.0538 H   0  0  0  0  0  0  0  0  0  0  0  0
   -2.4245   -2.2537    1.0882 C   0  0  0  0  0  0  0  0  0  0  0  0
   -1.5805   -2.7478    1.8242 O   0  0  0  0  0  0  0  0  0  0  0  0
   -2.2045   -1.1637    0.3562 N   0  0  0  0  0  0  0  0  0  0  0  0
   -2.9595   -0.7907   -0.2008 H   0  0  0  0  0  0  0  0  0  0  0  0
   -0.9485   -0.4087    0.3482 C   0  0  1  0  0  0  0  0  0  0  0  0
   -0.3666   -0.6914    1.2269 H   0  0  0  0  0  0  0  0  0  0  0  0
   -0.1405   -0.7797   -0.9072 C   0  0  0  0  0  0  0  0  0  0  0  0
    0.6567   -0.0480   -1.0455 H   0  0  0  0  0  0  0  0  0  0  0  0
    0.3303   -1.7513   -0.7505 H   0  0  0  0  0  0  0  0  0  0  0  0
   -0.9653   -0.8225   -2.1794 C   0  0  0  0  0  0  0  0  0  0  0  0
   -1.6422    0.3269   -2.6296 C   0  0  0  0  0  0  0  0  0  0  0  0
   -1.5964    1.2428   -2.0574 H   0  0  0  0  0  0  0  0  0  0  0  0
   -2.3716    0.2908   -3.8324 C   0  0  0  0  0  0  0  0  0  0  0  0
   -2.8927    1.1738   -4.1749 H   0  0  0  0  0  0  0  0  0  0  0  0
   -2.4239   -0.8930   -4.5877 C   0  0  0  0  0  0  0  0  0  0  0  0
   -2.9862   -0.9213   -5.5105 H   0  0  0  0  0  0  0  0  0  0  0  0
   -1.7498   -2.0437   -4.1399 C   0  0  0  0  0  0  0  0  0  0  0  0
   -1.7944   -2.9553   -4.7176 H   0  0  0  0  0  0  0  0  0  0  0  0
   -1.0238   -2.0083   -2.9362 C   0  0  0  0  0  0  0  0  0  0  0  0
   -0.5084   -2.8952   -2.5911 H   0  0  0  0  0  0  0  0  0  0  0  0
   -1.2168    1.1047    0.4313 C   0  0  0  0  0  0  0  0  0  0  0  0
   -2.0890    1.6186   -0.2704 O   0  0  0  0  0  0  0  0  0  0  0  0
   -0.4674    1.8182    1.2813 N   0  0  0  0  0  0  0  0  0  0  0  0
    0.2640    1.3348    1.7800 H   0  0  0  0  0  0  0  0  0  0  0  0
   -0.5889    3.2615    1.4722 C   0  0  0  0  0  0  0  0  0  0  0  0
   -1.6291    3.5206    1.6805 H   0  0  0  0  0  0  0  0  0  0  0  0
    0.0359    3.5855    2.3049 H   0  0  0  0  0  0  0  0  0  0  0  0
   -0.2760    3.7797    0.5637 H   0  0  0  0  0  0  0  0  0  0  0  0
  5  6  2  0  0  0  0
  5  7  1  0  0  0  0
  2  3  1  0  0  0  0
  2  4  1  0  0  0  0
  2  5  1  0  0  0  0
  1  2  1  0  0  0  0
 25 26  2  0  0  0  0
 25 27  1  0  0  0  0
 23 24  1  0  0  0  0
 21 22  1  0  0  0  0
 21 23  2  0  0  0  0
 19 20  1  0  0  0  0
 19 21  1  0  0  0  0
 17 18  1  0  0  0  0
 17 19  2  0  0  0  0
 15 16  1  0  0  0  0
 15 17  1  0  0  0  0
 14 15  2  0  0  0  0
 14 23  1  0  0  0  0
 11 12  1  0  0  0  0
 11 13  1  0  0  0  0
 11 14  1  0  0  0  0
  9 10  1  0  0  0  0
  9 11  1  0  0  0  0
  9 25  1  0  0  0  0
  7  8  1  0  0  0  0
  7  9  1  0  0  0  0
 29 30  1  0  0  0  0
 29 31  1  0  0  0  0
 29 32  1  0  0  0  0
 27 28  1  0  0  0  0
 27 29  1  0  0  0  0
M  END
$$$$
default_name
  -OEChem-02102213163D

 32 32  0     1  0  0  0  0  0999 V2000
   -3.8405   -3.7518    1.6252 H   0  0  0  0  0  0  0  0  0  0  0  0
   -3.7965   -2.8768    0.9782 C   0  0  0  0  0  0  0  0  0  0  0  0
   -4.5465   -2.1527    1.2902 H   0  0  0  0  0  0  0  0  0  0  0  0
   -3.9745   -3.1748   -0.0538 H   0  0  0  0  0  0  0  0  0  0  0  0
   -2.4245   -2.2537    1.0882 C   0  0  0  0  0  0  0  0  0  0  0  0
   -1.5805   -2.7478    1.8242 O   0  0  0  0  0  0  0  0  0  0  0  0
   -2.2045   -1.1637    0.3562 N   0  0  0  0  0  0  0  0  0  0  0  0
   -2.9595   -0.7907   -0.2008 H   0  0  0  0  0  0  0  0  0  0  0  0
   -0.9485   -0.4087    0.3482 C   0  0  1  0  0  0  0  0  0  0  0  0
   -0.3666   -0.6914    1.2269 H   0  0  0  0  0  0  0  0  0  0  0  0
   -0.1405   -0.7797   -0.9072 C   0  0  0  0  0  0  0  0  0  0  0  0
    0.6567   -0.0480   -1.0455 H   0  0  0  0  0  0  0  0  0  0  0  0
    0.3303   -1.7513   -0.7505 H   0  0  0  0  0  0  0  0  0  0  0  0
   -0.9653   -0.8225   -2.1794 C   0  0  0  0  0  0  0  0  0  0  0  0
   -1.3796    0.3707   -2.8013 C   0  0  0  0  0  0  0  0  0  0  0  0
   -1.1309    1.3264   -2.3621 H   0  0  0  0  0  0  0  0  0  0  0  0
   -2.1092    0.3235   -4.0036 C   0  0  0  0  0  0  0  0  0  0  0  0
   -2.4285    1.2408   -4.4781 H   0  0  0  0  0  0  0  0  0  0  0  0
   -2.4241   -0.9156   -4.5868 C   0  0  0  0  0  0  0  0  0  0  0  0
   -2.9866   -0.9518   -5.5092 H   0  0  0  0  0  0  0  0  0  0  0  0
   -2.0129   -2.1097   -3.9671 C   0  0  0  0  0  0  0  0  0  0  0  0
   -2.2596   -3.0624   -4.4125 H   0  0  0  0  0  0  0  0  0  0  0  0
   -1.2867   -2.0624   -2.7640 C   0  0  0  0  0  0  0  0  0  0  0  0
   -0.9738   -2.9819   -2.2865 H   0  0  0  0  0  0  0  0  0  0  0  0
   -1.2168    1.1047    0.4313 C   0  0  0  0  0  0  0  0  0  0  0  0
   -2.0890    1.6186   -0.2704 O   0  0  0  0  0  0  0  0  0  0  0  0
   -0.4674    1.8182    1.2813 N   0  0  0  0  0  0  0  0  0  0  0  0
    0.2640    1.3348    1.7800 H   0  0  0  0  0  0  0  0  0  0  0  0
   -0.5889    3.2615    1.4722 C   0  0  0  0  0  0  0  0  0  0  0  0
   -1.6291    3.5206    1.6805 H   0  0  0  0  0  0  0  0  0  0  0  0
    0.0359    3.5855    2.3049 H   0  0  0  0  0  0  0  0  0  0  0  0
   -0.2760    3.7797    0.5637 H   0  0  0  0  0  0  0  0  0  0  0  0
  5  6  2  0  0  0  0
  5  7  1  0  0  0  0
  2  3  1  0  0  0  0
  2  4  1  0  0  0  0
  2  5  1  0  0  0  0
  1  2  1  0  0  0  0
 25 26  2  0  0  0  0
 25 27  1  0  0  0  0
 23 24  1  0  0  0  0
 21 22  1  0  0  0  0
 21 23  2  0  0  0  0
 19 20  1  0  0  0  0
 19 21  1  0  0  0  0
 17 18  1  0  0  0  0
 17 19  2  0  0  0  0
 15 16  1  0  0  0  0
 15 17  1  0  0  0  0
 14 15  2  0  0  0  0
 14 23  1  0  0  0  0
 11 12  1  0  0  0  0
 11 13  1  0  0  0  0
 11 14  1  0  0  0  0
  9 10  1  0  0  0  0
  9 11  1  0  0  0  0
  9 25  1  0  0  0  0
  7  8  1  0  0  0  0
  7  9  1  0  0  0  0
 29 30  1  0  0  0  0
 29 31  1  0  0  0  0
 29 32  1  0  0  0  0
 27 28  1  0  0  0  0
 27 29  1  0  0  0  0
M  END
$$$$
default_name
  -OEChem-02102213163D

 32 32  0     1  0  0  0  0  0999 V2000
   -3.8405   -3.7518    1.6252 H   0  0  0  0  0  0  0  0  0  0  0  0
   -3.7965   -2.8768    0.9782 C   0  0  0  0  0  0  0  0  0  0  0  0
   -4.5465   -2.1527    1.2902 H   0  0  0  0  0  0  0  0  0  0  0  0
   -3.9745   -3.1748   -0.0538 H   0  0  0  0  0  0  0  0  0  0  0  0
   -2.4245   -2.2537    1.0882 C   0  0  0  0  0  0  0  0  0  0  0  0
   -1.5805   -2.7478    1.8242 O   0  0  0  0  0  0  0  0  0  0  0  0
   -2.2045   -1.1637    0.3562 N   0  0  0  0  0  0  0  0  0  0  0  0
   -2.9595   -0.7907   -0.2008 H   0  0  0  0  0  0  0  0  0  0  0  0
   -0.9485   -0.4087    0.3482 C   0  0  1  0  0  0  0  0  0  0  0  0
   -0.3666   -0.6914    1.2269 H   0  0  0  0  0  0  0  0  0  0  0  0
   -0.1405   -0.7797   -0.9072 C   0  0  0  0  0  0  0  0  0  0  0  0
    0.6567   -0.0480   -1.0455 H   0  0  0  0  0  0  0  0  0  0  0  0
    0.3303   -1.7513   -0.7505 H   0  0  0  0  0  0  0  0  0  0  0  0
   -0.9653   -0.8225   -2.1794 C   0  0  0  0  0  0  0  0  0  0  0  0
   -1.1151    0.3317   -2.9715 C   0  0  0  0  0  0  0  0  0  0  0  0
   -0.6608    1.2632   -2.6647 H   0  0  0  0  0  0  0  0  0  0  0  0
   -1.8474    0.2740   -4.1716 C   0  0  0  0  0  0  0  0  0  0  0  0
   -1.9634    1.1620   -4.7770 H   0  0  0  0  0  0  0  0  0  0  0  0
   -2.4292   -0.9372   -4.5828 C   0  0  0  0  0  0  0  0  0  0  0  0
   -2.9937   -0.9810   -5.5036 H   0  0  0  0  0  0  0  0  0  0  0  0
   -2.2827   -2.0921   -3.7929 C   0  0  0  0  0  0  0  0  0  0  0  0
   -2.7344   -3.0219   -4.1060 H   0  0  0  0  0  0  0  0  0  0  0  0
   -1.5536   -2.0333   -2.5919 C   0  0  0  0  0  0  0  0  0  0  0  0
   -1.4444   -2.9217   -1.9834 H   0  0  0  0  0  0  0  0  0  0  0  0
   -1.2168    1.1047    0.4313 C   0  0  0  0  0  0  0  0  0  0  0  0
   -2.0890    1.6186   -0.2704 O   0  0  0  0  0  0  0  0  0  0  0  0
   -0.4674    1.8182    1.2813 N   0  0  0  0  0  0  0  0  0  0  0  0
    0.2640    1.3348    1.7800 H   0  0  0  0  0  0  0  0  0  0  0  0
   -0.5889    3.2615    1.4722 C   0  0  0  0  0  0  0  0  0  0  0  0
   -1.6291    3.5206    1.6805 H   0  0  0  0  0  0  0  0  0  0  0  0
    0.0359    3.5855    2.3049 H   0  0  0  0  0  0  0  0  0  0  0  0
   -0.2760    3.7797    0.5637 H   0  0  0  0  0  0  0  0  0  0  0  0
  5  6  2  0  0  0  0
  5  7  1  0  0  0  0
  2  3  1  0  0  0  0
  2  4  1  0  0  0  0
  2  5  1  0  0  0  0
  1  2  1  0  0  0  0
 25 26  2  0  0  0  0
 25 27  1  0  0  0  0
 23 24  1  0  0  0  0
 21 22  1  0  0  0  0
 21 23  2  0  0  0  0
 19 20  1  0  0  0  0
 19 21  1  0  0  0  0
 17 18  1  0  0  0  0
 17 19  2  0  0  0  0
 15 16  1  0  0  0  0
 15 17  1  0  0  0  0
 14 15  2  0  0  0  0
 14 23  1  0  0  0  0
 11 12  1  0  0  0  0
 11 13  1  0  0  0  0
 11 14  1  0  0  0  0
  9 10  1  0  0  0  0
  9 11  1  0  0  0  0
  9 25  1  0  0  0  0
  7  8  1  0  0  0  0
  7  9  1  0  0  0  0
 29 30  1  0  0  0  0
 29 31  1  0  0  0  0
 29 32  1  0  0  0  0
 27 28  1  0  0  0  0
 27 29  1  0  0  0  0
M  END
$$$$
default_name
  -OEChem-02102213163D

 32 32  0     1  0  0  0  0  0999 V2000
   -3.8405   -3.7518    1.6252 H   0  0  0  0  0  0  0  0  0  0  0  0
   -3.7965   -2.8768    0.9782 C   0  0  0  0  0  0  0  0  0  0  0  0
   -4.5465   -2.1527    1.2902 H   0  0  0  0  0  0  0  0  0  0  0  0
   -3.9745   -3.1748   -0.0538 H   0  0  0  0  0  0  0  0  0  0  0  0
   -2.4245   -2.2537    1.0882 C   0  0  0  0  0  0  0  0  0  0  0  0
   -1.5805   -2.7478    1.8242 O   0  0  0  0  0  0  0  0  0  0  0  0
   -2.2045   -1.1637    0.3562 N   0  0  0  0  0  0  0  0  0  0  0  0
   -2.9595   -0.7907   -0.2008 H   0  0  0  0  0  0  0  0  0  0  0  0
   -0.9485   -0.4087    0.3482 C   0  0  1  0  0  0  0  0  0  0  0  0
   -0.3666   -0.6914    1.2269 H   0  0  0  0  0  0  0  0  0  0  0  0
   -0.1405   -0.7797   -0.9072 C   0  0  0  0  0  0  0  0  0  0  0  0
    0.6567   -0.0480   -1.0455 H   0  0  0  0  0  0  0  0  0  0  0  0
    0.3303   -1.7513   -0.7505 H   0  0  0  0  0  0  0  0  0  0  0  0
   -0.9653   -0.8225   -2.1794 C   0  0  0  0  0  0  0  0  0  0  0  0
   -0.8669    0.2128   -3.1284 C   0  0  0  0  0  0  0  0  0  0  0  0
   -0.2182    1.0576   -2.9447 H   0  0  0  0  0  0  0  0  0  0  0  0
   -1.6040    0.1457   -4.3251 C   0  0  0  0  0  0  0  0  0  0  0  0
   -1.5290    0.9429   -5.0512 H   0  0  0  0  0  0  0  0  0  0  0  0
   -2.4388   -0.9565   -4.5758 C   0  0  0  0  0  0  0  0  0  0  0  0
   -3.0069   -1.0068   -5.4942 H   0  0  0  0  0  0  0  0  0  0  0  0
   -2.5406   -1.9919   -3.6290 C   0  0  0  0  0  0  0  0  0  0  0  0
   -3.1864   -2.8366   -3.8192 H   0  0  0  0  0  0  0  0  0  0  0  0
   -1.8064   -1.9231   -2.4317 C   0  0  0  0  0  0  0  0  0  0  0  0
   -1.8881   -2.7187   -1.7026 H   0  0  0  0  0  0  0  0  0  0  0  0
   -1.2168    1.1047    0.4313 C   0  0  0  0  0  0  0  0  0  0  0  0
   -2.0890    1.6186   -0.2704 O   0  0  0  0  0  0  0  0  0  0  0  0
   -0.4674    1.8182    1.2813 N   0  0  0  0  0  0  0  0  0  0  0  0
    0.2640    1.3348    1.7800 H   0  0  0  0  0  0  0  0  0  0  0  0
   -0.5889    3.2615    1.4722 C   0  0  0  0  0  0  0  0  0  0  0  0
   -1.6291    3.5206    1.6805 H   0  0  0  0  0  0  0  0  0  0  0  0
    0.0359    3.5855    2.3049 H   0  0  0  0  0  0  0  0  0  0  0  0
   -0.2760    3.7797    0.5637 H   0  0  0  0  0  0  0  0  0  0  0  0
  5  6  2  0  0  0  0
  5  7  1  0  0  0  0
  2  3  1  0  0  0  0
  2  4  1  0  0  0  0
  2  5  1  0  0  0  0
  1  2  1  0  0  0  0
 25 26  2  0  0  0  0
 25 27  1  0  0  0  0
 23 24  1  0  0  0  0
 21 22  1  0  0  0  0
 21 23  2  0  0  0  0
 19 20  1  0  0  0  0
 19 21  1  0  0  0  0
 17 18  1  0  0  0  0
 17 19  2  0  0  0  0
 15 16  1  0  0  0  0
 15 17  1  0  0  0  0
 14 15  2  0  0  0  0
 14 23  1  0  0  0  0
 11 12  1  0  0  0  0
 11 13  1  0  0  0  0
 11 14  1  0  0  0  0
  9 10  1  0  0  0  0
  9 11  1  0  0  0  0
  9 25  1  0  0  0  0
  7  8  1  0  0  0  0
  7  9  1  0  0  0  0
 29 30  1  0  0  0  0
 29 31  1  0  0  0  0
 29 32  1  0  0  0  0
 27 28  1  0  0  0  0
 27 29  1  0  0  0  0
M  END
$$$$
default_name
  -OEChem-02102213163D

 32 32  0     1  0  0  0  0  0999 V2000
   -3.8405   -3.7518    1.6252 H   0  0  0  0  0  0  0  0  0  0  0  0
   -3.7965   -2.8768    0.9782 C   0  0  0  0  0  0  0  0  0  0  0  0
   -4.5465   -2.1527    1.2902 H   0  0  0  0  0  0  0  0  0  0  0  0
   -3.9745   -3.1748   -0.0538 H   0  0  0  0  0  0  0  0  0  0  0  0
   -2.4245   -2.2537    1.0882 C   0  0  0  0  0  0  0  0  0  0  0  0
   -1.5805   -2.7478    1.8242 O   0  0  0  0  0  0  0  0  0  0  0  0
   -2.2045   -1.1637    0.3562 N   0  0  0  0  0  0  0  0  0  0  0  0
   -2.9595   -0.7907   -0.2008 H   0  0  0  0  0  0  0  0  0  0  0  0
   -0.9485   -0.4087    0.3482 C   0  0  1  0  0  0  0  0  0  0  0  0
   -0.3666   -0.6914    1.2269 H   0  0  0  0  0  0  0  0  0  0  0  0
   -0.1405   -0.7797   -0.9072 C   0  0  0  0  0  0  0  0  0  0  0  0
    0.6567   -0.0480   -1.0455 H   0  0  0  0  0  0  0  0  0  0  0  0
    0.3303   -1.7513   -0.7505 H   0  0  0  0  0  0  0  0  0  0  0  0
   -0.9653   -0.8225   -2.1794 C   0  0  0  0  0  0  0  0  0  0  0  0
   -0.6518    0.0219   -3.2614 C   0  0  0  0  0  0  0  0  0  0  0  0
    0.1666    0.7235   -3.1830 H   0  0  0  0  0  0  0  0  0  0  0  0
   -1.3957   -0.0526   -4.4535 C   0  0  0  0  0  0  0  0  0  0  0  0
   -1.1550    0.5984   -5.2821 H   0  0  0  0  0  0  0  0  0  0  0  0
   -2.4524   -0.9720   -4.5665 C   0  0  0  0  0  0  0  0  0  0  0  0
   -3.0254   -1.0276   -5.4815 H   0  0  0  0  0  0  0  0  0  0  0  0
   -2.7693   -1.8161   -3.4867 C   0  0  0  0  0  0  0  0  0  0  0  0
   -3.5849   -2.5191   -3.5715 H   0  0  0  0  0  0  0  0  0  0  0  0
   -2.0278   -1.7392   -2.2944 C   0  0  0  0  0  0  0  0  0  0  0  0
   -2.2747   -2.3868   -1.4632 H   0  0  0  0  0  0  0  0  0  0  0  0
   -1.2168    1.1047    0.4313 C   0  0  0  0  0  0  0  0  0  0  0  0
   -2.0890    1.6186   -0.2704 O   0  0  0  0  0  0  0  0  0  0  0  0
   -0.4674    1.8182    1.2813 N   0  0  0  0  0  0  0  0  0  0  0  0
    0.2640    1.3348    1.7800 H   0  0  0  0  0  0  0  0  0  0  0  0
   -0.5889    3.2615    1.4722 C   0  0  0  0  0  0  0  0  0  0  0  0
   -1.6291    3.5206    1.6805 H   0  0  0  0  0  0  0  0  0  0  0  0
    0.0359    3.5855    2.3049 H   0  0  0  0  0  0  0  0  0  0  0  0
   -0.2760    3.7797    0.5637 H   0  0  0  0  0  0  0  0  0  0  0  0
  5  6  2  0  0  0  0
  5  7  1  0  0  0  0
  2  3  1  0  0  0  0
  2  4  1  0  0  0  0
  2  5  1  0  0  0  0
  1  2  1  0  0  0  0
 25 26  2  0  0  0  0
 25 27  1  0  0  0  0
 23 24  1  0  0  0  0
 21 22  1  0  0  0  0
 21 23  2  0  0  0  0
 19 20  1  0  0  0  0
 19 21  1  0  0  0  0
 17 18  1  0  0  0  0
 17 19  2  0  0  0  0
 15 16  1  0  0  0  0
 15 17  1  0  0  0  0
 14 15  2  0  0  0  0
 14 23  1  0  0  0  0
 11 12  1  0  0  0  0
 11 13  1  0  0  0  0
 11 14  1  0  0  0  0
  9 10  1  0  0  0  0
  9 11  1  0  0  0  0
  9 25  1  0  0  0  0
  7  8  1  0  0  0  0
  7  9  1  0  0  0  0
 29 30  1  0  0  0  0
 29 31  1  0  0  0  0
 29 32  1  0  0  0  0
 27 28  1  0  0  0  0
 27 29  1  0  0  0  0
M  END
$$$$
default_name
  -OEChem-02102213163D

 32 32  0     1  0  0  0  0  0999 V2000
   -3.8405   -3.7518    1.6252 H   0  0  0  0  0  0  0  0  0  0  0  0
   -3.7965   -2.8768    0.9782 C   0  0  0  0  0  0  0  0  0  0  0  0
   -4.5465   -2.1527    1.2902 H   0  0  0  0  0  0  0  0  0  0  0  0
   -3.9745   -3.1748   -0.0538 H   0  0  0  0  0  0  0  0  0  0  0  0
   -2.4245   -2.2537    1.0882 C   0  0  0  0  0  0  0  0  0  0  0  0
   -1.5805   -2.7478    1.8242 O   0  0  0  0  0  0  0  0  0  0  0  0
   -2.2045   -1.1637    0.3562 N   0  0  0  0  0  0  0  0  0  0  0  0
   -2.9595   -0.7907   -0.2008 H   0  0  0  0  0  0  0  0  0  0  0  0
   -0.9485   -0.4087    0.3482 C   0  0  1  0  0  0  0  0  0  0  0  0
   -0.3666   -0.6914    1.2269 H   0  0  0  0  0  0  0  0  0  0  0  0
   -0.1405   -0.7797   -0.9072 C   0  0  0  0  0  0  0  0  0  0  0  0
    0.6567   -0.0480   -1.0455 H   0  0  0  0  0  0  0  0  0  0  0  0
    0.3303   -1.7513   -0.7505 H   0  0  0  0  0  0  0  0  0  0  0  0
   -0.9653   -0.8225   -2.1794 C   0  0  0  0  0  0  0  0  0  0  0  0
   -0.4845   -0.2279   -3.3615 C   0  0  0  0  0  0  0  0  0  0  0  0
    0.4676    0.2837   -3.3633 H   0  0  0  0  0  0  0  0  0  0  0  0
   -1.2366   -0.3075   -4.5481 C   0  0  0  0  0  0  0  0  0  0  0  0
   -0.8668    0.1519   -5.4540 H   0  0  0  0  0  0  0  0  0  0  0  0
   -2.4689   -0.9828   -4.5555 C   0  0  0  0  0  0  0  0  0  0  0  0
   -3.0478   -1.0418   -5.4665 H   0  0  0  0  0  0  0  0  0  0  0  0
   -2.9530   -1.5767   -3.3756 C   0  0  0  0  0  0  0  0  0  0  0  0
   -3.9027   -2.0911   -3.3798 H   0  0  0  0  0  0  0  0  0  0  0  0
   -2.2027   -1.4941   -2.1892 C   0  0  0  0  0  0  0  0  0  0  0  0
   -2.5778   -1.9486   -1.2814 H   0  0  0  0  0  0  0  0  0  0  0  0
   -1.2168    1.1047    0.4313 C   0  0  0  0  0  0  0  0  0  0  0  0
   -2.0890    1.6186   -0.2704 O   0  0  0  0  0  0  0  0  0  0  0  0
   -0.4674    1.8182    1.2813 N   0  0  0  0  0  0  0  0  0  0  0  0
    0.2640    1.3348    1.7800 H   0  0  0  0  0  0  0  0  0  0  0  0
   -0.5889    3.2615    1.4722 C   0  0  0  0  0  0  0  0  0  0  0  0
   -1.6291    3.5206    1.6805 H   0  0  0  0  0  0  0  0  0  0  0  0
    0.0359    3.5855    2.3049 H   0  0  0  0  0  0  0  0  0  0  0  0
   -0.2760    3.7797    0.5637 H   0  0  0  0  0  0  0  0  0  0  0  0
  5  6  2  0  0  0  0
  5  7  1  0  0  0  0
  2  3  1  0  0  0  0
  2  4  1  0  0  0  0
  2  5  1  0  0  0  0
  1  2  1  0  0  0  0
 25 26  2  0  0  0  0
 25 27  1  0  0  0  0
 23 24  1  0  0  0  0
 21 22  1  0  0  0  0
 21 23  2  0  0  0  0
 19 20  1  0  0  0  0
 19 21  1  0  0  0  0
 17 18  1  0  0  0  0
 17 19  2  0  0  0  0
 15 16  1  0  0  0  0
 15 17  1  0  0  0  0
 14 15  2  0  0  0  0
 14 23  1  0  0  0  0
 11 12  1  0  0  0  0
 11 13  1  0  0  0  0
 11 14  1  0  0  0  0
  9 10  1  0  0  0  0
  9 11  1  0  0  0  0
  9 25  1  0  0  0  0
  7  8  1  0  0  0  0
  7  9  1  0  0  0  0
 29 30  1  0  0  0  0
 29 31  1  0  0  0  0
 29 32  1  0  0  0  0
 27 28  1  0  0  0  0
 27 29  1  0  0  0  0
M  END
$$$$
default_name
  -OEChem-02102213163D

 32 32  0     1  0  0  0  0  0999 V2000
   -3.8405   -3.7518    1.6252 H   0  0  0  0  0  0  0  0  0  0  0  0
   -3.7965   -2.8768    0.9782 C   0  0  0  0  0  0  0  0  0  0  0  0
   -4.5465   -2.1527    1.2902 H   0  0  0  0  0  0  0  0  0  0  0  0
   -3.9745   -3.1748   -0.0538 H   0  0  0  0  0  0  0  0  0  0  0  0
   -2.4245   -2.2537    1.0882 C   0  0  0  0  0  0  0  0  0  0  0  0
   -1.5805   -2.7478    1.8242 O   0  0  0  0  0  0  0  0  0  0  0  0
   -2.2045   -1.1637    0.3562 N   0  0  0  0  0  0  0  0  0  0  0  0
   -2.9595   -0.7907   -0.2008 H   0  0  0  0  0  0  0  0  0  0  0  0
   -0.9485   -0.4087    0.3482 C   0  0  1  0  0  0  0  0  0  0  0  0
   -0.3666   -0.6914    1.2269 H   0  0  0  0  0  0  0  0  0  0  0  0
   -0.1405   -0.7797   -0.9072 C   0  0  0  0  0  0  0  0  0  0  0  0
    0.6567   -0.0480   -1.0455 H   0  0  0  0  0  0  0  0  0  0  0  0
    0.3303   -1.7513   -0.7505 H   0  0  0  0  0  0  0  0  0  0  0  0
   -0.9653   -0.8225   -2.1794 C   0  0  0  0  0  0  0  0  0  0  0  0
   -0.3764   -0.5196   -3.4218 C   0  0  0  0  0  0  0  0  0  0  0  0
    0.6642   -0.2319   -3.4734 H   0  0  0  0  0  0  0  0  0  0  0  0
   -1.1376   -0.6015   -4.6024 C   0  0  0  0  0  0  0  0  0  0  0  0
   -0.6841   -0.3661   -5.5550 H   0  0  0  0  0  0  0  0  0  0  0  0
   -2.4873   -0.9880   -4.5434 C   0  0  0  0  0  0  0  0  0  0  0  0
   -3.0727   -1.0486   -5.4502 H   0  0  0  0  0  0  0  0  0  0  0  0
   -3.0793   -1.2899   -3.3034 C   0  0  0  0  0  0  0  0  0  0  0  0
   -4.1182   -1.5817   -3.2573 H   0  0  0  0  0  0  0  0  0  0  0  0
   -2.3193   -1.2047   -2.1234 C   0  0  0  0  0  0  0  0  0  0  0  0
   -2.7767   -1.4339   -1.1697 H   0  0  0  0  0  0  0  0  0  0  0  0
   -1.2168    1.1047    0.4313 C   0  0  0  0  0  0  0  0  0  0  0  0
   -2.0890    1.6186   -0.2704 O   0  0  0  0  0  0  0  0  0  0  0  0
   -0.4674    1.8182    1.2813 N   0  0  0  0  0  0  0  0  0  0  0  0
    0.2640    1.3348    1.7800 H   0  0  0  0  0  0  0  0  0  0  0  0
   -0.5889    3.2615    1.4722 C   0  0  0  0  0  0  0  0  0  0  0  0
   -1.6291    3.5206    1.6805 H   0  0  0  0  0  0  0  0  0  0  0  0
    0.0359    3.5855    2.3049 H   0  0  0  0  0  0  0  0  0  0  0  0
   -0.2760    3.7797    0.5637 H   0  0  0  0  0  0  0  0  0  0  0  0
  5  6  2  0  0  0  0
  5  7  1  0  0  0  0
  2  3  1  0  0  0  0
  2  4  1  0  0  0  0
  2  5  1  0  0  0  0
  1  2  1  0  0  0  0
 25 26  2  0  0  0  0
 25 27  1  0  0  0  0
 23 24  1  0  0  0  0
 21 22  1  0  0  0  0
 21 23  2  0  0  0  0
 19 20  1  0  0  0  0
 19 21  1  0  0  0  0
 17 18  1  0  0  0  0
 17 19  2  0  0  0  0
 15 16  1  0  0  0  0
 15 17  1  0  0  0  0
 14 15  2  0  0  0  0
 14 23  1  0  0  0  0
 11 12  1  0  0  0  0
 11 13  1  0  0  0  0
 11 14  1  0  0  0  0
  9 10  1  0  0  0  0
  9 11  1  0  0  0  0
  9 25  1  0  0  0  0
  7  8  1  0  0  0  0
  7  9  1  0  0  0  0
 29 30  1  0  0  0  0
 29 31  1  0  0  0  0
 29 32  1  0  0  0  0
 27 28  1  0  0  0  0
 27 29  1  0  0  0  0
M  END
$$$$
default_name
  -OEChem-02102213163D

 32 32  0     1  0  0  0  0  0999 V2000
   -3.8405   -3.7518    1.6252 H   0  0  0  0  0  0  0  0  0  0  0  0
   -3.7965   -2.8768    0.9782 C   0  0  0  0  0  0  0  0  0  0  0  0
   -4.5465   -2.1527    1.2902 H   0  0  0  0  0  0  0  0  0  0  0  0
   -3.9745   -3.1748   -0.0538 H   0  0  0  0  0  0  0  0  0  0  0  0
   -2.4245   -2.2537    1.0882 C   0  0  0  0  0  0  0  0  0  0  0  0
   -1.5805   -2.7478    1.8242 O   0  0  0  0  0  0  0  0  0  0  0  0
   -2.2045   -1.1637    0.3562 N   0  0  0  0  0  0  0  0  0  0  0  0
   -2.9595   -0.7907   -0.2008 H   0  0  0  0  0  0  0  0  0  0  0  0
   -0.9485   -0.4087    0.3482 C   0  0  1  0  0  0  0  0  0  0  0  0
   -0.3666   -0.6914    1.2269 H   0  0  0  0  0  0  0  0  0  0  0  0
   -0.1405   -0.7797   -0.9072 C   0  0  0  0  0  0  0  0  0  0  0  0
    0.6567   -0.0480   -1.0455 H   0  0  0  0  0  0  0  0  0  0  0  0
    0.3303   -1.7513   -0.7505 H   0  0  0  0  0  0  0  0  0  0  0  0
   -0.9653   -0.8225   -2.1794 C   0  0  0  0  0  0  0  0  0  0  0  0
   -0.3349   -0.8333   -3.4381 C   0  0  0  0  0  0  0  0  0  0  0  0
    0.7429   -0.7881   -3.5057 H   0  0  0  0  0  0  0  0  0  0  0  0
   -1.1053   -0.9147   -4.6128 C   0  0  0  0  0  0  0  0  0  0  0  0
   -0.6194   -0.9203   -5.5783 H   0  0  0  0  0  0  0  0  0  0  0  0
   -2.5063   -0.9873   -4.5311 C   0  0  0  0  0  0  0  0  0  0  0  0
   -3.0983   -1.0475   -5.4336 H   0  0  0  0  0  0  0  0  0  0  0  0
   -3.1395   -0.9752   -3.2749 C   0  0  0  0  0  0  0  0  0  0  0  0
   -4.2166   -1.0256   -3.2122 H   0  0  0  0  0  0  0  0  0  0  0  0
   -2.3695   -0.8905   -2.1014 C   0  0  0  0  0  0  0  0  0  0  0  0
   -2.8580   -0.8779   -1.1357 H   0  0  0  0  0  0  0  0  0  0  0  0
   -1.2168    1.1047    0.4313 C   0  0  0  0  0  0  0  0  0  0  0  0
   -2.0890    1.6186   -0.2704 O   0  0  0  0  0  0  0  0  0  0  0  0
   -0.4674    1.8182    1.2813 N   0  0  0  0  0  0  0  0  0  0  0  0
    0.2640    1.3348    1.7800 H   0  0  0  0  0  0  0  0  0  0  0  0
   -0.5889    3.2615    1.4722 C   0  0  0  0  0  0  0  0  0  0  0  0
   -1.6291    3.5206    1.6805 H   0  0  0  0  0  0  0  0  0  0  0  0
    0.0359    3.5855    2.3049 H   0  0  0  0  0  0  0  0  0  0  0  0
   -0.2760    3.7797    0.5637 H   0  0  0  0  0  0  0  0  0  0  0  0
  5  6  2  0  0  0  0
  5  7  1  0  0  0  0
  2  3  1  0  0  0  0
  2  4  1  0  0  0  0
  2  5  1  0  0  0  0
  1  2  1  0  0  0  0
 25 26  2  0  0  0  0
 25 27  1  0  0  0  0
 23 24  1  0  0  0  0
 21 22  1  0  0  0  0
 21 23  2  0  0  0  0
 19 20  1  0  0  0  0
 19 21  1  0  0  0  0
 17 18  1  0  0  0  0
 17 19  2  0  0  0  0
 15 16  1  0  0  0  0
 15 17  1  0  0  0  0
 14 15  2  0  0  0  0
 14 23  1  0  0  0  0
 11 12  1  0  0  0  0
 11 13  1  0  0  0  0
 11 14  1  0  0  0  0
  9 10  1  0  0  0  0
  9 11  1  0  0  0  0
  9 25  1  0  0  0  0
  7  8  1  0  0  0  0
  7  9  1  0  0  0  0
 29 30  1  0  0  0  0
 29 31  1  0  0  0  0
 29 32  1  0  0  0  0
 27 28  1  0  0  0  0
 27 29  1  0  0  0  0
M  END
$$$$
default_name
  -OEChem-02102213163D

 32 32  0     1  0  0  0  0  0999 V2000
   -3.8405   -3.7518    1.6252 H   0  0  0  0  0  0  0  0  0  0  0  0
   -3.7965   -2.8768    0.9782 C   0  0  0  0  0  0  0  0  0  0  0  0
   -4.5465   -2.1527    1.2902 H   0  0  0  0  0  0  0  0  0  0  0  0
   -3.9745   -3.1748   -0.0538 H   0  0  0  0  0  0  0  0  0  0  0  0
   -2.4245   -2.2537    1.0882 C   0  0  0  0  0  0  0  0  0  0  0  0
   -1.5805   -2.7478    1.8242 O   0  0  0  0  0  0  0  0  0  0  0  0
   -2.2045   -1.1637    0.3562 N   0  0  0  0  0  0  0  0  0  0  0  0
   -2.9595   -0.7907   -0.2008 H   0  0  0  0  0  0  0  0  0  0  0  0
   -0.9485   -0.4087    0.3482 C   0  0  1  0  0  0  0  0  0  0  0  0
   -0.3666   -0.6914    1.2269 H   0  0  0  0  0  0  0  0  0  0  0  0
   -0.1405   -0.7797   -0.9072 C   0  0  0  0  0  0  0  0  0  0  0  0
    0.7991   -0.2254   -0.9014 H   0  0  0  0  0  0  0  0  0  0  0  0
    0.1056   -1.8419   -0.8683 H   0  0  0  0  0  0  0  0  0  0  0  0
   -0.8558   -0.4789   -2.2105 C   0  0  0  0  0  0  0  0  0  0  0  0
   -0.2407   -0.7645   -3.4441 C   0  0  0  0  0  0  0  0  0  0  0  0
    0.7569   -1.1798   -3.4699 H   0  0  0  0  0  0  0  0  0  0  0  0
   -0.9269   -0.5210   -4.6482 C   0  0  0  0  0  0  0  0  0  0  0  0
   -0.4517   -0.7386   -5.5944 H   0  0  0  0  0  0  0  0  0  0  0  0
   -2.2292    0.0063   -4.6210 C   0  0  0  0  0  0  0  0  0  0  0  0
   -2.7554    0.1955   -5.5461 H   0  0  0  0  0  0  0  0  0  0  0  0
   -2.8462    0.2942   -3.3900 C   0  0  0  0  0  0  0  0  0  0  0  0
   -3.8451    0.7046   -3.3691 H   0  0  0  0  0  0  0  0  0  0  0  0
   -2.1589    0.0539   -2.1870 C   0  0  0  0  0  0  0  0  0  0  0  0
   -2.6334    0.2789   -1.2407 H   0  0  0  0  0  0  0  0  0  0  0  0
   -1.2168    1.1047    0.4313 C   0  0  0  0  0  0  0  0  0  0  0  0
   -2.0890    1.6186   -0.2704 O   0  0  0  0  0  0  0  0  0  0  0  0
   -0.4674    1.8182    1.2813 N   0  0  0  0  0  0  0  0  0  0  0  0
    0.2640    1.3348    1.7800 H   0  0  0  0  0  0  0  0  0  0  0  0
   -0.5889    3.2615    1.4722 C   0  0  0  0  0  0  0  0  0  0  0  0
   -1.6291    3.5206    1.6805 H   0  0  0  0  0  0  0  0  0  0  0  0
    0.0359    3.5855    2.3049 H   0  0  0  0  0  0  0  0  0  0  0  0
   -0.2760    3.7797    0.5637 H   0  0  0  0  0  0  0  0  0  0  0  0
  5  6  2  0  0  0  0
  5  7  1  0  0  0  0
  2  3  1  0  0  0  0
  2  4  1  0  0  0  0
  2  5  1  0  0  0  0
  1  2  1  0  0  0  0
 25 26  2  0  0  0  0
 25 27  1  0  0  0  0
 23 24  1  0  0  0  0
 21 22  1  0  0  0  0
 21 23  2  0  0  0  0
 19 20  1  0  0  0  0
 19 21  1  0  0  0  0
 17 18  1  0  0  0  0
 17 19  2  0  0  0  0
 15 16  1  0  0  0  0
 15 17  1  0  0  0  0
 14 15  2  0  0  0  0
 14 23  1  0  0  0  0
 11 12  1  0  0  0  0
 11 13  1  0  0  0  0
 11 14  1  0  0  0  0
  9 10  1  0  0  0  0
  9 11  1  0  0  0  0
  9 25  1  0  0  0  0
  7  8  1  0  0  0  0
  7  9  1  0  0  0  0
 29 30  1  0  0  0  0
 29 31  1  0  0  0  0
 29 32  1  0  0  0  0
 27 28  1  0  0  0  0
 27 29  1  0  0  0  0
M  END
$$$$
default_name
  -OEChem-02102213163D

 32 32  0     1  0  0  0  0  0999 V2000
   -3.8405   -3.7518    1.6252 H   0  0  0  0  0  0  0  0  0  0  0  0
   -3.7965   -2.8768    0.9782 C   0  0  0  0  0  0  0  0  0  0  0  0
   -4.5465   -2.1527    1.2902 H   0  0  0  0  0  0  0  0  0  0  0  0
   -3.9745   -3.1748   -0.0538 H   0  0  0  0  0  0  0  0  0  0  0  0
   -2.4245   -2.2537    1.0882 C   0  0  0  0  0  0  0  0  0  0  0  0
   -1.5805   -2.7478    1.8242 O   0  0  0  0  0  0  0  0  0  0  0  0
   -2.2045   -1.1637    0.3562 N   0  0  0  0  0  0  0  0  0  0  0  0
   -2.9595   -0.7907   -0.2008 H   0  0  0  0  0  0  0  0  0  0  0  0
   -0.9485   -0.4087    0.3482 C   0  0  1  0  0  0  0  0  0  0  0  0
   -0.3666   -0.6914    1.2269 H   0  0  0  0  0  0  0  0  0  0  0  0
   -0.1405   -0.7797   -0.9072 C   0  0  0  0  0  0  0  0  0  0  0  0
    0.7991   -0.2254   -0.9014 H   0  0  0  0  0  0  0  0  0  0  0  0
    0.1056   -1.8419   -0.8683 H   0  0  0  0  0  0  0  0  0  0  0  0
   -0.8558   -0.4789   -2.2105 C   0  0  0  0  0  0  0  0  0  0  0  0
   -0.3999   -1.0373   -3.4197 C   0  0  0  0  0  0  0  0  0  0  0  0
    0.4785   -1.6671   -3.4296 H   0  0  0  0  0  0  0  0  0  0  0  0
   -1.0930   -0.7870   -4.6184 C   0  0  0  0  0  0  0  0  0  0  0  0
   -0.7398   -1.2147   -5.5462 H   0  0  0  0  0  0  0  0  0  0  0  0
   -2.2434    0.0200   -4.6100 C   0  0  0  0  0  0  0  0  0  0  0  0
   -2.7745    0.2142   -5.5313 H   0  0  0  0  0  0  0  0  0  0  0  0
   -2.7008    0.5808   -3.4036 C   0  0  0  0  0  0  0  0  0  0  0  0
   -3.5820    1.2055   -3.3979 H   0  0  0  0  0  0  0  0  0  0  0  0
   -2.0061    0.3331   -2.2064 C   0  0  0  0  0  0  0  0  0  0  0  0
   -2.3571    0.7678   -1.2796 H   0  0  0  0  0  0  0  0  0  0  0  0
   -1.2168    1.1047    0.4313 C   0  0  0  0  0  0  0  0  0  0  0  0
   -2.0890    1.6186   -0.2704 O   0  0  0  0  0  0  0  0  0  0  0  0
   -0.4674    1.8182    1.2813 N   0  0  0  0  0  0  0  0  0  0  0  0
    0.2640    1.3348    1.7800 H   0  0  0  0  0  0  0  0  0  0  0  0
   -0.5889    3.2615    1.4722 C   0  0  0  0  0  0  0  0  0  0  0  0
   -1.6291    3.5206    1.6805 H   0  0  0  0  0  0  0  0  0  0  0  0
    0.0359    3.5855    2.3049 H   0  0  0  0  0  0  0  0  0  0  0  0
   -0.2760    3.7797    0.5637 H   0  0  0  0  0  0  0  0  0  0  0  0
  5  6  2  0  0  0  0
  5  7  1  0  0  0  0
  2  3  1  0  0  0  0
  2  4  1  0  0  0  0
  2  5  1  0  0  0  0
  1  2  1  0  0  0  0
 25 26  2  0  0  0  0
 25 27  1  0  0  0  0
 23 24  1  0  0  0  0
 21 22  1  0  0  0  0
 21 23  2  0  0  0  0
 19 20  1  0  0  0  0
 19 21  1  0  0  0  0
 17 18  1  0  0  0  0
 17 19  2  0  0  0  0
 15 16  1  0  0  0  0
 15 17  1  0  0  0  0
 14 15  2  0  0  0  0
 14 23  1  0  0  0  0
 11 12  1  0  0  0  0
 11 13  1  0  0  0  0
 11 14  1  0  0  0  0
  9 10  1  0  0  0  0
  9 11  1  0  0  0  0
  9 25  1  0  0  0  0
  7  8  1  0  0  0  0
  7  9  1  0  0  0  0
 29 30  1  0  0  0  0
 29 31  1  0  0  0  0
 29 32  1  0  0  0  0
 27 28  1  0  0  0  0
 27 29  1  0  0  0  0
M  END
$$$$
default_name
  -OEChem-02102213163D

 32 32  0     1  0  0  0  0  0999 V2000
   -3.8405   -3.7518    1.6252 H   0  0  0  0  0  0  0  0  0  0  0  0
   -3.7965   -2.8768    0.9782 C   0  0  0  0  0  0  0  0  0  0  0  0
   -4.5465   -2.1527    1.2902 H   0  0  0  0  0  0  0  0  0  0  0  0
   -3.9745   -3.1748   -0.0538 H   0  0  0  0  0  0  0  0  0  0  0  0
   -2.4245   -2.2537    1.0882 C   0  0  0  0  0  0  0  0  0  0  0  0
   -1.5805   -2.7478    1.8242 O   0  0  0  0  0  0  0  0  0  0  0  0
   -2.2045   -1.1637    0.3562 N   0  0  0  0  0  0  0  0  0  0  0  0
   -2.9595   -0.7907   -0.2008 H   0  0  0  0  0  0  0  0  0  0  0  0
   -0.9485   -0.4087    0.3482 C   0  0  1  0  0  0  0  0  0  0  0  0
   -0.3666   -0.6914    1.2269 H   0  0  0  0  0  0  0  0  0  0  0  0
   -0.1405   -0.7797   -0.9072 C   0  0  0  0  0  0  0  0  0  0  0  0
    0.7991   -0.2254   -0.9014 H   0  0  0  0  0  0  0  0  0  0  0  0
    0.1056   -1.8419   -0.8683 H   0  0  0  0  0  0  0  0  0  0  0  0
   -0.8558   -0.4789   -2.2105 C   0  0  0  0  0  0  0  0  0  0  0  0
   -0.6132   -1.2624   -3.3546 C   0  0  0  0  0  0  0  0  0  0  0  0
    0.1033   -2.0709   -3.3168 H   0  0  0  0  0  0  0  0  0  0  0  0
   -1.3111   -1.0033   -4.5486 C   0  0  0  0  0  0  0  0  0  0  0  0
   -1.1214   -1.6045   -5.4267 H   0  0  0  0  0  0  0  0  0  0  0  0
   -2.2536    0.0377   -4.6003 C   0  0  0  0  0  0  0  0  0  0  0  0
   -2.7881    0.2383   -5.5183 H   0  0  0  0  0  0  0  0  0  0  0  0
   -2.4974    0.8235   -3.4593 C   0  0  0  0  0  0  0  0  0  0  0  0
   -3.2179    1.6272   -3.5004 H   0  0  0  0  0  0  0  0  0  0  0  0
   -1.7973    0.5664   -2.2671 C   0  0  0  0  0  0  0  0  0  0  0  0
   -1.9834    1.1739   -1.3909 H   0  0  0  0  0  0  0  0  0  0  0  0
   -1.2168    1.1047    0.4313 C   0  0  0  0  0  0  0  0  0  0  0  0
   -2.0890    1.6186   -0.2704 O   0  0  0  0  0  0  0  0  0  0  0  0
   -0.4674    1.8182    1.2813 N   0  0  0  0  0  0  0  0  0  0  0  0
    0.2640    1.3348    1.7800 H   0  0  0  0  0  0  0  0  0  0  0  0
   -0.5889    3.2615    1.4722 C   0  0  0  0  0  0  0  0  0  0  0  0
   -1.6291    3.5206    1.6805 H   0  0  0  0  0  0  0  0  0  0  0  0
    0.0359    3.5855    2.3049 H   0  0  0  0  0  0  0  0  0  0  0  0
   -0.2760    3.7797    0.5637 H   0  0  0  0  0  0  0  0  0  0  0  0
  5  6  2  0  0  0  0
  5  7  1  0  0  0  0
  2  3  1  0  0  0  0
  2  4  1  0  0  0  0
  2  5  1  0  0  0  0
  1  2  1  0  0  0  0
 25 26  2  0  0  0  0
 25 27  1  0  0  0  0
 23 24  1  0  0  0  0
 21 22  1  0  0  0  0
 21 23  2  0  0  0  0
 19 20  1  0  0  0  0
 19 21  1  0  0  0  0
 17 18  1  0  0  0  0
 17 19  2  0  0  0  0
 15 16  1  0  0  0  0
 15 17  1  0  0  0  0
 14 15  2  0  0  0  0
 14 23  1  0  0  0  0
 11 12  1  0  0  0  0
 11 13  1  0  0  0  0
 11 14  1  0  0  0  0
  9 10  1  0  0  0  0
  9 11  1  0  0  0  0
  9 25  1  0  0  0  0
  7  8  1  0  0  0  0
  7  9  1  0  0  0  0
 29 30  1  0  0  0  0
 29 31  1  0  0  0  0
 29 32  1  0  0  0  0
 27 28  1  0  0  0  0
 27 29  1  0  0  0  0
M  END
$$$$
default_name
  -OEChem-02102213163D

 32 32  0     1  0  0  0  0  0999 V2000
   -3.8405   -3.7518    1.6252 H   0  0  0  0  0  0  0  0  0  0  0  0
   -3.7965   -2.8768    0.9782 C   0  0  0  0  0  0  0  0  0  0  0  0
   -4.5465   -2.1527    1.2902 H   0  0  0  0  0  0  0  0  0  0  0  0
   -3.9745   -3.1748   -0.0538 H   0  0  0  0  0  0  0  0  0  0  0  0
   -2.4245   -2.2537    1.0882 C   0  0  0  0  0  0  0  0  0  0  0  0
   -1.5805   -2.7478    1.8242 O   0  0  0  0  0  0  0  0  0  0  0  0
   -2.2045   -1.1637    0.3562 N   0  0  0  0  0  0  0  0  0  0  0  0
   -2.9595   -0.7907   -0.2008 H   0  0  0  0  0  0  0  0  0  0  0  0
   -0.9485   -0.4087    0.3482 C   0  0  1  0  0  0  0  0  0  0  0  0
   -0.3666   -0.6914    1.2269 H   0  0  0  0  0  0  0  0  0  0  0  0
   -0.1405   -0.7797   -0.9072 C   0  0  0  0  0  0  0  0  0  0  0  0
    0.7991   -0.2254   -0.9014 H   0  0  0  0  0  0  0  0  0  0  0  0
    0.1056   -1.8419   -0.8683 H   0  0  0  0  0  0  0  0  0  0  0  0
   -0.8558   -0.4789   -2.2105 C   0  0  0  0  0  0  0  0  0  0  0  0
   -0.8659   -1.4245   -3.2533 C   0  0  0  0  0  0  0  0  0  0  0  0
   -0.3432   -2.3637   -3.1394 H   0  0  0  0  0  0  0  0  0  0  0  0
   -1.5663   -1.1552   -4.4436 C   0  0  0  0  0  0  0  0  0  0  0  0
   -1.5706   -1.8817   -5.2441 H   0  0  0  0  0  0  0  0  0  0  0  0
   -2.2590    0.0583   -4.5926 C   0  0  0  0  0  0  0  0  0  0  0  0
   -2.7951    0.2661   -5.5080 H   0  0  0  0  0  0  0  0  0  0  0  0
   -2.2497    1.0060   -3.5531 C   0  0  0  0  0  0  0  0  0  0  0  0
   -2.7776    1.9412   -3.6696 H   0  0  0  0  0  0  0  0  0  0  0  0
   -1.5469    0.7380   -2.3650 C   0  0  0  0  0  0  0  0  0  0  0  0
   -1.5378    1.4694   -1.5673 H   0  0  0  0  0  0  0  0  0  0  0  0
   -1.2168    1.1047    0.4313 C   0  0  0  0  0  0  0  0  0  0  0  0
   -2.0890    1.6186   -0.2704 O   0  0  0  0  0  0  0  0  0  0  0  0
   -0.4674    1.8182    1.2813 N   0  0  0  0  0  0  0  0  0  0  0  0
    0.2640    1.3348    1.7800 H   0  0  0  0  0  0  0  0  0  0  0  0
   -0.5889    3.2615    1.4722 C   0  0  0  0  0  0  0  0  0  0  0  0
   -1.6291    3.5206    1.6805 H   0  0  0  0  0  0  0  0  0  0  0  0
    0.0359    3.5855    2.3049 H   0  0  0  0  0  0  0  0  0  0  0  0
   -0.2760    3.7797    0.5637 H   0  0  0  0  0  0  0  0  0  0  0  0
  5  6  2  0  0  0  0
  5  7  1  0  0  0  0
  2  3  1  0  0  0  0
  2  4  1  0  0  0  0
  2  5  1  0  0  0  0
  1  2  1  0  0  0  0
 25 26  2  0  0  0  0
 25 27  1  0  0  0  0
 23 24  1  0  0  0  0
 21 22  1  0  0  0  0
 21 23  2  0  0  0  0
 19 20  1  0  0  0  0
 19 21  1  0  0  0  0
 17 18  1  0  0  0  0
 17 19  2  0  0  0  0
 15 16  1  0  0  0  0
 15 17  1  0  0  0  0
 14 15  2  0  0  0  0
 14 23  1  0  0  0  0
 11 12  1  0  0  0  0
 11 13  1  0  0  0  0
 11 14  1  0  0  0  0
  9 10  1  0  0  0  0
  9 11  1  0  0  0  0
  9 25  1  0  0  0  0
  7  8  1  0  0  0  0
  7  9  1  0  0  0  0
 29 30  1  0  0  0  0
 29 31  1  0  0  0  0
 29 32  1  0  0  0  0
 27 28  1  0  0  0  0
 27 29  1  0  0  0  0
M  END
$$$$
default_name
  -OEChem-02102213163D

 32 32  0     1  0  0  0  0  0999 V2000
   -3.8405   -3.7518    1.6252 H   0  0  0  0  0  0  0  0  0  0  0  0
   -3.7965   -2.8768    0.9782 C   0  0  0  0  0  0  0  0  0  0  0  0
   -4.5465   -2.1527    1.2902 H   0  0  0  0  0  0  0  0  0  0  0  0
   -3.9745   -3.1748   -0.0538 H   0  0  0  0  0  0  0  0  0  0  0  0
   -2.4245   -2.2537    1.0882 C   0  0  0  0  0  0  0  0  0  0  0  0
   -1.5805   -2.7478    1.8242 O   0  0  0  0  0  0  0  0  0  0  0  0
   -2.2045   -1.1637    0.3562 N   0  0  0  0  0  0  0  0  0  0  0  0
   -2.9595   -0.7907   -0.2008 H   0  0  0  0  0  0  0  0  0  0  0  0
   -0.9485   -0.4087    0.3482 C   0  0  1  0  0  0  0  0  0  0  0  0
   -0.3666   -0.6914    1.2269 H   0  0  0  0  0  0  0  0  0  0  0  0
   -0.1405   -0.7797   -0.9072 C   0  0  0  0  0  0  0  0  0  0  0  0
    0.7991   -0.2254   -0.9014 H   0  0  0  0  0  0  0  0  0  0  0  0
    0.1056   -1.8419   -0.8683 H   0  0  0  0  0  0  0  0  0  0  0  0
   -0.8558   -0.4789   -2.2105 C   0  0  0  0  0  0  0  0  0  0  0  0
   -1.1408   -1.5126   -3.1228 C   0  0  0  0  0  0  0  0  0  0  0  0
   -0.8304   -2.5257   -2.9094 H   0  0  0  0  0  0  0  0  0  0  0  0
   -1.8412   -1.2324   -4.3106 C   0  0  0  0  0  0  0  0  0  0  0  0
   -2.0567   -2.0272   -5.0109 H   0  0  0  0  0  0  0  0  0  0  0  0
   -2.2592    0.0803   -4.5874 C   0  0  0  0  0  0  0  0  0  0  0  0
   -2.7952    0.2958   -5.5011 H   0  0  0  0  0  0  0  0  0  0  0  0
   -1.9748    1.1158   -3.6787 C   0  0  0  0  0  0  0  0  0  0  0  0
   -2.2913    2.1258   -3.8939 H   0  0  0  0  0  0  0  0  0  0  0  0
   -1.2720    0.8361   -2.4932 C   0  0  0  0  0  0  0  0  0  0  0  0
   -1.0508    1.6342   -1.7965 H   0  0  0  0  0  0  0  0  0  0  0  0
   -1.2168    1.1047    0.4313 C   0  0  0  0  0  0  0  0  0  0  0  0
   -2.0890    1.6186   -0.2704 O   0  0  0  0  0  0  0  0  0  0  0  0
   -0.4674    1.8182    1.2813 N   0  0  0  0  0  0  0  0  0  0  0  0
    0.2640    1.3348    1.7800 H   0  0  0  0  0  0  0  0  0  0  0  0
   -0.5889    3.2615    1.4722 C   0  0  0  0  0  0  0  0  0  0  0  0
   -1.6291    3.5206    1.6805 H   0  0  0  0  0  0  0  0  0  0  0  0
    0.0359    3.5855    2.3049 H   0  0  0  0  0  0  0  0  0  0  0  0
   -0.2760    3.7797    0.5637 H   0  0  0  0  0  0  0  0  0  0  0  0
  5  6  2  0  0  0  0
  5  7  1  0  0  0  0
  2  3  1  0  0  0  0
  2  4  1  0  0  0  0
  2  5  1  0  0  0  0
  1  2  1  0  0  0  0
 25 26  2  0  0  0  0
 25 27  1  0  0  0  0
 23 24  1  0  0  0  0
 21 22  1  0  0  0  0
 21 23  2  0  0  0  0
 19 20  1  0  0  0  0
 19 21  1  0  0  0  0
 17 18  1  0  0  0  0
 17 19  2  0  0  0  0
 15 16  1  0  0  0  0
 15 17  1  0  0  0  0
 14 15  2  0  0  0  0
 14 23  1  0  0  0  0
 11 12  1  0  0  0  0
 11 13  1  0  0  0  0
 11 14  1  0  0  0  0
  9 10  1  0  0  0  0
  9 11  1  0  0  0  0
  9 25  1  0  0  0  0
  7  8  1  0  0  0  0
  7  9  1  0  0  0  0
 29 30  1  0  0  0  0
 29 31  1  0  0  0  0
 29 32  1  0  0  0  0
 27 28  1  0  0  0  0
 27 29  1  0  0  0  0
M  END
$$$$
default_name
  -OEChem-02102213163D

 32 32  0     1  0  0  0  0  0999 V2000
   -3.8405   -3.7518    1.6252 H   0  0  0  0  0  0  0  0  0  0  0  0
   -3.7965   -2.8768    0.9782 C   0  0  0  0  0  0  0  0  0  0  0  0
   -4.5465   -2.1527    1.2902 H   0  0  0  0  0  0  0  0  0  0  0  0
   -3.9745   -3.1748   -0.0538 H   0  0  0  0  0  0  0  0  0  0  0  0
   -2.4245   -2.2537    1.0882 C   0  0  0  0  0  0  0  0  0  0  0  0
   -1.5805   -2.7478    1.8242 O   0  0  0  0  0  0  0  0  0  0  0  0
   -2.2045   -1.1637    0.3562 N   0  0  0  0  0  0  0  0  0  0  0  0
   -2.9595   -0.7907   -0.2008 H   0  0  0  0  0  0  0  0  0  0  0  0
   -0.9485   -0.4087    0.3482 C   0  0  1  0  0  0  0  0  0  0  0  0
   -0.3666   -0.6914    1.2269 H   0  0  0  0  0  0  0  0  0  0  0  0
   -0.1405   -0.7797   -0.9072 C   0  0  0  0  0  0  0  0  0  0  0  0
    0.7991   -0.2254   -0.9014 H   0  0  0  0  0  0  0  0  0  0  0  0
    0.1056   -1.8419   -0.8683 H   0  0  0  0  0  0  0  0  0  0  0  0
   -0.8558   -0.4789   -2.2105 C   0  0  0  0  0  0  0  0  0  0  0  0
   -1.4193   -1.5205   -2.9718 C   0  0  0  0  0  0  0  0  0  0  0  0
   -1.3253   -2.5456   -2.6424 H   0  0  0  0  0  0  0  0  0  0  0  0
   -2.1170   -1.2296   -4.1585 C   0  0  0  0  0  0  0  0  0  0  0  0
   -2.5467   -2.0312   -4.7429 H   0  0  0  0  0  0  0  0  0  0  0  0
   -2.2543    0.1022   -4.5851 C   0  0  0  0  0  0  0  0  0  0  0  0
   -2.7884    0.3254   -5.4981 H   0  0  0  0  0  0  0  0  0  0  0  0
   -1.6912    1.1453   -3.8275 C   0  0  0  0  0  0  0  0  0  0  0  0
   -1.7919    2.1687   -4.1581 H   0  0  0  0  0  0  0  0  0  0  0  0
   -0.9911    0.8541   -2.6432 C   0  0  0  0  0  0  0  0  0  0  0  0
   -0.5555    1.6572   -2.0631 H   0  0  0  0  0  0  0  0  0  0  0  0
   -1.2168    1.1047    0.4313 C   0  0  0  0  0  0  0  0  0  0  0  0
   -2.0890    1.6186   -0.2704 O   0  0  0  0  0  0  0  0  0  0  0  0
   -0.4674    1.8182    1.2813 N   0  0  0  0  0  0  0  0  0  0  0  0
    0.2640    1.3348    1.7800 H   0  0  0  0  0  0  0  0  0  0  0  0
   -0.5889    3.2615    1.4722 C   0  0  0  0  0  0  0  0  0  0  0  0
   -1.6291    3.5206    1.6805 H   0  0  0  0  0  0  0  0  0  0  0  0
    0.0359    3.5855    2.3049 H   0  0  0  0  0  0  0  0  0  0  0  0
   -0.2760    3.7797    0.5637 H   0  0  0  0  0  0  0  0  0  0  0  0
  5  6  2  0  0  0  0
  5  7  1  0  0  0  0
  2  3  1  0  0  0  0
  2  4  1  0  0  0  0
  2  5  1  0  0  0  0
  1  2  1  0  0  0  0
 25 26  2  0  0  0  0
 25 27  1  0  0  0  0
 23 24  1  0  0  0  0
 21 22  1  0  0  0  0
 21 23  2  0  0  0  0
 19 20  1  0  0  0  0
 19 21  1  0  0  0  0
 17 18  1  0  0  0  0
 17 19  2  0  0  0  0
 15 16  1  0  0  0  0
 15 17  1  0  0  0  0
 14 15  2  0  0  0  0
 14 23  1  0  0  0  0
 11 12  1  0  0  0  0
 11 13  1  0  0  0  0
 11 14  1  0  0  0  0
  9 10  1  0  0  0  0
  9 11  1  0  0  0  0
  9 25  1  0  0  0  0
  7  8  1  0  0  0  0
  7  9  1  0  0  0  0
 29 30  1  0  0  0  0
 29 31  1  0  0  0  0
 29 32  1  0  0  0  0
 27 28  1  0  0  0  0
 27 29  1  0  0  0  0
M  END
$$$$
default_name
  -OEChem-02102213163D

 32 32  0     1  0  0  0  0  0999 V2000
   -3.8405   -3.7518    1.6252 H   0  0  0  0  0  0  0  0  0  0  0  0
   -3.7965   -2.8768    0.9782 C   0  0  0  0  0  0  0  0  0  0  0  0
   -4.5465   -2.1527    1.2902 H   0  0  0  0  0  0  0  0  0  0  0  0
   -3.9745   -3.1748   -0.0538 H   0  0  0  0  0  0  0  0  0  0  0  0
   -2.4245   -2.2537    1.0882 C   0  0  0  0  0  0  0  0  0  0  0  0
   -1.5805   -2.7478    1.8242 O   0  0  0  0  0  0  0  0  0  0  0  0
   -2.2045   -1.1637    0.3562 N   0  0  0  0  0  0  0  0  0  0  0  0
   -2.9595   -0.7907   -0.2008 H   0  0  0  0  0  0  0  0  0  0  0  0
   -0.9485   -0.4087    0.3482 C   0  0  1  0  0  0  0  0  0  0  0  0
   -0.3666   -0.6914    1.2269 H   0  0  0  0  0  0  0  0  0  0  0  0
   -0.1405   -0.7797   -0.9072 C   0  0  0  0  0  0  0  0  0  0  0  0
    0.7991   -0.2254   -0.9014 H   0  0  0  0  0  0  0  0  0  0  0  0
    0.1056   -1.8419   -0.8683 H   0  0  0  0  0  0  0  0  0  0  0  0
   -0.8558   -0.4789   -2.2105 C   0  0  0  0  0  0  0  0  0  0  0  0
   -1.6822   -1.4478   -2.8107 C   0  0  0  0  0  0  0  0  0  0  0  0
   -1.7940   -2.4223   -2.3567 H   0  0  0  0  0  0  0  0  0  0  0  0
   -2.3751   -1.1470   -3.9978 C   0  0  0  0  0  0  0  0  0  0  0  0
   -3.0071   -1.8933   -4.4584 H   0  0  0  0  0  0  0  0  0  0  0  0
   -2.2445    0.1226   -4.5857 C   0  0  0  0  0  0  0  0  0  0  0  0
   -2.7750    0.3528   -5.4991 H   0  0  0  0  0  0  0  0  0  0  0  0
   -1.4184    1.0926   -3.9894 C   0  0  0  0  0  0  0  0  0  0  0  0
   -1.3136    2.0667   -4.4441 H   0  0  0  0  0  0  0  0  0  0  0  0
   -0.7235    0.7906   -2.8047 C   0  0  0  0  0  0  0  0  0  0  0  0
   -0.0856    1.5366   -2.3488 H   0  0  0  0  0  0  0  0  0  0  0  0
   -1.2168    1.1047    0.4313 C   0  0  0  0  0  0  0  0  0  0  0  0
   -2.0890    1.6186   -0.2704 O   0  0  0  0  0  0  0  0  0  0  0  0
   -0.4674    1.8182    1.2813 N   0  0  0  0  0  0  0  0  0  0  0  0
    0.2640    1.3348    1.7800 H   0  0  0  0  0  0  0  0  0  0  0  0
   -0.5889    3.2615    1.4722 C   0  0  0  0  0  0  0  0  0  0  0  0
   -1.6291    3.5206    1.6805 H   0  0  0  0  0  0  0  0  0  0  0  0
    0.0359    3.5855    2.3049 H   0  0  0  0  0  0  0  0  0  0  0  0
   -0.2760    3.7797    0.5637 H   0  0  0  0  0  0  0  0  0  0  0  0
  5  6  2  0  0  0  0
  5  7  1  0  0  0  0
  2  3  1  0  0  0  0
  2  4  1  0  0  0  0
  2  5  1  0  0  0  0
  1  2  1  0  0  0  0
 25 26  2  0  0  0  0
 25 27  1  0  0  0  0
 23 24  1  0  0  0  0
 21 22  1  0  0  0  0
 21 23  2  0  0  0  0
 19 20  1  0  0  0  0
 19 21  1  0  0  0  0
 17 18  1  0  0  0  0
 17 19  2  0  0  0  0
 15 16  1  0  0  0  0
 15 17  1  0  0  0  0
 14 15  2  0  0  0  0
 14 23  1  0  0  0  0
 11 12  1  0  0  0  0
 11 13  1  0  0  0  0
 11 14  1  0  0  0  0
  9 10  1  0  0  0  0
  9 11  1  0  0  0  0
  9 25  1  0  0  0  0
  7  8  1  0  0  0  0
  7  9  1  0  0  0  0
 29 30  1  0  0  0  0
 29 31  1  0  0  0  0
 29 32  1  0  0  0  0
 27 28  1  0  0  0  0
 27 29  1  0  0  0  0
M  END
$$$$
default_name
  -OEChem-02102213163D

 32 32  0     1  0  0  0  0  0999 V2000
   -3.8405   -3.7518    1.6252 H   0  0  0  0  0  0  0  0  0  0  0  0
   -3.7965   -2.8768    0.9782 C   0  0  0  0  0  0  0  0  0  0  0  0
   -4.5465   -2.1527    1.2902 H   0  0  0  0  0  0  0  0  0  0  0  0
   -3.9745   -3.1748   -0.0538 H   0  0  0  0  0  0  0  0  0  0  0  0
   -2.4245   -2.2537    1.0882 C   0  0  0  0  0  0  0  0  0  0  0  0
   -1.5805   -2.7478    1.8242 O   0  0  0  0  0  0  0  0  0  0  0  0
   -2.2045   -1.1637    0.3562 N   0  0  0  0  0  0  0  0  0  0  0  0
   -2.9595   -0.7907   -0.2008 H   0  0  0  0  0  0  0  0  0  0  0  0
   -0.9485   -0.4087    0.3482 C   0  0  1  0  0  0  0  0  0  0  0  0
   -0.3666   -0.6914    1.2269 H   0  0  0  0  0  0  0  0  0  0  0  0
   -0.1405   -0.7797   -0.9072 C   0  0  0  0  0  0  0  0  0  0  0  0
    0.7991   -0.2254   -0.9014 H   0  0  0  0  0  0  0  0  0  0  0  0
    0.1056   -1.8419   -0.8683 H   0  0  0  0  0  0  0  0  0  0  0  0
   -0.8558   -0.4789   -2.2105 C   0  0  0  0  0  0  0  0  0  0  0  0
   -1.9118   -1.2994   -2.6504 C   0  0  0  0  0  0  0  0  0  0  0  0
   -2.2046   -2.1641   -2.0717 H   0  0  0  0  0  0  0  0  0  0  0  0
   -2.5977   -0.9902   -3.8395 C   0  0  0  0  0  0  0  0  0  0  0  0
   -3.4065   -1.6231   -4.1768 H   0  0  0  0  0  0  0  0  0  0  0  0
   -2.2306    0.1401   -4.5893 C   0  0  0  0  0  0  0  0  0  0  0  0
   -2.7560    0.3762   -5.5041 H   0  0  0  0  0  0  0  0  0  0  0  0
   -1.1749    0.9612   -4.1534 C   0  0  0  0  0  0  0  0  0  0  0  0
   -0.8890    1.8270   -4.7325 H   0  0  0  0  0  0  0  0  0  0  0  0
   -0.4875    0.6501   -2.9667 C   0  0  0  0  0  0  0  0  0  0  0  0
    0.3268    1.2808   -2.6342 H   0  0  0  0  0  0  0  0  0  0  0  0
   -1.2168    1.1047    0.4313 C   0  0  0  0  0  0  0  0  0  0  0  0
   -2.0890    1.6186   -0.2704 O   0  0  0  0  0  0  0  0  0  0  0  0
   -0.4674    1.8182    1.2813 N   0  0  0  0  0  0  0  0  0  0  0  0
    0.2640    1.3348    1.7800 H   0  0  0  0  0  0  0  0  0  0  0  0
   -0.5889    3.2615    1.4722 C   0  0  0  0  0  0  0  0  0  0  0  0
   -1.6291    3.5206    1.6805 H   0  0  0  0  0  0  0  0  0  0  0  0
    0.0359    3.5855    2.3049 H   0  0  0  0  0  0  0  0  0  0  0  0
   -0.2760    3.7797    0.5637 H   0  0  0  0  0  0  0  0  0  0  0  0
  5  6  2  0  0  0  0
  5  7  1  0  0  0  0
  2  3  1  0  0  0  0
  2  4  1  0  0  0  0
  2  5  1  0  0  0  0
  1  2  1  0  0  0  0
 25 26  2  0  0  0  0
 25 27  1  0  0  0  0
 23 24  1  0  0  0  0
 21 22  1  0  0  0  0
 21 23  2  0  0  0  0
 19 20  1  0  0  0  0
 19 21  1  0  0  0  0
 17 18  1  0  0  0  0
 17 19  2  0  0  0  0
 15 16  1  0  0  0  0
 15 17  1  0  0  0  0
 14 15  2  0  0  0  0
 14 23  1  0  0  0  0
 11 12  1  0  0  0  0
 11 13  1  0  0  0  0
 11 14  1  0  0  0  0
  9 10  1  0  0  0  0
  9 11  1  0  0  0  0
  9 25  1  0  0  0  0
  7  8  1  0  0  0  0
  7  9  1  0  0  0  0
 29 30  1  0  0  0  0
 29 31  1  0  0  0  0
 29 32  1  0  0  0  0
 27 28  1  0  0  0  0
 27 29  1  0  0  0  0
M  END
$$$$
default_name
  -OEChem-02102213163D

 32 32  0     1  0  0  0  0  0999 V2000
   -3.8405   -3.7518    1.6252 H   0  0  0  0  0  0  0  0  0  0  0  0
   -3.7965   -2.8768    0.9782 C   0  0  0  0  0  0  0  0  0  0  0  0
   -4.5465   -2.1527    1.2902 H   0  0  0  0  0  0  0  0  0  0  0  0
   -3.9745   -3.1748   -0.0538 H   0  0  0  0  0  0  0  0  0  0  0  0
   -2.4245   -2.2537    1.0882 C   0  0  0  0  0  0  0  0  0  0  0  0
   -1.5805   -2.7478    1.8242 O   0  0  0  0  0  0  0  0  0  0  0  0
   -2.2045   -1.1637    0.3562 N   0  0  0  0  0  0  0  0  0  0  0  0
   -2.9595   -0.7907   -0.2008 H   0  0  0  0  0  0  0  0  0  0  0  0
   -0.9485   -0.4087    0.3482 C   0  0  1  0  0  0  0  0  0  0  0  0
   -0.3666   -0.6914    1.2269 H   0  0  0  0  0  0  0  0  0  0  0  0
   -0.1405   -0.7797   -0.9072 C   0  0  0  0  0  0  0  0  0  0  0  0
    0.7991   -0.2254   -0.9014 H   0  0  0  0  0  0  0  0  0  0  0  0
    0.1056   -1.8419   -0.8683 H   0  0  0  0  0  0  0  0  0  0  0  0
   -0.8558   -0.4789   -2.2105 C   0  0  0  0  0  0  0  0  0  0  0  0
   -2.0924   -1.0855   -2.5020 C   0  0  0  0  0  0  0  0  0  0  0  0
   -2.5293   -1.7885   -1.8068 H   0  0  0  0  0  0  0  0  0  0  0  0
   -2.7697   -0.7700   -3.6942 C   0  0  0  0  0  0  0  0  0  0  0  0
   -3.7178   -1.2388   -3.9173 H   0  0  0  0  0  0  0  0  0  0  0  0
   -2.2134    0.1534   -4.5957 C   0  0  0  0  0  0  0  0  0  0  0  0
   -2.7327    0.3940   -5.5128 H   0  0  0  0  0  0  0  0  0  0  0  0
   -0.9773    0.7602   -4.3082 C   0  0  0  0  0  0  0  0  0  0  0  0
   -0.5469    1.4659   -5.0036 H   0  0  0  0  0  0  0  0  0  0  0  0
   -0.2990    0.4422   -3.1182 C   0  0  0  0  0  0  0  0  0  0  0  0
    0.6536    0.9072   -2.8997 H   0  0  0  0  0  0  0  0  0  0  0  0
   -1.2168    1.1047    0.4313 C   0  0  0  0  0  0  0  0  0  0  0  0
   -2.0890    1.6186   -0.2704 O   0  0  0  0  0  0  0  0  0  0  0  0
   -0.4674    1.8182    1.2813 N   0  0  0  0  0  0  0  0  0  0  0  0
    0.2640    1.3348    1.7800 H   0  0  0  0  0  0  0  0  0  0  0  0
   -0.5889    3.2615    1.4722 C   0  0  0  0  0  0  0  0  0  0  0  0
   -1.6291    3.5206    1.6805 H   0  0  0  0  0  0  0  0  0  0  0  0
    0.0359    3.5855    2.3049 H   0  0  0  0  0  0  0  0  0  0  0  0
   -0.2760    3.7797    0.5637 H   0  0  0  0  0  0  0  0  0  0  0  0
  5  6  2  0  0  0  0
  5  7  1  0  0  0  0
  2  3  1  0  0  0  0
  2  4  1  0  0  0  0
  2  5  1  0  0  0  0
  1  2  1  0  0  0  0
 25 26  2  0  0  0  0
 25 27  1  0  0  0  0
 23 24  1  0  0  0  0
 21 22  1  0  0  0  0
 21 23  2  0  0  0  0
 19 20  1  0  0  0  0
 19 21  1  0  0  0  0
 17 18  1  0  0  0  0
 17 19  2  0  0  0  0
 15 16  1  0  0  0  0
 15 17  1  0  0  0  0
 14 15  2  0  0  0  0
 14 23  1  0  0  0  0
 11 12  1  0  0  0  0
 11 13  1  0  0  0  0
 11 14  1  0  0  0  0
  9 10  1  0  0  0  0
  9 11  1  0  0  0  0
  9 25  1  0  0  0  0
  7  8  1  0  0  0  0
  7  9  1  0  0  0  0
 29 30  1  0  0  0  0
 29 31  1  0  0  0  0
 29 32  1  0  0  0  0
 27 28  1  0  0  0  0
 27 29  1  0  0  0  0
M  END
$$$$
default_name
  -OEChem-02102213163D

 32 32  0     1  0  0  0  0  0999 V2000
   -3.8405   -3.7518    1.6252 H   0  0  0  0  0  0  0  0  0  0  0  0
   -3.7965   -2.8768    0.9782 C   0  0  0  0  0  0  0  0  0  0  0  0
   -4.5465   -2.1527    1.2902 H   0  0  0  0  0  0  0  0  0  0  0  0
   -3.9745   -3.1748   -0.0538 H   0  0  0  0  0  0  0  0  0  0  0  0
   -2.4245   -2.2537    1.0882 C   0  0  0  0  0  0  0  0  0  0  0  0
   -1.5805   -2.7478    1.8242 O   0  0  0  0  0  0  0  0  0  0  0  0
   -2.2045   -1.1637    0.3562 N   0  0  0  0  0  0  0  0  0  0  0  0
   -2.9595   -0.7907   -0.2008 H   0  0  0  0  0  0  0  0  0  0  0  0
   -0.9485   -0.4087    0.3482 C   0  0  1  0  0  0  0  0  0  0  0  0
   -0.3666   -0.6914    1.2269 H   0  0  0  0  0  0  0  0  0  0  0  0
   -0.1405   -0.7797   -0.9072 C   0  0  0  0  0  0  0  0  0  0  0  0
    0.7991   -0.2254   -0.9014 H   0  0  0  0  0  0  0  0  0  0  0  0
    0.1056   -1.8419   -0.8683 H   0  0  0  0  0  0  0  0  0  0  0  0
   -0.8558   -0.4789   -2.2105 C   0  0  0  0  0  0  0  0  0  0  0  0
   -2.2115   -0.8206   -2.3754 C   0  0  0  0  0  0  0  0  0  0  0  0
   -2.7457   -1.3212   -1.5802 H   0  0  0  0  0  0  0  0  0  0  0  0
   -2.8795   -0.5012   -3.5720 C   0  0  0  0  0  0  0  0  0  0  0  0
   -3.9198   -0.7668   -3.6975 H   0  0  0  0  0  0  0  0  0  0  0  0
   -2.1942    0.1616   -4.6043 C   0  0  0  0  0  0  0  0  0  0  0  0
   -2.7068    0.4049   -5.5245 H   0  0  0  0  0  0  0  0  0  0  0  0
   -0.8391    0.5032   -4.4434 C   0  0  0  0  0  0  0  0  0  0  0  0
   -0.3107    1.0078   -5.2389 H   0  0  0  0  0  0  0  0  0  0  0  0
   -0.1710    0.1809   -3.2487 C   0  0  0  0  0  0  0  0  0  0  0  0
    0.8725    0.4412   -3.1275 H   0  0  0  0  0  0  0  0  0  0  0  0
   -1.2168    1.1047    0.4313 C   0  0  0  0  0  0  0  0  0  0  0  0
   -2.0890    1.6186   -0.2704 O   0  0  0  0  0  0  0  0  0  0  0  0
   -0.4674    1.8182    1.2813 N   0  0  0  0  0  0  0  0  0  0  0  0
    0.2640    1.3348    1.7800 H   0  0  0  0  0  0  0  0  0  0  0  0
   -0.5889    3.2615    1.4722 C   0  0  0  0  0  0  0  0  0  0  0  0
   -1.6291    3.5206    1.6805 H   0  0  0  0  0  0  0  0  0  0  0  0
    0.0359    3.5855    2.3049 H   0  0  0  0  0  0  0  0  0  0  0  0
   -0.2760    3.7797    0.5637 H   0  0  0  0  0  0  0  0  0  0  0  0
  5  6  2  0  0  0  0
  5  7  1  0  0  0  0
  2  3  1  0  0  0  0
  2  4  1  0  0  0  0
  2  5  1  0  0  0  0
  1  2  1  0  0  0  0
 25 26  2  0  0  0  0
 25 27  1  0  0  0  0
 23 24  1  0  0  0  0
 21 22  1  0  0  0  0
 21 23  2  0  0  0  0
 19 20  1  0  0  0  0
 19 21  1  0  0  0  0
 17 18  1  0  0  0  0
 17 19  2  0  0  0  0
 15 16  1  0  0  0  0
 15 17  1  0  0  0  0
 14 15  2  0  0  0  0
 14 23  1  0  0  0  0
 11 12  1  0  0  0  0
 11 13  1  0  0  0  0
 11 14  1  0  0  0  0
  9 10  1  0  0  0  0
  9 11  1  0  0  0  0
  9 25  1  0  0  0  0
  7  8  1  0  0  0  0
  7  9  1  0  0  0  0
 29 30  1  0  0  0  0
 29 31  1  0  0  0  0
 29 32  1  0  0  0  0
 27 28  1  0  0  0  0
 27 29  1  0  0  0  0
M  END
$$$$
default_name
  -OEChem-02102213163D

 32 32  0     1  0  0  0  0  0999 V2000
   -3.8405   -3.7518    1.6252 H   0  0  0  0  0  0  0  0  0  0  0  0
   -3.7965   -2.8768    0.9782 C   0  0  0  0  0  0  0  0  0  0  0  0
   -4.5465   -2.1527    1.2902 H   0  0  0  0  0  0  0  0  0  0  0  0
   -3.9745   -3.1748   -0.0538 H   0  0  0  0  0  0  0  0  0  0  0  0
   -2.4245   -2.2537    1.0882 C   0  0  0  0  0  0  0  0  0  0  0  0
   -1.5805   -2.7478    1.8242 O   0  0  0  0  0  0  0  0  0  0  0  0
   -2.2045   -1.1637    0.3562 N   0  0  0  0  0  0  0  0  0  0  0  0
   -2.9595   -0.7907   -0.2008 H   0  0  0  0  0  0  0  0  0  0  0  0
   -0.9485   -0.4087    0.3482 C   0  0  1  0  0  0  0  0  0  0  0  0
   -0.3666   -0.6914    1.2269 H   0  0  0  0  0  0  0  0  0  0  0  0
   -0.1405   -0.7797   -0.9072 C   0  0  0  0  0  0  0  0  0  0  0  0
    0.7991   -0.2254   -0.9014 H   0  0  0  0  0  0  0  0  0  0  0  0
    0.1056   -1.8419   -0.8683 H   0  0  0  0  0  0  0  0  0  0  0  0
   -0.8558   -0.4789   -2.2105 C   0  0  0  0  0  0  0  0  0  0  0  0
   -2.2613   -0.5228   -2.2794 C   0  0  0  0  0  0  0  0  0  0  0  0
   -2.8392   -0.7941   -1.4072 H   0  0  0  0  0  0  0  0  0  0  0  0
   -2.9194   -0.2023   -3.4810 C   0  0  0  0  0  0  0  0  0  0  0  0
   -3.9985   -0.2391   -3.5325 H   0  0  0  0  0  0  0  0  0  0  0  0
   -2.1743    0.1643   -4.6146 C   0  0  0  0  0  0  0  0  0  0  0  0
   -2.6799    0.4082   -5.5385 H   0  0  0  0  0  0  0  0  0  0  0  0
   -0.7697    0.2077   -4.5496 C   0  0  0  0  0  0  0  0  0  0  0  0
   -0.1966    0.4841   -5.4225 H   0  0  0  0  0  0  0  0  0  0  0  0
   -0.1121   -0.1159   -3.3495 C   0  0  0  0  0  0  0  0  0  0  0  0
    0.9687   -0.0853   -3.3018 H   0  0  0  0  0  0  0  0  0  0  0  0
   -1.2168    1.1047    0.4313 C   0  0  0  0  0  0  0  0  0  0  0  0
   -2.0890    1.6186   -0.2704 O   0  0  0  0  0  0  0  0  0  0  0  0
   -0.4674    1.8182    1.2813 N   0  0  0  0  0  0  0  0  0  0  0  0
    0.2640    1.3348    1.7800 H   0  0  0  0  0  0  0  0  0  0  0  0
   -0.5889    3.2615    1.4722 C   0  0  0  0  0  0  0  0  0  0  0  0
   -1.6291    3.5206    1.6805 H   0  0  0  0  0  0  0  0  0  0  0  0
    0.0359    3.5855    2.3049 H   0  0  0  0  0  0  0  0  0  0  0  0
   -0.2760    3.7797    0.5637 H   0  0  0  0  0  0  0  0  0  0  0  0
  5  6  2  0  0  0  0
  5  7  1  0  0  0  0
  2  3  1  0  0  0  0
  2  4  1  0  0  0  0
  2  5  1  0  0  0  0
  1  2  1  0  0  0  0
 25 26  2  0  0  0  0
 25 27  1  0  0  0  0
 23 24  1  0  0  0  0
 21 22  1  0  0  0  0
 21 23  2  0  0  0  0
 19 20  1  0  0  0  0
 19 21  1  0  0  0  0
 17 18  1  0  0  0  0
 17 19  2  0  0  0  0
 15 16  1  0  0  0  0
 15 17  1  0  0  0  0
 14 15  2  0  0  0  0
 14 23  1  0  0  0  0
 11 12  1  0  0  0  0
 11 13  1  0  0  0  0
 11 14  1  0  0  0  0
  9 10  1  0  0  0  0
  9 11  1  0  0  0  0
  9 25  1  0  0  0  0
  7  8  1  0  0  0  0
  7  9  1  0  0  0  0
 29 30  1  0  0  0  0
 29 31  1  0  0  0  0
 29 32  1  0  0  0  0
 27 28  1  0  0  0  0
 27 29  1  0  0  0  0
M  END
$$$$
default_name
  -OEChem-02102213163D

 32 32  0     1  0  0  0  0  0999 V2000
   -3.8405   -3.7518    1.6252 H   0  0  0  0  0  0  0  0  0  0  0  0
   -3.7965   -2.8768    0.9782 C   0  0  0  0  0  0  0  0  0  0  0  0
   -4.5465   -2.1527    1.2902 H   0  0  0  0  0  0  0  0  0  0  0  0
   -3.9745   -3.1748   -0.0538 H   0  0  0  0  0  0  0  0  0  0  0  0
   -2.4245   -2.2537    1.0882 C   0  0  0  0  0  0  0  0  0  0  0  0
   -1.5805   -2.7478    1.8242 O   0  0  0  0  0  0  0  0  0  0  0  0
   -2.2045   -1.1637    0.3562 N   0  0  0  0  0  0  0  0  0  0  0  0
   -2.9595   -0.7907   -0.2008 H   0  0  0  0  0  0  0  0  0  0  0  0
   -0.9485   -0.4087    0.3482 C   0  0  1  0  0  0  0  0  0  0  0  0
   -0.3666   -0.6914    1.2269 H   0  0  0  0  0  0  0  0  0  0  0  0
   -0.1405   -0.7797   -0.9072 C   0  0  0  0  0  0  0  0  0  0  0  0
    0.7991   -0.2254   -0.9014 H   0  0  0  0  0  0  0  0  0  0  0  0
    0.1056   -1.8419   -0.8683 H   0  0  0  0  0  0  0  0  0  0  0  0
   -0.8558   -0.4789   -2.2105 C   0  0  0  0  0  0  0  0  0  0  0  0
   -2.2381   -0.2123   -2.2204 C   0  0  0  0  0  0  0  0  0  0  0  0
   -2.8034   -0.2430   -1.2996 H   0  0  0  0  0  0  0  0  0  0  0  0
   -2.8868    0.1065   -3.4276 C   0  0  0  0  0  0  0  0  0  0  0  0
   -3.9488    0.3083   -3.4334 H   0  0  0  0  0  0  0  0  0  0  0  0
   -2.1550    0.1612   -4.6260 C   0  0  0  0  0  0  0  0  0  0  0  0
   -2.6538    0.4038   -5.5538 H   0  0  0  0  0  0  0  0  0  0  0  0
   -0.7738   -0.1062   -4.6198 C   0  0  0  0  0  0  0  0  0  0  0  0
   -0.2121   -0.0695   -5.5417 H   0  0  0  0  0  0  0  0  0  0  0  0
   -0.1264   -0.4279   -3.4137 C   0  0  0  0  0  0  0  0  0  0  0  0
    0.9355   -0.6367   -3.4108 H   0  0  0  0  0  0  0  0  0  0  0  0
   -1.2168    1.1047    0.4313 C   0  0  0  0  0  0  0  0  0  0  0  0
   -2.0890    1.6186   -0.2704 O   0  0  0  0  0  0  0  0  0  0  0  0
   -0.4674    1.8182    1.2813 N   0  0  0  0  0  0  0  0  0  0  0  0
    0.2640    1.3348    1.7800 H   0  0  0  0  0  0  0  0  0  0  0  0
   -0.5889    3.2615    1.4722 C   0  0  0  0  0  0  0  0  0  0  0  0
   -1.6291    3.5206    1.6805 H   0  0  0  0  0  0  0  0  0  0  0  0
    0.0359    3.5855    2.3049 H   0  0  0  0  0  0  0  0  0  0  0  0
   -0.2760    3.7797    0.5637 H   0  0  0  0  0  0  0  0  0  0  0  0
  5  6  2  0  0  0  0
  5  7  1  0  0  0  0
  2  3  1  0  0  0  0
  2  4  1  0  0  0  0
  2  5  1  0  0  0  0
  1  2  1  0  0  0  0
 25 26  2  0  0  0  0
 25 27  1  0  0  0  0
 23 24  1  0  0  0  0
 21 22  1  0  0  0  0
 21 23  2  0  0  0  0
 19 20  1  0  0  0  0
 19 21  1  0  0  0  0
 17 18  1  0  0  0  0
 17 19  2  0  0  0  0
 15 16  1  0  0  0  0
 15 17  1  0  0  0  0
 14 15  2  0  0  0  0
 14 23  1  0  0  0  0
 11 12  1  0  0  0  0
 11 13  1  0  0  0  0
 11 14  1  0  0  0  0
  9 10  1  0  0  0  0
  9 11  1  0  0  0  0
  9 25  1  0  0  0  0
  7  8  1  0  0  0  0
  7  9  1  0  0  0  0
 29 30  1  0  0  0  0
 29 31  1  0  0  0  0
 29 32  1  0  0  0  0
 27 28  1  0  0  0  0
 27 29  1  0  0  0  0
M  END
$$$$
default_name
  -OEChem-02102213163D

 32 32  0     1  0  0  0  0  0999 V2000
   -3.8405   -3.7518    1.6252 H   0  0  0  0  0  0  0  0  0  0  0  0
   -3.7965   -2.8768    0.9782 C   0  0  0  0  0  0  0  0  0  0  0  0
   -4.5465   -2.1527    1.2902 H   0  0  0  0  0  0  0  0  0  0  0  0
   -3.9745   -3.1748   -0.0538 H   0  0  0  0  0  0  0  0  0  0  0  0
   -2.4245   -2.2537    1.0882 C   0  0  0  0  0  0  0  0  0  0  0  0
   -1.5805   -2.7478    1.8242 O   0  0  0  0  0  0  0  0  0  0  0  0
   -2.2045   -1.1637    0.3562 N   0  0  0  0  0  0  0  0  0  0  0  0
   -2.9595   -0.7907   -0.2008 H   0  0  0  0  0  0  0  0  0  0  0  0
   -0.9485   -0.4087    0.3482 C   0  0  1  0  0  0  0  0  0  0  0  0
   -0.3666   -0.6914    1.2269 H   0  0  0  0  0  0  0  0  0  0  0  0
   -0.1405   -0.7797   -0.9072 C   0  0  0  0  0  0  0  0  0  0  0  0
    0.7991   -0.2254   -0.9014 H   0  0  0  0  0  0  0  0  0  0  0  0
    0.1056   -1.8419   -0.8683 H   0  0  0  0  0  0  0  0  0  0  0  0
   -0.8558   -0.4789   -2.2105 C   0  0  0  0  0  0  0  0  0  0  0  0
   -2.1437    0.0896   -2.2025 C   0  0  0  0  0  0  0  0  0  0  0  0
   -2.6408    0.2945   -1.2649 H   0  0  0  0  0  0  0  0  0  0  0  0
   -2.7840    0.4040   -3.4154 C   0  0  0  0  0  0  0  0  0  0  0  0
   -3.7740    0.8380   -3.4071 H   0  0  0  0  0  0  0  0  0  0  0  0
   -2.1376    0.1525   -4.6375 C   0  0  0  0  0  0  0  0  0  0  0  0
   -2.6305    0.3918   -5.5694 H   0  0  0  0  0  0  0  0  0  0  0  0
   -0.8512   -0.4169   -4.6491 C   0  0  0  0  0  0  0  0  0  0  0  0
   -0.3564   -0.6153   -5.5885 H   0  0  0  0  0  0  0  0  0  0  0  0
   -0.2130   -0.7340   -3.4368 C   0  0  0  0  0  0  0  0  0  0  0  0
    0.7753   -1.1751   -3.4472 H   0  0  0  0  0  0  0  0  0  0  0  0
   -1.2168    1.1047    0.4313 C   0  0  0  0  0  0  0  0  0  0  0  0
   -2.0890    1.6186   -0.2704 O   0  0  0  0  0  0  0  0  0  0  0  0
   -0.4674    1.8182    1.2813 N   0  0  0  0  0  0  0  0  0  0  0  0
    0.2640    1.3348    1.7800 H   0  0  0  0  0  0  0  0  0  0  0  0
   -0.5889    3.2615    1.4722 C   0  0  0  0  0  0  0  0  0  0  0  0
   -1.6291    3.5206    1.6805 H   0  0  0  0  0  0  0  0  0  0  0  0
    0.0359    3.5855    2.3049 H   0  0  0  0  0  0  0  0  0  0  0  0
   -0.2760    3.7797    0.5637 H   0  0  0  0  0  0  0  0  0  0  0  0
  5  6  2  0  0  0  0
  5  7  1  0  0  0  0
  2  3  1  0  0  0  0
  2  4  1  0  0  0  0
  2  5  1  0  0  0  0
  1  2  1  0  0  0  0
 25 26  2  0  0  0  0
 25 27  1  0  0  0  0
 23 24  1  0  0  0  0
 21 22  1  0  0  0  0
 21 23  2  0  0  0  0
 19 20  1  0  0  0  0
 19 21  1  0  0  0  0
 17 18  1  0  0  0  0
 17 19  2  0  0  0  0
 15 16  1  0  0  0  0
 15 17  1  0  0  0  0
 14 15  2  0  0  0  0
 14 23  1  0  0  0  0
 11 12  1  0  0  0  0
 11 13  1  0  0  0  0
 11 14  1  0  0  0  0
  9 10  1  0  0  0  0
  9 11  1  0  0  0  0
  9 25  1  0  0  0  0
  7  8  1  0  0  0  0
  7  9  1  0  0  0  0
 29 30  1  0  0  0  0
 29 31  1  0  0  0  0
 29 32  1  0  0  0  0
 27 28  1  0  0  0  0
 27 29  1  0  0  0  0
M  END
$$$$
default_name
  -OEChem-02102213163D

 32 32  0     1  0  0  0  0  0999 V2000
   -3.8405   -3.7518    1.6252 H   0  0  0  0  0  0  0  0  0  0  0  0
   -3.7965   -2.8768    0.9782 C   0  0  0  0  0  0  0  0  0  0  0  0
   -4.5465   -2.1527    1.2902 H   0  0  0  0  0  0  0  0  0  0  0  0
   -3.9745   -3.1748   -0.0538 H   0  0  0  0  0  0  0  0  0  0  0  0
   -2.4245   -2.2537    1.0882 C   0  0  0  0  0  0  0  0  0  0  0  0
   -1.5805   -2.7478    1.8242 O   0  0  0  0  0  0  0  0  0  0  0  0
   -2.2045   -1.1637    0.3562 N   0  0  0  0  0  0  0  0  0  0  0  0
   -2.9595   -0.7907   -0.2008 H   0  0  0  0  0  0  0  0  0  0  0  0
   -0.9485   -0.4087    0.3482 C   0  0  1  0  0  0  0  0  0  0  0  0
   -0.3666   -0.6914    1.2269 H   0  0  0  0  0  0  0  0  0  0  0  0
   -0.1405   -0.7797   -0.9072 C   0  0  0  0  0  0  0  0  0  0  0  0
    0.7991   -0.2254   -0.9014 H   0  0  0  0  0  0  0  0  0  0  0  0
    0.1056   -1.8419   -0.8683 H   0  0  0  0  0  0  0  0  0  0  0  0
   -0.8558   -0.4789   -2.2105 C   0  0  0  0  0  0  0  0  0  0  0  0
   -1.9845    0.3624   -2.2270 C   0  0  0  0  0  0  0  0  0  0  0  0
   -2.3624    0.7817   -1.3052 H   0  0  0  0  0  0  0  0  0  0  0  0
   -2.6179    0.6699   -3.4452 C   0  0  0  0  0  0  0  0  0  0  0  0
   -3.4859    1.3141   -3.4554 H   0  0  0  0  0  0  0  0  0  0  0  0
   -2.1233    0.1388   -4.6485 C   0  0  0  0  0  0  0  0  0  0  0  0
   -2.6114    0.3731   -5.5842 H   0  0  0  0  0  0  0  0  0  0  0  0
   -0.9966   -0.7035   -4.6354 C   0  0  0  0  0  0  0  0  0  0  0  0
   -0.6196   -1.1162   -5.5596 H   0  0  0  0  0  0  0  0  0  0  0  0
   -0.3658   -1.0132   -3.4174 C   0  0  0  0  0  0  0  0  0  0  0  0
    0.4989   -1.6640   -3.4083 H   0  0  0  0  0  0  0  0  0  0  0  0
   -1.2168    1.1047    0.4313 C   0  0  0  0  0  0  0  0  0  0  0  0
   -2.0890    1.6186   -0.2704 O   0  0  0  0  0  0  0  0  0  0  0  0
   -0.4674    1.8182    1.2813 N   0  0  0  0  0  0  0  0  0  0  0  0
    0.2640    1.3348    1.7800 H   0  0  0  0  0  0  0  0  0  0  0  0
   -0.5889    3.2615    1.4722 C   0  0  0  0  0  0  0  0  0  0  0  0
   -1.6291    3.5206    1.6805 H   0  0  0  0  0  0  0  0  0  0  0  0
    0.0359    3.5855    2.3049 H   0  0  0  0  0  0  0  0  0  0  0  0
   -0.2760    3.7797    0.5637 H   0  0  0  0  0  0  0  0  0  0  0  0
  5  6  2  0  0  0  0
  5  7  1  0  0  0  0
  2  3  1  0  0  0  0
  2  4  1  0  0  0  0
  2  5  1  0  0  0  0
  1  2  1  0  0  0  0
 25 26  2  0  0  0  0
 25 27  1  0  0  0  0
 23 24  1  0  0  0  0
 21 22  1  0  0  0  0
 21 23  2  0  0  0  0
 19 20  1  0  0  0  0
 19 21  1  0  0  0  0
 17 18  1  0  0  0  0
 17 19  2  0  0  0  0
 15 16  1  0  0  0  0
 15 17  1  0  0  0  0
 14 15  2  0  0  0  0
 14 23  1  0  0  0  0
 11 12  1  0  0  0  0
 11 13  1  0  0  0  0
 11 14  1  0  0  0  0
  9 10  1  0  0  0  0
  9 11  1  0  0  0  0
  9 25  1  0  0  0  0
  7  8  1  0  0  0  0
  7  9  1  0  0  0  0
 29 30  1  0  0  0  0
 29 31  1  0  0  0  0
 29 32  1  0  0  0  0
 27 28  1  0  0  0  0
 27 29  1  0  0  0  0
M  END
$$$$
default_name
  -OEChem-02102213163D

 32 32  0     1  0  0  0  0  0999 V2000
   -3.8405   -3.7518    1.6252 H   0  0  0  0  0  0  0  0  0  0  0  0
   -3.7965   -2.8768    0.9782 C   0  0  0  0  0  0  0  0  0  0  0  0
   -4.5465   -2.1527    1.2902 H   0  0  0  0  0  0  0  0  0  0  0  0
   -3.9745   -3.1748   -0.0538 H   0  0  0  0  0  0  0  0  0  0  0  0
   -2.4245   -2.2537    1.0882 C   0  0  0  0  0  0  0  0  0  0  0  0
   -1.5805   -2.7478    1.8242 O   0  0  0  0  0  0  0  0  0  0  0  0
   -2.2045   -1.1637    0.3562 N   0  0  0  0  0  0  0  0  0  0  0  0
   -2.9595   -0.7907   -0.2008 H   0  0  0  0  0  0  0  0  0  0  0  0
   -0.9485   -0.4087    0.3482 C   0  0  1  0  0  0  0  0  0  0  0  0
   -0.3666   -0.6914    1.2269 H   0  0  0  0  0  0  0  0  0  0  0  0
   -0.1405   -0.7797   -0.9072 C   0  0  0  0  0  0  0  0  0  0  0  0
    0.7991   -0.2254   -0.9014 H   0  0  0  0  0  0  0  0  0  0  0  0
    0.1056   -1.8419   -0.8683 H   0  0  0  0  0  0  0  0  0  0  0  0
   -0.8558   -0.4789   -2.2105 C   0  0  0  0  0  0  0  0  0  0  0  0
   -1.7712    0.5876   -2.2921 C   0  0  0  0  0  0  0  0  0  0  0  0
   -1.9872    1.1855   -1.4179 H   0  0  0  0  0  0  0  0  0  0  0  0
   -2.3998    0.8862   -3.5150 C   0  0  0  0  0  0  0  0  0  0  0  0
   -3.1043    1.7039   -3.5748 H   0  0  0  0  0  0  0  0  0  0  0  0
   -2.1131    0.1210   -4.6582 C   0  0  0  0  0  0  0  0  0  0  0  0
   -2.5979    0.3491   -5.5972 H   0  0  0  0  0  0  0  0  0  0  0  0
   -1.2000   -0.9463   -4.5798 C   0  0  0  0  0  0  0  0  0  0  0  0
   -0.9837   -1.5380   -5.4571 H   0  0  0  0  0  0  0  0  0  0  0  0
   -0.5745   -1.2466   -3.3567 C   0  0  0  0  0  0  0  0  0  0  0  0
    0.1252   -2.0701   -3.2969 H   0  0  0  0  0  0  0  0  0  0  0  0
   -1.2168    1.1047    0.4313 C   0  0  0  0  0  0  0  0  0  0  0  0
   -2.0890    1.6186   -0.2704 O   0  0  0  0  0  0  0  0  0  0  0  0
   -0.4674    1.8182    1.2813 N   0  0  0  0  0  0  0  0  0  0  0  0
    0.2640    1.3348    1.7800 H   0  0  0  0  0  0  0  0  0  0  0  0
   -0.5889    3.2615    1.4722 C   0  0  0  0  0  0  0  0  0  0  0  0
   -1.6291    3.5206    1.6805 H   0  0  0  0  0  0  0  0  0  0  0  0
    0.0359    3.5855    2.3049 H   0  0  0  0  0  0  0  0  0  0  0  0
   -0.2760    3.7797    0.5637 H   0  0  0  0  0  0  0  0  0  0  0  0
  5  6  2  0  0  0  0
  5  7  1  0  0  0  0
  2  3  1  0  0  0  0
  2  4  1  0  0  0  0
  2  5  1  0  0  0  0
  1  2  1  0  0  0  0
 25 26  2  0  0  0  0
 25 27  1  0  0  0  0
 23 24  1  0  0  0  0
 21 22  1  0  0  0  0
 21 23  2  0  0  0  0
 19 20  1  0  0  0  0
 19 21  1  0  0  0  0
 17 18  1  0  0  0  0
 17 19  2  0  0  0  0
 15 16  1  0  0  0  0
 15 17  1  0  0  0  0
 14 15  2  0  0  0  0
 14 23  1  0  0  0  0
 11 12  1  0  0  0  0
 11 13  1  0  0  0  0
 11 14  1  0  0  0  0
  9 10  1  0  0  0  0
  9 11  1  0  0  0  0
  9 25  1  0  0  0  0
  7  8  1  0  0  0  0
  7  9  1  0  0  0  0
 29 30  1  0  0  0  0
 29 31  1  0  0  0  0
 29 32  1  0  0  0  0
 27 28  1  0  0  0  0
 27 29  1  0  0  0  0
M  END
$$$$
default_name
  -OEChem-02102213163D

 32 32  0     1  0  0  0  0  0999 V2000
   -3.8405   -3.7518    1.6252 H   0  0  0  0  0  0  0  0  0  0  0  0
   -3.7965   -2.8768    0.9782 C   0  0  0  0  0  0  0  0  0  0  0  0
   -4.5465   -2.1527    1.2902 H   0  0  0  0  0  0  0  0  0  0  0  0
   -3.9745   -3.1748   -0.0538 H   0  0  0  0  0  0  0  0  0  0  0  0
   -2.4245   -2.2537    1.0882 C   0  0  0  0  0  0  0  0  0  0  0  0
   -1.5805   -2.7478    1.8242 O   0  0  0  0  0  0  0  0  0  0  0  0
   -2.2045   -1.1637    0.3562 N   0  0  0  0  0  0  0  0  0  0  0  0
   -2.9595   -0.7907   -0.2008 H   0  0  0  0  0  0  0  0  0  0  0  0
   -0.9485   -0.4087    0.3482 C   0  0  1  0  0  0  0  0  0  0  0  0
   -0.3666   -0.6914    1.2269 H   0  0  0  0  0  0  0  0  0  0  0  0
   -0.1405   -0.7797   -0.9072 C   0  0  0  0  0  0  0  0  0  0  0  0
    0.7991   -0.2254   -0.9014 H   0  0  0  0  0  0  0  0  0  0  0  0
    0.1056   -1.8419   -0.8683 H   0  0  0  0  0  0  0  0  0  0  0  0
   -0.8558   -0.4789   -2.2105 C   0  0  0  0  0  0  0  0  0  0  0  0
   -1.5185    0.7497   -2.3933 C   0  0  0  0  0  0  0  0  0  0  0  0
   -1.5407    1.4784   -1.5954 H   0  0  0  0  0  0  0  0  0  0  0  0
   -2.1446    1.0382   -3.6200 C   0  0  0  0  0  0  0  0  0  0  0  0
   -2.6551    1.9811   -3.7574 H   0  0  0  0  0  0  0  0  0  0  0  0
   -2.1077    0.1005   -4.6659 C   0  0  0  0  0  0  0  0  0  0  0  0
   -2.5908    0.3212   -5.6075 H   0  0  0  0  0  0  0  0  0  0  0  0
   -1.4477   -1.1288   -4.4860 C   0  0  0  0  0  0  0  0  0  0  0  0
   -1.4239   -1.8519   -5.2880 H   0  0  0  0  0  0  0  0  0  0  0  0
   -0.8249   -1.4182   -3.2589 C   0  0  0  0  0  0  0  0  0  0  0  0
   -0.3203   -2.3656   -3.1206 H   0  0  0  0  0  0  0  0  0  0  0  0
   -1.2168    1.1047    0.4313 C   0  0  0  0  0  0  0  0  0  0  0  0
   -2.0890    1.6186   -0.2704 O   0  0  0  0  0  0  0  0  0  0  0  0
   -0.4674    1.8182    1.2813 N   0  0  0  0  0  0  0  0  0  0  0  0
    0.2640    1.3348    1.7800 H   0  0  0  0  0  0  0  0  0  0  0  0
   -0.5889    3.2615    1.4722 C   0  0  0  0  0  0  0  0  0  0  0  0
   -1.6291    3.5206    1.6805 H   0  0  0  0  0  0  0  0  0  0  0  0
    0.0359    3.5855    2.3049 H   0  0  0  0  0  0  0  0  0  0  0  0
   -0.2760    3.7797    0.5637 H   0  0  0  0  0  0  0  0  0  0  0  0
  5  6  2  0  0  0  0
  5  7  1  0  0  0  0
  2  3  1  0  0  0  0
  2  4  1  0  0  0  0
  2  5  1  0  0  0  0
  1  2  1  0  0  0  0
 25 26  2  0  0  0  0
 25 27  1  0  0  0  0
 23 24  1  0  0  0  0
 21 22  1  0  0  0  0
 21 23  2  0  0  0  0
 19 20  1  0  0  0  0
 19 21  1  0  0  0  0
 17 18  1  0  0  0  0
 17 19  2  0  0  0  0
 15 16  1  0  0  0  0
 15 17  1  0  0  0  0
 14 15  2  0  0  0  0
 14 23  1  0  0  0  0
 11 12  1  0  0  0  0
 11 13  1  0  0  0  0
 11 14  1  0  0  0  0
  9 10  1  0  0  0  0
  9 11  1  0  0  0  0
  9 25  1  0  0  0  0
  7  8  1  0  0  0  0
  7  9  1  0  0  0  0
 29 30  1  0  0  0  0
 29 31  1  0  0  0  0
 29 32  1  0  0  0  0
 27 28  1  0  0  0  0
 27 29  1  0  0  0  0
M  END
$$$$
default_name
  -OEChem-02102213163D

 32 32  0     1  0  0  0  0  0999 V2000
   -3.8405   -3.7518    1.6252 H   0  0  0  0  0  0  0  0  0  0  0  0
   -3.7965   -2.8768    0.9782 C   0  0  0  0  0  0  0  0  0  0  0  0
   -4.5465   -2.1527    1.2902 H   0  0  0  0  0  0  0  0  0  0  0  0
   -3.9745   -3.1748   -0.0538 H   0  0  0  0  0  0  0  0  0  0  0  0
   -2.4245   -2.2537    1.0882 C   0  0  0  0  0  0  0  0  0  0  0  0
   -1.5805   -2.7478    1.8242 O   0  0  0  0  0  0  0  0  0  0  0  0
   -2.2045   -1.1637    0.3562 N   0  0  0  0  0  0  0  0  0  0  0  0
   -2.9595   -0.7907   -0.2008 H   0  0  0  0  0  0  0  0  0  0  0  0
   -0.9485   -0.4087    0.3482 C   0  0  1  0  0  0  0  0  0  0  0  0
   -0.3666   -0.6914    1.2269 H   0  0  0  0  0  0  0  0  0  0  0  0
   -0.1405   -0.7797   -0.9072 C   0  0  0  0  0  0  0  0  0  0  0  0
    0.7991   -0.2254   -0.9014 H   0  0  0  0  0  0  0  0  0  0  0  0
    0.1056   -1.8419   -0.8683 H   0  0  0  0  0  0  0  0  0  0  0  0
   -0.8558   -0.4789   -2.2105 C   0  0  0  0  0  0  0  0  0  0  0  0
   -1.2436    0.8377   -2.5239 C   0  0  0  0  0  0  0  0  0  0  0  0
   -1.0535    1.6403   -1.8254 H   0  0  0  0  0  0  0  0  0  0  0  0
   -1.8697    1.1154   -3.7530 C   0  0  0  0  0  0  0  0  0  0  0  0
   -2.1690    2.1266   -3.9906 H   0  0  0  0  0  0  0  0  0  0  0  0
   -2.1075    0.0785   -4.6711 C   0  0  0  0  0  0  0  0  0  0  0  0
   -2.5907    0.2915   -5.6144 H   0  0  0  0  0  0  0  0  0  0  0  0
   -1.7227   -1.2385   -4.3604 C   0  0  0  0  0  0  0  0  0  0  0  0
   -1.9103   -2.0366   -5.0637 H   0  0  0  0  0  0  0  0  0  0  0  0
   -1.0999   -1.5163   -3.1306 C   0  0  0  0  0  0  0  0  0  0  0  0
   -0.8073   -2.5304   -2.8913 H   0  0  0  0  0  0  0  0  0  0  0  0
   -1.2168    1.1047    0.4313 C   0  0  0  0  0  0  0  0  0  0  0  0
   -2.0890    1.6186   -0.2704 O   0  0  0  0  0  0  0  0  0  0  0  0
   -0.4674    1.8182    1.2813 N   0  0  0  0  0  0  0  0  0  0  0  0
    0.2640    1.3348    1.7800 H   0  0  0  0  0  0  0  0  0  0  0  0
   -0.5889    3.2615    1.4722 C   0  0  0  0  0  0  0  0  0  0  0  0
   -1.6291    3.5206    1.6805 H   0  0  0  0  0  0  0  0  0  0  0  0
    0.0359    3.5855    2.3049 H   0  0  0  0  0  0  0  0  0  0  0  0
   -0.2760    3.7797    0.5637 H   0  0  0  0  0  0  0  0  0  0  0  0
  5  6  2  0  0  0  0
  5  7  1  0  0  0  0
  2  3  1  0  0  0  0
  2  4  1  0  0  0  0
  2  5  1  0  0  0  0
  1  2  1  0  0  0  0
 25 26  2  0  0  0  0
 25 27  1  0  0  0  0
 23 24  1  0  0  0  0
 21 22  1  0  0  0  0
 21 23  2  0  0  0  0
 19 20  1  0  0  0  0
 19 21  1  0  0  0  0
 17 18  1  0  0  0  0
 17 19  2  0  0  0  0
 15 16  1  0  0  0  0
 15 17  1  0  0  0  0
 14 15  2  0  0  0  0
 14 23  1  0  0  0  0
 11 12  1  0  0  0  0
 11 13  1  0  0  0  0
 11 14  1  0  0  0  0
  9 10  1  0  0  0  0
  9 11  1  0  0  0  0
  9 25  1  0  0  0  0
  7  8  1  0  0  0  0
  7  9  1  0  0  0  0
 29 30  1  0  0  0  0
 29 31  1  0  0  0  0
 29 32  1  0  0  0  0
 27 28  1  0  0  0  0
 27 29  1  0  0  0  0
M  END
$$$$
default_name
  -OEChem-02102213163D

 32 32  0     1  0  0  0  0  0999 V2000
   -3.8405   -3.7518    1.6252 H   0  0  0  0  0  0  0  0  0  0  0  0
   -3.7965   -2.8768    0.9782 C   0  0  0  0  0  0  0  0  0  0  0  0
   -4.5465   -2.1527    1.2902 H   0  0  0  0  0  0  0  0  0  0  0  0
   -3.9745   -3.1748   -0.0538 H   0  0  0  0  0  0  0  0  0  0  0  0
   -2.4245   -2.2537    1.0882 C   0  0  0  0  0  0  0  0  0  0  0  0
   -1.5805   -2.7478    1.8242 O   0  0  0  0  0  0  0  0  0  0  0  0
   -2.2045   -1.1637    0.3562 N   0  0  0  0  0  0  0  0  0  0  0  0
   -2.9595   -0.7907   -0.2008 H   0  0  0  0  0  0  0  0  0  0  0  0
   -0.9485   -0.4087    0.3482 C   0  0  1  0  0  0  0  0  0  0  0  0
   -0.3666   -0.6914    1.2269 H   0  0  0  0  0  0  0  0  0  0  0  0
   -0.1405   -0.7797   -0.9072 C   0  0  0  0  0  0  0  0  0  0  0  0
    0.7991   -0.2254   -0.9014 H   0  0  0  0  0  0  0  0  0  0  0  0
    0.1056   -1.8419   -0.8683 H   0  0  0  0  0  0  0  0  0  0  0  0
   -0.8558   -0.4789   -2.2105 C   0  0  0  0  0  0  0  0  0  0  0  0
   -0.9651    0.8456   -2.6749 C   0  0  0  0  0  0  0  0  0  0  0  0
   -0.5586    1.6603   -2.0924 H   0  0  0  0  0  0  0  0  0  0  0  0
   -1.5939    1.1126   -3.9051 C   0  0  0  0  0  0  0  0  0  0  0  0
   -1.6790    2.1306   -4.2586 H   0  0  0  0  0  0  0  0  0  0  0  0
   -2.1124    0.0565   -4.6735 C   0  0  0  0  0  0  0  0  0  0  0  0
   -2.5976    0.2619   -5.6174 H   0  0  0  0  0  0  0  0  0  0  0  0
   -2.0062   -1.2680   -4.2116 C   0  0  0  0  0  0  0  0  0  0  0  0
   -2.4096   -2.0794   -4.7995 H   0  0  0  0  0  0  0  0  0  0  0  0
   -1.3808   -1.5342   -2.9806 C   0  0  0  0  0  0  0  0  0  0  0  0
   -1.3027   -2.5533   -2.6248 H   0  0  0  0  0  0  0  0  0  0  0  0
   -1.2168    1.1047    0.4313 C   0  0  0  0  0  0  0  0  0  0  0  0
   -2.0890    1.6186   -0.2704 O   0  0  0  0  0  0  0  0  0  0  0  0
   -0.4674    1.8182    1.2813 N   0  0  0  0  0  0  0  0  0  0  0  0
    0.2640    1.3348    1.7800 H   0  0  0  0  0  0  0  0  0  0  0  0
   -0.5889    3.2615    1.4722 C   0  0  0  0  0  0  0  0  0  0  0  0
   -1.6291    3.5206    1.6805 H   0  0  0  0  0  0  0  0  0  0  0  0
    0.0359    3.5855    2.3049 H   0  0  0  0  0  0  0  0  0  0  0  0
   -0.2760    3.7797    0.5637 H   0  0  0  0  0  0  0  0  0  0  0  0
  5  6  2  0  0  0  0
  5  7  1  0  0  0  0
  2  3  1  0  0  0  0
  2  4  1  0  0  0  0
  2  5  1  0  0  0  0
  1  2  1  0  0  0  0
 25 26  2  0  0  0  0
 25 27  1  0  0  0  0
 23 24  1  0  0  0  0
 21 22  1  0  0  0  0
 21 23  2  0  0  0  0
 19 20  1  0  0  0  0
 19 21  1  0  0  0  0
 17 18  1  0  0  0  0
 17 19  2  0  0  0  0
 15 16  1  0  0  0  0
 15 17  1  0  0  0  0
 14 15  2  0  0  0  0
 14 23  1  0  0  0  0
 11 12  1  0  0  0  0
 11 13  1  0  0  0  0
 11 14  1  0  0  0  0
  9 10  1  0  0  0  0
  9 11  1  0  0  0  0
  9 25  1  0  0  0  0
  7  8  1  0  0  0  0
  7  9  1  0  0  0  0
 29 30  1  0  0  0  0
 29 31  1  0  0  0  0
 29 32  1  0  0  0  0
 27 28  1  0  0  0  0
 27 29  1  0  0  0  0
M  END
$$$$
default_name
  -OEChem-02102213163D

 32 32  0     1  0  0  0  0  0999 V2000
   -3.8405   -3.7518    1.6252 H   0  0  0  0  0  0  0  0  0  0  0  0
   -3.7965   -2.8768    0.9782 C   0  0  0  0  0  0  0  0  0  0  0  0
   -4.5465   -2.1527    1.2902 H   0  0  0  0  0  0  0  0  0  0  0  0
   -3.9745   -3.1748   -0.0538 H   0  0  0  0  0  0  0  0  0  0  0  0
   -2.4245   -2.2537    1.0882 C   0  0  0  0  0  0  0  0  0  0  0  0
   -1.5805   -2.7478    1.8242 O   0  0  0  0  0  0  0  0  0  0  0  0
   -2.2045   -1.1637    0.3562 N   0  0  0  0  0  0  0  0  0  0  0  0
   -2.9595   -0.7907   -0.2008 H   0  0  0  0  0  0  0  0  0  0  0  0
   -0.9485   -0.4087    0.3482 C   0  0  1  0  0  0  0  0  0  0  0  0
   -0.3666   -0.6914    1.2269 H   0  0  0  0  0  0  0  0  0  0  0  0
   -0.1405   -0.7797   -0.9072 C   0  0  0  0  0  0  0  0  0  0  0  0
    0.7991   -0.2254   -0.9014 H   0  0  0  0  0  0  0  0  0  0  0  0
    0.1056   -1.8419   -0.8683 H   0  0  0  0  0  0  0  0  0  0  0  0
   -0.8558   -0.4789   -2.2105 C   0  0  0  0  0  0  0  0  0  0  0  0
   -0.7022    0.7729   -2.8360 C   0  0  0  0  0  0  0  0  0  0  0  0
   -0.0899    1.5370   -2.3781 H   0  0  0  0  0  0  0  0  0  0  0  0
   -1.3358    1.0300   -4.0658 C   0  0  0  0  0  0  0  0  0  0  0  0
   -1.2186    1.9927   -4.5431 H   0  0  0  0  0  0  0  0  0  0  0  0
   -2.1222    0.0361   -4.6728 C   0  0  0  0  0  0  0  0  0  0  0  0
   -2.6110    0.2345   -5.6164 H   0  0  0  0  0  0  0  0  0  0  0  0
   -2.2791   -1.2153   -4.0497 C   0  0  0  0  0  0  0  0  0  0  0  0
   -2.8879   -1.9775   -4.5135 H   0  0  0  0  0  0  0  0  0  0  0  0
   -1.6483   -1.4708   -2.8191 C   0  0  0  0  0  0  0  0  0  0  0  0
   -1.7725   -2.4328   -2.3391 H   0  0  0  0  0  0  0  0  0  0  0  0
   -1.2168    1.1047    0.4313 C   0  0  0  0  0  0  0  0  0  0  0  0
   -2.0890    1.6186   -0.2704 O   0  0  0  0  0  0  0  0  0  0  0  0
   -0.4674    1.8182    1.2813 N   0  0  0  0  0  0  0  0  0  0  0  0
    0.2640    1.3348    1.7800 H   0  0  0  0  0  0  0  0  0  0  0  0
   -0.5889    3.2615    1.4722 C   0  0  0  0  0  0  0  0  0  0  0  0
   -1.6291    3.5206    1.6805 H   0  0  0  0  0  0  0  0  0  0  0  0
    0.0359    3.5855    2.3049 H   0  0  0  0  0  0  0  0  0  0  0  0
   -0.2760    3.7797    0.5637 H   0  0  0  0  0  0  0  0  0  0  0  0
  5  6  2  0  0  0  0
  5  7  1  0  0  0  0
  2  3  1  0  0  0  0
  2  4  1  0  0  0  0
  2  5  1  0  0  0  0
  1  2  1  0  0  0  0
 25 26  2  0  0  0  0
 25 27  1  0  0  0  0
 23 24  1  0  0  0  0
 21 22  1  0  0  0  0
 21 23  2  0  0  0  0
 19 20  1  0  0  0  0
 19 21  1  0  0  0  0
 17 18  1  0  0  0  0
 17 19  2  0  0  0  0
 15 16  1  0  0  0  0
 15 17  1  0  0  0  0
 14 15  2  0  0  0  0
 14 23  1  0  0  0  0
 11 12  1  0  0  0  0
 11 13  1  0  0  0  0
 11 14  1  0  0  0  0
  9 10  1  0  0  0  0
  9 11  1  0  0  0  0
  9 25  1  0  0  0  0
  7  8  1  0  0  0  0
  7  9  1  0  0  0  0
 29 30  1  0  0  0  0
 29 31  1  0  0  0  0
 29 32  1  0  0  0  0
 27 28  1  0  0  0  0
 27 29  1  0  0  0  0
M  END
$$$$
default_name
  -OEChem-02102213163D

 32 32  0     1  0  0  0  0  0999 V2000
   -3.8405   -3.7518    1.6252 H   0  0  0  0  0  0  0  0  0  0  0  0
   -3.7965   -2.8768    0.9782 C   0  0  0  0  0  0  0  0  0  0  0  0
   -4.5465   -2.1527    1.2902 H   0  0  0  0  0  0  0  0  0  0  0  0
   -3.9745   -3.1748   -0.0538 H   0  0  0  0  0  0  0  0  0  0  0  0
   -2.4245   -2.2537    1.0882 C   0  0  0  0  0  0  0  0  0  0  0  0
   -1.5805   -2.7478    1.8242 O   0  0  0  0  0  0  0  0  0  0  0  0
   -2.2045   -1.1637    0.3562 N   0  0  0  0  0  0  0  0  0  0  0  0
   -2.9595   -0.7907   -0.2008 H   0  0  0  0  0  0  0  0  0  0  0  0
   -0.9485   -0.4087    0.3482 C   0  0  1  0  0  0  0  0  0  0  0  0
   -0.3666   -0.6914    1.2269 H   0  0  0  0  0  0  0  0  0  0  0  0
   -0.1405   -0.7797   -0.9072 C   0  0  0  0  0  0  0  0  0  0  0  0
    0.7991   -0.2254   -0.9014 H   0  0  0  0  0  0  0  0  0  0  0  0
    0.1056   -1.8419   -0.8683 H   0  0  0  0  0  0  0  0  0  0  0  0
   -0.8558   -0.4789   -2.2105 C   0  0  0  0  0  0  0  0  0  0  0  0
   -0.4726    0.6245   -2.9963 C   0  0  0  0  0  0  0  0  0  0  0  0
    0.3207    1.2787   -2.6631 H   0  0  0  0  0  0  0  0  0  0  0  0
   -1.1132    0.8732   -4.2241 C   0  0  0  0  0  0  0  0  0  0  0  0
   -0.8191    1.7225   -4.8247 H   0  0  0  0  0  0  0  0  0  0  0  0
   -2.1361    0.0187   -4.6692 C   0  0  0  0  0  0  0  0  0  0  0  0
   -2.6299    0.2111   -5.6114 H   0  0  0  0  0  0  0  0  0  0  0  0
   -2.5226   -1.0840   -3.8857 C   0  0  0  0  0  0  0  0  0  0  0  0
   -3.3126   -1.7378   -4.2251 H   0  0  0  0  0  0  0  0  0  0  0  0
   -1.8844   -1.3303   -2.6571 C   0  0  0  0  0  0  0  0  0  0  0  0
   -2.1849   -2.1770   -2.0537 H   0  0  0  0  0  0  0  0  0  0  0  0
   -1.2168    1.1047    0.4313 C   0  0  0  0  0  0  0  0  0  0  0  0
   -2.0890    1.6186   -0.2704 O   0  0  0  0  0  0  0  0  0  0  0  0
   -0.4674    1.8182    1.2813 N   0  0  0  0  0  0  0  0  0  0  0  0
    0.2640    1.3348    1.7800 H   0  0  0  0  0  0  0  0  0  0  0  0
   -0.5889    3.2615    1.4722 C   0  0  0  0  0  0  0  0  0  0  0  0
   -1.6291    3.5206    1.6805 H   0  0  0  0  0  0  0  0  0  0  0  0
    0.0359    3.5855    2.3049 H   0  0  0  0  0  0  0  0  0  0  0  0
   -0.2760    3.7797    0.5637 H   0  0  0  0  0  0  0  0  0  0  0  0
  5  6  2  0  0  0  0
  5  7  1  0  0  0  0
  2  3  1  0  0  0  0
  2  4  1  0  0  0  0
  2  5  1  0  0  0  0
  1  2  1  0  0  0  0
 25 26  2  0  0  0  0
 25 27  1  0  0  0  0
 23 24  1  0  0  0  0
 21 22  1  0  0  0  0
 21 23  2  0  0  0  0
 19 20  1  0  0  0  0
 19 21  1  0  0  0  0
 17 18  1  0  0  0  0
 17 19  2  0  0  0  0
 15 16  1  0  0  0  0
 15 17  1  0  0  0  0
 14 15  2  0  0  0  0
 14 23  1  0  0  0  0
 11 12  1  0  0  0  0
 11 13  1  0  0  0  0
 11 14  1  0  0  0  0
  9 10  1  0  0  0  0
  9 11  1  0  0  0  0
  9 25  1  0  0  0  0
  7  8  1  0  0  0  0
  7  9  1  0  0  0  0
 29 30  1  0  0  0  0
 29 31  1  0  0  0  0
 29 32  1  0  0  0  0
 27 28  1  0  0  0  0
 27 29  1  0  0  0  0
M  END
$$$$
default_name
  -OEChem-02102213163D

 32 32  0     1  0  0  0  0  0999 V2000
   -3.8405   -3.7518    1.6252 H   0  0  0  0  0  0  0  0  0  0  0  0
   -3.7965   -2.8768    0.9782 C   0  0  0  0  0  0  0  0  0  0  0  0
   -4.5465   -2.1527    1.2902 H   0  0  0  0  0  0  0  0  0  0  0  0
   -3.9745   -3.1748   -0.0538 H   0  0  0  0  0  0  0  0  0  0  0  0
   -2.4245   -2.2537    1.0882 C   0  0  0  0  0  0  0  0  0  0  0  0
   -1.5805   -2.7478    1.8242 O   0  0  0  0  0  0  0  0  0  0  0  0
   -2.2045   -1.1637    0.3562 N   0  0  0  0  0  0  0  0  0  0  0  0
   -2.9595   -0.7907   -0.2008 H   0  0  0  0  0  0  0  0  0  0  0  0
   -0.9485   -0.4087    0.3482 C   0  0  1  0  0  0  0  0  0  0  0  0
   -0.3666   -0.6914    1.2269 H   0  0  0  0  0  0  0  0  0  0  0  0
   -0.1405   -0.7797   -0.9072 C   0  0  0  0  0  0  0  0  0  0  0  0
    0.7991   -0.2254   -0.9014 H   0  0  0  0  0  0  0  0  0  0  0  0
    0.1056   -1.8419   -0.8683 H   0  0  0  0  0  0  0  0  0  0  0  0
   -0.8558   -0.4789   -2.2105 C   0  0  0  0  0  0  0  0  0  0  0  0
   -0.2920    0.4106   -3.1447 C   0  0  0  0  0  0  0  0  0  0  0  0
    0.6453    0.9032   -2.9280 H   0  0  0  0  0  0  0  0  0  0  0  0
   -0.9412    0.6529   -4.3694 C   0  0  0  0  0  0  0  0  0  0  0  0
   -0.5078    1.3383   -5.0843 H   0  0  0  0  0  0  0  0  0  0  0  0
   -2.1533    0.0054   -4.6628 C   0  0  0  0  0  0  0  0  0  0  0  0
   -2.6532    0.1933   -5.6027 H   0  0  0  0  0  0  0  0  0  0  0  0
   -2.7202   -0.8829   -3.7309 C   0  0  0  0  0  0  0  0  0  0  0  0
   -3.6546   -1.3766   -3.9540 H   0  0  0  0  0  0  0  0  0  0  0  0
   -2.0729   -1.1223   -2.5057 C   0  0  0  0  0  0  0  0  0  0  0  0
   -2.5117   -1.8034   -1.7881 H   0  0  0  0  0  0  0  0  0  0  0  0
   -1.2168    1.1047    0.4313 C   0  0  0  0  0  0  0  0  0  0  0  0
   -2.0890    1.6186   -0.2704 O   0  0  0  0  0  0  0  0  0  0  0  0
   -0.4674    1.8182    1.2813 N   0  0  0  0  0  0  0  0  0  0  0  0
    0.2640    1.3348    1.7800 H   0  0  0  0  0  0  0  0  0  0  0  0
   -0.5889    3.2615    1.4722 C   0  0  0  0  0  0  0  0  0  0  0  0
   -1.6291    3.5206    1.6805 H   0  0  0  0  0  0  0  0  0  0  0  0
    0.0359    3.5855    2.3049 H   0  0  0  0  0  0  0  0  0  0  0  0
   -0.2760    3.7797    0.5637 H   0  0  0  0  0  0  0  0  0  0  0  0
  5  6  2  0  0  0  0
  5  7  1  0  0  0  0
  2  3  1  0  0  0  0
  2  4  1  0  0  0  0
  2  5  1  0  0  0  0
  1  2  1  0  0  0  0
 25 26  2  0  0  0  0
 25 27  1  0  0  0  0
 23 24  1  0  0  0  0
 21 22  1  0  0  0  0
 21 23  2  0  0  0  0
 19 20  1  0  0  0  0
 19 21  1  0  0  0  0
 17 18  1  0  0  0  0
 17 19  2  0  0  0  0
 15 16  1  0  0  0  0
 15 17  1  0  0  0  0
 14 15  2  0  0  0  0
 14 23  1  0  0  0  0
 11 12  1  0  0  0  0
 11 13  1  0  0  0  0
 11 14  1  0  0  0  0
  9 10  1  0  0  0  0
  9 11  1  0  0  0  0
  9 25  1  0  0  0  0
  7  8  1  0  0  0  0
  7  9  1  0  0  0  0
 29 30  1  0  0  0  0
 29 31  1  0  0  0  0
 29 32  1  0  0  0  0
 27 28  1  0  0  0  0
 27 29  1  0  0  0  0
M  END
$$$$
default_name
  -OEChem-02102213163D

 32 32  0     1  0  0  0  0  0999 V2000
   -3.8405   -3.7518    1.6252 H   0  0  0  0  0  0  0  0  0  0  0  0
   -3.7965   -2.8768    0.9782 C   0  0  0  0  0  0  0  0  0  0  0  0
   -4.5465   -2.1527    1.2902 H   0  0  0  0  0  0  0  0  0  0  0  0
   -3.9745   -3.1748   -0.0538 H   0  0  0  0  0  0  0  0  0  0  0  0
   -2.4245   -2.2537    1.0882 C   0  0  0  0  0  0  0  0  0  0  0  0
   -1.5805   -2.7478    1.8242 O   0  0  0  0  0  0  0  0  0  0  0  0
   -2.2045   -1.1637    0.3562 N   0  0  0  0  0  0  0  0  0  0  0  0
   -2.9595   -0.7907   -0.2008 H   0  0  0  0  0  0  0  0  0  0  0  0
   -0.9485   -0.4087    0.3482 C   0  0  1  0  0  0  0  0  0  0  0  0
   -0.3666   -0.6914    1.2269 H   0  0  0  0  0  0  0  0  0  0  0  0
   -0.1405   -0.7797   -0.9072 C   0  0  0  0  0  0  0  0  0  0  0  0
    0.7991   -0.2254   -0.9014 H   0  0  0  0  0  0  0  0  0  0  0  0
    0.1056   -1.8419   -0.8683 H   0  0  0  0  0  0  0  0  0  0  0  0
   -0.8558   -0.4789   -2.2105 C   0  0  0  0  0  0  0  0  0  0  0  0
   -0.1729    0.1457   -3.2713 C   0  0  0  0  0  0  0  0  0  0  0  0
    0.8618    0.4359   -3.1546 H   0  0  0  0  0  0  0  0  0  0  0  0
   -0.8315    0.3841   -4.4917 C   0  0  0  0  0  0  0  0  0  0  0  0
   -0.3059    0.8662   -5.3040 H   0  0  0  0  0  0  0  0  0  0  0  0
   -2.1725   -0.0029   -4.6542 C   0  0  0  0  0  0  0  0  0  0  0  0
   -2.6792    0.1824   -5.5910 H   0  0  0  0  0  0  0  0  0  0  0  0
   -2.8584   -0.6259   -3.5957 C   0  0  0  0  0  0  0  0  0  0  0  0
   -3.8908   -0.9186   -3.7186 H   0  0  0  0  0  0  0  0  0  0  0  0
   -2.2009   -0.8611   -2.3751 C   0  0  0  0  0  0  0  0  0  0  0  0
   -2.7307   -1.3374   -1.5604 H   0  0  0  0  0  0  0  0  0  0  0  0
   -1.2168    1.1047    0.4313 C   0  0  0  0  0  0  0  0  0  0  0  0
   -2.0890    1.6186   -0.2704 O   0  0  0  0  0  0  0  0  0  0  0  0
   -0.4674    1.8182    1.2813 N   0  0  0  0  0  0  0  0  0  0  0  0
    0.2640    1.3348    1.7800 H   0  0  0  0  0  0  0  0  0  0  0  0
   -0.5889    3.2615    1.4722 C   0  0  0  0  0  0  0  0  0  0  0  0
   -1.6291    3.5206    1.6805 H   0  0  0  0  0  0  0  0  0  0  0  0
    0.0359    3.5855    2.3049 H   0  0  0  0  0  0  0  0  0  0  0  0
   -0.2760    3.7797    0.5637 H   0  0  0  0  0  0  0  0  0  0  0  0
  5  6  2  0  0  0  0
  5  7  1  0  0  0  0
  2  3  1  0  0  0  0
  2  4  1  0  0  0  0
  2  5  1  0  0  0  0
  1  2  1  0  0  0  0
 25 26  2  0  0  0  0
 25 27  1  0  0  0  0
 23 24  1  0  0  0  0
 21 22  1  0  0  0  0
 21 23  2  0  0  0  0
 19 20  1  0  0  0  0
 19 21  1  0  0  0  0
 17 18  1  0  0  0  0
 17 19  2  0  0  0  0
 15 16  1  0  0  0  0
 15 17  1  0  0  0  0
 14 15  2  0  0  0  0
 14 23  1  0  0  0  0
 11 12  1  0  0  0  0
 11 13  1  0  0  0  0
 11 14  1  0  0  0  0
  9 10  1  0  0  0  0
  9 11  1  0  0  0  0
  9 25  1  0  0  0  0
  7  8  1  0  0  0  0
  7  9  1  0  0  0  0
 29 30  1  0  0  0  0
 29 31  1  0  0  0  0
 29 32  1  0  0  0  0
 27 28  1  0  0  0  0
 27 29  1  0  0  0  0
M  END
$$$$
default_name
  -OEChem-02102213163D

 32 32  0     1  0  0  0  0  0999 V2000
   -3.8405   -3.7518    1.6252 H   0  0  0  0  0  0  0  0  0  0  0  0
   -3.7965   -2.8768    0.9782 C   0  0  0  0  0  0  0  0  0  0  0  0
   -4.5465   -2.1527    1.2902 H   0  0  0  0  0  0  0  0  0  0  0  0
   -3.9745   -3.1748   -0.0538 H   0  0  0  0  0  0  0  0  0  0  0  0
   -2.4245   -2.2537    1.0882 C   0  0  0  0  0  0  0  0  0  0  0  0
   -1.5805   -2.7478    1.8242 O   0  0  0  0  0  0  0  0  0  0  0  0
   -2.2045   -1.1637    0.3562 N   0  0  0  0  0  0  0  0  0  0  0  0
   -2.9595   -0.7907   -0.2008 H   0  0  0  0  0  0  0  0  0  0  0  0
   -0.9485   -0.4087    0.3482 C   0  0  1  0  0  0  0  0  0  0  0  0
   -0.3666   -0.6914    1.2269 H   0  0  0  0  0  0  0  0  0  0  0  0
   -0.1405   -0.7797   -0.9072 C   0  0  0  0  0  0  0  0  0  0  0  0
    0.7991   -0.2254   -0.9014 H   0  0  0  0  0  0  0  0  0  0  0  0
    0.1056   -1.8419   -0.8683 H   0  0  0  0  0  0  0  0  0  0  0  0
   -0.8558   -0.4789   -2.2105 C   0  0  0  0  0  0  0  0  0  0  0  0
   -0.1231   -0.1521   -3.3673 C   0  0  0  0  0  0  0  0  0  0  0  0
    0.9553   -0.0913   -3.3276 H   0  0  0  0  0  0  0  0  0  0  0  0
   -0.7915    0.0852   -4.5826 C   0  0  0  0  0  0  0  0  0  0  0  0
   -0.2272    0.3385   -5.4691 H   0  0  0  0  0  0  0  0  0  0  0  0
   -2.1924   -0.0056   -4.6439 C   0  0  0  0  0  0  0  0  0  0  0  0
   -2.7061    0.1791   -5.5770 H   0  0  0  0  0  0  0  0  0  0  0  0
   -2.9277   -0.3304   -3.4894 C   0  0  0  0  0  0  0  0  0  0  0  0
   -4.0050   -0.3949   -3.5351 H   0  0  0  0  0  0  0  0  0  0  0  0
   -2.2598   -0.5643   -2.2743 C   0  0  0  0  0  0  0  0  0  0  0  0
   -2.8268   -0.8108   -1.3861 H   0  0  0  0  0  0  0  0  0  0  0  0
   -1.2168    1.1047    0.4313 C   0  0  0  0  0  0  0  0  0  0  0  0
   -2.0890    1.6186   -0.2704 O   0  0  0  0  0  0  0  0  0  0  0  0
   -0.4674    1.8182    1.2813 N   0  0  0  0  0  0  0  0  0  0  0  0
    0.2640    1.3348    1.7800 H   0  0  0  0  0  0  0  0  0  0  0  0
   -0.5889    3.2615    1.4722 C   0  0  0  0  0  0  0  0  0  0  0  0
   -1.6291    3.5206    1.6805 H   0  0  0  0  0  0  0  0  0  0  0  0
    0.0359    3.5855    2.3049 H   0  0  0  0  0  0  0  0  0  0  0  0
   -0.2760    3.7797    0.5637 H   0  0  0  0  0  0  0  0  0  0  0  0
  5  6  2  0  0  0  0
  5  7  1  0  0  0  0
  2  3  1  0  0  0  0
  2  4  1  0  0  0  0
  2  5  1  0  0  0  0
  1  2  1  0  0  0  0
 25 26  2  0  0  0  0
 25 27  1  0  0  0  0
 23 24  1  0  0  0  0
 21 22  1  0  0  0  0
 21 23  2  0  0  0  0
 19 20  1  0  0  0  0
 19 21  1  0  0  0  0
 17 18  1  0  0  0  0
 17 19  2  0  0  0  0
 15 16  1  0  0  0  0
 15 17  1  0  0  0  0
 14 15  2  0  0  0  0
 14 23  1  0  0  0  0
 11 12  1  0  0  0  0
 11 13  1  0  0  0  0
 11 14  1  0  0  0  0
  9 10  1  0  0  0  0
  9 11  1  0  0  0  0
  9 25  1  0  0  0  0
  7  8  1  0  0  0  0
  7  9  1  0  0  0  0
 29 30  1  0  0  0  0
 29 31  1  0  0  0  0
 29 32  1  0  0  0  0
 27 28  1  0  0  0  0
 27 29  1  0  0  0  0
M  END
$$$$
default_name
  -OEChem-02102213163D

 32 32  0     1  0  0  0  0  0999 V2000
   -3.8405   -3.7518    1.6252 H   0  0  0  0  0  0  0  0  0  0  0  0
   -3.7965   -2.8768    0.9782 C   0  0  0  0  0  0  0  0  0  0  0  0
   -4.5465   -2.1527    1.2902 H   0  0  0  0  0  0  0  0  0  0  0  0
   -3.9745   -3.1748   -0.0538 H   0  0  0  0  0  0  0  0  0  0  0  0
   -2.4245   -2.2537    1.0882 C   0  0  0  0  0  0  0  0  0  0  0  0
   -1.5805   -2.7478    1.8242 O   0  0  0  0  0  0  0  0  0  0  0  0
   -2.2045   -1.1637    0.3562 N   0  0  0  0  0  0  0  0  0  0  0  0
   -2.9595   -0.7907   -0.2008 H   0  0  0  0  0  0  0  0  0  0  0  0
   -0.9485   -0.4087    0.3482 C   0  0  1  0  0  0  0  0  0  0  0  0
   -0.3666   -0.6914    1.2269 H   0  0  0  0  0  0  0  0  0  0  0  0
   -0.1405   -0.7797   -0.9072 C   0  0  0  0  0  0  0  0  0  0  0  0
    0.7991   -0.2254   -0.9014 H   0  0  0  0  0  0  0  0  0  0  0  0
    0.1056   -1.8419   -0.8683 H   0  0  0  0  0  0  0  0  0  0  0  0
   -0.8558   -0.4789   -2.2105 C   0  0  0  0  0  0  0  0  0  0  0  0
   -0.1463   -0.4626   -3.4263 C   0  0  0  0  0  0  0  0  0  0  0  0
    0.9195   -0.6424   -3.4351 H   0  0  0  0  0  0  0  0  0  0  0  0
   -0.8241   -0.2235   -4.6360 C   0  0  0  0  0  0  0  0  0  0  0  0
   -0.2769   -0.2089   -5.5681 H   0  0  0  0  0  0  0  0  0  0  0  0
   -2.2118   -0.0024   -4.6325 C   0  0  0  0  0  0  0  0  0  0  0  0
   -2.7321    0.1836   -5.5617 H   0  0  0  0  0  0  0  0  0  0  0  0
   -2.9236   -0.0166   -3.4192 C   0  0  0  0  0  0  0  0  0  0  0  0
   -3.9894    0.1587   -3.4159 H   0  0  0  0  0  0  0  0  0  0  0  0
   -2.2454   -0.2522   -2.2101 C   0  0  0  0  0  0  0  0  0  0  0  0
   -2.7937   -0.2595   -1.2770 H   0  0  0  0  0  0  0  0  0  0  0  0
   -1.2168    1.1047    0.4313 C   0  0  0  0  0  0  0  0  0  0  0  0
   -2.0890    1.6186   -0.2704 O   0  0  0  0  0  0  0  0  0  0  0  0
   -0.4674    1.8182    1.2813 N   0  0  0  0  0  0  0  0  0  0  0  0
    0.2640    1.3348    1.7800 H   0  0  0  0  0  0  0  0  0  0  0  0
   -0.5889    3.2615    1.4722 C   0  0  0  0  0  0  0  0  0  0  0  0
   -1.6291    3.5206    1.6805 H   0  0  0  0  0  0  0  0  0  0  0  0
    0.0359    3.5855    2.3049 H   0  0  0  0  0  0  0  0  0  0  0  0
   -0.2760    3.7797    0.5637 H   0  0  0  0  0  0  0  0  0  0  0  0
  5  6  2  0  0  0  0
  5  7  1  0  0  0  0
  2  3  1  0  0  0  0
  2  4  1  0  0  0  0
  2  5  1  0  0  0  0
  1  2  1  0  0  0  0
 25 26  2  0  0  0  0
 25 27  1  0  0  0  0
 23 24  1  0  0  0  0
 21 22  1  0  0  0  0
 21 23  2  0  0  0  0
 19 20  1  0  0  0  0
 19 21  1  0  0  0  0
 17 18  1  0  0  0  0
 17 19  2  0  0  0  0
 15 16  1  0  0  0  0
 15 17  1  0  0  0  0
 14 15  2  0  0  0  0
 14 23  1  0  0  0  0
 11 12  1  0  0  0  0
 11 13  1  0  0  0  0
 11 14  1  0  0  0  0
  9 10  1  0  0  0  0
  9 11  1  0  0  0  0
  9 25  1  0  0  0  0
  7  8  1  0  0  0  0
  7  9  1  0  0  0  0
 29 30  1  0  0  0  0
 29 31  1  0  0  0  0
 29 32  1  0  0  0  0
 27 28  1  0  0  0  0
 27 29  1  0  0  0  0
M  END
$$$$
default_name
  -OEChem-02102213163D

 32 32  0     1  0  0  0  0  0999 V2000
   -3.8405   -3.7518    1.6252 H   0  0  0  0  0  0  0  0  0  0  0  0
   -3.7965   -2.8768    0.9782 C   0  0  0  0  0  0  0  0  0  0  0  0
   -4.5465   -2.1527    1.2902 H   0  0  0  0  0  0  0  0  0  0  0  0
   -3.9745   -3.1748   -0.0538 H   0  0  0  0  0  0  0  0  0  0  0  0
   -2.4245   -2.2537    1.0882 C   0  0  0  0  0  0  0  0  0  0  0  0
   -1.5805   -2.7478    1.8242 O   0  0  0  0  0  0  0  0  0  0  0  0
   -2.2045   -1.1637    0.3562 N   0  0  0  0  0  0  0  0  0  0  0  0
   -2.9595   -0.7907   -0.2008 H   0  0  0  0  0  0  0  0  0  0  0  0
   -0.9485   -0.4087    0.3482 C   0  0  1  0  0  0  0  0  0  0  0  0
   -0.3666   -0.6914    1.2269 H   0  0  0  0  0  0  0  0  0  0  0  0
   -0.1405   -0.7797   -0.9072 C   0  0  0  0  0  0  0  0  0  0  0  0
    0.8901   -0.4464   -0.7775 H   0  0  0  0  0  0  0  0  0  0  0  0
   -0.1232   -1.8659   -1.0085 H   0  0  0  0  0  0  0  0  0  0  0  0
   -0.6756   -0.1659   -2.1869 C   0  0  0  0  0  0  0  0  0  0  0  0
   -0.0397   -0.4155   -3.4179 C   0  0  0  0  0  0  0  0  0  0  0  0
    0.8493   -1.0292   -3.4549 H   0  0  0  0  0  0  0  0  0  0  0  0
   -0.5659    0.1237   -4.6063 C   0  0  0  0  0  0  0  0  0  0  0  0
   -0.0745   -0.0671   -5.5501 H   0  0  0  0  0  0  0  0  0  0  0  0
   -1.7290    0.9112   -4.5665 C   0  0  0  0  0  0  0  0  0  0  0  0
   -2.1319    1.3274   -5.4792 H   0  0  0  0  0  0  0  0  0  0  0  0
   -2.3660    1.1638   -3.3379 C   0  0  0  0  0  0  0  0  0  0  0  0
   -3.2570    1.7736   -3.3064 H   0  0  0  0  0  0  0  0  0  0  0  0
   -1.8381    0.6275   -2.1500 C   0  0  0  0  0  0  0  0  0  0  0  0
   -2.3272    0.8254   -1.2051 H   0  0  0  0  0  0  0  0  0  0  0  0
   -1.2168    1.1047    0.4313 C   0  0  0  0  0  0  0  0  0  0  0  0
   -2.0890    1.6186   -0.2704 O   0  0  0  0  0  0  0  0  0  0  0  0
   -0.4674    1.8182    1.2813 N   0  0  0  0  0  0  0  0  0  0  0  0
    0.2640    1.3348    1.7800 H   0  0  0  0  0  0  0  0  0  0  0  0
   -0.5889    3.2615    1.4722 C   0  0  0  0  0  0  0  0  0  0  0  0
   -1.6291    3.5206    1.6805 H   0  0  0  0  0  0  0  0  0  0  0  0
    0.0359    3.5855    2.3049 H   0  0  0  0  0  0  0  0  0  0  0  0
   -0.2760    3.7797    0.5637 H   0  0  0  0  0  0  0  0  0  0  0  0
  5  6  2  0  0  0  0
  5  7  1  0  0  0  0
  2  3  1  0  0  0  0
  2  4  1  0  0  0  0
  2  5  1  0  0  0  0
  1  2  1  0  0  0  0
 25 26  2  0  0  0  0
 25 27  1  0  0  0  0
 23 24  1  0  0  0  0
 21 22  1  0  0  0  0
 21 23  2  0  0  0  0
 19 20  1  0  0  0  0
 19 21  1  0  0  0  0
 17 18  1  0  0  0  0
 17 19  2  0  0  0  0
 15 16  1  0  0  0  0
 15 17  1  0  0  0  0
 14 15  2  0  0  0  0
 14 23  1  0  0  0  0
 11 12  1  0  0  0  0
 11 13  1  0  0  0  0
 11 14  1  0  0  0  0
  9 10  1  0  0  0  0
  9 11  1  0  0  0  0
  9 25  1  0  0  0  0
  7  8  1  0  0  0  0
  7  9  1  0  0  0  0
 29 30  1  0  0  0  0
 29 31  1  0  0  0  0
 29 32  1  0  0  0  0
 27 28  1  0  0  0  0
 27 29  1  0  0  0  0
M  END
$$$$
default_name
  -OEChem-02102213163D

 32 32  0     1  0  0  0  0  0999 V2000
   -3.8405   -3.7518    1.6252 H   0  0  0  0  0  0  0  0  0  0  0  0
   -3.7965   -2.8768    0.9782 C   0  0  0  0  0  0  0  0  0  0  0  0
   -4.5465   -2.1527    1.2902 H   0  0  0  0  0  0  0  0  0  0  0  0
   -3.9745   -3.1748   -0.0538 H   0  0  0  0  0  0  0  0  0  0  0  0
   -2.4245   -2.2537    1.0882 C   0  0  0  0  0  0  0  0  0  0  0  0
   -1.5805   -2.7478    1.8242 O   0  0  0  0  0  0  0  0  0  0  0  0
   -2.2045   -1.1637    0.3562 N   0  0  0  0  0  0  0  0  0  0  0  0
   -2.9595   -0.7907   -0.2008 H   0  0  0  0  0  0  0  0  0  0  0  0
   -0.9485   -0.4087    0.3482 C   0  0  1  0  0  0  0  0  0  0  0  0
   -0.3666   -0.6914    1.2269 H   0  0  0  0  0  0  0  0  0  0  0  0
   -0.1405   -0.7797   -0.9072 C   0  0  0  0  0  0  0  0  0  0  0  0
    0.8901   -0.4464   -0.7775 H   0  0  0  0  0  0  0  0  0  0  0  0
   -0.1232   -1.8659   -1.0085 H   0  0  0  0  0  0  0  0  0  0  0  0
   -0.6756   -0.1659   -2.1869 C   0  0  0  0  0  0  0  0  0  0  0  0
   -0.2533   -0.6484   -3.4403 C   0  0  0  0  0  0  0  0  0  0  0  0
    0.4739   -1.4460   -3.4979 H   0  0  0  0  0  0  0  0  0  0  0  0
   -0.7852   -0.1018   -4.6227 C   0  0  0  0  0  0  0  0  0  0  0  0
   -0.4577   -0.4720   -5.5841 H   0  0  0  0  0  0  0  0  0  0  0  0
   -1.7409    0.9261   -4.5543 C   0  0  0  0  0  0  0  0  0  0  0  0
   -2.1478    1.3476   -5.4628 H   0  0  0  0  0  0  0  0  0  0  0  0
   -2.1639    1.4116   -3.3036 C   0  0  0  0  0  0  0  0  0  0  0  0
   -2.8945    2.2054   -3.2509 H   0  0  0  0  0  0  0  0  0  0  0  0
   -1.6297    0.8674   -2.1221 C   0  0  0  0  0  0  0  0  0  0  0  0
   -1.9535    1.2440   -1.1605 H   0  0  0  0  0  0  0  0  0  0  0  0
   -1.2168    1.1047    0.4313 C   0  0  0  0  0  0  0  0  0  0  0  0
   -2.0890    1.6186   -0.2704 O   0  0  0  0  0  0  0  0  0  0  0  0
   -0.4674    1.8182    1.2813 N   0  0  0  0  0  0  0  0  0  0  0  0
    0.2640    1.3348    1.7800 H   0  0  0  0  0  0  0  0  0  0  0  0
   -0.5889    3.2615    1.4722 C   0  0  0  0  0  0  0  0  0  0  0  0
   -1.6291    3.5206    1.6805 H   0  0  0  0  0  0  0  0  0  0  0  0
    0.0359    3.5855    2.3049 H   0  0  0  0  0  0  0  0  0  0  0  0
   -0.2760    3.7797    0.5637 H   0  0  0  0  0  0  0  0  0  0  0  0
  5  6  2  0  0  0  0
  5  7  1  0  0  0  0
  2  3  1  0  0  0  0
  2  4  1  0  0  0  0
  2  5  1  0  0  0  0
  1  2  1  0  0  0  0
 25 26  2  0  0  0  0
 25 27  1  0  0  0  0
 23 24  1  0  0  0  0
 21 22  1  0  0  0  0
 21 23  2  0  0  0  0
 19 20  1  0  0  0  0
 19 21  1  0  0  0  0
 17 18  1  0  0  0  0
 17 19  2  0  0  0  0
 15 16  1  0  0  0  0
 15 17  1  0  0  0  0
 14 15  2  0  0  0  0
 14 23  1  0  0  0  0
 11 12  1  0  0  0  0
 11 13  1  0  0  0  0
 11 14  1  0  0  0  0
  9 10  1  0  0  0  0
  9 11  1  0  0  0  0
  9 25  1  0  0  0  0
  7  8  1  0  0  0  0
  7  9  1  0  0  0  0
 29 30  1  0  0  0  0
 29 31  1  0  0  0  0
 29 32  1  0  0  0  0
 27 28  1  0  0  0  0
 27 29  1  0  0  0  0
M  END
$$$$
default_name
  -OEChem-02102213163D

 32 32  0     1  0  0  0  0  0999 V2000
   -3.8405   -3.7518    1.6252 H   0  0  0  0  0  0  0  0  0  0  0  0
   -3.7965   -2.8768    0.9782 C   0  0  0  0  0  0  0  0  0  0  0  0
   -4.5465   -2.1527    1.2902 H   0  0  0  0  0  0  0  0  0  0  0  0
   -3.9745   -3.1748   -0.0538 H   0  0  0  0  0  0  0  0  0  0  0  0
   -2.4245   -2.2537    1.0882 C   0  0  0  0  0  0  0  0  0  0  0  0
   -1.5805   -2.7478    1.8242 O   0  0  0  0  0  0  0  0  0  0  0  0
   -2.2045   -1.1637    0.3562 N   0  0  0  0  0  0  0  0  0  0  0  0
   -2.9595   -0.7907   -0.2008 H   0  0  0  0  0  0  0  0  0  0  0  0
   -0.9485   -0.4087    0.3482 C   0  0  1  0  0  0  0  0  0  0  0  0
   -0.3666   -0.6914    1.2269 H   0  0  0  0  0  0  0  0  0  0  0  0
   -0.1405   -0.7797   -0.9072 C   0  0  0  0  0  0  0  0  0  0  0  0
    0.8901   -0.4464   -0.7775 H   0  0  0  0  0  0  0  0  0  0  0  0
   -0.1232   -1.8659   -1.0085 H   0  0  0  0  0  0  0  0  0  0  0  0
   -0.6756   -0.1659   -2.1869 C   0  0  0  0  0  0  0  0  0  0  0  0
   -0.5129   -0.8288   -3.4182 C   0  0  0  0  0  0  0  0  0  0  0  0
    0.0157   -1.7706   -3.4619 H   0  0  0  0  0  0  0  0  0  0  0  0
   -1.0480   -0.2732   -4.5950 C   0  0  0  0  0  0  0  0  0  0  0  0
   -0.9198   -0.7825   -5.5398 H   0  0  0  0  0  0  0  0  0  0  0  0
   -1.7479    0.9442   -4.5427 C   0  0  0  0  0  0  0  0  0  0  0  0
   -2.1570    1.3722   -5.4472 H   0  0  0  0  0  0  0  0  0  0  0  0
   -1.9110    1.6099   -3.3142 C   0  0  0  0  0  0  0  0  0  0  0  0
   -2.4442    2.5484   -3.2747 H   0  0  0  0  0  0  0  0  0  0  0  0
   -1.3732    1.0561   -2.1388 C   0  0  0  0  0  0  0  0  0  0  0  0
   -1.4965    1.5709   -1.1949 H   0  0  0  0  0  0  0  0  0  0  0  0
   -1.2168    1.1047    0.4313 C   0  0  0  0  0  0  0  0  0  0  0  0
   -2.0890    1.6186   -0.2704 O   0  0  0  0  0  0  0  0  0  0  0  0
   -0.4674    1.8182    1.2813 N   0  0  0  0  0  0  0  0  0  0  0  0
    0.2640    1.3348    1.7800 H   0  0  0  0  0  0  0  0  0  0  0  0
   -0.5889    3.2615    1.4722 C   0  0  0  0  0  0  0  0  0  0  0  0
   -1.6291    3.5206    1.6805 H   0  0  0  0  0  0  0  0  0  0  0  0
    0.0359    3.5855    2.3049 H   0  0  0  0  0  0  0  0  0  0  0  0
   -0.2760    3.7797    0.5637 H   0  0  0  0  0  0  0  0  0  0  0  0
  5  6  2  0  0  0  0
  5  7  1  0  0  0  0
  2  3  1  0  0  0  0
  2  4  1  0  0  0  0
  2  5  1  0  0  0  0
  1  2  1  0  0  0  0
 25 26  2  0  0  0  0
 25 27  1  0  0  0  0
 23 24  1  0  0  0  0
 21 22  1  0  0  0  0
 21 23  2  0  0  0  0
 19 20  1  0  0  0  0
 19 21  1  0  0  0  0
 17 18  1  0  0  0  0
 17 19  2  0  0  0  0
 15 16  1  0  0  0  0
 15 17  1  0  0  0  0
 14 15  2  0  0  0  0
 14 23  1  0  0  0  0
 11 12  1  0  0  0  0
 11 13  1  0  0  0  0
 11 14  1  0  0  0  0
  9 10  1  0  0  0  0
  9 11  1  0  0  0  0
  9 25  1  0  0  0  0
  7  8  1  0  0  0  0
  7  9  1  0  0  0  0
 29 30  1  0  0  0  0
 29 31  1  0  0  0  0
 29 32  1  0  0  0  0
 27 28  1  0  0  0  0
 27 29  1  0  0  0  0
M  END
$$$$
default_name
  -OEChem-02102213163D

 32 32  0     1  0  0  0  0  0999 V2000
   -3.8405   -3.7518    1.6252 H   0  0  0  0  0  0  0  0  0  0  0  0
   -3.7965   -2.8768    0.9782 C   0  0  0  0  0  0  0  0  0  0  0  0
   -4.5465   -2.1527    1.2902 H   0  0  0  0  0  0  0  0  0  0  0  0
   -3.9745   -3.1748   -0.0538 H   0  0  0  0  0  0  0  0  0  0  0  0
   -2.4245   -2.2537    1.0882 C   0  0  0  0  0  0  0  0  0  0  0  0
   -1.5805   -2.7478    1.8242 O   0  0  0  0  0  0  0  0  0  0  0  0
   -2.2045   -1.1637    0.3562 N   0  0  0  0  0  0  0  0  0  0  0  0
   -2.9595   -0.7907   -0.2008 H   0  0  0  0  0  0  0  0  0  0  0  0
   -0.9485   -0.4087    0.3482 C   0  0  1  0  0  0  0  0  0  0  0  0
   -0.3666   -0.6914    1.2269 H   0  0  0  0  0  0  0  0  0  0  0  0
   -0.1405   -0.7797   -0.9072 C   0  0  0  0  0  0  0  0  0  0  0  0
    0.8901   -0.4464   -0.7775 H   0  0  0  0  0  0  0  0  0  0  0  0
   -0.1232   -1.8659   -1.0085 H   0  0  0  0  0  0  0  0  0  0  0  0
   -0.6756   -0.1659   -2.1869 C   0  0  0  0  0  0  0  0  0  0  0  0
   -0.8007   -0.9443   -3.3533 C   0  0  0  0  0  0  0  0  0  0  0  0
   -0.4940   -1.9807   -3.3497 H   0  0  0  0  0  0  0  0  0  0  0  0
   -1.3364   -0.3788   -4.5251 C   0  0  0  0  0  0  0  0  0  0  0  0
   -1.4293   -0.9776   -5.4203 H   0  0  0  0  0  0  0  0  0  0  0  0
   -1.7495    0.9643   -4.5324 C   0  0  0  0  0  0  0  0  0  0  0  0
   -2.1589    1.3993   -5.4334 H   0  0  0  0  0  0  0  0  0  0  0  0
   -1.6245    1.7453   -3.3691 C   0  0  0  0  0  0  0  0  0  0  0  0
   -1.9369    2.7792   -3.3761 H   0  0  0  0  0  0  0  0  0  0  0  0
   -1.0860    1.1808   -2.1991 C   0  0  0  0  0  0  0  0  0  0  0  0
   -0.9872    1.7837   -1.3057 H   0  0  0  0  0  0  0  0  0  0  0  0
   -1.2168    1.1047    0.4313 C   0  0  0  0  0  0  0  0  0  0  0  0
   -2.0890    1.6186   -0.2704 O   0  0  0  0  0  0  0  0  0  0  0  0
   -0.4674    1.8182    1.2813 N   0  0  0  0  0  0  0  0  0  0  0  0
    0.2640    1.3348    1.7800 H   0  0  0  0  0  0  0  0  0  0  0  0
   -0.5889    3.2615    1.4722 C   0  0  0  0  0  0  0  0  0  0  0  0
   -1.6291    3.5206    1.6805 H   0  0  0  0  0  0  0  0  0  0  0  0
    0.0359    3.5855    2.3049 H   0  0  0  0  0  0  0  0  0  0  0  0
   -0.2760    3.7797    0.5637 H   0  0  0  0  0  0  0  0  0  0  0  0
  5  6  2  0  0  0  0
  5  7  1  0  0  0  0
  2  3  1  0  0  0  0
  2  4  1  0  0  0  0
  2  5  1  0  0  0  0
  1  2  1  0  0  0  0
 25 26  2  0  0  0  0
 25 27  1  0  0  0  0
 23 24  1  0  0  0  0
 21 22  1  0  0  0  0
 21 23  2  0  0  0  0
 19 20  1  0  0  0  0
 19 21  1  0  0  0  0
 17 18  1  0  0  0  0
 17 19  2  0  0  0  0
 15 16  1  0  0  0  0
 15 17  1  0  0  0  0
 14 15  2  0  0  0  0
 14 23  1  0  0  0  0
 11 12  1  0  0  0  0
 11 13  1  0  0  0  0
 11 14  1  0  0  0  0
  9 10  1  0  0  0  0
  9 11  1  0  0  0  0
  9 25  1  0  0  0  0
  7  8  1  0  0  0  0
  7  9  1  0  0  0  0
 29 30  1  0  0  0  0
 29 31  1  0  0  0  0
 29 32  1  0  0  0  0
 27 28  1  0  0  0  0
 27 29  1  0  0  0  0
M  END
$$$$
default_name
  -OEChem-02102213163D

 32 32  0     1  0  0  0  0  0999 V2000
   -3.8405   -3.7518    1.6252 H   0  0  0  0  0  0  0  0  0  0  0  0
   -3.7965   -2.8768    0.9782 C   0  0  0  0  0  0  0  0  0  0  0  0
   -4.5465   -2.1527    1.2902 H   0  0  0  0  0  0  0  0  0  0  0  0
   -3.9745   -3.1748   -0.0538 H   0  0  0  0  0  0  0  0  0  0  0  0
   -2.4245   -2.2537    1.0882 C   0  0  0  0  0  0  0  0  0  0  0  0
   -1.5805   -2.7478    1.8242 O   0  0  0  0  0  0  0  0  0  0  0  0
   -2.2045   -1.1637    0.3562 N   0  0  0  0  0  0  0  0  0  0  0  0
   -2.9595   -0.7907   -0.2008 H   0  0  0  0  0  0  0  0  0  0  0  0
   -0.9485   -0.4087    0.3482 C   0  0  1  0  0  0  0  0  0  0  0  0
   -0.3666   -0.6914    1.2269 H   0  0  0  0  0  0  0  0  0  0  0  0
   -0.1405   -0.7797   -0.9072 C   0  0  0  0  0  0  0  0  0  0  0  0
    0.8901   -0.4464   -0.7775 H   0  0  0  0  0  0  0  0  0  0  0  0
   -0.1232   -1.8659   -1.0085 H   0  0  0  0  0  0  0  0  0  0  0  0
   -0.6756   -0.1659   -2.1869 C   0  0  0  0  0  0  0  0  0  0  0  0
   -1.0971   -0.9871   -3.2499 C   0  0  0  0  0  0  0  0  0  0  0  0
   -1.0204   -2.0622   -3.1686 H   0  0  0  0  0  0  0  0  0  0  0  0
   -1.6308   -0.4115   -4.4177 C   0  0  0  0  0  0  0  0  0  0  0  0
   -1.9515   -1.0438   -5.2338 H   0  0  0  0  0  0  0  0  0  0  0  0
   -1.7456    0.9849   -4.5241 C   0  0  0  0  0  0  0  0  0  0  0  0
   -2.1534    1.4272   -5.4223 H   0  0  0  0  0  0  0  0  0  0  0  0
   -1.3239    1.8085   -3.4644 C   0  0  0  0  0  0  0  0  0  0  0  0
   -1.4070    2.8821   -3.5482 H   0  0  0  0  0  0  0  0  0  0  0  0
   -0.7876    1.2331   -2.2988 C   0  0  0  0  0  0  0  0  0  0  0  0
   -0.4604    1.8679   -1.4856 H   0  0  0  0  0  0  0  0  0  0  0  0
   -1.2168    1.1047    0.4313 C   0  0  0  0  0  0  0  0  0  0  0  0
   -2.0890    1.6186   -0.2704 O   0  0  0  0  0  0  0  0  0  0  0  0
   -0.4674    1.8182    1.2813 N   0  0  0  0  0  0  0  0  0  0  0  0
    0.2640    1.3348    1.7800 H   0  0  0  0  0  0  0  0  0  0  0  0
   -0.5889    3.2615    1.4722 C   0  0  0  0  0  0  0  0  0  0  0  0
   -1.6291    3.5206    1.6805 H   0  0  0  0  0  0  0  0  0  0  0  0
    0.0359    3.5855    2.3049 H   0  0  0  0  0  0  0  0  0  0  0  0
   -0.2760    3.7797    0.5637 H   0  0  0  0  0  0  0  0  0  0  0  0
  5  6  2  0  0  0  0
  5  7  1  0  0  0  0
  2  3  1  0  0  0  0
  2  4  1  0  0  0  0
  2  5  1  0  0  0  0
  1  2  1  0  0  0  0
 25 26  2  0  0  0  0
 25 27  1  0  0  0  0
 23 24  1  0  0  0  0
 21 22  1  0  0  0  0
 21 23  2  0  0  0  0
 19 20  1  0  0  0  0
 19 21  1  0  0  0  0
 17 18  1  0  0  0  0
 17 19  2  0  0  0  0
 15 16  1  0  0  0  0
 15 17  1  0  0  0  0
 14 15  2  0  0  0  0
 14 23  1  0  0  0  0
 11 12  1  0  0  0  0
 11 13  1  0  0  0  0
 11 14  1  0  0  0  0
  9 10  1  0  0  0  0
  9 11  1  0  0  0  0
  9 25  1  0  0  0  0
  7  8  1  0  0  0  0
  7  9  1  0  0  0  0
 29 30  1  0  0  0  0
 29 31  1  0  0  0  0
 29 32  1  0  0  0  0
 27 28  1  0  0  0  0
 27 29  1  0  0  0  0
M  END
$$$$
default_name
  -OEChem-02102213163D

 32 32  0     1  0  0  0  0  0999 V2000
   -3.8405   -3.7518    1.6252 H   0  0  0  0  0  0  0  0  0  0  0  0
   -3.7965   -2.8768    0.9782 C   0  0  0  0  0  0  0  0  0  0  0  0
   -4.5465   -2.1527    1.2902 H   0  0  0  0  0  0  0  0  0  0  0  0
   -3.9745   -3.1748   -0.0538 H   0  0  0  0  0  0  0  0  0  0  0  0
   -2.4245   -2.2537    1.0882 C   0  0  0  0  0  0  0  0  0  0  0  0
   -1.5805   -2.7478    1.8242 O   0  0  0  0  0  0  0  0  0  0  0  0
   -2.2045   -1.1637    0.3562 N   0  0  0  0  0  0  0  0  0  0  0  0
   -2.9595   -0.7907   -0.2008 H   0  0  0  0  0  0  0  0  0  0  0  0
   -0.9485   -0.4087    0.3482 C   0  0  1  0  0  0  0  0  0  0  0  0
   -0.3666   -0.6914    1.2269 H   0  0  0  0  0  0  0  0  0  0  0  0
   -0.1405   -0.7797   -0.9072 C   0  0  0  0  0  0  0  0  0  0  0  0
    0.8901   -0.4464   -0.7775 H   0  0  0  0  0  0  0  0  0  0  0  0
   -0.1232   -1.8659   -1.0085 H   0  0  0  0  0  0  0  0  0  0  0  0
   -0.6756   -0.1659   -2.1869 C   0  0  0  0  0  0  0  0  0  0  0  0
   -1.3820   -0.9543   -3.1151 C   0  0  0  0  0  0  0  0  0  0  0  0
   -1.5278   -2.0094   -2.9312 H   0  0  0  0  0  0  0  0  0  0  0  0
   -1.9109   -0.3690   -4.2802 C   0  0  0  0  0  0  0  0  0  0  0  0
   -2.4508   -0.9767   -4.9928 H   0  0  0  0  0  0  0  0  0  0  0  0
   -1.7364    1.0048   -4.5184 C   0  0  0  0  0  0  0  0  0  0  0  0
   -2.1408    1.4540   -5.4148 H   0  0  0  0  0  0  0  0  0  0  0  0
   -1.0297    1.7952   -3.5938 C   0  0  0  0  0  0  0  0  0  0  0  0
   -0.8908    2.8501   -3.7794 H   0  0  0  0  0  0  0  0  0  0  0  0
   -0.4984    1.2093   -2.4311 C   0  0  0  0  0  0  0  0  0  0  0  0
    0.0480    1.8178   -1.7221 H   0  0  0  0  0  0  0  0  0  0  0  0
   -1.2168    1.1047    0.4313 C   0  0  0  0  0  0  0  0  0  0  0  0
   -2.0890    1.6186   -0.2704 O   0  0  0  0  0  0  0  0  0  0  0  0
   -0.4674    1.8182    1.2813 N   0  0  0  0  0  0  0  0  0  0  0  0
    0.2640    1.3348    1.7800 H   0  0  0  0  0  0  0  0  0  0  0  0
   -0.5889    3.2615    1.4722 C   0  0  0  0  0  0  0  0  0  0  0  0
   -1.6291    3.5206    1.6805 H   0  0  0  0  0  0  0  0  0  0  0  0
    0.0359    3.5855    2.3049 H   0  0  0  0  0  0  0  0  0  0  0  0
   -0.2760    3.7797    0.5637 H   0  0  0  0  0  0  0  0  0  0  0  0
  5  6  2  0  0  0  0
  5  7  1  0  0  0  0
  2  3  1  0  0  0  0
  2  4  1  0  0  0  0
  2  5  1  0  0  0  0
  1  2  1  0  0  0  0
 25 26  2  0  0  0  0
 25 27  1  0  0  0  0
 23 24  1  0  0  0  0
 21 22  1  0  0  0  0
 21 23  2  0  0  0  0
 19 20  1  0  0  0  0
 19 21  1  0  0  0  0
 17 18  1  0  0  0  0
 17 19  2  0  0  0  0
 15 16  1  0  0  0  0
 15 17  1  0  0  0  0
 14 15  2  0  0  0  0
 14 23  1  0  0  0  0
 11 12  1  0  0  0  0
 11 13  1  0  0  0  0
 11 14  1  0  0  0  0
  9 10  1  0  0  0  0
  9 11  1  0  0  0  0
  9 25  1  0  0  0  0
  7  8  1  0  0  0  0
  7  9  1  0  0  0  0
 29 30  1  0  0  0  0
 29 31  1  0  0  0  0
 29 32  1  0  0  0  0
 27 28  1  0  0  0  0
 27 29  1  0  0  0  0
M  END
$$$$
default_name
  -OEChem-02102213163D

 32 32  0     1  0  0  0  0  0999 V2000
   -3.8405   -3.7518    1.6252 H   0  0  0  0  0  0  0  0  0  0  0  0
   -3.7965   -2.8768    0.9782 C   0  0  0  0  0  0  0  0  0  0  0  0
   -4.5465   -2.1527    1.2902 H   0  0  0  0  0  0  0  0  0  0  0  0
   -3.9745   -3.1748   -0.0538 H   0  0  0  0  0  0  0  0  0  0  0  0
   -2.4245   -2.2537    1.0882 C   0  0  0  0  0  0  0  0  0  0  0  0
   -1.5805   -2.7478    1.8242 O   0  0  0  0  0  0  0  0  0  0  0  0
   -2.2045   -1.1637    0.3562 N   0  0  0  0  0  0  0  0  0  0  0  0
   -2.9595   -0.7907   -0.2008 H   0  0  0  0  0  0  0  0  0  0  0  0
   -0.9485   -0.4087    0.3482 C   0  0  1  0  0  0  0  0  0  0  0  0
   -0.3666   -0.6914    1.2269 H   0  0  0  0  0  0  0  0  0  0  0  0
   -0.1405   -0.7797   -0.9072 C   0  0  0  0  0  0  0  0  0  0  0  0
    0.8901   -0.4464   -0.7775 H   0  0  0  0  0  0  0  0  0  0  0  0
   -0.1232   -1.8659   -1.0085 H   0  0  0  0  0  0  0  0  0  0  0  0
   -0.6756   -0.1659   -2.1869 C   0  0  0  0  0  0  0  0  0  0  0  0
   -1.6358   -0.8481   -2.9580 C   0  0  0  0  0  0  0  0  0  0  0  0
   -1.9814   -1.8259   -2.6535 H   0  0  0  0  0  0  0  0  0  0  0  0
   -2.1579   -0.2542   -4.1219 C   0  0  0  0  0  0  0  0  0  0  0  0
   -2.8933   -0.7808   -4.7139 H   0  0  0  0  0  0  0  0  0  0  0  0
   -1.7226    1.0225   -4.5157 C   0  0  0  0  0  0  0  0  0  0  0  0
   -2.1220    1.4777   -5.4112 H   0  0  0  0  0  0  0  0  0  0  0  0
   -0.7621    1.7063   -3.7483 C   0  0  0  0  0  0  0  0  0  0  0  0
   -0.4234    2.6853   -4.0539 H   0  0  0  0  0  0  0  0  0  0  0  0
   -0.2381    1.1111   -2.5870 C   0  0  0  0  0  0  0  0  0  0  0  0
    0.5033    1.6368   -1.9993 H   0  0  0  0  0  0  0  0  0  0  0  0
   -1.2168    1.1047    0.4313 C   0  0  0  0  0  0  0  0  0  0  0  0
   -2.0890    1.6186   -0.2704 O   0  0  0  0  0  0  0  0  0  0  0  0
   -0.4674    1.8182    1.2813 N   0  0  0  0  0  0  0  0  0  0  0  0
    0.2640    1.3348    1.7800 H   0  0  0  0  0  0  0  0  0  0  0  0
   -0.5889    3.2615    1.4722 C   0  0  0  0  0  0  0  0  0  0  0  0
   -1.6291    3.5206    1.6805 H   0  0  0  0  0  0  0  0  0  0  0  0
    0.0359    3.5855    2.3049 H   0  0  0  0  0  0  0  0  0  0  0  0
   -0.2760    3.7797    0.5637 H   0  0  0  0  0  0  0  0  0  0  0  0
  5  6  2  0  0  0  0
  5  7  1  0  0  0  0
  2  3  1  0  0  0  0
  2  4  1  0  0  0  0
  2  5  1  0  0  0  0
  1  2  1  0  0  0  0
 25 26  2  0  0  0  0
 25 27  1  0  0  0  0
 23 24  1  0  0  0  0
 21 22  1  0  0  0  0
 21 23  2  0  0  0  0
 19 20  1  0  0  0  0
 19 21  1  0  0  0  0
 17 18  1  0  0  0  0
 17 19  2  0  0  0  0
 15 16  1  0  0  0  0
 15 17  1  0  0  0  0
 14 15  2  0  0  0  0
 14 23  1  0  0  0  0
 11 12  1  0  0  0  0
 11 13  1  0  0  0  0
 11 14  1  0  0  0  0
  9 10  1  0  0  0  0
  9 11  1  0  0  0  0
  9 25  1  0  0  0  0
  7  8  1  0  0  0  0
  7  9  1  0  0  0  0
 29 30  1  0  0  0  0
 29 31  1  0  0  0  0
 29 32  1  0  0  0  0
 27 28  1  0  0  0  0
 27 29  1  0  0  0  0
M  END
$$$$
default_name
  -OEChem-02102213163D

 32 32  0     1  0  0  0  0  0999 V2000
   -3.8405   -3.7518    1.6252 H   0  0  0  0  0  0  0  0  0  0  0  0
   -3.7965   -2.8768    0.9782 C   0  0  0  0  0  0  0  0  0  0  0  0
   -4.5465   -2.1527    1.2902 H   0  0  0  0  0  0  0  0  0  0  0  0
   -3.9745   -3.1748   -0.0538 H   0  0  0  0  0  0  0  0  0  0  0  0
   -2.4245   -2.2537    1.0882 C   0  0  0  0  0  0  0  0  0  0  0  0
   -1.5805   -2.7478    1.8242 O   0  0  0  0  0  0  0  0  0  0  0  0
   -2.2045   -1.1637    0.3562 N   0  0  0  0  0  0  0  0  0  0  0  0
   -2.9595   -0.7907   -0.2008 H   0  0  0  0  0  0  0  0  0  0  0  0
   -0.9485   -0.4087    0.3482 C   0  0  1  0  0  0  0  0  0  0  0  0
   -0.3666   -0.6914    1.2269 H   0  0  0  0  0  0  0  0  0  0  0  0
   -0.1405   -0.7797   -0.9072 C   0  0  0  0  0  0  0  0  0  0  0  0
    0.8901   -0.4464   -0.7775 H   0  0  0  0  0  0  0  0  0  0  0  0
   -0.1232   -1.8659   -1.0085 H   0  0  0  0  0  0  0  0  0  0  0  0
   -0.6756   -0.1659   -2.1869 C   0  0  0  0  0  0  0  0  0  0  0  0
   -1.8414   -0.6757   -2.7894 C   0  0  0  0  0  0  0  0  0  0  0  0
   -2.3505   -1.5243   -2.3546 H   0  0  0  0  0  0  0  0  0  0  0  0
   -2.3548   -0.0749   -3.9536 C   0  0  0  0  0  0  0  0  0  0  0  0
   -3.2486   -0.4695   -4.4160 H   0  0  0  0  0  0  0  0  0  0  0  0
   -1.7051    1.0369   -4.5161 C   0  0  0  0  0  0  0  0  0  0  0  0
   -2.0983    1.4969   -5.4119 H   0  0  0  0  0  0  0  0  0  0  0  0
   -0.5391    1.5478   -3.9175 C   0  0  0  0  0  0  0  0  0  0  0  0
   -0.0366    2.3991   -4.3529 H   0  0  0  0  0  0  0  0  0  0  0  0
   -0.0244    0.9452   -2.7559 C   0  0  0  0  0  0  0  0  0  0  0  0
    0.8746    1.3372   -2.2982 H   0  0  0  0  0  0  0  0  0  0  0  0
   -1.2168    1.1047    0.4313 C   0  0  0  0  0  0  0  0  0  0  0  0
   -2.0890    1.6186   -0.2704 O   0  0  0  0  0  0  0  0  0  0  0  0
   -0.4674    1.8182    1.2813 N   0  0  0  0  0  0  0  0  0  0  0  0
    0.2640    1.3348    1.7800 H   0  0  0  0  0  0  0  0  0  0  0  0
   -0.5889    3.2615    1.4722 C   0  0  0  0  0  0  0  0  0  0  0  0
   -1.6291    3.5206    1.6805 H   0  0  0  0  0  0  0  0  0  0  0  0
    0.0359    3.5855    2.3049 H   0  0  0  0  0  0  0  0  0  0  0  0
   -0.2760    3.7797    0.5637 H   0  0  0  0  0  0  0  0  0  0  0  0
  5  6  2  0  0  0  0
  5  7  1  0  0  0  0
  2  3  1  0  0  0  0
  2  4  1  0  0  0  0
  2  5  1  0  0  0  0
  1  2  1  0  0  0  0
 25 26  2  0  0  0  0
 25 27  1  0  0  0  0
 23 24  1  0  0  0  0
 21 22  1  0  0  0  0
 21 23  2  0  0  0  0
 19 20  1  0  0  0  0
 19 21  1  0  0  0  0
 17 18  1  0  0  0  0
 17 19  2  0  0  0  0
 15 16  1  0  0  0  0
 15 17  1  0  0  0  0
 14 15  2  0  0  0  0
 14 23  1  0  0  0  0
 11 12  1  0  0  0  0
 11 13  1  0  0  0  0
 11 14  1  0  0  0  0
  9 10  1  0  0  0  0
  9 11  1  0  0  0  0
  9 25  1  0  0  0  0
  7  8  1  0  0  0  0
  7  9  1  0  0  0  0
 29 30  1  0  0  0  0
 29 31  1  0  0  0  0
 29 32  1  0  0  0  0
 27 28  1  0  0  0  0
 27 29  1  0  0  0  0
M  END
$$$$
default_name
  -OEChem-02102213163D

 32 32  0     1  0  0  0  0  0999 V2000
   -3.8405   -3.7518    1.6252 H   0  0  0  0  0  0  0  0  0  0  0  0
   -3.7965   -2.8768    0.9782 C   0  0  0  0  0  0  0  0  0  0  0  0
   -4.5465   -2.1527    1.2902 H   0  0  0  0  0  0  0  0  0  0  0  0
   -3.9745   -3.1748   -0.0538 H   0  0  0  0  0  0  0  0  0  0  0  0
   -2.4245   -2.2537    1.0882 C   0  0  0  0  0  0  0  0  0  0  0  0
   -1.5805   -2.7478    1.8242 O   0  0  0  0  0  0  0  0  0  0  0  0
   -2.2045   -1.1637    0.3562 N   0  0  0  0  0  0  0  0  0  0  0  0
   -2.9595   -0.7907   -0.2008 H   0  0  0  0  0  0  0  0  0  0  0  0
   -0.9485   -0.4087    0.3482 C   0  0  1  0  0  0  0  0  0  0  0  0
   -0.3666   -0.6914    1.2269 H   0  0  0  0  0  0  0  0  0  0  0  0
   -0.1405   -0.7797   -0.9072 C   0  0  0  0  0  0  0  0  0  0  0  0
    0.8901   -0.4464   -0.7775 H   0  0  0  0  0  0  0  0  0  0  0  0
   -0.1232   -1.8659   -1.0085 H   0  0  0  0  0  0  0  0  0  0  0  0
   -0.6756   -0.1659   -2.1869 C   0  0  0  0  0  0  0  0  0  0  0  0
   -1.9846   -0.4489   -2.6207 C   0  0  0  0  0  0  0  0  0  0  0  0
   -2.6097   -1.1250   -2.0547 H   0  0  0  0  0  0  0  0  0  0  0  0
   -2.4882    0.1566   -3.7868 C   0  0  0  0  0  0  0  0  0  0  0  0
   -3.4927   -0.0641   -4.1195 H   0  0  0  0  0  0  0  0  0  0  0  0
   -1.6852    1.0469   -4.5197 C   0  0  0  0  0  0  0  0  0  0  0  0
   -2.0712    1.5102   -5.4168 H   0  0  0  0  0  0  0  0  0  0  0  0
   -0.3761    1.3307   -4.0898 C   0  0  0  0  0  0  0  0  0  0  0  0
    0.2432    2.0108   -4.6561 H   0  0  0  0  0  0  0  0  0  0  0  0
    0.1280    0.7229   -2.9263 C   0  0  0  0  0  0  0  0  0  0  0  0
    1.1364    0.9394   -2.5985 H   0  0  0  0  0  0  0  0  0  0  0  0
   -1.2168    1.1047    0.4313 C   0  0  0  0  0  0  0  0  0  0  0  0
   -2.0890    1.6186   -0.2704 O   0  0  0  0  0  0  0  0  0  0  0  0
   -0.4674    1.8182    1.2813 N   0  0  0  0  0  0  0  0  0  0  0  0
    0.2640    1.3348    1.7800 H   0  0  0  0  0  0  0  0  0  0  0  0
   -0.5889    3.2615    1.4722 C   0  0  0  0  0  0  0  0  0  0  0  0
   -1.6291    3.5206    1.6805 H   0  0  0  0  0  0  0  0  0  0  0  0
    0.0359    3.5855    2.3049 H   0  0  0  0  0  0  0  0  0  0  0  0
   -0.2760    3.7797    0.5637 H   0  0  0  0  0  0  0  0  0  0  0  0
  5  6  2  0  0  0  0
  5  7  1  0  0  0  0
  2  3  1  0  0  0  0
  2  4  1  0  0  0  0
  2  5  1  0  0  0  0
  1  2  1  0  0  0  0
 25 26  2  0  0  0  0
 25 27  1  0  0  0  0
 23 24  1  0  0  0  0
 21 22  1  0  0  0  0
 21 23  2  0  0  0  0
 19 20  1  0  0  0  0
 19 21  1  0  0  0  0
 17 18  1  0  0  0  0
 17 19  2  0  0  0  0
 15 16  1  0  0  0  0
 15 17  1  0  0  0  0
 14 15  2  0  0  0  0
 14 23  1  0  0  0  0
 11 12  1  0  0  0  0
 11 13  1  0  0  0  0
 11 14  1  0  0  0  0
  9 10  1  0  0  0  0
  9 11  1  0  0  0  0
  9 25  1  0  0  0  0
  7  8  1  0  0  0  0
  7  9  1  0  0  0  0
 29 30  1  0  0  0  0
 29 31  1  0  0  0  0
 29 32  1  0  0  0  0
 27 28  1  0  0  0  0
 27 29  1  0  0  0  0
M  END
$$$$
default_name
  -OEChem-02102213163D

 32 32  0     1  0  0  0  0  0999 V2000
   -3.8405   -3.7518    1.6252 H   0  0  0  0  0  0  0  0  0  0  0  0
   -3.7965   -2.8768    0.9782 C   0  0  0  0  0  0  0  0  0  0  0  0
   -4.5465   -2.1527    1.2902 H   0  0  0  0  0  0  0  0  0  0  0  0
   -3.9745   -3.1748   -0.0538 H   0  0  0  0  0  0  0  0  0  0  0  0
   -2.4245   -2.2537    1.0882 C   0  0  0  0  0  0  0  0  0  0  0  0
   -1.5805   -2.7478    1.8242 O   0  0  0  0  0  0  0  0  0  0  0  0
   -2.2045   -1.1637    0.3562 N   0  0  0  0  0  0  0  0  0  0  0  0
   -2.9595   -0.7907   -0.2008 H   0  0  0  0  0  0  0  0  0  0  0  0
   -0.9485   -0.4087    0.3482 C   0  0  1  0  0  0  0  0  0  0  0  0
   -0.3666   -0.6914    1.2269 H   0  0  0  0  0  0  0  0  0  0  0  0
   -0.1405   -0.7797   -0.9072 C   0  0  0  0  0  0  0  0  0  0  0  0
    0.8901   -0.4464   -0.7775 H   0  0  0  0  0  0  0  0  0  0  0  0
   -0.1232   -1.8659   -1.0085 H   0  0  0  0  0  0  0  0  0  0  0  0
   -0.6756   -0.1659   -2.1869 C   0  0  0  0  0  0  0  0  0  0  0  0
   -2.0558   -0.1832   -2.4635 C   0  0  0  0  0  0  0  0  0  0  0  0
   -2.7416   -0.6554   -1.7743 H   0  0  0  0  0  0  0  0  0  0  0  0
   -2.5490    0.4246   -3.6328 C   0  0  0  0  0  0  0  0  0  0  0  0
   -3.6089    0.4080   -3.8446 H   0  0  0  0  0  0  0  0  0  0  0  0
   -1.6641    1.0519   -4.5261 C   0  0  0  0  0  0  0  0  0  0  0  0
   -2.0428    1.5167   -5.4257 H   0  0  0  0  0  0  0  0  0  0  0  0
   -0.2841    1.0696   -4.2535 C   0  0  0  0  0  0  0  0  0  0  0  0
    0.3969    1.5470   -4.9428 H   0  0  0  0  0  0  0  0  0  0  0  0
    0.2089    0.4593   -3.0865 C   0  0  0  0  0  0  0  0  0  0  0  0
    1.2711    0.4707   -2.8796 H   0  0  0  0  0  0  0  0  0  0  0  0
   -1.2168    1.1047    0.4313 C   0  0  0  0  0  0  0  0  0  0  0  0
   -2.0890    1.6186   -0.2704 O   0  0  0  0  0  0  0  0  0  0  0  0
   -0.4674    1.8182    1.2813 N   0  0  0  0  0  0  0  0  0  0  0  0
    0.2640    1.3348    1.7800 H   0  0  0  0  0  0  0  0  0  0  0  0
   -0.5889    3.2615    1.4722 C   0  0  0  0  0  0  0  0  0  0  0  0
   -1.6291    3.5206    1.6805 H   0  0  0  0  0  0  0  0  0  0  0  0
    0.0359    3.5855    2.3049 H   0  0  0  0  0  0  0  0  0  0  0  0
   -0.2760    3.7797    0.5637 H   0  0  0  0  0  0  0  0  0  0  0  0
  5  6  2  0  0  0  0
  5  7  1  0  0  0  0
  2  3  1  0  0  0  0
  2  4  1  0  0  0  0
  2  5  1  0  0  0  0
  1  2  1  0  0  0  0
 25 26  2  0  0  0  0
 25 27  1  0  0  0  0
 23 24  1  0  0  0  0
 21 22  1  0  0  0  0
 21 23  2  0  0  0  0
 19 20  1  0  0  0  0
 19 21  1  0  0  0  0
 17 18  1  0  0  0  0
 17 19  2  0  0  0  0
 15 16  1  0  0  0  0
 15 17  1  0  0  0  0
 14 15  2  0  0  0  0
 14 23  1  0  0  0  0
 11 12  1  0  0  0  0
 11 13  1  0  0  0  0
 11 14  1  0  0  0  0
  9 10  1  0  0  0  0
  9 11  1  0  0  0  0
  9 25  1  0  0  0  0
  7  8  1  0  0  0  0
  7  9  1  0  0  0  0
 29 30  1  0  0  0  0
 29 31  1  0  0  0  0
 29 32  1  0  0  0  0
 27 28  1  0  0  0  0
 27 29  1  0  0  0  0
M  END
$$$$
default_name
  -OEChem-02102213163D

 32 32  0     1  0  0  0  0  0999 V2000
   -3.8405   -3.7518    1.6252 H   0  0  0  0  0  0  0  0  0  0  0  0
   -3.7965   -2.8768    0.9782 C   0  0  0  0  0  0  0  0  0  0  0  0
   -4.5465   -2.1527    1.2902 H   0  0  0  0  0  0  0  0  0  0  0  0
   -3.9745   -3.1748   -0.0538 H   0  0  0  0  0  0  0  0  0  0  0  0
   -2.4245   -2.2537    1.0882 C   0  0  0  0  0  0  0  0  0  0  0  0
   -1.5805   -2.7478    1.8242 O   0  0  0  0  0  0  0  0  0  0  0  0
   -2.2045   -1.1637    0.3562 N   0  0  0  0  0  0  0  0  0  0  0  0
   -2.9595   -0.7907   -0.2008 H   0  0  0  0  0  0  0  0  0  0  0  0
   -0.9485   -0.4087    0.3482 C   0  0  1  0  0  0  0  0  0  0  0  0
   -0.3666   -0.6914    1.2269 H   0  0  0  0  0  0  0  0  0  0  0  0
   -0.1405   -0.7797   -0.9072 C   0  0  0  0  0  0  0  0  0  0  0  0
    0.8901   -0.4464   -0.7775 H   0  0  0  0  0  0  0  0  0  0  0  0
   -0.1232   -1.8659   -1.0085 H   0  0  0  0  0  0  0  0  0  0  0  0
   -0.6756   -0.1659   -2.1869 C   0  0  0  0  0  0  0  0  0  0  0  0
   -2.0501    0.1034   -2.3285 C   0  0  0  0  0  0  0  0  0  0  0  0
   -2.7371   -0.1474   -1.5326 H   0  0  0  0  0  0  0  0  0  0  0  0
   -2.5331    0.7108   -3.5022 C   0  0  0  0  0  0  0  0  0  0  0  0
   -3.5893    0.9144   -3.6099 H   0  0  0  0  0  0  0  0  0  0  0  0
   -1.6433    1.0515   -4.5350 C   0  0  0  0  0  0  0  0  0  0  0  0
   -2.0147    1.5160   -5.4377 H   0  0  0  0  0  0  0  0  0  0  0  0
   -0.2693    0.7823   -4.3974 C   0  0  0  0  0  0  0  0  0  0  0  0
    0.4141    1.0392   -5.1934 H   0  0  0  0  0  0  0  0  0  0  0  0
    0.2126    0.1723   -3.2257 C   0  0  0  0  0  0  0  0  0  0  0  0
    1.2694   -0.0372   -3.1224 H   0  0  0  0  0  0  0  0  0  0  0  0
   -1.2168    1.1047    0.4313 C   0  0  0  0  0  0  0  0  0  0  0  0
   -2.0890    1.6186   -0.2704 O   0  0  0  0  0  0  0  0  0  0  0  0
   -0.4674    1.8182    1.2813 N   0  0  0  0  0  0  0  0  0  0  0  0
    0.2640    1.3348    1.7800 H   0  0  0  0  0  0  0  0  0  0  0  0
   -0.5889    3.2615    1.4722 C   0  0  0  0  0  0  0  0  0  0  0  0
   -1.6291    3.5206    1.6805 H   0  0  0  0  0  0  0  0  0  0  0  0
    0.0359    3.5855    2.3049 H   0  0  0  0  0  0  0  0  0  0  0  0
   -0.2760    3.7797    0.5637 H   0  0  0  0  0  0  0  0  0  0  0  0
  5  6  2  0  0  0  0
  5  7  1  0  0  0  0
  2  3  1  0  0  0  0
  2  4  1  0  0  0  0
  2  5  1  0  0  0  0
  1  2  1  0  0  0  0
 25 26  2  0  0  0  0
 25 27  1  0  0  0  0
 23 24  1  0  0  0  0
 21 22  1  0  0  0  0
 21 23  2  0  0  0  0
 19 20  1  0  0  0  0
 19 21  1  0  0  0  0
 17 18  1  0  0  0  0
 17 19  2  0  0  0  0
 15 16  1  0  0  0  0
 15 17  1  0  0  0  0
 14 15  2  0  0  0  0
 14 23  1  0  0  0  0
 11 12  1  0  0  0  0
 11 13  1  0  0  0  0
 11 14  1  0  0  0  0
  9 10  1  0  0  0  0
  9 11  1  0  0  0  0
  9 25  1  0  0  0  0
  7  8  1  0  0  0  0
  7  9  1  0  0  0  0
 29 30  1  0  0  0  0
 29 31  1  0  0  0  0
 29 32  1  0  0  0  0
 27 28  1  0  0  0  0
 27 29  1  0  0  0  0
M  END
$$$$
default_name
  -OEChem-02102213163D

 32 32  0     1  0  0  0  0  0999 V2000
   -3.8405   -3.7518    1.6252 H   0  0  0  0  0  0  0  0  0  0  0  0
   -3.7965   -2.8768    0.9782 C   0  0  0  0  0  0  0  0  0  0  0  0
   -4.5465   -2.1527    1.2902 H   0  0  0  0  0  0  0  0  0  0  0  0
   -3.9745   -3.1748   -0.0538 H   0  0  0  0  0  0  0  0  0  0  0  0
   -2.4245   -2.2537    1.0882 C   0  0  0  0  0  0  0  0  0  0  0  0
   -1.5805   -2.7478    1.8242 O   0  0  0  0  0  0  0  0  0  0  0  0
   -2.2045   -1.1637    0.3562 N   0  0  0  0  0  0  0  0  0  0  0  0
   -2.9595   -0.7907   -0.2008 H   0  0  0  0  0  0  0  0  0  0  0  0
   -0.9485   -0.4087    0.3482 C   0  0  1  0  0  0  0  0  0  0  0  0
   -0.3666   -0.6914    1.2269 H   0  0  0  0  0  0  0  0  0  0  0  0
   -0.1405   -0.7797   -0.9072 C   0  0  0  0  0  0  0  0  0  0  0  0
    0.8901   -0.4464   -0.7775 H   0  0  0  0  0  0  0  0  0  0  0  0
   -0.1232   -1.8659   -1.0085 H   0  0  0  0  0  0  0  0  0  0  0  0
   -0.6756   -0.1659   -2.1869 C   0  0  0  0  0  0  0  0  0  0  0  0
   -1.9679    0.3913   -2.2248 C   0  0  0  0  0  0  0  0  0  0  0  0
   -2.5965    0.3644   -1.3459 H   0  0  0  0  0  0  0  0  0  0  0  0
   -2.4416    0.9957   -3.4038 C   0  0  0  0  0  0  0  0  0  0  0  0
   -3.4352    1.4207   -3.4315 H   0  0  0  0  0  0  0  0  0  0  0  0
   -1.6242    1.0457   -4.5457 C   0  0  0  0  0  0  0  0  0  0  0  0
   -1.9891    1.5080   -5.4523 H   0  0  0  0  0  0  0  0  0  0  0  0
   -0.3329    0.4886   -4.5117 C   0  0  0  0  0  0  0  0  0  0  0  0
    0.2935    0.5221   -5.3910 H   0  0  0  0  0  0  0  0  0  0  0  0
    0.1390   -0.1183   -3.3343 C   0  0  0  0  0  0  0  0  0  0  0  0
    1.1314   -0.5496   -3.3105 H   0  0  0  0  0  0  0  0  0  0  0  0
   -1.2168    1.1047    0.4313 C   0  0  0  0  0  0  0  0  0  0  0  0
   -2.0890    1.6186   -0.2704 O   0  0  0  0  0  0  0  0  0  0  0  0
   -0.4674    1.8182    1.2813 N   0  0  0  0  0  0  0  0  0  0  0  0
    0.2640    1.3348    1.7800 H   0  0  0  0  0  0  0  0  0  0  0  0
   -0.5889    3.2615    1.4722 C   0  0  0  0  0  0  0  0  0  0  0  0
   -1.6291    3.5206    1.6805 H   0  0  0  0  0  0  0  0  0  0  0  0
    0.0359    3.5855    2.3049 H   0  0  0  0  0  0  0  0  0  0  0  0
   -0.2760    3.7797    0.5637 H   0  0  0  0  0  0  0  0  0  0  0  0
  5  6  2  0  0  0  0
  5  7  1  0  0  0  0
  2  3  1  0  0  0  0
  2  4  1  0  0  0  0
  2  5  1  0  0  0  0
  1  2  1  0  0  0  0
 25 26  2  0  0  0  0
 25 27  1  0  0  0  0
 23 24  1  0  0  0  0
 21 22  1  0  0  0  0
 21 23  2  0  0  0  0
 19 20  1  0  0  0  0
 19 21  1  0  0  0  0
 17 18  1  0  0  0  0
 17 19  2  0  0  0  0
 15 16  1  0  0  0  0
 15 17  1  0  0  0  0
 14 15  2  0  0  0  0
 14 23  1  0  0  0  0
 11 12  1  0  0  0  0
 11 13  1  0  0  0  0
 11 14  1  0  0  0  0
  9 10  1  0  0  0  0
  9 11  1  0  0  0  0
  9 25  1  0  0  0  0
  7  8  1  0  0  0  0
  7  9  1  0  0  0  0
 29 30  1  0  0  0  0
 29 31  1  0  0  0  0
 29 32  1  0  0  0  0
 27 28  1  0  0  0  0
 27 29  1  0  0  0  0
M  END
$$$$
default_name
  -OEChem-02102213163D

 32 32  0     1  0  0  0  0  0999 V2000
   -3.8405   -3.7518    1.6252 H   0  0  0  0  0  0  0  0  0  0  0  0
   -3.7965   -2.8768    0.9782 C   0  0  0  0  0  0  0  0  0  0  0  0
   -4.5465   -2.1527    1.2902 H   0  0  0  0  0  0  0  0  0  0  0  0
   -3.9745   -3.1748   -0.0538 H   0  0  0  0  0  0  0  0  0  0  0  0
   -2.4245   -2.2537    1.0882 C   0  0  0  0  0  0  0  0  0  0  0  0
   -1.5805   -2.7478    1.8242 O   0  0  0  0  0  0  0  0  0  0  0  0
   -2.2045   -1.1637    0.3562 N   0  0  0  0  0  0  0  0  0  0  0  0
   -2.9595   -0.7907   -0.2008 H   0  0  0  0  0  0  0  0  0  0  0  0
   -0.9485   -0.4087    0.3482 C   0  0  1  0  0  0  0  0  0  0  0  0
   -0.3666   -0.6914    1.2269 H   0  0  0  0  0  0  0  0  0  0  0  0
   -0.1405   -0.7797   -0.9072 C   0  0  0  0  0  0  0  0  0  0  0  0
    0.8901   -0.4464   -0.7775 H   0  0  0  0  0  0  0  0  0  0  0  0
   -0.1232   -1.8659   -1.0085 H   0  0  0  0  0  0  0  0  0  0  0  0
   -0.6756   -0.1659   -2.1869 C   0  0  0  0  0  0  0  0  0  0  0  0
   -1.8147    0.6609   -2.1596 C   0  0  0  0  0  0  0  0  0  0  0  0
   -2.3293    0.8451   -1.2271 H   0  0  0  0  0  0  0  0  0  0  0  0
   -2.2807    1.2599   -3.3444 C   0  0  0  0  0  0  0  0  0  0  0  0
   -3.1571    1.8923   -3.3216 H   0  0  0  0  0  0  0  0  0  0  0  0
   -1.6081    1.0351   -4.5576 C   0  0  0  0  0  0  0  0  0  0  0  0
   -1.9676    1.4934   -5.4683 H   0  0  0  0  0  0  0  0  0  0  0  0
   -0.4704    0.2082   -4.5887 C   0  0  0  0  0  0  0  0  0  0  0  0
    0.0435    0.0309   -5.5221 H   0  0  0  0  0  0  0  0  0  0  0  0
   -0.0069   -0.3929   -3.4050 C   0  0  0  0  0  0  0  0  0  0  0  0
    0.8665   -1.0315   -3.4309 H   0  0  0  0  0  0  0  0  0  0  0  0
   -1.2168    1.1047    0.4313 C   0  0  0  0  0  0  0  0  0  0  0  0
   -2.0890    1.6186   -0.2704 O   0  0  0  0  0  0  0  0  0  0  0  0
   -0.4674    1.8182    1.2813 N   0  0  0  0  0  0  0  0  0  0  0  0
    0.2640    1.3348    1.7800 H   0  0  0  0  0  0  0  0  0  0  0  0
   -0.5889    3.2615    1.4722 C   0  0  0  0  0  0  0  0  0  0  0  0
   -1.6291    3.5206    1.6805 H   0  0  0  0  0  0  0  0  0  0  0  0
    0.0359    3.5855    2.3049 H   0  0  0  0  0  0  0  0  0  0  0  0
   -0.2760    3.7797    0.5637 H   0  0  0  0  0  0  0  0  0  0  0  0
  5  6  2  0  0  0  0
  5  7  1  0  0  0  0
  2  3  1  0  0  0  0
  2  4  1  0  0  0  0
  2  5  1  0  0  0  0
  1  2  1  0  0  0  0
 25 26  2  0  0  0  0
 25 27  1  0  0  0  0
 23 24  1  0  0  0  0
 21 22  1  0  0  0  0
 21 23  2  0  0  0  0
 19 20  1  0  0  0  0
 19 21  1  0  0  0  0
 17 18  1  0  0  0  0
 17 19  2  0  0  0  0
 15 16  1  0  0  0  0
 15 17  1  0  0  0  0
 14 15  2  0  0  0  0
 14 23  1  0  0  0  0
 11 12  1  0  0  0  0
 11 13  1  0  0  0  0
 11 14  1  0  0  0  0
  9 10  1  0  0  0  0
  9 11  1  0  0  0  0
  9 25  1  0  0  0  0
  7  8  1  0  0  0  0
  7  9  1  0  0  0  0
 29 30  1  0  0  0  0
 29 31  1  0  0  0  0
 29 32  1  0  0  0  0
 27 28  1  0  0  0  0
 27 29  1  0  0  0  0
M  END
$$$$
default_name
  -OEChem-02102213163D

 32 32  0     1  0  0  0  0  0999 V2000
   -3.8405   -3.7518    1.6252 H   0  0  0  0  0  0  0  0  0  0  0  0
   -3.7965   -2.8768    0.9782 C   0  0  0  0  0  0  0  0  0  0  0  0
   -4.5465   -2.1527    1.2902 H   0  0  0  0  0  0  0  0  0  0  0  0
   -3.9745   -3.1748   -0.0538 H   0  0  0  0  0  0  0  0  0  0  0  0
   -2.4245   -2.2537    1.0882 C   0  0  0  0  0  0  0  0  0  0  0  0
   -1.5805   -2.7478    1.8242 O   0  0  0  0  0  0  0  0  0  0  0  0
   -2.2045   -1.1637    0.3562 N   0  0  0  0  0  0  0  0  0  0  0  0
   -2.9595   -0.7907   -0.2008 H   0  0  0  0  0  0  0  0  0  0  0  0
   -0.9485   -0.4087    0.3482 C   0  0  1  0  0  0  0  0  0  0  0  0
   -0.3666   -0.6914    1.2269 H   0  0  0  0  0  0  0  0  0  0  0  0
   -0.1405   -0.7797   -0.9072 C   0  0  0  0  0  0  0  0  0  0  0  0
    0.8901   -0.4464   -0.7775 H   0  0  0  0  0  0  0  0  0  0  0  0
   -0.1232   -1.8659   -1.0085 H   0  0  0  0  0  0  0  0  0  0  0  0
   -0.6756   -0.1659   -2.1869 C   0  0  0  0  0  0  0  0  0  0  0  0
   -1.6010    0.8938   -2.1372 C   0  0  0  0  0  0  0  0  0  0  0  0
   -1.9538    1.2619   -1.1842 H   0  0  0  0  0  0  0  0  0  0  0  0
   -2.0614    1.4854   -3.3280 C   0  0  0  0  0  0  0  0  0  0  0  0
   -2.7739    2.2972   -3.2876 H   0  0  0  0  0  0  0  0  0  0  0  0
   -1.5962    1.0202   -4.5697 C   0  0  0  0  0  0  0  0  0  0  0  0
   -1.9517    1.4731   -5.4846 H   0  0  0  0  0  0  0  0  0  0  0  0
   -0.6726   -0.0396   -4.6230 C   0  0  0  0  0  0  0  0  0  0  0  0
   -0.3191   -0.4009   -5.5776 H   0  0  0  0  0  0  0  0  0  0  0  0
   -0.2152   -0.6328   -3.4329 C   0  0  0  0  0  0  0  0  0  0  0  0
    0.4928   -1.4502   -3.4754 H   0  0  0  0  0  0  0  0  0  0  0  0
   -1.2168    1.1047    0.4313 C   0  0  0  0  0  0  0  0  0  0  0  0
   -2.0890    1.6186   -0.2704 O   0  0  0  0  0  0  0  0  0  0  0  0
   -0.4674    1.8182    1.2813 N   0  0  0  0  0  0  0  0  0  0  0  0
    0.2640    1.3348    1.7800 H   0  0  0  0  0  0  0  0  0  0  0  0
   -0.5889    3.2615    1.4722 C   0  0  0  0  0  0  0  0  0  0  0  0
   -1.6291    3.5206    1.6805 H   0  0  0  0  0  0  0  0  0  0  0  0
    0.0359    3.5855    2.3049 H   0  0  0  0  0  0  0  0  0  0  0  0
   -0.2760    3.7797    0.5637 H   0  0  0  0  0  0  0  0  0  0  0  0
  5  6  2  0  0  0  0
  5  7  1  0  0  0  0
  2  3  1  0  0  0  0
  2  4  1  0  0  0  0
  2  5  1  0  0  0  0
  1  2  1  0  0  0  0
 25 26  2  0  0  0  0
 25 27  1  0  0  0  0
 23 24  1  0  0  0  0
 21 22  1  0  0  0  0
 21 23  2  0  0  0  0
 19 20  1  0  0  0  0
 19 21  1  0  0  0  0
 17 18  1  0  0  0  0
 17 19  2  0  0  0  0
 15 16  1  0  0  0  0
 15 17  1  0  0  0  0
 14 15  2  0  0  0  0
 14 23  1  0  0  0  0
 11 12  1  0  0  0  0
 11 13  1  0  0  0  0
 11 14  1  0  0  0  0
  9 10  1  0  0  0  0
  9 11  1  0  0  0  0
  9 25  1  0  0  0  0
  7  8  1  0  0  0  0
  7  9  1  0  0  0  0
 29 30  1  0  0  0  0
 29 31  1  0  0  0  0
 29 32  1  0  0  0  0
 27 28  1  0  0  0  0
 27 29  1  0  0  0  0
M  END
$$$$
default_name
  -OEChem-02102213163D

 32 32  0     1  0  0  0  0  0999 V2000
   -3.8405   -3.7518    1.6252 H   0  0  0  0  0  0  0  0  0  0  0  0
   -3.7965   -2.8768    0.9782 C   0  0  0  0  0  0  0  0  0  0  0  0
   -4.5465   -2.1527    1.2902 H   0  0  0  0  0  0  0  0  0  0  0  0
   -3.9745   -3.1748   -0.0538 H   0  0  0  0  0  0  0  0  0  0  0  0
   -2.4245   -2.2537    1.0882 C   0  0  0  0  0  0  0  0  0  0  0  0
   -1.5805   -2.7478    1.8242 O   0  0  0  0  0  0  0  0  0  0  0  0
   -2.2045   -1.1637    0.3562 N   0  0  0  0  0  0  0  0  0  0  0  0
   -2.9595   -0.7907   -0.2008 H   0  0  0  0  0  0  0  0  0  0  0  0
   -0.9485   -0.4087    0.3482 C   0  0  1  0  0  0  0  0  0  0  0  0
   -0.3666   -0.6914    1.2269 H   0  0  0  0  0  0  0  0  0  0  0  0
   -0.1405   -0.7797   -0.9072 C   0  0  0  0  0  0  0  0  0  0  0  0
    0.8901   -0.4464   -0.7775 H   0  0  0  0  0  0  0  0  0  0  0  0
   -0.1232   -1.8659   -1.0085 H   0  0  0  0  0  0  0  0  0  0  0  0
   -0.6756   -0.1659   -2.1869 C   0  0  0  0  0  0  0  0  0  0  0  0
   -1.3414    1.0741   -2.1592 C   0  0  0  0  0  0  0  0  0  0  0  0
   -1.4957    1.5865   -1.2201 H   0  0  0  0  0  0  0  0  0  0  0  0
   -1.7985    1.6568   -3.3557 C   0  0  0  0  0  0  0  0  0  0  0  0
   -2.3119    2.6078   -3.3319 H   0  0  0  0  0  0  0  0  0  0  0  0
   -1.5892    1.0021   -4.5813 C   0  0  0  0  0  0  0  0  0  0  0  0
   -1.9425    1.4486   -5.5003 H   0  0  0  0  0  0  0  0  0  0  0  0
   -0.9255   -0.2379   -4.6124 C   0  0  0  0  0  0  0  0  0  0  0  0
   -0.7693   -0.7439   -5.5538 H   0  0  0  0  0  0  0  0  0  0  0  0
   -0.4718   -0.8215   -3.4162 C   0  0  0  0  0  0  0  0  0  0  0  0
    0.0357   -1.7771   -3.4411 H   0  0  0  0  0  0  0  0  0  0  0  0
   -1.2168    1.1047    0.4313 C   0  0  0  0  0  0  0  0  0  0  0  0
   -2.0890    1.6186   -0.2704 O   0  0  0  0  0  0  0  0  0  0  0  0
   -0.4674    1.8182    1.2813 N   0  0  0  0  0  0  0  0  0  0  0  0
    0.2640    1.3348    1.7800 H   0  0  0  0  0  0  0  0  0  0  0  0
   -0.5889    3.2615    1.4722 C   0  0  0  0  0  0  0  0  0  0  0  0
   -1.6291    3.5206    1.6805 H   0  0  0  0  0  0  0  0  0  0  0  0
    0.0359    3.5855    2.3049 H   0  0  0  0  0  0  0  0  0  0  0  0
   -0.2760    3.7797    0.5637 H   0  0  0  0  0  0  0  0  0  0  0  0
  5  6  2  0  0  0  0
  5  7  1  0  0  0  0
  2  3  1  0  0  0  0
  2  4  1  0  0  0  0
  2  5  1  0  0  0  0
  1  2  1  0  0  0  0
 25 26  2  0  0  0  0
 25 27  1  0  0  0  0
 23 24  1  0  0  0  0
 21 22  1  0  0  0  0
 21 23  2  0  0  0  0
 19 20  1  0  0  0  0
 19 21  1  0  0  0  0
 17 18  1  0  0  0  0
 17 19  2  0  0  0  0
 15 16  1  0  0  0  0
 15 17  1  0  0  0  0
 14 15  2  0  0  0  0
 14 23  1  0  0  0  0
 11 12  1  0  0  0  0
 11 13  1  0  0  0  0
 11 14  1  0  0  0  0
  9 10  1  0  0  0  0
  9 11  1  0  0  0  0
  9 25  1  0  0  0  0
  7  8  1  0  0  0  0
  7  9  1  0  0  0  0
 29 30  1  0  0  0  0
 29 31  1  0  0  0  0
 29 32  1  0  0  0  0
 27 28  1  0  0  0  0
 27 29  1  0  0  0  0
M  END
$$$$
default_name
  -OEChem-02102213163D

 32 32  0     1  0  0  0  0  0999 V2000
   -3.8405   -3.7518    1.6252 H   0  0  0  0  0  0  0  0  0  0  0  0
   -3.7965   -2.8768    0.9782 C   0  0  0  0  0  0  0  0  0  0  0  0
   -4.5465   -2.1527    1.2902 H   0  0  0  0  0  0  0  0  0  0  0  0
   -3.9745   -3.1748   -0.0538 H   0  0  0  0  0  0  0  0  0  0  0  0
   -2.4245   -2.2537    1.0882 C   0  0  0  0  0  0  0  0  0  0  0  0
   -1.5805   -2.7478    1.8242 O   0  0  0  0  0  0  0  0  0  0  0  0
   -2.2045   -1.1637    0.3562 N   0  0  0  0  0  0  0  0  0  0  0  0
   -2.9595   -0.7907   -0.2008 H   0  0  0  0  0  0  0  0  0  0  0  0
   -0.9485   -0.4087    0.3482 C   0  0  1  0  0  0  0  0  0  0  0  0
   -0.3666   -0.6914    1.2269 H   0  0  0  0  0  0  0  0  0  0  0  0
   -0.1405   -0.7797   -0.9072 C   0  0  0  0  0  0  0  0  0  0  0  0
    0.8901   -0.4464   -0.7775 H   0  0  0  0  0  0  0  0  0  0  0  0
   -0.1232   -1.8659   -1.0085 H   0  0  0  0  0  0  0  0  0  0  0  0
   -0.6756   -0.1659   -2.1869 C   0  0  0  0  0  0  0  0  0  0  0  0
   -1.0536    1.1897   -2.2241 C   0  0  0  0  0  0  0  0  0  0  0  0
   -0.9860    1.7966   -1.3324 H   0  0  0  0  0  0  0  0  0  0  0  0
   -1.5101    1.7624   -3.4256 C   0  0  0  0  0  0  0  0  0  0  0  0
   -1.8023    2.8028   -3.4513 H   0  0  0  0  0  0  0  0  0  0  0  0
   -1.5876    0.9820   -4.5916 C   0  0  0  0  0  0  0  0  0  0  0  0
   -1.9406    1.4214   -5.5141 H   0  0  0  0  0  0  0  0  0  0  0  0
   -1.2120   -0.3733   -4.5575 C   0  0  0  0  0  0  0  0  0  0  0  0
   -1.2767   -0.9747   -5.4524 H   0  0  0  0  0  0  0  0  0  0  0  0
   -0.7590   -0.9462   -3.3559 C   0  0  0  0  0  0  0  0  0  0  0  0
   -0.4735   -1.9899   -3.3302 H   0  0  0  0  0  0  0  0  0  0  0  0
   -1.2168    1.1047    0.4313 C   0  0  0  0  0  0  0  0  0  0  0  0
   -2.0890    1.6186   -0.2704 O   0  0  0  0  0  0  0  0  0  0  0  0
   -0.4674    1.8182    1.2813 N   0  0  0  0  0  0  0  0  0  0  0  0
    0.2640    1.3348    1.7800 H   0  0  0  0  0  0  0  0  0  0  0  0
   -0.5889    3.2615    1.4722 C   0  0  0  0  0  0  0  0  0  0  0  0
   -1.6291    3.5206    1.6805 H   0  0  0  0  0  0  0  0  0  0  0  0
    0.0359    3.5855    2.3049 H   0  0  0  0  0  0  0  0  0  0  0  0
   -0.2760    3.7797    0.5637 H   0  0  0  0  0  0  0  0  0  0  0  0
  5  6  2  0  0  0  0
  5  7  1  0  0  0  0
  2  3  1  0  0  0  0
  2  4  1  0  0  0  0
  2  5  1  0  0  0  0
  1  2  1  0  0  0  0
 25 26  2  0  0  0  0
 25 27  1  0  0  0  0
 23 24  1  0  0  0  0
 21 22  1  0  0  0  0
 21 23  2  0  0  0  0
 19 20  1  0  0  0  0
 19 21  1  0  0  0  0
 17 18  1  0  0  0  0
 17 19  2  0  0  0  0
 15 16  1  0  0  0  0
 15 17  1  0  0  0  0
 14 15  2  0  0  0  0
 14 23  1  0  0  0  0
 11 12  1  0  0  0  0
 11 13  1  0  0  0  0
 11 14  1  0  0  0  0
  9 10  1  0  0  0  0
  9 11  1  0  0  0  0
  9 25  1  0  0  0  0
  7  8  1  0  0  0  0
  7  9  1  0  0  0  0
 29 30  1  0  0  0  0
 29 31  1  0  0  0  0
 29 32  1  0  0  0  0
 27 28  1  0  0  0  0
 27 29  1  0  0  0  0
M  END
$$$$
default_name
  -OEChem-02102213163D

 32 32  0     1  0  0  0  0  0999 V2000
   -3.8405   -3.7518    1.6252 H   0  0  0  0  0  0  0  0  0  0  0  0
   -3.7965   -2.8768    0.9782 C   0  0  0  0  0  0  0  0  0  0  0  0
   -4.5465   -2.1527    1.2902 H   0  0  0  0  0  0  0  0  0  0  0  0
   -3.9745   -3.1748   -0.0538 H   0  0  0  0  0  0  0  0  0  0  0  0
   -2.4245   -2.2537    1.0882 C   0  0  0  0  0  0  0  0  0  0  0  0
   -1.5805   -2.7478    1.8242 O   0  0  0  0  0  0  0  0  0  0  0  0
   -2.2045   -1.1637    0.3562 N   0  0  0  0  0  0  0  0  0  0  0  0
   -2.9595   -0.7907   -0.2008 H   0  0  0  0  0  0  0  0  0  0  0  0
   -0.9485   -0.4087    0.3482 C   0  0  1  0  0  0  0  0  0  0  0  0
   -0.3666   -0.6914    1.2269 H   0  0  0  0  0  0  0  0  0  0  0  0
   -0.1405   -0.7797   -0.9072 C   0  0  0  0  0  0  0  0  0  0  0  0
    0.8901   -0.4464   -0.7775 H   0  0  0  0  0  0  0  0  0  0  0  0
   -0.1232   -1.8659   -1.0085 H   0  0  0  0  0  0  0  0  0  0  0  0
   -0.6756   -0.1659   -2.1869 C   0  0  0  0  0  0  0  0  0  0  0  0
   -0.7572    1.2325   -2.3275 C   0  0  0  0  0  0  0  0  0  0  0  0
   -0.4595    1.8781   -1.5134 H   0  0  0  0  0  0  0  0  0  0  0  0
   -1.2158    1.7951   -3.5330 C   0  0  0  0  0  0  0  0  0  0  0  0
   -1.2801    2.8690   -3.6379 H   0  0  0  0  0  0  0  0  0  0  0  0
   -1.5915    0.9613   -4.5999 C   0  0  0  0  0  0  0  0  0  0  0  0
   -1.9461    1.3935   -5.5251 H   0  0  0  0  0  0  0  0  0  0  0  0
   -1.5126   -0.4365   -4.4622 C   0  0  0  0  0  0  0  0  0  0  0  0
   -1.8065   -1.0776   -5.2803 H   0  0  0  0  0  0  0  0  0  0  0  0
   -1.0574   -0.9985   -3.2562 C   0  0  0  0  0  0  0  0  0  0  0  0
   -1.0003   -2.0741   -3.1504 H   0  0  0  0  0  0  0  0  0  0  0  0
   -1.2168    1.1047    0.4313 C   0  0  0  0  0  0  0  0  0  0  0  0
   -2.0890    1.6186   -0.2704 O   0  0  0  0  0  0  0  0  0  0  0  0
   -0.4674    1.8182    1.2813 N   0  0  0  0  0  0  0  0  0  0  0  0
    0.2640    1.3348    1.7800 H   0  0  0  0  0  0  0  0  0  0  0  0
   -0.5889    3.2615    1.4722 C   0  0  0  0  0  0  0  0  0  0  0  0
   -1.6291    3.5206    1.6805 H   0  0  0  0  0  0  0  0  0  0  0  0
    0.0359    3.5855    2.3049 H   0  0  0  0  0  0  0  0  0  0  0  0
   -0.2760    3.7797    0.5637 H   0  0  0  0  0  0  0  0  0  0  0  0
  5  6  2  0  0  0  0
  5  7  1  0  0  0  0
  2  3  1  0  0  0  0
  2  4  1  0  0  0  0
  2  5  1  0  0  0  0
  1  2  1  0  0  0  0
 25 26  2  0  0  0  0
 25 27  1  0  0  0  0
 23 24  1  0  0  0  0
 21 22  1  0  0  0  0
 21 23  2  0  0  0  0
 19 20  1  0  0  0  0
 19 21  1  0  0  0  0
 17 18  1  0  0  0  0
 17 19  2  0  0  0  0
 15 16  1  0  0  0  0
 15 17  1  0  0  0  0
 14 15  2  0  0  0  0
 14 23  1  0  0  0  0
 11 12  1  0  0  0  0
 11 13  1  0  0  0  0
 11 14  1  0  0  0  0
  9 10  1  0  0  0  0
  9 11  1  0  0  0  0
  9 25  1  0  0  0  0
  7  8  1  0  0  0  0
  7  9  1  0  0  0  0
 29 30  1  0  0  0  0
 29 31  1  0  0  0  0
 29 32  1  0  0  0  0
 27 28  1  0  0  0  0
 27 29  1  0  0  0  0
M  END
$$$$
default_name
  -OEChem-02102213163D

 32 32  0     1  0  0  0  0  0999 V2000
   -3.8405   -3.7518    1.6252 H   0  0  0  0  0  0  0  0  0  0  0  0
   -3.7965   -2.8768    0.9782 C   0  0  0  0  0  0  0  0  0  0  0  0
   -4.5465   -2.1527    1.2902 H   0  0  0  0  0  0  0  0  0  0  0  0
   -3.9745   -3.1748   -0.0538 H   0  0  0  0  0  0  0  0  0  0  0  0
   -2.4245   -2.2537    1.0882 C   0  0  0  0  0  0  0  0  0  0  0  0
   -1.5805   -2.7478    1.8242 O   0  0  0  0  0  0  0  0  0  0  0  0
   -2.2045   -1.1637    0.3562 N   0  0  0  0  0  0  0  0  0  0  0  0
   -2.9595   -0.7907   -0.2008 H   0  0  0  0  0  0  0  0  0  0  0  0
   -0.9485   -0.4087    0.3482 C   0  0  1  0  0  0  0  0  0  0  0  0
   -0.3666   -0.6914    1.2269 H   0  0  0  0  0  0  0  0  0  0  0  0
   -0.1405   -0.7797   -0.9072 C   0  0  0  0  0  0  0  0  0  0  0  0
    0.8901   -0.4464   -0.7775 H   0  0  0  0  0  0  0  0  0  0  0  0
   -0.1232   -1.8659   -1.0085 H   0  0  0  0  0  0  0  0  0  0  0  0
   -0.6756   -0.1659   -2.1869 C   0  0  0  0  0  0  0  0  0  0  0  0
   -0.4724    1.1996   -2.4624 C   0  0  0  0  0  0  0  0  0  0  0  0
    0.0478    1.8253   -1.7508 H   0  0  0  0  0  0  0  0  0  0  0  0
   -0.9356    1.7525   -3.6705 C   0  0  0  0  0  0  0  0  0  0  0  0
   -0.7808    2.8019   -3.8789 H   0  0  0  0  0  0  0  0  0  0  0  0
   -1.6007    0.9414   -4.6056 C   0  0  0  0  0  0  0  0  0  0  0  0
   -1.9587    1.3668   -5.5327 H   0  0  0  0  0  0  0  0  0  0  0  0
   -1.8067   -0.4232   -4.3328 C   0  0  0  0  0  0  0  0  0  0  0  0
   -2.3227   -1.0456   -5.0491 H   0  0  0  0  0  0  0  0  0  0  0  0
   -1.3466   -0.9747   -3.1239 C   0  0  0  0  0  0  0  0  0  0  0  0
   -1.5087   -2.0240   -2.9138 H   0  0  0  0  0  0  0  0  0  0  0  0
   -1.2168    1.1047    0.4313 C   0  0  0  0  0  0  0  0  0  0  0  0
   -2.0890    1.6186   -0.2704 O   0  0  0  0  0  0  0  0  0  0  0  0
   -0.4674    1.8182    1.2813 N   0  0  0  0  0  0  0  0  0  0  0  0
    0.2640    1.3348    1.7800 H   0  0  0  0  0  0  0  0  0  0  0  0
   -0.5889    3.2615    1.4722 C   0  0  0  0  0  0  0  0  0  0  0  0
   -1.6291    3.5206    1.6805 H   0  0  0  0  0  0  0  0  0  0  0  0
    0.0359    3.5855    2.3049 H   0  0  0  0  0  0  0  0  0  0  0  0
   -0.2760    3.7797    0.5637 H   0  0  0  0  0  0  0  0  0  0  0  0
  5  6  2  0  0  0  0
  5  7  1  0  0  0  0
  2  3  1  0  0  0  0
  2  4  1  0  0  0  0
  2  5  1  0  0  0  0
  1  2  1  0  0  0  0
 25 26  2  0  0  0  0
 25 27  1  0  0  0  0
 23 24  1  0  0  0  0
 21 22  1  0  0  0  0
 21 23  2  0  0  0  0
 19 20  1  0  0  0  0
 19 21  1  0  0  0  0
 17 18  1  0  0  0  0
 17 19  2  0  0  0  0
 15 16  1  0  0  0  0
 15 17  1  0  0  0  0
 14 15  2  0  0  0  0
 14 23  1  0  0  0  0
 11 12  1  0  0  0  0
 11 13  1  0  0  0  0
 11 14  1  0  0  0  0
  9 10  1  0  0  0  0
  9 11  1  0  0  0  0
  9 25  1  0  0  0  0
  7  8  1  0  0  0  0
  7  9  1  0  0  0  0
 29 30  1  0  0  0  0
 29 31  1  0  0  0  0
 29 32  1  0  0  0  0
 27 28  1  0  0  0  0
 27 29  1  0  0  0  0
M  END
$$$$
default_name
  -OEChem-02102213163D

 32 32  0     1  0  0  0  0  0999 V2000
   -3.8405   -3.7518    1.6252 H   0  0  0  0  0  0  0  0  0  0  0  0
   -3.7965   -2.8768    0.9782 C   0  0  0  0  0  0  0  0  0  0  0  0
   -4.5465   -2.1527    1.2902 H   0  0  0  0  0  0  0  0  0  0  0  0
   -3.9745   -3.1748   -0.0538 H   0  0  0  0  0  0  0  0  0  0  0  0
   -2.4245   -2.2537    1.0882 C   0  0  0  0  0  0  0  0  0  0  0  0
   -1.5805   -2.7478    1.8242 O   0  0  0  0  0  0  0  0  0  0  0  0
   -2.2045   -1.1637    0.3562 N   0  0  0  0  0  0  0  0  0  0  0  0
   -2.9595   -0.7907   -0.2008 H   0  0  0  0  0  0  0  0  0  0  0  0
   -0.9485   -0.4087    0.3482 C   0  0  1  0  0  0  0  0  0  0  0  0
   -0.3666   -0.6914    1.2269 H   0  0  0  0  0  0  0  0  0  0  0  0
   -0.1405   -0.7797   -0.9072 C   0  0  0  0  0  0  0  0  0  0  0  0
    0.8901   -0.4464   -0.7775 H   0  0  0  0  0  0  0  0  0  0  0  0
   -0.1232   -1.8659   -1.0085 H   0  0  0  0  0  0  0  0  0  0  0  0
   -0.6756   -0.1659   -2.1869 C   0  0  0  0  0  0  0  0  0  0  0  0
   -0.2185    1.0934   -2.6195 C   0  0  0  0  0  0  0  0  0  0  0  0
    0.5014    1.6418   -2.0285 H   0  0  0  0  0  0  0  0  0  0  0  0
   -0.6887    1.6377   -3.8288 C   0  0  0  0  0  0  0  0  0  0  0  0
   -0.3384    2.6060   -4.1578 H   0  0  0  0  0  0  0  0  0  0  0  0
   -1.6145    0.9237   -4.6083 C   0  0  0  0  0  0  0  0  0  0  0  0
   -1.9775    1.3430   -5.5363 H   0  0  0  0  0  0  0  0  0  0  0  0
   -2.0744   -0.3343   -4.1783 C   0  0  0  0  0  0  0  0  0  0  0  0
   -2.7902   -0.8808   -4.7746 H   0  0  0  0  0  0  0  0  0  0  0  0
   -1.6069   -0.8765   -2.9680 C   0  0  0  0  0  0  0  0  0  0  0  0
   -1.9640   -1.8429   -2.6366 H   0  0  0  0  0  0  0  0  0  0  0  0
   -1.2168    1.1047    0.4313 C   0  0  0  0  0  0  0  0  0  0  0  0
   -2.0890    1.6186   -0.2704 O   0  0  0  0  0  0  0  0  0  0  0  0
   -0.4674    1.8182    1.2813 N   0  0  0  0  0  0  0  0  0  0  0  0
    0.2640    1.3348    1.7800 H   0  0  0  0  0  0  0  0  0  0  0  0
   -0.5889    3.2615    1.4722 C   0  0  0  0  0  0  0  0  0  0  0  0
   -1.6291    3.5206    1.6805 H   0  0  0  0  0  0  0  0  0  0  0  0
    0.0359    3.5855    2.3049 H   0  0  0  0  0  0  0  0  0  0  0  0
   -0.2760    3.7797    0.5637 H   0  0  0  0  0  0  0  0  0  0  0  0
  5  6  2  0  0  0  0
  5  7  1  0  0  0  0
  2  3  1  0  0  0  0
  2  4  1  0  0  0  0
  2  5  1  0  0  0  0
  1  2  1  0  0  0  0
 25 26  2  0  0  0  0
 25 27  1  0  0  0  0
 23 24  1  0  0  0  0
 21 22  1  0  0  0  0
 21 23  2  0  0  0  0
 19 20  1  0  0  0  0
 19 21  1  0  0  0  0
 17 18  1  0  0  0  0
 17 19  2  0  0  0  0
 15 16  1  0  0  0  0
 15 17  1  0  0  0  0
 14 15  2  0  0  0  0
 14 23  1  0  0  0  0
 11 12  1  0  0  0  0
 11 13  1  0  0  0  0
 11 14  1  0  0  0  0
  9 10  1  0  0  0  0
  9 11  1  0  0  0  0
  9 25  1  0  0  0  0
  7  8  1  0  0  0  0
  7  9  1  0  0  0  0
 29 30  1  0  0  0  0
 29 31  1  0  0  0  0
 29 32  1  0  0  0  0
 27 28  1  0  0  0  0
 27 29  1  0  0  0  0
M  END
$$$$
default_name
  -OEChem-02102213163D

 32 32  0     1  0  0  0  0  0999 V2000
   -3.8405   -3.7518    1.6252 H   0  0  0  0  0  0  0  0  0  0  0  0
   -3.7965   -2.8768    0.9782 C   0  0  0  0  0  0  0  0  0  0  0  0
   -4.5465   -2.1527    1.2902 H   0  0  0  0  0  0  0  0  0  0  0  0
   -3.9745   -3.1748   -0.0538 H   0  0  0  0  0  0  0  0  0  0  0  0
   -2.4245   -2.2537    1.0882 C   0  0  0  0  0  0  0  0  0  0  0  0
   -1.5805   -2.7478    1.8242 O   0  0  0  0  0  0  0  0  0  0  0  0
   -2.2045   -1.1637    0.3562 N   0  0  0  0  0  0  0  0  0  0  0  0
   -2.9595   -0.7907   -0.2008 H   0  0  0  0  0  0  0  0  0  0  0  0
   -0.9485   -0.4087    0.3482 C   0  0  1  0  0  0  0  0  0  0  0  0
   -0.3666   -0.6914    1.2269 H   0  0  0  0  0  0  0  0  0  0  0  0
   -0.1405   -0.7797   -0.9072 C   0  0  0  0  0  0  0  0  0  0  0  0
    0.8901   -0.4464   -0.7775 H   0  0  0  0  0  0  0  0  0  0  0  0
   -0.1232   -1.8659   -1.0085 H   0  0  0  0  0  0  0  0  0  0  0  0
   -0.6756   -0.1659   -2.1869 C   0  0  0  0  0  0  0  0  0  0  0  0
   -0.0130    0.9210   -2.7881 C   0  0  0  0  0  0  0  0  0  0  0  0
    0.8705    1.3402   -2.3274 H   0  0  0  0  0  0  0  0  0  0  0  0
   -0.4918    1.4585   -3.9971 C   0  0  0  0  0  0  0  0  0  0  0  0
    0.0170    2.2948   -4.4556 H   0  0  0  0  0  0  0  0  0  0  0  0
   -1.6320    0.9094   -4.6079 C   0  0  0  0  0  0  0  0  0  0  0  0
   -2.0012    1.3238   -5.5355 H   0  0  0  0  0  0  0  0  0  0  0  0
   -2.2974   -0.1759   -4.0091 C   0  0  0  0  0  0  0  0  0  0  0  0
   -3.1770   -0.5946   -4.4756 H   0  0  0  0  0  0  0  0  0  0  0  0
   -1.8205   -0.7106   -2.7991 C   0  0  0  0  0  0  0  0  0  0  0  0
   -2.3353   -1.5434   -2.3377 H   0  0  0  0  0  0  0  0  0  0  0  0
   -1.2168    1.1047    0.4313 C   0  0  0  0  0  0  0  0  0  0  0  0
   -2.0890    1.6186   -0.2704 O   0  0  0  0  0  0  0  0  0  0  0  0
   -0.4674    1.8182    1.2813 N   0  0  0  0  0  0  0  0  0  0  0  0
    0.2640    1.3348    1.7800 H   0  0  0  0  0  0  0  0  0  0  0  0
   -0.5889    3.2615    1.4722 C   0  0  0  0  0  0  0  0  0  0  0  0
   -1.6291    3.5206    1.6805 H   0  0  0  0  0  0  0  0  0  0  0  0
    0.0359    3.5855    2.3049 H   0  0  0  0  0  0  0  0  0  0  0  0
   -0.2760    3.7797    0.5637 H   0  0  0  0  0  0  0  0  0  0  0  0
  5  6  2  0  0  0  0
  5  7  1  0  0  0  0
  2  3  1  0  0  0  0
  2  4  1  0  0  0  0
  2  5  1  0  0  0  0
  1  2  1  0  0  0  0
 25 26  2  0  0  0  0
 25 27  1  0  0  0  0
 23 24  1  0  0  0  0
 21 22  1  0  0  0  0
 21 23  2  0  0  0  0
 19 20  1  0  0  0  0
 19 21  1  0  0  0  0
 17 18  1  0  0  0  0
 17 19  2  0  0  0  0
 15 16  1  0  0  0  0
 15 17  1  0  0  0  0
 14 15  2  0  0  0  0
 14 23  1  0  0  0  0
 11 12  1  0  0  0  0
 11 13  1  0  0  0  0
 11 14  1  0  0  0  0
  9 10  1  0  0  0  0
  9 11  1  0  0  0  0
  9 25  1  0  0  0  0
  7  8  1  0  0  0  0
  7  9  1  0  0  0  0
 29 30  1  0  0  0  0
 29 31  1  0  0  0  0
 29 32  1  0  0  0  0
 27 28  1  0  0  0  0
 27 29  1  0  0  0  0
M  END
$$$$
default_name
  -OEChem-02102213163D

 32 32  0     1  0  0  0  0  0999 V2000
   -3.8405   -3.7518    1.6252 H   0  0  0  0  0  0  0  0  0  0  0  0
   -3.7965   -2.8768    0.9782 C   0  0  0  0  0  0  0  0  0  0  0  0
   -4.5465   -2.1527    1.2902 H   0  0  0  0  0  0  0  0  0  0  0  0
   -3.9745   -3.1748   -0.0538 H   0  0  0  0  0  0  0  0  0  0  0  0
   -2.4245   -2.2537    1.0882 C   0  0  0  0  0  0  0  0  0  0  0  0
   -1.5805   -2.7478    1.8242 O   0  0  0  0  0  0  0  0  0  0  0  0
   -2.2045   -1.1637    0.3562 N   0  0  0  0  0  0  0  0  0  0  0  0
   -2.9595   -0.7907   -0.2008 H   0  0  0  0  0  0  0  0  0  0  0  0
   -0.9485   -0.4087    0.3482 C   0  0  1  0  0  0  0  0  0  0  0  0
   -0.3666   -0.6914    1.2269 H   0  0  0  0  0  0  0  0  0  0  0  0
   -0.1405   -0.7797   -0.9072 C   0  0  0  0  0  0  0  0  0  0  0  0
    0.8901   -0.4464   -0.7775 H   0  0  0  0  0  0  0  0  0  0  0  0
   -0.1232   -1.8659   -1.0085 H   0  0  0  0  0  0  0  0  0  0  0  0
   -0.6756   -0.1659   -2.1869 C   0  0  0  0  0  0  0  0  0  0  0  0
    0.1303    0.6943   -2.9567 C   0  0  0  0  0  0  0  0  0  0  0  0
    1.1298    0.9409   -2.6273 H   0  0  0  0  0  0  0  0  0  0  0  0
   -0.3584    1.2270   -4.1639 C   0  0  0  0  0  0  0  0  0  0  0  0
    0.2611    1.8893   -4.7522 H   0  0  0  0  0  0  0  0  0  0  0  0
   -1.6519    0.8994   -4.6043 C   0  0  0  0  0  0  0  0  0  0  0  0
   -2.0282    1.3105   -5.5306 H   0  0  0  0  0  0  0  0  0  0  0  0
   -2.4604    0.0413   -3.8368 C   0  0  0  0  0  0  0  0  0  0  0  0
   -3.4568   -0.2063   -4.1724 H   0  0  0  0  0  0  0  0  0  0  0  0
   -1.9730   -0.4883   -2.6287 C   0  0  0  0  0  0  0  0  0  0  0  0
   -2.5972   -1.1456   -2.0375 H   0  0  0  0  0  0  0  0  0  0  0  0
   -1.2168    1.1047    0.4313 C   0  0  0  0  0  0  0  0  0  0  0  0
   -2.0890    1.6186   -0.2704 O   0  0  0  0  0  0  0  0  0  0  0  0
   -0.4674    1.8182    1.2813 N   0  0  0  0  0  0  0  0  0  0  0  0
    0.2640    1.3348    1.7800 H   0  0  0  0  0  0  0  0  0  0  0  0
   -0.5889    3.2615    1.4722 C   0  0  0  0  0  0  0  0  0  0  0  0
   -1.6291    3.5206    1.6805 H   0  0  0  0  0  0  0  0  0  0  0  0
    0.0359    3.5855    2.3049 H   0  0  0  0  0  0  0  0  0  0  0  0
   -0.2760    3.7797    0.5637 H   0  0  0  0  0  0  0  0  0  0  0  0
  5  6  2  0  0  0  0
  5  7  1  0  0  0  0
  2  3  1  0  0  0  0
  2  4  1  0  0  0  0
  2  5  1  0  0  0  0
  1  2  1  0  0  0  0
 25 26  2  0  0  0  0
 25 27  1  0  0  0  0
 23 24  1  0  0  0  0
 21 22  1  0  0  0  0
 21 23  2  0  0  0  0
 19 20  1  0  0  0  0
 19 21  1  0  0  0  0
 17 18  1  0  0  0  0
 17 19  2  0  0  0  0
 15 16  1  0  0  0  0
 15 17  1  0  0  0  0
 14 15  2  0  0  0  0
 14 23  1  0  0  0  0
 11 12  1  0  0  0  0
 11 13  1  0  0  0  0
 11 14  1  0  0  0  0
  9 10  1  0  0  0  0
  9 11  1  0  0  0  0
  9 25  1  0  0  0  0
  7  8  1  0  0  0  0
  7  9  1  0  0  0  0
 29 30  1  0  0  0  0
 29 31  1  0  0  0  0
 29 32  1  0  0  0  0
 27 28  1  0  0  0  0
 27 29  1  0  0  0  0
M  END
$$$$
default_name
  -OEChem-02102213163D

 32 32  0     1  0  0  0  0  0999 V2000
   -3.8405   -3.7518    1.6252 H   0  0  0  0  0  0  0  0  0  0  0  0
   -3.7965   -2.8768    0.9782 C   0  0  0  0  0  0  0  0  0  0  0  0
   -4.5465   -2.1527    1.2902 H   0  0  0  0  0  0  0  0  0  0  0  0
   -3.9745   -3.1748   -0.0538 H   0  0  0  0  0  0  0  0  0  0  0  0
   -2.4245   -2.2537    1.0882 C   0  0  0  0  0  0  0  0  0  0  0  0
   -1.5805   -2.7478    1.8242 O   0  0  0  0  0  0  0  0  0  0  0  0
   -2.2045   -1.1637    0.3562 N   0  0  0  0  0  0  0  0  0  0  0  0
   -2.9595   -0.7907   -0.2008 H   0  0  0  0  0  0  0  0  0  0  0  0
   -0.9485   -0.4087    0.3482 C   0  0  1  0  0  0  0  0  0  0  0  0
   -0.3666   -0.6914    1.2269 H   0  0  0  0  0  0  0  0  0  0  0  0
   -0.1405   -0.7797   -0.9072 C   0  0  0  0  0  0  0  0  0  0  0  0
    0.8901   -0.4464   -0.7775 H   0  0  0  0  0  0  0  0  0  0  0  0
   -0.1232   -1.8659   -1.0085 H   0  0  0  0  0  0  0  0  0  0  0  0
   -0.6756   -0.1659   -2.1869 C   0  0  0  0  0  0  0  0  0  0  0  0
    0.2015    0.4285   -3.1139 C   0  0  0  0  0  0  0  0  0  0  0  0
    1.2616    0.4713   -2.9077 H   0  0  0  0  0  0  0  0  0  0  0  0
   -0.2975    0.9590   -4.3179 C   0  0  0  0  0  0  0  0  0  0  0  0
    0.3773    1.4173   -5.0271 H   0  0  0  0  0  0  0  0  0  0  0  0
   -1.6731    0.8944   -4.5979 C   0  0  0  0  0  0  0  0  0  0  0  0
   -2.0567    1.3040   -5.5218 H   0  0  0  0  0  0  0  0  0  0  0  0
   -2.5524    0.3024   -3.6731 C   0  0  0  0  0  0  0  0  0  0  0  0
   -3.6105    0.2575   -3.8857 H   0  0  0  0  0  0  0  0  0  0  0  0
   -2.0538   -0.2247   -2.4685 C   0  0  0  0  0  0  0  0  0  0  0  0
   -2.7318   -0.6768   -1.7564 H   0  0  0  0  0  0  0  0  0  0  0  0
   -1.2168    1.1047    0.4313 C   0  0  0  0  0  0  0  0  0  0  0  0
   -2.0890    1.6186   -0.2704 O   0  0  0  0  0  0  0  0  0  0  0  0
   -0.4674    1.8182    1.2813 N   0  0  0  0  0  0  0  0  0  0  0  0
    0.2640    1.3348    1.7800 H   0  0  0  0  0  0  0  0  0  0  0  0
   -0.5889    3.2615    1.4722 C   0  0  0  0  0  0  0  0  0  0  0  0
   -1.6291    3.5206    1.6805 H   0  0  0  0  0  0  0  0  0  0  0  0
    0.0359    3.5855    2.3049 H   0  0  0  0  0  0  0  0  0  0  0  0
   -0.2760    3.7797    0.5637 H   0  0  0  0  0  0  0  0  0  0  0  0
  5  6  2  0  0  0  0
  5  7  1  0  0  0  0
  2  3  1  0  0  0  0
  2  4  1  0  0  0  0
  2  5  1  0  0  0  0
  1  2  1  0  0  0  0
 25 26  2  0  0  0  0
 25 27  1  0  0  0  0
 23 24  1  0  0  0  0
 21 22  1  0  0  0  0
 21 23  2  0  0  0  0
 19 20  1  0  0  0  0
 19 21  1  0  0  0  0
 17 18  1  0  0  0  0
 17 19  2  0  0  0  0
 15 16  1  0  0  0  0
 15 17  1  0  0  0  0
 14 15  2  0  0  0  0
 14 23  1  0  0  0  0
 11 12  1  0  0  0  0
 11 13  1  0  0  0  0
 11 14  1  0  0  0  0
  9 10  1  0  0  0  0
  9 11  1  0  0  0  0
  9 25  1  0  0  0  0
  7  8  1  0  0  0  0
  7  9  1  0  0  0  0
 29 30  1  0  0  0  0
 29 31  1  0  0  0  0
 29 32  1  0  0  0  0
 27 28  1  0  0  0  0
 27 29  1  0  0  0  0
M  END
$$$$
default_name
  -OEChem-02102213163D

 32 32  0     1  0  0  0  0  0999 V2000
   -3.8405   -3.7518    1.6252 H   0  0  0  0  0  0  0  0  0  0  0  0
   -3.7965   -2.8768    0.9782 C   0  0  0  0  0  0  0  0  0  0  0  0
   -4.5465   -2.1527    1.2902 H   0  0  0  0  0  0  0  0  0  0  0  0
   -3.9745   -3.1748   -0.0538 H   0  0  0  0  0  0  0  0  0  0  0  0
   -2.4245   -2.2537    1.0882 C   0  0  0  0  0  0  0  0  0  0  0  0
   -1.5805   -2.7478    1.8242 O   0  0  0  0  0  0  0  0  0  0  0  0
   -2.2045   -1.1637    0.3562 N   0  0  0  0  0  0  0  0  0  0  0  0
   -2.9595   -0.7907   -0.2008 H   0  0  0  0  0  0  0  0  0  0  0  0
   -0.9485   -0.4087    0.3482 C   0  0  1  0  0  0  0  0  0  0  0  0
   -0.3666   -0.6914    1.2269 H   0  0  0  0  0  0  0  0  0  0  0  0
   -0.1405   -0.7797   -0.9072 C   0  0  0  0  0  0  0  0  0  0  0  0
    0.8901   -0.4464   -0.7775 H   0  0  0  0  0  0  0  0  0  0  0  0
   -0.1232   -1.8659   -1.0085 H   0  0  0  0  0  0  0  0  0  0  0  0
   -0.6756   -0.1659   -2.1869 C   0  0  0  0  0  0  0  0  0  0  0  0
    0.1958    0.1420   -3.2490 C   0  0  0  0  0  0  0  0  0  0  0  0
    1.2571   -0.0367   -3.1494 H   0  0  0  0  0  0  0  0  0  0  0  0
   -0.3134    0.6728   -4.4485 C   0  0  0  0  0  0  0  0  0  0  0  0
    0.3577    0.9109   -5.2618 H   0  0  0  0  0  0  0  0  0  0  0  0
   -1.6939    0.8948   -4.5890 C   0  0  0  0  0  0  0  0  0  0  0  0
   -2.0847    1.3048   -5.5097 H   0  0  0  0  0  0  0  0  0  0  0  0
   -2.5671    0.5896   -3.5292 C   0  0  0  0  0  0  0  0  0  0  0  0
   -3.6276    0.7653   -3.6350 H   0  0  0  0  0  0  0  0  0  0  0  0
   -2.0576    0.0623   -2.3293 C   0  0  0  0  0  0  0  0  0  0  0  0
   -2.7301   -0.1690   -1.5135 H   0  0  0  0  0  0  0  0  0  0  0  0
   -1.2168    1.1047    0.4313 C   0  0  0  0  0  0  0  0  0  0  0  0
   -2.0890    1.6186   -0.2704 O   0  0  0  0  0  0  0  0  0  0  0  0
   -0.4674    1.8182    1.2813 N   0  0  0  0  0  0  0  0  0  0  0  0
    0.2640    1.3348    1.7800 H   0  0  0  0  0  0  0  0  0  0  0  0
   -0.5889    3.2615    1.4722 C   0  0  0  0  0  0  0  0  0  0  0  0
   -1.6291    3.5206    1.6805 H   0  0  0  0  0  0  0  0  0  0  0  0
    0.0359    3.5855    2.3049 H   0  0  0  0  0  0  0  0  0  0  0  0
   -0.2760    3.7797    0.5637 H   0  0  0  0  0  0  0  0  0  0  0  0
  5  6  2  0  0  0  0
  5  7  1  0  0  0  0
  2  3  1  0  0  0  0
  2  4  1  0  0  0  0
  2  5  1  0  0  0  0
  1  2  1  0  0  0  0
 25 26  2  0  0  0  0
 25 27  1  0  0  0  0
 23 24  1  0  0  0  0
 21 22  1  0  0  0  0
 21 23  2  0  0  0  0
 19 20  1  0  0  0  0
 19 21  1  0  0  0  0
 17 18  1  0  0  0  0
 17 19  2  0  0  0  0
 15 16  1  0  0  0  0
 15 17  1  0  0  0  0
 14 15  2  0  0  0  0
 14 23  1  0  0  0  0
 11 12  1  0  0  0  0
 11 13  1  0  0  0  0
 11 14  1  0  0  0  0
  9 10  1  0  0  0  0
  9 11  1  0  0  0  0
  9 25  1  0  0  0  0
  7  8  1  0  0  0  0
  7  9  1  0  0  0  0
 29 30  1  0  0  0  0
 29 31  1  0  0  0  0
 29 32  1  0  0  0  0
 27 28  1  0  0  0  0
 27 29  1  0  0  0  0
M  END
$$$$
default_name
  -OEChem-02102213163D

 32 32  0     1  0  0  0  0  0999 V2000
   -3.8405   -3.7518    1.6252 H   0  0  0  0  0  0  0  0  0  0  0  0
   -3.7965   -2.8768    0.9782 C   0  0  0  0  0  0  0  0  0  0  0  0
   -4.5465   -2.1527    1.2902 H   0  0  0  0  0  0  0  0  0  0  0  0
   -3.9745   -3.1748   -0.0538 H   0  0  0  0  0  0  0  0  0  0  0  0
   -2.4245   -2.2537    1.0882 C   0  0  0  0  0  0  0  0  0  0  0  0
   -1.5805   -2.7478    1.8242 O   0  0  0  0  0  0  0  0  0  0  0  0
   -2.2045   -1.1637    0.3562 N   0  0  0  0  0  0  0  0  0  0  0  0
   -2.9595   -0.7907   -0.2008 H   0  0  0  0  0  0  0  0  0  0  0  0
   -0.9485   -0.4087    0.3482 C   0  0  1  0  0  0  0  0  0  0  0  0
   -0.3666   -0.6914    1.2269 H   0  0  0  0  0  0  0  0  0  0  0  0
   -0.1405   -0.7797   -0.9072 C   0  0  0  0  0  0  0  0  0  0  0  0
    0.8901   -0.4464   -0.7775 H   0  0  0  0  0  0  0  0  0  0  0  0
   -0.1232   -1.8659   -1.0085 H   0  0  0  0  0  0  0  0  0  0  0  0
   -0.6756   -0.1659   -2.1869 C   0  0  0  0  0  0  0  0  0  0  0  0
    0.1135   -0.1459   -3.3526 C   0  0  0  0  0  0  0  0  0  0  0  0
    1.1165   -0.5485   -3.3361 H   0  0  0  0  0  0  0  0  0  0  0  0
   -0.4049    0.3879   -4.5469 C   0  0  0  0  0  0  0  0  0  0  0  0
    0.2036    0.4046   -5.4401 H   0  0  0  0  0  0  0  0  0  0  0  0
   -1.7129    0.9005   -4.5783 C   0  0  0  0  0  0  0  0  0  0  0  0
   -2.1104    1.3127   -5.4952 H   0  0  0  0  0  0  0  0  0  0  0  0
   -2.5036    0.8834   -3.4148 C   0  0  0  0  0  0  0  0  0  0  0  0
   -3.5071    1.2824   -3.4375 H   0  0  0  0  0  0  0  0  0  0  0  0
   -1.9840    0.3529   -2.2207 C   0  0  0  0  0  0  0  0  0  0  0  0
   -2.5921    0.3434   -1.3255 H   0  0  0  0  0  0  0  0  0  0  0  0
   -1.2168    1.1047    0.4313 C   0  0  0  0  0  0  0  0  0  0  0  0
   -2.0890    1.6186   -0.2704 O   0  0  0  0  0  0  0  0  0  0  0  0
   -0.4674    1.8182    1.2813 N   0  0  0  0  0  0  0  0  0  0  0  0
    0.2640    1.3348    1.7800 H   0  0  0  0  0  0  0  0  0  0  0  0
   -0.5889    3.2615    1.4722 C   0  0  0  0  0  0  0  0  0  0  0  0
   -1.6291    3.5206    1.6805 H   0  0  0  0  0  0  0  0  0  0  0  0
    0.0359    3.5855    2.3049 H   0  0  0  0  0  0  0  0  0  0  0  0
   -0.2760    3.7797    0.5637 H   0  0  0  0  0  0  0  0  0  0  0  0
  5  6  2  0  0  0  0
  5  7  1  0  0  0  0
  2  3  1  0  0  0  0
  2  4  1  0  0  0  0
  2  5  1  0  0  0  0
  1  2  1  0  0  0  0
 25 26  2  0  0  0  0
 25 27  1  0  0  0  0
 23 24  1  0  0  0  0
 21 22  1  0  0  0  0
 21 23  2  0  0  0  0
 19 20  1  0  0  0  0
 19 21  1  0  0  0  0
 17 18  1  0  0  0  0
 17 19  2  0  0  0  0
 15 16  1  0  0  0  0
 15 17  1  0  0  0  0
 14 15  2  0  0  0  0
 14 23  1  0  0  0  0
 11 12  1  0  0  0  0
 11 13  1  0  0  0  0
 11 14  1  0  0  0  0
  9 10  1  0  0  0  0
  9 11  1  0  0  0  0
  9 25  1  0  0  0  0
  7  8  1  0  0  0  0
  7  9  1  0  0  0  0
 29 30  1  0  0  0  0
 29 31  1  0  0  0  0
 29 32  1  0  0  0  0
 27 28  1  0  0  0  0
 27 29  1  0  0  0  0
M  END
$$$$
default_name
  -OEChem-02102213163D

 32 32  0     1  0  0  0  0  0999 V2000
   -3.8405   -3.7518    1.6252 H   0  0  0  0  0  0  0  0  0  0  0  0
   -3.7965   -2.8768    0.9782 C   0  0  0  0  0  0  0  0  0  0  0  0
   -4.5465   -2.1527    1.2902 H   0  0  0  0  0  0  0  0  0  0  0  0
   -3.9745   -3.1748   -0.0538 H   0  0  0  0  0  0  0  0  0  0  0  0
   -2.4245   -2.2537    1.0882 C   0  0  0  0  0  0  0  0  0  0  0  0
   -1.5805   -2.7478    1.8242 O   0  0  0  0  0  0  0  0  0  0  0  0
   -2.2045   -1.1637    0.3562 N   0  0  0  0  0  0  0  0  0  0  0  0
   -2.9595   -0.7907   -0.2008 H   0  0  0  0  0  0  0  0  0  0  0  0
   -0.9485   -0.4087    0.3482 C   0  0  1  0  0  0  0  0  0  0  0  0
   -0.3666   -0.6914    1.2269 H   0  0  0  0  0  0  0  0  0  0  0  0
   -0.1405   -0.7797   -0.9072 C   0  0  0  0  0  0  0  0  0  0  0  0
    0.9237   -0.6960   -0.6822 H   0  0  0  0  0  0  0  0  0  0  0  0
   -0.3405   -1.8216   -1.1615 H   0  0  0  0  0  0  0  0  0  0  0  0
   -0.4368    0.0951   -2.1104 C   0  0  0  0  0  0  0  0  0  0  0  0
    0.2266   -0.1245   -3.3325 C   0  0  0  0  0  0  0  0  0  0  0  0
    0.9695   -0.9053   -3.4142 H   0  0  0  0  0  0  0  0  0  0  0  0
   -0.0836    0.6644   -4.4557 C   0  0  0  0  0  0  0  0  0  0  0  0
    0.4289    0.4959   -5.3924 H   0  0  0  0  0  0  0  0  0  0  0  0
   -1.0581    1.6722   -4.3595 C   0  0  0  0  0  0  0  0  0  0  0  0
   -1.2947    2.2798   -5.2218 H   0  0  0  0  0  0  0  0  0  0  0  0
   -1.7218    1.8952   -3.1394 C   0  0  0  0  0  0  0  0  0  0  0  0
   -2.4671    2.6734   -3.0639 H   0  0  0  0  0  0  0  0  0  0  0  0
   -1.4093    1.1089   -2.0163 C   0  0  0  0  0  0  0  0  0  0  0  0
   -1.9182    1.2836   -1.0773 H   0  0  0  0  0  0  0  0  0  0  0  0
   -1.2168    1.1047    0.4313 C   0  0  0  0  0  0  0  0  0  0  0  0
   -2.0890    1.6186   -0.2704 O   0  0  0  0  0  0  0  0  0  0  0  0
   -0.4674    1.8182    1.2813 N   0  0  0  0  0  0  0  0  0  0  0  0
    0.2640    1.3348    1.7800 H   0  0  0  0  0  0  0  0  0  0  0  0
   -0.5889    3.2615    1.4722 C   0  0  0  0  0  0  0  0  0  0  0  0
   -1.6291    3.5206    1.6805 H   0  0  0  0  0  0  0  0  0  0  0  0
    0.0359    3.5855    2.3049 H   0  0  0  0  0  0  0  0  0  0  0  0
   -0.2760    3.7797    0.5637 H   0  0  0  0  0  0  0  0  0  0  0  0
  5  6  2  0  0  0  0
  5  7  1  0  0  0  0
  2  3  1  0  0  0  0
  2  4  1  0  0  0  0
  2  5  1  0  0  0  0
  1  2  1  0  0  0  0
 25 26  2  0  0  0  0
 25 27  1  0  0  0  0
 23 24  1  0  0  0  0
 21 22  1  0  0  0  0
 21 23  2  0  0  0  0
 19 20  1  0  0  0  0
 19 21  1  0  0  0  0
 17 18  1  0  0  0  0
 17 19  2  0  0  0  0
 15 16  1  0  0  0  0
 15 17  1  0  0  0  0
 14 15  2  0  0  0  0
 14 23  1  0  0  0  0
 11 12  1  0  0  0  0
 11 13  1  0  0  0  0
 11 14  1  0  0  0  0
  9 10  1  0  0  0  0
  9 11  1  0  0  0  0
  9 25  1  0  0  0  0
  7  8  1  0  0  0  0
  7  9  1  0  0  0  0
 29 30  1  0  0  0  0
 29 31  1  0  0  0  0
 29 32  1  0  0  0  0
 27 28  1  0  0  0  0
 27 29  1  0  0  0  0
M  END
$$$$
default_name
  -OEChem-02102213163D

 32 32  0     1  0  0  0  0  0999 V2000
   -3.8405   -3.7518    1.6252 H   0  0  0  0  0  0  0  0  0  0  0  0
   -3.7965   -2.8768    0.9782 C   0  0  0  0  0  0  0  0  0  0  0  0
   -4.5465   -2.1527    1.2902 H   0  0  0  0  0  0  0  0  0  0  0  0
   -3.9745   -3.1748   -0.0538 H   0  0  0  0  0  0  0  0  0  0  0  0
   -2.4245   -2.2537    1.0882 C   0  0  0  0  0  0  0  0  0  0  0  0
   -1.5805   -2.7478    1.8242 O   0  0  0  0  0  0  0  0  0  0  0  0
   -2.2045   -1.1637    0.3562 N   0  0  0  0  0  0  0  0  0  0  0  0
   -2.9595   -0.7907   -0.2008 H   0  0  0  0  0  0  0  0  0  0  0  0
   -0.9485   -0.4087    0.3482 C   0  0  1  0  0  0  0  0  0  0  0  0
   -0.3666   -0.6914    1.2269 H   0  0  0  0  0  0  0  0  0  0  0  0
   -0.1405   -0.7797   -0.9072 C   0  0  0  0  0  0  0  0  0  0  0  0
    0.9237   -0.6960   -0.6822 H   0  0  0  0  0  0  0  0  0  0  0  0
   -0.3405   -1.8216   -1.1615 H   0  0  0  0  0  0  0  0  0  0  0  0
   -0.4368    0.0951   -2.1104 C   0  0  0  0  0  0  0  0  0  0  0  0
   -0.0283   -0.3009   -3.3981 C   0  0  0  0  0  0  0  0  0  0  0  0
    0.5204   -1.2222   -3.5340 H   0  0  0  0  0  0  0  0  0  0  0  0
   -0.3429    0.4956   -4.5145 C   0  0  0  0  0  0  0  0  0  0  0  0
   -0.0260    0.1909   -5.5021 H   0  0  0  0  0  0  0  0  0  0  0  0
   -1.0676    1.6876   -4.3460 C   0  0  0  0  0  0  0  0  0  0  0  0
   -1.3072    2.3007   -5.2035 H   0  0  0  0  0  0  0  0  0  0  0  0
   -1.4761    2.0870   -3.0604 C   0  0  0  0  0  0  0  0  0  0  0  0
   -2.0284    3.0061   -2.9301 H   0  0  0  0  0  0  0  0  0  0  0  0
   -1.1586    1.2925   -1.9445 C   0  0  0  0  0  0  0  0  0  0  0  0
   -1.4706    1.6026   -0.9556 H   0  0  0  0  0  0  0  0  0  0  0  0
   -1.2168    1.1047    0.4313 C   0  0  0  0  0  0  0  0  0  0  0  0
   -2.0890    1.6186   -0.2704 O   0  0  0  0  0  0  0  0  0  0  0  0
   -0.4674    1.8182    1.2813 N   0  0  0  0  0  0  0  0  0  0  0  0
    0.2640    1.3348    1.7800 H   0  0  0  0  0  0  0  0  0  0  0  0
   -0.5889    3.2615    1.4722 C   0  0  0  0  0  0  0  0  0  0  0  0
   -1.6291    3.5206    1.6805 H   0  0  0  0  0  0  0  0  0  0  0  0
    0.0359    3.5855    2.3049 H   0  0  0  0  0  0  0  0  0  0  0  0
   -0.2760    3.7797    0.5637 H   0  0  0  0  0  0  0  0  0  0  0  0
  5  6  2  0  0  0  0
  5  7  1  0  0  0  0
  2  3  1  0  0  0  0
  2  4  1  0  0  0  0
  2  5  1  0  0  0  0
  1  2  1  0  0  0  0
 25 26  2  0  0  0  0
 25 27  1  0  0  0  0
 23 24  1  0  0  0  0
 21 22  1  0  0  0  0
 21 23  2  0  0  0  0
 19 20  1  0  0  0  0
 19 21  1  0  0  0  0
 17 18  1  0  0  0  0
 17 19  2  0  0  0  0
 15 16  1  0  0  0  0
 15 17  1  0  0  0  0
 14 15  2  0  0  0  0
 14 23  1  0  0  0  0
 11 12  1  0  0  0  0
 11 13  1  0  0  0  0
 11 14  1  0  0  0  0
  9 10  1  0  0  0  0
  9 11  1  0  0  0  0
  9 25  1  0  0  0  0
  7  8  1  0  0  0  0
  7  9  1  0  0  0  0
 29 30  1  0  0  0  0
 29 31  1  0  0  0  0
 29 32  1  0  0  0  0
 27 28  1  0  0  0  0
 27 29  1  0  0  0  0
M  END
$$$$
default_name
  -OEChem-02102213163D

 32 32  0     1  0  0  0  0  0999 V2000
   -3.8405   -3.7518    1.6252 H   0  0  0  0  0  0  0  0  0  0  0  0
   -3.7965   -2.8768    0.9782 C   0  0  0  0  0  0  0  0  0  0  0  0
   -4.5465   -2.1527    1.2902 H   0  0  0  0  0  0  0  0  0  0  0  0
   -3.9745   -3.1748   -0.0538 H   0  0  0  0  0  0  0  0  0  0  0  0
   -2.4245   -2.2537    1.0882 C   0  0  0  0  0  0  0  0  0  0  0  0
   -1.5805   -2.7478    1.8242 O   0  0  0  0  0  0  0  0  0  0  0  0
   -2.2045   -1.1637    0.3562 N   0  0  0  0  0  0  0  0  0  0  0  0
   -2.9595   -0.7907   -0.2008 H   0  0  0  0  0  0  0  0  0  0  0  0
   -0.9485   -0.4087    0.3482 C   0  0  1  0  0  0  0  0  0  0  0  0
   -0.3666   -0.6914    1.2269 H   0  0  0  0  0  0  0  0  0  0  0  0
   -0.1405   -0.7797   -0.9072 C   0  0  0  0  0  0  0  0  0  0  0  0
    0.9237   -0.6960   -0.6822 H   0  0  0  0  0  0  0  0  0  0  0  0
   -0.3405   -1.8216   -1.1615 H   0  0  0  0  0  0  0  0  0  0  0  0
   -0.4368    0.0951   -2.1104 C   0  0  0  0  0  0  0  0  0  0  0  0
   -0.3205   -0.4224   -3.4145 C   0  0  0  0  0  0  0  0  0  0  0  0
    0.0036   -1.4423   -3.5668 H   0  0  0  0  0  0  0  0  0  0  0  0
   -0.6368    0.3827   -4.5242 C   0  0  0  0  0  0  0  0  0  0  0  0
   -0.5443   -0.0158   -5.5248 H   0  0  0  0  0  0  0  0  0  0  0  0
   -1.0716    1.7052   -4.3323 C   0  0  0  0  0  0  0  0  0  0  0  0
   -1.3124    2.3245   -5.1850 H   0  0  0  0  0  0  0  0  0  0  0  0
   -1.1875    2.2259   -3.0306 C   0  0  0  0  0  0  0  0  0  0  0  0
   -1.5165    3.2441   -2.8831 H   0  0  0  0  0  0  0  0  0  0  0  0
   -0.8681    1.4220   -1.9219 C   0  0  0  0  0  0  0  0  0  0  0  0
   -0.9545    1.8249   -0.9211 H   0  0  0  0  0  0  0  0  0  0  0  0
   -1.2168    1.1047    0.4313 C   0  0  0  0  0  0  0  0  0  0  0  0
   -2.0890    1.6186   -0.2704 O   0  0  0  0  0  0  0  0  0  0  0  0
   -0.4674    1.8182    1.2813 N   0  0  0  0  0  0  0  0  0  0  0  0
    0.2640    1.3348    1.7800 H   0  0  0  0  0  0  0  0  0  0  0  0
   -0.5889    3.2615    1.4722 C   0  0  0  0  0  0  0  0  0  0  0  0
   -1.6291    3.5206    1.6805 H   0  0  0  0  0  0  0  0  0  0  0  0
    0.0359    3.5855    2.3049 H   0  0  0  0  0  0  0  0  0  0  0  0
   -0.2760    3.7797    0.5637 H   0  0  0  0  0  0  0  0  0  0  0  0
  5  6  2  0  0  0  0
  5  7  1  0  0  0  0
  2  3  1  0  0  0  0
  2  4  1  0  0  0  0
  2  5  1  0  0  0  0
  1  2  1  0  0  0  0
 25 26  2  0  0  0  0
 25 27  1  0  0  0  0
 23 24  1  0  0  0  0
 21 22  1  0  0  0  0
 21 23  2  0  0  0  0
 19 20  1  0  0  0  0
 19 21  1  0  0  0  0
 17 18  1  0  0  0  0
 17 19  2  0  0  0  0
 15 16  1  0  0  0  0
 15 17  1  0  0  0  0
 14 15  2  0  0  0  0
 14 23  1  0  0  0  0
 11 12  1  0  0  0  0
 11 13  1  0  0  0  0
 11 14  1  0  0  0  0
  9 10  1  0  0  0  0
  9 11  1  0  0  0  0
  9 25  1  0  0  0  0
  7  8  1  0  0  0  0
  7  9  1  0  0  0  0
 29 30  1  0  0  0  0
 29 31  1  0  0  0  0
 29 32  1  0  0  0  0
 27 28  1  0  0  0  0
 27 29  1  0  0  0  0
M  END
$$$$
default_name
  -OEChem-02102213163D

 32 32  0     1  0  0  0  0  0999 V2000
   -3.8405   -3.7518    1.6252 H   0  0  0  0  0  0  0  0  0  0  0  0
   -3.7965   -2.8768    0.9782 C   0  0  0  0  0  0  0  0  0  0  0  0
   -4.5465   -2.1527    1.2902 H   0  0  0  0  0  0  0  0  0  0  0  0
   -3.9745   -3.1748   -0.0538 H   0  0  0  0  0  0  0  0  0  0  0  0
   -2.4245   -2.2537    1.0882 C   0  0  0  0  0  0  0  0  0  0  0  0
   -1.5805   -2.7478    1.8242 O   0  0  0  0  0  0  0  0  0  0  0  0
   -2.2045   -1.1637    0.3562 N   0  0  0  0  0  0  0  0  0  0  0  0
   -2.9595   -0.7907   -0.2008 H   0  0  0  0  0  0  0  0  0  0  0  0
   -0.9485   -0.4087    0.3482 C   0  0  1  0  0  0  0  0  0  0  0  0
   -0.3666   -0.6914    1.2269 H   0  0  0  0  0  0  0  0  0  0  0  0
   -0.1405   -0.7797   -0.9072 C   0  0  0  0  0  0  0  0  0  0  0  0
    0.9237   -0.6960   -0.6822 H   0  0  0  0  0  0  0  0  0  0  0  0
   -0.3405   -1.8216   -1.1615 H   0  0  0  0  0  0  0  0  0  0  0  0
   -0.4368    0.0951   -2.1104 C   0  0  0  0  0  0  0  0  0  0  0  0
   -0.6301   -0.4806   -3.3805 C   0  0  0  0  0  0  0  0  0  0  0  0
   -0.5456   -1.5503   -3.5101 H   0  0  0  0  0  0  0  0  0  0  0  0
   -0.9454    0.3336   -4.4839 C   0  0  0  0  0  0  0  0  0  0  0  0
   -1.0908   -0.1102   -5.4588 H   0  0  0  0  0  0  0  0  0  0  0  0
   -1.0698    1.7236   -4.3193 C   0  0  0  0  0  0  0  0  0  0  0  0
   -1.3097    2.3494   -5.1675 H   0  0  0  0  0  0  0  0  0  0  0  0
   -0.8758    2.3022   -3.0518 C   0  0  0  0  0  0  0  0  0  0  0  0
   -0.9661    3.3712   -2.9262 H   0  0  0  0  0  0  0  0  0  0  0  0
   -0.5575    1.4887   -1.9499 C   0  0  0  0  0  0  0  0  0  0  0  0
   -0.4052    1.9354   -0.9760 H   0  0  0  0  0  0  0  0  0  0  0  0
   -1.2168    1.1047    0.4313 C   0  0  0  0  0  0  0  0  0  0  0  0
   -2.0890    1.6186   -0.2704 O   0  0  0  0  0  0  0  0  0  0  0  0
   -0.4674    1.8182    1.2813 N   0  0  0  0  0  0  0  0  0  0  0  0
    0.2640    1.3348    1.7800 H   0  0  0  0  0  0  0  0  0  0  0  0
   -0.5889    3.2615    1.4722 C   0  0  0  0  0  0  0  0  0  0  0  0
   -1.6291    3.5206    1.6805 H   0  0  0  0  0  0  0  0  0  0  0  0
    0.0359    3.5855    2.3049 H   0  0  0  0  0  0  0  0  0  0  0  0
   -0.2760    3.7797    0.5637 H   0  0  0  0  0  0  0  0  0  0  0  0
  5  6  2  0  0  0  0
  5  7  1  0  0  0  0
  2  3  1  0  0  0  0
  2  4  1  0  0  0  0
  2  5  1  0  0  0  0
  1  2  1  0  0  0  0
 25 26  2  0  0  0  0
 25 27  1  0  0  0  0
 23 24  1  0  0  0  0
 21 22  1  0  0  0  0
 21 23  2  0  0  0  0
 19 20  1  0  0  0  0
 19 21  1  0  0  0  0
 17 18  1  0  0  0  0
 17 19  2  0  0  0  0
 15 16  1  0  0  0  0
 15 17  1  0  0  0  0
 14 15  2  0  0  0  0
 14 23  1  0  0  0  0
 11 12  1  0  0  0  0
 11 13  1  0  0  0  0
 11 14  1  0  0  0  0
  9 10  1  0  0  0  0
  9 11  1  0  0  0  0
  9 25  1  0  0  0  0
  7  8  1  0  0  0  0
  7  9  1  0  0  0  0
 29 30  1  0  0  0  0
 29 31  1  0  0  0  0
 29 32  1  0  0  0  0
 27 28  1  0  0  0  0
 27 29  1  0  0  0  0
M  END
$$$$
default_name
  -OEChem-02102213163D

 32 32  0     1  0  0  0  0  0999 V2000
   -3.8405   -3.7518    1.6252 H   0  0  0  0  0  0  0  0  0  0  0  0
   -3.7965   -2.8768    0.9782 C   0  0  0  0  0  0  0  0  0  0  0  0
   -4.5465   -2.1527    1.2902 H   0  0  0  0  0  0  0  0  0  0  0  0
   -3.9745   -3.1748   -0.0538 H   0  0  0  0  0  0  0  0  0  0  0  0
   -2.4245   -2.2537    1.0882 C   0  0  0  0  0  0  0  0  0  0  0  0
   -1.5805   -2.7478    1.8242 O   0  0  0  0  0  0  0  0  0  0  0  0
   -2.2045   -1.1637    0.3562 N   0  0  0  0  0  0  0  0  0  0  0  0
   -2.9595   -0.7907   -0.2008 H   0  0  0  0  0  0  0  0  0  0  0  0
   -0.9485   -0.4087    0.3482 C   0  0  1  0  0  0  0  0  0  0  0  0
   -0.3666   -0.6914    1.2269 H   0  0  0  0  0  0  0  0  0  0  0  0
   -0.1405   -0.7797   -0.9072 C   0  0  0  0  0  0  0  0  0  0  0  0
    0.9237   -0.6960   -0.6822 H   0  0  0  0  0  0  0  0  0  0  0  0
   -0.3405   -1.8216   -1.1615 H   0  0  0  0  0  0  0  0  0  0  0  0
   -0.4368    0.0951   -2.1104 C   0  0  0  0  0  0  0  0  0  0  0  0
   -0.9360   -0.4715   -3.2986 C   0  0  0  0  0  0  0  0  0  0  0  0
   -1.0899   -1.5391   -3.3679 H   0  0  0  0  0  0  0  0  0  0  0  0
   -1.2474    0.3516   -4.3965 C   0  0  0  0  0  0  0  0  0  0  0  0
   -1.6282   -0.0858   -5.3088 H   0  0  0  0  0  0  0  0  0  0  0  0
   -1.0623    1.7417   -4.3080 C   0  0  0  0  0  0  0  0  0  0  0  0
   -1.2994    2.3738   -5.1523 H   0  0  0  0  0  0  0  0  0  0  0  0
   -0.5622    2.3109   -3.1227 C   0  0  0  0  0  0  0  0  0  0  0  0
   -0.4147    3.3789   -3.0564 H   0  0  0  0  0  0  0  0  0  0  0  0
   -0.2480    1.4878   -2.0268 C   0  0  0  0  0  0  0  0  0  0  0  0
    0.1398    1.9266   -1.1166 H   0  0  0  0  0  0  0  0  0  0  0  0
   -1.2168    1.1047    0.4313 C   0  0  0  0  0  0  0  0  0  0  0  0
   -2.0890    1.6186   -0.2704 O   0  0  0  0  0  0  0  0  0  0  0  0
   -0.4674    1.8182    1.2813 N   0  0  0  0  0  0  0  0  0  0  0  0
    0.2640    1.3348    1.7800 H   0  0  0  0  0  0  0  0  0  0  0  0
   -0.5889    3.2615    1.4722 C   0  0  0  0  0  0  0  0  0  0  0  0
   -1.6291    3.5206    1.6805 H   0  0  0  0  0  0  0  0  0  0  0  0
    0.0359    3.5855    2.3049 H   0  0  0  0  0  0  0  0  0  0  0  0
   -0.2760    3.7797    0.5637 H   0  0  0  0  0  0  0  0  0  0  0  0
  5  6  2  0  0  0  0
  5  7  1  0  0  0  0
  2  3  1  0  0  0  0
  2  4  1  0  0  0  0
  2  5  1  0  0  0  0
  1  2  1  0  0  0  0
 25 26  2  0  0  0  0
 25 27  1  0  0  0  0
 23 24  1  0  0  0  0
 21 22  1  0  0  0  0
 21 23  2  0  0  0  0
 19 20  1  0  0  0  0
 19 21  1  0  0  0  0
 17 18  1  0  0  0  0
 17 19  2  0  0  0  0
 15 16  1  0  0  0  0
 15 17  1  0  0  0  0
 14 15  2  0  0  0  0
 14 23  1  0  0  0  0
 11 12  1  0  0  0  0
 11 13  1  0  0  0  0
 11 14  1  0  0  0  0
  9 10  1  0  0  0  0
  9 11  1  0  0  0  0
  9 25  1  0  0  0  0
  7  8  1  0  0  0  0
  7  9  1  0  0  0  0
 29 30  1  0  0  0  0
 29 31  1  0  0  0  0
 29 32  1  0  0  0  0
 27 28  1  0  0  0  0
 27 29  1  0  0  0  0
M  END
$$$$
default_name
  -OEChem-02102213163D

 32 32  0     1  0  0  0  0  0999 V2000
   -3.8405   -3.7518    1.6252 H   0  0  0  0  0  0  0  0  0  0  0  0
   -3.7965   -2.8768    0.9782 C   0  0  0  0  0  0  0  0  0  0  0  0
   -4.5465   -2.1527    1.2902 H   0  0  0  0  0  0  0  0  0  0  0  0
   -3.9745   -3.1748   -0.0538 H   0  0  0  0  0  0  0  0  0  0  0  0
   -2.4245   -2.2537    1.0882 C   0  0  0  0  0  0  0  0  0  0  0  0
   -1.5805   -2.7478    1.8242 O   0  0  0  0  0  0  0  0  0  0  0  0
   -2.2045   -1.1637    0.3562 N   0  0  0  0  0  0  0  0  0  0  0  0
   -2.9595   -0.7907   -0.2008 H   0  0  0  0  0  0  0  0  0  0  0  0
   -0.9485   -0.4087    0.3482 C   0  0  1  0  0  0  0  0  0  0  0  0
   -0.3666   -0.6914    1.2269 H   0  0  0  0  0  0  0  0  0  0  0  0
   -0.1405   -0.7797   -0.9072 C   0  0  0  0  0  0  0  0  0  0  0  0
    0.9237   -0.6960   -0.6822 H   0  0  0  0  0  0  0  0  0  0  0  0
   -0.3405   -1.8216   -1.1615 H   0  0  0  0  0  0  0  0  0  0  0  0
   -0.4368    0.0951   -2.1104 C   0  0  0  0  0  0  0  0  0  0  0  0
   -1.2174   -0.3957   -3.1742 C   0  0  0  0  0  0  0  0  0  0  0  0
   -1.5921   -1.4093   -3.1499 H   0  0  0  0  0  0  0  0  0  0  0  0
   -1.5225    0.4353   -4.2679 C   0  0  0  0  0  0  0  0  0  0  0  0
   -2.1199    0.0556   -5.0849 H   0  0  0  0  0  0  0  0  0  0  0  0
   -1.0497    1.7582   -4.2991 C   0  0  0  0  0  0  0  0  0  0  0  0
   -1.2821    2.3960   -5.1405 H   0  0  0  0  0  0  0  0  0  0  0  0
   -0.2682    2.2514   -3.2384 C   0  0  0  0  0  0  0  0  0  0  0  0
    0.0999    3.2665   -3.2648 H   0  0  0  0  0  0  0  0  0  0  0  0
    0.0393    1.4196   -2.1471 C   0  0  0  0  0  0  0  0  0  0  0  0
    0.6435    1.7991   -1.3333 H   0  0  0  0  0  0  0  0  0  0  0  0
   -1.2168    1.1047    0.4313 C   0  0  0  0  0  0  0  0  0  0  0  0
   -2.0890    1.6186   -0.2704 O   0  0  0  0  0  0  0  0  0  0  0  0
   -0.4674    1.8182    1.2813 N   0  0  0  0  0  0  0  0  0  0  0  0
    0.2640    1.3348    1.7800 H   0  0  0  0  0  0  0  0  0  0  0  0
   -0.5889    3.2615    1.4722 C   0  0  0  0  0  0  0  0  0  0  0  0
   -1.6291    3.5206    1.6805 H   0  0  0  0  0  0  0  0  0  0  0  0
    0.0359    3.5855    2.3049 H   0  0  0  0  0  0  0  0  0  0  0  0
   -0.2760    3.7797    0.5637 H   0  0  0  0  0  0  0  0  0  0  0  0
  5  6  2  0  0  0  0
  5  7  1  0  0  0  0
  2  3  1  0  0  0  0
  2  4  1  0  0  0  0
  2  5  1  0  0  0  0
  1  2  1  0  0  0  0
 25 26  2  0  0  0  0
 25 27  1  0  0  0  0
 23 24  1  0  0  0  0
 21 22  1  0  0  0  0
 21 23  2  0  0  0  0
 19 20  1  0  0  0  0
 19 21  1  0  0  0  0
 17 18  1  0  0  0  0
 17 19  2  0  0  0  0
 15 16  1  0  0  0  0
 15 17  1  0  0  0  0
 14 15  2  0  0  0  0
 14 23  1  0  0  0  0
 11 12  1  0  0  0  0
 11 13  1  0  0  0  0
 11 14  1  0  0  0  0
  9 10  1  0  0  0  0
  9 11  1  0  0  0  0
  9 25  1  0  0  0  0
  7  8  1  0  0  0  0
  7  9  1  0  0  0  0
 29 30  1  0  0  0  0
 29 31  1  0  0  0  0
 29 32  1  0  0  0  0
 27 28  1  0  0  0  0
 27 29  1  0  0  0  0
M  END
$$$$
default_name
  -OEChem-02102213163D

 32 32  0     1  0  0  0  0  0999 V2000
   -3.8405   -3.7518    1.6252 H   0  0  0  0  0  0  0  0  0  0  0  0
   -3.7965   -2.8768    0.9782 C   0  0  0  0  0  0  0  0  0  0  0  0
   -4.5465   -2.1527    1.2902 H   0  0  0  0  0  0  0  0  0  0  0  0
   -3.9745   -3.1748   -0.0538 H   0  0  0  0  0  0  0  0  0  0  0  0
   -2.4245   -2.2537    1.0882 C   0  0  0  0  0  0  0  0  0  0  0  0
   -1.5805   -2.7478    1.8242 O   0  0  0  0  0  0  0  0  0  0  0  0
   -2.2045   -1.1637    0.3562 N   0  0  0  0  0  0  0  0  0  0  0  0
   -2.9595   -0.7907   -0.2008 H   0  0  0  0  0  0  0  0  0  0  0  0
   -0.9485   -0.4087    0.3482 C   0  0  1  0  0  0  0  0  0  0  0  0
   -0.3666   -0.6914    1.2269 H   0  0  0  0  0  0  0  0  0  0  0  0
   -0.1405   -0.7797   -0.9072 C   0  0  0  0  0  0  0  0  0  0  0  0
    0.9237   -0.6960   -0.6822 H   0  0  0  0  0  0  0  0  0  0  0  0
   -0.3405   -1.8216   -1.1615 H   0  0  0  0  0  0  0  0  0  0  0  0
   -0.4368    0.0951   -2.1104 C   0  0  0  0  0  0  0  0  0  0  0  0
   -1.4551   -0.2585   -3.0159 C   0  0  0  0  0  0  0  0  0  0  0  0
   -2.0179   -1.1698   -2.8709 H   0  0  0  0  0  0  0  0  0  0  0  0
   -1.7518    0.5792   -4.1068 C   0  0  0  0  0  0  0  0  0  0  0  0
   -2.5324    0.3045   -4.8023 H   0  0  0  0  0  0  0  0  0  0  0  0
   -1.0328    1.7721   -4.2932 C   0  0  0  0  0  0  0  0  0  0  0  0
   -1.2592    2.4145   -5.1327 H   0  0  0  0  0  0  0  0  0  0  0  0
   -0.0136    2.1276   -3.3911 C   0  0  0  0  0  0  0  0  0  0  0  0
    0.5429    3.0418   -3.5373 H   0  0  0  0  0  0  0  0  0  0  0  0
    0.2849    1.2886   -2.3028 C   0  0  0  0  0  0  0  0  0  0  0  0
    1.0715    1.5616   -1.6114 H   0  0  0  0  0  0  0  0  0  0  0  0
   -1.2168    1.1047    0.4313 C   0  0  0  0  0  0  0  0  0  0  0  0
   -2.0890    1.6186   -0.2704 O   0  0  0  0  0  0  0  0  0  0  0  0
   -0.4674    1.8182    1.2813 N   0  0  0  0  0  0  0  0  0  0  0  0
    0.2640    1.3348    1.7800 H   0  0  0  0  0  0  0  0  0  0  0  0
   -0.5889    3.2615    1.4722 C   0  0  0  0  0  0  0  0  0  0  0  0
   -1.6291    3.5206    1.6805 H   0  0  0  0  0  0  0  0  0  0  0  0
    0.0359    3.5855    2.3049 H   0  0  0  0  0  0  0  0  0  0  0  0
   -0.2760    3.7797    0.5637 H   0  0  0  0  0  0  0  0  0  0  0  0
  5  6  2  0  0  0  0
  5  7  1  0  0  0  0
  2  3  1  0  0  0  0
  2  4  1  0  0  0  0
  2  5  1  0  0  0  0
  1  2  1  0  0  0  0
 25 26  2  0  0  0  0
 25 27  1  0  0  0  0
 23 24  1  0  0  0  0
 21 22  1  0  0  0  0
 21 23  2  0  0  0  0
 19 20  1  0  0  0  0
 19 21  1  0  0  0  0
 17 18  1  0  0  0  0
 17 19  2  0  0  0  0
 15 16  1  0  0  0  0
 15 17  1  0  0  0  0
 14 15  2  0  0  0  0
 14 23  1  0  0  0  0
 11 12  1  0  0  0  0
 11 13  1  0  0  0  0
 11 14  1  0  0  0  0
  9 10  1  0  0  0  0
  9 11  1  0  0  0  0
  9 25  1  0  0  0  0
  7  8  1  0  0  0  0
  7  9  1  0  0  0  0
 29 30  1  0  0  0  0
 29 31  1  0  0  0  0
 29 32  1  0  0  0  0
 27 28  1  0  0  0  0
 27 29  1  0  0  0  0
M  END
$$$$
default_name
  -OEChem-02102213163D

 32 32  0     1  0  0  0  0  0999 V2000
   -3.8405   -3.7518    1.6252 H   0  0  0  0  0  0  0  0  0  0  0  0
   -3.7965   -2.8768    0.9782 C   0  0  0  0  0  0  0  0  0  0  0  0
   -4.5465   -2.1527    1.2902 H   0  0  0  0  0  0  0  0  0  0  0  0
   -3.9745   -3.1748   -0.0538 H   0  0  0  0  0  0  0  0  0  0  0  0
   -2.4245   -2.2537    1.0882 C   0  0  0  0  0  0  0  0  0  0  0  0
   -1.5805   -2.7478    1.8242 O   0  0  0  0  0  0  0  0  0  0  0  0
   -2.2045   -1.1637    0.3562 N   0  0  0  0  0  0  0  0  0  0  0  0
   -2.9595   -0.7907   -0.2008 H   0  0  0  0  0  0  0  0  0  0  0  0
   -0.9485   -0.4087    0.3482 C   0  0  1  0  0  0  0  0  0  0  0  0
   -0.3666   -0.6914    1.2269 H   0  0  0  0  0  0  0  0  0  0  0  0
   -0.1405   -0.7797   -0.9072 C   0  0  0  0  0  0  0  0  0  0  0  0
    0.9237   -0.6960   -0.6822 H   0  0  0  0  0  0  0  0  0  0  0  0
   -0.3405   -1.8216   -1.1615 H   0  0  0  0  0  0  0  0  0  0  0  0
   -0.4368    0.0951   -2.1104 C   0  0  0  0  0  0  0  0  0  0  0  0
   -1.6329   -0.0692   -2.8344 C   0  0  0  0  0  0  0  0  0  0  0  0
   -2.3385   -0.8370   -2.5500 H   0  0  0  0  0  0  0  0  0  0  0  0
   -1.9197    0.7734   -3.9243 C   0  0  0  0  0  0  0  0  0  0  0  0
   -2.8375    0.6439   -4.4804 H   0  0  0  0  0  0  0  0  0  0  0  0
   -1.0127    1.7822   -4.2907 C   0  0  0  0  0  0  0  0  0  0  0  0
   -1.2320    2.4280   -5.1295 H   0  0  0  0  0  0  0  0  0  0  0  0
    0.1841    1.9481   -3.5703 C   0  0  0  0  0  0  0  0  0  0  0  0
    0.8839    2.7200   -3.8552 H   0  0  0  0  0  0  0  0  0  0  0  0
    0.4720    1.1038   -2.4833 C   0  0  0  0  0  0  0  0  0  0  0  0
    1.3946    1.2302   -1.9319 H   0  0  0  0  0  0  0  0  0  0  0  0
   -1.2168    1.1047    0.4313 C   0  0  0  0  0  0  0  0  0  0  0  0
   -2.0890    1.6186   -0.2704 O   0  0  0  0  0  0  0  0  0  0  0  0
   -0.4674    1.8182    1.2813 N   0  0  0  0  0  0  0  0  0  0  0  0
    0.2640    1.3348    1.7800 H   0  0  0  0  0  0  0  0  0  0  0  0
   -0.5889    3.2615    1.4722 C   0  0  0  0  0  0  0  0  0  0  0  0
   -1.6291    3.5206    1.6805 H   0  0  0  0  0  0  0  0  0  0  0  0
    0.0359    3.5855    2.3049 H   0  0  0  0  0  0  0  0  0  0  0  0
   -0.2760    3.7797    0.5637 H   0  0  0  0  0  0  0  0  0  0  0  0
  5  6  2  0  0  0  0
  5  7  1  0  0  0  0
  2  3  1  0  0  0  0
  2  4  1  0  0  0  0
  2  5  1  0  0  0  0
  1  2  1  0  0  0  0
 25 26  2  0  0  0  0
 25 27  1  0  0  0  0
 23 24  1  0  0  0  0
 21 22  1  0  0  0  0
 21 23  2  0  0  0  0
 19 20  1  0  0  0  0
 19 21  1  0  0  0  0
 17 18  1  0  0  0  0
 17 19  2  0  0  0  0
 15 16  1  0  0  0  0
 15 17  1  0  0  0  0
 14 15  2  0  0  0  0
 14 23  1  0  0  0  0
 11 12  1  0  0  0  0
 11 13  1  0  0  0  0
 11 14  1  0  0  0  0
  9 10  1  0  0  0  0
  9 11  1  0  0  0  0
  9 25  1  0  0  0  0
  7  8  1  0  0  0  0
  7  9  1  0  0  0  0
 29 30  1  0  0  0  0
 29 31  1  0  0  0  0
 29 32  1  0  0  0  0
 27 28  1  0  0  0  0
 27 29  1  0  0  0  0
M  END
$$$$
default_name
  -OEChem-02102213163D

 32 32  0     1  0  0  0  0  0999 V2000
   -3.8405   -3.7518    1.6252 H   0  0  0  0  0  0  0  0  0  0  0  0
   -3.7965   -2.8768    0.9782 C   0  0  0  0  0  0  0  0  0  0  0  0
   -4.5465   -2.1527    1.2902 H   0  0  0  0  0  0  0  0  0  0  0  0
   -3.9745   -3.1748   -0.0538 H   0  0  0  0  0  0  0  0  0  0  0  0
   -2.4245   -2.2537    1.0882 C   0  0  0  0  0  0  0  0  0  0  0  0
   -1.5805   -2.7478    1.8242 O   0  0  0  0  0  0  0  0  0  0  0  0
   -2.2045   -1.1637    0.3562 N   0  0  0  0  0  0  0  0  0  0  0  0
   -2.9595   -0.7907   -0.2008 H   0  0  0  0  0  0  0  0  0  0  0  0
   -0.9485   -0.4087    0.3482 C   0  0  1  0  0  0  0  0  0  0  0  0
   -0.3666   -0.6914    1.2269 H   0  0  0  0  0  0  0  0  0  0  0  0
   -0.1405   -0.7797   -0.9072 C   0  0  0  0  0  0  0  0  0  0  0  0
    0.9237   -0.6960   -0.6822 H   0  0  0  0  0  0  0  0  0  0  0  0
   -0.3405   -1.8216   -1.1615 H   0  0  0  0  0  0  0  0  0  0  0  0
   -0.4368    0.0951   -2.1104 C   0  0  0  0  0  0  0  0  0  0  0  0
   -1.7387    0.1594   -2.6422 C   0  0  0  0  0  0  0  0  0  0  0  0
   -2.5319   -0.4334   -2.2089 H   0  0  0  0  0  0  0  0  0  0  0  0
   -2.0148    1.0047   -3.7327 C   0  0  0  0  0  0  0  0  0  0  0  0
   -3.0146    1.0506   -4.1411 H   0  0  0  0  0  0  0  0  0  0  0  0
   -0.9909    1.7881   -4.2919 C   0  0  0  0  0  0  0  0  0  0  0  0
   -1.2025    2.4357   -5.1312 H   0  0  0  0  0  0  0  0  0  0  0  0
    0.3115    1.7250   -3.7638 C   0  0  0  0  0  0  0  0  0  0  0  0
    1.0998    2.3230   -4.1970 H   0  0  0  0  0  0  0  0  0  0  0  0
    0.5878    0.8777   -2.6761 C   0  0  0  0  0  0  0  0  0  0  0  0
    1.5909    0.8276   -2.2729 H   0  0  0  0  0  0  0  0  0  0  0  0
   -1.2168    1.1047    0.4313 C   0  0  0  0  0  0  0  0  0  0  0  0
   -2.0890    1.6186   -0.2704 O   0  0  0  0  0  0  0  0  0  0  0  0
   -0.4674    1.8182    1.2813 N   0  0  0  0  0  0  0  0  0  0  0  0
    0.2640    1.3348    1.7800 H   0  0  0  0  0  0  0  0  0  0  0  0
   -0.5889    3.2615    1.4722 C   0  0  0  0  0  0  0  0  0  0  0  0
   -1.6291    3.5206    1.6805 H   0  0  0  0  0  0  0  0  0  0  0  0
    0.0359    3.5855    2.3049 H   0  0  0  0  0  0  0  0  0  0  0  0
   -0.2760    3.7797    0.5637 H   0  0  0  0  0  0  0  0  0  0  0  0
  5  6  2  0  0  0  0
  5  7  1  0  0  0  0
  2  3  1  0  0  0  0
  2  4  1  0  0  0  0
  2  5  1  0  0  0  0
  1  2  1  0  0  0  0
 25 26  2  0  0  0  0
 25 27  1  0  0  0  0
 23 24  1  0  0  0  0
 21 22  1  0  0  0  0
 21 23  2  0  0  0  0
 19 20  1  0  0  0  0
 19 21  1  0  0  0  0
 17 18  1  0  0  0  0
 17 19  2  0  0  0  0
 15 16  1  0  0  0  0
 15 17  1  0  0  0  0
 14 15  2  0  0  0  0
 14 23  1  0  0  0  0
 11 12  1  0  0  0  0
 11 13  1  0  0  0  0
 11 14  1  0  0  0  0
  9 10  1  0  0  0  0
  9 11  1  0  0  0  0
  9 25  1  0  0  0  0
  7  8  1  0  0  0  0
  7  9  1  0  0  0  0
 29 30  1  0  0  0  0
 29 31  1  0  0  0  0
 29 32  1  0  0  0  0
 27 28  1  0  0  0  0
 27 29  1  0  0  0  0
M  END
$$$$
default_name
  -OEChem-02102213163D

 32 32  0     1  0  0  0  0  0999 V2000
   -3.8405   -3.7518    1.6252 H   0  0  0  0  0  0  0  0  0  0  0  0
   -3.7965   -2.8768    0.9782 C   0  0  0  0  0  0  0  0  0  0  0  0
   -4.5465   -2.1527    1.2902 H   0  0  0  0  0  0  0  0  0  0  0  0
   -3.9745   -3.1748   -0.0538 H   0  0  0  0  0  0  0  0  0  0  0  0
   -2.4245   -2.2537    1.0882 C   0  0  0  0  0  0  0  0  0  0  0  0
   -1.5805   -2.7478    1.8242 O   0  0  0  0  0  0  0  0  0  0  0  0
   -2.2045   -1.1637    0.3562 N   0  0  0  0  0  0  0  0  0  0  0  0
   -2.9595   -0.7907   -0.2008 H   0  0  0  0  0  0  0  0  0  0  0  0
   -0.9485   -0.4087    0.3482 C   0  0  1  0  0  0  0  0  0  0  0  0
   -0.3666   -0.6914    1.2269 H   0  0  0  0  0  0  0  0  0  0  0  0
   -0.1405   -0.7797   -0.9072 C   0  0  0  0  0  0  0  0  0  0  0  0
    0.9237   -0.6960   -0.6822 H   0  0  0  0  0  0  0  0  0  0  0  0
   -0.3405   -1.8216   -1.1615 H   0  0  0  0  0  0  0  0  0  0  0  0
   -0.4368    0.0951   -2.1104 C   0  0  0  0  0  0  0  0  0  0  0  0
   -1.7653    0.4116   -2.4523 C   0  0  0  0  0  0  0  0  0  0  0  0
   -2.5849    0.0133   -1.8711 H   0  0  0  0  0  0  0  0  0  0  0  0
   -2.0305    1.2573   -3.5452 C   0  0  0  0  0  0  0  0  0  0  0  0
   -3.0514    1.4970   -3.8075 H   0  0  0  0  0  0  0  0  0  0  0  0
   -0.9688    1.7892   -4.2965 C   0  0  0  0  0  0  0  0  0  0  0  0
   -1.1727    2.4370   -5.1376 H   0  0  0  0  0  0  0  0  0  0  0  0
    0.3598    1.4737   -3.9585 C   0  0  0  0  0  0  0  0  0  0  0  0
    1.1758    1.8780   -4.5392 H   0  0  0  0  0  0  0  0  0  0  0  0
    0.6244    0.6258   -2.8683 C   0  0  0  0  0  0  0  0  0  0  0  0
    1.6469    0.3812   -2.6113 H   0  0  0  0  0  0  0  0  0  0  0  0
   -1.2168    1.1047    0.4313 C   0  0  0  0  0  0  0  0  0  0  0  0
   -2.0890    1.6186   -0.2704 O   0  0  0  0  0  0  0  0  0  0  0  0
   -0.4674    1.8182    1.2813 N   0  0  0  0  0  0  0  0  0  0  0  0
    0.2640    1.3348    1.7800 H   0  0  0  0  0  0  0  0  0  0  0  0
   -0.5889    3.2615    1.4722 C   0  0  0  0  0  0  0  0  0  0  0  0
   -1.6291    3.5206    1.6805 H   0  0  0  0  0  0  0  0  0  0  0  0
    0.0359    3.5855    2.3049 H   0  0  0  0  0  0  0  0  0  0  0  0
   -0.2760    3.7797    0.5637 H   0  0  0  0  0  0  0  0  0  0  0  0
  5  6  2  0  0  0  0
  5  7  1  0  0  0  0
  2  3  1  0  0  0  0
  2  4  1  0  0  0  0
  2  5  1  0  0  0  0
  1  2  1  0  0  0  0
 25 26  2  0  0  0  0
 25 27  1  0  0  0  0
 23 24  1  0  0  0  0
 21 22  1  0  0  0  0
 21 23  2  0  0  0  0
 19 20  1  0  0  0  0
 19 21  1  0  0  0  0
 17 18  1  0  0  0  0
 17 19  2  0  0  0  0
 15 16  1  0  0  0  0
 15 17  1  0  0  0  0
 14 15  2  0  0  0  0
 14 23  1  0  0  0  0
 11 12  1  0  0  0  0
 11 13  1  0  0  0  0
 11 14  1  0  0  0  0
  9 10  1  0  0  0  0
  9 11  1  0  0  0  0
  9 25  1  0  0  0  0
  7  8  1  0  0  0  0
  7  9  1  0  0  0  0
 29 30  1  0  0  0  0
 29 31  1  0  0  0  0
 29 32  1  0  0  0  0
 27 28  1  0  0  0  0
 27 29  1  0  0  0  0
M  END
$$$$
default_name
  -OEChem-02102213163D

 32 32  0     1  0  0  0  0  0999 V2000
   -3.8405   -3.7518    1.6252 H   0  0  0  0  0  0  0  0  0  0  0  0
   -3.7965   -2.8768    0.9782 C   0  0  0  0  0  0  0  0  0  0  0  0
   -4.5465   -2.1527    1.2902 H   0  0  0  0  0  0  0  0  0  0  0  0
   -3.9745   -3.1748   -0.0538 H   0  0  0  0  0  0  0  0  0  0  0  0
   -2.4245   -2.2537    1.0882 C   0  0  0  0  0  0  0  0  0  0  0  0
   -1.5805   -2.7478    1.8242 O   0  0  0  0  0  0  0  0  0  0  0  0
   -2.2045   -1.1637    0.3562 N   0  0  0  0  0  0  0  0  0  0  0  0
   -2.9595   -0.7907   -0.2008 H   0  0  0  0  0  0  0  0  0  0  0  0
   -0.9485   -0.4087    0.3482 C   0  0  1  0  0  0  0  0  0  0  0  0
   -0.3666   -0.6914    1.2269 H   0  0  0  0  0  0  0  0  0  0  0  0
   -0.1405   -0.7797   -0.9072 C   0  0  0  0  0  0  0  0  0  0  0  0
    0.9237   -0.6960   -0.6822 H   0  0  0  0  0  0  0  0  0  0  0  0
   -0.3405   -1.8216   -1.1615 H   0  0  0  0  0  0  0  0  0  0  0  0
   -0.4368    0.0951   -2.1104 C   0  0  0  0  0  0  0  0  0  0  0  0
   -1.7108    0.6703   -2.2776 C   0  0  0  0  0  0  0  0  0  0  0  0
   -2.4940    0.4728   -1.5594 H   0  0  0  0  0  0  0  0  0  0  0  0
   -1.9659    1.5140   -3.3744 C   0  0  0  0  0  0  0  0  0  0  0  0
   -2.9455    1.9526   -3.5024 H   0  0  0  0  0  0  0  0  0  0  0  0
   -0.9479    1.7855   -4.3043 C   0  0  0  0  0  0  0  0  0  0  0  0
   -1.1446    2.4318   -5.1483 H   0  0  0  0  0  0  0  0  0  0  0  0
    0.3258    1.2111   -4.1410 C   0  0  0  0  0  0  0  0  0  0  0  0
    1.1068    1.4153   -4.8587 H   0  0  0  0  0  0  0  0  0  0  0  0
    0.5795    0.3653   -3.0466 C   0  0  0  0  0  0  0  0  0  0  0  0
    1.5588   -0.0786   -2.9239 H   0  0  0  0  0  0  0  0  0  0  0  0
   -1.2168    1.1047    0.4313 C   0  0  0  0  0  0  0  0  0  0  0  0
   -2.0890    1.6186   -0.2704 O   0  0  0  0  0  0  0  0  0  0  0  0
   -0.4674    1.8182    1.2813 N   0  0  0  0  0  0  0  0  0  0  0  0
    0.2640    1.3348    1.7800 H   0  0  0  0  0  0  0  0  0  0  0  0
   -0.5889    3.2615    1.4722 C   0  0  0  0  0  0  0  0  0  0  0  0
   -1.6291    3.5206    1.6805 H   0  0  0  0  0  0  0  0  0  0  0  0
    0.0359    3.5855    2.3049 H   0  0  0  0  0  0  0  0  0  0  0  0
   -0.2760    3.7797    0.5637 H   0  0  0  0  0  0  0  0  0  0  0  0
  5  6  2  0  0  0  0
  5  7  1  0  0  0  0
  2  3  1  0  0  0  0
  2  4  1  0  0  0  0
  2  5  1  0  0  0  0
  1  2  1  0  0  0  0
 25 26  2  0  0  0  0
 25 27  1  0  0  0  0
 23 24  1  0  0  0  0
 21 22  1  0  0  0  0
 21 23  2  0  0  0  0
 19 20  1  0  0  0  0
 19 21  1  0  0  0  0
 17 18  1  0  0  0  0
 17 19  2  0  0  0  0
 15 16  1  0  0  0  0
 15 17  1  0  0  0  0
 14 15  2  0  0  0  0
 14 23  1  0  0  0  0
 11 12  1  0  0  0  0
 11 13  1  0  0  0  0
 11 14  1  0  0  0  0
  9 10  1  0  0  0  0
  9 11  1  0  0  0  0
  9 25  1  0  0  0  0
  7  8  1  0  0  0  0
  7  9  1  0  0  0  0
 29 30  1  0  0  0  0
 29 31  1  0  0  0  0
 29 32  1  0  0  0  0
 27 28  1  0  0  0  0
 27 29  1  0  0  0  0
M  END
$$$$
default_name
  -OEChem-02102213163D

 32 32  0     1  0  0  0  0  0999 V2000
   -3.8405   -3.7518    1.6252 H   0  0  0  0  0  0  0  0  0  0  0  0
   -3.7965   -2.8768    0.9782 C   0  0  0  0  0  0  0  0  0  0  0  0
   -4.5465   -2.1527    1.2902 H   0  0  0  0  0  0  0  0  0  0  0  0
   -3.9745   -3.1748   -0.0538 H   0  0  0  0  0  0  0  0  0  0  0  0
   -2.4245   -2.2537    1.0882 C   0  0  0  0  0  0  0  0  0  0  0  0
   -1.5805   -2.7478    1.8242 O   0  0  0  0  0  0  0  0  0  0  0  0
   -2.2045   -1.1637    0.3562 N   0  0  0  0  0  0  0  0  0  0  0  0
   -2.9595   -0.7907   -0.2008 H   0  0  0  0  0  0  0  0  0  0  0  0
   -0.9485   -0.4087    0.3482 C   0  0  1  0  0  0  0  0  0  0  0  0
   -0.3666   -0.6914    1.2269 H   0  0  0  0  0  0  0  0  0  0  0  0
   -0.1405   -0.7797   -0.9072 C   0  0  0  0  0  0  0  0  0  0  0  0
    0.9237   -0.6960   -0.6822 H   0  0  0  0  0  0  0  0  0  0  0  0
   -0.3405   -1.8216   -1.1615 H   0  0  0  0  0  0  0  0  0  0  0  0
   -0.4368    0.0951   -2.1104 C   0  0  0  0  0  0  0  0  0  0  0  0
   -1.5790    0.9178   -2.1301 C   0  0  0  0  0  0  0  0  0  0  0  0
   -2.2653    0.9137   -1.2951 H   0  0  0  0  0  0  0  0  0  0  0  0
   -1.8252    1.7573   -3.2322 C   0  0  0  0  0  0  0  0  0  0  0  0
   -2.7042    2.3864   -3.2464 H   0  0  0  0  0  0  0  0  0  0  0  0
   -0.9297    1.7772   -4.3149 C   0  0  0  0  0  0  0  0  0  0  0  0
   -1.1201    2.4204   -5.1626 H   0  0  0  0  0  0  0  0  0  0  0  0
    0.2118    0.9552   -4.2990 C   0  0  0  0  0  0  0  0  0  0  0  0
    0.8975    0.9663   -5.1335 H   0  0  0  0  0  0  0  0  0  0  0  0
    0.4559    0.1139   -3.1990 C   0  0  0  0  0  0  0  0  0  0  0  0
    1.3327   -0.5205   -3.1895 H   0  0  0  0  0  0  0  0  0  0  0  0
   -1.2168    1.1047    0.4313 C   0  0  0  0  0  0  0  0  0  0  0  0
   -2.0890    1.6186   -0.2704 O   0  0  0  0  0  0  0  0  0  0  0  0
   -0.4674    1.8182    1.2813 N   0  0  0  0  0  0  0  0  0  0  0  0
    0.2640    1.3348    1.7800 H   0  0  0  0  0  0  0  0  0  0  0  0
   -0.5889    3.2615    1.4722 C   0  0  0  0  0  0  0  0  0  0  0  0
   -1.6291    3.5206    1.6805 H   0  0  0  0  0  0  0  0  0  0  0  0
    0.0359    3.5855    2.3049 H   0  0  0  0  0  0  0  0  0  0  0  0
   -0.2760    3.7797    0.5637 H   0  0  0  0  0  0  0  0  0  0  0  0
  5  6  2  0  0  0  0
  5  7  1  0  0  0  0
  2  3  1  0  0  0  0
  2  4  1  0  0  0  0
  2  5  1  0  0  0  0
  1  2  1  0  0  0  0
 25 26  2  0  0  0  0
 25 27  1  0  0  0  0
 23 24  1  0  0  0  0
 21 22  1  0  0  0  0
 21 23  2  0  0  0  0
 19 20  1  0  0  0  0
 19 21  1  0  0  0  0
 17 18  1  0  0  0  0
 17 19  2  0  0  0  0
 15 16  1  0  0  0  0
 15 17  1  0  0  0  0
 14 15  2  0  0  0  0
 14 23  1  0  0  0  0
 11 12  1  0  0  0  0
 11 13  1  0  0  0  0
 11 14  1  0  0  0  0
  9 10  1  0  0  0  0
  9 11  1  0  0  0  0
  9 25  1  0  0  0  0
  7  8  1  0  0  0  0
  7  9  1  0  0  0  0
 29 30  1  0  0  0  0
 29 31  1  0  0  0  0
 29 32  1  0  0  0  0
 27 28  1  0  0  0  0
 27 29  1  0  0  0  0
M  END
$$$$
default_name
  -OEChem-02102213163D

 32 32  0     1  0  0  0  0  0999 V2000
   -3.8405   -3.7518    1.6252 H   0  0  0  0  0  0  0  0  0  0  0  0
   -3.7965   -2.8768    0.9782 C   0  0  0  0  0  0  0  0  0  0  0  0
   -4.5465   -2.1527    1.2902 H   0  0  0  0  0  0  0  0  0  0  0  0
   -3.9745   -3.1748   -0.0538 H   0  0  0  0  0  0  0  0  0  0  0  0
   -2.4245   -2.2537    1.0882 C   0  0  0  0  0  0  0  0  0  0  0  0
   -1.5805   -2.7478    1.8242 O   0  0  0  0  0  0  0  0  0  0  0  0
   -2.2045   -1.1637    0.3562 N   0  0  0  0  0  0  0  0  0  0  0  0
   -2.9595   -0.7907   -0.2008 H   0  0  0  0  0  0  0  0  0  0  0  0
   -0.9485   -0.4087    0.3482 C   0  0  1  0  0  0  0  0  0  0  0  0
   -0.3666   -0.6914    1.2269 H   0  0  0  0  0  0  0  0  0  0  0  0
   -0.1405   -0.7797   -0.9072 C   0  0  0  0  0  0  0  0  0  0  0  0
    0.9237   -0.6960   -0.6822 H   0  0  0  0  0  0  0  0  0  0  0  0
   -0.3405   -1.8216   -1.1615 H   0  0  0  0  0  0  0  0  0  0  0  0
   -0.4368    0.0951   -2.1104 C   0  0  0  0  0  0  0  0  0  0  0  0
   -1.3789    1.1373   -2.0198 C   0  0  0  0  0  0  0  0  0  0  0  0
   -1.9145    1.3061   -1.0963 H   0  0  0  0  0  0  0  0  0  0  0  0
   -1.6182    1.9707   -3.1280 C   0  0  0  0  0  0  0  0  0  0  0  0
   -2.3438    2.7688   -3.0572 H   0  0  0  0  0  0  0  0  0  0  0  0
   -0.9153    1.7649   -4.3273 C   0  0  0  0  0  0  0  0  0  0  0  0
   -1.1009    2.4037   -5.1794 H   0  0  0  0  0  0  0  0  0  0  0  0
    0.0256    0.7234   -4.4216 C   0  0  0  0  0  0  0  0  0  0  0  0
    0.5621    0.5617   -5.3451 H   0  0  0  0  0  0  0  0  0  0  0  0
    0.2622   -0.1113   -3.3150 C   0  0  0  0  0  0  0  0  0  0  0  0
    0.9839   -0.9143   -3.3899 H   0  0  0  0  0  0  0  0  0  0  0  0
   -1.2168    1.1047    0.4313 C   0  0  0  0  0  0  0  0  0  0  0  0
   -2.0890    1.6186   -0.2704 O   0  0  0  0  0  0  0  0  0  0  0  0
   -0.4674    1.8182    1.2813 N   0  0  0  0  0  0  0  0  0  0  0  0
    0.2640    1.3348    1.7800 H   0  0  0  0  0  0  0  0  0  0  0  0
   -0.5889    3.2615    1.4722 C   0  0  0  0  0  0  0  0  0  0  0  0
   -1.6291    3.5206    1.6805 H   0  0  0  0  0  0  0  0  0  0  0  0
    0.0359    3.5855    2.3049 H   0  0  0  0  0  0  0  0  0  0  0  0
   -0.2760    3.7797    0.5637 H   0  0  0  0  0  0  0  0  0  0  0  0
  5  6  2  0  0  0  0
  5  7  1  0  0  0  0
  2  3  1  0  0  0  0
  2  4  1  0  0  0  0
  2  5  1  0  0  0  0
  1  2  1  0  0  0  0
 25 26  2  0  0  0  0
 25 27  1  0  0  0  0
 23 24  1  0  0  0  0
 21 22  1  0  0  0  0
 21 23  2  0  0  0  0
 19 20  1  0  0  0  0
 19 21  1  0  0  0  0
 17 18  1  0  0  0  0
 17 19  2  0  0  0  0
 15 16  1  0  0  0  0
 15 17  1  0  0  0  0
 14 15  2  0  0  0  0
 14 23  1  0  0  0  0
 11 12  1  0  0  0  0
 11 13  1  0  0  0  0
 11 14  1  0  0  0  0
  9 10  1  0  0  0  0
  9 11  1  0  0  0  0
  9 25  1  0  0  0  0
  7  8  1  0  0  0  0
  7  9  1  0  0  0  0
 29 30  1  0  0  0  0
 29 31  1  0  0  0  0
 29 32  1  0  0  0  0
 27 28  1  0  0  0  0
 27 29  1  0  0  0  0
M  END
$$$$
default_name
  -OEChem-02102213163D

 32 32  0     1  0  0  0  0  0999 V2000
   -3.8405   -3.7518    1.6252 H   0  0  0  0  0  0  0  0  0  0  0  0
   -3.7965   -2.8768    0.9782 C   0  0  0  0  0  0  0  0  0  0  0  0
   -4.5465   -2.1527    1.2902 H   0  0  0  0  0  0  0  0  0  0  0  0
   -3.9745   -3.1748   -0.0538 H   0  0  0  0  0  0  0  0  0  0  0  0
   -2.4245   -2.2537    1.0882 C   0  0  0  0  0  0  0  0  0  0  0  0
   -1.5805   -2.7478    1.8242 O   0  0  0  0  0  0  0  0  0  0  0  0
   -2.2045   -1.1637    0.3562 N   0  0  0  0  0  0  0  0  0  0  0  0
   -2.9595   -0.7907   -0.2008 H   0  0  0  0  0  0  0  0  0  0  0  0
   -0.9485   -0.4087    0.3482 C   0  0  1  0  0  0  0  0  0  0  0  0
   -0.3666   -0.6914    1.2269 H   0  0  0  0  0  0  0  0  0  0  0  0
   -0.1405   -0.7797   -0.9072 C   0  0  0  0  0  0  0  0  0  0  0  0
    0.9237   -0.6960   -0.6822 H   0  0  0  0  0  0  0  0  0  0  0  0
   -0.3405   -1.8216   -1.1615 H   0  0  0  0  0  0  0  0  0  0  0  0
   -0.4368    0.0951   -2.1104 C   0  0  0  0  0  0  0  0  0  0  0  0
   -1.1240    1.3138   -1.9543 C   0  0  0  0  0  0  0  0  0  0  0  0
   -1.4654    1.6230   -0.9765 H   0  0  0  0  0  0  0  0  0  0  0  0
   -1.3589    2.1395   -3.0692 C   0  0  0  0  0  0  0  0  0  0  0  0
   -1.8890    3.0737   -2.9475 H   0  0  0  0  0  0  0  0  0  0  0  0
   -0.9058    1.7495   -4.3409 C   0  0  0  0  0  0  0  0  0  0  0  0
   -1.0884    2.3828   -5.1977 H   0  0  0  0  0  0  0  0  0  0  0  0
   -0.2201    0.5316   -4.5006 C   0  0  0  0  0  0  0  0  0  0  0  0
    0.1234    0.2291   -5.4789 H   0  0  0  0  0  0  0  0  0  0  0  0
    0.0115   -0.2950   -3.3868 C   0  0  0  0  0  0  0  0  0  0  0  0
    0.5363   -1.2333   -3.5116 H   0  0  0  0  0  0  0  0  0  0  0  0
   -1.2168    1.1047    0.4313 C   0  0  0  0  0  0  0  0  0  0  0  0
   -2.0890    1.6186   -0.2704 O   0  0  0  0  0  0  0  0  0  0  0  0
   -0.4674    1.8182    1.2813 N   0  0  0  0  0  0  0  0  0  0  0  0
    0.2640    1.3348    1.7800 H   0  0  0  0  0  0  0  0  0  0  0  0
   -0.5889    3.2615    1.4722 C   0  0  0  0  0  0  0  0  0  0  0  0
   -1.6291    3.5206    1.6805 H   0  0  0  0  0  0  0  0  0  0  0  0
    0.0359    3.5855    2.3049 H   0  0  0  0  0  0  0  0  0  0  0  0
   -0.2760    3.7797    0.5637 H   0  0  0  0  0  0  0  0  0  0  0  0
  5  6  2  0  0  0  0
  5  7  1  0  0  0  0
  2  3  1  0  0  0  0
  2  4  1  0  0  0  0
  2  5  1  0  0  0  0
  1  2  1  0  0  0  0
 25 26  2  0  0  0  0
 25 27  1  0  0  0  0
 23 24  1  0  0  0  0
 21 22  1  0  0  0  0
 21 23  2  0  0  0  0
 19 20  1  0  0  0  0
 19 21  1  0  0  0  0
 17 18  1  0  0  0  0
 17 19  2  0  0  0  0
 15 16  1  0  0  0  0
 15 17  1  0  0  0  0
 14 15  2  0  0  0  0
 14 23  1  0  0  0  0
 11 12  1  0  0  0  0
 11 13  1  0  0  0  0
 11 14  1  0  0  0  0
  9 10  1  0  0  0  0
  9 11  1  0  0  0  0
  9 25  1  0  0  0  0
  7  8  1  0  0  0  0
  7  9  1  0  0  0  0
 29 30  1  0  0  0  0
 29 31  1  0  0  0  0
 29 32  1  0  0  0  0
 27 28  1  0  0  0  0
 27 29  1  0  0  0  0
M  END
$$$$
default_name
  -OEChem-02102213163D

 32 32  0     1  0  0  0  0  0999 V2000
   -3.8405   -3.7518    1.6252 H   0  0  0  0  0  0  0  0  0  0  0  0
   -3.7965   -2.8768    0.9782 C   0  0  0  0  0  0  0  0  0  0  0  0
   -4.5465   -2.1527    1.2902 H   0  0  0  0  0  0  0  0  0  0  0  0
   -3.9745   -3.1748   -0.0538 H   0  0  0  0  0  0  0  0  0  0  0  0
   -2.4245   -2.2537    1.0882 C   0  0  0  0  0  0  0  0  0  0  0  0
   -1.5805   -2.7478    1.8242 O   0  0  0  0  0  0  0  0  0  0  0  0
   -2.2045   -1.1637    0.3562 N   0  0  0  0  0  0  0  0  0  0  0  0
   -2.9595   -0.7907   -0.2008 H   0  0  0  0  0  0  0  0  0  0  0  0
   -0.9485   -0.4087    0.3482 C   0  0  1  0  0  0  0  0  0  0  0  0
   -0.3666   -0.6914    1.2269 H   0  0  0  0  0  0  0  0  0  0  0  0
   -0.1405   -0.7797   -0.9072 C   0  0  0  0  0  0  0  0  0  0  0  0
    0.9237   -0.6960   -0.6822 H   0  0  0  0  0  0  0  0  0  0  0  0
   -0.3405   -1.8216   -1.1615 H   0  0  0  0  0  0  0  0  0  0  0  0
   -0.4368    0.0951   -2.1104 C   0  0  0  0  0  0  0  0  0  0  0  0
   -0.8318    1.4353   -1.9379 C   0  0  0  0  0  0  0  0  0  0  0  0
   -0.9486    1.8431   -0.9438 H   0  0  0  0  0  0  0  0  0  0  0  0
   -1.0649    2.2524   -3.0595 C   0  0  0  0  0  0  0  0  0  0  0  0
   -1.3707    3.2804   -2.9248 H   0  0  0  0  0  0  0  0  0  0  0  0
   -0.9018    1.7320   -4.3546 C   0  0  0  0  0  0  0  0  0  0  0  0
   -1.0832    2.3591   -5.2163 H   0  0  0  0  0  0  0  0  0  0  0  0
   -0.5087    0.3927   -4.5305 C   0  0  0  0  0  0  0  0  0  0  0  0
   -0.3885   -0.0090   -5.5259 H   0  0  0  0  0  0  0  0  0  0  0  0
   -0.2790   -0.4245   -3.4094 C   0  0  0  0  0  0  0  0  0  0  0  0
    0.0202   -1.4556   -3.5461 H   0  0  0  0  0  0  0  0  0  0  0  0
   -1.2168    1.1047    0.4313 C   0  0  0  0  0  0  0  0  0  0  0  0
   -2.0890    1.6186   -0.2704 O   0  0  0  0  0  0  0  0  0  0  0  0
   -0.4674    1.8182    1.2813 N   0  0  0  0  0  0  0  0  0  0  0  0
    0.2640    1.3348    1.7800 H   0  0  0  0  0  0  0  0  0  0  0  0
   -0.5889    3.2615    1.4722 C   0  0  0  0  0  0  0  0  0  0  0  0
   -1.6291    3.5206    1.6805 H   0  0  0  0  0  0  0  0  0  0  0  0
    0.0359    3.5855    2.3049 H   0  0  0  0  0  0  0  0  0  0  0  0
   -0.2760    3.7797    0.5637 H   0  0  0  0  0  0  0  0  0  0  0  0
  5  6  2  0  0  0  0
  5  7  1  0  0  0  0
  2  3  1  0  0  0  0
  2  4  1  0  0  0  0
  2  5  1  0  0  0  0
  1  2  1  0  0  0  0
 25 26  2  0  0  0  0
 25 27  1  0  0  0  0
 23 24  1  0  0  0  0
 21 22  1  0  0  0  0
 21 23  2  0  0  0  0
 19 20  1  0  0  0  0
 19 21  1  0  0  0  0
 17 18  1  0  0  0  0
 17 19  2  0  0  0  0
 15 16  1  0  0  0  0
 15 17  1  0  0  0  0
 14 15  2  0  0  0  0
 14 23  1  0  0  0  0
 11 12  1  0  0  0  0
 11 13  1  0  0  0  0
 11 14  1  0  0  0  0
  9 10  1  0  0  0  0
  9 11  1  0  0  0  0
  9 25  1  0  0  0  0
  7  8  1  0  0  0  0
  7  9  1  0  0  0  0
 29 30  1  0  0  0  0
 29 31  1  0  0  0  0
 29 32  1  0  0  0  0
 27 28  1  0  0  0  0
 27 29  1  0  0  0  0
M  END
$$$$
default_name
  -OEChem-02102213163D

 32 32  0     1  0  0  0  0  0999 V2000
   -3.8405   -3.7518    1.6252 H   0  0  0  0  0  0  0  0  0  0  0  0
   -3.7965   -2.8768    0.9782 C   0  0  0  0  0  0  0  0  0  0  0  0
   -4.5465   -2.1527    1.2902 H   0  0  0  0  0  0  0  0  0  0  0  0
   -3.9745   -3.1748   -0.0538 H   0  0  0  0  0  0  0  0  0  0  0  0
   -2.4245   -2.2537    1.0882 C   0  0  0  0  0  0  0  0  0  0  0  0
   -1.5805   -2.7478    1.8242 O   0  0  0  0  0  0  0  0  0  0  0  0
   -2.2045   -1.1637    0.3562 N   0  0  0  0  0  0  0  0  0  0  0  0
   -2.9595   -0.7907   -0.2008 H   0  0  0  0  0  0  0  0  0  0  0  0
   -0.9485   -0.4087    0.3482 C   0  0  1  0  0  0  0  0  0  0  0  0
   -0.3666   -0.6914    1.2269 H   0  0  0  0  0  0  0  0  0  0  0  0
   -0.1405   -0.7797   -0.9072 C   0  0  0  0  0  0  0  0  0  0  0  0
    0.9237   -0.6960   -0.6822 H   0  0  0  0  0  0  0  0  0  0  0  0
   -0.3405   -1.8216   -1.1615 H   0  0  0  0  0  0  0  0  0  0  0  0
   -0.4368    0.0951   -2.1104 C   0  0  0  0  0  0  0  0  0  0  0  0
   -0.5222    1.4935   -1.9719 C   0  0  0  0  0  0  0  0  0  0  0  0
   -0.3993    1.9511   -1.0004 H   0  0  0  0  0  0  0  0  0  0  0  0
   -0.7564    2.3015   -3.0998 C   0  0  0  0  0  0  0  0  0  0  0  0
   -0.8242    3.3748   -2.9908 H   0  0  0  0  0  0  0  0  0  0  0  0
   -0.9036    1.7135   -4.3675 C   0  0  0  0  0  0  0  0  0  0  0  0
   -1.0859    2.3342   -5.2337 H   0  0  0  0  0  0  0  0  0  0  0  0
   -0.8204    0.3164   -4.5092 C   0  0  0  0  0  0  0  0  0  0  0  0
   -0.9389   -0.1361   -5.4828 H   0  0  0  0  0  0  0  0  0  0  0  0
   -0.5896   -0.4911   -3.3814 C   0  0  0  0  0  0  0  0  0  0  0  0
   -0.5291   -1.5661   -3.4912 H   0  0  0  0  0  0  0  0  0  0  0  0
   -1.2168    1.1047    0.4313 C   0  0  0  0  0  0  0  0  0  0  0  0
   -2.0890    1.6186   -0.2704 O   0  0  0  0  0  0  0  0  0  0  0  0
   -0.4674    1.8182    1.2813 N   0  0  0  0  0  0  0  0  0  0  0  0
    0.2640    1.3348    1.7800 H   0  0  0  0  0  0  0  0  0  0  0  0
   -0.5889    3.2615    1.4722 C   0  0  0  0  0  0  0  0  0  0  0  0
   -1.6291    3.5206    1.6805 H   0  0  0  0  0  0  0  0  0  0  0  0
    0.0359    3.5855    2.3049 H   0  0  0  0  0  0  0  0  0  0  0  0
   -0.2760    3.7797    0.5637 H   0  0  0  0  0  0  0  0  0  0  0  0
  5  6  2  0  0  0  0
  5  7  1  0  0  0  0
  2  3  1  0  0  0  0
  2  4  1  0  0  0  0
  2  5  1  0  0  0  0
  1  2  1  0  0  0  0
 25 26  2  0  0  0  0
 25 27  1  0  0  0  0
 23 24  1  0  0  0  0
 21 22  1  0  0  0  0
 21 23  2  0  0  0  0
 19 20  1  0  0  0  0
 19 21  1  0  0  0  0
 17 18  1  0  0  0  0
 17 19  2  0  0  0  0
 15 16  1  0  0  0  0
 15 17  1  0  0  0  0
 14 15  2  0  0  0  0
 14 23  1  0  0  0  0
 11 12  1  0  0  0  0
 11 13  1  0  0  0  0
 11 14  1  0  0  0  0
  9 10  1  0  0  0  0
  9 11  1  0  0  0  0
  9 25  1  0  0  0  0
  7  8  1  0  0  0  0
  7  9  1  0  0  0  0
 29 30  1  0  0  0  0
 29 31  1  0  0  0  0
 29 32  1  0  0  0  0
 27 28  1  0  0  0  0
 27 29  1  0  0  0  0
M  END
$$$$
default_name
  -OEChem-02102213163D

 32 32  0     1  0  0  0  0  0999 V2000
   -3.8405   -3.7518    1.6252 H   0  0  0  0  0  0  0  0  0  0  0  0
   -3.7965   -2.8768    0.9782 C   0  0  0  0  0  0  0  0  0  0  0  0
   -4.5465   -2.1527    1.2902 H   0  0  0  0  0  0  0  0  0  0  0  0
   -3.9745   -3.1748   -0.0538 H   0  0  0  0  0  0  0  0  0  0  0  0
   -2.4245   -2.2537    1.0882 C   0  0  0  0  0  0  0  0  0  0  0  0
   -1.5805   -2.7478    1.8242 O   0  0  0  0  0  0  0  0  0  0  0  0
   -2.2045   -1.1637    0.3562 N   0  0  0  0  0  0  0  0  0  0  0  0
   -2.9595   -0.7907   -0.2008 H   0  0  0  0  0  0  0  0  0  0  0  0
   -0.9485   -0.4087    0.3482 C   0  0  1  0  0  0  0  0  0  0  0  0
   -0.3666   -0.6914    1.2269 H   0  0  0  0  0  0  0  0  0  0  0  0
   -0.1405   -0.7797   -0.9072 C   0  0  0  0  0  0  0  0  0  0  0  0
    0.9237   -0.6960   -0.6822 H   0  0  0  0  0  0  0  0  0  0  0  0
   -0.3405   -1.8216   -1.1615 H   0  0  0  0  0  0  0  0  0  0  0  0
   -0.4368    0.0951   -2.1104 C   0  0  0  0  0  0  0  0  0  0  0  0
   -0.2163    1.4844   -2.0538 C   0  0  0  0  0  0  0  0  0  0  0  0
    0.1449    1.9399   -1.1426 H   0  0  0  0  0  0  0  0  0  0  0  0
   -0.4543    2.2835   -3.1872 C   0  0  0  0  0  0  0  0  0  0  0  0
   -0.2868    3.3505   -3.1408 H   0  0  0  0  0  0  0  0  0  0  0  0
   -0.9111    1.6954   -4.3789 C   0  0  0  0  0  0  0  0  0  0  0  0
   -1.0962    2.3098   -5.2489 H   0  0  0  0  0  0  0  0  0  0  0  0
   -1.1339    0.3077   -4.4383 C   0  0  0  0  0  0  0  0  0  0  0  0
   -1.4902   -0.1438   -5.3526 H   0  0  0  0  0  0  0  0  0  0  0  0
   -0.8991   -0.4903   -3.3045 C   0  0  0  0  0  0  0  0  0  0  0  0
   -1.0741   -1.5573   -3.3506 H   0  0  0  0  0  0  0  0  0  0  0  0
   -1.2168    1.1047    0.4313 C   0  0  0  0  0  0  0  0  0  0  0  0
   -2.0890    1.6186   -0.2704 O   0  0  0  0  0  0  0  0  0  0  0  0
   -0.4674    1.8182    1.2813 N   0  0  0  0  0  0  0  0  0  0  0  0
    0.2640    1.3348    1.7800 H   0  0  0  0  0  0  0  0  0  0  0  0
   -0.5889    3.2615    1.4722 C   0  0  0  0  0  0  0  0  0  0  0  0
   -1.6291    3.5206    1.6805 H   0  0  0  0  0  0  0  0  0  0  0  0
    0.0359    3.5855    2.3049 H   0  0  0  0  0  0  0  0  0  0  0  0
   -0.2760    3.7797    0.5637 H   0  0  0  0  0  0  0  0  0  0  0  0
  5  6  2  0  0  0  0
  5  7  1  0  0  0  0
  2  3  1  0  0  0  0
  2  4  1  0  0  0  0
  2  5  1  0  0  0  0
  1  2  1  0  0  0  0
 25 26  2  0  0  0  0
 25 27  1  0  0  0  0
 23 24  1  0  0  0  0
 21 22  1  0  0  0  0
 21 23  2  0  0  0  0
 19 20  1  0  0  0  0
 19 21  1  0  0  0  0
 17 18  1  0  0  0  0
 17 19  2  0  0  0  0
 15 16  1  0  0  0  0
 15 17  1  0  0  0  0
 14 15  2  0  0  0  0
 14 23  1  0  0  0  0
 11 12  1  0  0  0  0
 11 13  1  0  0  0  0
 11 14  1  0  0  0  0
  9 10  1  0  0  0  0
  9 11  1  0  0  0  0
  9 25  1  0  0  0  0
  7  8  1  0  0  0  0
  7  9  1  0  0  0  0
 29 30  1  0  0  0  0
 29 31  1  0  0  0  0
 29 32  1  0  0  0  0
 27 28  1  0  0  0  0
 27 29  1  0  0  0  0
M  END
$$$$
default_name
  -OEChem-02102213163D

 32 32  0     1  0  0  0  0  0999 V2000
   -3.8405   -3.7518    1.6252 H   0  0  0  0  0  0  0  0  0  0  0  0
   -3.7965   -2.8768    0.9782 C   0  0  0  0  0  0  0  0  0  0  0  0
   -4.5465   -2.1527    1.2902 H   0  0  0  0  0  0  0  0  0  0  0  0
   -3.9745   -3.1748   -0.0538 H   0  0  0  0  0  0  0  0  0  0  0  0
   -2.4245   -2.2537    1.0882 C   0  0  0  0  0  0  0  0  0  0  0  0
   -1.5805   -2.7478    1.8242 O   0  0  0  0  0  0  0  0  0  0  0  0
   -2.2045   -1.1637    0.3562 N   0  0  0  0  0  0  0  0  0  0  0  0
   -2.9595   -0.7907   -0.2008 H   0  0  0  0  0  0  0  0  0  0  0  0
   -0.9485   -0.4087    0.3482 C   0  0  1  0  0  0  0  0  0  0  0  0
   -0.3666   -0.6914    1.2269 H   0  0  0  0  0  0  0  0  0  0  0  0
   -0.1405   -0.7797   -0.9072 C   0  0  0  0  0  0  0  0  0  0  0  0
    0.9237   -0.6960   -0.6822 H   0  0  0  0  0  0  0  0  0  0  0  0
   -0.3405   -1.8216   -1.1615 H   0  0  0  0  0  0  0  0  0  0  0  0
   -0.4368    0.0951   -2.1104 C   0  0  0  0  0  0  0  0  0  0  0  0
    0.0651    1.4086   -2.1782 C   0  0  0  0  0  0  0  0  0  0  0  0
    0.6471    1.8101   -1.3606 H   0  0  0  0  0  0  0  0  0  0  0  0
   -0.1793    2.1998   -3.3158 C   0  0  0  0  0  0  0  0  0  0  0  0
    0.2049    3.2090   -3.3647 H   0  0  0  0  0  0  0  0  0  0  0  0
   -0.9237    1.6789   -4.3878 C   0  0  0  0  0  0  0  0  0  0  0  0
   -1.1135    2.2876   -5.2608 H   0  0  0  0  0  0  0  0  0  0  0  0
   -1.4280    0.3672   -4.3226 C   0  0  0  0  0  0  0  0  0  0  0  0
   -2.0049   -0.0314   -5.1442 H   0  0  0  0  0  0  0  0  0  0  0  0
   -1.1864   -0.4220   -3.1842 C   0  0  0  0  0  0  0  0  0  0  0  0
   -1.5778   -1.4298   -3.1339 H   0  0  0  0  0  0  0  0  0  0  0  0
   -1.2168    1.1047    0.4313 C   0  0  0  0  0  0  0  0  0  0  0  0
   -2.0890    1.6186   -0.2704 O   0  0  0  0  0  0  0  0  0  0  0  0
   -0.4674    1.8182    1.2813 N   0  0  0  0  0  0  0  0  0  0  0  0
    0.2640    1.3348    1.7800 H   0  0  0  0  0  0  0  0  0  0  0  0
   -0.5889    3.2615    1.4722 C   0  0  0  0  0  0  0  0  0  0  0  0
   -1.6291    3.5206    1.6805 H   0  0  0  0  0  0  0  0  0  0  0  0
    0.0359    3.5855    2.3049 H   0  0  0  0  0  0  0  0  0  0  0  0
   -0.2760    3.7797    0.5637 H   0  0  0  0  0  0  0  0  0  0  0  0
  5  6  2  0  0  0  0
  5  7  1  0  0  0  0
  2  3  1  0  0  0  0
  2  4  1  0  0  0  0
  2  5  1  0  0  0  0
  1  2  1  0  0  0  0
 25 26  2  0  0  0  0
 25 27  1  0  0  0  0
 23 24  1  0  0  0  0
 21 22  1  0  0  0  0
 21 23  2  0  0  0  0
 19 20  1  0  0  0  0
 19 21  1  0  0  0  0
 17 18  1  0  0  0  0
 17 19  2  0  0  0  0
 15 16  1  0  0  0  0
 15 17  1  0  0  0  0
 14 15  2  0  0  0  0
 14 23  1  0  0  0  0
 11 12  1  0  0  0  0
 11 13  1  0  0  0  0
 11 14  1  0  0  0  0
  9 10  1  0  0  0  0
  9 11  1  0  0  0  0
  9 25  1  0  0  0  0
  7  8  1  0  0  0  0
  7  9  1  0  0  0  0
 29 30  1  0  0  0  0
 29 31  1  0  0  0  0
 29 32  1  0  0  0  0
 27 28  1  0  0  0  0
 27 29  1  0  0  0  0
M  END
$$$$
default_name
  -OEChem-02102213163D

 32 32  0     1  0  0  0  0  0999 V2000
   -3.8405   -3.7518    1.6252 H   0  0  0  0  0  0  0  0  0  0  0  0
   -3.7965   -2.8768    0.9782 C   0  0  0  0  0  0  0  0  0  0  0  0
   -4.5465   -2.1527    1.2902 H   0  0  0  0  0  0  0  0  0  0  0  0
   -3.9745   -3.1748   -0.0538 H   0  0  0  0  0  0  0  0  0  0  0  0
   -2.4245   -2.2537    1.0882 C   0  0  0  0  0  0  0  0  0  0  0  0
   -1.5805   -2.7478    1.8242 O   0  0  0  0  0  0  0  0  0  0  0  0
   -2.2045   -1.1637    0.3562 N   0  0  0  0  0  0  0  0  0  0  0  0
   -2.9595   -0.7907   -0.2008 H   0  0  0  0  0  0  0  0  0  0  0  0
   -0.9485   -0.4087    0.3482 C   0  0  1  0  0  0  0  0  0  0  0  0
   -0.3666   -0.6914    1.2269 H   0  0  0  0  0  0  0  0  0  0  0  0
   -0.1405   -0.7797   -0.9072 C   0  0  0  0  0  0  0  0  0  0  0  0
    0.9237   -0.6960   -0.6822 H   0  0  0  0  0  0  0  0  0  0  0  0
   -0.3405   -1.8216   -1.1615 H   0  0  0  0  0  0  0  0  0  0  0  0
   -0.4368    0.0951   -2.1104 C   0  0  0  0  0  0  0  0  0  0  0  0
    0.3028    1.2714   -2.3365 C   0  0  0  0  0  0  0  0  0  0  0  0
    1.0730    1.5707   -1.6396 H   0  0  0  0  0  0  0  0  0  0  0  0
    0.0500    2.0559   -3.4769 C   0  0  0  0  0  0  0  0  0  0  0  0
    0.6174    2.9601   -3.6473 H   0  0  0  0  0  0  0  0  0  0  0  0
   -0.9406    1.6651   -4.3937 C   0  0  0  0  0  0  0  0  0  0  0  0
   -1.1364    2.2691   -5.2686 H   0  0  0  0  0  0  0  0  0  0  0  0
   -1.6826    0.4910   -4.1700 C   0  0  0  0  0  0  0  0  0  0  0  0
   -2.4479    0.1933   -4.8717 H   0  0  0  0  0  0  0  0  0  0  0  0
   -1.4320   -0.2910   -3.0285 C   0  0  0  0  0  0  0  0  0  0  0  0
   -2.0058   -1.1923   -2.8558 H   0  0  0  0  0  0  0  0  0  0  0  0
   -1.2168    1.1047    0.4313 C   0  0  0  0  0  0  0  0  0  0  0  0
   -2.0890    1.6186   -0.2704 O   0  0  0  0  0  0  0  0  0  0  0  0
   -0.4674    1.8182    1.2813 N   0  0  0  0  0  0  0  0  0  0  0  0
    0.2640    1.3348    1.7800 H   0  0  0  0  0  0  0  0  0  0  0  0
   -0.5889    3.2615    1.4722 C   0  0  0  0  0  0  0  0  0  0  0  0
   -1.6291    3.5206    1.6805 H   0  0  0  0  0  0  0  0  0  0  0  0
    0.0359    3.5855    2.3049 H   0  0  0  0  0  0  0  0  0  0  0  0
   -0.2760    3.7797    0.5637 H   0  0  0  0  0  0  0  0  0  0  0  0
  5  6  2  0  0  0  0
  5  7  1  0  0  0  0
  2  3  1  0  0  0  0
  2  4  1  0  0  0  0
  2  5  1  0  0  0  0
  1  2  1  0  0  0  0
 25 26  2  0  0  0  0
 25 27  1  0  0  0  0
 23 24  1  0  0  0  0
 21 22  1  0  0  0  0
 21 23  2  0  0  0  0
 19 20  1  0  0  0  0
 19 21  1  0  0  0  0
 17 18  1  0  0  0  0
 17 19  2  0  0  0  0
 15 16  1  0  0  0  0
 15 17  1  0  0  0  0
 14 15  2  0  0  0  0
 14 23  1  0  0  0  0
 11 12  1  0  0  0  0
 11 13  1  0  0  0  0
 11 14  1  0  0  0  0
  9 10  1  0  0  0  0
  9 11  1  0  0  0  0
  9 25  1  0  0  0  0
  7  8  1  0  0  0  0
  7  9  1  0  0  0  0
 29 30  1  0  0  0  0
 29 31  1  0  0  0  0
 29 32  1  0  0  0  0
 27 28  1  0  0  0  0
 27 29  1  0  0  0  0
M  END
$$$$
default_name
  -OEChem-02102213163D

 32 32  0     1  0  0  0  0  0999 V2000
   -3.8405   -3.7518    1.6252 H   0  0  0  0  0  0  0  0  0  0  0  0
   -3.7965   -2.8768    0.9782 C   0  0  0  0  0  0  0  0  0  0  0  0
   -4.5465   -2.1527    1.2902 H   0  0  0  0  0  0  0  0  0  0  0  0
   -3.9745   -3.1748   -0.0538 H   0  0  0  0  0  0  0  0  0  0  0  0
   -2.4245   -2.2537    1.0882 C   0  0  0  0  0  0  0  0  0  0  0  0
   -1.5805   -2.7478    1.8242 O   0  0  0  0  0  0  0  0  0  0  0  0
   -2.2045   -1.1637    0.3562 N   0  0  0  0  0  0  0  0  0  0  0  0
   -2.9595   -0.7907   -0.2008 H   0  0  0  0  0  0  0  0  0  0  0  0
   -0.9485   -0.4087    0.3482 C   0  0  1  0  0  0  0  0  0  0  0  0
   -0.3666   -0.6914    1.2269 H   0  0  0  0  0  0  0  0  0  0  0  0
   -0.1405   -0.7797   -0.9072 C   0  0  0  0  0  0  0  0  0  0  0  0
    0.9237   -0.6960   -0.6822 H   0  0  0  0  0  0  0  0  0  0  0  0
   -0.3405   -1.8216   -1.1615 H   0  0  0  0  0  0  0  0  0  0  0  0
   -0.4368    0.0951   -2.1104 C   0  0  0  0  0  0  0  0  0  0  0  0
    0.4806    1.0821   -2.5179 C   0  0  0  0  0  0  0  0  0  0  0  0
    1.3935    1.2378   -1.9605 H   0  0  0  0  0  0  0  0  0  0  0  0
    0.2179    1.8617   -3.6594 C   0  0  0  0  0  0  0  0  0  0  0  0
    0.9225    2.6207   -3.9691 H   0  0  0  0  0  0  0  0  0  0  0  0
   -0.9607    1.6549   -4.3961 C   0  0  0  0  0  0  0  0  0  0  0  0
   -1.1636    2.2555   -5.2717 H   0  0  0  0  0  0  0  0  0  0  0  0
   -1.8803    0.6705   -3.9907 C   0  0  0  0  0  0  0  0  0  0  0  0
   -2.7889    0.5151   -4.5538 H   0  0  0  0  0  0  0  0  0  0  0  0
   -1.6191   -0.1062   -2.8480 C   0  0  0  0  0  0  0  0  0  0  0  0
   -2.3289   -0.8609   -2.5353 H   0  0  0  0  0  0  0  0  0  0  0  0
   -1.2168    1.1047    0.4313 C   0  0  0  0  0  0  0  0  0  0  0  0
   -2.0890    1.6186   -0.2704 O   0  0  0  0  0  0  0  0  0  0  0  0
   -0.4674    1.8182    1.2813 N   0  0  0  0  0  0  0  0  0  0  0  0
    0.2640    1.3348    1.7800 H   0  0  0  0  0  0  0  0  0  0  0  0
   -0.5889    3.2615    1.4722 C   0  0  0  0  0  0  0  0  0  0  0  0
   -1.6291    3.5206    1.6805 H   0  0  0  0  0  0  0  0  0  0  0  0
    0.0359    3.5855    2.3049 H   0  0  0  0  0  0  0  0  0  0  0  0
   -0.2760    3.7797    0.5637 H   0  0  0  0  0  0  0  0  0  0  0  0
  5  6  2  0  0  0  0
  5  7  1  0  0  0  0
  2  3  1  0  0  0  0
  2  4  1  0  0  0  0
  2  5  1  0  0  0  0
  1  2  1  0  0  0  0
 25 26  2  0  0  0  0
 25 27  1  0  0  0  0
 23 24  1  0  0  0  0
 21 22  1  0  0  0  0
 21 23  2  0  0  0  0
 19 20  1  0  0  0  0
 19 21  1  0  0  0  0
 17 18  1  0  0  0  0
 17 19  2  0  0  0  0
 15 16  1  0  0  0  0
 15 17  1  0  0  0  0
 14 15  2  0  0  0  0
 14 23  1  0  0  0  0
 11 12  1  0  0  0  0
 11 13  1  0  0  0  0
 11 14  1  0  0  0  0
  9 10  1  0  0  0  0
  9 11  1  0  0  0  0
  9 25  1  0  0  0  0
  7  8  1  0  0  0  0
  7  9  1  0  0  0  0
 29 30  1  0  0  0  0
 29 31  1  0  0  0  0
 29 32  1  0  0  0  0
 27 28  1  0  0  0  0
 27 29  1  0  0  0  0
M  END
$$$$
default_name
  -OEChem-02102213163D

 32 32  0     1  0  0  0  0  0999 V2000
   -3.8405   -3.7518    1.6252 H   0  0  0  0  0  0  0  0  0  0  0  0
   -3.7965   -2.8768    0.9782 C   0  0  0  0  0  0  0  0  0  0  0  0
   -4.5465   -2.1527    1.2902 H   0  0  0  0  0  0  0  0  0  0  0  0
   -3.9745   -3.1748   -0.0538 H   0  0  0  0  0  0  0  0  0  0  0  0
   -2.4245   -2.2537    1.0882 C   0  0  0  0  0  0  0  0  0  0  0  0
   -1.5805   -2.7478    1.8242 O   0  0  0  0  0  0  0  0  0  0  0  0
   -2.2045   -1.1637    0.3562 N   0  0  0  0  0  0  0  0  0  0  0  0
   -2.9595   -0.7907   -0.2008 H   0  0  0  0  0  0  0  0  0  0  0  0
   -0.9485   -0.4087    0.3482 C   0  0  1  0  0  0  0  0  0  0  0  0
   -0.3666   -0.6914    1.2269 H   0  0  0  0  0  0  0  0  0  0  0  0
   -0.1405   -0.7797   -0.9072 C   0  0  0  0  0  0  0  0  0  0  0  0
    0.9237   -0.6960   -0.6822 H   0  0  0  0  0  0  0  0  0  0  0  0
   -0.3405   -1.8216   -1.1615 H   0  0  0  0  0  0  0  0  0  0  0  0
   -0.4368    0.0951   -2.1104 C   0  0  0  0  0  0  0  0  0  0  0  0
    0.5864    0.8535   -2.7102 C   0  0  0  0  0  0  0  0  0  0  0  0
    1.5869    0.8342   -2.3016 H   0  0  0  0  0  0  0  0  0  0  0  0
    0.3130    1.6304   -3.8510 C   0  0  0  0  0  0  0  0  0  0  0  0
    1.0996    2.2140   -4.3085 H   0  0  0  0  0  0  0  0  0  0  0  0
   -0.9825    1.6491   -4.3950 C   0  0  0  0  0  0  0  0  0  0  0  0
   -1.1931    2.2478   -5.2701 H   0  0  0  0  0  0  0  0  0  0  0  0
   -2.0077    0.8936   -3.7972 C   0  0  0  0  0  0  0  0  0  0  0  0
   -3.0048    0.9121   -4.2120 H   0  0  0  0  0  0  0  0  0  0  0  0
   -1.7349    0.1198   -2.6552 C   0  0  0  0  0  0  0  0  0  0  0  0
   -2.5252   -0.4583   -2.1943 H   0  0  0  0  0  0  0  0  0  0  0  0
   -1.2168    1.1047    0.4313 C   0  0  0  0  0  0  0  0  0  0  0  0
   -2.0890    1.6186   -0.2704 O   0  0  0  0  0  0  0  0  0  0  0  0
   -0.4674    1.8182    1.2813 N   0  0  0  0  0  0  0  0  0  0  0  0
    0.2640    1.3348    1.7800 H   0  0  0  0  0  0  0  0  0  0  0  0
   -0.5889    3.2615    1.4722 C   0  0  0  0  0  0  0  0  0  0  0  0
   -1.6291    3.5206    1.6805 H   0  0  0  0  0  0  0  0  0  0  0  0
    0.0359    3.5855    2.3049 H   0  0  0  0  0  0  0  0  0  0  0  0
   -0.2760    3.7797    0.5637 H   0  0  0  0  0  0  0  0  0  0  0  0
  5  6  2  0  0  0  0
  5  7  1  0  0  0  0
  2  3  1  0  0  0  0
  2  4  1  0  0  0  0
  2  5  1  0  0  0  0
  1  2  1  0  0  0  0
 25 26  2  0  0  0  0
 25 27  1  0  0  0  0
 23 24  1  0  0  0  0
 21 22  1  0  0  0  0
 21 23  2  0  0  0  0
 19 20  1  0  0  0  0
 19 21  1  0  0  0  0
 17 18  1  0  0  0  0
 17 19  2  0  0  0  0
 15 16  1  0  0  0  0
 15 17  1  0  0  0  0
 14 15  2  0  0  0  0
 14 23  1  0  0  0  0
 11 12  1  0  0  0  0
 11 13  1  0  0  0  0
 11 14  1  0  0  0  0
  9 10  1  0  0  0  0
  9 11  1  0  0  0  0
  9 25  1  0  0  0  0
  7  8  1  0  0  0  0
  7  9  1  0  0  0  0
 29 30  1  0  0  0  0
 29 31  1  0  0  0  0
 29 32  1  0  0  0  0
 27 28  1  0  0  0  0
 27 29  1  0  0  0  0
M  END
$$$$
default_name
  -OEChem-02102213163D

 32 32  0     1  0  0  0  0  0999 V2000
   -3.8405   -3.7518    1.6252 H   0  0  0  0  0  0  0  0  0  0  0  0
   -3.7965   -2.8768    0.9782 C   0  0  0  0  0  0  0  0  0  0  0  0
   -4.5465   -2.1527    1.2902 H   0  0  0  0  0  0  0  0  0  0  0  0
   -3.9745   -3.1748   -0.0538 H   0  0  0  0  0  0  0  0  0  0  0  0
   -2.4245   -2.2537    1.0882 C   0  0  0  0  0  0  0  0  0  0  0  0
   -1.5805   -2.7478    1.8242 O   0  0  0  0  0  0  0  0  0  0  0  0
   -2.2045   -1.1637    0.3562 N   0  0  0  0  0  0  0  0  0  0  0  0
   -2.9595   -0.7907   -0.2008 H   0  0  0  0  0  0  0  0  0  0  0  0
   -0.9485   -0.4087    0.3482 C   0  0  1  0  0  0  0  0  0  0  0  0
   -0.3666   -0.6914    1.2269 H   0  0  0  0  0  0  0  0  0  0  0  0
   -0.1405   -0.7797   -0.9072 C   0  0  0  0  0  0  0  0  0  0  0  0
    0.9237   -0.6960   -0.6822 H   0  0  0  0  0  0  0  0  0  0  0  0
   -0.3405   -1.8216   -1.1615 H   0  0  0  0  0  0  0  0  0  0  0  0
   -0.4368    0.0951   -2.1104 C   0  0  0  0  0  0  0  0  0  0  0  0
    0.6130    0.6012   -2.9001 C   0  0  0  0  0  0  0  0  0  0  0  0
    1.6400    0.3875   -2.6394 H   0  0  0  0  0  0  0  0  0  0  0  0
    0.3287    1.3778   -4.0385 C   0  0  0  0  0  0  0  0  0  0  0  0
    1.1364    1.7676   -4.6421 H   0  0  0  0  0  0  0  0  0  0  0  0
   -1.0046    1.6480   -4.3903 C   0  0  0  0  0  0  0  0  0  0  0  0
   -1.2229    2.2466   -5.2637 H   0  0  0  0  0  0  0  0  0  0  0  0
   -2.0560    1.1450   -3.6025 C   0  0  0  0  0  0  0  0  0  0  0  0
   -3.0808    1.3571   -3.8698 H   0  0  0  0  0  0  0  0  0  0  0  0
   -1.7715    0.3717   -2.4630 C   0  0  0  0  0  0  0  0  0  0  0  0
   -2.5812   -0.0119   -1.8559 H   0  0  0  0  0  0  0  0  0  0  0  0
   -1.2168    1.1047    0.4313 C   0  0  0  0  0  0  0  0  0  0  0  0
   -2.0890    1.6186   -0.2704 O   0  0  0  0  0  0  0  0  0  0  0  0
   -0.4674    1.8182    1.2813 N   0  0  0  0  0  0  0  0  0  0  0  0
    0.2640    1.3348    1.7800 H   0  0  0  0  0  0  0  0  0  0  0  0
   -0.5889    3.2615    1.4722 C   0  0  0  0  0  0  0  0  0  0  0  0
   -1.6291    3.5206    1.6805 H   0  0  0  0  0  0  0  0  0  0  0  0
    0.0359    3.5855    2.3049 H   0  0  0  0  0  0  0  0  0  0  0  0
   -0.2760    3.7797    0.5637 H   0  0  0  0  0  0  0  0  0  0  0  0
  5  6  2  0  0  0  0
  5  7  1  0  0  0  0
  2  3  1  0  0  0  0
  2  4  1  0  0  0  0
  2  5  1  0  0  0  0
  1  2  1  0  0  0  0
 25 26  2  0  0  0  0
 25 27  1  0  0  0  0
 23 24  1  0  0  0  0
 21 22  1  0  0  0  0
 21 23  2  0  0  0  0
 19 20  1  0  0  0  0
 19 21  1  0  0  0  0
 17 18  1  0  0  0  0
 17 19  2  0  0  0  0
 15 16  1  0  0  0  0
 15 17  1  0  0  0  0
 14 15  2  0  0  0  0
 14 23  1  0  0  0  0
 11 12  1  0  0  0  0
 11 13  1  0  0  0  0
 11 14  1  0  0  0  0
  9 10  1  0  0  0  0
  9 11  1  0  0  0  0
  9 25  1  0  0  0  0
  7  8  1  0  0  0  0
  7  9  1  0  0  0  0
 29 30  1  0  0  0  0
 29 31  1  0  0  0  0
 29 32  1  0  0  0  0
 27 28  1  0  0  0  0
 27 29  1  0  0  0  0
M  END
$$$$
default_name
  -OEChem-02102213163D

 32 32  0     1  0  0  0  0  0999 V2000
   -3.8405   -3.7518    1.6252 H   0  0  0  0  0  0  0  0  0  0  0  0
   -3.7965   -2.8768    0.9782 C   0  0  0  0  0  0  0  0  0  0  0  0
   -4.5465   -2.1527    1.2902 H   0  0  0  0  0  0  0  0  0  0  0  0
   -3.9745   -3.1748   -0.0538 H   0  0  0  0  0  0  0  0  0  0  0  0
   -2.4245   -2.2537    1.0882 C   0  0  0  0  0  0  0  0  0  0  0  0
   -1.5805   -2.7478    1.8242 O   0  0  0  0  0  0  0  0  0  0  0  0
   -2.2045   -1.1637    0.3562 N   0  0  0  0  0  0  0  0  0  0  0  0
   -2.9595   -0.7907   -0.2008 H   0  0  0  0  0  0  0  0  0  0  0  0
   -0.9485   -0.4087    0.3482 C   0  0  1  0  0  0  0  0  0  0  0  0
   -0.3666   -0.6914    1.2269 H   0  0  0  0  0  0  0  0  0  0  0  0
   -0.1405   -0.7797   -0.9072 C   0  0  0  0  0  0  0  0  0  0  0  0
    0.9237   -0.6960   -0.6822 H   0  0  0  0  0  0  0  0  0  0  0  0
   -0.3405   -1.8216   -1.1615 H   0  0  0  0  0  0  0  0  0  0  0  0
   -0.4368    0.0951   -2.1104 C   0  0  0  0  0  0  0  0  0  0  0  0
    0.5585    0.3426   -3.0748 C   0  0  0  0  0  0  0  0  0  0  0  0
    1.5490   -0.0720   -2.9511 H   0  0  0  0  0  0  0  0  0  0  0  0
    0.2641    1.1211   -4.2092 C   0  0  0  0  0  0  0  0  0  0  0  0
    1.0306    1.3120   -4.9472 H   0  0  0  0  0  0  0  0  0  0  0  0
   -1.0255    1.6517   -4.3825 C   0  0  0  0  0  0  0  0  0  0  0  0
   -1.2510    2.2518   -5.2529 H   0  0  0  0  0  0  0  0  0  0  0  0
   -2.0220    1.4076   -3.4200 C   0  0  0  0  0  0  0  0  0  0  0  0
   -3.0118    1.8198   -3.5503 H   0  0  0  0  0  0  0  0  0  0  0  0
   -1.7266    0.6322   -2.2847 C   0  0  0  0  0  0  0  0  0  0  0  0
   -2.4931    0.4479   -1.5433 H   0  0  0  0  0  0  0  0  0  0  0  0
   -1.2168    1.1047    0.4313 C   0  0  0  0  0  0  0  0  0  0  0  0
   -2.0890    1.6186   -0.2704 O   0  0  0  0  0  0  0  0  0  0  0  0
   -0.4674    1.8182    1.2813 N   0  0  0  0  0  0  0  0  0  0  0  0
    0.2640    1.3348    1.7800 H   0  0  0  0  0  0  0  0  0  0  0  0
   -0.5889    3.2615    1.4722 C   0  0  0  0  0  0  0  0  0  0  0  0
   -1.6291    3.5206    1.6805 H   0  0  0  0  0  0  0  0  0  0  0  0
    0.0359    3.5855    2.3049 H   0  0  0  0  0  0  0  0  0  0  0  0
   -0.2760    3.7797    0.5637 H   0  0  0  0  0  0  0  0  0  0  0  0
  5  6  2  0  0  0  0
  5  7  1  0  0  0  0
  2  3  1  0  0  0  0
  2  4  1  0  0  0  0
  2  5  1  0  0  0  0
  1  2  1  0  0  0  0
 25 26  2  0  0  0  0
 25 27  1  0  0  0  0
 23 24  1  0  0  0  0
 21 22  1  0  0  0  0
 21 23  2  0  0  0  0
 19 20  1  0  0  0  0
 19 21  1  0  0  0  0
 17 18  1  0  0  0  0
 17 19  2  0  0  0  0
 15 16  1  0  0  0  0
 15 17  1  0  0  0  0
 14 15  2  0  0  0  0
 14 23  1  0  0  0  0
 11 12  1  0  0  0  0
 11 13  1  0  0  0  0
 11 14  1  0  0  0  0
  9 10  1  0  0  0  0
  9 11  1  0  0  0  0
  9 25  1  0  0  0  0
  7  8  1  0  0  0  0
  7  9  1  0  0  0  0
 29 30  1  0  0  0  0
 29 31  1  0  0  0  0
 29 32  1  0  0  0  0
 27 28  1  0  0  0  0
 27 29  1  0  0  0  0
M  END
$$$$
default_name
  -OEChem-02102213163D

 32 32  0     1  0  0  0  0  0999 V2000
   -3.8405   -3.7518    1.6252 H   0  0  0  0  0  0  0  0  0  0  0  0
   -3.7965   -2.8768    0.9782 C   0  0  0  0  0  0  0  0  0  0  0  0
   -4.5465   -2.1527    1.2902 H   0  0  0  0  0  0  0  0  0  0  0  0
   -3.9745   -3.1748   -0.0538 H   0  0  0  0  0  0  0  0  0  0  0  0
   -2.4245   -2.2537    1.0882 C   0  0  0  0  0  0  0  0  0  0  0  0
   -1.5805   -2.7478    1.8242 O   0  0  0  0  0  0  0  0  0  0  0  0
   -2.2045   -1.1637    0.3562 N   0  0  0  0  0  0  0  0  0  0  0  0
   -2.9595   -0.7907   -0.2008 H   0  0  0  0  0  0  0  0  0  0  0  0
   -0.9485   -0.4087    0.3482 C   0  0  1  0  0  0  0  0  0  0  0  0
   -0.3666   -0.6914    1.2269 H   0  0  0  0  0  0  0  0  0  0  0  0
   -0.1405   -0.7797   -0.9072 C   0  0  0  0  0  0  0  0  0  0  0  0
    0.9237   -0.6960   -0.6822 H   0  0  0  0  0  0  0  0  0  0  0  0
   -0.3405   -1.8216   -1.1615 H   0  0  0  0  0  0  0  0  0  0  0  0
   -0.4368    0.0951   -2.1104 C   0  0  0  0  0  0  0  0  0  0  0  0
    0.4267    0.0950   -3.2223 C   0  0  0  0  0  0  0  0  0  0  0  0
    1.3204   -0.5129   -3.2154 H   0  0  0  0  0  0  0  0  0  0  0  0
    0.1235    0.8778   -4.3515 C   0  0  0  0  0  0  0  0  0  0  0  0
    0.7892    0.8783   -5.2032 H   0  0  0  0  0  0  0  0  0  0  0  0
   -1.0438    1.6599   -4.3720 C   0  0  0  0  0  0  0  0  0  0  0  0
   -1.2755    2.2631   -5.2387 H   0  0  0  0  0  0  0  0  0  0  0  0
   -1.9080    1.6635   -3.2620 C   0  0  0  0  0  0  0  0  0  0  0  0
   -2.8025    2.2688   -3.2754 H   0  0  0  0  0  0  0  0  0  0  0  0
   -1.6030    0.8837   -2.1323 C   0  0  0  0  0  0  0  0  0  0  0  0
   -2.2670    0.8898   -1.2777 H   0  0  0  0  0  0  0  0  0  0  0  0
   -1.2168    1.1047    0.4313 C   0  0  0  0  0  0  0  0  0  0  0  0
   -2.0890    1.6186   -0.2704 O   0  0  0  0  0  0  0  0  0  0  0  0
   -0.4674    1.8182    1.2813 N   0  0  0  0  0  0  0  0  0  0  0  0
    0.2640    1.3348    1.7800 H   0  0  0  0  0  0  0  0  0  0  0  0
   -0.5889    3.2615    1.4722 C   0  0  0  0  0  0  0  0  0  0  0  0
   -1.6291    3.5206    1.6805 H   0  0  0  0  0  0  0  0  0  0  0  0
    0.0359    3.5855    2.3049 H   0  0  0  0  0  0  0  0  0  0  0  0
   -0.2760    3.7797    0.5637 H   0  0  0  0  0  0  0  0  0  0  0  0
  5  6  2  0  0  0  0
  5  7  1  0  0  0  0
  2  3  1  0  0  0  0
  2  4  1  0  0  0  0
  2  5  1  0  0  0  0
  1  2  1  0  0  0  0
 25 26  2  0  0  0  0
 25 27  1  0  0  0  0
 23 24  1  0  0  0  0
 21 22  1  0  0  0  0
 21 23  2  0  0  0  0
 19 20  1  0  0  0  0
 19 21  1  0  0  0  0
 17 18  1  0  0  0  0
 17 19  2  0  0  0  0
 15 16  1  0  0  0  0
 15 17  1  0  0  0  0
 14 15  2  0  0  0  0
 14 23  1  0  0  0  0
 11 12  1  0  0  0  0
 11 13  1  0  0  0  0
 11 14  1  0  0  0  0
  9 10  1  0  0  0  0
  9 11  1  0  0  0  0
  9 25  1  0  0  0  0
  7  8  1  0  0  0  0
  7  9  1  0  0  0  0
 29 30  1  0  0  0  0
 29 31  1  0  0  0  0
 29 32  1  0  0  0  0
 27 28  1  0  0  0  0
 27 29  1  0  0  0  0
M  END
$$$$
default_name
  -OEChem-02102213163D

 32 32  0     1  0  0  0  0  0999 V2000
   -3.8405   -3.7518    1.6252 H   0  0  0  0  0  0  0  0  0  0  0  0
   -3.7965   -2.8768    0.9782 C   0  0  0  0  0  0  0  0  0  0  0  0
   -4.5465   -2.1527    1.2902 H   0  0  0  0  0  0  0  0  0  0  0  0
   -3.9745   -3.1748   -0.0538 H   0  0  0  0  0  0  0  0  0  0  0  0
   -2.4245   -2.2537    1.0882 C   0  0  0  0  0  0  0  0  0  0  0  0
   -1.5805   -2.7478    1.8242 O   0  0  0  0  0  0  0  0  0  0  0  0
   -2.2045   -1.1637    0.3562 N   0  0  0  0  0  0  0  0  0  0  0  0
   -2.9595   -0.7907   -0.2008 H   0  0  0  0  0  0  0  0  0  0  0  0
   -0.9485   -0.4087    0.3482 C   0  0  1  0  0  0  0  0  0  0  0  0
   -0.3666   -0.6914    1.2269 H   0  0  0  0  0  0  0  0  0  0  0  0
   -0.1405   -0.7797   -0.9072 C   0  0  0  0  0  0  0  0  0  0  0  0
    0.8974   -0.9571   -0.6219 H   0  0  0  0  0  0  0  0  0  0  0  0
   -0.5316   -1.7122   -1.3168 H   0  0  0  0  0  0  0  0  0  0  0  0
   -0.1558    0.2864   -1.9861 C   0  0  0  0  0  0  0  0  0  0  0  0
    0.5399    0.0889   -3.1939 C   0  0  0  0  0  0  0  0  0  0  0  0
    1.1092   -0.8165   -3.3505 H   0  0  0  0  0  0  0  0  0  0  0  0
    0.4871    1.0644   -4.2065 C   0  0  0  0  0  0  0  0  0  0  0  0
    1.0242    0.9119   -5.1322 H   0  0  0  0  0  0  0  0  0  0  0  0
   -0.2623    2.2375   -4.0143 C   0  0  0  0  0  0  0  0  0  0  0  0
   -0.3009    2.9880   -4.7914 H   0  0  0  0  0  0  0  0  0  0  0  0
   -0.9574    2.4387   -2.8080 C   0  0  0  0  0  0  0  0  0  0  0  0
   -1.5291    3.3428   -2.6580 H   0  0  0  0  0  0  0  0  0  0  0  0
   -0.9018    1.4651   -1.7949 C   0  0  0  0  0  0  0  0  0  0  0  0
   -1.4344    1.6226   -0.8660 H   0  0  0  0  0  0  0  0  0  0  0  0
   -1.2168    1.1047    0.4313 C   0  0  0  0  0  0  0  0  0  0  0  0
   -2.0890    1.6186   -0.2704 O   0  0  0  0  0  0  0  0  0  0  0  0
   -0.4674    1.8182    1.2813 N   0  0  0  0  0  0  0  0  0  0  0  0
    0.2640    1.3348    1.7800 H   0  0  0  0  0  0  0  0  0  0  0  0
   -0.5889    3.2615    1.4722 C   0  0  0  0  0  0  0  0  0  0  0  0
   -1.6291    3.5206    1.6805 H   0  0  0  0  0  0  0  0  0  0  0  0
    0.0359    3.5855    2.3049 H   0  0  0  0  0  0  0  0  0  0  0  0
   -0.2760    3.7797    0.5637 H   0  0  0  0  0  0  0  0  0  0  0  0
  5  6  2  0  0  0  0
  5  7  1  0  0  0  0
  2  3  1  0  0  0  0
  2  4  1  0  0  0  0
  2  5  1  0  0  0  0
  1  2  1  0  0  0  0
 25 26  2  0  0  0  0
 25 27  1  0  0  0  0
 23 24  1  0  0  0  0
 21 22  1  0  0  0  0
 21 23  2  0  0  0  0
 19 20  1  0  0  0  0
 19 21  1  0  0  0  0
 17 18  1  0  0  0  0
 17 19  2  0  0  0  0
 15 16  1  0  0  0  0
 15 17  1  0  0  0  0
 14 15  2  0  0  0  0
 14 23  1  0  0  0  0
 11 12  1  0  0  0  0
 11 13  1  0  0  0  0
 11 14  1  0  0  0  0
  9 10  1  0  0  0  0
  9 11  1  0  0  0  0
  9 25  1  0  0  0  0
  7  8  1  0  0  0  0
  7  9  1  0  0  0  0
 29 30  1  0  0  0  0
 29 31  1  0  0  0  0
 29 32  1  0  0  0  0
 27 28  1  0  0  0  0
 27 29  1  0  0  0  0
M  END
$$$$
default_name
  -OEChem-02102213163D

 32 32  0     1  0  0  0  0  0999 V2000
   -3.8405   -3.7518    1.6252 H   0  0  0  0  0  0  0  0  0  0  0  0
   -3.7965   -2.8768    0.9782 C   0  0  0  0  0  0  0  0  0  0  0  0
   -4.5465   -2.1527    1.2902 H   0  0  0  0  0  0  0  0  0  0  0  0
   -3.9745   -3.1748   -0.0538 H   0  0  0  0  0  0  0  0  0  0  0  0
   -2.4245   -2.2537    1.0882 C   0  0  0  0  0  0  0  0  0  0  0  0
   -1.5805   -2.7478    1.8242 O   0  0  0  0  0  0  0  0  0  0  0  0
   -2.2045   -1.1637    0.3562 N   0  0  0  0  0  0  0  0  0  0  0  0
   -2.9595   -0.7907   -0.2008 H   0  0  0  0  0  0  0  0  0  0  0  0
   -0.9485   -0.4087    0.3482 C   0  0  1  0  0  0  0  0  0  0  0  0
   -0.3666   -0.6914    1.2269 H   0  0  0  0  0  0  0  0  0  0  0  0
   -0.1405   -0.7797   -0.9072 C   0  0  0  0  0  0  0  0  0  0  0  0
    0.8974   -0.9571   -0.6219 H   0  0  0  0  0  0  0  0  0  0  0  0
   -0.5316   -1.7122   -1.3168 H   0  0  0  0  0  0  0  0  0  0  0  0
   -0.1558    0.2864   -1.9861 C   0  0  0  0  0  0  0  0  0  0  0  0
    0.2599   -0.0186   -3.2961 C   0  0  0  0  0  0  0  0  0  0  0  0
    0.6148   -1.0110   -3.5357 H   0  0  0  0  0  0  0  0  0  0  0  0
    0.2038    0.9645   -4.3012 C   0  0  0  0  0  0  0  0  0  0  0  0
    0.5259    0.7289   -5.3059 H   0  0  0  0  0  0  0  0  0  0  0  0
   -0.2694    2.2527   -3.9992 C   0  0  0  0  0  0  0  0  0  0  0  0
   -0.3102    3.0086   -4.7709 H   0  0  0  0  0  0  0  0  0  0  0  0
   -0.6841    2.5612   -2.6908 C   0  0  0  0  0  0  0  0  0  0  0  0
   -1.0428    3.5529   -2.4573 H   0  0  0  0  0  0  0  0  0  0  0  0
   -0.6249    1.5795   -1.6858 C   0  0  0  0  0  0  0  0  0  0  0  0
   -0.9411    1.8191   -0.6788 H   0  0  0  0  0  0  0  0  0  0  0  0
   -1.2168    1.1047    0.4313 C   0  0  0  0  0  0  0  0  0  0  0  0
   -2.0890    1.6186   -0.2704 O   0  0  0  0  0  0  0  0  0  0  0  0
   -0.4674    1.8182    1.2813 N   0  0  0  0  0  0  0  0  0  0  0  0
    0.2640    1.3348    1.7800 H   0  0  0  0  0  0  0  0  0  0  0  0
   -0.5889    3.2615    1.4722 C   0  0  0  0  0  0  0  0  0  0  0  0
   -1.6291    3.5206    1.6805 H   0  0  0  0  0  0  0  0  0  0  0  0
    0.0359    3.5855    2.3049 H   0  0  0  0  0  0  0  0  0  0  0  0
   -0.2760    3.7797    0.5637 H   0  0  0  0  0  0  0  0  0  0  0  0
  5  6  2  0  0  0  0
  5  7  1  0  0  0  0
  2  3  1  0  0  0  0
  2  4  1  0  0  0  0
  2  5  1  0  0  0  0
  1  2  1  0  0  0  0
 25 26  2  0  0  0  0
 25 27  1  0  0  0  0
 23 24  1  0  0  0  0
 21 22  1  0  0  0  0
 21 23  2  0  0  0  0
 19 20  1  0  0  0  0
 19 21  1  0  0  0  0
 17 18  1  0  0  0  0
 17 19  2  0  0  0  0
 15 16  1  0  0  0  0
 15 17  1  0  0  0  0
 14 15  2  0  0  0  0
 14 23  1  0  0  0  0
 11 12  1  0  0  0  0
 11 13  1  0  0  0  0
 11 14  1  0  0  0  0
  9 10  1  0  0  0  0
  9 11  1  0  0  0  0
  9 25  1  0  0  0  0
  7  8  1  0  0  0  0
  7  9  1  0  0  0  0
 29 30  1  0  0  0  0
 29 31  1  0  0  0  0
 29 32  1  0  0  0  0
 27 28  1  0  0  0  0
 27 29  1  0  0  0  0
M  END
$$$$
default_name
  -OEChem-02102213163D

 32 32  0     1  0  0  0  0  0999 V2000
   -3.8405   -3.7518    1.6252 H   0  0  0  0  0  0  0  0  0  0  0  0
   -3.7965   -2.8768    0.9782 C   0  0  0  0  0  0  0  0  0  0  0  0
   -4.5465   -2.1527    1.2902 H   0  0  0  0  0  0  0  0  0  0  0  0
   -3.9745   -3.1748   -0.0538 H   0  0  0  0  0  0  0  0  0  0  0  0
   -2.4245   -2.2537    1.0882 C   0  0  0  0  0  0  0  0  0  0  0  0
   -1.5805   -2.7478    1.8242 O   0  0  0  0  0  0  0  0  0  0  0  0
   -2.2045   -1.1637    0.3562 N   0  0  0  0  0  0  0  0  0  0  0  0
   -2.9595   -0.7907   -0.2008 H   0  0  0  0  0  0  0  0  0  0  0  0
   -0.9485   -0.4087    0.3482 C   0  0  1  0  0  0  0  0  0  0  0  0
   -0.3666   -0.6914    1.2269 H   0  0  0  0  0  0  0  0  0  0  0  0
   -0.1405   -0.7797   -0.9072 C   0  0  0  0  0  0  0  0  0  0  0  0
    0.8974   -0.9571   -0.6219 H   0  0  0  0  0  0  0  0  0  0  0  0
   -0.5316   -1.7122   -1.3168 H   0  0  0  0  0  0  0  0  0  0  0  0
   -0.1558    0.2864   -1.9861 C   0  0  0  0  0  0  0  0  0  0  0  0
   -0.0490   -0.0711   -3.3436 C   0  0  0  0  0  0  0  0  0  0  0  0
    0.0678   -1.1083   -3.6241 H   0  0  0  0  0  0  0  0  0  0  0  0
   -0.1055    0.9199   -4.3409 C   0  0  0  0  0  0  0  0  0  0  0  0
   -0.0207    0.6435   -5.3825 H   0  0  0  0  0  0  0  0  0  0  0  0
   -0.2707    2.2687   -3.9833 C   0  0  0  0  0  0  0  0  0  0  0  0
   -0.3117    3.0303   -4.7495 H   0  0  0  0  0  0  0  0  0  0  0  0
   -0.3763    2.6295   -2.6277 C   0  0  0  0  0  0  0  0  0  0  0  0
   -0.4978    3.6669   -2.3524 H   0  0  0  0  0  0  0  0  0  0  0  0
   -0.3165    1.6393   -1.6310 C   0  0  0  0  0  0  0  0  0  0  0  0
   -0.3945    1.9185   -0.5883 H   0  0  0  0  0  0  0  0  0  0  0  0
   -1.2168    1.1047    0.4313 C   0  0  0  0  0  0  0  0  0  0  0  0
   -2.0890    1.6186   -0.2704 O   0  0  0  0  0  0  0  0  0  0  0  0
   -0.4674    1.8182    1.2813 N   0  0  0  0  0  0  0  0  0  0  0  0
    0.2640    1.3348    1.7800 H   0  0  0  0  0  0  0  0  0  0  0  0
   -0.5889    3.2615    1.4722 C   0  0  0  0  0  0  0  0  0  0  0  0
   -1.6291    3.5206    1.6805 H   0  0  0  0  0  0  0  0  0  0  0  0
    0.0359    3.5855    2.3049 H   0  0  0  0  0  0  0  0  0  0  0  0
   -0.2760    3.7797    0.5637 H   0  0  0  0  0  0  0  0  0  0  0  0
  5  6  2  0  0  0  0
  5  7  1  0  0  0  0
  2  3  1  0  0  0  0
  2  4  1  0  0  0  0
  2  5  1  0  0  0  0
  1  2  1  0  0  0  0
 25 26  2  0  0  0  0
 25 27  1  0  0  0  0
 23 24  1  0  0  0  0
 21 22  1  0  0  0  0
 21 23  2  0  0  0  0
 19 20  1  0  0  0  0
 19 21  1  0  0  0  0
 17 18  1  0  0  0  0
 17 19  2  0  0  0  0
 15 16  1  0  0  0  0
 15 17  1  0  0  0  0
 14 15  2  0  0  0  0
 14 23  1  0  0  0  0
 11 12  1  0  0  0  0
 11 13  1  0  0  0  0
 11 14  1  0  0  0  0
  9 10  1  0  0  0  0
  9 11  1  0  0  0  0
  9 25  1  0  0  0  0
  7  8  1  0  0  0  0
  7  9  1  0  0  0  0
 29 30  1  0  0  0  0
 29 31  1  0  0  0  0
 29 32  1  0  0  0  0
 27 28  1  0  0  0  0
 27 29  1  0  0  0  0
M  END
$$$$
default_name
  -OEChem-02102213163D

 32 32  0     1  0  0  0  0  0999 V2000
   -3.8405   -3.7518    1.6252 H   0  0  0  0  0  0  0  0  0  0  0  0
   -3.7965   -2.8768    0.9782 C   0  0  0  0  0  0  0  0  0  0  0  0
   -4.5465   -2.1527    1.2902 H   0  0  0  0  0  0  0  0  0  0  0  0
   -3.9745   -3.1748   -0.0538 H   0  0  0  0  0  0  0  0  0  0  0  0
   -2.4245   -2.2537    1.0882 C   0  0  0  0  0  0  0  0  0  0  0  0
   -1.5805   -2.7478    1.8242 O   0  0  0  0  0  0  0  0  0  0  0  0
   -2.2045   -1.1637    0.3562 N   0  0  0  0  0  0  0  0  0  0  0  0
   -2.9595   -0.7907   -0.2008 H   0  0  0  0  0  0  0  0  0  0  0  0
   -0.9485   -0.4087    0.3482 C   0  0  1  0  0  0  0  0  0  0  0  0
   -0.3666   -0.6914    1.2269 H   0  0  0  0  0  0  0  0  0  0  0  0
   -0.1405   -0.7797   -0.9072 C   0  0  0  0  0  0  0  0  0  0  0  0
    0.8974   -0.9571   -0.6219 H   0  0  0  0  0  0  0  0  0  0  0  0
   -0.5316   -1.7122   -1.3168 H   0  0  0  0  0  0  0  0  0  0  0  0
   -0.1558    0.2864   -1.9861 C   0  0  0  0  0  0  0  0  0  0  0  0
   -0.3656   -0.0650   -3.3331 C   0  0  0  0  0  0  0  0  0  0  0  0
   -0.4946   -1.1019   -3.6097 H   0  0  0  0  0  0  0  0  0  0  0  0
   -0.4197    0.9336   -4.3229 C   0  0  0  0  0  0  0  0  0  0  0  0
   -0.5783    0.6614   -5.3569 H   0  0  0  0  0  0  0  0  0  0  0  0
   -0.2661    2.2845   -3.9678 C   0  0  0  0  0  0  0  0  0  0  0  0
   -0.3053    3.0515   -4.7286 H   0  0  0  0  0  0  0  0  0  0  0  0
   -0.0549    2.6390   -2.6229 C   0  0  0  0  0  0  0  0  0  0  0  0
    0.0686    3.6769   -2.3505 H   0  0  0  0  0  0  0  0  0  0  0  0
    0.0024    1.6405   -1.6344 C   0  0  0  0  0  0  0  0  0  0  0  0
    0.1683    1.9142   -0.6006 H   0  0  0  0  0  0  0  0  0  0  0  0
   -1.2168    1.1047    0.4313 C   0  0  0  0  0  0  0  0  0  0  0  0
   -2.0890    1.6186   -0.2704 O   0  0  0  0  0  0  0  0  0  0  0  0
   -0.4674    1.8182    1.2813 N   0  0  0  0  0  0  0  0  0  0  0  0
    0.2640    1.3348    1.7800 H   0  0  0  0  0  0  0  0  0  0  0  0
   -0.5889    3.2615    1.4722 C   0  0  0  0  0  0  0  0  0  0  0  0
   -1.6291    3.5206    1.6805 H   0  0  0  0  0  0  0  0  0  0  0  0
    0.0359    3.5855    2.3049 H   0  0  0  0  0  0  0  0  0  0  0  0
   -0.2760    3.7797    0.5637 H   0  0  0  0  0  0  0  0  0  0  0  0
  5  6  2  0  0  0  0
  5  7  1  0  0  0  0
  2  3  1  0  0  0  0
  2  4  1  0  0  0  0
  2  5  1  0  0  0  0
  1  2  1  0  0  0  0
 25 26  2  0  0  0  0
 25 27  1  0  0  0  0
 23 24  1  0  0  0  0
 21 22  1  0  0  0  0
 21 23  2  0  0  0  0
 19 20  1  0  0  0  0
 19 21  1  0  0  0  0
 17 18  1  0  0  0  0
 17 19  2  0  0  0  0
 15 16  1  0  0  0  0
 15 17  1  0  0  0  0
 14 15  2  0  0  0  0
 14 23  1  0  0  0  0
 11 12  1  0  0  0  0
 11 13  1  0  0  0  0
 11 14  1  0  0  0  0
  9 10  1  0  0  0  0
  9 11  1  0  0  0  0
  9 25  1  0  0  0  0
  7  8  1  0  0  0  0
  7  9  1  0  0  0  0
 29 30  1  0  0  0  0
 29 31  1  0  0  0  0
 29 32  1  0  0  0  0
 27 28  1  0  0  0  0
 27 29  1  0  0  0  0
M  END
$$$$
default_name
  -OEChem-02102213163D

 32 32  0     1  0  0  0  0  0999 V2000
   -3.8405   -3.7518    1.6252 H   0  0  0  0  0  0  0  0  0  0  0  0
   -3.7965   -2.8768    0.9782 C   0  0  0  0  0  0  0  0  0  0  0  0
   -4.5465   -2.1527    1.2902 H   0  0  0  0  0  0  0  0  0  0  0  0
   -3.9745   -3.1748   -0.0538 H   0  0  0  0  0  0  0  0  0  0  0  0
   -2.4245   -2.2537    1.0882 C   0  0  0  0  0  0  0  0  0  0  0  0
   -1.5805   -2.7478    1.8242 O   0  0  0  0  0  0  0  0  0  0  0  0
   -2.2045   -1.1637    0.3562 N   0  0  0  0  0  0  0  0  0  0  0  0
   -2.9595   -0.7907   -0.2008 H   0  0  0  0  0  0  0  0  0  0  0  0
   -0.9485   -0.4087    0.3482 C   0  0  1  0  0  0  0  0  0  0  0  0
   -0.3666   -0.6914    1.2269 H   0  0  0  0  0  0  0  0  0  0  0  0
   -0.1405   -0.7797   -0.9072 C   0  0  0  0  0  0  0  0  0  0  0  0
    0.8974   -0.9571   -0.6219 H   0  0  0  0  0  0  0  0  0  0  0  0
   -0.5316   -1.7122   -1.3168 H   0  0  0  0  0  0  0  0  0  0  0  0
   -0.1558    0.2864   -1.9861 C   0  0  0  0  0  0  0  0  0  0  0  0
   -0.6684   -0.0009   -3.2654 C   0  0  0  0  0  0  0  0  0  0  0  0
   -1.0341   -0.9921   -3.4936 H   0  0  0  0  0  0  0  0  0  0  0  0
   -0.7173    1.0048   -4.2483 C   0  0  0  0  0  0  0  0  0  0  0  0
   -1.1089    0.7814   -5.2308 H   0  0  0  0  0  0  0  0  0  0  0  0
   -0.2560    2.2990   -3.9537 C   0  0  0  0  0  0  0  0  0  0  0  0
   -0.2914    3.0710   -4.7096 H   0  0  0  0  0  0  0  0  0  0  0  0
    0.2582    2.5890   -2.6768 C   0  0  0  0  0  0  0  0  0  0  0  0
    0.6179    3.5823   -2.4518 H   0  0  0  0  0  0  0  0  0  0  0  0
    0.3100    1.5829   -1.6957 C   0  0  0  0  0  0  0  0  0  0  0  0
    0.7090    1.8064   -0.7148 H   0  0  0  0  0  0  0  0  0  0  0  0
   -1.2168    1.1047    0.4313 C   0  0  0  0  0  0  0  0  0  0  0  0
   -2.0890    1.6186   -0.2704 O   0  0  0  0  0  0  0  0  0  0  0  0
   -0.4674    1.8182    1.2813 N   0  0  0  0  0  0  0  0  0  0  0  0
    0.2640    1.3348    1.7800 H   0  0  0  0  0  0  0  0  0  0  0  0
   -0.5889    3.2615    1.4722 C   0  0  0  0  0  0  0  0  0  0  0  0
   -1.6291    3.5206    1.6805 H   0  0  0  0  0  0  0  0  0  0  0  0
    0.0359    3.5855    2.3049 H   0  0  0  0  0  0  0  0  0  0  0  0
   -0.2760    3.7797    0.5637 H   0  0  0  0  0  0  0  0  0  0  0  0
  5  6  2  0  0  0  0
  5  7  1  0  0  0  0
  2  3  1  0  0  0  0
  2  4  1  0  0  0  0
  2  5  1  0  0  0  0
  1  2  1  0  0  0  0
 25 26  2  0  0  0  0
 25 27  1  0  0  0  0
 23 24  1  0  0  0  0
 21 22  1  0  0  0  0
 21 23  2  0  0  0  0
 19 20  1  0  0  0  0
 19 21  1  0  0  0  0
 17 18  1  0  0  0  0
 17 19  2  0  0  0  0
 15 16  1  0  0  0  0
 15 17  1  0  0  0  0
 14 15  2  0  0  0  0
 14 23  1  0  0  0  0
 11 12  1  0  0  0  0
 11 13  1  0  0  0  0
 11 14  1  0  0  0  0
  9 10  1  0  0  0  0
  9 11  1  0  0  0  0
  9 25  1  0  0  0  0
  7  8  1  0  0  0  0
  7  9  1  0  0  0  0
 29 30  1  0  0  0  0
 29 31  1  0  0  0  0
 29 32  1  0  0  0  0
 27 28  1  0  0  0  0
 27 29  1  0  0  0  0
M  END
$$$$
default_name
  -OEChem-02102213163D

 32 32  0     1  0  0  0  0  0999 V2000
   -3.8405   -3.7518    1.6252 H   0  0  0  0  0  0  0  0  0  0  0  0
   -3.7965   -2.8768    0.9782 C   0  0  0  0  0  0  0  0  0  0  0  0
   -4.5465   -2.1527    1.2902 H   0  0  0  0  0  0  0  0  0  0  0  0
   -3.9745   -3.1748   -0.0538 H   0  0  0  0  0  0  0  0  0  0  0  0
   -2.4245   -2.2537    1.0882 C   0  0  0  0  0  0  0  0  0  0  0  0
   -1.5805   -2.7478    1.8242 O   0  0  0  0  0  0  0  0  0  0  0  0
   -2.2045   -1.1637    0.3562 N   0  0  0  0  0  0  0  0  0  0  0  0
   -2.9595   -0.7907   -0.2008 H   0  0  0  0  0  0  0  0  0  0  0  0
   -0.9485   -0.4087    0.3482 C   0  0  1  0  0  0  0  0  0  0  0  0
   -0.3666   -0.6914    1.2269 H   0  0  0  0  0  0  0  0  0  0  0  0
   -0.1405   -0.7797   -0.9072 C   0  0  0  0  0  0  0  0  0  0  0  0
    0.8974   -0.9571   -0.6219 H   0  0  0  0  0  0  0  0  0  0  0  0
   -0.5316   -1.7122   -1.3168 H   0  0  0  0  0  0  0  0  0  0  0  0
   -0.1558    0.2864   -1.9861 C   0  0  0  0  0  0  0  0  0  0  0  0
   -0.9368    0.1170   -3.1451 C   0  0  0  0  0  0  0  0  0  0  0  0
   -1.5138   -0.7864   -3.2836 H   0  0  0  0  0  0  0  0  0  0  0  0
   -0.9782    1.1285   -4.1224 C   0  0  0  0  0  0  0  0  0  0  0  0
   -1.5765    0.9954   -5.0128 H   0  0  0  0  0  0  0  0  0  0  0  0
   -0.2409    2.3111   -3.9419 C   0  0  0  0  0  0  0  0  0  0  0  0
   -0.2709    3.0872   -4.6938 H   0  0  0  0  0  0  0  0  0  0  0  0
    0.5417    2.4829   -2.7856 C   0  0  0  0  0  0  0  0  0  0  0  0
    1.1127    3.3896   -2.6493 H   0  0  0  0  0  0  0  0  0  0  0  0
    0.5854    1.4705   -1.8107 C   0  0  0  0  0  0  0  0  0  0  0  0
    1.1905    1.6025   -0.9231 H   0  0  0  0  0  0  0  0  0  0  0  0
   -1.2168    1.1047    0.4313 C   0  0  0  0  0  0  0  0  0  0  0  0
   -2.0890    1.6186   -0.2704 O   0  0  0  0  0  0  0  0  0  0  0  0
   -0.4674    1.8182    1.2813 N   0  0  0  0  0  0  0  0  0  0  0  0
    0.2640    1.3348    1.7800 H   0  0  0  0  0  0  0  0  0  0  0  0
   -0.5889    3.2615    1.4722 C   0  0  0  0  0  0  0  0  0  0  0  0
   -1.6291    3.5206    1.6805 H   0  0  0  0  0  0  0  0  0  0  0  0
    0.0359    3.5855    2.3049 H   0  0  0  0  0  0  0  0  0  0  0  0
   -0.2760    3.7797    0.5637 H   0  0  0  0  0  0  0  0  0  0  0  0
  5  6  2  0  0  0  0
  5  7  1  0  0  0  0
  2  3  1  0  0  0  0
  2  4  1  0  0  0  0
  2  5  1  0  0  0  0
  1  2  1  0  0  0  0
 25 26  2  0  0  0  0
 25 27  1  0  0  0  0
 23 24  1  0  0  0  0
 21 22  1  0  0  0  0
 21 23  2  0  0  0  0
 19 20  1  0  0  0  0
 19 21  1  0  0  0  0
 17 18  1  0  0  0  0
 17 19  2  0  0  0  0
 15 16  1  0  0  0  0
 15 17  1  0  0  0  0
 14 15  2  0  0  0  0
 14 23  1  0  0  0  0
 11 12  1  0  0  0  0
 11 13  1  0  0  0  0
 11 14  1  0  0  0  0
  9 10  1  0  0  0  0
  9 11  1  0  0  0  0
  9 25  1  0  0  0  0
  7  8  1  0  0  0  0
  7  9  1  0  0  0  0
 29 30  1  0  0  0  0
 29 31  1  0  0  0  0
 29 32  1  0  0  0  0
 27 28  1  0  0  0  0
 27 29  1  0  0  0  0
M  END
$$$$
default_name
  -OEChem-02102213163D

 32 32  0     1  0  0  0  0  0999 V2000
   -3.8405   -3.7518    1.6252 H   0  0  0  0  0  0  0  0  0  0  0  0
   -3.7965   -2.8768    0.9782 C   0  0  0  0  0  0  0  0  0  0  0  0
   -4.5465   -2.1527    1.2902 H   0  0  0  0  0  0  0  0  0  0  0  0
   -3.9745   -3.1748   -0.0538 H   0  0  0  0  0  0  0  0  0  0  0  0
   -2.4245   -2.2537    1.0882 C   0  0  0  0  0  0  0  0  0  0  0  0
   -1.5805   -2.7478    1.8242 O   0  0  0  0  0  0  0  0  0  0  0  0
   -2.2045   -1.1637    0.3562 N   0  0  0  0  0  0  0  0  0  0  0  0
   -2.9595   -0.7907   -0.2008 H   0  0  0  0  0  0  0  0  0  0  0  0
   -0.9485   -0.4087    0.3482 C   0  0  1  0  0  0  0  0  0  0  0  0
   -0.3666   -0.6914    1.2269 H   0  0  0  0  0  0  0  0  0  0  0  0
   -0.1405   -0.7797   -0.9072 C   0  0  0  0  0  0  0  0  0  0  0  0
    0.8974   -0.9571   -0.6219 H   0  0  0  0  0  0  0  0  0  0  0  0
   -0.5316   -1.7122   -1.3168 H   0  0  0  0  0  0  0  0  0  0  0  0
   -0.1558    0.2864   -1.9861 C   0  0  0  0  0  0  0  0  0  0  0  0
   -1.1525    0.2806   -2.9804 C   0  0  0  0  0  0  0  0  0  0  0  0
   -1.9011   -0.4989   -2.9939 H   0  0  0  0  0  0  0  0  0  0  0  0
   -1.1845    1.2964   -3.9536 C   0  0  0  0  0  0  0  0  0  0  0  0
   -1.9490    1.2886   -4.7177 H   0  0  0  0  0  0  0  0  0  0  0  0
   -0.2220    2.3201   -3.9333 C   0  0  0  0  0  0  0  0  0  0  0  0
   -0.2452    3.0992   -4.6824 H   0  0  0  0  0  0  0  0  0  0  0  0
    0.7761    2.3280   -2.9420 C   0  0  0  0  0  0  0  0  0  0  0  0
    1.5192    3.1118   -2.9295 H   0  0  0  0  0  0  0  0  0  0  0  0
    0.8098    1.3109   -1.9716 C   0  0  0  0  0  0  0  0  0  0  0  0
    1.5802    1.3163   -1.2115 H   0  0  0  0  0  0  0  0  0  0  0  0
   -1.2168    1.1047    0.4313 C   0  0  0  0  0  0  0  0  0  0  0  0
   -2.0890    1.6186   -0.2704 O   0  0  0  0  0  0  0  0  0  0  0  0
   -0.4674    1.8182    1.2813 N   0  0  0  0  0  0  0  0  0  0  0  0
    0.2640    1.3348    1.7800 H   0  0  0  0  0  0  0  0  0  0  0  0
   -0.5889    3.2615    1.4722 C   0  0  0  0  0  0  0  0  0  0  0  0
   -1.6291    3.5206    1.6805 H   0  0  0  0  0  0  0  0  0  0  0  0
    0.0359    3.5855    2.3049 H   0  0  0  0  0  0  0  0  0  0  0  0
   -0.2760    3.7797    0.5637 H   0  0  0  0  0  0  0  0  0  0  0  0
  5  6  2  0  0  0  0
  5  7  1  0  0  0  0
  2  3  1  0  0  0  0
  2  4  1  0  0  0  0
  2  5  1  0  0  0  0
  1  2  1  0  0  0  0
 25 26  2  0  0  0  0
 25 27  1  0  0  0  0
 23 24  1  0  0  0  0
 21 22  1  0  0  0  0
 21 23  2  0  0  0  0
 19 20  1  0  0  0  0
 19 21  1  0  0  0  0
 17 18  1  0  0  0  0
 17 19  2  0  0  0  0
 15 16  1  0  0  0  0
 15 17  1  0  0  0  0
 14 15  2  0  0  0  0
 14 23  1  0  0  0  0
 11 12  1  0  0  0  0
 11 13  1  0  0  0  0
 11 14  1  0  0  0  0
  9 10  1  0  0  0  0
  9 11  1  0  0  0  0
  9 25  1  0  0  0  0
  7  8  1  0  0  0  0
  7  9  1  0  0  0  0
 29 30  1  0  0  0  0
 29 31  1  0  0  0  0
 29 32  1  0  0  0  0
 27 28  1  0  0  0  0
 27 29  1  0  0  0  0
M  END
$$$$
default_name
  -OEChem-02102213163D

 32 32  0     1  0  0  0  0  0999 V2000
   -3.8405   -3.7518    1.6252 H   0  0  0  0  0  0  0  0  0  0  0  0
   -3.7965   -2.8768    0.9782 C   0  0  0  0  0  0  0  0  0  0  0  0
   -4.5465   -2.1527    1.2902 H   0  0  0  0  0  0  0  0  0  0  0  0
   -3.9745   -3.1748   -0.0538 H   0  0  0  0  0  0  0  0  0  0  0  0
   -2.4245   -2.2537    1.0882 C   0  0  0  0  0  0  0  0  0  0  0  0
   -1.5805   -2.7478    1.8242 O   0  0  0  0  0  0  0  0  0  0  0  0
   -2.2045   -1.1637    0.3562 N   0  0  0  0  0  0  0  0  0  0  0  0
   -2.9595   -0.7907   -0.2008 H   0  0  0  0  0  0  0  0  0  0  0  0
   -0.9485   -0.4087    0.3482 C   0  0  1  0  0  0  0  0  0  0  0  0
   -0.3666   -0.6914    1.2269 H   0  0  0  0  0  0  0  0  0  0  0  0
   -0.1405   -0.7797   -0.9072 C   0  0  0  0  0  0  0  0  0  0  0  0
    0.8974   -0.9571   -0.6219 H   0  0  0  0  0  0  0  0  0  0  0  0
   -0.5316   -1.7122   -1.3168 H   0  0  0  0  0  0  0  0  0  0  0  0
   -0.1558    0.2864   -1.9861 C   0  0  0  0  0  0  0  0  0  0  0  0
   -1.3007    0.4788   -2.7825 C   0  0  0  0  0  0  0  0  0  0  0  0
   -2.1696   -0.1491   -2.6445 H   0  0  0  0  0  0  0  0  0  0  0  0
   -1.3221    1.4970   -3.7534 C   0  0  0  0  0  0  0  0  0  0  0  0
   -2.2012    1.6413   -4.3656 H   0  0  0  0  0  0  0  0  0  0  0  0
   -0.2006    2.3253   -3.9285 C   0  0  0  0  0  0  0  0  0  0  0  0
   -0.2162    3.1060   -4.6760 H   0  0  0  0  0  0  0  0  0  0  0  0
    0.9456    2.1348   -3.1353 C   0  0  0  0  0  0  0  0  0  0  0  0
    1.8098    2.7679   -3.2735 H   0  0  0  0  0  0  0  0  0  0  0  0
    0.9679    1.1150   -2.1674 C   0  0  0  0  0  0  0  0  0  0  0  0
    1.8515    0.9673   -1.5601 H   0  0  0  0  0  0  0  0  0  0  0  0
   -1.2168    1.1047    0.4313 C   0  0  0  0  0  0  0  0  0  0  0  0
   -2.0890    1.6186   -0.2704 O   0  0  0  0  0  0  0  0  0  0  0  0
   -0.4674    1.8182    1.2813 N   0  0  0  0  0  0  0  0  0  0  0  0
    0.2640    1.3348    1.7800 H   0  0  0  0  0  0  0  0  0  0  0  0
   -0.5889    3.2615    1.4722 C   0  0  0  0  0  0  0  0  0  0  0  0
   -1.6291    3.5206    1.6805 H   0  0  0  0  0  0  0  0  0  0  0  0
    0.0359    3.5855    2.3049 H   0  0  0  0  0  0  0  0  0  0  0  0
   -0.2760    3.7797    0.5637 H   0  0  0  0  0  0  0  0  0  0  0  0
  5  6  2  0  0  0  0
  5  7  1  0  0  0  0
  2  3  1  0  0  0  0
  2  4  1  0  0  0  0
  2  5  1  0  0  0  0
  1  2  1  0  0  0  0
 25 26  2  0  0  0  0
 25 27  1  0  0  0  0
 23 24  1  0  0  0  0
 21 22  1  0  0  0  0
 21 23  2  0  0  0  0
 19 20  1  0  0  0  0
 19 21  1  0  0  0  0
 17 18  1  0  0  0  0
 17 19  2  0  0  0  0
 15 16  1  0  0  0  0
 15 17  1  0  0  0  0
 14 15  2  0  0  0  0
 14 23  1  0  0  0  0
 11 12  1  0  0  0  0
 11 13  1  0  0  0  0
 11 14  1  0  0  0  0
  9 10  1  0  0  0  0
  9 11  1  0  0  0  0
  9 25  1  0  0  0  0
  7  8  1  0  0  0  0
  7  9  1  0  0  0  0
 29 30  1  0  0  0  0
 29 31  1  0  0  0  0
 29 32  1  0  0  0  0
 27 28  1  0  0  0  0
 27 29  1  0  0  0  0
M  END
$$$$
default_name
  -OEChem-02102213163D

 32 32  0     1  0  0  0  0  0999 V2000
   -3.8405   -3.7518    1.6252 H   0  0  0  0  0  0  0  0  0  0  0  0
   -3.7965   -2.8768    0.9782 C   0  0  0  0  0  0  0  0  0  0  0  0
   -4.5465   -2.1527    1.2902 H   0  0  0  0  0  0  0  0  0  0  0  0
   -3.9745   -3.1748   -0.0538 H   0  0  0  0  0  0  0  0  0  0  0  0
   -2.4245   -2.2537    1.0882 C   0  0  0  0  0  0  0  0  0  0  0  0
   -1.5805   -2.7478    1.8242 O   0  0  0  0  0  0  0  0  0  0  0  0
   -2.2045   -1.1637    0.3562 N   0  0  0  0  0  0  0  0  0  0  0  0
   -2.9595   -0.7907   -0.2008 H   0  0  0  0  0  0  0  0  0  0  0  0
   -0.9485   -0.4087    0.3482 C   0  0  1  0  0  0  0  0  0  0  0  0
   -0.3666   -0.6914    1.2269 H   0  0  0  0  0  0  0  0  0  0  0  0
   -0.1405   -0.7797   -0.9072 C   0  0  0  0  0  0  0  0  0  0  0  0
    0.8974   -0.9571   -0.6219 H   0  0  0  0  0  0  0  0  0  0  0  0
   -0.5316   -1.7122   -1.3168 H   0  0  0  0  0  0  0  0  0  0  0  0
   -0.1558    0.2864   -1.9861 C   0  0  0  0  0  0  0  0  0  0  0  0
   -1.3714    0.6980   -2.5649 C   0  0  0  0  0  0  0  0  0  0  0  0
   -2.3010    0.2391   -2.2590 H   0  0  0  0  0  0  0  0  0  0  0  0
   -1.3817    1.7166   -3.5356 C   0  0  0  0  0  0  0  0  0  0  0  0
   -2.3159    2.0293   -3.9806 H   0  0  0  0  0  0  0  0  0  0  0  0
   -0.1780    2.3264   -3.9277 C   0  0  0  0  0  0  0  0  0  0  0  0
   -0.1857    3.1073   -4.6752 H   0  0  0  0  0  0  0  0  0  0  0  0
    1.0386    1.9164   -3.3524 C   0  0  0  0  0  0  0  0  0  0  0  0
    1.9645    2.3813   -3.6576 H   0  0  0  0  0  0  0  0  0  0  0  0
    1.0490    0.8962   -2.3847 C   0  0  0  0  0  0  0  0  0  0  0  0
    1.9859    0.5794   -1.9453 H   0  0  0  0  0  0  0  0  0  0  0  0
   -1.2168    1.1047    0.4313 C   0  0  0  0  0  0  0  0  0  0  0  0
   -2.0890    1.6186   -0.2704 O   0  0  0  0  0  0  0  0  0  0  0  0
   -0.4674    1.8182    1.2813 N   0  0  0  0  0  0  0  0  0  0  0  0
    0.2640    1.3348    1.7800 H   0  0  0  0  0  0  0  0  0  0  0  0
   -0.5889    3.2615    1.4722 C   0  0  0  0  0  0  0  0  0  0  0  0
   -1.6291    3.5206    1.6805 H   0  0  0  0  0  0  0  0  0  0  0  0
    0.0359    3.5855    2.3049 H   0  0  0  0  0  0  0  0  0  0  0  0
   -0.2760    3.7797    0.5637 H   0  0  0  0  0  0  0  0  0  0  0  0
  5  6  2  0  0  0  0
  5  7  1  0  0  0  0
  2  3  1  0  0  0  0
  2  4  1  0  0  0  0
  2  5  1  0  0  0  0
  1  2  1  0  0  0  0
 25 26  2  0  0  0  0
 25 27  1  0  0  0  0
 23 24  1  0  0  0  0
 21 22  1  0  0  0  0
 21 23  2  0  0  0  0
 19 20  1  0  0  0  0
 19 21  1  0  0  0  0
 17 18  1  0  0  0  0
 17 19  2  0  0  0  0
 15 16  1  0  0  0  0
 15 17  1  0  0  0  0
 14 15  2  0  0  0  0
 14 23  1  0  0  0  0
 11 12  1  0  0  0  0
 11 13  1  0  0  0  0
 11 14  1  0  0  0  0
  9 10  1  0  0  0  0
  9 11  1  0  0  0  0
  9 25  1  0  0  0  0
  7  8  1  0  0  0  0
  7  9  1  0  0  0  0
 29 30  1  0  0  0  0
 29 31  1  0  0  0  0
 29 32  1  0  0  0  0
 27 28  1  0  0  0  0
 27 29  1  0  0  0  0
M  END
$$$$
default_name
  -OEChem-02102213163D

 32 32  0     1  0  0  0  0  0999 V2000
   -3.8405   -3.7518    1.6252 H   0  0  0  0  0  0  0  0  0  0  0  0
   -3.7965   -2.8768    0.9782 C   0  0  0  0  0  0  0  0  0  0  0  0
   -4.5465   -2.1527    1.2902 H   0  0  0  0  0  0  0  0  0  0  0  0
   -3.9745   -3.1748   -0.0538 H   0  0  0  0  0  0  0  0  0  0  0  0
   -2.4245   -2.2537    1.0882 C   0  0  0  0  0  0  0  0  0  0  0  0
   -1.5805   -2.7478    1.8242 O   0  0  0  0  0  0  0  0  0  0  0  0
   -2.2045   -1.1637    0.3562 N   0  0  0  0  0  0  0  0  0  0  0  0
   -2.9595   -0.7907   -0.2008 H   0  0  0  0  0  0  0  0  0  0  0  0
   -0.9485   -0.4087    0.3482 C   0  0  1  0  0  0  0  0  0  0  0  0
   -0.3666   -0.6914    1.2269 H   0  0  0  0  0  0  0  0  0  0  0  0
   -0.1405   -0.7797   -0.9072 C   0  0  0  0  0  0  0  0  0  0  0  0
    0.8974   -0.9571   -0.6219 H   0  0  0  0  0  0  0  0  0  0  0  0
   -0.5316   -1.7122   -1.3168 H   0  0  0  0  0  0  0  0  0  0  0  0
   -0.1558    0.2864   -1.9861 C   0  0  0  0  0  0  0  0  0  0  0  0
   -1.3597    0.9233   -2.3424 C   0  0  0  0  0  0  0  0  0  0  0  0
   -2.2863    0.6393   -1.8638 H   0  0  0  0  0  0  0  0  0  0  0  0
   -1.3592    1.9402   -3.3149 C   0  0  0  0  0  0  0  0  0  0  0  0
   -2.2851    2.4262   -3.5889 H   0  0  0  0  0  0  0  0  0  0  0  0
   -0.1558    2.3233   -3.9311 C   0  0  0  0  0  0  0  0  0  0  0  0
   -0.1559    3.1029   -4.6799 H   0  0  0  0  0  0  0  0  0  0  0  0
    1.0487    1.6879   -3.5784 C   0  0  0  0  0  0  0  0  0  0  0  0
    1.9730    1.9784   -4.0558 H   0  0  0  0  0  0  0  0  0  0  0  0
    1.0474    0.6693   -2.6089 C   0  0  0  0  0  0  0  0  0  0  0  0
    1.9742    0.1789   -2.3408 H   0  0  0  0  0  0  0  0  0  0  0  0
   -1.2168    1.1047    0.4313 C   0  0  0  0  0  0  0  0  0  0  0  0
   -2.0890    1.6186   -0.2704 O   0  0  0  0  0  0  0  0  0  0  0  0
   -0.4674    1.8182    1.2813 N   0  0  0  0  0  0  0  0  0  0  0  0
    0.2640    1.3348    1.7800 H   0  0  0  0  0  0  0  0  0  0  0  0
   -0.5889    3.2615    1.4722 C   0  0  0  0  0  0  0  0  0  0  0  0
   -1.6291    3.5206    1.6805 H   0  0  0  0  0  0  0  0  0  0  0  0
    0.0359    3.5855    2.3049 H   0  0  0  0  0  0  0  0  0  0  0  0
   -0.2760    3.7797    0.5637 H   0  0  0  0  0  0  0  0  0  0  0  0
  5  6  2  0  0  0  0
  5  7  1  0  0  0  0
  2  3  1  0  0  0  0
  2  4  1  0  0  0  0
  2  5  1  0  0  0  0
  1  2  1  0  0  0  0
 25 26  2  0  0  0  0
 25 27  1  0  0  0  0
 23 24  1  0  0  0  0
 21 22  1  0  0  0  0
 21 23  2  0  0  0  0
 19 20  1  0  0  0  0
 19 21  1  0  0  0  0
 17 18  1  0  0  0  0
 17 19  2  0  0  0  0
 15 16  1  0  0  0  0
 15 17  1  0  0  0  0
 14 15  2  0  0  0  0
 14 23  1  0  0  0  0
 11 12  1  0  0  0  0
 11 13  1  0  0  0  0
 11 14  1  0  0  0  0
  9 10  1  0  0  0  0
  9 11  1  0  0  0  0
  9 25  1  0  0  0  0
  7  8  1  0  0  0  0
  7  9  1  0  0  0  0
 29 30  1  0  0  0  0
 29 31  1  0  0  0  0
 29 32  1  0  0  0  0
 27 28  1  0  0  0  0
 27 29  1  0  0  0  0
M  END
$$$$
default_name
  -OEChem-02102213163D

 32 32  0     1  0  0  0  0  0999 V2000
   -3.8405   -3.7518    1.6252 H   0  0  0  0  0  0  0  0  0  0  0  0
   -3.7965   -2.8768    0.9782 C   0  0  0  0  0  0  0  0  0  0  0  0
   -4.5465   -2.1527    1.2902 H   0  0  0  0  0  0  0  0  0  0  0  0
   -3.9745   -3.1748   -0.0538 H   0  0  0  0  0  0  0  0  0  0  0  0
   -2.4245   -2.2537    1.0882 C   0  0  0  0  0  0  0  0  0  0  0  0
   -1.5805   -2.7478    1.8242 O   0  0  0  0  0  0  0  0  0  0  0  0
   -2.2045   -1.1637    0.3562 N   0  0  0  0  0  0  0  0  0  0  0  0
   -2.9595   -0.7907   -0.2008 H   0  0  0  0  0  0  0  0  0  0  0  0
   -0.9485   -0.4087    0.3482 C   0  0  1  0  0  0  0  0  0  0  0  0
   -0.3666   -0.6914    1.2269 H   0  0  0  0  0  0  0  0  0  0  0  0
   -0.1405   -0.7797   -0.9072 C   0  0  0  0  0  0  0  0  0  0  0  0
    0.8974   -0.9571   -0.6219 H   0  0  0  0  0  0  0  0  0  0  0  0
   -0.5316   -1.7122   -1.3168 H   0  0  0  0  0  0  0  0  0  0  0  0
   -0.1558    0.2864   -1.9861 C   0  0  0  0  0  0  0  0  0  0  0  0
   -1.2665    1.1394   -2.1303 C   0  0  0  0  0  0  0  0  0  0  0  0
   -2.1266    1.0242   -1.4858 H   0  0  0  0  0  0  0  0  0  0  0  0
   -1.2562    2.1527   -3.1064 C   0  0  0  0  0  0  0  0  0  0  0  0
   -2.1111    2.8049   -3.2172 H   0  0  0  0  0  0  0  0  0  0  0  0
   -0.1356    2.3162   -3.9384 C   0  0  0  0  0  0  0  0  0  0  0  0
   -0.1287    3.0932   -4.6899 H   0  0  0  0  0  0  0  0  0  0  0  0
    0.9753    1.4646   -3.7979 C   0  0  0  0  0  0  0  0  0  0  0  0
    1.8345    1.5867   -4.4410 H   0  0  0  0  0  0  0  0  0  0  0  0
    0.9634    0.4499   -2.8245 C   0  0  0  0  0  0  0  0  0  0  0  0
    1.8173   -0.2067   -2.7197 H   0  0  0  0  0  0  0  0  0  0  0  0
   -1.2168    1.1047    0.4313 C   0  0  0  0  0  0  0  0  0  0  0  0
   -2.0890    1.6186   -0.2704 O   0  0  0  0  0  0  0  0  0  0  0  0
   -0.4674    1.8182    1.2813 N   0  0  0  0  0  0  0  0  0  0  0  0
    0.2640    1.3348    1.7800 H   0  0  0  0  0  0  0  0  0  0  0  0
   -0.5889    3.2615    1.4722 C   0  0  0  0  0  0  0  0  0  0  0  0
   -1.6291    3.5206    1.6805 H   0  0  0  0  0  0  0  0  0  0  0  0
    0.0359    3.5855    2.3049 H   0  0  0  0  0  0  0  0  0  0  0  0
   -0.2760    3.7797    0.5637 H   0  0  0  0  0  0  0  0  0  0  0  0
  5  6  2  0  0  0  0
  5  7  1  0  0  0  0
  2  3  1  0  0  0  0
  2  4  1  0  0  0  0
  2  5  1  0  0  0  0
  1  2  1  0  0  0  0
 25 26  2  0  0  0  0
 25 27  1  0  0  0  0
 23 24  1  0  0  0  0
 21 22  1  0  0  0  0
 21 23  2  0  0  0  0
 19 20  1  0  0  0  0
 19 21  1  0  0  0  0
 17 18  1  0  0  0  0
 17 19  2  0  0  0  0
 15 16  1  0  0  0  0
 15 17  1  0  0  0  0
 14 15  2  0  0  0  0
 14 23  1  0  0  0  0
 11 12  1  0  0  0  0
 11 13  1  0  0  0  0
 11 14  1  0  0  0  0
  9 10  1  0  0  0  0
  9 11  1  0  0  0  0
  9 25  1  0  0  0  0
  7  8  1  0  0  0  0
  7  9  1  0  0  0  0
 29 30  1  0  0  0  0
 29 31  1  0  0  0  0
 29 32  1  0  0  0  0
 27 28  1  0  0  0  0
 27 29  1  0  0  0  0
M  END
$$$$
default_name
  -OEChem-02102213163D

 32 32  0     1  0  0  0  0  0999 V2000
   -3.8405   -3.7518    1.6252 H   0  0  0  0  0  0  0  0  0  0  0  0
   -3.7965   -2.8768    0.9782 C   0  0  0  0  0  0  0  0  0  0  0  0
   -4.5465   -2.1527    1.2902 H   0  0  0  0  0  0  0  0  0  0  0  0
   -3.9745   -3.1748   -0.0538 H   0  0  0  0  0  0  0  0  0  0  0  0
   -2.4245   -2.2537    1.0882 C   0  0  0  0  0  0  0  0  0  0  0  0
   -1.5805   -2.7478    1.8242 O   0  0  0  0  0  0  0  0  0  0  0  0
   -2.2045   -1.1637    0.3562 N   0  0  0  0  0  0  0  0  0  0  0  0
   -2.9595   -0.7907   -0.2008 H   0  0  0  0  0  0  0  0  0  0  0  0
   -0.9485   -0.4087    0.3482 C   0  0  1  0  0  0  0  0  0  0  0  0
   -0.3666   -0.6914    1.2269 H   0  0  0  0  0  0  0  0  0  0  0  0
   -0.1405   -0.7797   -0.9072 C   0  0  0  0  0  0  0  0  0  0  0  0
    0.8974   -0.9571   -0.6219 H   0  0  0  0  0  0  0  0  0  0  0  0
   -0.5316   -1.7122   -1.3168 H   0  0  0  0  0  0  0  0  0  0  0  0
   -0.1558    0.2864   -1.9861 C   0  0  0  0  0  0  0  0  0  0  0  0
   -1.0981    1.3315   -1.9428 C   0  0  0  0  0  0  0  0  0  0  0  0
   -1.8327    1.3675   -1.1507 H   0  0  0  0  0  0  0  0  0  0  0  0
   -1.0797    2.3395   -2.9243 C   0  0  0  0  0  0  0  0  0  0  0  0
   -1.8057    3.1397   -2.8907 H   0  0  0  0  0  0  0  0  0  0  0  0
   -0.1187    2.3056   -3.9491 C   0  0  0  0  0  0  0  0  0  0  0  0
   -0.1061    3.0788   -4.7045 H   0  0  0  0  0  0  0  0  0  0  0  0
    0.8233    1.2619   -3.9961 C   0  0  0  0  0  0  0  0  0  0  0  0
    1.5586    1.2327   -4.7868 H   0  0  0  0  0  0  0  0  0  0  0  0
    0.8026    0.2528   -3.0169 C   0  0  0  0  0  0  0  0  0  0  0  0
    1.5258   -0.5514   -3.0561 H   0  0  0  0  0  0  0  0  0  0  0  0
   -1.2168    1.1047    0.4313 C   0  0  0  0  0  0  0  0  0  0  0  0
   -2.0890    1.6186   -0.2704 O   0  0  0  0  0  0  0  0  0  0  0  0
   -0.4674    1.8182    1.2813 N   0  0  0  0  0  0  0  0  0  0  0  0
    0.2640    1.3348    1.7800 H   0  0  0  0  0  0  0  0  0  0  0  0
   -0.5889    3.2615    1.4722 C   0  0  0  0  0  0  0  0  0  0  0  0
   -1.6291    3.5206    1.6805 H   0  0  0  0  0  0  0  0  0  0  0  0
    0.0359    3.5855    2.3049 H   0  0  0  0  0  0  0  0  0  0  0  0
   -0.2760    3.7797    0.5637 H   0  0  0  0  0  0  0  0  0  0  0  0
  5  6  2  0  0  0  0
  5  7  1  0  0  0  0
  2  3  1  0  0  0  0
  2  4  1  0  0  0  0
  2  5  1  0  0  0  0
  1  2  1  0  0  0  0
 25 26  2  0  0  0  0
 25 27  1  0  0  0  0
 23 24  1  0  0  0  0
 21 22  1  0  0  0  0
 21 23  2  0  0  0  0
 19 20  1  0  0  0  0
 19 21  1  0  0  0  0
 17 18  1  0  0  0  0
 17 19  2  0  0  0  0
 15 16  1  0  0  0  0
 15 17  1  0  0  0  0
 14 15  2  0  0  0  0
 14 23  1  0  0  0  0
 11 12  1  0  0  0  0
 11 13  1  0  0  0  0
 11 14  1  0  0  0  0
  9 10  1  0  0  0  0
  9 11  1  0  0  0  0
  9 25  1  0  0  0  0
  7  8  1  0  0  0  0
  7  9  1  0  0  0  0
 29 30  1  0  0  0  0
 29 31  1  0  0  0  0
 29 32  1  0  0  0  0
 27 28  1  0  0  0  0
 27 29  1  0  0  0  0
M  END
$$$$
default_name
  -OEChem-02102213163D

 32 32  0     1  0  0  0  0  0999 V2000
   -3.8405   -3.7518    1.6252 H   0  0  0  0  0  0  0  0  0  0  0  0
   -3.7965   -2.8768    0.9782 C   0  0  0  0  0  0  0  0  0  0  0  0
   -4.5465   -2.1527    1.2902 H   0  0  0  0  0  0  0  0  0  0  0  0
   -3.9745   -3.1748   -0.0538 H   0  0  0  0  0  0  0  0  0  0  0  0
   -2.4245   -2.2537    1.0882 C   0  0  0  0  0  0  0  0  0  0  0  0
   -1.5805   -2.7478    1.8242 O   0  0  0  0  0  0  0  0  0  0  0  0
   -2.2045   -1.1637    0.3562 N   0  0  0  0  0  0  0  0  0  0  0  0
   -2.9595   -0.7907   -0.2008 H   0  0  0  0  0  0  0  0  0  0  0  0
   -0.9485   -0.4087    0.3482 C   0  0  1  0  0  0  0  0  0  0  0  0
   -0.3666   -0.6914    1.2269 H   0  0  0  0  0  0  0  0  0  0  0  0
   -0.1405   -0.7797   -0.9072 C   0  0  0  0  0  0  0  0  0  0  0  0
    0.8974   -0.9571   -0.6219 H   0  0  0  0  0  0  0  0  0  0  0  0
   -0.5316   -1.7122   -1.3168 H   0  0  0  0  0  0  0  0  0  0  0  0
   -0.1558    0.2864   -1.9861 C   0  0  0  0  0  0  0  0  0  0  0  0
   -0.8660    1.4865   -1.7929 C   0  0  0  0  0  0  0  0  0  0  0  0
   -1.4246    1.6459   -0.8814 H   0  0  0  0  0  0  0  0  0  0  0  0
   -0.8416    2.4879   -2.7811 C   0  0  0  0  0  0  0  0  0  0  0  0
   -1.3897    3.4076   -2.6318 H   0  0  0  0  0  0  0  0  0  0  0  0
   -0.1063    2.2923   -3.9624 C   0  0  0  0  0  0  0  0  0  0  0  0
   -0.0896    3.0607   -4.7226 H   0  0  0  0  0  0  0  0  0  0  0  0
    0.6032    1.0936   -4.1593 C   0  0  0  0  0  0  0  0  0  0  0  0
    1.1641    0.9408   -5.0697 H   0  0  0  0  0  0  0  0  0  0  0  0
    0.5760    0.0916   -3.1730 C   0  0  0  0  0  0  0  0  0  0  0  0
    1.1195   -0.8315   -3.3271 H   0  0  0  0  0  0  0  0  0  0  0  0
   -1.2168    1.1047    0.4313 C   0  0  0  0  0  0  0  0  0  0  0  0
   -2.0890    1.6186   -0.2704 O   0  0  0  0  0  0  0  0  0  0  0  0
   -0.4674    1.8182    1.2813 N   0  0  0  0  0  0  0  0  0  0  0  0
    0.2640    1.3348    1.7800 H   0  0  0  0  0  0  0  0  0  0  0  0
   -0.5889    3.2615    1.4722 C   0  0  0  0  0  0  0  0  0  0  0  0
   -1.6291    3.5206    1.6805 H   0  0  0  0  0  0  0  0  0  0  0  0
    0.0359    3.5855    2.3049 H   0  0  0  0  0  0  0  0  0  0  0  0
   -0.2760    3.7797    0.5637 H   0  0  0  0  0  0  0  0  0  0  0  0
  5  6  2  0  0  0  0
  5  7  1  0  0  0  0
  2  3  1  0  0  0  0
  2  4  1  0  0  0  0
  2  5  1  0  0  0  0
  1  2  1  0  0  0  0
 25 26  2  0  0  0  0
 25 27  1  0  0  0  0
 23 24  1  0  0  0  0
 21 22  1  0  0  0  0
 21 23  2  0  0  0  0
 19 20  1  0  0  0  0
 19 21  1  0  0  0  0
 17 18  1  0  0  0  0
 17 19  2  0  0  0  0
 15 16  1  0  0  0  0
 15 17  1  0  0  0  0
 14 15  2  0  0  0  0
 14 23  1  0  0  0  0
 11 12  1  0  0  0  0
 11 13  1  0  0  0  0
 11 14  1  0  0  0  0
  9 10  1  0  0  0  0
  9 11  1  0  0  0  0
  9 25  1  0  0  0  0
  7  8  1  0  0  0  0
  7  9  1  0  0  0  0
 29 30  1  0  0  0  0
 29 31  1  0  0  0  0
 29 32  1  0  0  0  0
 27 28  1  0  0  0  0
 27 29  1  0  0  0  0
M  END
$$$$
default_name
  -OEChem-02102213163D

 32 32  0     1  0  0  0  0  0999 V2000
   -3.8405   -3.7518    1.6252 H   0  0  0  0  0  0  0  0  0  0  0  0
   -3.7965   -2.8768    0.9782 C   0  0  0  0  0  0  0  0  0  0  0  0
   -4.5465   -2.1527    1.2902 H   0  0  0  0  0  0  0  0  0  0  0  0
   -3.9745   -3.1748   -0.0538 H   0  0  0  0  0  0  0  0  0  0  0  0
   -2.4245   -2.2537    1.0882 C   0  0  0  0  0  0  0  0  0  0  0  0
   -1.5805   -2.7478    1.8242 O   0  0  0  0  0  0  0  0  0  0  0  0
   -2.2045   -1.1637    0.3562 N   0  0  0  0  0  0  0  0  0  0  0  0
   -2.9595   -0.7907   -0.2008 H   0  0  0  0  0  0  0  0  0  0  0  0
   -0.9485   -0.4087    0.3482 C   0  0  1  0  0  0  0  0  0  0  0  0
   -0.3666   -0.6914    1.2269 H   0  0  0  0  0  0  0  0  0  0  0  0
   -0.1405   -0.7797   -0.9072 C   0  0  0  0  0  0  0  0  0  0  0  0
    0.8974   -0.9571   -0.6219 H   0  0  0  0  0  0  0  0  0  0  0  0
   -0.5316   -1.7122   -1.3168 H   0  0  0  0  0  0  0  0  0  0  0  0
   -0.1558    0.2864   -1.9861 C   0  0  0  0  0  0  0  0  0  0  0  0
   -0.5860    1.5939   -1.6907 C   0  0  0  0  0  0  0  0  0  0  0  0
   -0.9302    1.8404   -0.6963 H   0  0  0  0  0  0  0  0  0  0  0  0
   -0.5583    2.5879   -2.6864 C   0  0  0  0  0  0  0  0  0  0  0  0
   -0.8915    3.5906   -2.4582 H   0  0  0  0  0  0  0  0  0  0  0  0
   -0.0992    2.2770   -3.9776 C   0  0  0  0  0  0  0  0  0  0  0  0
   -0.0802    3.0401   -4.7431 H   0  0  0  0  0  0  0  0  0  0  0  0
    0.3299    0.9711   -4.2764 C   0  0  0  0  0  0  0  0  0  0  0  0
    0.6777    0.7306   -5.2704 H   0  0  0  0  0  0  0  0  0  0  0  0
    0.2991   -0.0228   -3.2821 C   0  0  0  0  0  0  0  0  0  0  0  0
    0.6263   -1.0280   -3.5143 H   0  0  0  0  0  0  0  0  0  0  0  0
   -1.2168    1.1047    0.4313 C   0  0  0  0  0  0  0  0  0  0  0  0
   -2.0890    1.6186   -0.2704 O   0  0  0  0  0  0  0  0  0  0  0  0
   -0.4674    1.8182    1.2813 N   0  0  0  0  0  0  0  0  0  0  0  0
    0.2640    1.3348    1.7800 H   0  0  0  0  0  0  0  0  0  0  0  0
   -0.5889    3.2615    1.4722 C   0  0  0  0  0  0  0  0  0  0  0  0
   -1.6291    3.5206    1.6805 H   0  0  0  0  0  0  0  0  0  0  0  0
    0.0359    3.5855    2.3049 H   0  0  0  0  0  0  0  0  0  0  0  0
   -0.2760    3.7797    0.5637 H   0  0  0  0  0  0  0  0  0  0  0  0
  5  6  2  0  0  0  0
  5  7  1  0  0  0  0
  2  3  1  0  0  0  0
  2  4  1  0  0  0  0
  2  5  1  0  0  0  0
  1  2  1  0  0  0  0
 25 26  2  0  0  0  0
 25 27  1  0  0  0  0
 23 24  1  0  0  0  0
 21 22  1  0  0  0  0
 21 23  2  0  0  0  0
 19 20  1  0  0  0  0
 19 21  1  0  0  0  0
 17 18  1  0  0  0  0
 17 19  2  0  0  0  0
 15 16  1  0  0  0  0
 15 17  1  0  0  0  0
 14 15  2  0  0  0  0
 14 23  1  0  0  0  0
 11 12  1  0  0  0  0
 11 13  1  0  0  0  0
 11 14  1  0  0  0  0
  9 10  1  0  0  0  0
  9 11  1  0  0  0  0
  9 25  1  0  0  0  0
  7  8  1  0  0  0  0
  7  9  1  0  0  0  0
 29 30  1  0  0  0  0
 29 31  1  0  0  0  0
 29 32  1  0  0  0  0
 27 28  1  0  0  0  0
 27 29  1  0  0  0  0
M  END
$$$$
default_name
  -OEChem-02102213163D

 32 32  0     1  0  0  0  0  0999 V2000
   -3.8405   -3.7518    1.6252 H   0  0  0  0  0  0  0  0  0  0  0  0
   -3.7965   -2.8768    0.9782 C   0  0  0  0  0  0  0  0  0  0  0  0
   -4.5465   -2.1527    1.2902 H   0  0  0  0  0  0  0  0  0  0  0  0
   -3.9745   -3.1748   -0.0538 H   0  0  0  0  0  0  0  0  0  0  0  0
   -2.4245   -2.2537    1.0882 C   0  0  0  0  0  0  0  0  0  0  0  0
   -1.5805   -2.7478    1.8242 O   0  0  0  0  0  0  0  0  0  0  0  0
   -2.2045   -1.1637    0.3562 N   0  0  0  0  0  0  0  0  0  0  0  0
   -2.9595   -0.7907   -0.2008 H   0  0  0  0  0  0  0  0  0  0  0  0
   -0.9485   -0.4087    0.3482 C   0  0  1  0  0  0  0  0  0  0  0  0
   -0.3666   -0.6914    1.2269 H   0  0  0  0  0  0  0  0  0  0  0  0
   -0.1405   -0.7797   -0.9072 C   0  0  0  0  0  0  0  0  0  0  0  0
    0.8974   -0.9571   -0.6219 H   0  0  0  0  0  0  0  0  0  0  0  0
   -0.5316   -1.7122   -1.3168 H   0  0  0  0  0  0  0  0  0  0  0  0
   -0.1558    0.2864   -1.9861 C   0  0  0  0  0  0  0  0  0  0  0  0
   -0.2771    1.6464   -1.6433 C   0  0  0  0  0  0  0  0  0  0  0  0
   -0.3832    1.9378   -0.6078 H   0  0  0  0  0  0  0  0  0  0  0  0
   -0.2490    2.6325   -2.6467 C   0  0  0  0  0  0  0  0  0  0  0  0
   -0.3449    3.6760   -2.3815 H   0  0  0  0  0  0  0  0  0  0  0  0
   -0.0979    2.2610   -3.9935 C   0  0  0  0  0  0  0  0  0  0  0  0
   -0.0787    3.0184   -4.7645 H   0  0  0  0  0  0  0  0  0  0  0  0
    0.0220    0.9027   -4.3396 C   0  0  0  0  0  0  0  0  0  0  0  0
    0.1328    0.6167   -5.3752 H   0  0  0  0  0  0  0  0  0  0  0  0
   -0.0094   -0.0827   -3.3369 C   0  0  0  0  0  0  0  0  0  0  0  0
    0.0796   -1.1275   -3.6048 H   0  0  0  0  0  0  0  0  0  0  0  0
   -1.2168    1.1047    0.4313 C   0  0  0  0  0  0  0  0  0  0  0  0
   -2.0890    1.6186   -0.2704 O   0  0  0  0  0  0  0  0  0  0  0  0
   -0.4674    1.8182    1.2813 N   0  0  0  0  0  0  0  0  0  0  0  0
    0.2640    1.3348    1.7800 H   0  0  0  0  0  0  0  0  0  0  0  0
   -0.5889    3.2615    1.4722 C   0  0  0  0  0  0  0  0  0  0  0  0
   -1.6291    3.5206    1.6805 H   0  0  0  0  0  0  0  0  0  0  0  0
    0.0359    3.5855    2.3049 H   0  0  0  0  0  0  0  0  0  0  0  0
   -0.2760    3.7797    0.5637 H   0  0  0  0  0  0  0  0  0  0  0  0
  5  6  2  0  0  0  0
  5  7  1  0  0  0  0
  2  3  1  0  0  0  0
  2  4  1  0  0  0  0
  2  5  1  0  0  0  0
  1  2  1  0  0  0  0
 25 26  2  0  0  0  0
 25 27  1  0  0  0  0
 23 24  1  0  0  0  0
 21 22  1  0  0  0  0
 21 23  2  0  0  0  0
 19 20  1  0  0  0  0
 19 21  1  0  0  0  0
 17 18  1  0  0  0  0
 17 19  2  0  0  0  0
 15 16  1  0  0  0  0
 15 17  1  0  0  0  0
 14 15  2  0  0  0  0
 14 23  1  0  0  0  0
 11 12  1  0  0  0  0
 11 13  1  0  0  0  0
 11 14  1  0  0  0  0
  9 10  1  0  0  0  0
  9 11  1  0  0  0  0
  9 25  1  0  0  0  0
  7  8  1  0  0  0  0
  7  9  1  0  0  0  0
 29 30  1  0  0  0  0
 29 31  1  0  0  0  0
 29 32  1  0  0  0  0
 27 28  1  0  0  0  0
 27 29  1  0  0  0  0
M  END
$$$$
default_name
  -OEChem-02102213163D

 32 32  0     1  0  0  0  0  0999 V2000
   -3.8405   -3.7518    1.6252 H   0  0  0  0  0  0  0  0  0  0  0  0
   -3.7965   -2.8768    0.9782 C   0  0  0  0  0  0  0  0  0  0  0  0
   -4.5465   -2.1527    1.2902 H   0  0  0  0  0  0  0  0  0  0  0  0
   -3.9745   -3.1748   -0.0538 H   0  0  0  0  0  0  0  0  0  0  0  0
   -2.4245   -2.2537    1.0882 C   0  0  0  0  0  0  0  0  0  0  0  0
   -1.5805   -2.7478    1.8242 O   0  0  0  0  0  0  0  0  0  0  0  0
   -2.2045   -1.1637    0.3562 N   0  0  0  0  0  0  0  0  0  0  0  0
   -2.9595   -0.7907   -0.2008 H   0  0  0  0  0  0  0  0  0  0  0  0
   -0.9485   -0.4087    0.3482 C   0  0  1  0  0  0  0  0  0  0  0  0
   -0.3666   -0.6914    1.2269 H   0  0  0  0  0  0  0  0  0  0  0  0
   -0.1405   -0.7797   -0.9072 C   0  0  0  0  0  0  0  0  0  0  0  0
    0.8974   -0.9571   -0.6219 H   0  0  0  0  0  0  0  0  0  0  0  0
   -0.5316   -1.7122   -1.3168 H   0  0  0  0  0  0  0  0  0  0  0  0
   -0.1558    0.2864   -1.9861 C   0  0  0  0  0  0  0  0  0  0  0  0
    0.0395    1.6404   -1.6537 C   0  0  0  0  0  0  0  0  0  0  0  0
    0.1792    1.9313   -0.6222 H   0  0  0  0  0  0  0  0  0  0  0  0
    0.0651    2.6187   -2.6647 C   0  0  0  0  0  0  0  0  0  0  0  0
    0.2127    3.6581   -2.4071 H   0  0  0  0  0  0  0  0  0  0  0  0
   -0.1025    2.2452   -4.0090 C   0  0  0  0  0  0  0  0  0  0  0  0
   -0.0851    2.9971   -4.7855 H   0  0  0  0  0  0  0  0  0  0  0  0
   -0.2994    0.8933   -4.3444 C   0  0  0  0  0  0  0  0  0  0  0  0
   -0.4337    0.6066   -5.3771 H   0  0  0  0  0  0  0  0  0  0  0  0
   -0.3283   -0.0838   -3.3335 C   0  0  0  0  0  0  0  0  0  0  0  0
   -0.4832   -1.1231   -3.5925 H   0  0  0  0  0  0  0  0  0  0  0  0
   -1.2168    1.1047    0.4313 C   0  0  0  0  0  0  0  0  0  0  0  0
   -2.0890    1.6186   -0.2704 O   0  0  0  0  0  0  0  0  0  0  0  0
   -0.4674    1.8182    1.2813 N   0  0  0  0  0  0  0  0  0  0  0  0
    0.2640    1.3348    1.7800 H   0  0  0  0  0  0  0  0  0  0  0  0
   -0.5889    3.2615    1.4722 C   0  0  0  0  0  0  0  0  0  0  0  0
   -1.6291    3.5206    1.6805 H   0  0  0  0  0  0  0  0  0  0  0  0
    0.0359    3.5855    2.3049 H   0  0  0  0  0  0  0  0  0  0  0  0
   -0.2760    3.7797    0.5637 H   0  0  0  0  0  0  0  0  0  0  0  0
  5  6  2  0  0  0  0
  5  7  1  0  0  0  0
  2  3  1  0  0  0  0
  2  4  1  0  0  0  0
  2  5  1  0  0  0  0
  1  2  1  0  0  0  0
 25 26  2  0  0  0  0
 25 27  1  0  0  0  0
 23 24  1  0  0  0  0
 21 22  1  0  0  0  0
 21 23  2  0  0  0  0
 19 20  1  0  0  0  0
 19 21  1  0  0  0  0
 17 18  1  0  0  0  0
 17 19  2  0  0  0  0
 15 16  1  0  0  0  0
 15 17  1  0  0  0  0
 14 15  2  0  0  0  0
 14 23  1  0  0  0  0
 11 12  1  0  0  0  0
 11 13  1  0  0  0  0
 11 14  1  0  0  0  0
  9 10  1  0  0  0  0
  9 11  1  0  0  0  0
  9 25  1  0  0  0  0
  7  8  1  0  0  0  0
  7  9  1  0  0  0  0
 29 30  1  0  0  0  0
 29 31  1  0  0  0  0
 29 32  1  0  0  0  0
 27 28  1  0  0  0  0
 27 29  1  0  0  0  0
M  END
$$$$
default_name
  -OEChem-02102213163D

 32 32  0     1  0  0  0  0  0999 V2000
   -3.8405   -3.7518    1.6252 H   0  0  0  0  0  0  0  0  0  0  0  0
   -3.7965   -2.8768    0.9782 C   0  0  0  0  0  0  0  0  0  0  0  0
   -4.5465   -2.1527    1.2902 H   0  0  0  0  0  0  0  0  0  0  0  0
   -3.9745   -3.1748   -0.0538 H   0  0  0  0  0  0  0  0  0  0  0  0
   -2.4245   -2.2537    1.0882 C   0  0  0  0  0  0  0  0  0  0  0  0
   -1.5805   -2.7478    1.8242 O   0  0  0  0  0  0  0  0  0  0  0  0
   -2.2045   -1.1637    0.3562 N   0  0  0  0  0  0  0  0  0  0  0  0
   -2.9595   -0.7907   -0.2008 H   0  0  0  0  0  0  0  0  0  0  0  0
   -0.9485   -0.4087    0.3482 C   0  0  1  0  0  0  0  0  0  0  0  0
   -0.3666   -0.6914    1.2269 H   0  0  0  0  0  0  0  0  0  0  0  0
   -0.1405   -0.7797   -0.9072 C   0  0  0  0  0  0  0  0  0  0  0  0
    0.8974   -0.9571   -0.6219 H   0  0  0  0  0  0  0  0  0  0  0  0
   -0.5316   -1.7122   -1.3168 H   0  0  0  0  0  0  0  0  0  0  0  0
   -0.1558    0.2864   -1.9861 C   0  0  0  0  0  0  0  0  0  0  0  0
    0.3423    1.5762   -1.7214 C   0  0  0  0  0  0  0  0  0  0  0  0
    0.7187    1.8215   -0.7383 H   0  0  0  0  0  0  0  0  0  0  0  0
    0.3628    2.5475   -2.7393 C   0  0  0  0  0  0  0  0  0  0  0  0
    0.7434    3.5381   -2.5332 H   0  0  0  0  0  0  0  0  0  0  0  0
   -0.1126    2.2307   -4.0231 C   0  0  0  0  0  0  0  0  0  0  0  0
   -0.0991    2.9777   -4.8044 H   0  0  0  0  0  0  0  0  0  0  0  0
   -0.6125    0.9433   -4.2905 C   0  0  0  0  0  0  0  0  0  0  0  0
   -0.9830    0.7012   -5.2758 H   0  0  0  0  0  0  0  0  0  0  0  0
   -0.6359   -0.0262   -3.2722 C   0  0  0  0  0  0  0  0  0  0  0  0
   -1.0238   -1.0153   -3.4783 H   0  0  0  0  0  0  0  0  0  0  0  0
   -1.2168    1.1047    0.4313 C   0  0  0  0  0  0  0  0  0  0  0  0
   -2.0890    1.6186   -0.2704 O   0  0  0  0  0  0  0  0  0  0  0  0
   -0.4674    1.8182    1.2813 N   0  0  0  0  0  0  0  0  0  0  0  0
    0.2640    1.3348    1.7800 H   0  0  0  0  0  0  0  0  0  0  0  0
   -0.5889    3.2615    1.4722 C   0  0  0  0  0  0  0  0  0  0  0  0
   -1.6291    3.5206    1.6805 H   0  0  0  0  0  0  0  0  0  0  0  0
    0.0359    3.5855    2.3049 H   0  0  0  0  0  0  0  0  0  0  0  0
   -0.2760    3.7797    0.5637 H   0  0  0  0  0  0  0  0  0  0  0  0
  5  6  2  0  0  0  0
  5  7  1  0  0  0  0
  2  3  1  0  0  0  0
  2  4  1  0  0  0  0
  2  5  1  0  0  0  0
  1  2  1  0  0  0  0
 25 26  2  0  0  0  0
 25 27  1  0  0  0  0
 23 24  1  0  0  0  0
 21 22  1  0  0  0  0
 21 23  2  0  0  0  0
 19 20  1  0  0  0  0
 19 21  1  0  0  0  0
 17 18  1  0  0  0  0
 17 19  2  0  0  0  0
 15 16  1  0  0  0  0
 15 17  1  0  0  0  0
 14 15  2  0  0  0  0
 14 23  1  0  0  0  0
 11 12  1  0  0  0  0
 11 13  1  0  0  0  0
 11 14  1  0  0  0  0
  9 10  1  0  0  0  0
  9 11  1  0  0  0  0
  9 25  1  0  0  0  0
  7  8  1  0  0  0  0
  7  9  1  0  0  0  0
 29 30  1  0  0  0  0
 29 31  1  0  0  0  0
 29 32  1  0  0  0  0
 27 28  1  0  0  0  0
 27 29  1  0  0  0  0
M  END
$$$$
default_name
  -OEChem-02102213163D

 32 32  0     1  0  0  0  0  0999 V2000
   -3.8405   -3.7518    1.6252 H   0  0  0  0  0  0  0  0  0  0  0  0
   -3.7965   -2.8768    0.9782 C   0  0  0  0  0  0  0  0  0  0  0  0
   -4.5465   -2.1527    1.2902 H   0  0  0  0  0  0  0  0  0  0  0  0
   -3.9745   -3.1748   -0.0538 H   0  0  0  0  0  0  0  0  0  0  0  0
   -2.4245   -2.2537    1.0882 C   0  0  0  0  0  0  0  0  0  0  0  0
   -1.5805   -2.7478    1.8242 O   0  0  0  0  0  0  0  0  0  0  0  0
   -2.2045   -1.1637    0.3562 N   0  0  0  0  0  0  0  0  0  0  0  0
   -2.9595   -0.7907   -0.2008 H   0  0  0  0  0  0  0  0  0  0  0  0
   -0.9485   -0.4087    0.3482 C   0  0  1  0  0  0  0  0  0  0  0  0
   -0.3666   -0.6914    1.2269 H   0  0  0  0  0  0  0  0  0  0  0  0
   -0.1405   -0.7797   -0.9072 C   0  0  0  0  0  0  0  0  0  0  0  0
    0.8974   -0.9571   -0.6219 H   0  0  0  0  0  0  0  0  0  0  0  0
   -0.5316   -1.7122   -1.3168 H   0  0  0  0  0  0  0  0  0  0  0  0
   -0.1558    0.2864   -1.9861 C   0  0  0  0  0  0  0  0  0  0  0  0
    0.6107    1.4583   -1.8417 C   0  0  0  0  0  0  0  0  0  0  0  0
    1.1984    1.6159   -0.9484 H   0  0  0  0  0  0  0  0  0  0  0  0
    0.6237    2.4238   -2.8652 C   0  0  0  0  0  0  0  0  0  0  0  0
    1.2109    3.3242   -2.7513 H   0  0  0  0  0  0  0  0  0  0  0  0
   -0.1277    2.2186   -4.0349 C   0  0  0  0  0  0  0  0  0  0  0  0
   -0.1195    2.9615   -4.8202 H   0  0  0  0  0  0  0  0  0  0  0  0
   -0.8959    1.0493   -4.1817 C   0  0  0  0  0  0  0  0  0  0  0  0
   -1.4778    0.8940   -5.0783 H   0  0  0  0  0  0  0  0  0  0  0  0
   -0.9113    0.0862   -3.1572 C   0  0  0  0  0  0  0  0  0  0  0  0
   -1.5053   -0.8114   -3.2700 H   0  0  0  0  0  0  0  0  0  0  0  0
   -1.2168    1.1047    0.4313 C   0  0  0  0  0  0  0  0  0  0  0  0
   -2.0890    1.6186   -0.2704 O   0  0  0  0  0  0  0  0  0  0  0  0
   -0.4674    1.8182    1.2813 N   0  0  0  0  0  0  0  0  0  0  0  0
    0.2640    1.3348    1.7800 H   0  0  0  0  0  0  0  0  0  0  0  0
   -0.5889    3.2615    1.4722 C   0  0  0  0  0  0  0  0  0  0  0  0
   -1.6291    3.5206    1.6805 H   0  0  0  0  0  0  0  0  0  0  0  0
    0.0359    3.5855    2.3049 H   0  0  0  0  0  0  0  0  0  0  0  0
   -0.2760    3.7797    0.5637 H   0  0  0  0  0  0  0  0  0  0  0  0
  5  6  2  0  0  0  0
  5  7  1  0  0  0  0
  2  3  1  0  0  0  0
  2  4  1  0  0  0  0
  2  5  1  0  0  0  0
  1  2  1  0  0  0  0
 25 26  2  0  0  0  0
 25 27  1  0  0  0  0
 23 24  1  0  0  0  0
 21 22  1  0  0  0  0
 21 23  2  0  0  0  0
 19 20  1  0  0  0  0
 19 21  1  0  0  0  0
 17 18  1  0  0  0  0
 17 19  2  0  0  0  0
 15 16  1  0  0  0  0
 15 17  1  0  0  0  0
 14 15  2  0  0  0  0
 14 23  1  0  0  0  0
 11 12  1  0  0  0  0
 11 13  1  0  0  0  0
 11 14  1  0  0  0  0
  9 10  1  0  0  0  0
  9 11  1  0  0  0  0
  9 25  1  0  0  0  0
  7  8  1  0  0  0  0
  7  9  1  0  0  0  0
 29 30  1  0  0  0  0
 29 31  1  0  0  0  0
 29 32  1  0  0  0  0
 27 28  1  0  0  0  0
 27 29  1  0  0  0  0
M  END
$$$$
default_name
  -OEChem-02102213163D

 32 32  0     1  0  0  0  0  0999 V2000
   -3.8405   -3.7518    1.6252 H   0  0  0  0  0  0  0  0  0  0  0  0
   -3.7965   -2.8768    0.9782 C   0  0  0  0  0  0  0  0  0  0  0  0
   -4.5465   -2.1527    1.2902 H   0  0  0  0  0  0  0  0  0  0  0  0
   -3.9745   -3.1748   -0.0538 H   0  0  0  0  0  0  0  0  0  0  0  0
   -2.4245   -2.2537    1.0882 C   0  0  0  0  0  0  0  0  0  0  0  0
   -1.5805   -2.7478    1.8242 O   0  0  0  0  0  0  0  0  0  0  0  0
   -2.2045   -1.1637    0.3562 N   0  0  0  0  0  0  0  0  0  0  0  0
   -2.9595   -0.7907   -0.2008 H   0  0  0  0  0  0  0  0  0  0  0  0
   -0.9485   -0.4087    0.3482 C   0  0  1  0  0  0  0  0  0  0  0  0
   -0.3666   -0.6914    1.2269 H   0  0  0  0  0  0  0  0  0  0  0  0
   -0.1405   -0.7797   -0.9072 C   0  0  0  0  0  0  0  0  0  0  0  0
    0.8974   -0.9571   -0.6219 H   0  0  0  0  0  0  0  0  0  0  0  0
   -0.5316   -1.7122   -1.3168 H   0  0  0  0  0  0  0  0  0  0  0  0
   -0.1558    0.2864   -1.9861 C   0  0  0  0  0  0  0  0  0  0  0  0
    0.8263    1.2947   -2.0064 C   0  0  0  0  0  0  0  0  0  0  0  0
    1.5857    1.3283   -1.2380 H   0  0  0  0  0  0  0  0  0  0  0  0
    0.8299    2.2559   -3.0341 C   0  0  0  0  0  0  0  0  0  0  0  0
    1.5835    3.0309   -3.0464 H   0  0  0  0  0  0  0  0  0  0  0  0
   -0.1466    2.2097   -4.0435 C   0  0  0  0  0  0  0  0  0  0  0  0
   -0.1452    2.9495   -4.8316 H   0  0  0  0  0  0  0  0  0  0  0  0
   -1.1304    1.2043   -4.0253 C   0  0  0  0  0  0  0  0  0  0  0  0
   -1.8843    1.1718   -4.7981 H   0  0  0  0  0  0  0  0  0  0  0  0
   -1.1357    0.2458   -2.9964 C   0  0  0  0  0  0  0  0  0  0  0  0
   -1.8951   -0.5252   -2.9816 H   0  0  0  0  0  0  0  0  0  0  0  0
   -1.2168    1.1047    0.4313 C   0  0  0  0  0  0  0  0  0  0  0  0
   -2.0890    1.6186   -0.2704 O   0  0  0  0  0  0  0  0  0  0  0  0
   -0.4674    1.8182    1.2813 N   0  0  0  0  0  0  0  0  0  0  0  0
    0.2640    1.3348    1.7800 H   0  0  0  0  0  0  0  0  0  0  0  0
   -0.5889    3.2615    1.4722 C   0  0  0  0  0  0  0  0  0  0  0  0
   -1.6291    3.5206    1.6805 H   0  0  0  0  0  0  0  0  0  0  0  0
    0.0359    3.5855    2.3049 H   0  0  0  0  0  0  0  0  0  0  0  0
   -0.2760    3.7797    0.5637 H   0  0  0  0  0  0  0  0  0  0  0  0
  5  6  2  0  0  0  0
  5  7  1  0  0  0  0
  2  3  1  0  0  0  0
  2  4  1  0  0  0  0
  2  5  1  0  0  0  0
  1  2  1  0  0  0  0
 25 26  2  0  0  0  0
 25 27  1  0  0  0  0
 23 24  1  0  0  0  0
 21 22  1  0  0  0  0
 21 23  2  0  0  0  0
 19 20  1  0  0  0  0
 19 21  1  0  0  0  0
 17 18  1  0  0  0  0
 17 19  2  0  0  0  0
 15 16  1  0  0  0  0
 15 17  1  0  0  0  0
 14 15  2  0  0  0  0
 14 23  1  0  0  0  0
 11 12  1  0  0  0  0
 11 13  1  0  0  0  0
 11 14  1  0  0  0  0
  9 10  1  0  0  0  0
  9 11  1  0  0  0  0
  9 25  1  0  0  0  0
  7  8  1  0  0  0  0
  7  9  1  0  0  0  0
 29 30  1  0  0  0  0
 29 31  1  0  0  0  0
 29 32  1  0  0  0  0
 27 28  1  0  0  0  0
 27 29  1  0  0  0  0
M  END
$$$$
default_name
  -OEChem-02102213163D

 32 32  0     1  0  0  0  0  0999 V2000
   -3.8405   -3.7518    1.6252 H   0  0  0  0  0  0  0  0  0  0  0  0
   -3.7965   -2.8768    0.9782 C   0  0  0  0  0  0  0  0  0  0  0  0
   -4.5465   -2.1527    1.2902 H   0  0  0  0  0  0  0  0  0  0  0  0
   -3.9745   -3.1748   -0.0538 H   0  0  0  0  0  0  0  0  0  0  0  0
   -2.4245   -2.2537    1.0882 C   0  0  0  0  0  0  0  0  0  0  0  0
   -1.5805   -2.7478    1.8242 O   0  0  0  0  0  0  0  0  0  0  0  0
   -2.2045   -1.1637    0.3562 N   0  0  0  0  0  0  0  0  0  0  0  0
   -2.9595   -0.7907   -0.2008 H   0  0  0  0  0  0  0  0  0  0  0  0
   -0.9485   -0.4087    0.3482 C   0  0  1  0  0  0  0  0  0  0  0  0
   -0.3666   -0.6914    1.2269 H   0  0  0  0  0  0  0  0  0  0  0  0
   -0.1405   -0.7797   -0.9072 C   0  0  0  0  0  0  0  0  0  0  0  0
    0.8974   -0.9571   -0.6219 H   0  0  0  0  0  0  0  0  0  0  0  0
   -0.5316   -1.7122   -1.3168 H   0  0  0  0  0  0  0  0  0  0  0  0
   -0.1558    0.2864   -1.9861 C   0  0  0  0  0  0  0  0  0  0  0  0
    0.9746    1.0966   -2.2043 C   0  0  0  0  0  0  0  0  0  0  0  0
    1.8542    0.9786   -1.5874 H   0  0  0  0  0  0  0  0  0  0  0  0
    0.9676    2.0554   -3.2342 C   0  0  0  0  0  0  0  0  0  0  0  0
    1.8357    2.6782   -3.3984 H   0  0  0  0  0  0  0  0  0  0  0  0
   -0.1680    2.2044   -4.0483 C   0  0  0  0  0  0  0  0  0  0  0  0
   -0.1742    2.9427   -4.8380 H   0  0  0  0  0  0  0  0  0  0  0  0
   -1.2998    1.3975   -3.8319 C   0  0  0  0  0  0  0  0  0  0  0  0
   -2.1748    1.5157   -4.4542 H   0  0  0  0  0  0  0  0  0  0  0  0
   -1.2938    0.4417   -2.8006 C   0  0  0  0  0  0  0  0  0  0  0  0
   -2.1663   -0.1762   -2.6330 H   0  0  0  0  0  0  0  0  0  0  0  0
   -1.2168    1.1047    0.4313 C   0  0  0  0  0  0  0  0  0  0  0  0
   -2.0890    1.6186   -0.2704 O   0  0  0  0  0  0  0  0  0  0  0  0
   -0.4674    1.8182    1.2813 N   0  0  0  0  0  0  0  0  0  0  0  0
    0.2640    1.3348    1.7800 H   0  0  0  0  0  0  0  0  0  0  0  0
   -0.5889    3.2615    1.4722 C   0  0  0  0  0  0  0  0  0  0  0  0
   -1.6291    3.5206    1.6805 H   0  0  0  0  0  0  0  0  0  0  0  0
    0.0359    3.5855    2.3049 H   0  0  0  0  0  0  0  0  0  0  0  0
   -0.2760    3.7797    0.5637 H   0  0  0  0  0  0  0  0  0  0  0  0
  5  6  2  0  0  0  0
  5  7  1  0  0  0  0
  2  3  1  0  0  0  0
  2  4  1  0  0  0  0
  2  5  1  0  0  0  0
  1  2  1  0  0  0  0
 25 26  2  0  0  0  0
 25 27  1  0  0  0  0
 23 24  1  0  0  0  0
 21 22  1  0  0  0  0
 21 23  2  0  0  0  0
 19 20  1  0  0  0  0
 19 21  1  0  0  0  0
 17 18  1  0  0  0  0
 17 19  2  0  0  0  0
 15 16  1  0  0  0  0
 15 17  1  0  0  0  0
 14 15  2  0  0  0  0
 14 23  1  0  0  0  0
 11 12  1  0  0  0  0
 11 13  1  0  0  0  0
 11 14  1  0  0  0  0
  9 10  1  0  0  0  0
  9 11  1  0  0  0  0
  9 25  1  0  0  0  0
  7  8  1  0  0  0  0
  7  9  1  0  0  0  0
 29 30  1  0  0  0  0
 29 31  1  0  0  0  0
 29 32  1  0  0  0  0
 27 28  1  0  0  0  0
 27 29  1  0  0  0  0
M  END
$$$$
default_name
  -OEChem-02102213163D

 32 32  0     1  0  0  0  0  0999 V2000
   -3.8405   -3.7518    1.6252 H   0  0  0  0  0  0  0  0  0  0  0  0
   -3.7965   -2.8768    0.9782 C   0  0  0  0  0  0  0  0  0  0  0  0
   -4.5465   -2.1527    1.2902 H   0  0  0  0  0  0  0  0  0  0  0  0
   -3.9745   -3.1748   -0.0538 H   0  0  0  0  0  0  0  0  0  0  0  0
   -2.4245   -2.2537    1.0882 C   0  0  0  0  0  0  0  0  0  0  0  0
   -1.5805   -2.7478    1.8242 O   0  0  0  0  0  0  0  0  0  0  0  0
   -2.2045   -1.1637    0.3562 N   0  0  0  0  0  0  0  0  0  0  0  0
   -2.9595   -0.7907   -0.2008 H   0  0  0  0  0  0  0  0  0  0  0  0
   -0.9485   -0.4087    0.3482 C   0  0  1  0  0  0  0  0  0  0  0  0
   -0.3666   -0.6914    1.2269 H   0  0  0  0  0  0  0  0  0  0  0  0
   -0.1405   -0.7797   -0.9072 C   0  0  0  0  0  0  0  0  0  0  0  0
    0.8974   -0.9571   -0.6219 H   0  0  0  0  0  0  0  0  0  0  0  0
   -0.5316   -1.7122   -1.3168 H   0  0  0  0  0  0  0  0  0  0  0  0
   -0.1558    0.2864   -1.9861 C   0  0  0  0  0  0  0  0  0  0  0  0
    1.0453    0.8774   -2.4219 C   0  0  0  0  0  0  0  0  0  0  0  0
    1.9856    0.5903   -1.9729 H   0  0  0  0  0  0  0  0  0  0  0  0
    1.0272    1.8358   -3.4520 C   0  0  0  0  0  0  0  0  0  0  0  0
    1.9503    2.2902   -3.7834 H   0  0  0  0  0  0  0  0  0  0  0  0
   -0.1906    2.2034   -4.0491 C   0  0  0  0  0  0  0  0  0  0  0  0
   -0.2047    2.9414   -4.8389 H   0  0  0  0  0  0  0  0  0  0  0  0
   -1.3928    1.6158   -3.6149 C   0  0  0  0  0  0  0  0  0  0  0  0
   -2.3296    1.9022   -4.0700 H   0  0  0  0  0  0  0  0  0  0  0  0
   -1.3748    0.6605   -2.5832 C   0  0  0  0  0  0  0  0  0  0  0  0
   -2.3007    0.2117   -2.2478 H   0  0  0  0  0  0  0  0  0  0  0  0
   -1.2168    1.1047    0.4313 C   0  0  0  0  0  0  0  0  0  0  0  0
   -2.0890    1.6186   -0.2704 O   0  0  0  0  0  0  0  0  0  0  0  0
   -0.4674    1.8182    1.2813 N   0  0  0  0  0  0  0  0  0  0  0  0
    0.2640    1.3348    1.7800 H   0  0  0  0  0  0  0  0  0  0  0  0
   -0.5889    3.2615    1.4722 C   0  0  0  0  0  0  0  0  0  0  0  0
   -1.6291    3.5206    1.6805 H   0  0  0  0  0  0  0  0  0  0  0  0
    0.0359    3.5855    2.3049 H   0  0  0  0  0  0  0  0  0  0  0  0
   -0.2760    3.7797    0.5637 H   0  0  0  0  0  0  0  0  0  0  0  0
  5  6  2  0  0  0  0
  5  7  1  0  0  0  0
  2  3  1  0  0  0  0
  2  4  1  0  0  0  0
  2  5  1  0  0  0  0
  1  2  1  0  0  0  0
 25 26  2  0  0  0  0
 25 27  1  0  0  0  0
 23 24  1  0  0  0  0
 21 22  1  0  0  0  0
 21 23  2  0  0  0  0
 19 20  1  0  0  0  0
 19 21  1  0  0  0  0
 17 18  1  0  0  0  0
 17 19  2  0  0  0  0
 15 16  1  0  0  0  0
 15 17  1  0  0  0  0
 14 15  2  0  0  0  0
 14 23  1  0  0  0  0
 11 12  1  0  0  0  0
 11 13  1  0  0  0  0
 11 14  1  0  0  0  0
  9 10  1  0  0  0  0
  9 11  1  0  0  0  0
  9 25  1  0  0  0  0
  7  8  1  0  0  0  0
  7  9  1  0  0  0  0
 29 30  1  0  0  0  0
 29 31  1  0  0  0  0
 29 32  1  0  0  0  0
 27 28  1  0  0  0  0
 27 29  1  0  0  0  0
M  END
$$$$
default_name
  -OEChem-02102213163D

 32 32  0     1  0  0  0  0  0999 V2000
   -3.8405   -3.7518    1.6252 H   0  0  0  0  0  0  0  0  0  0  0  0
   -3.7965   -2.8768    0.9782 C   0  0  0  0  0  0  0  0  0  0  0  0
   -4.5465   -2.1527    1.2902 H   0  0  0  0  0  0  0  0  0  0  0  0
   -3.9745   -3.1748   -0.0538 H   0  0  0  0  0  0  0  0  0  0  0  0
   -2.4245   -2.2537    1.0882 C   0  0  0  0  0  0  0  0  0  0  0  0
   -1.5805   -2.7478    1.8242 O   0  0  0  0  0  0  0  0  0  0  0  0
   -2.2045   -1.1637    0.3562 N   0  0  0  0  0  0  0  0  0  0  0  0
   -2.9595   -0.7907   -0.2008 H   0  0  0  0  0  0  0  0  0  0  0  0
   -0.9485   -0.4087    0.3482 C   0  0  1  0  0  0  0  0  0  0  0  0
   -0.3666   -0.6914    1.2269 H   0  0  0  0  0  0  0  0  0  0  0  0
   -0.1405   -0.7797   -0.9072 C   0  0  0  0  0  0  0  0  0  0  0  0
    0.8974   -0.9571   -0.6219 H   0  0  0  0  0  0  0  0  0  0  0  0
   -0.5316   -1.7122   -1.3168 H   0  0  0  0  0  0  0  0  0  0  0  0
   -0.1558    0.2864   -1.9861 C   0  0  0  0  0  0  0  0  0  0  0  0
    1.0336    0.6521   -2.6444 C   0  0  0  0  0  0  0  0  0  0  0  0
    1.9709    0.1902   -2.3681 H   0  0  0  0  0  0  0  0  0  0  0  0
    1.0047    1.6121   -3.6727 C   0  0  0  0  0  0  0  0  0  0  0  0
    1.9196    1.8934   -4.1751 H   0  0  0  0  0  0  0  0  0  0  0  0
   -0.2128    2.2065   -4.0457 C   0  0  0  0  0  0  0  0  0  0  0  0
   -0.2345    2.9457   -4.8341 H   0  0  0  0  0  0  0  0  0  0  0  0
   -1.4029    1.8444   -3.3889 C   0  0  0  0  0  0  0  0  0  0  0  0
   -2.3380    2.3051   -3.6718 H   0  0  0  0  0  0  0  0  0  0  0  0
   -1.3732    0.8874   -2.3590 C   0  0  0  0  0  0  0  0  0  0  0  0
   -2.2891    0.6121   -1.8523 H   0  0  0  0  0  0  0  0  0  0  0  0
   -1.2168    1.1047    0.4313 C   0  0  0  0  0  0  0  0  0  0  0  0
   -2.0890    1.6186   -0.2704 O   0  0  0  0  0  0  0  0  0  0  0  0
   -0.4674    1.8182    1.2813 N   0  0  0  0  0  0  0  0  0  0  0  0
    0.2640    1.3348    1.7800 H   0  0  0  0  0  0  0  0  0  0  0  0
   -0.5889    3.2615    1.4722 C   0  0  0  0  0  0  0  0  0  0  0  0
   -1.6291    3.5206    1.6805 H   0  0  0  0  0  0  0  0  0  0  0  0
    0.0359    3.5855    2.3049 H   0  0  0  0  0  0  0  0  0  0  0  0
   -0.2760    3.7797    0.5637 H   0  0  0  0  0  0  0  0  0  0  0  0
  5  6  2  0  0  0  0
  5  7  1  0  0  0  0
  2  3  1  0  0  0  0
  2  4  1  0  0  0  0
  2  5  1  0  0  0  0
  1  2  1  0  0  0  0
 25 26  2  0  0  0  0
 25 27  1  0  0  0  0
 23 24  1  0  0  0  0
 21 22  1  0  0  0  0
 21 23  2  0  0  0  0
 19 20  1  0  0  0  0
 19 21  1  0  0  0  0
 17 18  1  0  0  0  0
 17 19  2  0  0  0  0
 15 16  1  0  0  0  0
 15 17  1  0  0  0  0
 14 15  2  0  0  0  0
 14 23  1  0  0  0  0
 11 12  1  0  0  0  0
 11 13  1  0  0  0  0
 11 14  1  0  0  0  0
  9 10  1  0  0  0  0
  9 11  1  0  0  0  0
  9 25  1  0  0  0  0
  7  8  1  0  0  0  0
  7  9  1  0  0  0  0
 29 30  1  0  0  0  0
 29 31  1  0  0  0  0
 29 32  1  0  0  0  0
 27 28  1  0  0  0  0
 27 29  1  0  0  0  0
M  END
$$$$
default_name
  -OEChem-02102213163D

 32 32  0     1  0  0  0  0  0999 V2000
   -3.8405   -3.7518    1.6252 H   0  0  0  0  0  0  0  0  0  0  0  0
   -3.7965   -2.8768    0.9782 C   0  0  0  0  0  0  0  0  0  0  0  0
   -4.5465   -2.1527    1.2902 H   0  0  0  0  0  0  0  0  0  0  0  0
   -3.9745   -3.1748   -0.0538 H   0  0  0  0  0  0  0  0  0  0  0  0
   -2.4245   -2.2537    1.0882 C   0  0  0  0  0  0  0  0  0  0  0  0
   -1.5805   -2.7478    1.8242 O   0  0  0  0  0  0  0  0  0  0  0  0
   -2.2045   -1.1637    0.3562 N   0  0  0  0  0  0  0  0  0  0  0  0
   -2.9595   -0.7907   -0.2008 H   0  0  0  0  0  0  0  0  0  0  0  0
   -0.9485   -0.4087    0.3482 C   0  0  1  0  0  0  0  0  0  0  0  0
   -0.3666   -0.6914    1.2269 H   0  0  0  0  0  0  0  0  0  0  0  0
   -0.1405   -0.7797   -0.9072 C   0  0  0  0  0  0  0  0  0  0  0  0
    0.8974   -0.9571   -0.6219 H   0  0  0  0  0  0  0  0  0  0  0  0
   -0.5316   -1.7122   -1.3168 H   0  0  0  0  0  0  0  0  0  0  0  0
   -0.1558    0.2864   -1.9861 C   0  0  0  0  0  0  0  0  0  0  0  0
    0.9404    0.4360   -2.8566 C   0  0  0  0  0  0  0  0  0  0  0  0
    1.8112   -0.1947   -2.7461 H   0  0  0  0  0  0  0  0  0  0  0  0
    0.9017    1.3996   -3.8812 C   0  0  0  0  0  0  0  0  0  0  0  0
    1.7456    1.5146   -4.5469 H   0  0  0  0  0  0  0  0  0  0  0  0
   -0.2330    2.2135   -4.0384 C   0  0  0  0  0  0  0  0  0  0  0  0
   -0.2617    2.9555   -4.8241 H   0  0  0  0  0  0  0  0  0  0  0  0
   -1.3295    2.0676   -3.1693 C   0  0  0  0  0  0  0  0  0  0  0  0
   -2.1996    2.6969   -3.2867 H   0  0  0  0  0  0  0  0  0  0  0  0
   -1.2892    1.1068   -2.1434 C   0  0  0  0  0  0  0  0  0  0  0  0
   -2.1321    0.9978   -1.4734 H   0  0  0  0  0  0  0  0  0  0  0  0
   -1.2168    1.1047    0.4313 C   0  0  0  0  0  0  0  0  0  0  0  0
   -2.0890    1.6186   -0.2704 O   0  0  0  0  0  0  0  0  0  0  0  0
   -0.4674    1.8182    1.2813 N   0  0  0  0  0  0  0  0  0  0  0  0
    0.2640    1.3348    1.7800 H   0  0  0  0  0  0  0  0  0  0  0  0
   -0.5889    3.2615    1.4722 C   0  0  0  0  0  0  0  0  0  0  0  0
   -1.6291    3.5206    1.6805 H   0  0  0  0  0  0  0  0  0  0  0  0
    0.0359    3.5855    2.3049 H   0  0  0  0  0  0  0  0  0  0  0  0
   -0.2760    3.7797    0.5637 H   0  0  0  0  0  0  0  0  0  0  0  0
  5  6  2  0  0  0  0
  5  7  1  0  0  0  0
  2  3  1  0  0  0  0
  2  4  1  0  0  0  0
  2  5  1  0  0  0  0
  1  2  1  0  0  0  0
 25 26  2  0  0  0  0
 25 27  1  0  0  0  0
 23 24  1  0  0  0  0
 21 22  1  0  0  0  0
 21 23  2  0  0  0  0
 19 20  1  0  0  0  0
 19 21  1  0  0  0  0
 17 18  1  0  0  0  0
 17 19  2  0  0  0  0
 15 16  1  0  0  0  0
 15 17  1  0  0  0  0
 14 15  2  0  0  0  0
 14 23  1  0  0  0  0
 11 12  1  0  0  0  0
 11 13  1  0  0  0  0
 11 14  1  0  0  0  0
  9 10  1  0  0  0  0
  9 11  1  0  0  0  0
  9 25  1  0  0  0  0
  7  8  1  0  0  0  0
  7  9  1  0  0  0  0
 29 30  1  0  0  0  0
 29 31  1  0  0  0  0
 29 32  1  0  0  0  0
 27 28  1  0  0  0  0
 27 29  1  0  0  0  0
M  END
$$$$
default_name
  -OEChem-02102213163D

 32 32  0     1  0  0  0  0  0999 V2000
   -3.8405   -3.7518    1.6252 H   0  0  0  0  0  0  0  0  0  0  0  0
   -3.7965   -2.8768    0.9782 C   0  0  0  0  0  0  0  0  0  0  0  0
   -4.5465   -2.1527    1.2902 H   0  0  0  0  0  0  0  0  0  0  0  0
   -3.9745   -3.1748   -0.0538 H   0  0  0  0  0  0  0  0  0  0  0  0
   -2.4245   -2.2537    1.0882 C   0  0  0  0  0  0  0  0  0  0  0  0
   -1.5805   -2.7478    1.8242 O   0  0  0  0  0  0  0  0  0  0  0  0
   -2.2045   -1.1637    0.3562 N   0  0  0  0  0  0  0  0  0  0  0  0
   -2.9595   -0.7907   -0.2008 H   0  0  0  0  0  0  0  0  0  0  0  0
   -0.9485   -0.4087    0.3482 C   0  0  1  0  0  0  0  0  0  0  0  0
   -0.3666   -0.6914    1.2269 H   0  0  0  0  0  0  0  0  0  0  0  0
   -0.1405   -0.7797   -0.9072 C   0  0  0  0  0  0  0  0  0  0  0  0
    0.8974   -0.9571   -0.6219 H   0  0  0  0  0  0  0  0  0  0  0  0
   -0.5316   -1.7122   -1.3168 H   0  0  0  0  0  0  0  0  0  0  0  0
   -0.1558    0.2864   -1.9861 C   0  0  0  0  0  0  0  0  0  0  0  0
    0.7720    0.2439   -3.0440 C   0  0  0  0  0  0  0  0  0  0  0  0
    1.5173   -0.5381   -3.0812 H   0  0  0  0  0  0  0  0  0  0  0  0
    0.7252    1.2128   -4.0633 C   0  0  0  0  0  0  0  0  0  0  0  0
    1.4402    1.1799   -4.8733 H   0  0  0  0  0  0  0  0  0  0  0  0
   -0.2499    2.2241   -4.0277 C   0  0  0  0  0  0  0  0  0  0  0  0
   -0.2843    2.9699   -4.8096 H   0  0  0  0  0  0  0  0  0  0  0  0
   -1.1776    2.2703   -2.9712 C   0  0  0  0  0  0  0  0  0  0  0  0
   -1.9237    3.0508   -2.9409 H   0  0  0  0  0  0  0  0  0  0  0  0
   -1.1284    1.3038   -1.9510 C   0  0  0  0  0  0  0  0  0  0  0  0
   -1.8406    1.3425   -1.1370 H   0  0  0  0  0  0  0  0  0  0  0  0
   -1.2168    1.1047    0.4313 C   0  0  0  0  0  0  0  0  0  0  0  0
   -2.0890    1.6186   -0.2704 O   0  0  0  0  0  0  0  0  0  0  0  0
   -0.4674    1.8182    1.2813 N   0  0  0  0  0  0  0  0  0  0  0  0
    0.2640    1.3348    1.7800 H   0  0  0  0  0  0  0  0  0  0  0  0
   -0.5889    3.2615    1.4722 C   0  0  0  0  0  0  0  0  0  0  0  0
   -1.6291    3.5206    1.6805 H   0  0  0  0  0  0  0  0  0  0  0  0
    0.0359    3.5855    2.3049 H   0  0  0  0  0  0  0  0  0  0  0  0
   -0.2760    3.7797    0.5637 H   0  0  0  0  0  0  0  0  0  0  0  0
  5  6  2  0  0  0  0
  5  7  1  0  0  0  0
  2  3  1  0  0  0  0
  2  4  1  0  0  0  0
  2  5  1  0  0  0  0
  1  2  1  0  0  0  0
 25 26  2  0  0  0  0
 25 27  1  0  0  0  0
 23 24  1  0  0  0  0
 21 22  1  0  0  0  0
 21 23  2  0  0  0  0
 19 20  1  0  0  0  0
 19 21  1  0  0  0  0
 17 18  1  0  0  0  0
 17 19  2  0  0  0  0
 15 16  1  0  0  0  0
 15 17  1  0  0  0  0
 14 15  2  0  0  0  0
 14 23  1  0  0  0  0
 11 12  1  0  0  0  0
 11 13  1  0  0  0  0
 11 14  1  0  0  0  0
  9 10  1  0  0  0  0
  9 11  1  0  0  0  0
  9 25  1  0  0  0  0
  7  8  1  0  0  0  0
  7  9  1  0  0  0  0
 29 30  1  0  0  0  0
 29 31  1  0  0  0  0
 29 32  1  0  0  0  0
 27 28  1  0  0  0  0
 27 29  1  0  0  0  0
M  END
$$$$
default_name
  -OEChem-02102213163D

 32 32  0     1  0  0  0  0  0999 V2000
   -3.8405   -3.7518    1.6252 H   0  0  0  0  0  0  0  0  0  0  0  0
   -3.7965   -2.8768    0.9782 C   0  0  0  0  0  0  0  0  0  0  0  0
   -4.5465   -2.1527    1.2902 H   0  0  0  0  0  0  0  0  0  0  0  0
   -3.9745   -3.1748   -0.0538 H   0  0  0  0  0  0  0  0  0  0  0  0
   -2.4245   -2.2537    1.0882 C   0  0  0  0  0  0  0  0  0  0  0  0
   -1.5805   -2.7478    1.8242 O   0  0  0  0  0  0  0  0  0  0  0  0
   -2.2045   -1.1637    0.3562 N   0  0  0  0  0  0  0  0  0  0  0  0
   -2.9595   -0.7907   -0.2008 H   0  0  0  0  0  0  0  0  0  0  0  0
   -0.9485   -0.4087    0.3482 C   0  0  1  0  0  0  0  0  0  0  0  0
   -0.3666   -0.6914    1.2269 H   0  0  0  0  0  0  0  0  0  0  0  0
   -0.1405   -0.7797   -0.9072 C   0  0  0  0  0  0  0  0  0  0  0  0
    0.8131   -1.2120   -0.6009 H   0  0  0  0  0  0  0  0  0  0  0  0
   -0.6833   -1.5451   -1.4639 H   0  0  0  0  0  0  0  0  0  0  0  0
    0.1482    0.3949   -1.8225 C   0  0  0  0  0  0  0  0  0  0  0  0
    0.8789    0.2099   -3.0115 C   0  0  0  0  0  0  0  0  0  0  0  0
    1.2590   -0.7689   -3.2682 H   0  0  0  0  0  0  0  0  0  0  0  0
    1.1073    1.2964   -3.8759 C   0  0  0  0  0  0  0  0  0  0  0  0
    1.6708    1.1526   -4.7871 H   0  0  0  0  0  0  0  0  0  0  0  0
    0.6043    2.5685   -3.5544 C   0  0  0  0  0  0  0  0  0  0  0  0
    0.7818    3.4036   -4.2174 H   0  0  0  0  0  0  0  0  0  0  0  0
   -0.1250    2.7571   -2.3663 C   0  0  0  0  0  0  0  0  0  0  0  0
   -0.5071    3.7360   -2.1164 H   0  0  0  0  0  0  0  0  0  0  0  0
   -0.3503    1.6718   -1.5010 C   0  0  0  0  0  0  0  0  0  0  0  0
   -0.9086    1.8190   -0.5856 H   0  0  0  0  0  0  0  0  0  0  0  0
   -1.2168    1.1047    0.4313 C   0  0  0  0  0  0  0  0  0  0  0  0
   -2.0890    1.6186   -0.2704 O   0  0  0  0  0  0  0  0  0  0  0  0
   -0.4674    1.8182    1.2813 N   0  0  0  0  0  0  0  0  0  0  0  0
    0.2640    1.3348    1.7800 H   0  0  0  0  0  0  0  0  0  0  0  0
   -0.5889    3.2615    1.4722 C   0  0  0  0  0  0  0  0  0  0  0  0
   -1.6291    3.5206    1.6805 H   0  0  0  0  0  0  0  0  0  0  0  0
    0.0359    3.5855    2.3049 H   0  0  0  0  0  0  0  0  0  0  0  0
   -0.2760    3.7797    0.5637 H   0  0  0  0  0  0  0  0  0  0  0  0
  5  6  2  0  0  0  0
  5  7  1  0  0  0  0
  2  3  1  0  0  0  0
  2  4  1  0  0  0  0
  2  5  1  0  0  0  0
  1  2  1  0  0  0  0
 25 26  2  0  0  0  0
 25 27  1  0  0  0  0
 23 24  1  0  0  0  0
 21 22  1  0  0  0  0
 21 23  2  0  0  0  0
 19 20  1  0  0  0  0
 19 21  1  0  0  0  0
 17 18  1  0  0  0  0
 17 19  2  0  0  0  0
 15 16  1  0  0  0  0
 15 17  1  0  0  0  0
 14 15  2  0  0  0  0
 14 23  1  0  0  0  0
 11 12  1  0  0  0  0
 11 13  1  0  0  0  0
 11 14  1  0  0  0  0
  9 10  1  0  0  0  0
  9 11  1  0  0  0  0
  9 25  1  0  0  0  0
  7  8  1  0  0  0  0
  7  9  1  0  0  0  0
 29 30  1  0  0  0  0
 29 31  1  0  0  0  0
 29 32  1  0  0  0  0
 27 28  1  0  0  0  0
 27 29  1  0  0  0  0
M  END
$$$$
default_name
  -OEChem-02102213163D

 32 32  0     1  0  0  0  0  0999 V2000
   -3.8405   -3.7518    1.6252 H   0  0  0  0  0  0  0  0  0  0  0  0
   -3.7965   -2.8768    0.9782 C   0  0  0  0  0  0  0  0  0  0  0  0
   -4.5465   -2.1527    1.2902 H   0  0  0  0  0  0  0  0  0  0  0  0
   -3.9745   -3.1748   -0.0538 H   0  0  0  0  0  0  0  0  0  0  0  0
   -2.4245   -2.2537    1.0882 C   0  0  0  0  0  0  0  0  0  0  0  0
   -1.5805   -2.7478    1.8242 O   0  0  0  0  0  0  0  0  0  0  0  0
   -2.2045   -1.1637    0.3562 N   0  0  0  0  0  0  0  0  0  0  0  0
   -2.9595   -0.7907   -0.2008 H   0  0  0  0  0  0  0  0  0  0  0  0
   -0.9485   -0.4087    0.3482 C   0  0  1  0  0  0  0  0  0  0  0  0
   -0.3666   -0.6914    1.2269 H   0  0  0  0  0  0  0  0  0  0  0  0
   -0.1405   -0.7797   -0.9072 C   0  0  0  0  0  0  0  0  0  0  0  0
    0.8131   -1.2120   -0.6009 H   0  0  0  0  0  0  0  0  0  0  0  0
   -0.6833   -1.5451   -1.4639 H   0  0  0  0  0  0  0  0  0  0  0  0
    0.1482    0.3949   -1.8225 C   0  0  0  0  0  0  0  0  0  0  0  0
    0.5914    0.1795   -3.1412 C   0  0  0  0  0  0  0  0  0  0  0  0
    0.7508   -0.8266   -3.5026 H   0  0  0  0  0  0  0  0  0  0  0  0
    0.8176    1.2729   -3.9973 C   0  0  0  0  0  0  0  0  0  0  0  0
    1.1604    1.1054   -5.0087 H   0  0  0  0  0  0  0  0  0  0  0  0
    0.5993    2.5828   -3.5376 C   0  0  0  0  0  0  0  0  0  0  0  0
    0.7753    3.4230   -4.1947 H   0  0  0  0  0  0  0  0  0  0  0  0
    0.1579    2.8016   -2.2200 C   0  0  0  0  0  0  0  0  0  0  0  0
   -0.0047    3.8087   -1.8647 H   0  0  0  0  0  0  0  0  0  0  0  0
   -0.0649    1.7088   -1.3635 C   0  0  0  0  0  0  0  0  0  0  0  0
   -0.4013    1.8787   -0.3490 H   0  0  0  0  0  0  0  0  0  0  0  0
   -1.2168    1.1047    0.4313 C   0  0  0  0  0  0  0  0  0  0  0  0
   -2.0890    1.6186   -0.2704 O   0  0  0  0  0  0  0  0  0  0  0  0
   -0.4674    1.8182    1.2813 N   0  0  0  0  0  0  0  0  0  0  0  0
    0.2640    1.3348    1.7800 H   0  0  0  0  0  0  0  0  0  0  0  0
   -0.5889    3.2615    1.4722 C   0  0  0  0  0  0  0  0  0  0  0  0
   -1.6291    3.5206    1.6805 H   0  0  0  0  0  0  0  0  0  0  0  0
    0.0359    3.5855    2.3049 H   0  0  0  0  0  0  0  0  0  0  0  0
   -0.2760    3.7797    0.5637 H   0  0  0  0  0  0  0  0  0  0  0  0
  5  6  2  0  0  0  0
  5  7  1  0  0  0  0
  2  3  1  0  0  0  0
  2  4  1  0  0  0  0
  2  5  1  0  0  0  0
  1  2  1  0  0  0  0
 25 26  2  0  0  0  0
 25 27  1  0  0  0  0
 23 24  1  0  0  0  0
 21 22  1  0  0  0  0
 21 23  2  0  0  0  0
 19 20  1  0  0  0  0
 19 21  1  0  0  0  0
 17 18  1  0  0  0  0
 17 19  2  0  0  0  0
 15 16  1  0  0  0  0
 15 17  1  0  0  0  0
 14 15  2  0  0  0  0
 14 23  1  0  0  0  0
 11 12  1  0  0  0  0
 11 13  1  0  0  0  0
 11 14  1  0  0  0  0
  9 10  1  0  0  0  0
  9 11  1  0  0  0  0
  9 25  1  0  0  0  0
  7  8  1  0  0  0  0
  7  9  1  0  0  0  0
 29 30  1  0  0  0  0
 29 31  1  0  0  0  0
 29 32  1  0  0  0  0
 27 28  1  0  0  0  0
 27 29  1  0  0  0  0
M  END
$$$$
default_name
  -OEChem-02102213163D

 32 32  0     1  0  0  0  0  0999 V2000
   -3.8405   -3.7518    1.6252 H   0  0  0  0  0  0  0  0  0  0  0  0
   -3.7965   -2.8768    0.9782 C   0  0  0  0  0  0  0  0  0  0  0  0
   -4.5465   -2.1527    1.2902 H   0  0  0  0  0  0  0  0  0  0  0  0
   -3.9745   -3.1748   -0.0538 H   0  0  0  0  0  0  0  0  0  0  0  0
   -2.4245   -2.2537    1.0882 C   0  0  0  0  0  0  0  0  0  0  0  0
   -1.5805   -2.7478    1.8242 O   0  0  0  0  0  0  0  0  0  0  0  0
   -2.2045   -1.1637    0.3562 N   0  0  0  0  0  0  0  0  0  0  0  0
   -2.9595   -0.7907   -0.2008 H   0  0  0  0  0  0  0  0  0  0  0  0
   -0.9485   -0.4087    0.3482 C   0  0  1  0  0  0  0  0  0  0  0  0
   -0.3666   -0.6914    1.2269 H   0  0  0  0  0  0  0  0  0  0  0  0
   -0.1405   -0.7797   -0.9072 C   0  0  0  0  0  0  0  0  0  0  0  0
    0.8131   -1.2120   -0.6009 H   0  0  0  0  0  0  0  0  0  0  0  0
   -0.6833   -1.5451   -1.4639 H   0  0  0  0  0  0  0  0  0  0  0  0
    0.1482    0.3949   -1.8225 C   0  0  0  0  0  0  0  0  0  0  0  0
    0.2830    0.2014   -3.2104 C   0  0  0  0  0  0  0  0  0  0  0  0
    0.2039   -0.7915   -3.6301 H   0  0  0  0  0  0  0  0  0  0  0  0
    0.5097    1.3016   -4.0577 C   0  0  0  0  0  0  0  0  0  0  0  0
    0.6155    1.1504   -5.1228 H   0  0  0  0  0  0  0  0  0  0  0  0
    0.6001    2.5965   -3.5197 C   0  0  0  0  0  0  0  0  0  0  0  0
    0.7767    3.4415   -4.1705 H   0  0  0  0  0  0  0  0  0  0  0  0
    0.4674    2.7933   -2.1331 C   0  0  0  0  0  0  0  0  0  0  0  0
    0.5423    3.7880   -1.7187 H   0  0  0  0  0  0  0  0  0  0  0  0
    0.2441    1.6932   -1.2861 C   0  0  0  0  0  0  0  0  0  0  0  0
    0.1455    1.8455   -0.2192 H   0  0  0  0  0  0  0  0  0  0  0  0
   -1.2168    1.1047    0.4313 C   0  0  0  0  0  0  0  0  0  0  0  0
   -2.0890    1.6186   -0.2704 O   0  0  0  0  0  0  0  0  0  0  0  0
   -0.4674    1.8182    1.2813 N   0  0  0  0  0  0  0  0  0  0  0  0
    0.2640    1.3348    1.7800 H   0  0  0  0  0  0  0  0  0  0  0  0
   -0.5889    3.2615    1.4722 C   0  0  0  0  0  0  0  0  0  0  0  0
   -1.6291    3.5206    1.6805 H   0  0  0  0  0  0  0  0  0  0  0  0
    0.0359    3.5855    2.3049 H   0  0  0  0  0  0  0  0  0  0  0  0
   -0.2760    3.7797    0.5637 H   0  0  0  0  0  0  0  0  0  0  0  0
  5  6  2  0  0  0  0
  5  7  1  0  0  0  0
  2  3  1  0  0  0  0
  2  4  1  0  0  0  0
  2  5  1  0  0  0  0
  1  2  1  0  0  0  0
 25 26  2  0  0  0  0
 25 27  1  0  0  0  0
 23 24  1  0  0  0  0
 21 22  1  0  0  0  0
 21 23  2  0  0  0  0
 19 20  1  0  0  0  0
 19 21  1  0  0  0  0
 17 18  1  0  0  0  0
 17 19  2  0  0  0  0
 15 16  1  0  0  0  0
 15 17  1  0  0  0  0
 14 15  2  0  0  0  0
 14 23  1  0  0  0  0
 11 12  1  0  0  0  0
 11 13  1  0  0  0  0
 11 14  1  0  0  0  0
  9 10  1  0  0  0  0
  9 11  1  0  0  0  0
  9 25  1  0  0  0  0
  7  8  1  0  0  0  0
  7  9  1  0  0  0  0
 29 30  1  0  0  0  0
 29 31  1  0  0  0  0
 29 32  1  0  0  0  0
 27 28  1  0  0  0  0
 27 29  1  0  0  0  0
M  END
$$$$
default_name
  -OEChem-02102213163D

 32 32  0     1  0  0  0  0  0999 V2000
   -3.8405   -3.7518    1.6252 H   0  0  0  0  0  0  0  0  0  0  0  0
   -3.7965   -2.8768    0.9782 C   0  0  0  0  0  0  0  0  0  0  0  0
   -4.5465   -2.1527    1.2902 H   0  0  0  0  0  0  0  0  0  0  0  0
   -3.9745   -3.1748   -0.0538 H   0  0  0  0  0  0  0  0  0  0  0  0
   -2.4245   -2.2537    1.0882 C   0  0  0  0  0  0  0  0  0  0  0  0
   -1.5805   -2.7478    1.8242 O   0  0  0  0  0  0  0  0  0  0  0  0
   -2.2045   -1.1637    0.3562 N   0  0  0  0  0  0  0  0  0  0  0  0
   -2.9595   -0.7907   -0.2008 H   0  0  0  0  0  0  0  0  0  0  0  0
   -0.9485   -0.4087    0.3482 C   0  0  1  0  0  0  0  0  0  0  0  0
   -0.3666   -0.6914    1.2269 H   0  0  0  0  0  0  0  0  0  0  0  0
   -0.1405   -0.7797   -0.9072 C   0  0  0  0  0  0  0  0  0  0  0  0
    0.8131   -1.2120   -0.6009 H   0  0  0  0  0  0  0  0  0  0  0  0
   -0.6833   -1.5451   -1.4639 H   0  0  0  0  0  0  0  0  0  0  0  0
    0.1482    0.3949   -1.8225 C   0  0  0  0  0  0  0  0  0  0  0  0
   -0.0254    0.2741   -3.2143 C   0  0  0  0  0  0  0  0  0  0  0  0
   -0.3444   -0.6660   -3.6419 H   0  0  0  0  0  0  0  0  0  0  0  0
    0.2048    1.3802   -4.0529 C   0  0  0  0  0  0  0  0  0  0  0  0
    0.0734    1.2846   -5.1216 H   0  0  0  0  0  0  0  0  0  0  0  0
    0.6067    2.6088   -3.5018 C   0  0  0  0  0  0  0  0  0  0  0  0
    0.7858    3.4580   -4.1464 H   0  0  0  0  0  0  0  0  0  0  0  0
    0.7825    2.7325   -2.1116 C   0  0  0  0  0  0  0  0  0  0  0  0
    1.0967    3.6753   -1.6884 H   0  0  0  0  0  0  0  0  0  0  0  0
    0.5556    1.6260   -1.2741 C   0  0  0  0  0  0  0  0  0  0  0  0
    0.6945    1.7216   -0.2050 H   0  0  0  0  0  0  0  0  0  0  0  0
   -1.2168    1.1047    0.4313 C   0  0  0  0  0  0  0  0  0  0  0  0
   -2.0890    1.6186   -0.2704 O   0  0  0  0  0  0  0  0  0  0  0  0
   -0.4674    1.8182    1.2813 N   0  0  0  0  0  0  0  0  0  0  0  0
    0.2640    1.3348    1.7800 H   0  0  0  0  0  0  0  0  0  0  0  0
   -0.5889    3.2615    1.4722 C   0  0  0  0  0  0  0  0  0  0  0  0
   -1.6291    3.5206    1.6805 H   0  0  0  0  0  0  0  0  0  0  0  0
    0.0359    3.5855    2.3049 H   0  0  0  0  0  0  0  0  0  0  0  0
   -0.2760    3.7797    0.5637 H   0  0  0  0  0  0  0  0  0  0  0  0
  5  6  2  0  0  0  0
  5  7  1  0  0  0  0
  2  3  1  0  0  0  0
  2  4  1  0  0  0  0
  2  5  1  0  0  0  0
  1  2  1  0  0  0  0
 25 26  2  0  0  0  0
 25 27  1  0  0  0  0
 23 24  1  0  0  0  0
 21 22  1  0  0  0  0
 21 23  2  0  0  0  0
 19 20  1  0  0  0  0
 19 21  1  0  0  0  0
 17 18  1  0  0  0  0
 17 19  2  0  0  0  0
 15 16  1  0  0  0  0
 15 17  1  0  0  0  0
 14 15  2  0  0  0  0
 14 23  1  0  0  0  0
 11 12  1  0  0  0  0
 11 13  1  0  0  0  0
 11 14  1  0  0  0  0
  9 10  1  0  0  0  0
  9 11  1  0  0  0  0
  9 25  1  0  0  0  0
  7  8  1  0  0  0  0
  7  9  1  0  0  0  0
 29 30  1  0  0  0  0
 29 31  1  0  0  0  0
 29 32  1  0  0  0  0
 27 28  1  0  0  0  0
 27 29  1  0  0  0  0
M  END
$$$$
default_name
  -OEChem-02102213163D

 32 32  0     1  0  0  0  0  0999 V2000
   -3.8405   -3.7518    1.6252 H   0  0  0  0  0  0  0  0  0  0  0  0
   -3.7965   -2.8768    0.9782 C   0  0  0  0  0  0  0  0  0  0  0  0
   -4.5465   -2.1527    1.2902 H   0  0  0  0  0  0  0  0  0  0  0  0
   -3.9745   -3.1748   -0.0538 H   0  0  0  0  0  0  0  0  0  0  0  0
   -2.4245   -2.2537    1.0882 C   0  0  0  0  0  0  0  0  0  0  0  0
   -1.5805   -2.7478    1.8242 O   0  0  0  0  0  0  0  0  0  0  0  0
   -2.2045   -1.1637    0.3562 N   0  0  0  0  0  0  0  0  0  0  0  0
   -2.9595   -0.7907   -0.2008 H   0  0  0  0  0  0  0  0  0  0  0  0
   -0.9485   -0.4087    0.3482 C   0  0  1  0  0  0  0  0  0  0  0  0
   -0.3666   -0.6914    1.2269 H   0  0  0  0  0  0  0  0  0  0  0  0
   -0.1405   -0.7797   -0.9072 C   0  0  0  0  0  0  0  0  0  0  0  0
    0.8131   -1.2120   -0.6009 H   0  0  0  0  0  0  0  0  0  0  0  0
   -0.6833   -1.5451   -1.4639 H   0  0  0  0  0  0  0  0  0  0  0  0
    0.1482    0.3949   -1.8225 C   0  0  0  0  0  0  0  0  0  0  0  0
   -0.3126    0.3927   -3.1527 C   0  0  0  0  0  0  0  0  0  0  0  0
   -0.8568   -0.4584   -3.5372 H   0  0  0  0  0  0  0  0  0  0  0  0
   -0.0766    1.5037   -3.9833 C   0  0  0  0  0  0  0  0  0  0  0  0
   -0.4290    1.4988   -5.0052 H   0  0  0  0  0  0  0  0  0  0  0  0
    0.6185    2.6188   -3.4853 C   0  0  0  0  0  0  0  0  0  0  0  0
    0.8019    3.4713   -4.1242 H   0  0  0  0  0  0  0  0  0  0  0  0
    1.0817    2.6236   -2.1570 C   0  0  0  0  0  0  0  0  0  0  0  0
    1.6207    3.4785   -1.7757 H   0  0  0  0  0  0  0  0  0  0  0  0
    0.8485    1.5119   -1.3281 C   0  0  0  0  0  0  0  0  0  0  0  0
    1.2082    1.5155   -0.3074 H   0  0  0  0  0  0  0  0  0  0  0  0
   -1.2168    1.1047    0.4313 C   0  0  0  0  0  0  0  0  0  0  0  0
   -2.0890    1.6186   -0.2704 O   0  0  0  0  0  0  0  0  0  0  0  0
   -0.4674    1.8182    1.2813 N   0  0  0  0  0  0  0  0  0  0  0  0
    0.2640    1.3348    1.7800 H   0  0  0  0  0  0  0  0  0  0  0  0
   -0.5889    3.2615    1.4722 C   0  0  0  0  0  0  0  0  0  0  0  0
   -1.6291    3.5206    1.6805 H   0  0  0  0  0  0  0  0  0  0  0  0
    0.0359    3.5855    2.3049 H   0  0  0  0  0  0  0  0  0  0  0  0
   -0.2760    3.7797    0.5637 H   0  0  0  0  0  0  0  0  0  0  0  0
  5  6  2  0  0  0  0
  5  7  1  0  0  0  0
  2  3  1  0  0  0  0
  2  4  1  0  0  0  0
  2  5  1  0  0  0  0
  1  2  1  0  0  0  0
 25 26  2  0  0  0  0
 25 27  1  0  0  0  0
 23 24  1  0  0  0  0
 21 22  1  0  0  0  0
 21 23  2  0  0  0  0
 19 20  1  0  0  0  0
 19 21  1  0  0  0  0
 17 18  1  0  0  0  0
 17 19  2  0  0  0  0
 15 16  1  0  0  0  0
 15 17  1  0  0  0  0
 14 15  2  0  0  0  0
 14 23  1  0  0  0  0
 11 12  1  0  0  0  0
 11 13  1  0  0  0  0
 11 14  1  0  0  0  0
  9 10  1  0  0  0  0
  9 11  1  0  0  0  0
  9 25  1  0  0  0  0
  7  8  1  0  0  0  0
  7  9  1  0  0  0  0
 29 30  1  0  0  0  0
 29 31  1  0  0  0  0
 29 32  1  0  0  0  0
 27 28  1  0  0  0  0
 27 29  1  0  0  0  0
M  END
$$$$
default_name
  -OEChem-02102213163D

 32 32  0     1  0  0  0  0  0999 V2000
   -3.8405   -3.7518    1.6252 H   0  0  0  0  0  0  0  0  0  0  0  0
   -3.7965   -2.8768    0.9782 C   0  0  0  0  0  0  0  0  0  0  0  0
   -4.5465   -2.1527    1.2902 H   0  0  0  0  0  0  0  0  0  0  0  0
   -3.9745   -3.1748   -0.0538 H   0  0  0  0  0  0  0  0  0  0  0  0
   -2.4245   -2.2537    1.0882 C   0  0  0  0  0  0  0  0  0  0  0  0
   -1.5805   -2.7478    1.8242 O   0  0  0  0  0  0  0  0  0  0  0  0
   -2.2045   -1.1637    0.3562 N   0  0  0  0  0  0  0  0  0  0  0  0
   -2.9595   -0.7907   -0.2008 H   0  0  0  0  0  0  0  0  0  0  0  0
   -0.9485   -0.4087    0.3482 C   0  0  1  0  0  0  0  0  0  0  0  0
   -0.3666   -0.6914    1.2269 H   0  0  0  0  0  0  0  0  0  0  0  0
   -0.1405   -0.7797   -0.9072 C   0  0  0  0  0  0  0  0  0  0  0  0
    0.8131   -1.2120   -0.6009 H   0  0  0  0  0  0  0  0  0  0  0  0
   -0.6833   -1.5451   -1.4639 H   0  0  0  0  0  0  0  0  0  0  0  0
    0.1482    0.3949   -1.8225 C   0  0  0  0  0  0  0  0  0  0  0  0
   -0.5593    0.5491   -3.0298 C   0  0  0  0  0  0  0  0  0  0  0  0
   -1.2983   -0.1831   -3.3231 H   0  0  0  0  0  0  0  0  0  0  0  0
   -0.3151    1.6634   -3.8536 C   0  0  0  0  0  0  0  0  0  0  0  0
   -0.8576    1.7785   -4.7815 H   0  0  0  0  0  0  0  0  0  0  0  0
    0.6348    2.6258   -3.4712 C   0  0  0  0  0  0  0  0  0  0  0  0
    0.8240    3.4806   -4.1054 H   0  0  0  0  0  0  0  0  0  0  0  0
    1.3445    2.4739   -2.2662 C   0  0  0  0  0  0  0  0  0  0  0  0
    2.0786    3.2108   -1.9748 H   0  0  0  0  0  0  0  0  0  0  0  0
    1.1027    1.3586   -1.4447 C   0  0  0  0  0  0  0  0  0  0  0  0
    1.6518    1.2412   -0.5195 H   0  0  0  0  0  0  0  0  0  0  0  0
   -1.2168    1.1047    0.4313 C   0  0  0  0  0  0  0  0  0  0  0  0
   -2.0890    1.6186   -0.2704 O   0  0  0  0  0  0  0  0  0  0  0  0
   -0.4674    1.8182    1.2813 N   0  0  0  0  0  0  0  0  0  0  0  0
    0.2640    1.3348    1.7800 H   0  0  0  0  0  0  0  0  0  0  0  0
   -0.5889    3.2615    1.4722 C   0  0  0  0  0  0  0  0  0  0  0  0
   -1.6291    3.5206    1.6805 H   0  0  0  0  0  0  0  0  0  0  0  0
    0.0359    3.5855    2.3049 H   0  0  0  0  0  0  0  0  0  0  0  0
   -0.2760    3.7797    0.5637 H   0  0  0  0  0  0  0  0  0  0  0  0
  5  6  2  0  0  0  0
  5  7  1  0  0  0  0
  2  3  1  0  0  0  0
  2  4  1  0  0  0  0
  2  5  1  0  0  0  0
  1  2  1  0  0  0  0
 25 26  2  0  0  0  0
 25 27  1  0  0  0  0
 23 24  1  0  0  0  0
 21 22  1  0  0  0  0
 21 23  2  0  0  0  0
 19 20  1  0  0  0  0
 19 21  1  0  0  0  0
 17 18  1  0  0  0  0
 17 19  2  0  0  0  0
 15 16  1  0  0  0  0
 15 17  1  0  0  0  0
 14 15  2  0  0  0  0
 14 23  1  0  0  0  0
 11 12  1  0  0  0  0
 11 13  1  0  0  0  0
 11 14  1  0  0  0  0
  9 10  1  0  0  0  0
  9 11  1  0  0  0  0
  9 25  1  0  0  0  0
  7  8  1  0  0  0  0
  7  9  1  0  0  0  0
 29 30  1  0  0  0  0
 29 31  1  0  0  0  0
 29 32  1  0  0  0  0
 27 28  1  0  0  0  0
 27 29  1  0  0  0  0
M  END
$$$$
default_name
  -OEChem-02102213163D

 32 32  0     1  0  0  0  0  0999 V2000
   -3.8405   -3.7518    1.6252 H   0  0  0  0  0  0  0  0  0  0  0  0
   -3.7965   -2.8768    0.9782 C   0  0  0  0  0  0  0  0  0  0  0  0
   -4.5465   -2.1527    1.2902 H   0  0  0  0  0  0  0  0  0  0  0  0
   -3.9745   -3.1748   -0.0538 H   0  0  0  0  0  0  0  0  0  0  0  0
   -2.4245   -2.2537    1.0882 C   0  0  0  0  0  0  0  0  0  0  0  0
   -1.5805   -2.7478    1.8242 O   0  0  0  0  0  0  0  0  0  0  0  0
   -2.2045   -1.1637    0.3562 N   0  0  0  0  0  0  0  0  0  0  0  0
   -2.9595   -0.7907   -0.2008 H   0  0  0  0  0  0  0  0  0  0  0  0
   -0.9485   -0.4087    0.3482 C   0  0  1  0  0  0  0  0  0  0  0  0
   -0.3666   -0.6914    1.2269 H   0  0  0  0  0  0  0  0  0  0  0  0
   -0.1405   -0.7797   -0.9072 C   0  0  0  0  0  0  0  0  0  0  0  0
    0.8131   -1.2120   -0.6009 H   0  0  0  0  0  0  0  0  0  0  0  0
   -0.6833   -1.5451   -1.4639 H   0  0  0  0  0  0  0  0  0  0  0  0
    0.1482    0.3949   -1.8225 C   0  0  0  0  0  0  0  0  0  0  0  0
   -0.7484    0.7326   -2.8539 C   0  0  0  0  0  0  0  0  0  0  0  0
   -1.6388    0.1412   -3.0143 H   0  0  0  0  0  0  0  0  0  0  0  0
   -0.4945    1.8485   -3.6726 C   0  0  0  0  0  0  0  0  0  0  0  0
   -1.1830    2.1045   -4.4657 H   0  0  0  0  0  0  0  0  0  0  0  0
    0.6544    2.6293   -3.4606 C   0  0  0  0  0  0  0  0  0  0  0  0
    0.8506    3.4852   -4.0911 H   0  0  0  0  0  0  0  0  0  0  0  0
    1.5532    2.2937   -2.4317 C   0  0  0  0  0  0  0  0  0  0  0  0
    2.4392    2.8905   -2.2721 H   0  0  0  0  0  0  0  0  0  0  0  0
    1.3009    1.1765   -1.6158 C   0  0  0  0  0  0  0  0  0  0  0  0
    1.9949    0.9175   -0.8268 H   0  0  0  0  0  0  0  0  0  0  0  0
   -1.2168    1.1047    0.4313 C   0  0  0  0  0  0  0  0  0  0  0  0
   -2.0890    1.6186   -0.2704 O   0  0  0  0  0  0  0  0  0  0  0  0
   -0.4674    1.8182    1.2813 N   0  0  0  0  0  0  0  0  0  0  0  0
    0.2640    1.3348    1.7800 H   0  0  0  0  0  0  0  0  0  0  0  0
   -0.5889    3.2615    1.4722 C   0  0  0  0  0  0  0  0  0  0  0  0
   -1.6291    3.5206    1.6805 H   0  0  0  0  0  0  0  0  0  0  0  0
    0.0359    3.5855    2.3049 H   0  0  0  0  0  0  0  0  0  0  0  0
   -0.2760    3.7797    0.5637 H   0  0  0  0  0  0  0  0  0  0  0  0
  5  6  2  0  0  0  0
  5  7  1  0  0  0  0
  2  3  1  0  0  0  0
  2  4  1  0  0  0  0
  2  5  1  0  0  0  0
  1  2  1  0  0  0  0
 25 26  2  0  0  0  0
 25 27  1  0  0  0  0
 23 24  1  0  0  0  0
 21 22  1  0  0  0  0
 21 23  2  0  0  0  0
 19 20  1  0  0  0  0
 19 21  1  0  0  0  0
 17 18  1  0  0  0  0
 17 19  2  0  0  0  0
 15 16  1  0  0  0  0
 15 17  1  0  0  0  0
 14 15  2  0  0  0  0
 14 23  1  0  0  0  0
 11 12  1  0  0  0  0
 11 13  1  0  0  0  0
 11 14  1  0  0  0  0
  9 10  1  0  0  0  0
  9 11  1  0  0  0  0
  9 25  1  0  0  0  0
  7  8  1  0  0  0  0
  7  9  1  0  0  0  0
 29 30  1  0  0  0  0
 29 31  1  0  0  0  0
 29 32  1  0  0  0  0
 27 28  1  0  0  0  0
 27 29  1  0  0  0  0
M  END
$$$$
default_name
  -OEChem-02102213163D

 32 32  0     1  0  0  0  0  0999 V2000
   -3.8405   -3.7518    1.6252 H   0  0  0  0  0  0  0  0  0  0  0  0
   -3.7965   -2.8768    0.9782 C   0  0  0  0  0  0  0  0  0  0  0  0
   -4.5465   -2.1527    1.2902 H   0  0  0  0  0  0  0  0  0  0  0  0
   -3.9745   -3.1748   -0.0538 H   0  0  0  0  0  0  0  0  0  0  0  0
   -2.4245   -2.2537    1.0882 C   0  0  0  0  0  0  0  0  0  0  0  0
   -1.5805   -2.7478    1.8242 O   0  0  0  0  0  0  0  0  0  0  0  0
   -2.2045   -1.1637    0.3562 N   0  0  0  0  0  0  0  0  0  0  0  0
   -2.9595   -0.7907   -0.2008 H   0  0  0  0  0  0  0  0  0  0  0  0
   -0.9485   -0.4087    0.3482 C   0  0  1  0  0  0  0  0  0  0  0  0
   -0.3666   -0.6914    1.2269 H   0  0  0  0  0  0  0  0  0  0  0  0
   -0.1405   -0.7797   -0.9072 C   0  0  0  0  0  0  0  0  0  0  0  0
    0.8131   -1.2120   -0.6009 H   0  0  0  0  0  0  0  0  0  0  0  0
   -0.6833   -1.5451   -1.4639 H   0  0  0  0  0  0  0  0  0  0  0  0
    0.1482    0.3949   -1.8225 C   0  0  0  0  0  0  0  0  0  0  0  0
   -0.8672    0.9308   -2.6371 C   0  0  0  0  0  0  0  0  0  0  0  0
   -1.8553    0.4925   -2.6318 H   0  0  0  0  0  0  0  0  0  0  0  0
   -0.6027    2.0464   -3.4527 C   0  0  0  0  0  0  0  0  0  0  0  0
   -1.3831    2.4547   -4.0794 H   0  0  0  0  0  0  0  0  0  0  0  0
    0.6760    2.6290   -3.4540 C   0  0  0  0  0  0  0  0  0  0  0  0
    0.8799    3.4847   -4.0824 H   0  0  0  0  0  0  0  0  0  0  0  0
    1.6934    2.0951   -2.6423 C   0  0  0  0  0  0  0  0  0  0  0  0
    2.6779    2.5395   -2.6472 H   0  0  0  0  0  0  0  0  0  0  0  0
    1.4296    0.9782   -1.8297 C   0  0  0  0  0  0  0  0  0  0  0  0
    2.2141    0.5663   -1.2082 H   0  0  0  0  0  0  0  0  0  0  0  0
   -1.2168    1.1047    0.4313 C   0  0  0  0  0  0  0  0  0  0  0  0
   -2.0890    1.6186   -0.2704 O   0  0  0  0  0  0  0  0  0  0  0  0
   -0.4674    1.8182    1.2813 N   0  0  0  0  0  0  0  0  0  0  0  0
    0.2640    1.3348    1.7800 H   0  0  0  0  0  0  0  0  0  0  0  0
   -0.5889    3.2615    1.4722 C   0  0  0  0  0  0  0  0  0  0  0  0
   -1.6291    3.5206    1.6805 H   0  0  0  0  0  0  0  0  0  0  0  0
    0.0359    3.5855    2.3049 H   0  0  0  0  0  0  0  0  0  0  0  0
   -0.2760    3.7797    0.5637 H   0  0  0  0  0  0  0  0  0  0  0  0
  5  6  2  0  0  0  0
  5  7  1  0  0  0  0
  2  3  1  0  0  0  0
  2  4  1  0  0  0  0
  2  5  1  0  0  0  0
  1  2  1  0  0  0  0
 25 26  2  0  0  0  0
 25 27  1  0  0  0  0
 23 24  1  0  0  0  0
 21 22  1  0  0  0  0
 21 23  2  0  0  0  0
 19 20  1  0  0  0  0
 19 21  1  0  0  0  0
 17 18  1  0  0  0  0
 17 19  2  0  0  0  0
 15 16  1  0  0  0  0
 15 17  1  0  0  0  0
 14 15  2  0  0  0  0
 14 23  1  0  0  0  0
 11 12  1  0  0  0  0
 11 13  1  0  0  0  0
 11 14  1  0  0  0  0
  9 10  1  0  0  0  0
  9 11  1  0  0  0  0
  9 25  1  0  0  0  0
  7  8  1  0  0  0  0
  7  9  1  0  0  0  0
 29 30  1  0  0  0  0
 29 31  1  0  0  0  0
 29 32  1  0  0  0  0
 27 28  1  0  0  0  0
 27 29  1  0  0  0  0
M  END
$$$$
default_name
  -OEChem-02102213163D

 32 32  0     1  0  0  0  0  0999 V2000
   -3.8405   -3.7518    1.6252 H   0  0  0  0  0  0  0  0  0  0  0  0
   -3.7965   -2.8768    0.9782 C   0  0  0  0  0  0  0  0  0  0  0  0
   -4.5465   -2.1527    1.2902 H   0  0  0  0  0  0  0  0  0  0  0  0
   -3.9745   -3.1748   -0.0538 H   0  0  0  0  0  0  0  0  0  0  0  0
   -2.4245   -2.2537    1.0882 C   0  0  0  0  0  0  0  0  0  0  0  0
   -1.5805   -2.7478    1.8242 O   0  0  0  0  0  0  0  0  0  0  0  0
   -2.2045   -1.1637    0.3562 N   0  0  0  0  0  0  0  0  0  0  0  0
   -2.9595   -0.7907   -0.2008 H   0  0  0  0  0  0  0  0  0  0  0  0
   -0.9485   -0.4087    0.3482 C   0  0  1  0  0  0  0  0  0  0  0  0
   -0.3666   -0.6914    1.2269 H   0  0  0  0  0  0  0  0  0  0  0  0
   -0.1405   -0.7797   -0.9072 C   0  0  0  0  0  0  0  0  0  0  0  0
    0.8131   -1.2120   -0.6009 H   0  0  0  0  0  0  0  0  0  0  0  0
   -0.6833   -1.5451   -1.4639 H   0  0  0  0  0  0  0  0  0  0  0  0
    0.1482    0.3949   -1.8225 C   0  0  0  0  0  0  0  0  0  0  0  0
   -0.9076    1.1301   -2.3941 C   0  0  0  0  0  0  0  0  0  0  0  0
   -1.9328    0.8468   -2.2016 H   0  0  0  0  0  0  0  0  0  0  0  0
   -0.6322    2.2437   -3.2089 C   0  0  0  0  0  0  0  0  0  0  0  0
   -1.4443    2.8052   -3.6489 H   0  0  0  0  0  0  0  0  0  0  0  0
    0.6982    2.6251   -3.4520 C   0  0  0  0  0  0  0  0  0  0  0  0
    0.9098    3.4793   -4.0800 H   0  0  0  0  0  0  0  0  0  0  0  0
    1.7556    1.8918   -2.8836 C   0  0  0  0  0  0  0  0  0  0  0  0
    2.7784    2.1816   -3.0748 H   0  0  0  0  0  0  0  0  0  0  0  0
    1.4801    0.7770   -2.0720 C   0  0  0  0  0  0  0  0  0  0  0  0
    2.2946    0.2116   -1.6380 H   0  0  0  0  0  0  0  0  0  0  0  0
   -1.2168    1.1047    0.4313 C   0  0  0  0  0  0  0  0  0  0  0  0
   -2.0890    1.6186   -0.2704 O   0  0  0  0  0  0  0  0  0  0  0  0
   -0.4674    1.8182    1.2813 N   0  0  0  0  0  0  0  0  0  0  0  0
    0.2640    1.3348    1.7800 H   0  0  0  0  0  0  0  0  0  0  0  0
   -0.5889    3.2615    1.4722 C   0  0  0  0  0  0  0  0  0  0  0  0
   -1.6291    3.5206    1.6805 H   0  0  0  0  0  0  0  0  0  0  0  0
    0.0359    3.5855    2.3049 H   0  0  0  0  0  0  0  0  0  0  0  0
   -0.2760    3.7797    0.5637 H   0  0  0  0  0  0  0  0  0  0  0  0
  5  6  2  0  0  0  0
  5  7  1  0  0  0  0
  2  3  1  0  0  0  0
  2  4  1  0  0  0  0
  2  5  1  0  0  0  0
  1  2  1  0  0  0  0
 25 26  2  0  0  0  0
 25 27  1  0  0  0  0
 23 24  1  0  0  0  0
 21 22  1  0  0  0  0
 21 23  2  0  0  0  0
 19 20  1  0  0  0  0
 19 21  1  0  0  0  0
 17 18  1  0  0  0  0
 17 19  2  0  0  0  0
 15 16  1  0  0  0  0
 15 17  1  0  0  0  0
 14 15  2  0  0  0  0
 14 23  1  0  0  0  0
 11 12  1  0  0  0  0
 11 13  1  0  0  0  0
 11 14  1  0  0  0  0
  9 10  1  0  0  0  0
  9 11  1  0  0  0  0
  9 25  1  0  0  0  0
  7  8  1  0  0  0  0
  7  9  1  0  0  0  0
 29 30  1  0  0  0  0
 29 31  1  0  0  0  0
 29 32  1  0  0  0  0
 27 28  1  0  0  0  0
 27 29  1  0  0  0  0
M  END
$$$$
default_name
  -OEChem-02102213163D

 32 32  0     1  0  0  0  0  0999 V2000
   -3.8405   -3.7518    1.6252 H   0  0  0  0  0  0  0  0  0  0  0  0
   -3.7965   -2.8768    0.9782 C   0  0  0  0  0  0  0  0  0  0  0  0
   -4.5465   -2.1527    1.2902 H   0  0  0  0  0  0  0  0  0  0  0  0
   -3.9745   -3.1748   -0.0538 H   0  0  0  0  0  0  0  0  0  0  0  0
   -2.4245   -2.2537    1.0882 C   0  0  0  0  0  0  0  0  0  0  0  0
   -1.5805   -2.7478    1.8242 O   0  0  0  0  0  0  0  0  0  0  0  0
   -2.2045   -1.1637    0.3562 N   0  0  0  0  0  0  0  0  0  0  0  0
   -2.9595   -0.7907   -0.2008 H   0  0  0  0  0  0  0  0  0  0  0  0
   -0.9485   -0.4087    0.3482 C   0  0  1  0  0  0  0  0  0  0  0  0
   -0.3666   -0.6914    1.2269 H   0  0  0  0  0  0  0  0  0  0  0  0
   -0.1405   -0.7797   -0.9072 C   0  0  0  0  0  0  0  0  0  0  0  0
    0.8131   -1.2120   -0.6009 H   0  0  0  0  0  0  0  0  0  0  0  0
   -0.6833   -1.5451   -1.4639 H   0  0  0  0  0  0  0  0  0  0  0  0
    0.1482    0.3949   -1.8225 C   0  0  0  0  0  0  0  0  0  0  0  0
   -0.8667    1.3169   -2.1415 C   0  0  0  0  0  0  0  0  0  0  0  0
   -1.8661    1.1799   -1.7531 H   0  0  0  0  0  0  0  0  0  0  0  0
   -0.5810    2.4268   -2.9578 C   0  0  0  0  0  0  0  0  0  0  0  0
   -1.3624    3.1321   -3.2036 H   0  0  0  0  0  0  0  0  0  0  0  0
    0.7194    2.6178   -3.4547 C   0  0  0  0  0  0  0  0  0  0  0  0
    0.9384    3.4692   -4.0838 H   0  0  0  0  0  0  0  0  0  0  0  0
    1.7356    1.6976   -3.1391 C   0  0  0  0  0  0  0  0  0  0  0  0
    2.7340    1.8413   -3.5255 H   0  0  0  0  0  0  0  0  0  0  0  0
    1.4490    0.5867   -2.3260 C   0  0  0  0  0  0  0  0  0  0  0  0
    2.2308   -0.1223   -2.0867 H   0  0  0  0  0  0  0  0  0  0  0  0
   -1.2168    1.1047    0.4313 C   0  0  0  0  0  0  0  0  0  0  0  0
   -2.0890    1.6186   -0.2704 O   0  0  0  0  0  0  0  0  0  0  0  0
   -0.4674    1.8182    1.2813 N   0  0  0  0  0  0  0  0  0  0  0  0
    0.2640    1.3348    1.7800 H   0  0  0  0  0  0  0  0  0  0  0  0
   -0.5889    3.2615    1.4722 C   0  0  0  0  0  0  0  0  0  0  0  0
   -1.6291    3.5206    1.6805 H   0  0  0  0  0  0  0  0  0  0  0  0
    0.0359    3.5855    2.3049 H   0  0  0  0  0  0  0  0  0  0  0  0
   -0.2760    3.7797    0.5637 H   0  0  0  0  0  0  0  0  0  0  0  0
  5  6  2  0  0  0  0
  5  7  1  0  0  0  0
  2  3  1  0  0  0  0
  2  4  1  0  0  0  0
  2  5  1  0  0  0  0
  1  2  1  0  0  0  0
 25 26  2  0  0  0  0
 25 27  1  0  0  0  0
 23 24  1  0  0  0  0
 21 22  1  0  0  0  0
 21 23  2  0  0  0  0
 19 20  1  0  0  0  0
 19 21  1  0  0  0  0
 17 18  1  0  0  0  0
 17 19  2  0  0  0  0
 15 16  1  0  0  0  0
 15 17  1  0  0  0  0
 14 15  2  0  0  0  0
 14 23  1  0  0  0  0
 11 12  1  0  0  0  0
 11 13  1  0  0  0  0
 11 14  1  0  0  0  0
  9 10  1  0  0  0  0
  9 11  1  0  0  0  0
  9 25  1  0  0  0  0
  7  8  1  0  0  0  0
  7  9  1  0  0  0  0
 29 30  1  0  0  0  0
 29 31  1  0  0  0  0
 29 32  1  0  0  0  0
 27 28  1  0  0  0  0
 27 29  1  0  0  0  0
M  END
$$$$
default_name
  -OEChem-02102213163D

 32 32  0     1  0  0  0  0  0999 V2000
   -3.8405   -3.7518    1.6252 H   0  0  0  0  0  0  0  0  0  0  0  0
   -3.7965   -2.8768    0.9782 C   0  0  0  0  0  0  0  0  0  0  0  0
   -4.5465   -2.1527    1.2902 H   0  0  0  0  0  0  0  0  0  0  0  0
   -3.9745   -3.1748   -0.0538 H   0  0  0  0  0  0  0  0  0  0  0  0
   -2.4245   -2.2537    1.0882 C   0  0  0  0  0  0  0  0  0  0  0  0
   -1.5805   -2.7478    1.8242 O   0  0  0  0  0  0  0  0  0  0  0  0
   -2.2045   -1.1637    0.3562 N   0  0  0  0  0  0  0  0  0  0  0  0
   -2.9595   -0.7907   -0.2008 H   0  0  0  0  0  0  0  0  0  0  0  0
   -0.9485   -0.4087    0.3482 C   0  0  1  0  0  0  0  0  0  0  0  0
   -0.3666   -0.6914    1.2269 H   0  0  0  0  0  0  0  0  0  0  0  0
   -0.1405   -0.7797   -0.9072 C   0  0  0  0  0  0  0  0  0  0  0  0
    0.8131   -1.2120   -0.6009 H   0  0  0  0  0  0  0  0  0  0  0  0
   -0.6833   -1.5451   -1.4639 H   0  0  0  0  0  0  0  0  0  0  0  0
    0.1482    0.3949   -1.8225 C   0  0  0  0  0  0  0  0  0  0  0  0
   -0.7475    1.4785   -1.8964 C   0  0  0  0  0  0  0  0  0  0  0  0
   -1.6598    1.4691   -1.3169 H   0  0  0  0  0  0  0  0  0  0  0  0
   -0.4526    2.5833   -2.7164 C   0  0  0  0  0  0  0  0  0  0  0  0
   -1.1430    3.4131   -2.7737 H   0  0  0  0  0  0  0  0  0  0  0  0
    0.7383    2.6075   -3.4620 C   0  0  0  0  0  0  0  0  0  0  0  0
    0.9636    3.4553   -4.0938 H   0  0  0  0  0  0  0  0  0  0  0  0
    1.6347    1.5257   -3.3915 C   0  0  0  0  0  0  0  0  0  0  0  0
    2.5476    1.5418   -3.9688 H   0  0  0  0  0  0  0  0  0  0  0  0
    1.3382    0.4203   -2.5745 C   0  0  0  0  0  0  0  0  0  0  0  0
    2.0271   -0.4128   -2.5237 H   0  0  0  0  0  0  0  0  0  0  0  0
   -1.2168    1.1047    0.4313 C   0  0  0  0  0  0  0  0  0  0  0  0
   -2.0890    1.6186   -0.2704 O   0  0  0  0  0  0  0  0  0  0  0  0
   -0.4674    1.8182    1.2813 N   0  0  0  0  0  0  0  0  0  0  0  0
    0.2640    1.3348    1.7800 H   0  0  0  0  0  0  0  0  0  0  0  0
   -0.5889    3.2615    1.4722 C   0  0  0  0  0  0  0  0  0  0  0  0
   -1.6291    3.5206    1.6805 H   0  0  0  0  0  0  0  0  0  0  0  0
    0.0359    3.5855    2.3049 H   0  0  0  0  0  0  0  0  0  0  0  0
   -0.2760    3.7797    0.5637 H   0  0  0  0  0  0  0  0  0  0  0  0
  5  6  2  0  0  0  0
  5  7  1  0  0  0  0
  2  3  1  0  0  0  0
  2  4  1  0  0  0  0
  2  5  1  0  0  0  0
  1  2  1  0  0  0  0
 25 26  2  0  0  0  0
 25 27  1  0  0  0  0
 23 24  1  0  0  0  0
 21 22  1  0  0  0  0
 21 23  2  0  0  0  0
 19 20  1  0  0  0  0
 19 21  1  0  0  0  0
 17 18  1  0  0  0  0
 17 19  2  0  0  0  0
 15 16  1  0  0  0  0
 15 17  1  0  0  0  0
 14 15  2  0  0  0  0
 14 23  1  0  0  0  0
 11 12  1  0  0  0  0
 11 13  1  0  0  0  0
 11 14  1  0  0  0  0
  9 10  1  0  0  0  0
  9 11  1  0  0  0  0
  9 25  1  0  0  0  0
  7  8  1  0  0  0  0
  7  9  1  0  0  0  0
 29 30  1  0  0  0  0
 29 31  1  0  0  0  0
 29 32  1  0  0  0  0
 27 28  1  0  0  0  0
 27 29  1  0  0  0  0
M  END
$$$$
default_name
  -OEChem-02102213163D

 32 32  0     1  0  0  0  0  0999 V2000
   -3.8405   -3.7518    1.6252 H   0  0  0  0  0  0  0  0  0  0  0  0
   -3.7965   -2.8768    0.9782 C   0  0  0  0  0  0  0  0  0  0  0  0
   -4.5465   -2.1527    1.2902 H   0  0  0  0  0  0  0  0  0  0  0  0
   -3.9745   -3.1748   -0.0538 H   0  0  0  0  0  0  0  0  0  0  0  0
   -2.4245   -2.2537    1.0882 C   0  0  0  0  0  0  0  0  0  0  0  0
   -1.5805   -2.7478    1.8242 O   0  0  0  0  0  0  0  0  0  0  0  0
   -2.2045   -1.1637    0.3562 N   0  0  0  0  0  0  0  0  0  0  0  0
   -2.9595   -0.7907   -0.2008 H   0  0  0  0  0  0  0  0  0  0  0  0
   -0.9485   -0.4087    0.3482 C   0  0  1  0  0  0  0  0  0  0  0  0
   -0.3666   -0.6914    1.2269 H   0  0  0  0  0  0  0  0  0  0  0  0
   -0.1405   -0.7797   -0.9072 C   0  0  0  0  0  0  0  0  0  0  0  0
    0.8131   -1.2120   -0.6009 H   0  0  0  0  0  0  0  0  0  0  0  0
   -0.6833   -1.5451   -1.4639 H   0  0  0  0  0  0  0  0  0  0  0  0
    0.1482    0.3949   -1.8225 C   0  0  0  0  0  0  0  0  0  0  0  0
   -0.5579    1.6039   -1.6757 C   0  0  0  0  0  0  0  0  0  0  0  0
   -1.3279    1.6948   -0.9226 H   0  0  0  0  0  0  0  0  0  0  0  0
   -0.2558    2.7025   -2.5013 C   0  0  0  0  0  0  0  0  0  0  0  0
   -0.8010    3.6291   -2.3887 H   0  0  0  0  0  0  0  0  0  0  0  0
    0.7534    2.5950   -3.4733 C   0  0  0  0  0  0  0  0  0  0  0  0
    0.9838    3.4383   -4.1092 H   0  0  0  0  0  0  0  0  0  0  0  0
    1.4598    1.3879   -3.6236 C   0  0  0  0  0  0  0  0  0  0  0  0
    2.2319    1.3033   -4.3743 H   0  0  0  0  0  0  0  0  0  0  0  0
    1.1554    0.2891   -2.8005 C   0  0  0  0  0  0  0  0  0  0  0  0
    1.6974   -0.6401   -2.9194 H   0  0  0  0  0  0  0  0  0  0  0  0
   -1.2168    1.1047    0.4313 C   0  0  0  0  0  0  0  0  0  0  0  0
   -2.0890    1.6186   -0.2704 O   0  0  0  0  0  0  0  0  0  0  0  0
   -0.4674    1.8182    1.2813 N   0  0  0  0  0  0  0  0  0  0  0  0
    0.2640    1.3348    1.7800 H   0  0  0  0  0  0  0  0  0  0  0  0
   -0.5889    3.2615    1.4722 C   0  0  0  0  0  0  0  0  0  0  0  0
   -1.6291    3.5206    1.6805 H   0  0  0  0  0  0  0  0  0  0  0  0
    0.0359    3.5855    2.3049 H   0  0  0  0  0  0  0  0  0  0  0  0
   -0.2760    3.7797    0.5637 H   0  0  0  0  0  0  0  0  0  0  0  0
  5  6  2  0  0  0  0
  5  7  1  0  0  0  0
  2  3  1  0  0  0  0
  2  4  1  0  0  0  0
  2  5  1  0  0  0  0
  1  2  1  0  0  0  0
 25 26  2  0  0  0  0
 25 27  1  0  0  0  0
 23 24  1  0  0  0  0
 21 22  1  0  0  0  0
 21 23  2  0  0  0  0
 19 20  1  0  0  0  0
 19 21  1  0  0  0  0
 17 18  1  0  0  0  0
 17 19  2  0  0  0  0
 15 16  1  0  0  0  0
 15 17  1  0  0  0  0
 14 15  2  0  0  0  0
 14 23  1  0  0  0  0
 11 12  1  0  0  0  0
 11 13  1  0  0  0  0
 11 14  1  0  0  0  0
  9 10  1  0  0  0  0
  9 11  1  0  0  0  0
  9 25  1  0  0  0  0
  7  8  1  0  0  0  0
  7  9  1  0  0  0  0
 29 30  1  0  0  0  0
 29 31  1  0  0  0  0
 29 32  1  0  0  0  0
 27 28  1  0  0  0  0
 27 29  1  0  0  0  0
M  END
$$$$
default_name
  -OEChem-02102213163D

 32 32  0     1  0  0  0  0  0999 V2000
   -3.8405   -3.7518    1.6252 H   0  0  0  0  0  0  0  0  0  0  0  0
   -3.7965   -2.8768    0.9782 C   0  0  0  0  0  0  0  0  0  0  0  0
   -4.5465   -2.1527    1.2902 H   0  0  0  0  0  0  0  0  0  0  0  0
   -3.9745   -3.1748   -0.0538 H   0  0  0  0  0  0  0  0  0  0  0  0
   -2.4245   -2.2537    1.0882 C   0  0  0  0  0  0  0  0  0  0  0  0
   -1.5805   -2.7478    1.8242 O   0  0  0  0  0  0  0  0  0  0  0  0
   -2.2045   -1.1637    0.3562 N   0  0  0  0  0  0  0  0  0  0  0  0
   -2.9595   -0.7907   -0.2008 H   0  0  0  0  0  0  0  0  0  0  0  0
   -0.9485   -0.4087    0.3482 C   0  0  1  0  0  0  0  0  0  0  0  0
   -0.3666   -0.6914    1.2269 H   0  0  0  0  0  0  0  0  0  0  0  0
   -0.1405   -0.7797   -0.9072 C   0  0  0  0  0  0  0  0  0  0  0  0
    0.8131   -1.2120   -0.6009 H   0  0  0  0  0  0  0  0  0  0  0  0
   -0.6833   -1.5451   -1.4639 H   0  0  0  0  0  0  0  0  0  0  0  0
    0.1482    0.3949   -1.8225 C   0  0  0  0  0  0  0  0  0  0  0  0
   -0.3110    1.6846   -1.4942 C   0  0  0  0  0  0  0  0  0  0  0  0
   -0.8931    1.8415   -0.5971 H   0  0  0  0  0  0  0  0  0  0  0  0
   -0.0040    2.7764   -2.3271 C   0  0  0  0  0  0  0  0  0  0  0  0
   -0.3597    3.7654   -2.0746 H   0  0  0  0  0  0  0  0  0  0  0  0
    0.7637    2.5812   -3.4878 C   0  0  0  0  0  0  0  0  0  0  0  0
    0.9976    3.4196   -4.1289 H   0  0  0  0  0  0  0  0  0  0  0  0
    1.2229    1.2935   -3.8195 C   0  0  0  0  0  0  0  0  0  0  0  0
    1.8084    1.1423   -4.7145 H   0  0  0  0  0  0  0  0  0  0  0  0
    0.9131    0.2021   -2.9887 C   0  0  0  0  0  0  0  0  0  0  0  0
    1.2641   -0.7887   -3.2467 H   0  0  0  0  0  0  0  0  0  0  0  0
   -1.2168    1.1047    0.4313 C   0  0  0  0  0  0  0  0  0  0  0  0
   -2.0890    1.6186   -0.2704 O   0  0  0  0  0  0  0  0  0  0  0  0
   -0.4674    1.8182    1.2813 N   0  0  0  0  0  0  0  0  0  0  0  0
    0.2640    1.3348    1.7800 H   0  0  0  0  0  0  0  0  0  0  0  0
   -0.5889    3.2615    1.4722 C   0  0  0  0  0  0  0  0  0  0  0  0
   -1.6291    3.5206    1.6805 H   0  0  0  0  0  0  0  0  0  0  0  0
    0.0359    3.5855    2.3049 H   0  0  0  0  0  0  0  0  0  0  0  0
   -0.2760    3.7797    0.5637 H   0  0  0  0  0  0  0  0  0  0  0  0
  5  6  2  0  0  0  0
  5  7  1  0  0  0  0
  2  3  1  0  0  0  0
  2  4  1  0  0  0  0
  2  5  1  0  0  0  0
  1  2  1  0  0  0  0
 25 26  2  0  0  0  0
 25 27  1  0  0  0  0
 23 24  1  0  0  0  0
 21 22  1  0  0  0  0
 21 23  2  0  0  0  0
 19 20  1  0  0  0  0
 19 21  1  0  0  0  0
 17 18  1  0  0  0  0
 17 19  2  0  0  0  0
 15 16  1  0  0  0  0
 15 17  1  0  0  0  0
 14 15  2  0  0  0  0
 14 23  1  0  0  0  0
 11 12  1  0  0  0  0
 11 13  1  0  0  0  0
 11 14  1  0  0  0  0
  9 10  1  0  0  0  0
  9 11  1  0  0  0  0
  9 25  1  0  0  0  0
  7  8  1  0  0  0  0
  7  9  1  0  0  0  0
 29 30  1  0  0  0  0
 29 31  1  0  0  0  0
 29 32  1  0  0  0  0
 27 28  1  0  0  0  0
 27 29  1  0  0  0  0
M  END
$$$$
default_name
  -OEChem-02102213163D

 32 32  0     1  0  0  0  0  0999 V2000
   -3.8405   -3.7518    1.6252 H   0  0  0  0  0  0  0  0  0  0  0  0
   -3.7965   -2.8768    0.9782 C   0  0  0  0  0  0  0  0  0  0  0  0
   -4.5465   -2.1527    1.2902 H   0  0  0  0  0  0  0  0  0  0  0  0
   -3.9745   -3.1748   -0.0538 H   0  0  0  0  0  0  0  0  0  0  0  0
   -2.4245   -2.2537    1.0882 C   0  0  0  0  0  0  0  0  0  0  0  0
   -1.5805   -2.7478    1.8242 O   0  0  0  0  0  0  0  0  0  0  0  0
   -2.2045   -1.1637    0.3562 N   0  0  0  0  0  0  0  0  0  0  0  0
   -2.9595   -0.7907   -0.2008 H   0  0  0  0  0  0  0  0  0  0  0  0
   -0.9485   -0.4087    0.3482 C   0  0  1  0  0  0  0  0  0  0  0  0
   -0.3666   -0.6914    1.2269 H   0  0  0  0  0  0  0  0  0  0  0  0
   -0.1405   -0.7797   -0.9072 C   0  0  0  0  0  0  0  0  0  0  0  0
    0.8131   -1.2120   -0.6009 H   0  0  0  0  0  0  0  0  0  0  0  0
   -0.6833   -1.5451   -1.4639 H   0  0  0  0  0  0  0  0  0  0  0  0
    0.1482    0.3949   -1.8225 C   0  0  0  0  0  0  0  0  0  0  0  0
   -0.0235    1.7150   -1.3645 C   0  0  0  0  0  0  0  0  0  0  0  0
   -0.3849    1.8993   -0.3626 H   0  0  0  0  0  0  0  0  0  0  0  0
    0.2858    2.7998   -2.2057 C   0  0  0  0  0  0  0  0  0  0  0  0
    0.1507    3.8126   -1.8530 H   0  0  0  0  0  0  0  0  0  0  0  0
    0.7687    2.5668   -3.5046 C   0  0  0  0  0  0  0  0  0  0  0  0
    1.0041    3.4003   -4.1517 H   0  0  0  0  0  0  0  0  0  0  0  0
    0.9400    1.2489   -3.9659 C   0  0  0  0  0  0  0  0  0  0  0  0
    1.3061    1.0697   -4.9661 H   0  0  0  0  0  0  0  0  0  0  0  0
    0.6277    0.1651   -3.1261 C   0  0  0  0  0  0  0  0  0  0  0  0
    0.7568   -0.8483   -3.4833 H   0  0  0  0  0  0  0  0  0  0  0  0
   -1.2168    1.1047    0.4313 C   0  0  0  0  0  0  0  0  0  0  0  0
   -2.0890    1.6186   -0.2704 O   0  0  0  0  0  0  0  0  0  0  0  0
   -0.4674    1.8182    1.2813 N   0  0  0  0  0  0  0  0  0  0  0  0
    0.2640    1.3348    1.7800 H   0  0  0  0  0  0  0  0  0  0  0  0
   -0.5889    3.2615    1.4722 C   0  0  0  0  0  0  0  0  0  0  0  0
   -1.6291    3.5206    1.6805 H   0  0  0  0  0  0  0  0  0  0  0  0
    0.0359    3.5855    2.3049 H   0  0  0  0  0  0  0  0  0  0  0  0
   -0.2760    3.7797    0.5637 H   0  0  0  0  0  0  0  0  0  0  0  0
  5  6  2  0  0  0  0
  5  7  1  0  0  0  0
  2  3  1  0  0  0  0
  2  4  1  0  0  0  0
  2  5  1  0  0  0  0
  1  2  1  0  0  0  0
 25 26  2  0  0  0  0
 25 27  1  0  0  0  0
 23 24  1  0  0  0  0
 21 22  1  0  0  0  0
 21 23  2  0  0  0  0
 19 20  1  0  0  0  0
 19 21  1  0  0  0  0
 17 18  1  0  0  0  0
 17 19  2  0  0  0  0
 15 16  1  0  0  0  0
 15 17  1  0  0  0  0
 14 15  2  0  0  0  0
 14 23  1  0  0  0  0
 11 12  1  0  0  0  0
 11 13  1  0  0  0  0
 11 14  1  0  0  0  0
  9 10  1  0  0  0  0
  9 11  1  0  0  0  0
  9 25  1  0  0  0  0
  7  8  1  0  0  0  0
  7  9  1  0  0  0  0
 29 30  1  0  0  0  0
 29 31  1  0  0  0  0
 29 32  1  0  0  0  0
 27 28  1  0  0  0  0
 27 29  1  0  0  0  0
M  END
$$$$
default_name
  -OEChem-02102213163D

 32 32  0     1  0  0  0  0  0999 V2000
   -3.8405   -3.7518    1.6252 H   0  0  0  0  0  0  0  0  0  0  0  0
   -3.7965   -2.8768    0.9782 C   0  0  0  0  0  0  0  0  0  0  0  0
   -4.5465   -2.1527    1.2902 H   0  0  0  0  0  0  0  0  0  0  0  0
   -3.9745   -3.1748   -0.0538 H   0  0  0  0  0  0  0  0  0  0  0  0
   -2.4245   -2.2537    1.0882 C   0  0  0  0  0  0  0  0  0  0  0  0
   -1.5805   -2.7478    1.8242 O   0  0  0  0  0  0  0  0  0  0  0  0
   -2.2045   -1.1637    0.3562 N   0  0  0  0  0  0  0  0  0  0  0  0
   -2.9595   -0.7907   -0.2008 H   0  0  0  0  0  0  0  0  0  0  0  0
   -0.9485   -0.4087    0.3482 C   0  0  1  0  0  0  0  0  0  0  0  0
   -0.3666   -0.6914    1.2269 H   0  0  0  0  0  0  0  0  0  0  0  0
   -0.1405   -0.7797   -0.9072 C   0  0  0  0  0  0  0  0  0  0  0  0
    0.8131   -1.2120   -0.6009 H   0  0  0  0  0  0  0  0  0  0  0  0
   -0.6833   -1.5451   -1.4639 H   0  0  0  0  0  0  0  0  0  0  0  0
    0.1482    0.3949   -1.8225 C   0  0  0  0  0  0  0  0  0  0  0  0
    0.2849    1.6931   -1.2953 C   0  0  0  0  0  0  0  0  0  0  0  0
    0.1620    1.8642   -0.2352 H   0  0  0  0  0  0  0  0  0  0  0  0
    0.5936    2.7712   -2.1453 C   0  0  0  0  0  0  0  0  0  0  0  0
    0.6956    3.7676   -1.7389 H   0  0  0  0  0  0  0  0  0  0  0  0
    0.7679    2.5531   -3.5225 C   0  0  0  0  0  0  0  0  0  0  0  0
    1.0027    3.3817   -4.1759 H   0  0  0  0  0  0  0  0  0  0  0  0
    0.6305    1.2573   -4.0527 C   0  0  0  0  0  0  0  0  0  0  0  0
    0.7591    1.0904   -5.1121 H   0  0  0  0  0  0  0  0  0  0  0  0
    0.3188    0.1807   -3.2035 C   0  0  0  0  0  0  0  0  0  0  0  0
    0.2100   -0.8151   -3.6132 H   0  0  0  0  0  0  0  0  0  0  0  0
   -1.2168    1.1047    0.4313 C   0  0  0  0  0  0  0  0  0  0  0  0
   -2.0890    1.6186   -0.2704 O   0  0  0  0  0  0  0  0  0  0  0  0
   -0.4674    1.8182    1.2813 N   0  0  0  0  0  0  0  0  0  0  0  0
    0.2640    1.3348    1.7800 H   0  0  0  0  0  0  0  0  0  0  0  0
   -0.5889    3.2615    1.4722 C   0  0  0  0  0  0  0  0  0  0  0  0
   -1.6291    3.5206    1.6805 H   0  0  0  0  0  0  0  0  0  0  0  0
    0.0359    3.5855    2.3049 H   0  0  0  0  0  0  0  0  0  0  0  0
   -0.2760    3.7797    0.5637 H   0  0  0  0  0  0  0  0  0  0  0  0
  5  6  2  0  0  0  0
  5  7  1  0  0  0  0
  2  3  1  0  0  0  0
  2  4  1  0  0  0  0
  2  5  1  0  0  0  0
  1  2  1  0  0  0  0
 25 26  2  0  0  0  0
 25 27  1  0  0  0  0
 23 24  1  0  0  0  0
 21 22  1  0  0  0  0
 21 23  2  0  0  0  0
 19 20  1  0  0  0  0
 19 21  1  0  0  0  0
 17 18  1  0  0  0  0
 17 19  2  0  0  0  0
 15 16  1  0  0  0  0
 15 17  1  0  0  0  0
 14 15  2  0  0  0  0
 14 23  1  0  0  0  0
 11 12  1  0  0  0  0
 11 13  1  0  0  0  0
 11 14  1  0  0  0  0
  9 10  1  0  0  0  0
  9 11  1  0  0  0  0
  9 25  1  0  0  0  0
  7  8  1  0  0  0  0
  7  9  1  0  0  0  0
 29 30  1  0  0  0  0
 29 31  1  0  0  0  0
 29 32  1  0  0  0  0
 27 28  1  0  0  0  0
 27 29  1  0  0  0  0
M  END
$$$$
default_name
  -OEChem-02102213163D

 32 32  0     1  0  0  0  0  0999 V2000
   -3.8405   -3.7518    1.6252 H   0  0  0  0  0  0  0  0  0  0  0  0
   -3.7965   -2.8768    0.9782 C   0  0  0  0  0  0  0  0  0  0  0  0
   -4.5465   -2.1527    1.2902 H   0  0  0  0  0  0  0  0  0  0  0  0
   -3.9745   -3.1748   -0.0538 H   0  0  0  0  0  0  0  0  0  0  0  0
   -2.4245   -2.2537    1.0882 C   0  0  0  0  0  0  0  0  0  0  0  0
   -1.5805   -2.7478    1.8242 O   0  0  0  0  0  0  0  0  0  0  0  0
   -2.2045   -1.1637    0.3562 N   0  0  0  0  0  0  0  0  0  0  0  0
   -2.9595   -0.7907   -0.2008 H   0  0  0  0  0  0  0  0  0  0  0  0
   -0.9485   -0.4087    0.3482 C   0  0  1  0  0  0  0  0  0  0  0  0
   -0.3666   -0.6914    1.2269 H   0  0  0  0  0  0  0  0  0  0  0  0
   -0.1405   -0.7797   -0.9072 C   0  0  0  0  0  0  0  0  0  0  0  0
    0.8131   -1.2120   -0.6009 H   0  0  0  0  0  0  0  0  0  0  0  0
   -0.6833   -1.5451   -1.4639 H   0  0  0  0  0  0  0  0  0  0  0  0
    0.1482    0.3949   -1.8225 C   0  0  0  0  0  0  0  0  0  0  0  0
    0.5933    1.6204   -1.2914 C   0  0  0  0  0  0  0  0  0  0  0  0
    0.7103    1.7386   -0.2234 H   0  0  0  0  0  0  0  0  0  0  0  0
    0.8986    2.6925   -2.1501 C   0  0  0  0  0  0  0  0  0  0  0  0
    1.2377    3.6334   -1.7401 H   0  0  0  0  0  0  0  0  0  0  0  0
    0.7613    2.5408   -3.5404 C   0  0  0  0  0  0  0  0  0  0  0  0
    0.9936    3.3652   -4.1999 H   0  0  0  0  0  0  0  0  0  0  0  0
    0.3154    1.3180   -4.0742 C   0  0  0  0  0  0  0  0  0  0  0  0
    0.2047    1.2030   -5.1425 H   0  0  0  0  0  0  0  0  0  0  0  0
    0.0072    0.2479   -3.2156 C   0  0  0  0  0  0  0  0  0  0  0  0
   -0.3390   -0.6912   -3.6273 H   0  0  0  0  0  0  0  0  0  0  0  0
   -1.2168    1.1047    0.4313 C   0  0  0  0  0  0  0  0  0  0  0  0
   -2.0890    1.6186   -0.2704 O   0  0  0  0  0  0  0  0  0  0  0  0
   -0.4674    1.8182    1.2813 N   0  0  0  0  0  0  0  0  0  0  0  0
    0.2640    1.3348    1.7800 H   0  0  0  0  0  0  0  0  0  0  0  0
   -0.5889    3.2615    1.4722 C   0  0  0  0  0  0  0  0  0  0  0  0
   -1.6291    3.5206    1.6805 H   0  0  0  0  0  0  0  0  0  0  0  0
    0.0359    3.5855    2.3049 H   0  0  0  0  0  0  0  0  0  0  0  0
   -0.2760    3.7797    0.5637 H   0  0  0  0  0  0  0  0  0  0  0  0
  5  6  2  0  0  0  0
  5  7  1  0  0  0  0
  2  3  1  0  0  0  0
  2  4  1  0  0  0  0
  2  5  1  0  0  0  0
  1  2  1  0  0  0  0
 25 26  2  0  0  0  0
 25 27  1  0  0  0  0
 23 24  1  0  0  0  0
 21 22  1  0  0  0  0
 21 23  2  0  0  0  0
 19 20  1  0  0  0  0
 19 21  1  0  0  0  0
 17 18  1  0  0  0  0
 17 19  2  0  0  0  0
 15 16  1  0  0  0  0
 15 17  1  0  0  0  0
 14 15  2  0  0  0  0
 14 23  1  0  0  0  0
 11 12  1  0  0  0  0
 11 13  1  0  0  0  0
 11 14  1  0  0  0  0
  9 10  1  0  0  0  0
  9 11  1  0  0  0  0
  9 25  1  0  0  0  0
  7  8  1  0  0  0  0
  7  9  1  0  0  0  0
 29 30  1  0  0  0  0
 29 31  1  0  0  0  0
 29 32  1  0  0  0  0
 27 28  1  0  0  0  0
 27 29  1  0  0  0  0
M  END
$$$$
default_name
  -OEChem-02102213163D

 32 32  0     1  0  0  0  0  0999 V2000
   -3.8405   -3.7518    1.6252 H   0  0  0  0  0  0  0  0  0  0  0  0
   -3.7965   -2.8768    0.9782 C   0  0  0  0  0  0  0  0  0  0  0  0
   -4.5465   -2.1527    1.2902 H   0  0  0  0  0  0  0  0  0  0  0  0
   -3.9745   -3.1748   -0.0538 H   0  0  0  0  0  0  0  0  0  0  0  0
   -2.4245   -2.2537    1.0882 C   0  0  0  0  0  0  0  0  0  0  0  0
   -1.5805   -2.7478    1.8242 O   0  0  0  0  0  0  0  0  0  0  0  0
   -2.2045   -1.1637    0.3562 N   0  0  0  0  0  0  0  0  0  0  0  0
   -2.9595   -0.7907   -0.2008 H   0  0  0  0  0  0  0  0  0  0  0  0
   -0.9485   -0.4087    0.3482 C   0  0  1  0  0  0  0  0  0  0  0  0
   -0.3666   -0.6914    1.2269 H   0  0  0  0  0  0  0  0  0  0  0  0
   -0.1405   -0.7797   -0.9072 C   0  0  0  0  0  0  0  0  0  0  0  0
    0.8131   -1.2120   -0.6009 H   0  0  0  0  0  0  0  0  0  0  0  0
   -0.6833   -1.5451   -1.4639 H   0  0  0  0  0  0  0  0  0  0  0  0
    0.1482    0.3949   -1.8225 C   0  0  0  0  0  0  0  0  0  0  0  0
    0.8806    1.5018   -1.3530 C   0  0  0  0  0  0  0  0  0  0  0  0
    1.2227    1.5311   -0.3281 H   0  0  0  0  0  0  0  0  0  0  0  0
    1.1799    2.5691   -2.2197 C   0  0  0  0  0  0  0  0  0  0  0  0
    1.7401    3.4192   -1.8565 H   0  0  0  0  0  0  0  0  0  0  0  0
    0.7495    2.5308   -3.5569 C   0  0  0  0  0  0  0  0  0  0  0  0
    0.9775    3.3519   -4.2221 H   0  0  0  0  0  0  0  0  0  0  0  0
    0.0162    1.4270   -4.0288 C   0  0  0  0  0  0  0  0  0  0  0  0
   -0.3193    1.3999   -5.0551 H   0  0  0  0  0  0  0  0  0  0  0  0
   -0.2856    0.3620   -3.1615 C   0  0  0  0  0  0  0  0  0  0  0  0
   -0.8527   -0.4851   -3.5249 H   0  0  0  0  0  0  0  0  0  0  0  0
   -1.2168    1.1047    0.4313 C   0  0  0  0  0  0  0  0  0  0  0  0
   -2.0890    1.6186   -0.2704 O   0  0  0  0  0  0  0  0  0  0  0  0
   -0.4674    1.8182    1.2813 N   0  0  0  0  0  0  0  0  0  0  0  0
    0.2640    1.3348    1.7800 H   0  0  0  0  0  0  0  0  0  0  0  0
   -0.5889    3.2615    1.4722 C   0  0  0  0  0  0  0  0  0  0  0  0
   -1.6291    3.5206    1.6805 H   0  0  0  0  0  0  0  0  0  0  0  0
    0.0359    3.5855    2.3049 H   0  0  0  0  0  0  0  0  0  0  0  0
   -0.2760    3.7797    0.5637 H   0  0  0  0  0  0  0  0  0  0  0  0
  5  6  2  0  0  0  0
  5  7  1  0  0  0  0
  2  3  1  0  0  0  0
  2  4  1  0  0  0  0
  2  5  1  0  0  0  0
  1  2  1  0  0  0  0
 25 26  2  0  0  0  0
 25 27  1  0  0  0  0
 23 24  1  0  0  0  0
 21 22  1  0  0  0  0
 21 23  2  0  0  0  0
 19 20  1  0  0  0  0
 19 21  1  0  0  0  0
 17 18  1  0  0  0  0
 17 19  2  0  0  0  0
 15 16  1  0  0  0  0
 15 17  1  0  0  0  0
 14 15  2  0  0  0  0
 14 23  1  0  0  0  0
 11 12  1  0  0  0  0
 11 13  1  0  0  0  0
 11 14  1  0  0  0  0
  9 10  1  0  0  0  0
  9 11  1  0  0  0  0
  9 25  1  0  0  0  0
  7  8  1  0  0  0  0
  7  9  1  0  0  0  0
 29 30  1  0  0  0  0
 29 31  1  0  0  0  0
 29 32  1  0  0  0  0
 27 28  1  0  0  0  0
 27 29  1  0  0  0  0
M  END
$$$$
default_name
  -OEChem-02102213163D

 32 32  0     1  0  0  0  0  0999 V2000
   -3.8405   -3.7518    1.6252 H   0  0  0  0  0  0  0  0  0  0  0  0
   -3.7965   -2.8768    0.9782 C   0  0  0  0  0  0  0  0  0  0  0  0
   -4.5465   -2.1527    1.2902 H   0  0  0  0  0  0  0  0  0  0  0  0
   -3.9745   -3.1748   -0.0538 H   0  0  0  0  0  0  0  0  0  0  0  0
   -2.4245   -2.2537    1.0882 C   0  0  0  0  0  0  0  0  0  0  0  0
   -1.5805   -2.7478    1.8242 O   0  0  0  0  0  0  0  0  0  0  0  0
   -2.2045   -1.1637    0.3562 N   0  0  0  0  0  0  0  0  0  0  0  0
   -2.9595   -0.7907   -0.2008 H   0  0  0  0  0  0  0  0  0  0  0  0
   -0.9485   -0.4087    0.3482 C   0  0  1  0  0  0  0  0  0  0  0  0
   -0.3666   -0.6914    1.2269 H   0  0  0  0  0  0  0  0  0  0  0  0
   -0.1405   -0.7797   -0.9072 C   0  0  0  0  0  0  0  0  0  0  0  0
    0.8131   -1.2120   -0.6009 H   0  0  0  0  0  0  0  0  0  0  0  0
   -0.6833   -1.5451   -1.4639 H   0  0  0  0  0  0  0  0  0  0  0  0
    0.1482    0.3949   -1.8225 C   0  0  0  0  0  0  0  0  0  0  0  0
    1.1272    1.3454   -1.4759 C   0  0  0  0  0  0  0  0  0  0  0  0
    1.6642    1.2557   -0.5422 H   0  0  0  0  0  0  0  0  0  0  0  0
    1.4184    2.4094   -2.3495 C   0  0  0  0  0  0  0  0  0  0  0  0
    2.1687    3.1395   -2.0803 H   0  0  0  0  0  0  0  0  0  0  0  0
    0.7333    2.5239   -3.5710 C   0  0  0  0  0  0  0  0  0  0  0  0
    0.9554    3.3426   -4.2410 H   0  0  0  0  0  0  0  0  0  0  0  0
   -0.2467    1.5766   -3.9196 C   0  0  0  0  0  0  0  0  0  0  0  0
   -0.7772    1.6676   -4.8561 H   0  0  0  0  0  0  0  0  0  0  0  0
   -0.5398    0.5153   -3.0449 C   0  0  0  0  0  0  0  0  0  0  0  0
   -1.2963   -0.2108   -3.3128 H   0  0  0  0  0  0  0  0  0  0  0  0
   -1.2168    1.1047    0.4313 C   0  0  0  0  0  0  0  0  0  0  0  0
   -2.0890    1.6186   -0.2704 O   0  0  0  0  0  0  0  0  0  0  0  0
   -0.4674    1.8182    1.2813 N   0  0  0  0  0  0  0  0  0  0  0  0
    0.2640    1.3348    1.7800 H   0  0  0  0  0  0  0  0  0  0  0  0
   -0.5889    3.2615    1.4722 C   0  0  0  0  0  0  0  0  0  0  0  0
   -1.6291    3.5206    1.6805 H   0  0  0  0  0  0  0  0  0  0  0  0
    0.0359    3.5855    2.3049 H   0  0  0  0  0  0  0  0  0  0  0  0
   -0.2760    3.7797    0.5637 H   0  0  0  0  0  0  0  0  0  0  0  0
  5  6  2  0  0  0  0
  5  7  1  0  0  0  0
  2  3  1  0  0  0  0
  2  4  1  0  0  0  0
  2  5  1  0  0  0  0
  1  2  1  0  0  0  0
 25 26  2  0  0  0  0
 25 27  1  0  0  0  0
 23 24  1  0  0  0  0
 21 22  1  0  0  0  0
 21 23  2  0  0  0  0
 19 20  1  0  0  0  0
 19 21  1  0  0  0  0
 17 18  1  0  0  0  0
 17 19  2  0  0  0  0
 15 16  1  0  0  0  0
 15 17  1  0  0  0  0
 14 15  2  0  0  0  0
 14 23  1  0  0  0  0
 11 12  1  0  0  0  0
 11 13  1  0  0  0  0
 11 14  1  0  0  0  0
  9 10  1  0  0  0  0
  9 11  1  0  0  0  0
  9 25  1  0  0  0  0
  7  8  1  0  0  0  0
  7  9  1  0  0  0  0
 29 30  1  0  0  0  0
 29 31  1  0  0  0  0
 29 32  1  0  0  0  0
 27 28  1  0  0  0  0
 27 29  1  0  0  0  0
M  END
$$$$
default_name
  -OEChem-02102213163D

 32 32  0     1  0  0  0  0  0999 V2000
   -3.8405   -3.7518    1.6252 H   0  0  0  0  0  0  0  0  0  0  0  0
   -3.7965   -2.8768    0.9782 C   0  0  0  0  0  0  0  0  0  0  0  0
   -4.5465   -2.1527    1.2902 H   0  0  0  0  0  0  0  0  0  0  0  0
   -3.9745   -3.1748   -0.0538 H   0  0  0  0  0  0  0  0  0  0  0  0
   -2.4245   -2.2537    1.0882 C   0  0  0  0  0  0  0  0  0  0  0  0
   -1.5805   -2.7478    1.8242 O   0  0  0  0  0  0  0  0  0  0  0  0
   -2.2045   -1.1637    0.3562 N   0  0  0  0  0  0  0  0  0  0  0  0
   -2.9595   -0.7907   -0.2008 H   0  0  0  0  0  0  0  0  0  0  0  0
   -0.9485   -0.4087    0.3482 C   0  0  1  0  0  0  0  0  0  0  0  0
   -0.3666   -0.6914    1.2269 H   0  0  0  0  0  0  0  0  0  0  0  0
   -0.1405   -0.7797   -0.9072 C   0  0  0  0  0  0  0  0  0  0  0  0
    0.8131   -1.2120   -0.6009 H   0  0  0  0  0  0  0  0  0  0  0  0
   -0.6833   -1.5451   -1.4639 H   0  0  0  0  0  0  0  0  0  0  0  0
    0.1482    0.3949   -1.8225 C   0  0  0  0  0  0  0  0  0  0  0  0
    1.3164    1.1619   -1.6518 C   0  0  0  0  0  0  0  0  0  0  0  0
    2.0048    0.9314   -0.8510 H   0  0  0  0  0  0  0  0  0  0  0  0
    1.5979    2.2242   -2.5304 C   0  0  0  0  0  0  0  0  0  0  0  0
    2.4941    2.8135   -2.3960 H   0  0  0  0  0  0  0  0  0  0  0  0
    0.7136    2.5204   -3.5816 C   0  0  0  0  0  0  0  0  0  0  0  0
    0.9288    3.3381   -4.2552 H   0  0  0  0  0  0  0  0  0  0  0  0
   -0.4553    1.7569   -3.7541 C   0  0  0  0  0  0  0  0  0  0  0  0
   -1.1378    1.9878   -4.5588 H   0  0  0  0  0  0  0  0  0  0  0  0
   -0.7380    0.6974   -2.8739 C   0  0  0  0  0  0  0  0  0  0  0  0
   -1.6393    0.1129   -3.0056 H   0  0  0  0  0  0  0  0  0  0  0  0
   -1.2168    1.1047    0.4313 C   0  0  0  0  0  0  0  0  0  0  0  0
   -2.0890    1.6186   -0.2704 O   0  0  0  0  0  0  0  0  0  0  0  0
   -0.4674    1.8182    1.2813 N   0  0  0  0  0  0  0  0  0  0  0  0
    0.2640    1.3348    1.7800 H   0  0  0  0  0  0  0  0  0  0  0  0
   -0.5889    3.2615    1.4722 C   0  0  0  0  0  0  0  0  0  0  0  0
   -1.6291    3.5206    1.6805 H   0  0  0  0  0  0  0  0  0  0  0  0
    0.0359    3.5855    2.3049 H   0  0  0  0  0  0  0  0  0  0  0  0
   -0.2760    3.7797    0.5637 H   0  0  0  0  0  0  0  0  0  0  0  0
  5  6  2  0  0  0  0
  5  7  1  0  0  0  0
  2  3  1  0  0  0  0
  2  4  1  0  0  0  0
  2  5  1  0  0  0  0
  1  2  1  0  0  0  0
 25 26  2  0  0  0  0
 25 27  1  0  0  0  0
 23 24  1  0  0  0  0
 21 22  1  0  0  0  0
 21 23  2  0  0  0  0
 19 20  1  0  0  0  0
 19 21  1  0  0  0  0
 17 18  1  0  0  0  0
 17 19  2  0  0  0  0
 15 16  1  0  0  0  0
 15 17  1  0  0  0  0
 14 15  2  0  0  0  0
 14 23  1  0  0  0  0
 11 12  1  0  0  0  0
 11 13  1  0  0  0  0
 11 14  1  0  0  0  0
  9 10  1  0  0  0  0
  9 11  1  0  0  0  0
  9 25  1  0  0  0  0
  7  8  1  0  0  0  0
  7  9  1  0  0  0  0
 29 30  1  0  0  0  0
 29 31  1  0  0  0  0
 29 32  1  0  0  0  0
 27 28  1  0  0  0  0
 27 29  1  0  0  0  0
M  END
$$$$
default_name
  -OEChem-02102213163D

 32 32  0     1  0  0  0  0  0999 V2000
   -3.8405   -3.7518    1.6252 H   0  0  0  0  0  0  0  0  0  0  0  0
   -3.7965   -2.8768    0.9782 C   0  0  0  0  0  0  0  0  0  0  0  0
   -4.5465   -2.1527    1.2902 H   0  0  0  0  0  0  0  0  0  0  0  0
   -3.9745   -3.1748   -0.0538 H   0  0  0  0  0  0  0  0  0  0  0  0
   -2.4245   -2.2537    1.0882 C   0  0  0  0  0  0  0  0  0  0  0  0
   -1.5805   -2.7478    1.8242 O   0  0  0  0  0  0  0  0  0  0  0  0
   -2.2045   -1.1637    0.3562 N   0  0  0  0  0  0  0  0  0  0  0  0
   -2.9595   -0.7907   -0.2008 H   0  0  0  0  0  0  0  0  0  0  0  0
   -0.9485   -0.4087    0.3482 C   0  0  1  0  0  0  0  0  0  0  0  0
   -0.3666   -0.6914    1.2269 H   0  0  0  0  0  0  0  0  0  0  0  0
   -0.1405   -0.7797   -0.9072 C   0  0  0  0  0  0  0  0  0  0  0  0
    0.8131   -1.2120   -0.6009 H   0  0  0  0  0  0  0  0  0  0  0  0
   -0.6833   -1.5451   -1.4639 H   0  0  0  0  0  0  0  0  0  0  0  0
    0.1482    0.3949   -1.8225 C   0  0  0  0  0  0  0  0  0  0  0  0
    1.4352    0.9637   -1.8686 C   0  0  0  0  0  0  0  0  0  0  0  0
    2.2212    0.5801   -1.2335 H   0  0  0  0  0  0  0  0  0  0  0  0
    1.7060    2.0263   -2.7503 C   0  0  0  0  0  0  0  0  0  0  0  0
    2.6942    2.4633   -2.7823 H   0  0  0  0  0  0  0  0  0  0  0  0
    0.6920    2.5206   -3.5882 C   0  0  0  0  0  0  0  0  0  0  0  0
    0.8995    3.3385   -4.2639 H   0  0  0  0  0  0  0  0  0  0  0  0
   -0.5955    1.9555   -3.5435 C   0  0  0  0  0  0  0  0  0  0  0  0
   -1.3765    2.3389   -4.1836 H   0  0  0  0  0  0  0  0  0  0  0  0
   -0.8668    0.8957   -2.6599 C   0  0  0  0  0  0  0  0  0  0  0  0
   -1.8586    0.4641   -2.6241 H   0  0  0  0  0  0  0  0  0  0  0  0
   -1.2168    1.1047    0.4313 C   0  0  0  0  0  0  0  0  0  0  0  0
   -2.0890    1.6186   -0.2704 O   0  0  0  0  0  0  0  0  0  0  0  0
   -0.4674    1.8182    1.2813 N   0  0  0  0  0  0  0  0  0  0  0  0
    0.2640    1.3348    1.7800 H   0  0  0  0  0  0  0  0  0  0  0  0
   -0.5889    3.2615    1.4722 C   0  0  0  0  0  0  0  0  0  0  0  0
   -1.6291    3.5206    1.6805 H   0  0  0  0  0  0  0  0  0  0  0  0
    0.0359    3.5855    2.3049 H   0  0  0  0  0  0  0  0  0  0  0  0
   -0.2760    3.7797    0.5637 H   0  0  0  0  0  0  0  0  0  0  0  0
  5  6  2  0  0  0  0
  5  7  1  0  0  0  0
  2  3  1  0  0  0  0
  2  4  1  0  0  0  0
  2  5  1  0  0  0  0
  1  2  1  0  0  0  0
 25 26  2  0  0  0  0
 25 27  1  0  0  0  0
 23 24  1  0  0  0  0
 21 22  1  0  0  0  0
 21 23  2  0  0  0  0
 19 20  1  0  0  0  0
 19 21  1  0  0  0  0
 17 18  1  0  0  0  0
 17 19  2  0  0  0  0
 15 16  1  0  0  0  0
 15 17  1  0  0  0  0
 14 15  2  0  0  0  0
 14 23  1  0  0  0  0
 11 12  1  0  0  0  0
 11 13  1  0  0  0  0
 11 14  1  0  0  0  0
  9 10  1  0  0  0  0
  9 11  1  0  0  0  0
  9 25  1  0  0  0  0
  7  8  1  0  0  0  0
  7  9  1  0  0  0  0
 29 30  1  0  0  0  0
 29 31  1  0  0  0  0
 29 32  1  0  0  0  0
 27 28  1  0  0  0  0
 27 29  1  0  0  0  0
M  END
$$$$
default_name
  -OEChem-02102213163D

 32 32  0     1  0  0  0  0  0999 V2000
   -3.8405   -3.7518    1.6252 H   0  0  0  0  0  0  0  0  0  0  0  0
   -3.7965   -2.8768    0.9782 C   0  0  0  0  0  0  0  0  0  0  0  0
   -4.5465   -2.1527    1.2902 H   0  0  0  0  0  0  0  0  0  0  0  0
   -3.9745   -3.1748   -0.0538 H   0  0  0  0  0  0  0  0  0  0  0  0
   -2.4245   -2.2537    1.0882 C   0  0  0  0  0  0  0  0  0  0  0  0
   -1.5805   -2.7478    1.8242 O   0  0  0  0  0  0  0  0  0  0  0  0
   -2.2045   -1.1637    0.3562 N   0  0  0  0  0  0  0  0  0  0  0  0
   -2.9595   -0.7907   -0.2008 H   0  0  0  0  0  0  0  0  0  0  0  0
   -0.9485   -0.4087    0.3482 C   0  0  1  0  0  0  0  0  0  0  0  0
   -0.3666   -0.6914    1.2269 H   0  0  0  0  0  0  0  0  0  0  0  0
   -0.1405   -0.7797   -0.9072 C   0  0  0  0  0  0  0  0  0  0  0  0
    0.8131   -1.2120   -0.6009 H   0  0  0  0  0  0  0  0  0  0  0  0
   -0.6833   -1.5451   -1.4639 H   0  0  0  0  0  0  0  0  0  0  0  0
    0.1482    0.3949   -1.8225 C   0  0  0  0  0  0  0  0  0  0  0  0
    1.4755    0.7644   -2.1116 C   0  0  0  0  0  0  0  0  0  0  0  0
    2.2987    0.2259   -1.6637 H   0  0  0  0  0  0  0  0  0  0  0  0
    1.7355    1.8291   -2.9941 C   0  0  0  0  0  0  0  0  0  0  0  0
    2.7554    2.1128   -3.2128 H   0  0  0  0  0  0  0  0  0  0  0  0
    0.6698    2.5245   -3.5902 C   0  0  0  0  0  0  0  0  0  0  0  0
    0.8696    3.3439   -4.2664 H   0  0  0  0  0  0  0  0  0  0  0  0
   -0.6577    2.1588   -3.3022 C   0  0  0  0  0  0  0  0  0  0  0  0
   -1.4771    2.6967   -3.7561 H   0  0  0  0  0  0  0  0  0  0  0  0
   -0.9173    1.0969   -2.4177 C   0  0  0  0  0  0  0  0  0  0  0  0
   -1.9391    0.8187   -2.1944 H   0  0  0  0  0  0  0  0  0  0  0  0
   -1.2168    1.1047    0.4313 C   0  0  0  0  0  0  0  0  0  0  0  0
   -2.0890    1.6186   -0.2704 O   0  0  0  0  0  0  0  0  0  0  0  0
   -0.4674    1.8182    1.2813 N   0  0  0  0  0  0  0  0  0  0  0  0
    0.2640    1.3348    1.7800 H   0  0  0  0  0  0  0  0  0  0  0  0
   -0.5889    3.2615    1.4722 C   0  0  0  0  0  0  0  0  0  0  0  0
   -1.6291    3.5206    1.6805 H   0  0  0  0  0  0  0  0  0  0  0  0
    0.0359    3.5855    2.3049 H   0  0  0  0  0  0  0  0  0  0  0  0
   -0.2760    3.7797    0.5637 H   0  0  0  0  0  0  0  0  0  0  0  0
  5  6  2  0  0  0  0
  5  7  1  0  0  0  0
  2  3  1  0  0  0  0
  2  4  1  0  0  0  0
  2  5  1  0  0  0  0
  1  2  1  0  0  0  0
 25 26  2  0  0  0  0
 25 27  1  0  0  0  0
 23 24  1  0  0  0  0
 21 22  1  0  0  0  0
 21 23  2  0  0  0  0
 19 20  1  0  0  0  0
 19 21  1  0  0  0  0
 17 18  1  0  0  0  0
 17 19  2  0  0  0  0
 15 16  1  0  0  0  0
 15 17  1  0  0  0  0
 14 15  2  0  0  0  0
 14 23  1  0  0  0  0
 11 12  1  0  0  0  0
 11 13  1  0  0  0  0
 11 14  1  0  0  0  0
  9 10  1  0  0  0  0
  9 11  1  0  0  0  0
  9 25  1  0  0  0  0
  7  8  1  0  0  0  0
  7  9  1  0  0  0  0
 29 30  1  0  0  0  0
 29 31  1  0  0  0  0
 29 32  1  0  0  0  0
 27 28  1  0  0  0  0
 27 29  1  0  0  0  0
M  END
$$$$
default_name
  -OEChem-02102213163D

 32 32  0     1  0  0  0  0  0999 V2000
   -3.8405   -3.7518    1.6252 H   0  0  0  0  0  0  0  0  0  0  0  0
   -3.7965   -2.8768    0.9782 C   0  0  0  0  0  0  0  0  0  0  0  0
   -4.5465   -2.1527    1.2902 H   0  0  0  0  0  0  0  0  0  0  0  0
   -3.9745   -3.1748   -0.0538 H   0  0  0  0  0  0  0  0  0  0  0  0
   -2.4245   -2.2537    1.0882 C   0  0  0  0  0  0  0  0  0  0  0  0
   -1.5805   -2.7478    1.8242 O   0  0  0  0  0  0  0  0  0  0  0  0
   -2.2045   -1.1637    0.3562 N   0  0  0  0  0  0  0  0  0  0  0  0
   -2.9595   -0.7907   -0.2008 H   0  0  0  0  0  0  0  0  0  0  0  0
   -0.9485   -0.4087    0.3482 C   0  0  1  0  0  0  0  0  0  0  0  0
   -0.3666   -0.6914    1.2269 H   0  0  0  0  0  0  0  0  0  0  0  0
   -0.1405   -0.7797   -0.9072 C   0  0  0  0  0  0  0  0  0  0  0  0
    0.8131   -1.2120   -0.6009 H   0  0  0  0  0  0  0  0  0  0  0  0
   -0.6833   -1.5451   -1.4639 H   0  0  0  0  0  0  0  0  0  0  0  0
    0.1482    0.3949   -1.8225 C   0  0  0  0  0  0  0  0  0  0  0  0
    1.4347    0.5776   -2.3642 C   0  0  0  0  0  0  0  0  0  0  0  0
    2.2320   -0.1072   -2.1122 H   0  0  0  0  0  0  0  0  0  0  0  0
    1.6843    1.6459   -3.2453 C   0  0  0  0  0  0  0  0  0  0  0  0
    2.6735    1.7859   -3.6581 H   0  0  0  0  0  0  0  0  0  0  0  0
    0.6486    2.5318   -3.5875 C   0  0  0  0  0  0  0  0  0  0  0  0
    0.8410    3.3540   -4.2625 H   0  0  0  0  0  0  0  0  0  0  0  0
   -0.6377    2.3530   -3.0467 C   0  0  0  0  0  0  0  0  0  0  0  0
   -1.4326    3.0370   -3.3053 H   0  0  0  0  0  0  0  0  0  0  0  0
   -0.8861    1.2872   -2.1636 C   0  0  0  0  0  0  0  0  0  0  0  0
   -1.8753    1.1527   -1.7457 H   0  0  0  0  0  0  0  0  0  0  0  0
   -1.2168    1.1047    0.4313 C   0  0  0  0  0  0  0  0  0  0  0  0
   -2.0890    1.6186   -0.2704 O   0  0  0  0  0  0  0  0  0  0  0  0
   -0.4674    1.8182    1.2813 N   0  0  0  0  0  0  0  0  0  0  0  0
    0.2640    1.3348    1.7800 H   0  0  0  0  0  0  0  0  0  0  0  0
   -0.5889    3.2615    1.4722 C   0  0  0  0  0  0  0  0  0  0  0  0
   -1.6291    3.5206    1.6805 H   0  0  0  0  0  0  0  0  0  0  0  0
    0.0359    3.5855    2.3049 H   0  0  0  0  0  0  0  0  0  0  0  0
   -0.2760    3.7797    0.5637 H   0  0  0  0  0  0  0  0  0  0  0  0
  5  6  2  0  0  0  0
  5  7  1  0  0  0  0
  2  3  1  0  0  0  0
  2  4  1  0  0  0  0
  2  5  1  0  0  0  0
  1  2  1  0  0  0  0
 25 26  2  0  0  0  0
 25 27  1  0  0  0  0
 23 24  1  0  0  0  0
 21 22  1  0  0  0  0
 21 23  2  0  0  0  0
 19 20  1  0  0  0  0
 19 21  1  0  0  0  0
 17 18  1  0  0  0  0
 17 19  2  0  0  0  0
 15 16  1  0  0  0  0
 15 17  1  0  0  0  0
 14 15  2  0  0  0  0
 14 23  1  0  0  0  0
 11 12  1  0  0  0  0
 11 13  1  0  0  0  0
 11 14  1  0  0  0  0
  9 10  1  0  0  0  0
  9 11  1  0  0  0  0
  9 25  1  0  0  0  0
  7  8  1  0  0  0  0
  7  9  1  0  0  0  0
 29 30  1  0  0  0  0
 29 31  1  0  0  0  0
 29 32  1  0  0  0  0
 27 28  1  0  0  0  0
 27 29  1  0  0  0  0
M  END
$$$$
default_name
  -OEChem-02102213163D

 32 32  0     1  0  0  0  0  0999 V2000
   -3.8405   -3.7518    1.6252 H   0  0  0  0  0  0  0  0  0  0  0  0
   -3.7965   -2.8768    0.9782 C   0  0  0  0  0  0  0  0  0  0  0  0
   -4.5465   -2.1527    1.2902 H   0  0  0  0  0  0  0  0  0  0  0  0
   -3.9745   -3.1748   -0.0538 H   0  0  0  0  0  0  0  0  0  0  0  0
   -2.4245   -2.2537    1.0882 C   0  0  0  0  0  0  0  0  0  0  0  0
   -1.5805   -2.7478    1.8242 O   0  0  0  0  0  0  0  0  0  0  0  0
   -2.2045   -1.1637    0.3562 N   0  0  0  0  0  0  0  0  0  0  0  0
   -2.9595   -0.7907   -0.2008 H   0  0  0  0  0  0  0  0  0  0  0  0
   -0.9485   -0.4087    0.3482 C   0  0  1  0  0  0  0  0  0  0  0  0
   -0.3666   -0.6914    1.2269 H   0  0  0  0  0  0  0  0  0  0  0  0
   -0.1405   -0.7797   -0.9072 C   0  0  0  0  0  0  0  0  0  0  0  0
    0.8131   -1.2120   -0.6009 H   0  0  0  0  0  0  0  0  0  0  0  0
   -0.6833   -1.5451   -1.4639 H   0  0  0  0  0  0  0  0  0  0  0  0
    0.1482    0.3949   -1.8225 C   0  0  0  0  0  0  0  0  0  0  0  0
    1.3154    0.4160   -2.6093 C   0  0  0  0  0  0  0  0  0  0  0  0
    2.0257   -0.3965   -2.5484 H   0  0  0  0  0  0  0  0  0  0  0  0
    1.5559    1.4894   -3.4866 C   0  0  0  0  0  0  0  0  0  0  0  0
    2.4541    1.5049   -4.0880 H   0  0  0  0  0  0  0  0  0  0  0  0
    0.6298    2.5421   -3.5802 C   0  0  0  0  0  0  0  0  0  0  0  0
    0.8158    3.3679   -4.2525 H   0  0  0  0  0  0  0  0  0  0  0  0
   -0.5368    2.5249   -2.7943 C   0  0  0  0  0  0  0  0  0  0  0  0
   -1.2462    3.3366   -2.8621 H   0  0  0  0  0  0  0  0  0  0  0  0
   -0.7754    1.4536   -1.9152 C   0  0  0  0  0  0  0  0  0  0  0  0
   -1.6716    1.4432   -1.3086 H   0  0  0  0  0  0  0  0  0  0  0  0
   -1.2168    1.1047    0.4313 C   0  0  0  0  0  0  0  0  0  0  0  0
   -2.0890    1.6186   -0.2704 O   0  0  0  0  0  0  0  0  0  0  0  0
   -0.4674    1.8182    1.2813 N   0  0  0  0  0  0  0  0  0  0  0  0
    0.2640    1.3348    1.7800 H   0  0  0  0  0  0  0  0  0  0  0  0
   -0.5889    3.2615    1.4722 C   0  0  0  0  0  0  0  0  0  0  0  0
   -1.6291    3.5206    1.6805 H   0  0  0  0  0  0  0  0  0  0  0  0
    0.0359    3.5855    2.3049 H   0  0  0  0  0  0  0  0  0  0  0  0
   -0.2760    3.7797    0.5637 H   0  0  0  0  0  0  0  0  0  0  0  0
  5  6  2  0  0  0  0
  5  7  1  0  0  0  0
  2  3  1  0  0  0  0
  2  4  1  0  0  0  0
  2  5  1  0  0  0  0
  1  2  1  0  0  0  0
 25 26  2  0  0  0  0
 25 27  1  0  0  0  0
 23 24  1  0  0  0  0
 21 22  1  0  0  0  0
 21 23  2  0  0  0  0
 19 20  1  0  0  0  0
 19 21  1  0  0  0  0
 17 18  1  0  0  0  0
 17 19  2  0  0  0  0
 15 16  1  0  0  0  0
 15 17  1  0  0  0  0
 14 15  2  0  0  0  0
 14 23  1  0  0  0  0
 11 12  1  0  0  0  0
 11 13  1  0  0  0  0
 11 14  1  0  0  0  0
  9 10  1  0  0  0  0
  9 11  1  0  0  0  0
  9 25  1  0  0  0  0
  7  8  1  0  0  0  0
  7  9  1  0  0  0  0
 29 30  1  0  0  0  0
 29 31  1  0  0  0  0
 29 32  1  0  0  0  0
 27 28  1  0  0  0  0
 27 29  1  0  0  0  0
M  END
$$$$
default_name
  -OEChem-02102213163D

 32 32  0     1  0  0  0  0  0999 V2000
   -3.8405   -3.7518    1.6252 H   0  0  0  0  0  0  0  0  0  0  0  0
   -3.7965   -2.8768    0.9782 C   0  0  0  0  0  0  0  0  0  0  0  0
   -4.5465   -2.1527    1.2902 H   0  0  0  0  0  0  0  0  0  0  0  0
   -3.9745   -3.1748   -0.0538 H   0  0  0  0  0  0  0  0  0  0  0  0
   -2.4245   -2.2537    1.0882 C   0  0  0  0  0  0  0  0  0  0  0  0
   -1.5805   -2.7478    1.8242 O   0  0  0  0  0  0  0  0  0  0  0  0
   -2.2045   -1.1637    0.3562 N   0  0  0  0  0  0  0  0  0  0  0  0
   -2.9595   -0.7907   -0.2008 H   0  0  0  0  0  0  0  0  0  0  0  0
   -0.9485   -0.4087    0.3482 C   0  0  1  0  0  0  0  0  0  0  0  0
   -0.3666   -0.6914    1.2269 H   0  0  0  0  0  0  0  0  0  0  0  0
   -0.1405   -0.7797   -0.9072 C   0  0  0  0  0  0  0  0  0  0  0  0
    0.8131   -1.2120   -0.6009 H   0  0  0  0  0  0  0  0  0  0  0  0
   -0.6833   -1.5451   -1.4639 H   0  0  0  0  0  0  0  0  0  0  0  0
    0.1482    0.3949   -1.8225 C   0  0  0  0  0  0  0  0  0  0  0  0
    1.1258    0.2905   -2.8300 C   0  0  0  0  0  0  0  0  0  0  0  0
    1.6938   -0.6221   -2.9427 H   0  0  0  0  0  0  0  0  0  0  0  0
    1.3591    1.3702   -3.7017 C   0  0  0  0  0  0  0  0  0  0  0  0
    2.1121    1.2889   -4.4731 H   0  0  0  0  0  0  0  0  0  0  0  0
    0.6147    2.5546   -3.5689 C   0  0  0  0  0  0  0  0  0  0  0  0
    0.7956    3.3849   -4.2372 H   0  0  0  0  0  0  0  0  0  0  0  0
   -0.3620    2.6627   -2.5622 C   0  0  0  0  0  0  0  0  0  0  0  0
   -0.9305    3.5750   -2.4565 H   0  0  0  0  0  0  0  0  0  0  0  0
   -0.5926    1.5848   -1.6891 C   0  0  0  0  0  0  0  0  0  0  0  0
   -1.3419    1.6705   -0.9129 H   0  0  0  0  0  0  0  0  0  0  0  0
   -1.2168    1.1047    0.4313 C   0  0  0  0  0  0  0  0  0  0  0  0
   -2.0890    1.6186   -0.2704 O   0  0  0  0  0  0  0  0  0  0  0  0
   -0.4674    1.8182    1.2813 N   0  0  0  0  0  0  0  0  0  0  0  0
    0.2640    1.3348    1.7800 H   0  0  0  0  0  0  0  0  0  0  0  0
   -0.5889    3.2615    1.4722 C   0  0  0  0  0  0  0  0  0  0  0  0
   -1.6291    3.5206    1.6805 H   0  0  0  0  0  0  0  0  0  0  0  0
    0.0359    3.5855    2.3049 H   0  0  0  0  0  0  0  0  0  0  0  0
   -0.2760    3.7797    0.5637 H   0  0  0  0  0  0  0  0  0  0  0  0
  5  6  2  0  0  0  0
  5  7  1  0  0  0  0
  2  3  1  0  0  0  0
  2  4  1  0  0  0  0
  2  5  1  0  0  0  0
  1  2  1  0  0  0  0
 25 26  2  0  0  0  0
 25 27  1  0  0  0  0
 23 24  1  0  0  0  0
 21 22  1  0  0  0  0
 21 23  2  0  0  0  0
 19 20  1  0  0  0  0
 19 21  1  0  0  0  0
 17 18  1  0  0  0  0
 17 19  2  0  0  0  0
 15 16  1  0  0  0  0
 15 17  1  0  0  0  0
 14 15  2  0  0  0  0
 14 23  1  0  0  0  0
 11 12  1  0  0  0  0
 11 13  1  0  0  0  0
 11 14  1  0  0  0  0
  9 10  1  0  0  0  0
  9 11  1  0  0  0  0
  9 25  1  0  0  0  0
  7  8  1  0  0  0  0
  7  9  1  0  0  0  0
 29 30  1  0  0  0  0
 29 31  1  0  0  0  0
 29 32  1  0  0  0  0
 27 28  1  0  0  0  0
 27 29  1  0  0  0  0
M  END
$$$$
default_name
  -OEChem-02102213163D

 32 32  0     1  0  0  0  0  0999 V2000
   -3.8405   -3.7518    1.6252 H   0  0  0  0  0  0  0  0  0  0  0  0
   -3.7965   -2.8768    0.9782 C   0  0  0  0  0  0  0  0  0  0  0  0
   -4.5465   -2.1527    1.2902 H   0  0  0  0  0  0  0  0  0  0  0  0
   -3.9745   -3.1748   -0.0538 H   0  0  0  0  0  0  0  0  0  0  0  0
   -2.4245   -2.2537    1.0882 C   0  0  0  0  0  0  0  0  0  0  0  0
   -1.5805   -2.7478    1.8242 O   0  0  0  0  0  0  0  0  0  0  0  0
   -2.2045   -1.1637    0.3562 N   0  0  0  0  0  0  0  0  0  0  0  0
   -2.9595   -0.7907   -0.2008 H   0  0  0  0  0  0  0  0  0  0  0  0
   -0.9485   -0.4087    0.3482 C   0  0  1  0  0  0  0  0  0  0  0  0
   -0.3666   -0.6914    1.2269 H   0  0  0  0  0  0  0  0  0  0  0  0
   -0.1405   -0.7797   -0.9072 C   0  0  0  0  0  0  0  0  0  0  0  0
    0.6766   -1.4433   -0.6204 H   0  0  0  0  0  0  0  0  0  0  0  0
   -0.7854   -1.3316   -1.5927 H   0  0  0  0  0  0  0  0  0  0  0  0
    0.4546    0.4133   -1.6307 C   0  0  0  0  0  0  0  0  0  0  0  0
    1.2206    0.2304   -2.7976 C   0  0  0  0  0  0  0  0  0  0  0  0
    1.4085   -0.7657   -3.1729 H   0  0  0  0  0  0  0  0  0  0  0  0
    1.7347    1.3445   -3.4863 C   0  0  0  0  0  0  0  0  0  0  0  0
    2.3247    1.2017   -4.3807 H   0  0  0  0  0  0  0  0  0  0  0  0
    1.4825    2.6426   -3.0111 C   0  0  0  0  0  0  0  0  0  0  0  0
    1.8795    3.4984   -3.5389 H   0  0  0  0  0  0  0  0  0  0  0  0
    0.7187    2.8289   -1.8444 C   0  0  0  0  0  0  0  0  0  0  0  0
    0.5294    3.8264   -1.4760 H   0  0  0  0  0  0  0  0  0  0  0  0
    0.2079    1.7151   -1.1545 C   0  0  0  0  0  0  0  0  0  0  0  0
   -0.3767    1.8596   -0.2553 H   0  0  0  0  0  0  0  0  0  0  0  0
   -1.2168    1.1047    0.4313 C   0  0  0  0  0  0  0  0  0  0  0  0
   -2.0890    1.6186   -0.2704 O   0  0  0  0  0  0  0  0  0  0  0  0
   -0.4674    1.8182    1.2813 N   0  0  0  0  0  0  0  0  0  0  0  0
    0.2640    1.3348    1.7800 H   0  0  0  0  0  0  0  0  0  0  0  0
   -0.5889    3.2615    1.4722 C   0  0  0  0  0  0  0  0  0  0  0  0
   -1.6291    3.5206    1.6805 H   0  0  0  0  0  0  0  0  0  0  0  0
    0.0359    3.5855    2.3049 H   0  0  0  0  0  0  0  0  0  0  0  0
   -0.2760    3.7797    0.5637 H   0  0  0  0  0  0  0  0  0  0  0  0
  5  6  2  0  0  0  0
  5  7  1  0  0  0  0
  2  3  1  0  0  0  0
  2  4  1  0  0  0  0
  2  5  1  0  0  0  0
  1  2  1  0  0  0  0
 25 26  2  0  0  0  0
 25 27  1  0  0  0  0
 23 24  1  0  0  0  0
 21 22  1  0  0  0  0
 21 23  2  0  0  0  0
 19 20  1  0  0  0  0
 19 21  1  0  0  0  0
 17 18  1  0  0  0  0
 17 19  2  0  0  0  0
 15 16  1  0  0  0  0
 15 17  1  0  0  0  0
 14 15  2  0  0  0  0
 14 23  1  0  0  0  0
 11 12  1  0  0  0  0
 11 13  1  0  0  0  0
 11 14  1  0  0  0  0
  9 10  1  0  0  0  0
  9 11  1  0  0  0  0
  9 25  1  0  0  0  0
  7  8  1  0  0  0  0
  7  9  1  0  0  0  0
 29 30  1  0  0  0  0
 29 31  1  0  0  0  0
 29 32  1  0  0  0  0
 27 28  1  0  0  0  0
 27 29  1  0  0  0  0
M  END
$$$$
default_name
  -OEChem-02102213163D

 32 32  0     1  0  0  0  0  0999 V2000
   -3.8405   -3.7518    1.6252 H   0  0  0  0  0  0  0  0  0  0  0  0
   -3.7965   -2.8768    0.9782 C   0  0  0  0  0  0  0  0  0  0  0  0
   -4.5465   -2.1527    1.2902 H   0  0  0  0  0  0  0  0  0  0  0  0
   -3.9745   -3.1748   -0.0538 H   0  0  0  0  0  0  0  0  0  0  0  0
   -2.4245   -2.2537    1.0882 C   0  0  0  0  0  0  0  0  0  0  0  0
   -1.5805   -2.7478    1.8242 O   0  0  0  0  0  0  0  0  0  0  0  0
   -2.2045   -1.1637    0.3562 N   0  0  0  0  0  0  0  0  0  0  0  0
   -2.9595   -0.7907   -0.2008 H   0  0  0  0  0  0  0  0  0  0  0  0
   -0.9485   -0.4087    0.3482 C   0  0  1  0  0  0  0  0  0  0  0  0
   -0.3666   -0.6914    1.2269 H   0  0  0  0  0  0  0  0  0  0  0  0
   -0.1405   -0.7797   -0.9072 C   0  0  0  0  0  0  0  0  0  0  0  0
    0.6766   -1.4433   -0.6204 H   0  0  0  0  0  0  0  0  0  0  0  0
   -0.7854   -1.3316   -1.5927 H   0  0  0  0  0  0  0  0  0  0  0  0
    0.4546    0.4133   -1.6307 C   0  0  0  0  0  0  0  0  0  0  0  0
    0.9439    0.2796   -2.9439 C   0  0  0  0  0  0  0  0  0  0  0  0
    0.9190   -0.6818   -3.4372 H   0  0  0  0  0  0  0  0  0  0  0  0
    1.4566    1.3999   -3.6236 C   0  0  0  0  0  0  0  0  0  0  0  0
    1.8342    1.2946   -4.6310 H   0  0  0  0  0  0  0  0  0  0  0  0
    1.4793    2.6554   -2.9926 C   0  0  0  0  0  0  0  0  0  0  0  0
    1.8755    3.5156   -3.5140 H   0  0  0  0  0  0  0  0  0  0  0  0
    0.9926    2.7921   -1.6799 C   0  0  0  0  0  0  0  0  0  0  0  0
    1.0150    3.7559   -1.1928 H   0  0  0  0  0  0  0  0  0  0  0  0
    0.4833    1.6716   -0.9997 C   0  0  0  0  0  0  0  0  0  0  0  0
    0.1122    1.7774    0.0114 H   0  0  0  0  0  0  0  0  0  0  0  0
   -1.2168    1.1047    0.4313 C   0  0  0  0  0  0  0  0  0  0  0  0
   -2.0890    1.6186   -0.2704 O   0  0  0  0  0  0  0  0  0  0  0  0
   -0.4674    1.8182    1.2813 N   0  0  0  0  0  0  0  0  0  0  0  0
    0.2640    1.3348    1.7800 H   0  0  0  0  0  0  0  0  0  0  0  0
   -0.5889    3.2615    1.4722 C   0  0  0  0  0  0  0  0  0  0  0  0
   -1.6291    3.5206    1.6805 H   0  0  0  0  0  0  0  0  0  0  0  0
    0.0359    3.5855    2.3049 H   0  0  0  0  0  0  0  0  0  0  0  0
   -0.2760    3.7797    0.5637 H   0  0  0  0  0  0  0  0  0  0  0  0
  5  6  2  0  0  0  0
  5  7  1  0  0  0  0
  2  3  1  0  0  0  0
  2  4  1  0  0  0  0
  2  5  1  0  0  0  0
  1  2  1  0  0  0  0
 25 26  2  0  0  0  0
 25 27  1  0  0  0  0
 23 24  1  0  0  0  0
 21 22  1  0  0  0  0
 21 23  2  0  0  0  0
 19 20  1  0  0  0  0
 19 21  1  0  0  0  0
 17 18  1  0  0  0  0
 17 19  2  0  0  0  0
 15 16  1  0  0  0  0
 15 17  1  0  0  0  0
 14 15  2  0  0  0  0
 14 23  1  0  0  0  0
 11 12  1  0  0  0  0
 11 13  1  0  0  0  0
 11 14  1  0  0  0  0
  9 10  1  0  0  0  0
  9 11  1  0  0  0  0
  9 25  1  0  0  0  0
  7  8  1  0  0  0  0
  7  9  1  0  0  0  0
 29 30  1  0  0  0  0
 29 31  1  0  0  0  0
 29 32  1  0  0  0  0
 27 28  1  0  0  0  0
 27 29  1  0  0  0  0
M  END
$$$$
default_name
  -OEChem-02102213163D

 32 32  0     1  0  0  0  0  0999 V2000
   -3.8405   -3.7518    1.6252 H   0  0  0  0  0  0  0  0  0  0  0  0
   -3.7965   -2.8768    0.9782 C   0  0  0  0  0  0  0  0  0  0  0  0
   -4.5465   -2.1527    1.2902 H   0  0  0  0  0  0  0  0  0  0  0  0
   -3.9745   -3.1748   -0.0538 H   0  0  0  0  0  0  0  0  0  0  0  0
   -2.4245   -2.2537    1.0882 C   0  0  0  0  0  0  0  0  0  0  0  0
   -1.5805   -2.7478    1.8242 O   0  0  0  0  0  0  0  0  0  0  0  0
   -2.2045   -1.1637    0.3562 N   0  0  0  0  0  0  0  0  0  0  0  0
   -2.9595   -0.7907   -0.2008 H   0  0  0  0  0  0  0  0  0  0  0  0
   -0.9485   -0.4087    0.3482 C   0  0  1  0  0  0  0  0  0  0  0  0
   -0.3666   -0.6914    1.2269 H   0  0  0  0  0  0  0  0  0  0  0  0
   -0.1405   -0.7797   -0.9072 C   0  0  0  0  0  0  0  0  0  0  0  0
    0.6766   -1.4433   -0.6204 H   0  0  0  0  0  0  0  0  0  0  0  0
   -0.7854   -1.3316   -1.5927 H   0  0  0  0  0  0  0  0  0  0  0  0
    0.4546    0.4133   -1.6307 C   0  0  0  0  0  0  0  0  0  0  0  0
    0.6529    0.3763   -3.0239 C   0  0  0  0  0  0  0  0  0  0  0  0
    0.4027   -0.5135   -3.5843 H   0  0  0  0  0  0  0  0  0  0  0  0
    1.1669    1.5018   -3.6939 C   0  0  0  0  0  0  0  0  0  0  0  0
    1.3209    1.4703   -4.7634 H   0  0  0  0  0  0  0  0  0  0  0  0
    1.4816    2.6662   -2.9729 C   0  0  0  0  0  0  0  0  0  0  0  0
    1.8787    3.5301   -3.4873 H   0  0  0  0  0  0  0  0  0  0  0  0
    1.2861    2.7060   -1.5804 C   0  0  0  0  0  0  0  0  0  0  0  0
    1.5330    3.5991   -1.0253 H   0  0  0  0  0  0  0  0  0  0  0  0
    0.7754    1.5799   -0.9107 C   0  0  0  0  0  0  0  0  0  0  0  0
    0.6286    1.6107    0.1611 H   0  0  0  0  0  0  0  0  0  0  0  0
   -1.2168    1.1047    0.4313 C   0  0  0  0  0  0  0  0  0  0  0  0
   -2.0890    1.6186   -0.2704 O   0  0  0  0  0  0  0  0  0  0  0  0
   -0.4674    1.8182    1.2813 N   0  0  0  0  0  0  0  0  0  0  0  0
    0.2640    1.3348    1.7800 H   0  0  0  0  0  0  0  0  0  0  0  0
   -0.5889    3.2615    1.4722 C   0  0  0  0  0  0  0  0  0  0  0  0
   -1.6291    3.5206    1.6805 H   0  0  0  0  0  0  0  0  0  0  0  0
    0.0359    3.5855    2.3049 H   0  0  0  0  0  0  0  0  0  0  0  0
   -0.2760    3.7797    0.5637 H   0  0  0  0  0  0  0  0  0  0  0  0
  5  6  2  0  0  0  0
  5  7  1  0  0  0  0
  2  3  1  0  0  0  0
  2  4  1  0  0  0  0
  2  5  1  0  0  0  0
  1  2  1  0  0  0  0
 25 26  2  0  0  0  0
 25 27  1  0  0  0  0
 23 24  1  0  0  0  0
 21 22  1  0  0  0  0
 21 23  2  0  0  0  0
 19 20  1  0  0  0  0
 19 21  1  0  0  0  0
 17 18  1  0  0  0  0
 17 19  2  0  0  0  0
 15 16  1  0  0  0  0
 15 17  1  0  0  0  0
 14 15  2  0  0  0  0
 14 23  1  0  0  0  0
 11 12  1  0  0  0  0
 11 13  1  0  0  0  0
 11 14  1  0  0  0  0
  9 10  1  0  0  0  0
  9 11  1  0  0  0  0
  9 25  1  0  0  0  0
  7  8  1  0  0  0  0
  7  9  1  0  0  0  0
 29 30  1  0  0  0  0
 29 31  1  0  0  0  0
 29 32  1  0  0  0  0
 27 28  1  0  0  0  0
 27 29  1  0  0  0  0
M  END
$$$$
default_name
  -OEChem-02102213163D

 32 32  0     1  0  0  0  0  0999 V2000
   -3.8405   -3.7518    1.6252 H   0  0  0  0  0  0  0  0  0  0  0  0
   -3.7965   -2.8768    0.9782 C   0  0  0  0  0  0  0  0  0  0  0  0
   -4.5465   -2.1527    1.2902 H   0  0  0  0  0  0  0  0  0  0  0  0
   -3.9745   -3.1748   -0.0538 H   0  0  0  0  0  0  0  0  0  0  0  0
   -2.4245   -2.2537    1.0882 C   0  0  0  0  0  0  0  0  0  0  0  0
   -1.5805   -2.7478    1.8242 O   0  0  0  0  0  0  0  0  0  0  0  0
   -2.2045   -1.1637    0.3562 N   0  0  0  0  0  0  0  0  0  0  0  0
   -2.9595   -0.7907   -0.2008 H   0  0  0  0  0  0  0  0  0  0  0  0
   -0.9485   -0.4087    0.3482 C   0  0  1  0  0  0  0  0  0  0  0  0
   -0.3666   -0.6914    1.2269 H   0  0  0  0  0  0  0  0  0  0  0  0
   -0.1405   -0.7797   -0.9072 C   0  0  0  0  0  0  0  0  0  0  0  0
    0.6766   -1.4433   -0.6204 H   0  0  0  0  0  0  0  0  0  0  0  0
   -0.7854   -1.3316   -1.5927 H   0  0  0  0  0  0  0  0  0  0  0  0
    0.4546    0.4133   -1.6307 C   0  0  0  0  0  0  0  0  0  0  0  0
    0.3675    0.5136   -3.0322 C   0  0  0  0  0  0  0  0  0  0  0  0
   -0.1052   -0.2722   -3.6043 H   0  0  0  0  0  0  0  0  0  0  0  0
    0.8854    1.6431   -3.6925 C   0  0  0  0  0  0  0  0  0  0  0  0
    0.8198    1.7169   -4.7690 H   0  0  0  0  0  0  0  0  0  0  0  0
    1.4892    2.6744   -2.9532 C   0  0  0  0  0  0  0  0  0  0  0  0
    1.8891    3.5410   -3.4608 H   0  0  0  0  0  0  0  0  0  0  0  0
    1.5792    2.5766   -1.5527 C   0  0  0  0  0  0  0  0  0  0  0  0
    2.0481    3.3667   -0.9848 H   0  0  0  0  0  0  0  0  0  0  0  0
    1.0644    1.4462   -0.8934 C   0  0  0  0  0  0  0  0  0  0  0  0
    1.1373    1.3706    0.1837 H   0  0  0  0  0  0  0  0  0  0  0  0
   -1.2168    1.1047    0.4313 C   0  0  0  0  0  0  0  0  0  0  0  0
   -2.0890    1.6186   -0.2704 O   0  0  0  0  0  0  0  0  0  0  0  0
   -0.4674    1.8182    1.2813 N   0  0  0  0  0  0  0  0  0  0  0  0
    0.2640    1.3348    1.7800 H   0  0  0  0  0  0  0  0  0  0  0  0
   -0.5889    3.2615    1.4722 C   0  0  0  0  0  0  0  0  0  0  0  0
   -1.6291    3.5206    1.6805 H   0  0  0  0  0  0  0  0  0  0  0  0
    0.0359    3.5855    2.3049 H   0  0  0  0  0  0  0  0  0  0  0  0
   -0.2760    3.7797    0.5637 H   0  0  0  0  0  0  0  0  0  0  0  0
  5  6  2  0  0  0  0
  5  7  1  0  0  0  0
  2  3  1  0  0  0  0
  2  4  1  0  0  0  0
  2  5  1  0  0  0  0
  1  2  1  0  0  0  0
 25 26  2  0  0  0  0
 25 27  1  0  0  0  0
 23 24  1  0  0  0  0
 21 22  1  0  0  0  0
 21 23  2  0  0  0  0
 19 20  1  0  0  0  0
 19 21  1  0  0  0  0
 17 18  1  0  0  0  0
 17 19  2  0  0  0  0
 15 16  1  0  0  0  0
 15 17  1  0  0  0  0
 14 15  2  0  0  0  0
 14 23  1  0  0  0  0
 11 12  1  0  0  0  0
 11 13  1  0  0  0  0
 11 14  1  0  0  0  0
  9 10  1  0  0  0  0
  9 11  1  0  0  0  0
  9 25  1  0  0  0  0
  7  8  1  0  0  0  0
  7  9  1  0  0  0  0
 29 30  1  0  0  0  0
 29 31  1  0  0  0  0
 29 32  1  0  0  0  0
 27 28  1  0  0  0  0
 27 29  1  0  0  0  0
M  END
$$$$
default_name
  -OEChem-02102213163D

 32 32  0     1  0  0  0  0  0999 V2000
   -3.8405   -3.7518    1.6252 H   0  0  0  0  0  0  0  0  0  0  0  0
   -3.7965   -2.8768    0.9782 C   0  0  0  0  0  0  0  0  0  0  0  0
   -4.5465   -2.1527    1.2902 H   0  0  0  0  0  0  0  0  0  0  0  0
   -3.9745   -3.1748   -0.0538 H   0  0  0  0  0  0  0  0  0  0  0  0
   -2.4245   -2.2537    1.0882 C   0  0  0  0  0  0  0  0  0  0  0  0
   -1.5805   -2.7478    1.8242 O   0  0  0  0  0  0  0  0  0  0  0  0
   -2.2045   -1.1637    0.3562 N   0  0  0  0  0  0  0  0  0  0  0  0
   -2.9595   -0.7907   -0.2008 H   0  0  0  0  0  0  0  0  0  0  0  0
   -0.9485   -0.4087    0.3482 C   0  0  1  0  0  0  0  0  0  0  0  0
   -0.3666   -0.6914    1.2269 H   0  0  0  0  0  0  0  0  0  0  0  0
   -0.1405   -0.7797   -0.9072 C   0  0  0  0  0  0  0  0  0  0  0  0
    0.6766   -1.4433   -0.6204 H   0  0  0  0  0  0  0  0  0  0  0  0
   -0.7854   -1.3316   -1.5927 H   0  0  0  0  0  0  0  0  0  0  0  0
    0.4546    0.4133   -1.6307 C   0  0  0  0  0  0  0  0  0  0  0  0
    0.1071    0.6824   -2.9681 C   0  0  0  0  0  0  0  0  0  0  0  0
   -0.5701    0.0255   -3.4956 H   0  0  0  0  0  0  0  0  0  0  0  0
    0.6312    1.8142   -3.6195 C   0  0  0  0  0  0  0  0  0  0  0  0
    0.3651    2.0175   -4.6473 H   0  0  0  0  0  0  0  0  0  0  0  0
    1.5015    2.6793   -2.9349 C   0  0  0  0  0  0  0  0  0  0  0  0
    1.9059    3.5475   -3.4362 H   0  0  0  0  0  0  0  0  0  0  0  0
    1.8519    2.4125   -1.5989 C   0  0  0  0  0  0  0  0  0  0  0  0
    2.5251    3.0745   -1.0742 H   0  0  0  0  0  0  0  0  0  0  0  0
    1.3306    1.2796   -0.9492 C   0  0  0  0  0  0  0  0  0  0  0  0
    1.6036    1.0736    0.0776 H   0  0  0  0  0  0  0  0  0  0  0  0
   -1.2168    1.1047    0.4313 C   0  0  0  0  0  0  0  0  0  0  0  0
   -2.0890    1.6186   -0.2704 O   0  0  0  0  0  0  0  0  0  0  0  0
   -0.4674    1.8182    1.2813 N   0  0  0  0  0  0  0  0  0  0  0  0
    0.2640    1.3348    1.7800 H   0  0  0  0  0  0  0  0  0  0  0  0
   -0.5889    3.2615    1.4722 C   0  0  0  0  0  0  0  0  0  0  0  0
   -1.6291    3.5206    1.6805 H   0  0  0  0  0  0  0  0  0  0  0  0
    0.0359    3.5855    2.3049 H   0  0  0  0  0  0  0  0  0  0  0  0
   -0.2760    3.7797    0.5637 H   0  0  0  0  0  0  0  0  0  0  0  0
  5  6  2  0  0  0  0
  5  7  1  0  0  0  0
  2  3  1  0  0  0  0
  2  4  1  0  0  0  0
  2  5  1  0  0  0  0
  1  2  1  0  0  0  0
 25 26  2  0  0  0  0
 25 27  1  0  0  0  0
 23 24  1  0  0  0  0
 21 22  1  0  0  0  0
 21 23  2  0  0  0  0
 19 20  1  0  0  0  0
 19 21  1  0  0  0  0
 17 18  1  0  0  0  0
 17 19  2  0  0  0  0
 15 16  1  0  0  0  0
 15 17  1  0  0  0  0
 14 15  2  0  0  0  0
 14 23  1  0  0  0  0
 11 12  1  0  0  0  0
 11 13  1  0  0  0  0
 11 14  1  0  0  0  0
  9 10  1  0  0  0  0
  9 11  1  0  0  0  0
  9 25  1  0  0  0  0
  7  8  1  0  0  0  0
  7  9  1  0  0  0  0
 29 30  1  0  0  0  0
 29 31  1  0  0  0  0
 29 32  1  0  0  0  0
 27 28  1  0  0  0  0
 27 29  1  0  0  0  0
M  END
$$$$
default_name
  -OEChem-02102213163D

 32 32  0     1  0  0  0  0  0999 V2000
   -3.8405   -3.7518    1.6252 H   0  0  0  0  0  0  0  0  0  0  0  0
   -3.7965   -2.8768    0.9782 C   0  0  0  0  0  0  0  0  0  0  0  0
   -4.5465   -2.1527    1.2902 H   0  0  0  0  0  0  0  0  0  0  0  0
   -3.9745   -3.1748   -0.0538 H   0  0  0  0  0  0  0  0  0  0  0  0
   -2.4245   -2.2537    1.0882 C   0  0  0  0  0  0  0  0  0  0  0  0
   -1.5805   -2.7478    1.8242 O   0  0  0  0  0  0  0  0  0  0  0  0
   -2.2045   -1.1637    0.3562 N   0  0  0  0  0  0  0  0  0  0  0  0
   -2.9595   -0.7907   -0.2008 H   0  0  0  0  0  0  0  0  0  0  0  0
   -0.9485   -0.4087    0.3482 C   0  0  1  0  0  0  0  0  0  0  0  0
   -0.3666   -0.6914    1.2269 H   0  0  0  0  0  0  0  0  0  0  0  0
   -0.1405   -0.7797   -0.9072 C   0  0  0  0  0  0  0  0  0  0  0  0
    0.6766   -1.4433   -0.6204 H   0  0  0  0  0  0  0  0  0  0  0  0
   -0.7854   -1.3316   -1.5927 H   0  0  0  0  0  0  0  0  0  0  0  0
    0.4546    0.4133   -1.6307 C   0  0  0  0  0  0  0  0  0  0  0  0
   -0.1105    0.8710   -2.8361 C   0  0  0  0  0  0  0  0  0  0  0  0
   -0.9602    0.3595   -3.2659 H   0  0  0  0  0  0  0  0  0  0  0  0
    0.4216    2.0034   -3.4799 C   0  0  0  0  0  0  0  0  0  0  0  0
   -0.0122    2.3516   -4.4067 H   0  0  0  0  0  0  0  0  0  0  0  0
    1.5177    2.6808   -2.9192 C   0  0  0  0  0  0  0  0  0  0  0  0
    1.9280    3.5493   -3.4151 H   0  0  0  0  0  0  0  0  0  0  0  0
    2.0857    2.2251   -1.7156 C   0  0  0  0  0  0  0  0  0  0  0  0
    2.9317    2.7424   -1.2873 H   0  0  0  0  0  0  0  0  0  0  0  0
    1.5558    1.0915   -1.0741 C   0  0  0  0  0  0  0  0  0  0  0  0
    1.9958    0.7400   -0.1500 H   0  0  0  0  0  0  0  0  0  0  0  0
   -1.2168    1.1047    0.4313 C   0  0  0  0  0  0  0  0  0  0  0  0
   -2.0890    1.6186   -0.2704 O   0  0  0  0  0  0  0  0  0  0  0  0
   -0.4674    1.8182    1.2813 N   0  0  0  0  0  0  0  0  0  0  0  0
    0.2640    1.3348    1.7800 H   0  0  0  0  0  0  0  0  0  0  0  0
   -0.5889    3.2615    1.4722 C   0  0  0  0  0  0  0  0  0  0  0  0
   -1.6291    3.5206    1.6805 H   0  0  0  0  0  0  0  0  0  0  0  0
    0.0359    3.5855    2.3049 H   0  0  0  0  0  0  0  0  0  0  0  0
   -0.2760    3.7797    0.5637 H   0  0  0  0  0  0  0  0  0  0  0  0
  5  6  2  0  0  0  0
  5  7  1  0  0  0  0
  2  3  1  0  0  0  0
  2  4  1  0  0  0  0
  2  5  1  0  0  0  0
  1  2  1  0  0  0  0
 25 26  2  0  0  0  0
 25 27  1  0  0  0  0
 23 24  1  0  0  0  0
 21 22  1  0  0  0  0
 21 23  2  0  0  0  0
 19 20  1  0  0  0  0
 19 21  1  0  0  0  0
 17 18  1  0  0  0  0
 17 19  2  0  0  0  0
 15 16  1  0  0  0  0
 15 17  1  0  0  0  0
 14 15  2  0  0  0  0
 14 23  1  0  0  0  0
 11 12  1  0  0  0  0
 11 13  1  0  0  0  0
 11 14  1  0  0  0  0
  9 10  1  0  0  0  0
  9 11  1  0  0  0  0
  9 25  1  0  0  0  0
  7  8  1  0  0  0  0
  7  9  1  0  0  0  0
 29 30  1  0  0  0  0
 29 31  1  0  0  0  0
 29 32  1  0  0  0  0
 27 28  1  0  0  0  0
 27 29  1  0  0  0  0
M  END
$$$$
default_name
  -OEChem-02102213163D

 32 32  0     1  0  0  0  0  0999 V2000
   -3.8405   -3.7518    1.6252 H   0  0  0  0  0  0  0  0  0  0  0  0
   -3.7965   -2.8768    0.9782 C   0  0  0  0  0  0  0  0  0  0  0  0
   -4.5465   -2.1527    1.2902 H   0  0  0  0  0  0  0  0  0  0  0  0
   -3.9745   -3.1748   -0.0538 H   0  0  0  0  0  0  0  0  0  0  0  0
   -2.4245   -2.2537    1.0882 C   0  0  0  0  0  0  0  0  0  0  0  0
   -1.5805   -2.7478    1.8242 O   0  0  0  0  0  0  0  0  0  0  0  0
   -2.2045   -1.1637    0.3562 N   0  0  0  0  0  0  0  0  0  0  0  0
   -2.9595   -0.7907   -0.2008 H   0  0  0  0  0  0  0  0  0  0  0  0
   -0.9485   -0.4087    0.3482 C   0  0  1  0  0  0  0  0  0  0  0  0
   -0.3666   -0.6914    1.2269 H   0  0  0  0  0  0  0  0  0  0  0  0
   -0.1405   -0.7797   -0.9072 C   0  0  0  0  0  0  0  0  0  0  0  0
    0.6766   -1.4433   -0.6204 H   0  0  0  0  0  0  0  0  0  0  0  0
   -0.7854   -1.3316   -1.5927 H   0  0  0  0  0  0  0  0  0  0  0  0
    0.4546    0.4133   -1.6307 C   0  0  0  0  0  0  0  0  0  0  0  0
   -0.2706    1.0667   -2.6451 C   0  0  0  0  0  0  0  0  0  0  0  0
   -1.2490    0.7069   -2.9306 H   0  0  0  0  0  0  0  0  0  0  0  0
    0.2709    2.1978   -3.2832 C   0  0  0  0  0  0  0  0  0  0  0  0
   -0.2865    2.6966   -4.0636 H   0  0  0  0  0  0  0  0  0  0  0  0
    1.5367    2.6785   -2.9072 C   0  0  0  0  0  0  0  0  0  0  0  0
    1.9538    3.5462   -3.3991 H   0  0  0  0  0  0  0  0  0  0  0  0
    2.2647    2.0270   -1.8950 C   0  0  0  0  0  0  0  0  0  0  0  0
    3.2400    2.3931   -1.6096 H   0  0  0  0  0  0  0  0  0  0  0  0
    1.7246    0.8947   -1.2598 C   0  0  0  0  0  0  0  0  0  0  0  0
    2.2871    0.3924   -0.4835 H   0  0  0  0  0  0  0  0  0  0  0  0
   -1.2168    1.1047    0.4313 C   0  0  0  0  0  0  0  0  0  0  0  0
   -2.0890    1.6186   -0.2704 O   0  0  0  0  0  0  0  0  0  0  0  0
   -0.4674    1.8182    1.2813 N   0  0  0  0  0  0  0  0  0  0  0  0
    0.2640    1.3348    1.7800 H   0  0  0  0  0  0  0  0  0  0  0  0
   -0.5889    3.2615    1.4722 C   0  0  0  0  0  0  0  0  0  0  0  0
   -1.6291    3.5206    1.6805 H   0  0  0  0  0  0  0  0  0  0  0  0
    0.0359    3.5855    2.3049 H   0  0  0  0  0  0  0  0  0  0  0  0
   -0.2760    3.7797    0.5637 H   0  0  0  0  0  0  0  0  0  0  0  0
  5  6  2  0  0  0  0
  5  7  1  0  0  0  0
  2  3  1  0  0  0  0
  2  4  1  0  0  0  0
  2  5  1  0  0  0  0
  1  2  1  0  0  0  0
 25 26  2  0  0  0  0
 25 27  1  0  0  0  0
 23 24  1  0  0  0  0
 21 22  1  0  0  0  0
 21 23  2  0  0  0  0
 19 20  1  0  0  0  0
 19 21  1  0  0  0  0
 17 18  1  0  0  0  0
 17 19  2  0  0  0  0
 15 16  1  0  0  0  0
 15 17  1  0  0  0  0
 14 15  2  0  0  0  0
 14 23  1  0  0  0  0
 11 12  1  0  0  0  0
 11 13  1  0  0  0  0
 11 14  1  0  0  0  0
  9 10  1  0  0  0  0
  9 11  1  0  0  0  0
  9 25  1  0  0  0  0
  7  8  1  0  0  0  0
  7  9  1  0  0  0  0
 29 30  1  0  0  0  0
 29 31  1  0  0  0  0
 29 32  1  0  0  0  0
 27 28  1  0  0  0  0
 27 29  1  0  0  0  0
M  END
$$$$
default_name
  -OEChem-02102213163D

 32 32  0     1  0  0  0  0  0999 V2000
   -3.8405   -3.7518    1.6252 H   0  0  0  0  0  0  0  0  0  0  0  0
   -3.7965   -2.8768    0.9782 C   0  0  0  0  0  0  0  0  0  0  0  0
   -4.5465   -2.1527    1.2902 H   0  0  0  0  0  0  0  0  0  0  0  0
   -3.9745   -3.1748   -0.0538 H   0  0  0  0  0  0  0  0  0  0  0  0
   -2.4245   -2.2537    1.0882 C   0  0  0  0  0  0  0  0  0  0  0  0
   -1.5805   -2.7478    1.8242 O   0  0  0  0  0  0  0  0  0  0  0  0
   -2.2045   -1.1637    0.3562 N   0  0  0  0  0  0  0  0  0  0  0  0
   -2.9595   -0.7907   -0.2008 H   0  0  0  0  0  0  0  0  0  0  0  0
   -0.9485   -0.4087    0.3482 C   0  0  1  0  0  0  0  0  0  0  0  0
   -0.3666   -0.6914    1.2269 H   0  0  0  0  0  0  0  0  0  0  0  0
   -0.1405   -0.7797   -0.9072 C   0  0  0  0  0  0  0  0  0  0  0  0
    0.6766   -1.4433   -0.6204 H   0  0  0  0  0  0  0  0  0  0  0  0
   -0.7854   -1.3316   -1.5927 H   0  0  0  0  0  0  0  0  0  0  0  0
    0.4546    0.4133   -1.6307 C   0  0  0  0  0  0  0  0  0  0  0  0
   -0.3622    1.2561   -2.4081 C   0  0  0  0  0  0  0  0  0  0  0  0
   -1.4169    1.0441   -2.5127 H   0  0  0  0  0  0  0  0  0  0  0  0
    0.1895    2.3843   -3.0427 C   0  0  0  0  0  0  0  0  0  0  0  0
   -0.4389    3.0287   -3.6413 H   0  0  0  0  0  0  0  0  0  0  0  0
    1.5573    2.6728   -2.8997 C   0  0  0  0  0  0  0  0  0  0  0  0
    1.9816    3.5383   -3.3892 H   0  0  0  0  0  0  0  0  0  0  0  0
    2.3766    1.8318   -2.1248 C   0  0  0  0  0  0  0  0  0  0  0  0
    3.4291    2.0504   -2.0192 H   0  0  0  0  0  0  0  0  0  0  0  0
    1.8257    0.7026   -1.4934 C   0  0  0  0  0  0  0  0  0  0  0  0
    2.4577    0.0545   -0.9002 H   0  0  0  0  0  0  0  0  0  0  0  0
   -1.2168    1.1047    0.4313 C   0  0  0  0  0  0  0  0  0  0  0  0
   -2.0890    1.6186   -0.2704 O   0  0  0  0  0  0  0  0  0  0  0  0
   -0.4674    1.8182    1.2813 N   0  0  0  0  0  0  0  0  0  0  0  0
    0.2640    1.3348    1.7800 H   0  0  0  0  0  0  0  0  0  0  0  0
   -0.5889    3.2615    1.4722 C   0  0  0  0  0  0  0  0  0  0  0  0
   -1.6291    3.5206    1.6805 H   0  0  0  0  0  0  0  0  0  0  0  0
    0.0359    3.5855    2.3049 H   0  0  0  0  0  0  0  0  0  0  0  0
   -0.2760    3.7797    0.5637 H   0  0  0  0  0  0  0  0  0  0  0  0
  5  6  2  0  0  0  0
  5  7  1  0  0  0  0
  2  3  1  0  0  0  0
  2  4  1  0  0  0  0
  2  5  1  0  0  0  0
  1  2  1  0  0  0  0
 25 26  2  0  0  0  0
 25 27  1  0  0  0  0
 23 24  1  0  0  0  0
 21 22  1  0  0  0  0
 21 23  2  0  0  0  0
 19 20  1  0  0  0  0
 19 21  1  0  0  0  0
 17 18  1  0  0  0  0
 17 19  2  0  0  0  0
 15 16  1  0  0  0  0
 15 17  1  0  0  0  0
 14 15  2  0  0  0  0
 14 23  1  0  0  0  0
 11 12  1  0  0  0  0
 11 13  1  0  0  0  0
 11 14  1  0  0  0  0
  9 10  1  0  0  0  0
  9 11  1  0  0  0  0
  9 25  1  0  0  0  0
  7  8  1  0  0  0  0
  7  9  1  0  0  0  0
 29 30  1  0  0  0  0
 29 31  1  0  0  0  0
 29 32  1  0  0  0  0
 27 28  1  0  0  0  0
 27 29  1  0  0  0  0
M  END
$$$$
default_name
  -OEChem-02102213163D

 32 32  0     1  0  0  0  0  0999 V2000
   -3.8405   -3.7518    1.6252 H   0  0  0  0  0  0  0  0  0  0  0  0
   -3.7965   -2.8768    0.9782 C   0  0  0  0  0  0  0  0  0  0  0  0
   -4.5465   -2.1527    1.2902 H   0  0  0  0  0  0  0  0  0  0  0  0
   -3.9745   -3.1748   -0.0538 H   0  0  0  0  0  0  0  0  0  0  0  0
   -2.4245   -2.2537    1.0882 C   0  0  0  0  0  0  0  0  0  0  0  0
   -1.5805   -2.7478    1.8242 O   0  0  0  0  0  0  0  0  0  0  0  0
   -2.2045   -1.1637    0.3562 N   0  0  0  0  0  0  0  0  0  0  0  0
   -2.9595   -0.7907   -0.2008 H   0  0  0  0  0  0  0  0  0  0  0  0
   -0.9485   -0.4087    0.3482 C   0  0  1  0  0  0  0  0  0  0  0  0
   -0.3666   -0.6914    1.2269 H   0  0  0  0  0  0  0  0  0  0  0  0
   -0.1405   -0.7797   -0.9072 C   0  0  0  0  0  0  0  0  0  0  0  0
    0.6766   -1.4433   -0.6204 H   0  0  0  0  0  0  0  0  0  0  0  0
   -0.7854   -1.3316   -1.5927 H   0  0  0  0  0  0  0  0  0  0  0  0
    0.4546    0.4133   -1.6307 C   0  0  0  0  0  0  0  0  0  0  0  0
   -0.3790    1.4263   -2.1414 C   0  0  0  0  0  0  0  0  0  0  0  0
   -1.4523    1.3481   -2.0405 H   0  0  0  0  0  0  0  0  0  0  0  0
    0.1827    2.5501   -2.7749 C   0  0  0  0  0  0  0  0  0  0  0  0
   -0.4593    3.3255   -3.1687 H   0  0  0  0  0  0  0  0  0  0  0  0
    1.5780    2.6640   -2.8973 C   0  0  0  0  0  0  0  0  0  0  0  0
    2.0094    3.5263   -3.3861 H   0  0  0  0  0  0  0  0  0  0  0  0
    2.4138    1.6528   -2.3894 C   0  0  0  0  0  0  0  0  0  0  0  0
    3.4860    1.7376   -2.4881 H   0  0  0  0  0  0  0  0  0  0  0  0
    1.8519    0.5283   -1.7592 C   0  0  0  0  0  0  0  0  0  0  0  0
    2.4959   -0.2506   -1.3718 H   0  0  0  0  0  0  0  0  0  0  0  0
   -1.2168    1.1047    0.4313 C   0  0  0  0  0  0  0  0  0  0  0  0
   -2.0890    1.6186   -0.2704 O   0  0  0  0  0  0  0  0  0  0  0  0
   -0.4674    1.8182    1.2813 N   0  0  0  0  0  0  0  0  0  0  0  0
    0.2640    1.3348    1.7800 H   0  0  0  0  0  0  0  0  0  0  0  0
   -0.5889    3.2615    1.4722 C   0  0  0  0  0  0  0  0  0  0  0  0
   -1.6291    3.5206    1.6805 H   0  0  0  0  0  0  0  0  0  0  0  0
    0.0359    3.5855    2.3049 H   0  0  0  0  0  0  0  0  0  0  0  0
   -0.2760    3.7797    0.5637 H   0  0  0  0  0  0  0  0  0  0  0  0
  5  6  2  0  0  0  0
  5  7  1  0  0  0  0
  2  3  1  0  0  0  0
  2  4  1  0  0  0  0
  2  5  1  0  0  0  0
  1  2  1  0  0  0  0
 25 26  2  0  0  0  0
 25 27  1  0  0  0  0
 23 24  1  0  0  0  0
 21 22  1  0  0  0  0
 21 23  2  0  0  0  0
 19 20  1  0  0  0  0
 19 21  1  0  0  0  0
 17 18  1  0  0  0  0
 17 19  2  0  0  0  0
 15 16  1  0  0  0  0
 15 17  1  0  0  0  0
 14 15  2  0  0  0  0
 14 23  1  0  0  0  0
 11 12  1  0  0  0  0
 11 13  1  0  0  0  0
 11 14  1  0  0  0  0
  9 10  1  0  0  0  0
  9 11  1  0  0  0  0
  9 25  1  0  0  0  0
  7  8  1  0  0  0  0
  7  9  1  0  0  0  0
 29 30  1  0  0  0  0
 29 31  1  0  0  0  0
 29 32  1  0  0  0  0
 27 28  1  0  0  0  0
 27 29  1  0  0  0  0
M  END
$$$$
default_name
  -OEChem-02102213163D

 32 32  0     1  0  0  0  0  0999 V2000
   -3.8405   -3.7518    1.6252 H   0  0  0  0  0  0  0  0  0  0  0  0
   -3.7965   -2.8768    0.9782 C   0  0  0  0  0  0  0  0  0  0  0  0
   -4.5465   -2.1527    1.2902 H   0  0  0  0  0  0  0  0  0  0  0  0
   -3.9745   -3.1748   -0.0538 H   0  0  0  0  0  0  0  0  0  0  0  0
   -2.4245   -2.2537    1.0882 C   0  0  0  0  0  0  0  0  0  0  0  0
   -1.5805   -2.7478    1.8242 O   0  0  0  0  0  0  0  0  0  0  0  0
   -2.2045   -1.1637    0.3562 N   0  0  0  0  0  0  0  0  0  0  0  0
   -2.9595   -0.7907   -0.2008 H   0  0  0  0  0  0  0  0  0  0  0  0
   -0.9485   -0.4087    0.3482 C   0  0  1  0  0  0  0  0  0  0  0  0
   -0.3666   -0.6914    1.2269 H   0  0  0  0  0  0  0  0  0  0  0  0
   -0.1405   -0.7797   -0.9072 C   0  0  0  0  0  0  0  0  0  0  0  0
    0.6766   -1.4433   -0.6204 H   0  0  0  0  0  0  0  0  0  0  0  0
   -0.7854   -1.3316   -1.5927 H   0  0  0  0  0  0  0  0  0  0  0  0
    0.4546    0.4133   -1.6307 C   0  0  0  0  0  0  0  0  0  0  0  0
   -0.3200    1.5656   -1.8630 C   0  0  0  0  0  0  0  0  0  0  0  0
   -1.3529    1.5982   -1.5465 H   0  0  0  0  0  0  0  0  0  0  0  0
    0.2512    2.6838   -2.4981 C   0  0  0  0  0  0  0  0  0  0  0  0
   -0.3460    3.5667   -2.6779 H   0  0  0  0  0  0  0  0  0  0  0  0
    1.5974    2.6527   -2.9000 C   0  0  0  0  0  0  0  0  0  0  0  0
    2.0355    3.5109   -3.3900 H   0  0  0  0  0  0  0  0  0  0  0  0
    2.3738    1.5022   -2.6707 C   0  0  0  0  0  0  0  0  0  0  0  0
    3.4070    1.4761   -2.9844 H   0  0  0  0  0  0  0  0  0  0  0  0
    1.8017    0.3837   -2.0390 C   0  0  0  0  0  0  0  0  0  0  0  0
    2.3992   -0.5021   -1.8661 H   0  0  0  0  0  0  0  0  0  0  0  0
   -1.2168    1.1047    0.4313 C   0  0  0  0  0  0  0  0  0  0  0  0
   -2.0890    1.6186   -0.2704 O   0  0  0  0  0  0  0  0  0  0  0  0
   -0.4674    1.8182    1.2813 N   0  0  0  0  0  0  0  0  0  0  0  0
    0.2640    1.3348    1.7800 H   0  0  0  0  0  0  0  0  0  0  0  0
   -0.5889    3.2615    1.4722 C   0  0  0  0  0  0  0  0  0  0  0  0
   -1.6291    3.5206    1.6805 H   0  0  0  0  0  0  0  0  0  0  0  0
    0.0359    3.5855    2.3049 H   0  0  0  0  0  0  0  0  0  0  0  0
   -0.2760    3.7797    0.5637 H   0  0  0  0  0  0  0  0  0  0  0  0
  5  6  2  0  0  0  0
  5  7  1  0  0  0  0
  2  3  1  0  0  0  0
  2  4  1  0  0  0  0
  2  5  1  0  0  0  0
  1  2  1  0  0  0  0
 25 26  2  0  0  0  0
 25 27  1  0  0  0  0
 23 24  1  0  0  0  0
 21 22  1  0  0  0  0
 21 23  2  0  0  0  0
 19 20  1  0  0  0  0
 19 21  1  0  0  0  0
 17 18  1  0  0  0  0
 17 19  2  0  0  0  0
 15 16  1  0  0  0  0
 15 17  1  0  0  0  0
 14 15  2  0  0  0  0
 14 23  1  0  0  0  0
 11 12  1  0  0  0  0
 11 13  1  0  0  0  0
 11 14  1  0  0  0  0
  9 10  1  0  0  0  0
  9 11  1  0  0  0  0
  9 25  1  0  0  0  0
  7  8  1  0  0  0  0
  7  9  1  0  0  0  0
 29 30  1  0  0  0  0
 29 31  1  0  0  0  0
 29 32  1  0  0  0  0
 27 28  1  0  0  0  0
 27 29  1  0  0  0  0
M  END
$$$$
default_name
  -OEChem-02102213163D

 32 32  0     1  0  0  0  0  0999 V2000
   -3.8405   -3.7518    1.6252 H   0  0  0  0  0  0  0  0  0  0  0  0
   -3.7965   -2.8768    0.9782 C   0  0  0  0  0  0  0  0  0  0  0  0
   -4.5465   -2.1527    1.2902 H   0  0  0  0  0  0  0  0  0  0  0  0
   -3.9745   -3.1748   -0.0538 H   0  0  0  0  0  0  0  0  0  0  0  0
   -2.4245   -2.2537    1.0882 C   0  0  0  0  0  0  0  0  0  0  0  0
   -1.5805   -2.7478    1.8242 O   0  0  0  0  0  0  0  0  0  0  0  0
   -2.2045   -1.1637    0.3562 N   0  0  0  0  0  0  0  0  0  0  0  0
   -2.9595   -0.7907   -0.2008 H   0  0  0  0  0  0  0  0  0  0  0  0
   -0.9485   -0.4087    0.3482 C   0  0  1  0  0  0  0  0  0  0  0  0
   -0.3666   -0.6914    1.2269 H   0  0  0  0  0  0  0  0  0  0  0  0
   -0.1405   -0.7797   -0.9072 C   0  0  0  0  0  0  0  0  0  0  0  0
    0.6766   -1.4433   -0.6204 H   0  0  0  0  0  0  0  0  0  0  0  0
   -0.7854   -1.3316   -1.5927 H   0  0  0  0  0  0  0  0  0  0  0  0
    0.4546    0.4133   -1.6307 C   0  0  0  0  0  0  0  0  0  0  0  0
   -0.1891    1.6647   -1.5920 C   0  0  0  0  0  0  0  0  0  0  0  0
   -1.1255    1.7773   -1.0640 H   0  0  0  0  0  0  0  0  0  0  0  0
    0.3902    2.7764   -2.2310 C   0  0  0  0  0  0  0  0  0  0  0  0
   -0.1070    3.7359   -2.2023 H   0  0  0  0  0  0  0  0  0  0  0  0
    1.6141    2.6396   -2.9077 C   0  0  0  0  0  0  0  0  0  0  0  0
    2.0580    3.4932   -3.4006 H   0  0  0  0  0  0  0  0  0  0  0  0
    2.2592    1.3902   -2.9495 C   0  0  0  0  0  0  0  0  0  0  0  0
    3.1973    1.2836   -3.4742 H   0  0  0  0  0  0  0  0  0  0  0  0
    1.6784    0.2786   -2.3136 C   0  0  0  0  0  0  0  0  0  0  0  0
    2.1740   -0.6829   -2.3494 H   0  0  0  0  0  0  0  0  0  0  0  0
   -1.2168    1.1047    0.4313 C   0  0  0  0  0  0  0  0  0  0  0  0
   -2.0890    1.6186   -0.2704 O   0  0  0  0  0  0  0  0  0  0  0  0
   -0.4674    1.8182    1.2813 N   0  0  0  0  0  0  0  0  0  0  0  0
    0.2640    1.3348    1.7800 H   0  0  0  0  0  0  0  0  0  0  0  0
   -0.5889    3.2615    1.4722 C   0  0  0  0  0  0  0  0  0  0  0  0
   -1.6291    3.5206    1.6805 H   0  0  0  0  0  0  0  0  0  0  0  0
    0.0359    3.5855    2.3049 H   0  0  0  0  0  0  0  0  0  0  0  0
   -0.2760    3.7797    0.5637 H   0  0  0  0  0  0  0  0  0  0  0  0
  5  6  2  0  0  0  0
  5  7  1  0  0  0  0
  2  3  1  0  0  0  0
  2  4  1  0  0  0  0
  2  5  1  0  0  0  0
  1  2  1  0  0  0  0
 25 26  2  0  0  0  0
 25 27  1  0  0  0  0
 23 24  1  0  0  0  0
 21 22  1  0  0  0  0
 21 23  2  0  0  0  0
 19 20  1  0  0  0  0
 19 21  1  0  0  0  0
 17 18  1  0  0  0  0
 17 19  2  0  0  0  0
 15 16  1  0  0  0  0
 15 17  1  0  0  0  0
 14 15  2  0  0  0  0
 14 23  1  0  0  0  0
 11 12  1  0  0  0  0
 11 13  1  0  0  0  0
 11 14  1  0  0  0  0
  9 10  1  0  0  0  0
  9 11  1  0  0  0  0
  9 25  1  0  0  0  0
  7  8  1  0  0  0  0
  7  9  1  0  0  0  0
 29 30  1  0  0  0  0
 29 31  1  0  0  0  0
 29 32  1  0  0  0  0
 27 28  1  0  0  0  0
 27 29  1  0  0  0  0
M  END
$$$$
default_name
  -OEChem-02102213163D

 32 32  0     1  0  0  0  0  0999 V2000
   -3.8405   -3.7518    1.6252 H   0  0  0  0  0  0  0  0  0  0  0  0
   -3.7965   -2.8768    0.9782 C   0  0  0  0  0  0  0  0  0  0  0  0
   -4.5465   -2.1527    1.2902 H   0  0  0  0  0  0  0  0  0  0  0  0
   -3.9745   -3.1748   -0.0538 H   0  0  0  0  0  0  0  0  0  0  0  0
   -2.4245   -2.2537    1.0882 C   0  0  0  0  0  0  0  0  0  0  0  0
   -1.5805   -2.7478    1.8242 O   0  0  0  0  0  0  0  0  0  0  0  0
   -2.2045   -1.1637    0.3562 N   0  0  0  0  0  0  0  0  0  0  0  0
   -2.9595   -0.7907   -0.2008 H   0  0  0  0  0  0  0  0  0  0  0  0
   -0.9485   -0.4087    0.3482 C   0  0  1  0  0  0  0  0  0  0  0  0
   -0.3666   -0.6914    1.2269 H   0  0  0  0  0  0  0  0  0  0  0  0
   -0.1405   -0.7797   -0.9072 C   0  0  0  0  0  0  0  0  0  0  0  0
    0.6766   -1.4433   -0.6204 H   0  0  0  0  0  0  0  0  0  0  0  0
   -0.7854   -1.3316   -1.5927 H   0  0  0  0  0  0  0  0  0  0  0  0
    0.4546    0.4133   -1.6307 C   0  0  0  0  0  0  0  0  0  0  0  0
    0.0047    1.7167   -1.3468 C   0  0  0  0  0  0  0  0  0  0  0  0
   -0.7855    1.8733   -0.6262 H   0  0  0  0  0  0  0  0  0  0  0  0
    0.5903    2.8216   -1.9920 C   0  0  0  0  0  0  0  0  0  0  0  0
    0.2416    3.8215   -1.7745 H   0  0  0  0  0  0  0  0  0  0  0  0
    1.6272    2.6257   -2.9199 C   0  0  0  0  0  0  0  0  0  0  0  0
    2.0754    3.4745   -3.4173 H   0  0  0  0  0  0  0  0  0  0  0  0
    2.0780    1.3244   -3.2070 C   0  0  0  0  0  0  0  0  0  0  0  0
    2.8713    1.1733   -3.9243 H   0  0  0  0  0  0  0  0  0  0  0  0
    1.4904    0.2202   -2.5645 C   0  0  0  0  0  0  0  0  0  0  0  0
    1.8359   -0.7807   -2.7887 H   0  0  0  0  0  0  0  0  0  0  0  0
   -1.2168    1.1047    0.4313 C   0  0  0  0  0  0  0  0  0  0  0  0
   -2.0890    1.6186   -0.2704 O   0  0  0  0  0  0  0  0  0  0  0  0
   -0.4674    1.8182    1.2813 N   0  0  0  0  0  0  0  0  0  0  0  0
    0.2640    1.3348    1.7800 H   0  0  0  0  0  0  0  0  0  0  0  0
   -0.5889    3.2615    1.4722 C   0  0  0  0  0  0  0  0  0  0  0  0
   -1.6291    3.5206    1.6805 H   0  0  0  0  0  0  0  0  0  0  0  0
    0.0359    3.5855    2.3049 H   0  0  0  0  0  0  0  0  0  0  0  0
   -0.2760    3.7797    0.5637 H   0  0  0  0  0  0  0  0  0  0  0  0
  5  6  2  0  0  0  0
  5  7  1  0  0  0  0
  2  3  1  0  0  0  0
  2  4  1  0  0  0  0
  2  5  1  0  0  0  0
  1  2  1  0  0  0  0
 25 26  2  0  0  0  0
 25 27  1  0  0  0  0
 23 24  1  0  0  0  0
 21 22  1  0  0  0  0
 21 23  2  0  0  0  0
 19 20  1  0  0  0  0
 19 21  1  0  0  0  0
 17 18  1  0  0  0  0
 17 19  2  0  0  0  0
 15 16  1  0  0  0  0
 15 17  1  0  0  0  0
 14 15  2  0  0  0  0
 14 23  1  0  0  0  0
 11 12  1  0  0  0  0
 11 13  1  0  0  0  0
 11 14  1  0  0  0  0
  9 10  1  0  0  0  0
  9 11  1  0  0  0  0
  9 25  1  0  0  0  0
  7  8  1  0  0  0  0
  7  9  1  0  0  0  0
 29 30  1  0  0  0  0
 29 31  1  0  0  0  0
 29 32  1  0  0  0  0
 27 28  1  0  0  0  0
 27 29  1  0  0  0  0
M  END
$$$$
default_name
  -OEChem-02102213163D

 32 32  0     1  0  0  0  0  0999 V2000
   -3.8405   -3.7518    1.6252 H   0  0  0  0  0  0  0  0  0  0  0  0
   -3.7965   -2.8768    0.9782 C   0  0  0  0  0  0  0  0  0  0  0  0
   -4.5465   -2.1527    1.2902 H   0  0  0  0  0  0  0  0  0  0  0  0
   -3.9745   -3.1748   -0.0538 H   0  0  0  0  0  0  0  0  0  0  0  0
   -2.4245   -2.2537    1.0882 C   0  0  0  0  0  0  0  0  0  0  0  0
   -1.5805   -2.7478    1.8242 O   0  0  0  0  0  0  0  0  0  0  0  0
   -2.2045   -1.1637    0.3562 N   0  0  0  0  0  0  0  0  0  0  0  0
   -2.9595   -0.7907   -0.2008 H   0  0  0  0  0  0  0  0  0  0  0  0
   -0.9485   -0.4087    0.3482 C   0  0  1  0  0  0  0  0  0  0  0  0
   -0.3666   -0.6914    1.2269 H   0  0  0  0  0  0  0  0  0  0  0  0
   -0.1405   -0.7797   -0.9072 C   0  0  0  0  0  0  0  0  0  0  0  0
    0.6766   -1.4433   -0.6204 H   0  0  0  0  0  0  0  0  0  0  0  0
   -0.7854   -1.3316   -1.5927 H   0  0  0  0  0  0  0  0  0  0  0  0
    0.4546    0.4133   -1.6307 C   0  0  0  0  0  0  0  0  0  0  0  0
    0.2483    1.7181   -1.1442 C   0  0  0  0  0  0  0  0  0  0  0  0
   -0.3560    1.8795   -0.2627 H   0  0  0  0  0  0  0  0  0  0  0  0
    0.8378    2.8163   -1.7972 C   0  0  0  0  0  0  0  0  0  0  0  0
    0.6760    3.8177   -1.4235 H   0  0  0  0  0  0  0  0  0  0  0  0
    1.6355    2.6119   -2.9358 C   0  0  0  0  0  0  0  0  0  0  0  0
    2.0865    3.4559   -3.4388 H   0  0  0  0  0  0  0  0  0  0  0  0
    1.8425    1.3095   -3.4254 C   0  0  0  0  0  0  0  0  0  0  0  0
    2.4512    1.1527   -4.3038 H   0  0  0  0  0  0  0  0  0  0  0  0
    1.2505    0.2125   -2.7746 C   0  0  0  0  0  0  0  0  0  0  0  0
    1.4078   -0.7887   -3.1542 H   0  0  0  0  0  0  0  0  0  0  0  0
   -1.2168    1.1047    0.4313 C   0  0  0  0  0  0  0  0  0  0  0  0
   -2.0890    1.6186   -0.2704 O   0  0  0  0  0  0  0  0  0  0  0  0
   -0.4674    1.8182    1.2813 N   0  0  0  0  0  0  0  0  0  0  0  0
    0.2640    1.3348    1.7800 H   0  0  0  0  0  0  0  0  0  0  0  0
   -0.5889    3.2615    1.4722 C   0  0  0  0  0  0  0  0  0  0  0  0
   -1.6291    3.5206    1.6805 H   0  0  0  0  0  0  0  0  0  0  0  0
    0.0359    3.5855    2.3049 H   0  0  0  0  0  0  0  0  0  0  0  0
   -0.2760    3.7797    0.5637 H   0  0  0  0  0  0  0  0  0  0  0  0
  5  6  2  0  0  0  0
  5  7  1  0  0  0  0
  2  3  1  0  0  0  0
  2  4  1  0  0  0  0
  2  5  1  0  0  0  0
  1  2  1  0  0  0  0
 25 26  2  0  0  0  0
 25 27  1  0  0  0  0
 23 24  1  0  0  0  0
 21 22  1  0  0  0  0
 21 23  2  0  0  0  0
 19 20  1  0  0  0  0
 19 21  1  0  0  0  0
 17 18  1  0  0  0  0
 17 19  2  0  0  0  0
 15 16  1  0  0  0  0
 15 17  1  0  0  0  0
 14 15  2  0  0  0  0
 14 23  1  0  0  0  0
 11 12  1  0  0  0  0
 11 13  1  0  0  0  0
 11 14  1  0  0  0  0
  9 10  1  0  0  0  0
  9 11  1  0  0  0  0
  9 25  1  0  0  0  0
  7  8  1  0  0  0  0
  7  9  1  0  0  0  0
 29 30  1  0  0  0  0
 29 31  1  0  0  0  0
 29 32  1  0  0  0  0
 27 28  1  0  0  0  0
 27 29  1  0  0  0  0
M  END
$$$$
default_name
  -OEChem-02102213163D

 32 32  0     1  0  0  0  0  0999 V2000
   -3.8405   -3.7518    1.6252 H   0  0  0  0  0  0  0  0  0  0  0  0
   -3.7965   -2.8768    0.9782 C   0  0  0  0  0  0  0  0  0  0  0  0
   -4.5465   -2.1527    1.2902 H   0  0  0  0  0  0  0  0  0  0  0  0
   -3.9745   -3.1748   -0.0538 H   0  0  0  0  0  0  0  0  0  0  0  0
   -2.4245   -2.2537    1.0882 C   0  0  0  0  0  0  0  0  0  0  0  0
   -1.5805   -2.7478    1.8242 O   0  0  0  0  0  0  0  0  0  0  0  0
   -2.2045   -1.1637    0.3562 N   0  0  0  0  0  0  0  0  0  0  0  0
   -2.9595   -0.7907   -0.2008 H   0  0  0  0  0  0  0  0  0  0  0  0
   -0.9485   -0.4087    0.3482 C   0  0  1  0  0  0  0  0  0  0  0  0
   -0.3666   -0.6914    1.2269 H   0  0  0  0  0  0  0  0  0  0  0  0
   -0.1405   -0.7797   -0.9072 C   0  0  0  0  0  0  0  0  0  0  0  0
    0.6766   -1.4433   -0.6204 H   0  0  0  0  0  0  0  0  0  0  0  0
   -0.7854   -1.3316   -1.5927 H   0  0  0  0  0  0  0  0  0  0  0  0
    0.4546    0.4133   -1.6307 C   0  0  0  0  0  0  0  0  0  0  0  0
    0.5250    1.6689   -0.9979 C   0  0  0  0  0  0  0  0  0  0  0  0
    0.1335    1.7956    0.0016 H   0  0  0  0  0  0  0  0  0  0  0  0
    1.1158    2.7608   -1.6599 C   0  0  0  0  0  0  0  0  0  0  0  0
    1.1665    3.7247   -1.1732 H   0  0  0  0  0  0  0  0  0  0  0  0
    1.6387    2.5992   -2.9542 C   0  0  0  0  0  0  0  0  0  0  0  0
    2.0905    3.4387   -3.4637 H   0  0  0  0  0  0  0  0  0  0  0  0
    1.5686    1.3462   -3.5900 C   0  0  0  0  0  0  0  0  0  0  0  0
    1.9656    1.2232   -4.5870 H   0  0  0  0  0  0  0  0  0  0  0  0
    0.9751    0.2560   -2.9294 C   0  0  0  0  0  0  0  0  0  0  0  0
    0.9189   -0.7066   -3.4209 H   0  0  0  0  0  0  0  0  0  0  0  0
   -1.2168    1.1047    0.4313 C   0  0  0  0  0  0  0  0  0  0  0  0
   -2.0890    1.6186   -0.2704 O   0  0  0  0  0  0  0  0  0  0  0  0
   -0.4674    1.8182    1.2813 N   0  0  0  0  0  0  0  0  0  0  0  0
    0.2640    1.3348    1.7800 H   0  0  0  0  0  0  0  0  0  0  0  0
   -0.5889    3.2615    1.4722 C   0  0  0  0  0  0  0  0  0  0  0  0
   -1.6291    3.5206    1.6805 H   0  0  0  0  0  0  0  0  0  0  0  0
    0.0359    3.5855    2.3049 H   0  0  0  0  0  0  0  0  0  0  0  0
   -0.2760    3.7797    0.5637 H   0  0  0  0  0  0  0  0  0  0  0  0
  5  6  2  0  0  0  0
  5  7  1  0  0  0  0
  2  3  1  0  0  0  0
  2  4  1  0  0  0  0
  2  5  1  0  0  0  0
  1  2  1  0  0  0  0
 25 26  2  0  0  0  0
 25 27  1  0  0  0  0
 23 24  1  0  0  0  0
 21 22  1  0  0  0  0
 21 23  2  0  0  0  0
 19 20  1  0  0  0  0
 19 21  1  0  0  0  0
 17 18  1  0  0  0  0
 17 19  2  0  0  0  0
 15 16  1  0  0  0  0
 15 17  1  0  0  0  0
 14 15  2  0  0  0  0
 14 23  1  0  0  0  0
 11 12  1  0  0  0  0
 11 13  1  0  0  0  0
 11 14  1  0  0  0  0
  9 10  1  0  0  0  0
  9 11  1  0  0  0  0
  9 25  1  0  0  0  0
  7  8  1  0  0  0  0
  7  9  1  0  0  0  0
 29 30  1  0  0  0  0
 29 31  1  0  0  0  0
 29 32  1  0  0  0  0
 27 28  1  0  0  0  0
 27 29  1  0  0  0  0
M  END
$$$$
default_name
  -OEChem-02102213163D

 32 32  0     1  0  0  0  0  0999 V2000
   -3.8405   -3.7518    1.6252 H   0  0  0  0  0  0  0  0  0  0  0  0
   -3.7965   -2.8768    0.9782 C   0  0  0  0  0  0  0  0  0  0  0  0
   -4.5465   -2.1527    1.2902 H   0  0  0  0  0  0  0  0  0  0  0  0
   -3.9745   -3.1748   -0.0538 H   0  0  0  0  0  0  0  0  0  0  0  0
   -2.4245   -2.2537    1.0882 C   0  0  0  0  0  0  0  0  0  0  0  0
   -1.5805   -2.7478    1.8242 O   0  0  0  0  0  0  0  0  0  0  0  0
   -2.2045   -1.1637    0.3562 N   0  0  0  0  0  0  0  0  0  0  0  0
   -2.9595   -0.7907   -0.2008 H   0  0  0  0  0  0  0  0  0  0  0  0
   -0.9485   -0.4087    0.3482 C   0  0  1  0  0  0  0  0  0  0  0  0
   -0.3666   -0.6914    1.2269 H   0  0  0  0  0  0  0  0  0  0  0  0
   -0.1405   -0.7797   -0.9072 C   0  0  0  0  0  0  0  0  0  0  0  0
    0.6766   -1.4433   -0.6204 H   0  0  0  0  0  0  0  0  0  0  0  0
   -0.7854   -1.3316   -1.5927 H   0  0  0  0  0  0  0  0  0  0  0  0
    0.4546    0.4133   -1.6307 C   0  0  0  0  0  0  0  0  0  0  0  0
    0.8159    1.5722   -0.9178 C   0  0  0  0  0  0  0  0  0  0  0  0
    0.6498    1.6273    0.1488 H   0  0  0  0  0  0  0  0  0  0  0  0
    1.4055    2.6590   -1.5896 C   0  0  0  0  0  0  0  0  0  0  0  0
    1.6798    3.5490   -1.0408 H   0  0  0  0  0  0  0  0  0  0  0  0
    1.6364    2.5883   -2.9739 C   0  0  0  0  0  0  0  0  0  0  0  0
    2.0872    3.4242   -3.4904 H   0  0  0  0  0  0  0  0  0  0  0  0
    1.2752    1.4323   -3.6895 C   0  0  0  0  0  0  0  0  0  0  0  0
    1.4476    1.3800   -4.7545 H   0  0  0  0  0  0  0  0  0  0  0  0
    0.6830    0.3477   -3.0184 C   0  0  0  0  0  0  0  0  0  0  0  0
    0.4025   -0.5398   -3.5707 H   0  0  0  0  0  0  0  0  0  0  0  0
   -1.2168    1.1047    0.4313 C   0  0  0  0  0  0  0  0  0  0  0  0
   -2.0890    1.6186   -0.2704 O   0  0  0  0  0  0  0  0  0  0  0  0
   -0.4674    1.8182    1.2813 N   0  0  0  0  0  0  0  0  0  0  0  0
    0.2640    1.3348    1.7800 H   0  0  0  0  0  0  0  0  0  0  0  0
   -0.5889    3.2615    1.4722 C   0  0  0  0  0  0  0  0  0  0  0  0
   -1.6291    3.5206    1.6805 H   0  0  0  0  0  0  0  0  0  0  0  0
    0.0359    3.5855    2.3049 H   0  0  0  0  0  0  0  0  0  0  0  0
   -0.2760    3.7797    0.5637 H   0  0  0  0  0  0  0  0  0  0  0  0
  5  6  2  0  0  0  0
  5  7  1  0  0  0  0
  2  3  1  0  0  0  0
  2  4  1  0  0  0  0
  2  5  1  0  0  0  0
  1  2  1  0  0  0  0
 25 26  2  0  0  0  0
 25 27  1  0  0  0  0
 23 24  1  0  0  0  0
 21 22  1  0  0  0  0
 21 23  2  0  0  0  0
 19 20  1  0  0  0  0
 19 21  1  0  0  0  0
 17 18  1  0  0  0  0
 17 19  2  0  0  0  0
 15 16  1  0  0  0  0
 15 17  1  0  0  0  0
 14 15  2  0  0  0  0
 14 23  1  0  0  0  0
 11 12  1  0  0  0  0
 11 13  1  0  0  0  0
 11 14  1  0  0  0  0
  9 10  1  0  0  0  0
  9 11  1  0  0  0  0
  9 25  1  0  0  0  0
  7  8  1  0  0  0  0
  7  9  1  0  0  0  0
 29 30  1  0  0  0  0
 29 31  1  0  0  0  0
 29 32  1  0  0  0  0
 27 28  1  0  0  0  0
 27 29  1  0  0  0  0
M  END
$$$$
default_name
  -OEChem-02102213163D

 32 32  0     1  0  0  0  0  0999 V2000
   -3.8405   -3.7518    1.6252 H   0  0  0  0  0  0  0  0  0  0  0  0
   -3.7965   -2.8768    0.9782 C   0  0  0  0  0  0  0  0  0  0  0  0
   -4.5465   -2.1527    1.2902 H   0  0  0  0  0  0  0  0  0  0  0  0
   -3.9745   -3.1748   -0.0538 H   0  0  0  0  0  0  0  0  0  0  0  0
   -2.4245   -2.2537    1.0882 C   0  0  0  0  0  0  0  0  0  0  0  0
   -1.5805   -2.7478    1.8242 O   0  0  0  0  0  0  0  0  0  0  0  0
   -2.2045   -1.1637    0.3562 N   0  0  0  0  0  0  0  0  0  0  0  0
   -2.9595   -0.7907   -0.2008 H   0  0  0  0  0  0  0  0  0  0  0  0
   -0.9485   -0.4087    0.3482 C   0  0  1  0  0  0  0  0  0  0  0  0
   -0.3666   -0.6914    1.2269 H   0  0  0  0  0  0  0  0  0  0  0  0
   -0.1405   -0.7797   -0.9072 C   0  0  0  0  0  0  0  0  0  0  0  0
    0.6766   -1.4433   -0.6204 H   0  0  0  0  0  0  0  0  0  0  0  0
   -0.7854   -1.3316   -1.5927 H   0  0  0  0  0  0  0  0  0  0  0  0
    0.4546    0.4133   -1.6307 C   0  0  0  0  0  0  0  0  0  0  0  0
    1.1013    1.4349   -0.9096 C   0  0  0  0  0  0  0  0  0  0  0  0
    1.1577    1.3860    0.1687 H   0  0  0  0  0  0  0  0  0  0  0  0
    1.6870    2.5177   -1.5910 C   0  0  0  0  0  0  0  0  0  0  0  0
    2.1809    3.3024   -1.0352 H   0  0  0  0  0  0  0  0  0  0  0  0
    1.6289    2.5802   -2.9936 C   0  0  0  0  0  0  0  0  0  0  0  0
    2.0768    3.4133   -3.5169 H   0  0  0  0  0  0  0  0  0  0  0  0
    0.9821    1.5618   -3.7171 C   0  0  0  0  0  0  0  0  0  0  0  0
    0.9326    1.6124   -4.7949 H   0  0  0  0  0  0  0  0  0  0  0  0
    0.3940    0.4814   -3.0357 C   0  0  0  0  0  0  0  0  0  0  0  0
   -0.1062   -0.2997   -3.5932 H   0  0  0  0  0  0  0  0  0  0  0  0
   -1.2168    1.1047    0.4313 C   0  0  0  0  0  0  0  0  0  0  0  0
   -2.0890    1.6186   -0.2704 O   0  0  0  0  0  0  0  0  0  0  0  0
   -0.4674    1.8182    1.2813 N   0  0  0  0  0  0  0  0  0  0  0  0
    0.2640    1.3348    1.7800 H   0  0  0  0  0  0  0  0  0  0  0  0
   -0.5889    3.2615    1.4722 C   0  0  0  0  0  0  0  0  0  0  0  0
   -1.6291    3.5206    1.6805 H   0  0  0  0  0  0  0  0  0  0  0  0
    0.0359    3.5855    2.3049 H   0  0  0  0  0  0  0  0  0  0  0  0
   -0.2760    3.7797    0.5637 H   0  0  0  0  0  0  0  0  0  0  0  0
  5  6  2  0  0  0  0
  5  7  1  0  0  0  0
  2  3  1  0  0  0  0
  2  4  1  0  0  0  0
  2  5  1  0  0  0  0
  1  2  1  0  0  0  0
 25 26  2  0  0  0  0
 25 27  1  0  0  0  0
 23 24  1  0  0  0  0
 21 22  1  0  0  0  0
 21 23  2  0  0  0  0
 19 20  1  0  0  0  0
 19 21  1  0  0  0  0
 17 18  1  0  0  0  0
 17 19  2  0  0  0  0
 15 16  1  0  0  0  0
 15 17  1  0  0  0  0
 14 15  2  0  0  0  0
 14 23  1  0  0  0  0
 11 12  1  0  0  0  0
 11 13  1  0  0  0  0
 11 14  1  0  0  0  0
  9 10  1  0  0  0  0
  9 11  1  0  0  0  0
  9 25  1  0  0  0  0
  7  8  1  0  0  0  0
  7  9  1  0  0  0  0
 29 30  1  0  0  0  0
 29 31  1  0  0  0  0
 29 32  1  0  0  0  0
 27 28  1  0  0  0  0
 27 29  1  0  0  0  0
M  END
$$$$
default_name
  -OEChem-02102213163D

 32 32  0     1  0  0  0  0  0999 V2000
   -3.8405   -3.7518    1.6252 H   0  0  0  0  0  0  0  0  0  0  0  0
   -3.7965   -2.8768    0.9782 C   0  0  0  0  0  0  0  0  0  0  0  0
   -4.5465   -2.1527    1.2902 H   0  0  0  0  0  0  0  0  0  0  0  0
   -3.9745   -3.1748   -0.0538 H   0  0  0  0  0  0  0  0  0  0  0  0
   -2.4245   -2.2537    1.0882 C   0  0  0  0  0  0  0  0  0  0  0  0
   -1.5805   -2.7478    1.8242 O   0  0  0  0  0  0  0  0  0  0  0  0
   -2.2045   -1.1637    0.3562 N   0  0  0  0  0  0  0  0  0  0  0  0
   -2.9595   -0.7907   -0.2008 H   0  0  0  0  0  0  0  0  0  0  0  0
   -0.9485   -0.4087    0.3482 C   0  0  1  0  0  0  0  0  0  0  0  0
   -0.3666   -0.6914    1.2269 H   0  0  0  0  0  0  0  0  0  0  0  0
   -0.1405   -0.7797   -0.9072 C   0  0  0  0  0  0  0  0  0  0  0  0
    0.6766   -1.4433   -0.6204 H   0  0  0  0  0  0  0  0  0  0  0  0
   -0.7854   -1.3316   -1.5927 H   0  0  0  0  0  0  0  0  0  0  0  0
    0.4546    0.4133   -1.6307 C   0  0  0  0  0  0  0  0  0  0  0  0
    1.3617    1.2661   -0.9737 C   0  0  0  0  0  0  0  0  0  0  0  0
    1.6225    1.0883    0.0601 H   0  0  0  0  0  0  0  0  0  0  0  0
    1.9413    2.3466   -1.6640 C   0  0  0  0  0  0  0  0  0  0  0  0
    2.6356    3.0018   -1.1569 H   0  0  0  0  0  0  0  0  0  0  0  0
    1.6166    2.5752   -3.0119 C   0  0  0  0  0  0  0  0  0  0  0  0
    2.0600    3.4068   -3.5416 H   0  0  0  0  0  0  0  0  0  0  0  0
    0.7093    1.7258   -3.6710 C   0  0  0  0  0  0  0  0  0  0  0  0
    0.4555    1.9046   -4.7056 H   0  0  0  0  0  0  0  0  0  0  0  0
    0.1278    0.6480   -2.9799 C   0  0  0  0  0  0  0  0  0  0  0  0
   -0.5726   -0.0028   -3.4871 H   0  0  0  0  0  0  0  0  0  0  0  0
   -1.2168    1.1047    0.4313 C   0  0  0  0  0  0  0  0  0  0  0  0
   -2.0890    1.6186   -0.2704 O   0  0  0  0  0  0  0  0  0  0  0  0
   -0.4674    1.8182    1.2813 N   0  0  0  0  0  0  0  0  0  0  0  0
    0.2640    1.3348    1.7800 H   0  0  0  0  0  0  0  0  0  0  0  0
   -0.5889    3.2615    1.4722 C   0  0  0  0  0  0  0  0  0  0  0  0
   -1.6291    3.5206    1.6805 H   0  0  0  0  0  0  0  0  0  0  0  0
    0.0359    3.5855    2.3049 H   0  0  0  0  0  0  0  0  0  0  0  0
   -0.2760    3.7797    0.5637 H   0  0  0  0  0  0  0  0  0  0  0  0
  5  6  2  0  0  0  0
  5  7  1  0  0  0  0
  2  3  1  0  0  0  0
  2  4  1  0  0  0  0
  2  5  1  0  0  0  0
  1  2  1  0  0  0  0
 25 26  2  0  0  0  0
 25 27  1  0  0  0  0
 23 24  1  0  0  0  0
 21 22  1  0  0  0  0
 21 23  2  0  0  0  0
 19 20  1  0  0  0  0
 19 21  1  0  0  0  0
 17 18  1  0  0  0  0
 17 19  2  0  0  0  0
 15 16  1  0  0  0  0
 15 17  1  0  0  0  0
 14 15  2  0  0  0  0
 14 23  1  0  0  0  0
 11 12  1  0  0  0  0
 11 13  1  0  0  0  0
 11 14  1  0  0  0  0
  9 10  1  0  0  0  0
  9 11  1  0  0  0  0
  9 25  1  0  0  0  0
  7  8  1  0  0  0  0
  7  9  1  0  0  0  0
 29 30  1  0  0  0  0
 29 31  1  0  0  0  0
 29 32  1  0  0  0  0
 27 28  1  0  0  0  0
 27 29  1  0  0  0  0
M  END
$$$$
default_name
  -OEChem-02102213163D

 32 32  0     1  0  0  0  0  0999 V2000
   -3.8405   -3.7518    1.6252 H   0  0  0  0  0  0  0  0  0  0  0  0
   -3.7965   -2.8768    0.9782 C   0  0  0  0  0  0  0  0  0  0  0  0
   -4.5465   -2.1527    1.2902 H   0  0  0  0  0  0  0  0  0  0  0  0
   -3.9745   -3.1748   -0.0538 H   0  0  0  0  0  0  0  0  0  0  0  0
   -2.4245   -2.2537    1.0882 C   0  0  0  0  0  0  0  0  0  0  0  0
   -1.5805   -2.7478    1.8242 O   0  0  0  0  0  0  0  0  0  0  0  0
   -2.2045   -1.1637    0.3562 N   0  0  0  0  0  0  0  0  0  0  0  0
   -2.9595   -0.7907   -0.2008 H   0  0  0  0  0  0  0  0  0  0  0  0
   -0.9485   -0.4087    0.3482 C   0  0  1  0  0  0  0  0  0  0  0  0
   -0.3666   -0.6914    1.2269 H   0  0  0  0  0  0  0  0  0  0  0  0
   -0.1405   -0.7797   -0.9072 C   0  0  0  0  0  0  0  0  0  0  0  0
    0.6766   -1.4433   -0.6204 H   0  0  0  0  0  0  0  0  0  0  0  0
   -0.7854   -1.3316   -1.5927 H   0  0  0  0  0  0  0  0  0  0  0  0
    0.4546    0.4133   -1.6307 C   0  0  0  0  0  0  0  0  0  0  0  0
    1.5794    1.0775   -1.1057 C   0  0  0  0  0  0  0  0  0  0  0  0
    2.0127    0.7543   -0.1697 H   0  0  0  0  0  0  0  0  0  0  0  0
    2.1508    2.1574   -1.8036 C   0  0  0  0  0  0  0  0  0  0  0  0
    3.0129    2.6677   -1.3974 H   0  0  0  0  0  0  0  0  0  0  0  0
    1.6004    2.5738   -3.0276 C   0  0  0  0  0  0  0  0  0  0  0  0
    2.0380    3.4050   -3.5626 H   0  0  0  0  0  0  0  0  0  0  0  0
    0.4755    1.9132   -3.5543 C   0  0  0  0  0  0  0  0  0  0  0  0
    0.0489    2.2366   -4.4924 H   0  0  0  0  0  0  0  0  0  0  0  0
   -0.0974    0.8361   -2.8550 C   0  0  0  0  0  0  0  0  0  0  0  0
   -0.9648    0.3309   -3.2596 H   0  0  0  0  0  0  0  0  0  0  0  0
   -1.2168    1.1047    0.4313 C   0  0  0  0  0  0  0  0  0  0  0  0
   -2.0890    1.6186   -0.2704 O   0  0  0  0  0  0  0  0  0  0  0  0
   -0.4674    1.8182    1.2813 N   0  0  0  0  0  0  0  0  0  0  0  0
    0.2640    1.3348    1.7800 H   0  0  0  0  0  0  0  0  0  0  0  0
   -0.5889    3.2615    1.4722 C   0  0  0  0  0  0  0  0  0  0  0  0
   -1.6291    3.5206    1.6805 H   0  0  0  0  0  0  0  0  0  0  0  0
    0.0359    3.5855    2.3049 H   0  0  0  0  0  0  0  0  0  0  0  0
   -0.2760    3.7797    0.5637 H   0  0  0  0  0  0  0  0  0  0  0  0
  5  6  2  0  0  0  0
  5  7  1  0  0  0  0
  2  3  1  0  0  0  0
  2  4  1  0  0  0  0
  2  5  1  0  0  0  0
  1  2  1  0  0  0  0
 25 26  2  0  0  0  0
 25 27  1  0  0  0  0
 23 24  1  0  0  0  0
 21 22  1  0  0  0  0
 21 23  2  0  0  0  0
 19 20  1  0  0  0  0
 19 21  1  0  0  0  0
 17 18  1  0  0  0  0
 17 19  2  0  0  0  0
 15 16  1  0  0  0  0
 15 17  1  0  0  0  0
 14 15  2  0  0  0  0
 14 23  1  0  0  0  0
 11 12  1  0  0  0  0
 11 13  1  0  0  0  0
 11 14  1  0  0  0  0
  9 10  1  0  0  0  0
  9 11  1  0  0  0  0
  9 25  1  0  0  0  0
  7  8  1  0  0  0  0
  7  9  1  0  0  0  0
 29 30  1  0  0  0  0
 29 31  1  0  0  0  0
 29 32  1  0  0  0  0
 27 28  1  0  0  0  0
 27 29  1  0  0  0  0
M  END
$$$$
default_name
  -OEChem-02102213163D

 32 32  0     1  0  0  0  0  0999 V2000
   -3.8405   -3.7518    1.6252 H   0  0  0  0  0  0  0  0  0  0  0  0
   -3.7965   -2.8768    0.9782 C   0  0  0  0  0  0  0  0  0  0  0  0
   -4.5465   -2.1527    1.2902 H   0  0  0  0  0  0  0  0  0  0  0  0
   -3.9745   -3.1748   -0.0538 H   0  0  0  0  0  0  0  0  0  0  0  0
   -2.4245   -2.2537    1.0882 C   0  0  0  0  0  0  0  0  0  0  0  0
   -1.5805   -2.7478    1.8242 O   0  0  0  0  0  0  0  0  0  0  0  0
   -2.2045   -1.1637    0.3562 N   0  0  0  0  0  0  0  0  0  0  0  0
   -2.9595   -0.7907   -0.2008 H   0  0  0  0  0  0  0  0  0  0  0  0
   -0.9485   -0.4087    0.3482 C   0  0  1  0  0  0  0  0  0  0  0  0
   -0.3666   -0.6914    1.2269 H   0  0  0  0  0  0  0  0  0  0  0  0
   -0.1405   -0.7797   -0.9072 C   0  0  0  0  0  0  0  0  0  0  0  0
    0.6766   -1.4433   -0.6204 H   0  0  0  0  0  0  0  0  0  0  0  0
   -0.7854   -1.3316   -1.5927 H   0  0  0  0  0  0  0  0  0  0  0  0
    0.4546    0.4133   -1.6307 C   0  0  0  0  0  0  0  0  0  0  0  0
    1.7395    0.8818   -1.2967 C   0  0  0  0  0  0  0  0  0  0  0  0
    2.3015    0.4069   -0.5050 H   0  0  0  0  0  0  0  0  0  0  0  0
    2.3015    1.9629   -2.0003 C   0  0  0  0  0  0  0  0  0  0  0  0
    3.2872    2.3228   -1.7406 H   0  0  0  0  0  0  0  0  0  0  0  0
    1.5813    2.5760   -3.0396 C   0  0  0  0  0  0  0  0  0  0  0  0
    2.0122    3.4081   -3.5786 H   0  0  0  0  0  0  0  0  0  0  0  0
    0.2965    2.1113   -3.3749 C   0  0  0  0  0  0  0  0  0  0  0  0
   -0.2594    2.5859   -4.1701 H   0  0  0  0  0  0  0  0  0  0  0  0
   -0.2662    1.0329   -2.6693 C   0  0  0  0  0  0  0  0  0  0  0  0
   -1.2561    0.6785   -2.9260 H   0  0  0  0  0  0  0  0  0  0  0  0
   -1.2168    1.1047    0.4313 C   0  0  0  0  0  0  0  0  0  0  0  0
   -2.0890    1.6186   -0.2704 O   0  0  0  0  0  0  0  0  0  0  0  0
   -0.4674    1.8182    1.2813 N   0  0  0  0  0  0  0  0  0  0  0  0
    0.2640    1.3348    1.7800 H   0  0  0  0  0  0  0  0  0  0  0  0
   -0.5889    3.2615    1.4722 C   0  0  0  0  0  0  0  0  0  0  0  0
   -1.6291    3.5206    1.6805 H   0  0  0  0  0  0  0  0  0  0  0  0
    0.0359    3.5855    2.3049 H   0  0  0  0  0  0  0  0  0  0  0  0
   -0.2760    3.7797    0.5637 H   0  0  0  0  0  0  0  0  0  0  0  0
  5  6  2  0  0  0  0
  5  7  1  0  0  0  0
  2  3  1  0  0  0  0
  2  4  1  0  0  0  0
  2  5  1  0  0  0  0
  1  2  1  0  0  0  0
 25 26  2  0  0  0  0
 25 27  1  0  0  0  0
 23 24  1  0  0  0  0
 21 22  1  0  0  0  0
 21 23  2  0  0  0  0
 19 20  1  0  0  0  0
 19 21  1  0  0  0  0
 17 18  1  0  0  0  0
 17 19  2  0  0  0  0
 15 16  1  0  0  0  0
 15 17  1  0  0  0  0
 14 15  2  0  0  0  0
 14 23  1  0  0  0  0
 11 12  1  0  0  0  0
 11 13  1  0  0  0  0
 11 14  1  0  0  0  0
  9 10  1  0  0  0  0
  9 11  1  0  0  0  0
  9 25  1  0  0  0  0
  7  8  1  0  0  0  0
  7  9  1  0  0  0  0
 29 30  1  0  0  0  0
 29 31  1  0  0  0  0
 29 32  1  0  0  0  0
 27 28  1  0  0  0  0
 27 29  1  0  0  0  0
M  END
$$$$
default_name
  -OEChem-02102213163D

 32 32  0     1  0  0  0  0  0999 V2000
   -3.8405   -3.7518    1.6252 H   0  0  0  0  0  0  0  0  0  0  0  0
   -3.7965   -2.8768    0.9782 C   0  0  0  0  0  0  0  0  0  0  0  0
   -4.5465   -2.1527    1.2902 H   0  0  0  0  0  0  0  0  0  0  0  0
   -3.9745   -3.1748   -0.0538 H   0  0  0  0  0  0  0  0  0  0  0  0
   -2.4245   -2.2537    1.0882 C   0  0  0  0  0  0  0  0  0  0  0  0
   -1.5805   -2.7478    1.8242 O   0  0  0  0  0  0  0  0  0  0  0  0
   -2.2045   -1.1637    0.3562 N   0  0  0  0  0  0  0  0  0  0  0  0
   -2.9595   -0.7907   -0.2008 H   0  0  0  0  0  0  0  0  0  0  0  0
   -0.9485   -0.4087    0.3482 C   0  0  1  0  0  0  0  0  0  0  0  0
   -0.3666   -0.6914    1.2269 H   0  0  0  0  0  0  0  0  0  0  0  0
   -0.1405   -0.7797   -0.9072 C   0  0  0  0  0  0  0  0  0  0  0  0
    0.6766   -1.4433   -0.6204 H   0  0  0  0  0  0  0  0  0  0  0  0
   -0.7854   -1.3316   -1.5927 H   0  0  0  0  0  0  0  0  0  0  0  0
    0.4546    0.4133   -1.6307 C   0  0  0  0  0  0  0  0  0  0  0  0
    1.8310    0.6924   -1.5336 C   0  0  0  0  0  0  0  0  0  0  0  0
    2.4694    0.0697   -0.9229 H   0  0  0  0  0  0  0  0  0  0  0  0
    2.3830    1.7765   -2.2408 C   0  0  0  0  0  0  0  0  0  0  0  0
    3.4397    1.9906   -2.1628 H   0  0  0  0  0  0  0  0  0  0  0  0
    1.5607    2.5817   -3.0471 C   0  0  0  0  0  0  0  0  0  0  0  0
    1.9844    3.4160   -3.5885 H   0  0  0  0  0  0  0  0  0  0  0  0
    0.1847    2.3065   -3.1451 C   0  0  0  0  0  0  0  0  0  0  0  0
   -0.4485    2.9286   -3.7605 H   0  0  0  0  0  0  0  0  0  0  0  0
   -0.3672    1.2250   -2.4357 C   0  0  0  0  0  0  0  0  0  0  0  0
   -1.4266    1.0163   -2.5093 H   0  0  0  0  0  0  0  0  0  0  0  0
   -1.2168    1.1047    0.4313 C   0  0  0  0  0  0  0  0  0  0  0  0
   -2.0890    1.6186   -0.2704 O   0  0  0  0  0  0  0  0  0  0  0  0
   -0.4674    1.8182    1.2813 N   0  0  0  0  0  0  0  0  0  0  0  0
    0.2640    1.3348    1.7800 H   0  0  0  0  0  0  0  0  0  0  0  0
   -0.5889    3.2615    1.4722 C   0  0  0  0  0  0  0  0  0  0  0  0
   -1.6291    3.5206    1.6805 H   0  0  0  0  0  0  0  0  0  0  0  0
    0.0359    3.5855    2.3049 H   0  0  0  0  0  0  0  0  0  0  0  0
   -0.2760    3.7797    0.5637 H   0  0  0  0  0  0  0  0  0  0  0  0
  5  6  2  0  0  0  0
  5  7  1  0  0  0  0
  2  3  1  0  0  0  0
  2  4  1  0  0  0  0
  2  5  1  0  0  0  0
  1  2  1  0  0  0  0
 25 26  2  0  0  0  0
 25 27  1  0  0  0  0
 23 24  1  0  0  0  0
 21 22  1  0  0  0  0
 21 23  2  0  0  0  0
 19 20  1  0  0  0  0
 19 21  1  0  0  0  0
 17 18  1  0  0  0  0
 17 19  2  0  0  0  0
 15 16  1  0  0  0  0
 15 17  1  0  0  0  0
 14 15  2  0  0  0  0
 14 23  1  0  0  0  0
 11 12  1  0  0  0  0
 11 13  1  0  0  0  0
 11 14  1  0  0  0  0
  9 10  1  0  0  0  0
  9 11  1  0  0  0  0
  9 25  1  0  0  0  0
  7  8  1  0  0  0  0
  7  9  1  0  0  0  0
 29 30  1  0  0  0  0
 29 31  1  0  0  0  0
 29 32  1  0  0  0  0
 27 28  1  0  0  0  0
 27 29  1  0  0  0  0
M  END
$$$$
default_name
  -OEChem-02102213163D

 32 32  0     1  0  0  0  0  0999 V2000
   -3.8405   -3.7518    1.6252 H   0  0  0  0  0  0  0  0  0  0  0  0
   -3.7965   -2.8768    0.9782 C   0  0  0  0  0  0  0  0  0  0  0  0
   -4.5465   -2.1527    1.2902 H   0  0  0  0  0  0  0  0  0  0  0  0
   -3.9745   -3.1748   -0.0538 H   0  0  0  0  0  0  0  0  0  0  0  0
   -2.4245   -2.2537    1.0882 C   0  0  0  0  0  0  0  0  0  0  0  0
   -1.5805   -2.7478    1.8242 O   0  0  0  0  0  0  0  0  0  0  0  0
   -2.2045   -1.1637    0.3562 N   0  0  0  0  0  0  0  0  0  0  0  0
   -2.9595   -0.7907   -0.2008 H   0  0  0  0  0  0  0  0  0  0  0  0
   -0.9485   -0.4087    0.3482 C   0  0  1  0  0  0  0  0  0  0  0  0
   -0.3666   -0.6914    1.2269 H   0  0  0  0  0  0  0  0  0  0  0  0
   -0.1405   -0.7797   -0.9072 C   0  0  0  0  0  0  0  0  0  0  0  0
    0.6766   -1.4433   -0.6204 H   0  0  0  0  0  0  0  0  0  0  0  0
   -0.7854   -1.3316   -1.5927 H   0  0  0  0  0  0  0  0  0  0  0  0
    0.4546    0.4133   -1.6307 C   0  0  0  0  0  0  0  0  0  0  0  0
    1.8479    0.5222   -1.8004 C   0  0  0  0  0  0  0  0  0  0  0  0
    2.5048   -0.2343   -1.3950 H   0  0  0  0  0  0  0  0  0  0  0  0
    2.3897    1.6107   -2.5085 C   0  0  0  0  0  0  0  0  0  0  0  0
    3.4600    1.6938   -2.6355 H   0  0  0  0  0  0  0  0  0  0  0  0
    1.5401    2.5905   -3.0496 C   0  0  0  0  0  0  0  0  0  0  0  0
    1.9565    3.4280   -3.5916 H   0  0  0  0  0  0  0  0  0  0  0  0
    0.1474    2.4855   -2.8805 C   0  0  0  0  0  0  0  0  0  0  0  0
   -0.5054    3.2414   -3.2916 H   0  0  0  0  0  0  0  0  0  0  0  0
   -0.3935    1.3993   -2.1699 C   0  0  0  0  0  0  0  0  0  0  0  0
   -1.4648    1.3214   -2.0377 H   0  0  0  0  0  0  0  0  0  0  0  0
   -1.2168    1.1047    0.4313 C   0  0  0  0  0  0  0  0  0  0  0  0
   -2.0890    1.6186   -0.2704 O   0  0  0  0  0  0  0  0  0  0  0  0
   -0.4674    1.8182    1.2813 N   0  0  0  0  0  0  0  0  0  0  0  0
    0.2640    1.3348    1.7800 H   0  0  0  0  0  0  0  0  0  0  0  0
   -0.5889    3.2615    1.4722 C   0  0  0  0  0  0  0  0  0  0  0  0
   -1.6291    3.5206    1.6805 H   0  0  0  0  0  0  0  0  0  0  0  0
    0.0359    3.5855    2.3049 H   0  0  0  0  0  0  0  0  0  0  0  0
   -0.2760    3.7797    0.5637 H   0  0  0  0  0  0  0  0  0  0  0  0
  5  6  2  0  0  0  0
  5  7  1  0  0  0  0
  2  3  1  0  0  0  0
  2  4  1  0  0  0  0
  2  5  1  0  0  0  0
  1  2  1  0  0  0  0
 25 26  2  0  0  0  0
 25 27  1  0  0  0  0
 23 24  1  0  0  0  0
 21 22  1  0  0  0  0
 21 23  2  0  0  0  0
 19 20  1  0  0  0  0
 19 21  1  0  0  0  0
 17 18  1  0  0  0  0
 17 19  2  0  0  0  0
 15 16  1  0  0  0  0
 15 17  1  0  0  0  0
 14 15  2  0  0  0  0
 14 23  1  0  0  0  0
 11 12  1  0  0  0  0
 11 13  1  0  0  0  0
 11 14  1  0  0  0  0
  9 10  1  0  0  0  0
  9 11  1  0  0  0  0
  9 25  1  0  0  0  0
  7  8  1  0  0  0  0
  7  9  1  0  0  0  0
 29 30  1  0  0  0  0
 29 31  1  0  0  0  0
 29 32  1  0  0  0  0
 27 28  1  0  0  0  0
 27 29  1  0  0  0  0
M  END
$$$$
default_name
  -OEChem-02102213163D

 32 32  0     1  0  0  0  0  0999 V2000
   -3.8405   -3.7518    1.6252 H   0  0  0  0  0  0  0  0  0  0  0  0
   -3.7965   -2.8768    0.9782 C   0  0  0  0  0  0  0  0  0  0  0  0
   -4.5465   -2.1527    1.2902 H   0  0  0  0  0  0  0  0  0  0  0  0
   -3.9745   -3.1748   -0.0538 H   0  0  0  0  0  0  0  0  0  0  0  0
   -2.4245   -2.2537    1.0882 C   0  0  0  0  0  0  0  0  0  0  0  0
   -1.5805   -2.7478    1.8242 O   0  0  0  0  0  0  0  0  0  0  0  0
   -2.2045   -1.1637    0.3562 N   0  0  0  0  0  0  0  0  0  0  0  0
   -2.9595   -0.7907   -0.2008 H   0  0  0  0  0  0  0  0  0  0  0  0
   -0.9485   -0.4087    0.3482 C   0  0  1  0  0  0  0  0  0  0  0  0
   -0.3666   -0.6914    1.2269 H   0  0  0  0  0  0  0  0  0  0  0  0
   -0.1405   -0.7797   -0.9072 C   0  0  0  0  0  0  0  0  0  0  0  0
    0.6766   -1.4433   -0.6204 H   0  0  0  0  0  0  0  0  0  0  0  0
   -0.7854   -1.3316   -1.5927 H   0  0  0  0  0  0  0  0  0  0  0  0
    0.4546    0.4133   -1.6307 C   0  0  0  0  0  0  0  0  0  0  0  0
    1.7888    0.3829   -2.0787 C   0  0  0  0  0  0  0  0  0  0  0  0
    2.4054   -0.4844   -1.8891 H   0  0  0  0  0  0  0  0  0  0  0  0
    2.3212    1.4770   -2.7854 C   0  0  0  0  0  0  0  0  0  0  0  0
    3.3468    1.4526   -3.1263 H   0  0  0  0  0  0  0  0  0  0  0  0
    1.5207    2.6019   -3.0468 C   0  0  0  0  0  0  0  0  0  0  0  0
    1.9305    3.4434   -3.5877 H   0  0  0  0  0  0  0  0  0  0  0  0
    0.1875    2.6361   -2.5992 C   0  0  0  0  0  0  0  0  0  0  0  0
   -0.4264    3.5030   -2.7953 H   0  0  0  0  0  0  0  0  0  0  0  0
   -0.3433    1.5439   -1.8901 C   0  0  0  0  0  0  0  0  0  0  0  0
   -1.3681    1.5729   -1.5434 H   0  0  0  0  0  0  0  0  0  0  0  0
   -1.2168    1.1047    0.4313 C   0  0  0  0  0  0  0  0  0  0  0  0
   -2.0890    1.6186   -0.2704 O   0  0  0  0  0  0  0  0  0  0  0  0
   -0.4674    1.8182    1.2813 N   0  0  0  0  0  0  0  0  0  0  0  0
    0.2640    1.3348    1.7800 H   0  0  0  0  0  0  0  0  0  0  0  0
   -0.5889    3.2615    1.4722 C   0  0  0  0  0  0  0  0  0  0  0  0
   -1.6291    3.5206    1.6805 H   0  0  0  0  0  0  0  0  0  0  0  0
    0.0359    3.5855    2.3049 H   0  0  0  0  0  0  0  0  0  0  0  0
   -0.2760    3.7797    0.5637 H   0  0  0  0  0  0  0  0  0  0  0  0
  5  6  2  0  0  0  0
  5  7  1  0  0  0  0
  2  3  1  0  0  0  0
  2  4  1  0  0  0  0
  2  5  1  0  0  0  0
  1  2  1  0  0  0  0
 25 26  2  0  0  0  0
 25 27  1  0  0  0  0
 23 24  1  0  0  0  0
 21 22  1  0  0  0  0
 21 23  2  0  0  0  0
 19 20  1  0  0  0  0
 19 21  1  0  0  0  0
 17 18  1  0  0  0  0
 17 19  2  0  0  0  0
 15 16  1  0  0  0  0
 15 17  1  0  0  0  0
 14 15  2  0  0  0  0
 14 23  1  0  0  0  0
 11 12  1  0  0  0  0
 11 13  1  0  0  0  0
 11 14  1  0  0  0  0
  9 10  1  0  0  0  0
  9 11  1  0  0  0  0
  9 25  1  0  0  0  0
  7  8  1  0  0  0  0
  7  9  1  0  0  0  0
 29 30  1  0  0  0  0
 29 31  1  0  0  0  0
 29 32  1  0  0  0  0
 27 28  1  0  0  0  0
 27 29  1  0  0  0  0
M  END
$$$$
default_name
  -OEChem-02102213163D

 32 32  0     1  0  0  0  0  0999 V2000
   -3.8405   -3.7518    1.6252 H   0  0  0  0  0  0  0  0  0  0  0  0
   -3.7965   -2.8768    0.9782 C   0  0  0  0  0  0  0  0  0  0  0  0
   -4.5465   -2.1527    1.2902 H   0  0  0  0  0  0  0  0  0  0  0  0
   -3.9745   -3.1748   -0.0538 H   0  0  0  0  0  0  0  0  0  0  0  0
   -2.4245   -2.2537    1.0882 C   0  0  0  0  0  0  0  0  0  0  0  0
   -1.5805   -2.7478    1.8242 O   0  0  0  0  0  0  0  0  0  0  0  0
   -2.2045   -1.1637    0.3562 N   0  0  0  0  0  0  0  0  0  0  0  0
   -2.9595   -0.7907   -0.2008 H   0  0  0  0  0  0  0  0  0  0  0  0
   -0.9485   -0.4087    0.3482 C   0  0  1  0  0  0  0  0  0  0  0  0
   -0.3666   -0.6914    1.2269 H   0  0  0  0  0  0  0  0  0  0  0  0
   -0.1405   -0.7797   -0.9072 C   0  0  0  0  0  0  0  0  0  0  0  0
    0.6766   -1.4433   -0.6204 H   0  0  0  0  0  0  0  0  0  0  0  0
   -0.7854   -1.3316   -1.5927 H   0  0  0  0  0  0  0  0  0  0  0  0
    0.4546    0.4133   -1.6307 C   0  0  0  0  0  0  0  0  0  0  0  0
    1.6580    0.2838   -2.3498 C   0  0  0  0  0  0  0  0  0  0  0  0
    2.1780   -0.6635   -2.3715 H   0  0  0  0  0  0  0  0  0  0  0  0
    2.1822    1.3843   -3.0525 C   0  0  0  0  0  0  0  0  0  0  0  0
    3.1077    1.2834   -3.6019 H   0  0  0  0  0  0  0  0  0  0  0  0
    1.5039    2.6149   -3.0391 C   0  0  0  0  0  0  0  0  0  0  0  0
    1.9080    3.4611   -3.5771 H   0  0  0  0  0  0  0  0  0  0  0  0
    0.3020    2.7481   -2.3203 C   0  0  0  0  0  0  0  0  0  0  0  0
   -0.2167    3.6955   -2.3055 H   0  0  0  0  0  0  0  0  0  0  0  0
   -0.2200    1.6490   -1.6155 C   0  0  0  0  0  0  0  0  0  0  0  0
   -1.1430    1.7537   -1.0601 H   0  0  0  0  0  0  0  0  0  0  0  0
   -1.2168    1.1047    0.4313 C   0  0  0  0  0  0  0  0  0  0  0  0
   -2.0890    1.6186   -0.2704 O   0  0  0  0  0  0  0  0  0  0  0  0
   -0.4674    1.8182    1.2813 N   0  0  0  0  0  0  0  0  0  0  0  0
    0.2640    1.3348    1.7800 H   0  0  0  0  0  0  0  0  0  0  0  0
   -0.5889    3.2615    1.4722 C   0  0  0  0  0  0  0  0  0  0  0  0
   -1.6291    3.5206    1.6805 H   0  0  0  0  0  0  0  0  0  0  0  0
    0.0359    3.5855    2.3049 H   0  0  0  0  0  0  0  0  0  0  0  0
   -0.2760    3.7797    0.5637 H   0  0  0  0  0  0  0  0  0  0  0  0
  5  6  2  0  0  0  0
  5  7  1  0  0  0  0
  2  3  1  0  0  0  0
  2  4  1  0  0  0  0
  2  5  1  0  0  0  0
  1  2  1  0  0  0  0
 25 26  2  0  0  0  0
 25 27  1  0  0  0  0
 23 24  1  0  0  0  0
 21 22  1  0  0  0  0
 21 23  2  0  0  0  0
 19 20  1  0  0  0  0
 19 21  1  0  0  0  0
 17 18  1  0  0  0  0
 17 19  2  0  0  0  0
 15 16  1  0  0  0  0
 15 17  1  0  0  0  0
 14 15  2  0  0  0  0
 14 23  1  0  0  0  0
 11 12  1  0  0  0  0
 11 13  1  0  0  0  0
 11 14  1  0  0  0  0
  9 10  1  0  0  0  0
  9 11  1  0  0  0  0
  9 25  1  0  0  0  0
  7  8  1  0  0  0  0
  7  9  1  0  0  0  0
 29 30  1  0  0  0  0
 29 31  1  0  0  0  0
 29 32  1  0  0  0  0
 27 28  1  0  0  0  0
 27 29  1  0  0  0  0
M  END
$$$$
default_name
  -OEChem-02102213163D

 32 32  0     1  0  0  0  0  0999 V2000
   -3.8405   -3.7518    1.6252 H   0  0  0  0  0  0  0  0  0  0  0  0
   -3.7965   -2.8768    0.9782 C   0  0  0  0  0  0  0  0  0  0  0  0
   -4.5465   -2.1527    1.2902 H   0  0  0  0  0  0  0  0  0  0  0  0
   -3.9745   -3.1748   -0.0538 H   0  0  0  0  0  0  0  0  0  0  0  0
   -2.4245   -2.2537    1.0882 C   0  0  0  0  0  0  0  0  0  0  0  0
   -1.5805   -2.7478    1.8242 O   0  0  0  0  0  0  0  0  0  0  0  0
   -2.2045   -1.1637    0.3562 N   0  0  0  0  0  0  0  0  0  0  0  0
   -2.9595   -0.7907   -0.2008 H   0  0  0  0  0  0  0  0  0  0  0  0
   -0.9485   -0.4087    0.3482 C   0  0  1  0  0  0  0  0  0  0  0  0
   -0.3666   -0.6914    1.2269 H   0  0  0  0  0  0  0  0  0  0  0  0
   -0.1405   -0.7797   -0.9072 C   0  0  0  0  0  0  0  0  0  0  0  0
    0.6766   -1.4433   -0.6204 H   0  0  0  0  0  0  0  0  0  0  0  0
   -0.7854   -1.3316   -1.5927 H   0  0  0  0  0  0  0  0  0  0  0  0
    0.4546    0.4133   -1.6307 C   0  0  0  0  0  0  0  0  0  0  0  0
    1.4641    0.2318   -2.5949 C   0  0  0  0  0  0  0  0  0  0  0  0
    1.8379   -0.7595   -2.8094 H   0  0  0  0  0  0  0  0  0  0  0  0
    1.9822    1.3391   -3.2915 C   0  0  0  0  0  0  0  0  0  0  0  0
    2.7591    1.1979   -4.0297 H   0  0  0  0  0  0  0  0  0  0  0  0
    1.4909    2.6288   -3.0269 C   0  0  0  0  0  0  0  0  0  0  0  0
    1.8906    3.4798   -3.5604 H   0  0  0  0  0  0  0  0  0  0  0  0
    0.4832    2.8139   -2.0629 C   0  0  0  0  0  0  0  0  0  0  0  0
    0.1093    3.8058   -1.8555 H   0  0  0  0  0  0  0  0  0  0  0  0
   -0.0320    1.7074   -1.3646 C   0  0  0  0  0  0  0  0  0  0  0  0
   -0.8049    1.8515   -0.6208 H   0  0  0  0  0  0  0  0  0  0  0  0
   -1.2168    1.1047    0.4313 C   0  0  0  0  0  0  0  0  0  0  0  0
   -2.0890    1.6186   -0.2704 O   0  0  0  0  0  0  0  0  0  0  0  0
   -0.4674    1.8182    1.2813 N   0  0  0  0  0  0  0  0  0  0  0  0
    0.2640    1.3348    1.7800 H   0  0  0  0  0  0  0  0  0  0  0  0
   -0.5889    3.2615    1.4722 C   0  0  0  0  0  0  0  0  0  0  0  0
   -1.6291    3.5206    1.6805 H   0  0  0  0  0  0  0  0  0  0  0  0
    0.0359    3.5855    2.3049 H   0  0  0  0  0  0  0  0  0  0  0  0
   -0.2760    3.7797    0.5637 H   0  0  0  0  0  0  0  0  0  0  0  0
  5  6  2  0  0  0  0
  5  7  1  0  0  0  0
  2  3  1  0  0  0  0
  2  4  1  0  0  0  0
  2  5  1  0  0  0  0
  1  2  1  0  0  0  0
 25 26  2  0  0  0  0
 25 27  1  0  0  0  0
 23 24  1  0  0  0  0
 21 22  1  0  0  0  0
 21 23  2  0  0  0  0
 19 20  1  0  0  0  0
 19 21  1  0  0  0  0
 17 18  1  0  0  0  0
 17 19  2  0  0  0  0
 15 16  1  0  0  0  0
 15 17  1  0  0  0  0
 14 15  2  0  0  0  0
 14 23  1  0  0  0  0
 11 12  1  0  0  0  0
 11 13  1  0  0  0  0
 11 14  1  0  0  0  0
  9 10  1  0  0  0  0
  9 11  1  0  0  0  0
  9 25  1  0  0  0  0
  7  8  1  0  0  0  0
  7  9  1  0  0  0  0
 29 30  1  0  0  0  0
 29 31  1  0  0  0  0
 29 32  1  0  0  0  0
 27 28  1  0  0  0  0
 27 29  1  0  0  0  0
M  END
$$$$
default_name
  -OEChem-02102213163D

 32 32  0     1  0  0  0  0  0999 V2000
   -3.8405   -3.7518    1.6252 H   0  0  0  0  0  0  0  0  0  0  0  0
   -3.7965   -2.8768    0.9782 C   0  0  0  0  0  0  0  0  0  0  0  0
   -4.5465   -2.1527    1.2902 H   0  0  0  0  0  0  0  0  0  0  0  0
   -3.9745   -3.1748   -0.0538 H   0  0  0  0  0  0  0  0  0  0  0  0
   -2.4245   -2.2537    1.0882 C   0  0  0  0  0  0  0  0  0  0  0  0
   -1.5805   -2.7478    1.8242 O   0  0  0  0  0  0  0  0  0  0  0  0
   -2.2045   -1.1637    0.3562 N   0  0  0  0  0  0  0  0  0  0  0  0
   -2.9595   -0.7907   -0.2008 H   0  0  0  0  0  0  0  0  0  0  0  0
   -0.9485   -0.4087    0.3482 C   0  0  1  0  0  0  0  0  0  0  0  0
   -0.3666   -0.6914    1.2269 H   0  0  0  0  0  0  0  0  0  0  0  0
   -0.1405   -0.7797   -0.9072 C   0  0  0  0  0  0  0  0  0  0  0  0
    0.4970   -1.6351   -0.6793 H   0  0  0  0  0  0  0  0  0  0  0  0
   -0.8309   -1.0863   -1.6944 H   0  0  0  0  0  0  0  0  0  0  0  0
    0.7425    0.3402   -1.4238 C   0  0  0  0  0  0  0  0  0  0  0  0
    1.5416    0.1489   -2.5669 C   0  0  0  0  0  0  0  0  0  0  0  0
    1.5477   -0.8072   -3.0710 H   0  0  0  0  0  0  0  0  0  0  0  0
    2.3265    1.2055   -3.0643 C   0  0  0  0  0  0  0  0  0  0  0  0
    2.9414    1.0557   -3.9407 H   0  0  0  0  0  0  0  0  0  0  0  0
    2.3126    2.4549   -2.4213 C   0  0  0  0  0  0  0  0  0  0  0  0
    2.9175    3.2659   -2.8021 H   0  0  0  0  0  0  0  0  0  0  0  0
    1.5163    2.6490   -1.2779 C   0  0  0  0  0  0  0  0  0  0  0  0
    1.5097    3.6077   -0.7804 H   0  0  0  0  0  0  0  0  0  0  0  0
    0.7345    1.5919   -0.7792 C   0  0  0  0  0  0  0  0  0  0  0  0
    0.1249    1.7416    0.1025 H   0  0  0  0  0  0  0  0  0  0  0  0
   -1.2168    1.1047    0.4313 C   0  0  0  0  0  0  0  0  0  0  0  0
   -2.0890    1.6186   -0.2704 O   0  0  0  0  0  0  0  0  0  0  0  0
   -0.4674    1.8182    1.2813 N   0  0  0  0  0  0  0  0  0  0  0  0
    0.2640    1.3348    1.7800 H   0  0  0  0  0  0  0  0  0  0  0  0
   -0.5889    3.2615    1.4722 C   0  0  0  0  0  0  0  0  0  0  0  0
   -1.6291    3.5206    1.6805 H   0  0  0  0  0  0  0  0  0  0  0  0
    0.0359    3.5855    2.3049 H   0  0  0  0  0  0  0  0  0  0  0  0
   -0.2760    3.7797    0.5637 H   0  0  0  0  0  0  0  0  0  0  0  0
  5  6  2  0  0  0  0
  5  7  1  0  0  0  0
  2  3  1  0  0  0  0
  2  4  1  0  0  0  0
  2  5  1  0  0  0  0
  1  2  1  0  0  0  0
 25 26  2  0  0  0  0
 25 27  1  0  0  0  0
 23 24  1  0  0  0  0
 21 22  1  0  0  0  0
 21 23  2  0  0  0  0
 19 20  1  0  0  0  0
 19 21  1  0  0  0  0
 17 18  1  0  0  0  0
 17 19  2  0  0  0  0
 15 16  1  0  0  0  0
 15 17  1  0  0  0  0
 14 15  2  0  0  0  0
 14 23  1  0  0  0  0
 11 12  1  0  0  0  0
 11 13  1  0  0  0  0
 11 14  1  0  0  0  0
  9 10  1  0  0  0  0
  9 11  1  0  0  0  0
  9 25  1  0  0  0  0
  7  8  1  0  0  0  0
  7  9  1  0  0  0  0
 29 30  1  0  0  0  0
 29 31  1  0  0  0  0
 29 32  1  0  0  0  0
 27 28  1  0  0  0  0
 27 29  1  0  0  0  0
M  END
$$$$
default_name
  -OEChem-02102213163D

 32 32  0     1  0  0  0  0  0999 V2000
   -3.8405   -3.7518    1.6252 H   0  0  0  0  0  0  0  0  0  0  0  0
   -3.7965   -2.8768    0.9782 C   0  0  0  0  0  0  0  0  0  0  0  0
   -4.5465   -2.1527    1.2902 H   0  0  0  0  0  0  0  0  0  0  0  0
   -3.9745   -3.1748   -0.0538 H   0  0  0  0  0  0  0  0  0  0  0  0
   -2.4245   -2.2537    1.0882 C   0  0  0  0  0  0  0  0  0  0  0  0
   -1.5805   -2.7478    1.8242 O   0  0  0  0  0  0  0  0  0  0  0  0
   -2.2045   -1.1637    0.3562 N   0  0  0  0  0  0  0  0  0  0  0  0
   -2.9595   -0.7907   -0.2008 H   0  0  0  0  0  0  0  0  0  0  0  0
   -0.9485   -0.4087    0.3482 C   0  0  1  0  0  0  0  0  0  0  0  0
   -0.3666   -0.6914    1.2269 H   0  0  0  0  0  0  0  0  0  0  0  0
   -0.1405   -0.7797   -0.9072 C   0  0  0  0  0  0  0  0  0  0  0  0
    0.4970   -1.6351   -0.6793 H   0  0  0  0  0  0  0  0  0  0  0  0
   -0.8309   -1.0863   -1.6944 H   0  0  0  0  0  0  0  0  0  0  0  0
    0.7425    0.3402   -1.4238 C   0  0  0  0  0  0  0  0  0  0  0  0
    1.2932    0.2751   -2.7178 C   0  0  0  0  0  0  0  0  0  0  0  0
    1.1079   -0.5863   -3.3438 H   0  0  0  0  0  0  0  0  0  0  0  0
    2.0774    1.3368   -3.2054 C   0  0  0  0  0  0  0  0  0  0  0  0
    2.5014    1.2837   -4.1983 H   0  0  0  0  0  0  0  0  0  0  0  0
    2.3107    2.4655   -2.4015 C   0  0  0  0  0  0  0  0  0  0  0  0
    2.9152    3.2801   -2.7752 H   0  0  0  0  0  0  0  0  0  0  0  0
    1.7631    2.5331   -1.1074 C   0  0  0  0  0  0  0  0  0  0  0  0
    1.9469    3.3982   -0.4873 H   0  0  0  0  0  0  0  0  0  0  0  0
    0.9822    1.4705   -0.6192 C   0  0  0  0  0  0  0  0  0  0  0  0
    0.5643    1.5222    0.3778 H   0  0  0  0  0  0  0  0  0  0  0  0
   -1.2168    1.1047    0.4313 C   0  0  0  0  0  0  0  0  0  0  0  0
   -2.0890    1.6186   -0.2704 O   0  0  0  0  0  0  0  0  0  0  0  0
   -0.4674    1.8182    1.2813 N   0  0  0  0  0  0  0  0  0  0  0  0
    0.2640    1.3348    1.7800 H   0  0  0  0  0  0  0  0  0  0  0  0
   -0.5889    3.2615    1.4722 C   0  0  0  0  0  0  0  0  0  0  0  0
   -1.6291    3.5206    1.6805 H   0  0  0  0  0  0  0  0  0  0  0  0
    0.0359    3.5855    2.3049 H   0  0  0  0  0  0  0  0  0  0  0  0
   -0.2760    3.7797    0.5637 H   0  0  0  0  0  0  0  0  0  0  0  0
  5  6  2  0  0  0  0
  5  7  1  0  0  0  0
  2  3  1  0  0  0  0
  2  4  1  0  0  0  0
  2  5  1  0  0  0  0
  1  2  1  0  0  0  0
 25 26  2  0  0  0  0
 25 27  1  0  0  0  0
 23 24  1  0  0  0  0
 21 22  1  0  0  0  0
 21 23  2  0  0  0  0
 19 20  1  0  0  0  0
 19 21  1  0  0  0  0
 17 18  1  0  0  0  0
 17 19  2  0  0  0  0
 15 16  1  0  0  0  0
 15 17  1  0  0  0  0
 14 15  2  0  0  0  0
 14 23  1  0  0  0  0
 11 12  1  0  0  0  0
 11 13  1  0  0  0  0
 11 14  1  0  0  0  0
  9 10  1  0  0  0  0
  9 11  1  0  0  0  0
  9 25  1  0  0  0  0
  7  8  1  0  0  0  0
  7  9  1  0  0  0  0
 29 30  1  0  0  0  0
 29 31  1  0  0  0  0
 29 32  1  0  0  0  0
 27 28  1  0  0  0  0
 27 29  1  0  0  0  0
M  END
$$$$
default_name
  -OEChem-02102213163D

 32 32  0     1  0  0  0  0  0999 V2000
   -3.8405   -3.7518    1.6252 H   0  0  0  0  0  0  0  0  0  0  0  0
   -3.7965   -2.8768    0.9782 C   0  0  0  0  0  0  0  0  0  0  0  0
   -4.5465   -2.1527    1.2902 H   0  0  0  0  0  0  0  0  0  0  0  0
   -3.9745   -3.1748   -0.0538 H   0  0  0  0  0  0  0  0  0  0  0  0
   -2.4245   -2.2537    1.0882 C   0  0  0  0  0  0  0  0  0  0  0  0
   -1.5805   -2.7478    1.8242 O   0  0  0  0  0  0  0  0  0  0  0  0
   -2.2045   -1.1637    0.3562 N   0  0  0  0  0  0  0  0  0  0  0  0
   -2.9595   -0.7907   -0.2008 H   0  0  0  0  0  0  0  0  0  0  0  0
   -0.9485   -0.4087    0.3482 C   0  0  1  0  0  0  0  0  0  0  0  0
   -0.3666   -0.6914    1.2269 H   0  0  0  0  0  0  0  0  0  0  0  0
   -0.1405   -0.7797   -0.9072 C   0  0  0  0  0  0  0  0  0  0  0  0
    0.4970   -1.6351   -0.6793 H   0  0  0  0  0  0  0  0  0  0  0  0
   -0.8309   -1.0863   -1.6944 H   0  0  0  0  0  0  0  0  0  0  0  0
    0.7425    0.3402   -1.4238 C   0  0  0  0  0  0  0  0  0  0  0  0
    1.0355    0.4417   -2.7970 C   0  0  0  0  0  0  0  0  0  0  0  0
    0.6505   -0.2931   -3.4899 H   0  0  0  0  0  0  0  0  0  0  0  0
    1.8214    1.5069   -3.2742 C   0  0  0  0  0  0  0  0  0  0  0  0
    2.0473    1.5815   -4.3287 H   0  0  0  0  0  0  0  0  0  0  0  0
    2.3136    2.4730   -2.3803 C   0  0  0  0  0  0  0  0  0  0  0  0
    2.9193    3.2900   -2.7466 H   0  0  0  0  0  0  0  0  0  0  0  0
    2.0239    2.3737   -1.0073 C   0  0  0  0  0  0  0  0  0  0  0  0
    2.4067    3.1131   -0.3193 H   0  0  0  0  0  0  0  0  0  0  0  0
    1.2413    1.3072   -0.5302 C   0  0  0  0  0  0  0  0  0  0  0  0
    1.0219    1.2301    0.5267 H   0  0  0  0  0  0  0  0  0  0  0  0
   -1.2168    1.1047    0.4313 C   0  0  0  0  0  0  0  0  0  0  0  0
   -2.0890    1.6186   -0.2704 O   0  0  0  0  0  0  0  0  0  0  0  0
   -0.4674    1.8182    1.2813 N   0  0  0  0  0  0  0  0  0  0  0  0
    0.2640    1.3348    1.7800 H   0  0  0  0  0  0  0  0  0  0  0  0
   -0.5889    3.2615    1.4722 C   0  0  0  0  0  0  0  0  0  0  0  0
   -1.6291    3.5206    1.6805 H   0  0  0  0  0  0  0  0  0  0  0  0
    0.0359    3.5855    2.3049 H   0  0  0  0  0  0  0  0  0  0  0  0
   -0.2760    3.7797    0.5637 H   0  0  0  0  0  0  0  0  0  0  0  0
  5  6  2  0  0  0  0
  5  7  1  0  0  0  0
  2  3  1  0  0  0  0
  2  4  1  0  0  0  0
  2  5  1  0  0  0  0
  1  2  1  0  0  0  0
 25 26  2  0  0  0  0
 25 27  1  0  0  0  0
 23 24  1  0  0  0  0
 21 22  1  0  0  0  0
 21 23  2  0  0  0  0
 19 20  1  0  0  0  0
 19 21  1  0  0  0  0
 17 18  1  0  0  0  0
 17 19  2  0  0  0  0
 15 16  1  0  0  0  0
 15 17  1  0  0  0  0
 14 15  2  0  0  0  0
 14 23  1  0  0  0  0
 11 12  1  0  0  0  0
 11 13  1  0  0  0  0
 11 14  1  0  0  0  0
  9 10  1  0  0  0  0
  9 11  1  0  0  0  0
  9 25  1  0  0  0  0
  7  8  1  0  0  0  0
  7  9  1  0  0  0  0
 29 30  1  0  0  0  0
 29 31  1  0  0  0  0
 29 32  1  0  0  0  0
 27 28  1  0  0  0  0
 27 29  1  0  0  0  0
M  END
$$$$
default_name
  -OEChem-02102213163D

 32 32  0     1  0  0  0  0  0999 V2000
   -3.8405   -3.7518    1.6252 H   0  0  0  0  0  0  0  0  0  0  0  0
   -3.7965   -2.8768    0.9782 C   0  0  0  0  0  0  0  0  0  0  0  0
   -4.5465   -2.1527    1.2902 H   0  0  0  0  0  0  0  0  0  0  0  0
   -3.9745   -3.1748   -0.0538 H   0  0  0  0  0  0  0  0  0  0  0  0
   -2.4245   -2.2537    1.0882 C   0  0  0  0  0  0  0  0  0  0  0  0
   -1.5805   -2.7478    1.8242 O   0  0  0  0  0  0  0  0  0  0  0  0
   -2.2045   -1.1637    0.3562 N   0  0  0  0  0  0  0  0  0  0  0  0
   -2.9595   -0.7907   -0.2008 H   0  0  0  0  0  0  0  0  0  0  0  0
   -0.9485   -0.4087    0.3482 C   0  0  1  0  0  0  0  0  0  0  0  0
   -0.3666   -0.6914    1.2269 H   0  0  0  0  0  0  0  0  0  0  0  0
   -0.1405   -0.7797   -0.9072 C   0  0  0  0  0  0  0  0  0  0  0  0
    0.4970   -1.6351   -0.6793 H   0  0  0  0  0  0  0  0  0  0  0  0
   -0.8309   -1.0863   -1.6944 H   0  0  0  0  0  0  0  0  0  0  0  0
    0.7425    0.3402   -1.4238 C   0  0  0  0  0  0  0  0  0  0  0  0
    0.7862    0.6373   -2.7992 C   0  0  0  0  0  0  0  0  0  0  0  0
    0.2066    0.0524   -3.4995 H   0  0  0  0  0  0  0  0  0  0  0  0
    1.5759    1.7042   -3.2662 C   0  0  0  0  0  0  0  0  0  0  0  0
    1.6101    1.9289   -4.3230 H   0  0  0  0  0  0  0  0  0  0  0  0
    2.3212    2.4767   -2.3593 C   0  0  0  0  0  0  0  0  0  0  0  0
    2.9297    3.2949   -2.7183 H   0  0  0  0  0  0  0  0  0  0  0  0
    2.2809    2.1816   -0.9844 C   0  0  0  0  0  0  0  0  0  0  0  0
    2.8579    2.7719   -0.2878 H   0  0  0  0  0  0  0  0  0  0  0  0
    1.4942    1.1133   -0.5185 C   0  0  0  0  0  0  0  0  0  0  0  0
    1.4666    0.8852    0.5391 H   0  0  0  0  0  0  0  0  0  0  0  0
   -1.2168    1.1047    0.4313 C   0  0  0  0  0  0  0  0  0  0  0  0
   -2.0890    1.6186   -0.2704 O   0  0  0  0  0  0  0  0  0  0  0  0
   -0.4674    1.8182    1.2813 N   0  0  0  0  0  0  0  0  0  0  0  0
    0.2640    1.3348    1.7800 H   0  0  0  0  0  0  0  0  0  0  0  0
   -0.5889    3.2615    1.4722 C   0  0  0  0  0  0  0  0  0  0  0  0
   -1.6291    3.5206    1.6805 H   0  0  0  0  0  0  0  0  0  0  0  0
    0.0359    3.5855    2.3049 H   0  0  0  0  0  0  0  0  0  0  0  0
   -0.2760    3.7797    0.5637 H   0  0  0  0  0  0  0  0  0  0  0  0
  5  6  2  0  0  0  0
  5  7  1  0  0  0  0
  2  3  1  0  0  0  0
  2  4  1  0  0  0  0
  2  5  1  0  0  0  0
  1  2  1  0  0  0  0
 25 26  2  0  0  0  0
 25 27  1  0  0  0  0
 23 24  1  0  0  0  0
 21 22  1  0  0  0  0
 21 23  2  0  0  0  0
 19 20  1  0  0  0  0
 19 21  1  0  0  0  0
 17 18  1  0  0  0  0
 17 19  2  0  0  0  0
 15 16  1  0  0  0  0
 15 17  1  0  0  0  0
 14 15  2  0  0  0  0
 14 23  1  0  0  0  0
 11 12  1  0  0  0  0
 11 13  1  0  0  0  0
 11 14  1  0  0  0  0
  9 10  1  0  0  0  0
  9 11  1  0  0  0  0
  9 25  1  0  0  0  0
  7  8  1  0  0  0  0
  7  9  1  0  0  0  0
 29 30  1  0  0  0  0
 29 31  1  0  0  0  0
 29 32  1  0  0  0  0
 27 28  1  0  0  0  0
 27 29  1  0  0  0  0
M  END
$$$$
default_name
  -OEChem-02102213163D

 32 32  0     1  0  0  0  0  0999 V2000
   -3.8405   -3.7518    1.6252 H   0  0  0  0  0  0  0  0  0  0  0  0
   -3.7965   -2.8768    0.9782 C   0  0  0  0  0  0  0  0  0  0  0  0
   -4.5465   -2.1527    1.2902 H   0  0  0  0  0  0  0  0  0  0  0  0
   -3.9745   -3.1748   -0.0538 H   0  0  0  0  0  0  0  0  0  0  0  0
   -2.4245   -2.2537    1.0882 C   0  0  0  0  0  0  0  0  0  0  0  0
   -1.5805   -2.7478    1.8242 O   0  0  0  0  0  0  0  0  0  0  0  0
   -2.2045   -1.1637    0.3562 N   0  0  0  0  0  0  0  0  0  0  0  0
   -2.9595   -0.7907   -0.2008 H   0  0  0  0  0  0  0  0  0  0  0  0
   -0.9485   -0.4087    0.3482 C   0  0  1  0  0  0  0  0  0  0  0  0
   -0.3666   -0.6914    1.2269 H   0  0  0  0  0  0  0  0  0  0  0  0
   -0.1405   -0.7797   -0.9072 C   0  0  0  0  0  0  0  0  0  0  0  0
    0.4970   -1.6351   -0.6793 H   0  0  0  0  0  0  0  0  0  0  0  0
   -0.8309   -1.0863   -1.6944 H   0  0  0  0  0  0  0  0  0  0  0  0
    0.7425    0.3402   -1.4238 C   0  0  0  0  0  0  0  0  0  0  0  0
    0.5622    0.8484   -2.7243 C   0  0  0  0  0  0  0  0  0  0  0  0
   -0.1935    0.4268   -3.3719 H   0  0  0  0  0  0  0  0  0  0  0  0
    1.3577    1.9151   -3.1817 C   0  0  0  0  0  0  0  0  0  0  0  0
    1.2194    2.3021   -4.1816 H   0  0  0  0  0  0  0  0  0  0  0  0
    2.3328    2.4765   -2.3399 C   0  0  0  0  0  0  0  0  0  0  0  0
    2.9455    3.2944   -2.6923 H   0  0  0  0  0  0  0  0  0  0  0  0
    2.5165    1.9700   -1.0404 C   0  0  0  0  0  0  0  0  0  0  0  0
    3.2696    2.3979   -0.3951 H   0  0  0  0  0  0  0  0  0  0  0  0
    1.7236    0.9019   -0.5846 C   0  0  0  0  0  0  0  0  0  0  0  0
    1.8682    0.5109    0.4142 H   0  0  0  0  0  0  0  0  0  0  0  0
   -1.2168    1.1047    0.4313 C   0  0  0  0  0  0  0  0  0  0  0  0
   -2.0890    1.6186   -0.2704 O   0  0  0  0  0  0  0  0  0  0  0  0
   -0.4674    1.8182    1.2813 N   0  0  0  0  0  0  0  0  0  0  0  0
    0.2640    1.3348    1.7800 H   0  0  0  0  0  0  0  0  0  0  0  0
   -0.5889    3.2615    1.4722 C   0  0  0  0  0  0  0  0  0  0  0  0
   -1.6291    3.5206    1.6805 H   0  0  0  0  0  0  0  0  0  0  0  0
    0.0359    3.5855    2.3049 H   0  0  0  0  0  0  0  0  0  0  0  0
   -0.2760    3.7797    0.5637 H   0  0  0  0  0  0  0  0  0  0  0  0
  5  6  2  0  0  0  0
  5  7  1  0  0  0  0
  2  3  1  0  0  0  0
  2  4  1  0  0  0  0
  2  5  1  0  0  0  0
  1  2  1  0  0  0  0
 25 26  2  0  0  0  0
 25 27  1  0  0  0  0
 23 24  1  0  0  0  0
 21 22  1  0  0  0  0
 21 23  2  0  0  0  0
 19 20  1  0  0  0  0
 19 21  1  0  0  0  0
 17 18  1  0  0  0  0
 17 19  2  0  0  0  0
 15 16  1  0  0  0  0
 15 17  1  0  0  0  0
 14 15  2  0  0  0  0
 14 23  1  0  0  0  0
 11 12  1  0  0  0  0
 11 13  1  0  0  0  0
 11 14  1  0  0  0  0
  9 10  1  0  0  0  0
  9 11  1  0  0  0  0
  9 25  1  0  0  0  0
  7  8  1  0  0  0  0
  7  9  1  0  0  0  0
 29 30  1  0  0  0  0
 29 31  1  0  0  0  0
 29 32  1  0  0  0  0
 27 28  1  0  0  0  0
 27 29  1  0  0  0  0
M  END
$$$$
default_name
  -OEChem-02102213163D

 32 32  0     1  0  0  0  0  0999 V2000
   -3.8405   -3.7518    1.6252 H   0  0  0  0  0  0  0  0  0  0  0  0
   -3.7965   -2.8768    0.9782 C   0  0  0  0  0  0  0  0  0  0  0  0
   -4.5465   -2.1527    1.2902 H   0  0  0  0  0  0  0  0  0  0  0  0
   -3.9745   -3.1748   -0.0538 H   0  0  0  0  0  0  0  0  0  0  0  0
   -2.4245   -2.2537    1.0882 C   0  0  0  0  0  0  0  0  0  0  0  0
   -1.5805   -2.7478    1.8242 O   0  0  0  0  0  0  0  0  0  0  0  0
   -2.2045   -1.1637    0.3562 N   0  0  0  0  0  0  0  0  0  0  0  0
   -2.9595   -0.7907   -0.2008 H   0  0  0  0  0  0  0  0  0  0  0  0
   -0.9485   -0.4087    0.3482 C   0  0  1  0  0  0  0  0  0  0  0  0
   -0.3666   -0.6914    1.2269 H   0  0  0  0  0  0  0  0  0  0  0  0
   -0.1405   -0.7797   -0.9072 C   0  0  0  0  0  0  0  0  0  0  0  0
    0.4970   -1.6351   -0.6793 H   0  0  0  0  0  0  0  0  0  0  0  0
   -0.8309   -1.0863   -1.6944 H   0  0  0  0  0  0  0  0  0  0  0  0
    0.7425    0.3402   -1.4238 C   0  0  0  0  0  0  0  0  0  0  0  0
    0.3788    1.0609   -2.5772 C   0  0  0  0  0  0  0  0  0  0  0  0
   -0.5226    0.8045   -3.1157 H   0  0  0  0  0  0  0  0  0  0  0  0
    1.1817    2.1254   -3.0267 C   0  0  0  0  0  0  0  0  0  0  0  0
    0.9020    2.6758   -3.9141 H   0  0  0  0  0  0  0  0  0  0  0  0
    2.3477    2.4723   -2.3234 C   0  0  0  0  0  0  0  0  0  0  0  0
    2.9658    3.2887   -2.6701 H   0  0  0  0  0  0  0  0  0  0  0  0
    2.7148    1.7533   -1.1713 C   0  0  0  0  0  0  0  0  0  0  0  0
    3.6139    2.0164   -0.6337 H   0  0  0  0  0  0  0  0  0  0  0  0
    1.9139    0.6874   -0.7242 C   0  0  0  0  0  0  0  0  0  0  0  0
    2.1992    0.1329    0.1603 H   0  0  0  0  0  0  0  0  0  0  0  0
   -1.2168    1.1047    0.4313 C   0  0  0  0  0  0  0  0  0  0  0  0
   -2.0890    1.6186   -0.2704 O   0  0  0  0  0  0  0  0  0  0  0  0
   -0.4674    1.8182    1.2813 N   0  0  0  0  0  0  0  0  0  0  0  0
    0.2640    1.3348    1.7800 H   0  0  0  0  0  0  0  0  0  0  0  0
   -0.5889    3.2615    1.4722 C   0  0  0  0  0  0  0  0  0  0  0  0
   -1.6291    3.5206    1.6805 H   0  0  0  0  0  0  0  0  0  0  0  0
    0.0359    3.5855    2.3049 H   0  0  0  0  0  0  0  0  0  0  0  0
   -0.2760    3.7797    0.5637 H   0  0  0  0  0  0  0  0  0  0  0  0
  5  6  2  0  0  0  0
  5  7  1  0  0  0  0
  2  3  1  0  0  0  0
  2  4  1  0  0  0  0
  2  5  1  0  0  0  0
  1  2  1  0  0  0  0
 25 26  2  0  0  0  0
 25 27  1  0  0  0  0
 23 24  1  0  0  0  0
 21 22  1  0  0  0  0
 21 23  2  0  0  0  0
 19 20  1  0  0  0  0
 19 21  1  0  0  0  0
 17 18  1  0  0  0  0
 17 19  2  0  0  0  0
 15 16  1  0  0  0  0
 15 17  1  0  0  0  0
 14 15  2  0  0  0  0
 14 23  1  0  0  0  0
 11 12  1  0  0  0  0
 11 13  1  0  0  0  0
 11 14  1  0  0  0  0
  9 10  1  0  0  0  0
  9 11  1  0  0  0  0
  9 25  1  0  0  0  0
  7  8  1  0  0  0  0
  7  9  1  0  0  0  0
 29 30  1  0  0  0  0
 29 31  1  0  0  0  0
 29 32  1  0  0  0  0
 27 28  1  0  0  0  0
 27 29  1  0  0  0  0
M  END
$$$$
default_name
  -OEChem-02102213163D

 32 32  0     1  0  0  0  0  0999 V2000
   -3.8405   -3.7518    1.6252 H   0  0  0  0  0  0  0  0  0  0  0  0
   -3.7965   -2.8768    0.9782 C   0  0  0  0  0  0  0  0  0  0  0  0
   -4.5465   -2.1527    1.2902 H   0  0  0  0  0  0  0  0  0  0  0  0
   -3.9745   -3.1748   -0.0538 H   0  0  0  0  0  0  0  0  0  0  0  0
   -2.4245   -2.2537    1.0882 C   0  0  0  0  0  0  0  0  0  0  0  0
   -1.5805   -2.7478    1.8242 O   0  0  0  0  0  0  0  0  0  0  0  0
   -2.2045   -1.1637    0.3562 N   0  0  0  0  0  0  0  0  0  0  0  0
   -2.9595   -0.7907   -0.2008 H   0  0  0  0  0  0  0  0  0  0  0  0
   -0.9485   -0.4087    0.3482 C   0  0  1  0  0  0  0  0  0  0  0  0
   -0.3666   -0.6914    1.2269 H   0  0  0  0  0  0  0  0  0  0  0  0
   -0.1405   -0.7797   -0.9072 C   0  0  0  0  0  0  0  0  0  0  0  0
    0.4970   -1.6351   -0.6793 H   0  0  0  0  0  0  0  0  0  0  0  0
   -0.8309   -1.0863   -1.6944 H   0  0  0  0  0  0  0  0  0  0  0  0
    0.7425    0.3402   -1.4238 C   0  0  0  0  0  0  0  0  0  0  0  0
    0.2485    1.2601   -2.3681 C   0  0  0  0  0  0  0  0  0  0  0  0
   -0.7583    1.1597   -2.7485 H   0  0  0  0  0  0  0  0  0  0  0  0
    1.0598    2.3207   -2.8117 C   0  0  0  0  0  0  0  0  0  0  0  0
    0.6795    3.0244   -3.5388 H   0  0  0  0  0  0  0  0  0  0  0  0
    2.3649    2.4645   -2.3109 C   0  0  0  0  0  0  0  0  0  0  0  0
    2.9890    3.2780   -2.6535 H   0  0  0  0  0  0  0  0  0  0  0  0
    2.8621    1.5462   -1.3684 C   0  0  0  0  0  0  0  0  0  0  0  0
    3.8672    1.6535   -0.9874 H   0  0  0  0  0  0  0  0  0  0  0  0
    2.0522    0.4845   -0.9277 C   0  0  0  0  0  0  0  0  0  0  0  0
    2.4371   -0.2232   -0.2051 H   0  0  0  0  0  0  0  0  0  0  0  0
   -1.2168    1.1047    0.4313 C   0  0  0  0  0  0  0  0  0  0  0  0
   -2.0890    1.6186   -0.2704 O   0  0  0  0  0  0  0  0  0  0  0  0
   -0.4674    1.8182    1.2813 N   0  0  0  0  0  0  0  0  0  0  0  0
    0.2640    1.3348    1.7800 H   0  0  0  0  0  0  0  0  0  0  0  0
   -0.5889    3.2615    1.4722 C   0  0  0  0  0  0  0  0  0  0  0  0
   -1.6291    3.5206    1.6805 H   0  0  0  0  0  0  0  0  0  0  0  0
    0.0359    3.5855    2.3049 H   0  0  0  0  0  0  0  0  0  0  0  0
   -0.2760    3.7797    0.5637 H   0  0  0  0  0  0  0  0  0  0  0  0
  5  6  2  0  0  0  0
  5  7  1  0  0  0  0
  2  3  1  0  0  0  0
  2  4  1  0  0  0  0
  2  5  1  0  0  0  0
  1  2  1  0  0  0  0
 25 26  2  0  0  0  0
 25 27  1  0  0  0  0
 23 24  1  0  0  0  0
 21 22  1  0  0  0  0
 21 23  2  0  0  0  0
 19 20  1  0  0  0  0
 19 21  1  0  0  0  0
 17 18  1  0  0  0  0
 17 19  2  0  0  0  0
 15 16  1  0  0  0  0
 15 17  1  0  0  0  0
 14 15  2  0  0  0  0
 14 23  1  0  0  0  0
 11 12  1  0  0  0  0
 11 13  1  0  0  0  0
 11 14  1  0  0  0  0
  9 10  1  0  0  0  0
  9 11  1  0  0  0  0
  9 25  1  0  0  0  0
  7  8  1  0  0  0  0
  7  9  1  0  0  0  0
 29 30  1  0  0  0  0
 29 31  1  0  0  0  0
 29 32  1  0  0  0  0
 27 28  1  0  0  0  0
 27 29  1  0  0  0  0
M  END
$$$$
default_name
  -OEChem-02102213163D

 32 32  0     1  0  0  0  0  0999 V2000
   -3.8405   -3.7518    1.6252 H   0  0  0  0  0  0  0  0  0  0  0  0
   -3.7965   -2.8768    0.9782 C   0  0  0  0  0  0  0  0  0  0  0  0
   -4.5465   -2.1527    1.2902 H   0  0  0  0  0  0  0  0  0  0  0  0
   -3.9745   -3.1748   -0.0538 H   0  0  0  0  0  0  0  0  0  0  0  0
   -2.4245   -2.2537    1.0882 C   0  0  0  0  0  0  0  0  0  0  0  0
   -1.5805   -2.7478    1.8242 O   0  0  0  0  0  0  0  0  0  0  0  0
   -2.2045   -1.1637    0.3562 N   0  0  0  0  0  0  0  0  0  0  0  0
   -2.9595   -0.7907   -0.2008 H   0  0  0  0  0  0  0  0  0  0  0  0
   -0.9485   -0.4087    0.3482 C   0  0  1  0  0  0  0  0  0  0  0  0
   -0.3666   -0.6914    1.2269 H   0  0  0  0  0  0  0  0  0  0  0  0
   -0.1405   -0.7797   -0.9072 C   0  0  0  0  0  0  0  0  0  0  0  0
    0.4970   -1.6351   -0.6793 H   0  0  0  0  0  0  0  0  0  0  0  0
   -0.8309   -1.0863   -1.6944 H   0  0  0  0  0  0  0  0  0  0  0  0
    0.7425    0.3402   -1.4238 C   0  0  0  0  0  0  0  0  0  0  0  0
    0.1801    1.4325   -2.1113 C   0  0  0  0  0  0  0  0  0  0  0  0
   -0.8844    1.4682   -2.2952 H   0  0  0  0  0  0  0  0  0  0  0  0
    1.0004    2.4876   -2.5513 C   0  0  0  0  0  0  0  0  0  0  0  0
    0.5669    3.3242   -3.0812 H   0  0  0  0  0  0  0  0  0  0  0  0
    2.3832    2.4536   -2.3034 C   0  0  0  0  0  0  0  0  0  0  0  0
    3.0137    3.2631   -2.6435 H   0  0  0  0  0  0  0  0  0  0  0  0
    2.9486    1.3629   -1.6181 C   0  0  0  0  0  0  0  0  0  0  0  0
    4.0122    1.3340   -1.4322 H   0  0  0  0  0  0  0  0  0  0  0  0
    2.1290    0.3070   -1.1813 C   0  0  0  0  0  0  0  0  0  0  0  0
    2.5656   -0.5331   -0.6571 H   0  0  0  0  0  0  0  0  0  0  0  0
   -1.2168    1.1047    0.4313 C   0  0  0  0  0  0  0  0  0  0  0  0
   -2.0890    1.6186   -0.2704 O   0  0  0  0  0  0  0  0  0  0  0  0
   -0.4674    1.8182    1.2813 N   0  0  0  0  0  0  0  0  0  0  0  0
    0.2640    1.3348    1.7800 H   0  0  0  0  0  0  0  0  0  0  0  0
   -0.5889    3.2615    1.4722 C   0  0  0  0  0  0  0  0  0  0  0  0
   -1.6291    3.5206    1.6805 H   0  0  0  0  0  0  0  0  0  0  0  0
    0.0359    3.5855    2.3049 H   0  0  0  0  0  0  0  0  0  0  0  0
   -0.2760    3.7797    0.5637 H   0  0  0  0  0  0  0  0  0  0  0  0
  5  6  2  0  0  0  0
  5  7  1  0  0  0  0
  2  3  1  0  0  0  0
  2  4  1  0  0  0  0
  2  5  1  0  0  0  0
  1  2  1  0  0  0  0
 25 26  2  0  0  0  0
 25 27  1  0  0  0  0
 23 24  1  0  0  0  0
 21 22  1  0  0  0  0
 21 23  2  0  0  0  0
 19 20  1  0  0  0  0
 19 21  1  0  0  0  0
 17 18  1  0  0  0  0
 17 19  2  0  0  0  0
 15 16  1  0  0  0  0
 15 17  1  0  0  0  0
 14 15  2  0  0  0  0
 14 23  1  0  0  0  0
 11 12  1  0  0  0  0
 11 13  1  0  0  0  0
 11 14  1  0  0  0  0
  9 10  1  0  0  0  0
  9 11  1  0  0  0  0
  9 25  1  0  0  0  0
  7  8  1  0  0  0  0
  7  9  1  0  0  0  0
 29 30  1  0  0  0  0
 29 31  1  0  0  0  0
 29 32  1  0  0  0  0
 27 28  1  0  0  0  0
 27 29  1  0  0  0  0
M  END
$$$$
default_name
  -OEChem-02102213163D

 32 32  0     1  0  0  0  0  0999 V2000
   -3.8405   -3.7518    1.6252 H   0  0  0  0  0  0  0  0  0  0  0  0
   -3.7965   -2.8768    0.9782 C   0  0  0  0  0  0  0  0  0  0  0  0
   -4.5465   -2.1527    1.2902 H   0  0  0  0  0  0  0  0  0  0  0  0
   -3.9745   -3.1748   -0.0538 H   0  0  0  0  0  0  0  0  0  0  0  0
   -2.4245   -2.2537    1.0882 C   0  0  0  0  0  0  0  0  0  0  0  0
   -1.5805   -2.7478    1.8242 O   0  0  0  0  0  0  0  0  0  0  0  0
   -2.2045   -1.1637    0.3562 N   0  0  0  0  0  0  0  0  0  0  0  0
   -2.9595   -0.7907   -0.2008 H   0  0  0  0  0  0  0  0  0  0  0  0
   -0.9485   -0.4087    0.3482 C   0  0  1  0  0  0  0  0  0  0  0  0
   -0.3666   -0.6914    1.2269 H   0  0  0  0  0  0  0  0  0  0  0  0
   -0.1405   -0.7797   -0.9072 C   0  0  0  0  0  0  0  0  0  0  0  0
    0.4970   -1.6351   -0.6793 H   0  0  0  0  0  0  0  0  0  0  0  0
   -0.8309   -1.0863   -1.6944 H   0  0  0  0  0  0  0  0  0  0  0  0
    0.7425    0.3402   -1.4238 C   0  0  0  0  0  0  0  0  0  0  0  0
    0.1783    1.5664   -1.8241 C   0  0  0  0  0  0  0  0  0  0  0  0
   -0.8924    1.7091   -1.7868 H   0  0  0  0  0  0  0  0  0  0  0  0
    1.0075    2.6149   -2.2632 C   0  0  0  0  0  0  0  0  0  0  0  0
    0.5721    3.5547   -2.5726 H   0  0  0  0  0  0  0  0  0  0  0  0
    2.4013    2.4403   -2.3012 C   0  0  0  0  0  0  0  0  0  0  0  0
    3.0382    3.2451   -2.6409 H   0  0  0  0  0  0  0  0  0  0  0  0
    2.9682    1.2158   -1.9034 C   0  0  0  0  0  0  0  0  0  0  0  0
    4.0392    1.0795   -1.9377 H   0  0  0  0  0  0  0  0  0  0  0  0
    2.1390    0.1670   -1.4677 C   0  0  0  0  0  0  0  0  0  0  0  0
    2.5761   -0.7757   -1.1650 H   0  0  0  0  0  0  0  0  0  0  0  0
   -1.2168    1.1047    0.4313 C   0  0  0  0  0  0  0  0  0  0  0  0
   -2.0890    1.6186   -0.2704 O   0  0  0  0  0  0  0  0  0  0  0  0
   -0.4674    1.8182    1.2813 N   0  0  0  0  0  0  0  0  0  0  0  0
    0.2640    1.3348    1.7800 H   0  0  0  0  0  0  0  0  0  0  0  0
   -0.5889    3.2615    1.4722 C   0  0  0  0  0  0  0  0  0  0  0  0
   -1.6291    3.5206    1.6805 H   0  0  0  0  0  0  0  0  0  0  0  0
    0.0359    3.5855    2.3049 H   0  0  0  0  0  0  0  0  0  0  0  0
   -0.2760    3.7797    0.5637 H   0  0  0  0  0  0  0  0  0  0  0  0
  5  6  2  0  0  0  0
  5  7  1  0  0  0  0
  2  3  1  0  0  0  0
  2  4  1  0  0  0  0
  2  5  1  0  0  0  0
  1  2  1  0  0  0  0
 25 26  2  0  0  0  0
 25 27  1  0  0  0  0
 23 24  1  0  0  0  0
 21 22  1  0  0  0  0
 21 23  2  0  0  0  0
 19 20  1  0  0  0  0
 19 21  1  0  0  0  0
 17 18  1  0  0  0  0
 17 19  2  0  0  0  0
 15 16  1  0  0  0  0
 15 17  1  0  0  0  0
 14 15  2  0  0  0  0
 14 23  1  0  0  0  0
 11 12  1  0  0  0  0
 11 13  1  0  0  0  0
 11 14  1  0  0  0  0
  9 10  1  0  0  0  0
  9 11  1  0  0  0  0
  9 25  1  0  0  0  0
  7  8  1  0  0  0  0
  7  9  1  0  0  0  0
 29 30  1  0  0  0  0
 29 31  1  0  0  0  0
 29 32  1  0  0  0  0
 27 28  1  0  0  0  0
 27 29  1  0  0  0  0
M  END
$$$$
default_name
  -OEChem-02102213163D

 32 32  0     1  0  0  0  0  0999 V2000
   -3.8405   -3.7518    1.6252 H   0  0  0  0  0  0  0  0  0  0  0  0
   -3.7965   -2.8768    0.9782 C   0  0  0  0  0  0  0  0  0  0  0  0
   -4.5465   -2.1527    1.2902 H   0  0  0  0  0  0  0  0  0  0  0  0
   -3.9745   -3.1748   -0.0538 H   0  0  0  0  0  0  0  0  0  0  0  0
   -2.4245   -2.2537    1.0882 C   0  0  0  0  0  0  0  0  0  0  0  0
   -1.5805   -2.7478    1.8242 O   0  0  0  0  0  0  0  0  0  0  0  0
   -2.2045   -1.1637    0.3562 N   0  0  0  0  0  0  0  0  0  0  0  0
   -2.9595   -0.7907   -0.2008 H   0  0  0  0  0  0  0  0  0  0  0  0
   -0.9485   -0.4087    0.3482 C   0  0  1  0  0  0  0  0  0  0  0  0
   -0.3666   -0.6914    1.2269 H   0  0  0  0  0  0  0  0  0  0  0  0
   -0.1405   -0.7797   -0.9072 C   0  0  0  0  0  0  0  0  0  0  0  0
    0.4970   -1.6351   -0.6793 H   0  0  0  0  0  0  0  0  0  0  0  0
   -0.8309   -1.0863   -1.6944 H   0  0  0  0  0  0  0  0  0  0  0  0
    0.7425    0.3402   -1.4238 C   0  0  0  0  0  0  0  0  0  0  0  0
    0.2433    1.6526   -1.5262 C   0  0  0  0  0  0  0  0  0  0  0  0
   -0.7818    1.8658   -1.2579 H   0  0  0  0  0  0  0  0  0  0  0  0
    1.0807    2.6939   -1.9672 C   0  0  0  0  0  0  0  0  0  0  0  0
    0.6947    3.7004   -2.0475 H   0  0  0  0  0  0  0  0  0  0  0  0
    2.4181    2.4255   -2.3046 C   0  0  0  0  0  0  0  0  0  0  0  0
    3.0608    3.2251   -2.6457 H   0  0  0  0  0  0  0  0  0  0  0  0
    2.9197    1.1150   -2.2049 C   0  0  0  0  0  0  0  0  0  0  0  0
    3.9462    0.9075   -2.4694 H   0  0  0  0  0  0  0  0  0  0  0  0
    2.0817    0.0740   -1.7673 C   0  0  0  0  0  0  0  0  0  0  0  0
    2.4678   -0.9344   -1.6942 H   0  0  0  0  0  0  0  0  0  0  0  0
   -1.2168    1.1047    0.4313 C   0  0  0  0  0  0  0  0  0  0  0  0
   -2.0890    1.6186   -0.2704 O   0  0  0  0  0  0  0  0  0  0  0  0
   -0.4674    1.8182    1.2813 N   0  0  0  0  0  0  0  0  0  0  0  0
    0.2640    1.3348    1.7800 H   0  0  0  0  0  0  0  0  0  0  0  0
   -0.5889    3.2615    1.4722 C   0  0  0  0  0  0  0  0  0  0  0  0
   -1.6291    3.5206    1.6805 H   0  0  0  0  0  0  0  0  0  0  0  0
    0.0359    3.5855    2.3049 H   0  0  0  0  0  0  0  0  0  0  0  0
   -0.2760    3.7797    0.5637 H   0  0  0  0  0  0  0  0  0  0  0  0
  5  6  2  0  0  0  0
  5  7  1  0  0  0  0
  2  3  1  0  0  0  0
  2  4  1  0  0  0  0
  2  5  1  0  0  0  0
  1  2  1  0  0  0  0
 25 26  2  0  0  0  0
 25 27  1  0  0  0  0
 23 24  1  0  0  0  0
 21 22  1  0  0  0  0
 21 23  2  0  0  0  0
 19 20  1  0  0  0  0
 19 21  1  0  0  0  0
 17 18  1  0  0  0  0
 17 19  2  0  0  0  0
 15 16  1  0  0  0  0
 15 17  1  0  0  0  0
 14 15  2  0  0  0  0
 14 23  1  0  0  0  0
 11 12  1  0  0  0  0
 11 13  1  0  0  0  0
 11 14  1  0  0  0  0
  9 10  1  0  0  0  0
  9 11  1  0  0  0  0
  9 25  1  0  0  0  0
  7  8  1  0  0  0  0
  7  9  1  0  0  0  0
 29 30  1  0  0  0  0
 29 31  1  0  0  0  0
 29 32  1  0  0  0  0
 27 28  1  0  0  0  0
 27 29  1  0  0  0  0
M  END
$$$$
default_name
  -OEChem-02102213163D

 32 32  0     1  0  0  0  0  0999 V2000
   -3.8405   -3.7518    1.6252 H   0  0  0  0  0  0  0  0  0  0  0  0
   -3.7965   -2.8768    0.9782 C   0  0  0  0  0  0  0  0  0  0  0  0
   -4.5465   -2.1527    1.2902 H   0  0  0  0  0  0  0  0  0  0  0  0
   -3.9745   -3.1748   -0.0538 H   0  0  0  0  0  0  0  0  0  0  0  0
   -2.4245   -2.2537    1.0882 C   0  0  0  0  0  0  0  0  0  0  0  0
   -1.5805   -2.7478    1.8242 O   0  0  0  0  0  0  0  0  0  0  0  0
   -2.2045   -1.1637    0.3562 N   0  0  0  0  0  0  0  0  0  0  0  0
   -2.9595   -0.7907   -0.2008 H   0  0  0  0  0  0  0  0  0  0  0  0
   -0.9485   -0.4087    0.3482 C   0  0  1  0  0  0  0  0  0  0  0  0
   -0.3666   -0.6914    1.2269 H   0  0  0  0  0  0  0  0  0  0  0  0
   -0.1405   -0.7797   -0.9072 C   0  0  0  0  0  0  0  0  0  0  0  0
    0.4970   -1.6351   -0.6793 H   0  0  0  0  0  0  0  0  0  0  0  0
   -0.8309   -1.0863   -1.6944 H   0  0  0  0  0  0  0  0  0  0  0  0
    0.7425    0.3402   -1.4238 C   0  0  0  0  0  0  0  0  0  0  0  0
    0.3706    1.6852   -1.2379 C   0  0  0  0  0  0  0  0  0  0  0  0
   -0.5601    1.9278   -0.7446 H   0  0  0  0  0  0  0  0  0  0  0  0
    1.2148    2.7190   -1.6833 C   0  0  0  0  0  0  0  0  0  0  0  0
    0.9262    3.7511   -1.5418 H   0  0  0  0  0  0  0  0  0  0  0  0
    2.4324    2.4102   -2.3133 C   0  0  0  0  0  0  0  0  0  0  0  0
    3.0799    3.2045   -2.6576 H   0  0  0  0  0  0  0  0  0  0  0  0
    2.8063    1.0673   -2.5020 C   0  0  0  0  0  0  0  0  0  0  0  0
    3.7396    0.8297   -2.9911 H   0  0  0  0  0  0  0  0  0  0  0  0
    1.9608    0.0343   -2.0597 C   0  0  0  0  0  0  0  0  0  0  0  0
    2.2480   -0.9984   -2.2085 H   0  0  0  0  0  0  0  0  0  0  0  0
   -1.2168    1.1047    0.4313 C   0  0  0  0  0  0  0  0  0  0  0  0
   -2.0890    1.6186   -0.2704 O   0  0  0  0  0  0  0  0  0  0  0  0
   -0.4674    1.8182    1.2813 N   0  0  0  0  0  0  0  0  0  0  0  0
    0.2640    1.3348    1.7800 H   0  0  0  0  0  0  0  0  0  0  0  0
   -0.5889    3.2615    1.4722 C   0  0  0  0  0  0  0  0  0  0  0  0
   -1.6291    3.5206    1.6805 H   0  0  0  0  0  0  0  0  0  0  0  0
    0.0359    3.5855    2.3049 H   0  0  0  0  0  0  0  0  0  0  0  0
   -0.2760    3.7797    0.5637 H   0  0  0  0  0  0  0  0  0  0  0  0
  5  6  2  0  0  0  0
  5  7  1  0  0  0  0
  2  3  1  0  0  0  0
  2  4  1  0  0  0  0
  2  5  1  0  0  0  0
  1  2  1  0  0  0  0
 25 26  2  0  0  0  0
 25 27  1  0  0  0  0
 23 24  1  0  0  0  0
 21 22  1  0  0  0  0
 21 23  2  0  0  0  0
 19 20  1  0  0  0  0
 19 21  1  0  0  0  0
 17 18  1  0  0  0  0
 17 19  2  0  0  0  0
 15 16  1  0  0  0  0
 15 17  1  0  0  0  0
 14 15  2  0  0  0  0
 14 23  1  0  0  0  0
 11 12  1  0  0  0  0
 11 13  1  0  0  0  0
 11 14  1  0  0  0  0
  9 10  1  0  0  0  0
  9 11  1  0  0  0  0
  9 25  1  0  0  0  0
  7  8  1  0  0  0  0
  7  9  1  0  0  0  0
 29 30  1  0  0  0  0
 29 31  1  0  0  0  0
 29 32  1  0  0  0  0
 27 28  1  0  0  0  0
 27 29  1  0  0  0  0
M  END
$$$$
default_name
  -OEChem-02102213163D

 32 32  0     1  0  0  0  0  0999 V2000
   -3.8405   -3.7518    1.6252 H   0  0  0  0  0  0  0  0  0  0  0  0
   -3.7965   -2.8768    0.9782 C   0  0  0  0  0  0  0  0  0  0  0  0
   -4.5465   -2.1527    1.2902 H   0  0  0  0  0  0  0  0  0  0  0  0
   -3.9745   -3.1748   -0.0538 H   0  0  0  0  0  0  0  0  0  0  0  0
   -2.4245   -2.2537    1.0882 C   0  0  0  0  0  0  0  0  0  0  0  0
   -1.5805   -2.7478    1.8242 O   0  0  0  0  0  0  0  0  0  0  0  0
   -2.2045   -1.1637    0.3562 N   0  0  0  0  0  0  0  0  0  0  0  0
   -2.9595   -0.7907   -0.2008 H   0  0  0  0  0  0  0  0  0  0  0  0
   -0.9485   -0.4087    0.3482 C   0  0  1  0  0  0  0  0  0  0  0  0
   -0.3666   -0.6914    1.2269 H   0  0  0  0  0  0  0  0  0  0  0  0
   -0.1405   -0.7797   -0.9072 C   0  0  0  0  0  0  0  0  0  0  0  0
    0.4970   -1.6351   -0.6793 H   0  0  0  0  0  0  0  0  0  0  0  0
   -0.8309   -1.0863   -1.6944 H   0  0  0  0  0  0  0  0  0  0  0  0
    0.7425    0.3402   -1.4238 C   0  0  0  0  0  0  0  0  0  0  0  0
    0.5515    1.6621   -0.9788 C   0  0  0  0  0  0  0  0  0  0  0  0
   -0.2423    1.8908   -0.2817 H   0  0  0  0  0  0  0  0  0  0  0  0
    1.4009    2.6888   -1.4309 C   0  0  0  0  0  0  0  0  0  0  0  0
    1.2509    3.7035   -1.0900 H   0  0  0  0  0  0  0  0  0  0  0  0
    2.4431    2.3956   -2.3267 C   0  0  0  0  0  0  0  0  0  0  0  0
    3.0942    3.1847   -2.6759 H   0  0  0  0  0  0  0  0  0  0  0  0
    2.6358    1.0760   -2.7746 C   0  0  0  0  0  0  0  0  0  0  0  0
    3.4335    0.8514   -3.4674 H   0  0  0  0  0  0  0  0  0  0  0  0
    1.7847    0.0508   -2.3251 C   0  0  0  0  0  0  0  0  0  0  0  0
    1.9319   -0.9634   -2.6730 H   0  0  0  0  0  0  0  0  0  0  0  0
   -1.2168    1.1047    0.4313 C   0  0  0  0  0  0  0  0  0  0  0  0
   -2.0890    1.6186   -0.2704 O   0  0  0  0  0  0  0  0  0  0  0  0
   -0.4674    1.8182    1.2813 N   0  0  0  0  0  0  0  0  0  0  0  0
    0.2640    1.3348    1.7800 H   0  0  0  0  0  0  0  0  0  0  0  0
   -0.5889    3.2615    1.4722 C   0  0  0  0  0  0  0  0  0  0  0  0
   -1.6291    3.5206    1.6805 H   0  0  0  0  0  0  0  0  0  0  0  0
    0.0359    3.5855    2.3049 H   0  0  0  0  0  0  0  0  0  0  0  0
   -0.2760    3.7797    0.5637 H   0  0  0  0  0  0  0  0  0  0  0  0
  5  6  2  0  0  0  0
  5  7  1  0  0  0  0
  2  3  1  0  0  0  0
  2  4  1  0  0  0  0
  2  5  1  0  0  0  0
  1  2  1  0  0  0  0
 25 26  2  0  0  0  0
 25 27  1  0  0  0  0
 23 24  1  0  0  0  0
 21 22  1  0  0  0  0
 21 23  2  0  0  0  0
 19 20  1  0  0  0  0
 19 21  1  0  0  0  0
 17 18  1  0  0  0  0
 17 19  2  0  0  0  0
 15 16  1  0  0  0  0
 15 17  1  0  0  0  0
 14 15  2  0  0  0  0
 14 23  1  0  0  0  0
 11 12  1  0  0  0  0
 11 13  1  0  0  0  0
 11 14  1  0  0  0  0
  9 10  1  0  0  0  0
  9 11  1  0  0  0  0
  9 25  1  0  0  0  0
  7  8  1  0  0  0  0
  7  9  1  0  0  0  0
 29 30  1  0  0  0  0
 29 31  1  0  0  0  0
 29 32  1  0  0  0  0
 27 28  1  0  0  0  0
 27 29  1  0  0  0  0
M  END
$$$$
default_name
  -OEChem-02102213163D

 32 32  0     1  0  0  0  0  0999 V2000
   -3.8405   -3.7518    1.6252 H   0  0  0  0  0  0  0  0  0  0  0  0
   -3.7965   -2.8768    0.9782 C   0  0  0  0  0  0  0  0  0  0  0  0
   -4.5465   -2.1527    1.2902 H   0  0  0  0  0  0  0  0  0  0  0  0
   -3.9745   -3.1748   -0.0538 H   0  0  0  0  0  0  0  0  0  0  0  0
   -2.4245   -2.2537    1.0882 C   0  0  0  0  0  0  0  0  0  0  0  0
   -1.5805   -2.7478    1.8242 O   0  0  0  0  0  0  0  0  0  0  0  0
   -2.2045   -1.1637    0.3562 N   0  0  0  0  0  0  0  0  0  0  0  0
   -2.9595   -0.7907   -0.2008 H   0  0  0  0  0  0  0  0  0  0  0  0
   -0.9485   -0.4087    0.3482 C   0  0  1  0  0  0  0  0  0  0  0  0
   -0.3666   -0.6914    1.2269 H   0  0  0  0  0  0  0  0  0  0  0  0
   -0.1405   -0.7797   -0.9072 C   0  0  0  0  0  0  0  0  0  0  0  0
    0.4970   -1.6351   -0.6793 H   0  0  0  0  0  0  0  0  0  0  0  0
   -0.8309   -1.0863   -1.6944 H   0  0  0  0  0  0  0  0  0  0  0  0
    0.7425    0.3402   -1.4238 C   0  0  0  0  0  0  0  0  0  0  0  0
    0.7737    1.5848   -0.7666 C   0  0  0  0  0  0  0  0  0  0  0  0
    0.1498    1.7573    0.0990 H   0  0  0  0  0  0  0  0  0  0  0  0
    1.6262    2.6051   -1.2273 C   0  0  0  0  0  0  0  0  0  0  0  0
    1.6468    3.5609   -0.7227 H   0  0  0  0  0  0  0  0  0  0  0  0
    2.4497    2.3825   -2.3440 C   0  0  0  0  0  0  0  0  0  0  0  0
    3.1028    3.1671   -2.6993 H   0  0  0  0  0  0  0  0  0  0  0  0
    2.4197    1.1405   -3.0039 C   0  0  0  0  0  0  0  0  0  0  0  0
    3.0487    0.9710   -3.8656 H   0  0  0  0  0  0  0  0  0  0  0  0
    1.5653    0.1222   -2.5453 C   0  0  0  0  0  0  0  0  0  0  0  0
    1.5408   -0.8318   -3.0559 H   0  0  0  0  0  0  0  0  0  0  0  0
   -1.2168    1.1047    0.4313 C   0  0  0  0  0  0  0  0  0  0  0  0
   -2.0890    1.6186   -0.2704 O   0  0  0  0  0  0  0  0  0  0  0  0
   -0.4674    1.8182    1.2813 N   0  0  0  0  0  0  0  0  0  0  0  0
    0.2640    1.3348    1.7800 H   0  0  0  0  0  0  0  0  0  0  0  0
   -0.5889    3.2615    1.4722 C   0  0  0  0  0  0  0  0  0  0  0  0
   -1.6291    3.5206    1.6805 H   0  0  0  0  0  0  0  0  0  0  0  0
    0.0359    3.5855    2.3049 H   0  0  0  0  0  0  0  0  0  0  0  0
   -0.2760    3.7797    0.5637 H   0  0  0  0  0  0  0  0  0  0  0  0
  5  6  2  0  0  0  0
  5  7  1  0  0  0  0
  2  3  1  0  0  0  0
  2  4  1  0  0  0  0
  2  5  1  0  0  0  0
  1  2  1  0  0  0  0
 25 26  2  0  0  0  0
 25 27  1  0  0  0  0
 23 24  1  0  0  0  0
 21 22  1  0  0  0  0
 21 23  2  0  0  0  0
 19 20  1  0  0  0  0
 19 21  1  0  0  0  0
 17 18  1  0  0  0  0
 17 19  2  0  0  0  0
 15 16  1  0  0  0  0
 15 17  1  0  0  0  0
 14 15  2  0  0  0  0
 14 23  1  0  0  0  0
 11 12  1  0  0  0  0
 11 13  1  0  0  0  0
 11 14  1  0  0  0  0
  9 10  1  0  0  0  0
  9 11  1  0  0  0  0
  9 25  1  0  0  0  0
  7  8  1  0  0  0  0
  7  9  1  0  0  0  0
 29 30  1  0  0  0  0
 29 31  1  0  0  0  0
 29 32  1  0  0  0  0
 27 28  1  0  0  0  0
 27 29  1  0  0  0  0
M  END
$$$$
default_name
  -OEChem-02102213163D

 32 32  0     1  0  0  0  0  0999 V2000
   -3.8405   -3.7518    1.6252 H   0  0  0  0  0  0  0  0  0  0  0  0
   -3.7965   -2.8768    0.9782 C   0  0  0  0  0  0  0  0  0  0  0  0
   -4.5465   -2.1527    1.2902 H   0  0  0  0  0  0  0  0  0  0  0  0
   -3.9745   -3.1748   -0.0538 H   0  0  0  0  0  0  0  0  0  0  0  0
   -2.4245   -2.2537    1.0882 C   0  0  0  0  0  0  0  0  0  0  0  0
   -1.5805   -2.7478    1.8242 O   0  0  0  0  0  0  0  0  0  0  0  0
   -2.2045   -1.1637    0.3562 N   0  0  0  0  0  0  0  0  0  0  0  0
   -2.9595   -0.7907   -0.2008 H   0  0  0  0  0  0  0  0  0  0  0  0
   -0.9485   -0.4087    0.3482 C   0  0  1  0  0  0  0  0  0  0  0  0
   -0.3666   -0.6914    1.2269 H   0  0  0  0  0  0  0  0  0  0  0  0
   -0.1405   -0.7797   -0.9072 C   0  0  0  0  0  0  0  0  0  0  0  0
    0.4970   -1.6351   -0.6793 H   0  0  0  0  0  0  0  0  0  0  0  0
   -0.8309   -1.0863   -1.6944 H   0  0  0  0  0  0  0  0  0  0  0  0
    0.7425    0.3402   -1.4238 C   0  0  0  0  0  0  0  0  0  0  0  0
    1.0221    1.4586   -0.6157 C   0  0  0  0  0  0  0  0  0  0  0  0
    0.5896    1.5365    0.3718 H   0  0  0  0  0  0  0  0  0  0  0  0
    1.8753    2.4737   -1.0862 C   0  0  0  0  0  0  0  0  0  0  0  0
    2.0867    3.3328   -0.4651 H   0  0  0  0  0  0  0  0  0  0  0  0
    2.4515    2.3718   -2.3638 C   0  0  0  0  0  0  0  0  0  0  0  0
    3.1052    3.1529   -2.7262 H   0  0  0  0  0  0  0  0  0  0  0  0
    2.1730    1.2564   -3.1745 C   0  0  0  0  0  0  0  0  0  0  0  0
    2.6115    1.1805   -4.1587 H   0  0  0  0  0  0  0  0  0  0  0  0
    1.3176    0.2436   -2.7053 C   0  0  0  0  0  0  0  0  0  0  0  0
    1.1015   -0.6124   -3.3312 H   0  0  0  0  0  0  0  0  0  0  0  0
   -1.2168    1.1047    0.4313 C   0  0  0  0  0  0  0  0  0  0  0  0
   -2.0890    1.6186   -0.2704 O   0  0  0  0  0  0  0  0  0  0  0  0
   -0.4674    1.8182    1.2813 N   0  0  0  0  0  0  0  0  0  0  0  0
    0.2640    1.3348    1.7800 H   0  0  0  0  0  0  0  0  0  0  0  0
   -0.5889    3.2615    1.4722 C   0  0  0  0  0  0  0  0  0  0  0  0
   -1.6291    3.5206    1.6805 H   0  0  0  0  0  0  0  0  0  0  0  0
    0.0359    3.5855    2.3049 H   0  0  0  0  0  0  0  0  0  0  0  0
   -0.2760    3.7797    0.5637 H   0  0  0  0  0  0  0  0  0  0  0  0
  5  6  2  0  0  0  0
  5  7  1  0  0  0  0
  2  3  1  0  0  0  0
  2  4  1  0  0  0  0
  2  5  1  0  0  0  0
  1  2  1  0  0  0  0
 25 26  2  0  0  0  0
 25 27  1  0  0  0  0
 23 24  1  0  0  0  0
 21 22  1  0  0  0  0
 21 23  2  0  0  0  0
 19 20  1  0  0  0  0
 19 21  1  0  0  0  0
 17 18  1  0  0  0  0
 17 19  2  0  0  0  0
 15 16  1  0  0  0  0
 15 17  1  0  0  0  0
 14 15  2  0  0  0  0
 14 23  1  0  0  0  0
 11 12  1  0  0  0  0
 11 13  1  0  0  0  0
 11 14  1  0  0  0  0
  9 10  1  0  0  0  0
  9 11  1  0  0  0  0
  9 25  1  0  0  0  0
  7  8  1  0  0  0  0
  7  9  1  0  0  0  0
 29 30  1  0  0  0  0
 29 31  1  0  0  0  0
 29 32  1  0  0  0  0
 27 28  1  0  0  0  0
 27 29  1  0  0  0  0
M  END
$$$$
default_name
  -OEChem-02102213163D

 32 32  0     1  0  0  0  0  0999 V2000
   -3.8405   -3.7518    1.6252 H   0  0  0  0  0  0  0  0  0  0  0  0
   -3.7965   -2.8768    0.9782 C   0  0  0  0  0  0  0  0  0  0  0  0
   -4.5465   -2.1527    1.2902 H   0  0  0  0  0  0  0  0  0  0  0  0
   -3.9745   -3.1748   -0.0538 H   0  0  0  0  0  0  0  0  0  0  0  0
   -2.4245   -2.2537    1.0882 C   0  0  0  0  0  0  0  0  0  0  0  0
   -1.5805   -2.7478    1.8242 O   0  0  0  0  0  0  0  0  0  0  0  0
   -2.2045   -1.1637    0.3562 N   0  0  0  0  0  0  0  0  0  0  0  0
   -2.9595   -0.7907   -0.2008 H   0  0  0  0  0  0  0  0  0  0  0  0
   -0.9485   -0.4087    0.3482 C   0  0  1  0  0  0  0  0  0  0  0  0
   -0.3666   -0.6914    1.2269 H   0  0  0  0  0  0  0  0  0  0  0  0
   -0.1405   -0.7797   -0.9072 C   0  0  0  0  0  0  0  0  0  0  0  0
    0.4970   -1.6351   -0.6793 H   0  0  0  0  0  0  0  0  0  0  0  0
   -0.8309   -1.0863   -1.6944 H   0  0  0  0  0  0  0  0  0  0  0  0
    0.7425    0.3402   -1.4238 C   0  0  0  0  0  0  0  0  0  0  0  0
    1.2798    1.2920   -0.5365 C   0  0  0  0  0  0  0  0  0  0  0  0
    1.0470    1.2432    0.5179 H   0  0  0  0  0  0  0  0  0  0  0  0
    2.1314    2.3036   -1.0174 C   0  0  0  0  0  0  0  0  0  0  0  0
    2.5408    3.0350   -0.3348 H   0  0  0  0  0  0  0  0  0  0  0  0
    2.4486    2.3644   -2.3850 C   0  0  0  0  0  0  0  0  0  0  0  0
    3.1010    3.1430   -2.7548 H   0  0  0  0  0  0  0  0  0  0  0  0
    1.9122    1.4158   -3.2746 C   0  0  0  0  0  0  0  0  0  0  0  0
    2.1516    1.4656   -4.3267 H   0  0  0  0  0  0  0  0  0  0  0  0
    1.0585    0.4069   -2.7942 C   0  0  0  0  0  0  0  0  0  0  0  0
    0.6438   -0.3203   -3.4802 H   0  0  0  0  0  0  0  0  0  0  0  0
   -1.2168    1.1047    0.4313 C   0  0  0  0  0  0  0  0  0  0  0  0
   -2.0890    1.6186   -0.2704 O   0  0  0  0  0  0  0  0  0  0  0  0
   -0.4674    1.8182    1.2813 N   0  0  0  0  0  0  0  0  0  0  0  0
    0.2640    1.3348    1.7800 H   0  0  0  0  0  0  0  0  0  0  0  0
   -0.5889    3.2615    1.4722 C   0  0  0  0  0  0  0  0  0  0  0  0
   -1.6291    3.5206    1.6805 H   0  0  0  0  0  0  0  0  0  0  0  0
    0.0359    3.5855    2.3049 H   0  0  0  0  0  0  0  0  0  0  0  0
   -0.2760    3.7797    0.5637 H   0  0  0  0  0  0  0  0  0  0  0  0
  5  6  2  0  0  0  0
  5  7  1  0  0  0  0
  2  3  1  0  0  0  0
  2  4  1  0  0  0  0
  2  5  1  0  0  0  0
  1  2  1  0  0  0  0
 25 26  2  0  0  0  0
 25 27  1  0  0  0  0
 23 24  1  0  0  0  0
 21 22  1  0  0  0  0
 21 23  2  0  0  0  0
 19 20  1  0  0  0  0
 19 21  1  0  0  0  0
 17 18  1  0  0  0  0
 17 19  2  0  0  0  0
 15 16  1  0  0  0  0
 15 17  1  0  0  0  0
 14 15  2  0  0  0  0
 14 23  1  0  0  0  0
 11 12  1  0  0  0  0
 11 13  1  0  0  0  0
 11 14  1  0  0  0  0
  9 10  1  0  0  0  0
  9 11  1  0  0  0  0
  9 25  1  0  0  0  0
  7  8  1  0  0  0  0
  7  9  1  0  0  0  0
 29 30  1  0  0  0  0
 29 31  1  0  0  0  0
 29 32  1  0  0  0  0
 27 28  1  0  0  0  0
 27 29  1  0  0  0  0
M  END
$$$$
default_name
  -OEChem-02102213163D

 32 32  0     1  0  0  0  0  0999 V2000
   -3.8405   -3.7518    1.6252 H   0  0  0  0  0  0  0  0  0  0  0  0
   -3.7965   -2.8768    0.9782 C   0  0  0  0  0  0  0  0  0  0  0  0
   -4.5465   -2.1527    1.2902 H   0  0  0  0  0  0  0  0  0  0  0  0
   -3.9745   -3.1748   -0.0538 H   0  0  0  0  0  0  0  0  0  0  0  0
   -2.4245   -2.2537    1.0882 C   0  0  0  0  0  0  0  0  0  0  0  0
   -1.5805   -2.7478    1.8242 O   0  0  0  0  0  0  0  0  0  0  0  0
   -2.2045   -1.1637    0.3562 N   0  0  0  0  0  0  0  0  0  0  0  0
   -2.9595   -0.7907   -0.2008 H   0  0  0  0  0  0  0  0  0  0  0  0
   -0.9485   -0.4087    0.3482 C   0  0  1  0  0  0  0  0  0  0  0  0
   -0.3666   -0.6914    1.2269 H   0  0  0  0  0  0  0  0  0  0  0  0
   -0.1405   -0.7797   -0.9072 C   0  0  0  0  0  0  0  0  0  0  0  0
    0.4970   -1.6351   -0.6793 H   0  0  0  0  0  0  0  0  0  0  0  0
   -0.8309   -1.0863   -1.6944 H   0  0  0  0  0  0  0  0  0  0  0  0
    0.7425    0.3402   -1.4238 C   0  0  0  0  0  0  0  0  0  0  0  0
    1.5291    1.0965   -0.5343 C   0  0  0  0  0  0  0  0  0  0  0  0
    1.4909    0.8977    0.5275 H   0  0  0  0  0  0  0  0  0  0  0  0
    2.3768    2.1064   -1.0255 C   0  0  0  0  0  0  0  0  0  0  0  0
    2.9781    2.6876   -0.3405 H   0  0  0  0  0  0  0  0  0  0  0  0
    2.4411    2.3606   -2.4060 C   0  0  0  0  0  0  0  0  0  0  0  0
    3.0906    3.1381   -2.7831 H   0  0  0  0  0  0  0  0  0  0  0  0
    1.6552    1.6078   -3.2975 C   0  0  0  0  0  0  0  0  0  0  0  0
    1.7004    1.8068   -4.3582 H   0  0  0  0  0  0  0  0  0  0  0  0
    0.8056    0.6008   -2.8060 C   0  0  0  0  0  0  0  0  0  0  0  0
    0.1991    0.0246   -3.4926 H   0  0  0  0  0  0  0  0  0  0  0  0
   -1.2168    1.1047    0.4313 C   0  0  0  0  0  0  0  0  0  0  0  0
   -2.0890    1.6186   -0.2704 O   0  0  0  0  0  0  0  0  0  0  0  0
   -0.4674    1.8182    1.2813 N   0  0  0  0  0  0  0  0  0  0  0  0
    0.2640    1.3348    1.7800 H   0  0  0  0  0  0  0  0  0  0  0  0
   -0.5889    3.2615    1.4722 C   0  0  0  0  0  0  0  0  0  0  0  0
   -1.6291    3.5206    1.6805 H   0  0  0  0  0  0  0  0  0  0  0  0
    0.0359    3.5855    2.3049 H   0  0  0  0  0  0  0  0  0  0  0  0
   -0.2760    3.7797    0.5637 H   0  0  0  0  0  0  0  0  0  0  0  0
  5  6  2  0  0  0  0
  5  7  1  0  0  0  0
  2  3  1  0  0  0  0
  2  4  1  0  0  0  0
  2  5  1  0  0  0  0
  1  2  1  0  0  0  0
 25 26  2  0  0  0  0
 25 27  1  0  0  0  0
 23 24  1  0  0  0  0
 21 22  1  0  0  0  0
 21 23  2  0  0  0  0
 19 20  1  0  0  0  0
 19 21  1  0  0  0  0
 17 18  1  0  0  0  0
 17 19  2  0  0  0  0
 15 16  1  0  0  0  0
 15 17  1  0  0  0  0
 14 15  2  0  0  0  0
 14 23  1  0  0  0  0
 11 12  1  0  0  0  0
 11 13  1  0  0  0  0
 11 14  1  0  0  0  0
  9 10  1  0  0  0  0
  9 11  1  0  0  0  0
  9 25  1  0  0  0  0
  7  8  1  0  0  0  0
  7  9  1  0  0  0  0
 29 30  1  0  0  0  0
 29 31  1  0  0  0  0
 29 32  1  0  0  0  0
 27 28  1  0  0  0  0
 27 29  1  0  0  0  0
M  END
$$$$
default_name
  -OEChem-02102213163D

 32 32  0     1  0  0  0  0  0999 V2000
   -3.8405   -3.7518    1.6252 H   0  0  0  0  0  0  0  0  0  0  0  0
   -3.7965   -2.8768    0.9782 C   0  0  0  0  0  0  0  0  0  0  0  0
   -4.5465   -2.1527    1.2902 H   0  0  0  0  0  0  0  0  0  0  0  0
   -3.9745   -3.1748   -0.0538 H   0  0  0  0  0  0  0  0  0  0  0  0
   -2.4245   -2.2537    1.0882 C   0  0  0  0  0  0  0  0  0  0  0  0
   -1.5805   -2.7478    1.8242 O   0  0  0  0  0  0  0  0  0  0  0  0
   -2.2045   -1.1637    0.3562 N   0  0  0  0  0  0  0  0  0  0  0  0
   -2.9595   -0.7907   -0.2008 H   0  0  0  0  0  0  0  0  0  0  0  0
   -0.9485   -0.4087    0.3482 C   0  0  1  0  0  0  0  0  0  0  0  0
   -0.3666   -0.6914    1.2269 H   0  0  0  0  0  0  0  0  0  0  0  0
   -0.1405   -0.7797   -0.9072 C   0  0  0  0  0  0  0  0  0  0  0  0
    0.4970   -1.6351   -0.6793 H   0  0  0  0  0  0  0  0  0  0  0  0
   -0.8309   -1.0863   -1.6944 H   0  0  0  0  0  0  0  0  0  0  0  0
    0.7425    0.3402   -1.4238 C   0  0  0  0  0  0  0  0  0  0  0  0
    1.7531    0.8853   -0.6093 C   0  0  0  0  0  0  0  0  0  0  0  0
    1.8910    0.5233    0.3998 H   0  0  0  0  0  0  0  0  0  0  0  0
    2.5950    1.8954   -1.1099 C   0  0  0  0  0  0  0  0  0  0  0  0
    3.3687    2.3144   -0.4819 H   0  0  0  0  0  0  0  0  0  0  0  0
    2.4295    2.3608   -2.4254 C   0  0  0  0  0  0  0  0  0  0  0  0
    3.0748    3.1386   -2.8092 H   0  0  0  0  0  0  0  0  0  0  0  0
    1.4196    1.8194   -3.2415 C   0  0  0  0  0  0  0  0  0  0  0  0
    1.2887    2.1809   -4.2509 H   0  0  0  0  0  0  0  0  0  0  0  0
    0.5762    0.8122   -2.7398 C   0  0  0  0  0  0  0  0  0  0  0  0
   -0.2025    0.3989   -3.3676 H   0  0  0  0  0  0  0  0  0  0  0  0
   -1.2168    1.1047    0.4313 C   0  0  0  0  0  0  0  0  0  0  0  0
   -2.0890    1.6186   -0.2704 O   0  0  0  0  0  0  0  0  0  0  0  0
   -0.4674    1.8182    1.2813 N   0  0  0  0  0  0  0  0  0  0  0  0
    0.2640    1.3348    1.7800 H   0  0  0  0  0  0  0  0  0  0  0  0
   -0.5889    3.2615    1.4722 C   0  0  0  0  0  0  0  0  0  0  0  0
   -1.6291    3.5206    1.6805 H   0  0  0  0  0  0  0  0  0  0  0  0
    0.0359    3.5855    2.3049 H   0  0  0  0  0  0  0  0  0  0  0  0
   -0.2760    3.7797    0.5637 H   0  0  0  0  0  0  0  0  0  0  0  0
  5  6  2  0  0  0  0
  5  7  1  0  0  0  0
  2  3  1  0  0  0  0
  2  4  1  0  0  0  0
  2  5  1  0  0  0  0
  1  2  1  0  0  0  0
 25 26  2  0  0  0  0
 25 27  1  0  0  0  0
 23 24  1  0  0  0  0
 21 22  1  0  0  0  0
 21 23  2  0  0  0  0
 19 20  1  0  0  0  0
 19 21  1  0  0  0  0
 17 18  1  0  0  0  0
 17 19  2  0  0  0  0
 15 16  1  0  0  0  0
 15 17  1  0  0  0  0
 14 15  2  0  0  0  0
 14 23  1  0  0  0  0
 11 12  1  0  0  0  0
 11 13  1  0  0  0  0
 11 14  1  0  0  0  0
  9 10  1  0  0  0  0
  9 11  1  0  0  0  0
  9 25  1  0  0  0  0
  7  8  1  0  0  0  0
  7  9  1  0  0  0  0
 29 30  1  0  0  0  0
 29 31  1  0  0  0  0
 29 32  1  0  0  0  0
 27 28  1  0  0  0  0
 27 29  1  0  0  0  0
M  END
$$$$
default_name
  -OEChem-02102213163D

 32 32  0     1  0  0  0  0  0999 V2000
   -3.8405   -3.7518    1.6252 H   0  0  0  0  0  0  0  0  0  0  0  0
   -3.7965   -2.8768    0.9782 C   0  0  0  0  0  0  0  0  0  0  0  0
   -4.5465   -2.1527    1.2902 H   0  0  0  0  0  0  0  0  0  0  0  0
   -3.9745   -3.1748   -0.0538 H   0  0  0  0  0  0  0  0  0  0  0  0
   -2.4245   -2.2537    1.0882 C   0  0  0  0  0  0  0  0  0  0  0  0
   -1.5805   -2.7478    1.8242 O   0  0  0  0  0  0  0  0  0  0  0  0
   -2.2045   -1.1637    0.3562 N   0  0  0  0  0  0  0  0  0  0  0  0
   -2.9595   -0.7907   -0.2008 H   0  0  0  0  0  0  0  0  0  0  0  0
   -0.9485   -0.4087    0.3482 C   0  0  1  0  0  0  0  0  0  0  0  0
   -0.3666   -0.6914    1.2269 H   0  0  0  0  0  0  0  0  0  0  0  0
   -0.1405   -0.7797   -0.9072 C   0  0  0  0  0  0  0  0  0  0  0  0
    0.4970   -1.6351   -0.6793 H   0  0  0  0  0  0  0  0  0  0  0  0
   -0.8309   -1.0863   -1.6944 H   0  0  0  0  0  0  0  0  0  0  0  0
    0.7425    0.3402   -1.4238 C   0  0  0  0  0  0  0  0  0  0  0  0
    1.9365    0.6728   -0.7563 C   0  0  0  0  0  0  0  0  0  0  0  0
    2.2201    0.1457    0.1437 H   0  0  0  0  0  0  0  0  0  0  0  0
    2.7710    1.6852   -1.2649 C   0  0  0  0  0  0  0  0  0  0  0  0
    3.6861    1.9407   -0.7493 H   0  0  0  0  0  0  0  0  0  0  0  0
    2.4145    2.3650   -2.4419 C   0  0  0  0  0  0  0  0  0  0  0  0
    3.0546    3.1443   -2.8313 H   0  0  0  0  0  0  0  0  0  0  0  0
    1.2213    2.0361   -3.1105 C   0  0  0  0  0  0  0  0  0  0  0  0
    0.9445    2.5623   -4.0123 H   0  0  0  0  0  0  0  0  0  0  0  0
    0.3859    1.0267   -2.6002 C   0  0  0  0  0  0  0  0  0  0  0  0
   -0.5335    0.7769   -3.1138 H   0  0  0  0  0  0  0  0  0  0  0  0
   -1.2168    1.1047    0.4313 C   0  0  0  0  0  0  0  0  0  0  0  0
   -2.0890    1.6186   -0.2704 O   0  0  0  0  0  0  0  0  0  0  0  0
   -0.4674    1.8182    1.2813 N   0  0  0  0  0  0  0  0  0  0  0  0
    0.2640    1.3348    1.7800 H   0  0  0  0  0  0  0  0  0  0  0  0
   -0.5889    3.2615    1.4722 C   0  0  0  0  0  0  0  0  0  0  0  0
   -1.6291    3.5206    1.6805 H   0  0  0  0  0  0  0  0  0  0  0  0
    0.0359    3.5855    2.3049 H   0  0  0  0  0  0  0  0  0  0  0  0
   -0.2760    3.7797    0.5637 H   0  0  0  0  0  0  0  0  0  0  0  0
  5  6  2  0  0  0  0
  5  7  1  0  0  0  0
  2  3  1  0  0  0  0
  2  4  1  0  0  0  0
  2  5  1  0  0  0  0
  1  2  1  0  0  0  0
 25 26  2  0  0  0  0
 25 27  1  0  0  0  0
 23 24  1  0  0  0  0
 21 22  1  0  0  0  0
 21 23  2  0  0  0  0
 19 20  1  0  0  0  0
 19 21  1  0  0  0  0
 17 18  1  0  0  0  0
 17 19  2  0  0  0  0
 15 16  1  0  0  0  0
 15 17  1  0  0  0  0
 14 15  2  0  0  0  0
 14 23  1  0  0  0  0
 11 12  1  0  0  0  0
 11 13  1  0  0  0  0
 11 14  1  0  0  0  0
  9 10  1  0  0  0  0
  9 11  1  0  0  0  0
  9 25  1  0  0  0  0
  7  8  1  0  0  0  0
  7  9  1  0  0  0  0
 29 30  1  0  0  0  0
 29 31  1  0  0  0  0
 29 32  1  0  0  0  0
 27 28  1  0  0  0  0
 27 29  1  0  0  0  0
M  END
$$$$
default_name
  -OEChem-02102213163D

 32 32  0     1  0  0  0  0  0999 V2000
   -3.8405   -3.7518    1.6252 H   0  0  0  0  0  0  0  0  0  0  0  0
   -3.7965   -2.8768    0.9782 C   0  0  0  0  0  0  0  0  0  0  0  0
   -4.5465   -2.1527    1.2902 H   0  0  0  0  0  0  0  0  0  0  0  0
   -3.9745   -3.1748   -0.0538 H   0  0  0  0  0  0  0  0  0  0  0  0
   -2.4245   -2.2537    1.0882 C   0  0  0  0  0  0  0  0  0  0  0  0
   -1.5805   -2.7478    1.8242 O   0  0  0  0  0  0  0  0  0  0  0  0
   -2.2045   -1.1637    0.3562 N   0  0  0  0  0  0  0  0  0  0  0  0
   -2.9595   -0.7907   -0.2008 H   0  0  0  0  0  0  0  0  0  0  0  0
   -0.9485   -0.4087    0.3482 C   0  0  1  0  0  0  0  0  0  0  0  0
   -0.3666   -0.6914    1.2269 H   0  0  0  0  0  0  0  0  0  0  0  0
   -0.1405   -0.7797   -0.9072 C   0  0  0  0  0  0  0  0  0  0  0  0
    0.4970   -1.6351   -0.6793 H   0  0  0  0  0  0  0  0  0  0  0  0
   -0.8309   -1.0863   -1.6944 H   0  0  0  0  0  0  0  0  0  0  0  0
    0.7425    0.3402   -1.4238 C   0  0  0  0  0  0  0  0  0  0  0  0
    2.0668    0.4736   -0.9654 C   0  0  0  0  0  0  0  0  0  0  0  0
    2.4558   -0.2095   -0.2235 H   0  0  0  0  0  0  0  0  0  0  0  0
    2.8929    1.4899   -1.4799 C   0  0  0  0  0  0  0  0  0  0  0  0
    3.9087    1.5921   -1.1246 H   0  0  0  0  0  0  0  0  0  0  0  0
    2.3973    2.3728   -2.4543 C   0  0  0  0  0  0  0  0  0  0  0  0
    3.0313    3.1550   -2.8479 H   0  0  0  0  0  0  0  0  0  0  0  0
    1.0740    2.2432   -2.9135 C   0  0  0  0  0  0  0  0  0  0  0  0
    0.6912    2.9252   -3.6586 H   0  0  0  0  0  0  0  0  0  0  0  0
    0.2476    1.2296   -2.3967 C   0  0  0  0  0  0  0  0  0  0  0  0
   -0.7714    1.1330   -2.7484 H   0  0  0  0  0  0  0  0  0  0  0  0
   -1.2168    1.1047    0.4313 C   0  0  0  0  0  0  0  0  0  0  0  0
   -2.0890    1.6186   -0.2704 O   0  0  0  0  0  0  0  0  0  0  0  0
   -0.4674    1.8182    1.2813 N   0  0  0  0  0  0  0  0  0  0  0  0
    0.2640    1.3348    1.7800 H   0  0  0  0  0  0  0  0  0  0  0  0
   -0.5889    3.2615    1.4722 C   0  0  0  0  0  0  0  0  0  0  0  0
   -1.6291    3.5206    1.6805 H   0  0  0  0  0  0  0  0  0  0  0  0
    0.0359    3.5855    2.3049 H   0  0  0  0  0  0  0  0  0  0  0  0
   -0.2760    3.7797    0.5637 H   0  0  0  0  0  0  0  0  0  0  0  0
  5  6  2  0  0  0  0
  5  7  1  0  0  0  0
  2  3  1  0  0  0  0
  2  4  1  0  0  0  0
  2  5  1  0  0  0  0
  1  2  1  0  0  0  0
 25 26  2  0  0  0  0
 25 27  1  0  0  0  0
 23 24  1  0  0  0  0
 21 22  1  0  0  0  0
 21 23  2  0  0  0  0
 19 20  1  0  0  0  0
 19 21  1  0  0  0  0
 17 18  1  0  0  0  0
 17 19  2  0  0  0  0
 15 16  1  0  0  0  0
 15 17  1  0  0  0  0
 14 15  2  0  0  0  0
 14 23  1  0  0  0  0
 11 12  1  0  0  0  0
 11 13  1  0  0  0  0
 11 14  1  0  0  0  0
  9 10  1  0  0  0  0
  9 11  1  0  0  0  0
  9 25  1  0  0  0  0
  7  8  1  0  0  0  0
  7  9  1  0  0  0  0
 29 30  1  0  0  0  0
 29 31  1  0  0  0  0
 29 32  1  0  0  0  0
 27 28  1  0  0  0  0
 27 29  1  0  0  0  0
M  END
$$$$
default_name
  -OEChem-02102213163D

 32 32  0     1  0  0  0  0  0999 V2000
   -3.8405   -3.7518    1.6252 H   0  0  0  0  0  0  0  0  0  0  0  0
   -3.7965   -2.8768    0.9782 C   0  0  0  0  0  0  0  0  0  0  0  0
   -4.5465   -2.1527    1.2902 H   0  0  0  0  0  0  0  0  0  0  0  0
   -3.9745   -3.1748   -0.0538 H   0  0  0  0  0  0  0  0  0  0  0  0
   -2.4245   -2.2537    1.0882 C   0  0  0  0  0  0  0  0  0  0  0  0
   -1.5805   -2.7478    1.8242 O   0  0  0  0  0  0  0  0  0  0  0  0
   -2.2045   -1.1637    0.3562 N   0  0  0  0  0  0  0  0  0  0  0  0
   -2.9595   -0.7907   -0.2008 H   0  0  0  0  0  0  0  0  0  0  0  0
   -0.9485   -0.4087    0.3482 C   0  0  1  0  0  0  0  0  0  0  0  0
   -0.3666   -0.6914    1.2269 H   0  0  0  0  0  0  0  0  0  0  0  0
   -0.1405   -0.7797   -0.9072 C   0  0  0  0  0  0  0  0  0  0  0  0
    0.4970   -1.6351   -0.6793 H   0  0  0  0  0  0  0  0  0  0  0  0
   -0.8309   -1.0863   -1.6944 H   0  0  0  0  0  0  0  0  0  0  0  0
    0.7425    0.3402   -1.4238 C   0  0  0  0  0  0  0  0  0  0  0  0
    2.1352    0.3012   -1.2223 C   0  0  0  0  0  0  0  0  0  0  0  0
    2.5819   -0.5181   -0.6768 H   0  0  0  0  0  0  0  0  0  0  0  0
    2.9523    1.3229   -1.7403 C   0  0  0  0  0  0  0  0  0  0  0  0
    4.0212    1.2923   -1.5822 H   0  0  0  0  0  0  0  0  0  0  0  0
    2.3791    2.3837   -2.4619 C   0  0  0  0  0  0  0  0  0  0  0  0
    3.0066    3.1699   -2.8579 H   0  0  0  0  0  0  0  0  0  0  0  0
    0.9875    2.4266   -2.6638 C   0  0  0  0  0  0  0  0  0  0  0  0
    0.5461    3.2448   -3.2138 H   0  0  0  0  0  0  0  0  0  0  0  0
    0.1709    1.4071   -2.1431 C   0  0  0  0  0  0  0  0  0  0  0  0
   -0.8999    1.4430   -2.2963 H   0  0  0  0  0  0  0  0  0  0  0  0
   -1.2168    1.1047    0.4313 C   0  0  0  0  0  0  0  0  0  0  0  0
   -2.0890    1.6186   -0.2704 O   0  0  0  0  0  0  0  0  0  0  0  0
   -0.4674    1.8182    1.2813 N   0  0  0  0  0  0  0  0  0  0  0  0
    0.2640    1.3348    1.7800 H   0  0  0  0  0  0  0  0  0  0  0  0
   -0.5889    3.2615    1.4722 C   0  0  0  0  0  0  0  0  0  0  0  0
   -1.6291    3.5206    1.6805 H   0  0  0  0  0  0  0  0  0  0  0  0
    0.0359    3.5855    2.3049 H   0  0  0  0  0  0  0  0  0  0  0  0
   -0.2760    3.7797    0.5637 H   0  0  0  0  0  0  0  0  0  0  0  0
  5  6  2  0  0  0  0
  5  7  1  0  0  0  0
  2  3  1  0  0  0  0
  2  4  1  0  0  0  0
  2  5  1  0  0  0  0
  1  2  1  0  0  0  0
 25 26  2  0  0  0  0
 25 27  1  0  0  0  0
 23 24  1  0  0  0  0
 21 22  1  0  0  0  0
 21 23  2  0  0  0  0
 19 20  1  0  0  0  0
 19 21  1  0  0  0  0
 17 18  1  0  0  0  0
 17 19  2  0  0  0  0
 15 16  1  0  0  0  0
 15 17  1  0  0  0  0
 14 15  2  0  0  0  0
 14 23  1  0  0  0  0
 11 12  1  0  0  0  0
 11 13  1  0  0  0  0
 11 14  1  0  0  0  0
  9 10  1  0  0  0  0
  9 11  1  0  0  0  0
  9 25  1  0  0  0  0
  7  8  1  0  0  0  0
  7  9  1  0  0  0  0
 29 30  1  0  0  0  0
 29 31  1  0  0  0  0
 29 32  1  0  0  0  0
 27 28  1  0  0  0  0
 27 29  1  0  0  0  0
M  END
$$$$
default_name
  -OEChem-02102213163D

 32 32  0     1  0  0  0  0  0999 V2000
   -3.8405   -3.7518    1.6252 H   0  0  0  0  0  0  0  0  0  0  0  0
   -3.7965   -2.8768    0.9782 C   0  0  0  0  0  0  0  0  0  0  0  0
   -4.5465   -2.1527    1.2902 H   0  0  0  0  0  0  0  0  0  0  0  0
   -3.9745   -3.1748   -0.0538 H   0  0  0  0  0  0  0  0  0  0  0  0
   -2.4245   -2.2537    1.0882 C   0  0  0  0  0  0  0  0  0  0  0  0
   -1.5805   -2.7478    1.8242 O   0  0  0  0  0  0  0  0  0  0  0  0
   -2.2045   -1.1637    0.3562 N   0  0  0  0  0  0  0  0  0  0  0  0
   -2.9595   -0.7907   -0.2008 H   0  0  0  0  0  0  0  0  0  0  0  0
   -0.9485   -0.4087    0.3482 C   0  0  1  0  0  0  0  0  0  0  0  0
   -0.3666   -0.6914    1.2269 H   0  0  0  0  0  0  0  0  0  0  0  0
   -0.1405   -0.7797   -0.9072 C   0  0  0  0  0  0  0  0  0  0  0  0
    0.4970   -1.6351   -0.6793 H   0  0  0  0  0  0  0  0  0  0  0  0
   -0.8309   -1.0863   -1.6944 H   0  0  0  0  0  0  0  0  0  0  0  0
    0.7425    0.3402   -1.4238 C   0  0  0  0  0  0  0  0  0  0  0  0
    2.1370    0.1673   -1.5094 C   0  0  0  0  0  0  0  0  0  0  0  0
    2.5900   -0.7589   -1.1852 H   0  0  0  0  0  0  0  0  0  0  0  0
    2.9452    1.1956   -2.0284 C   0  0  0  0  0  0  0  0  0  0  0  0
    4.0160    1.0618   -2.0908 H   0  0  0  0  0  0  0  0  0  0  0  0
    2.3609    2.3970   -2.4641 C   0  0  0  0  0  0  0  0  0  0  0  0
    2.9821    3.1880   -2.8606 H   0  0  0  0  0  0  0  0  0  0  0  0
    0.9679    2.5737   -2.3785 C   0  0  0  0  0  0  0  0  0  0  0  0
    0.5192    3.4992   -2.7083 H   0  0  0  0  0  0  0  0  0  0  0  0
    0.1608    1.5471   -1.8568 C   0  0  0  0  0  0  0  0  0  0  0  0
   -0.9104    1.6855   -1.7884 H   0  0  0  0  0  0  0  0  0  0  0  0
   -1.2168    1.1047    0.4313 C   0  0  0  0  0  0  0  0  0  0  0  0
   -2.0890    1.6186   -0.2704 O   0  0  0  0  0  0  0  0  0  0  0  0
   -0.4674    1.8182    1.2813 N   0  0  0  0  0  0  0  0  0  0  0  0
    0.2640    1.3348    1.7800 H   0  0  0  0  0  0  0  0  0  0  0  0
   -0.5889    3.2615    1.4722 C   0  0  0  0  0  0  0  0  0  0  0  0
   -1.6291    3.5206    1.6805 H   0  0  0  0  0  0  0  0  0  0  0  0
    0.0359    3.5855    2.3049 H   0  0  0  0  0  0  0  0  0  0  0  0
   -0.2760    3.7797    0.5637 H   0  0  0  0  0  0  0  0  0  0  0  0
  5  6  2  0  0  0  0
  5  7  1  0  0  0  0
  2  3  1  0  0  0  0
  2  4  1  0  0  0  0
  2  5  1  0  0  0  0
  1  2  1  0  0  0  0
 25 26  2  0  0  0  0
 25 27  1  0  0  0  0
 23 24  1  0  0  0  0
 21 22  1  0  0  0  0
 21 23  2  0  0  0  0
 19 20  1  0  0  0  0
 19 21  1  0  0  0  0
 17 18  1  0  0  0  0
 17 19  2  0  0  0  0
 15 16  1  0  0  0  0
 15 17  1  0  0  0  0
 14 15  2  0  0  0  0
 14 23  1  0  0  0  0
 11 12  1  0  0  0  0
 11 13  1  0  0  0  0
 11 14  1  0  0  0  0
  9 10  1  0  0  0  0
  9 11  1  0  0  0  0
  9 25  1  0  0  0  0
  7  8  1  0  0  0  0
  7  9  1  0  0  0  0
 29 30  1  0  0  0  0
 29 31  1  0  0  0  0
 29 32  1  0  0  0  0
 27 28  1  0  0  0  0
 27 29  1  0  0  0  0
M  END
$$$$
default_name
  -OEChem-02102213163D

 32 32  0     1  0  0  0  0  0999 V2000
   -3.8405   -3.7518    1.6252 H   0  0  0  0  0  0  0  0  0  0  0  0
   -3.7965   -2.8768    0.9782 C   0  0  0  0  0  0  0  0  0  0  0  0
   -4.5465   -2.1527    1.2902 H   0  0  0  0  0  0  0  0  0  0  0  0
   -3.9745   -3.1748   -0.0538 H   0  0  0  0  0  0  0  0  0  0  0  0
   -2.4245   -2.2537    1.0882 C   0  0  0  0  0  0  0  0  0  0  0  0
   -1.5805   -2.7478    1.8242 O   0  0  0  0  0  0  0  0  0  0  0  0
   -2.2045   -1.1637    0.3562 N   0  0  0  0  0  0  0  0  0  0  0  0
   -2.9595   -0.7907   -0.2008 H   0  0  0  0  0  0  0  0  0  0  0  0
   -0.9485   -0.4087    0.3482 C   0  0  1  0  0  0  0  0  0  0  0  0
   -0.3666   -0.6914    1.2269 H   0  0  0  0  0  0  0  0  0  0  0  0
   -0.1405   -0.7797   -0.9072 C   0  0  0  0  0  0  0  0  0  0  0  0
    0.4970   -1.6351   -0.6793 H   0  0  0  0  0  0  0  0  0  0  0  0
   -0.8309   -1.0863   -1.6944 H   0  0  0  0  0  0  0  0  0  0  0  0
    0.7425    0.3402   -1.4238 C   0  0  0  0  0  0  0  0  0  0  0  0
    2.0720    0.0811   -1.8073 C   0  0  0  0  0  0  0  0  0  0  0  0
    2.4793   -0.9157   -1.7141 H   0  0  0  0  0  0  0  0  0  0  0  0
    2.8720    1.1167   -2.3244 C   0  0  0  0  0  0  0  0  0  0  0  0
    3.8935    0.9162   -2.6159 H   0  0  0  0  0  0  0  0  0  0  0  0
    2.3441    2.4118   -2.4607 C   0  0  0  0  0  0  0  0  0  0  0  0
    2.9596    3.2079   -2.8558 H   0  0  0  0  0  0  0  0  0  0  0  0
    1.0164    2.6745   -2.0770 C   0  0  0  0  0  0  0  0  0  0  0  0
    0.6122    3.6712   -2.1766 H   0  0  0  0  0  0  0  0  0  0  0  0
    0.2182    1.6401   -1.5572 C   0  0  0  0  0  0  0  0  0  0  0  0
   -0.8021    1.8442   -1.2592 H   0  0  0  0  0  0  0  0  0  0  0  0
   -1.2168    1.1047    0.4313 C   0  0  0  0  0  0  0  0  0  0  0  0
   -2.0890    1.6186   -0.2704 O   0  0  0  0  0  0  0  0  0  0  0  0
   -0.4674    1.8182    1.2813 N   0  0  0  0  0  0  0  0  0  0  0  0
    0.2640    1.3348    1.7800 H   0  0  0  0  0  0  0  0  0  0  0  0
   -0.5889    3.2615    1.4722 C   0  0  0  0  0  0  0  0  0  0  0  0
   -1.6291    3.5206    1.6805 H   0  0  0  0  0  0  0  0  0  0  0  0
    0.0359    3.5855    2.3049 H   0  0  0  0  0  0  0  0  0  0  0  0
   -0.2760    3.7797    0.5637 H   0  0  0  0  0  0  0  0  0  0  0  0
  5  6  2  0  0  0  0
  5  7  1  0  0  0  0
  2  3  1  0  0  0  0
  2  4  1  0  0  0  0
  2  5  1  0  0  0  0
  1  2  1  0  0  0  0
 25 26  2  0  0  0  0
 25 27  1  0  0  0  0
 23 24  1  0  0  0  0
 21 22  1  0  0  0  0
 21 23  2  0  0  0  0
 19 20  1  0  0  0  0
 19 21  1  0  0  0  0
 17 18  1  0  0  0  0
 17 19  2  0  0  0  0
 15 16  1  0  0  0  0
 15 17  1  0  0  0  0
 14 15  2  0  0  0  0
 14 23  1  0  0  0  0
 11 12  1  0  0  0  0
 11 13  1  0  0  0  0
 11 14  1  0  0  0  0
  9 10  1  0  0  0  0
  9 11  1  0  0  0  0
  9 25  1  0  0  0  0
  7  8  1  0  0  0  0
  7  9  1  0  0  0  0
 29 30  1  0  0  0  0
 29 31  1  0  0  0  0
 29 32  1  0  0  0  0
 27 28  1  0  0  0  0
 27 29  1  0  0  0  0
M  END
$$$$
default_name
  -OEChem-02102213163D

 32 32  0     1  0  0  0  0  0999 V2000
   -3.8405   -3.7518    1.6252 H   0  0  0  0  0  0  0  0  0  0  0  0
   -3.7965   -2.8768    0.9782 C   0  0  0  0  0  0  0  0  0  0  0  0
   -4.5465   -2.1527    1.2902 H   0  0  0  0  0  0  0  0  0  0  0  0
   -3.9745   -3.1748   -0.0538 H   0  0  0  0  0  0  0  0  0  0  0  0
   -2.4245   -2.2537    1.0882 C   0  0  0  0  0  0  0  0  0  0  0  0
   -1.5805   -2.7478    1.8242 O   0  0  0  0  0  0  0  0  0  0  0  0
   -2.2045   -1.1637    0.3562 N   0  0  0  0  0  0  0  0  0  0  0  0
   -2.9595   -0.7907   -0.2008 H   0  0  0  0  0  0  0  0  0  0  0  0
   -0.9485   -0.4087    0.3482 C   0  0  1  0  0  0  0  0  0  0  0  0
   -0.3666   -0.6914    1.2269 H   0  0  0  0  0  0  0  0  0  0  0  0
   -0.1405   -0.7797   -0.9072 C   0  0  0  0  0  0  0  0  0  0  0  0
    0.4970   -1.6351   -0.6793 H   0  0  0  0  0  0  0  0  0  0  0  0
   -0.8309   -1.0863   -1.6944 H   0  0  0  0  0  0  0  0  0  0  0  0
    0.7425    0.3402   -1.4238 C   0  0  0  0  0  0  0  0  0  0  0  0
    1.9447    0.0485   -2.0956 C   0  0  0  0  0  0  0  0  0  0  0  0
    2.2576   -0.9777   -2.2275 H   0  0  0  0  0  0  0  0  0  0  0  0
    2.7379    1.0915   -2.6083 C   0  0  0  0  0  0  0  0  0  0  0  0
    3.6620    0.8654   -3.1216 H   0  0  0  0  0  0  0  0  0  0  0  0
    2.3299    2.4271   -2.4520 C   0  0  0  0  0  0  0  0  0  0  0  0
    2.9404    3.2285   -2.8438 H   0  0  0  0  0  0  0  0  0  0  0  0
    1.1298    2.7222   -1.7798 C   0  0  0  0  0  0  0  0  0  0  0  0
    0.8188    3.7490   -1.6548 H   0  0  0  0  0  0  0  0  0  0  0  0
    0.3390    1.6797   -1.2647 C   0  0  0  0  0  0  0  0  0  0  0  0
   -0.5823    1.9083   -0.7449 H   0  0  0  0  0  0  0  0  0  0  0  0
   -1.2168    1.1047    0.4313 C   0  0  0  0  0  0  0  0  0  0  0  0
   -2.0890    1.6186   -0.2704 O   0  0  0  0  0  0  0  0  0  0  0  0
   -0.4674    1.8182    1.2813 N   0  0  0  0  0  0  0  0  0  0  0  0
    0.2640    1.3348    1.7800 H   0  0  0  0  0  0  0  0  0  0  0  0
   -0.5889    3.2615    1.4722 C   0  0  0  0  0  0  0  0  0  0  0  0
   -1.6291    3.5206    1.6805 H   0  0  0  0  0  0  0  0  0  0  0  0
    0.0359    3.5855    2.3049 H   0  0  0  0  0  0  0  0  0  0  0  0
   -0.2760    3.7797    0.5637 H   0  0  0  0  0  0  0  0  0  0  0  0
  5  6  2  0  0  0  0
  5  7  1  0  0  0  0
  2  3  1  0  0  0  0
  2  4  1  0  0  0  0
  2  5  1  0  0  0  0
  1  2  1  0  0  0  0
 25 26  2  0  0  0  0
 25 27  1  0  0  0  0
 23 24  1  0  0  0  0
 21 22  1  0  0  0  0
 21 23  2  0  0  0  0
 19 20  1  0  0  0  0
 19 21  1  0  0  0  0
 17 18  1  0  0  0  0
 17 19  2  0  0  0  0
 15 16  1  0  0  0  0
 15 17  1  0  0  0  0
 14 15  2  0  0  0  0
 14 23  1  0  0  0  0
 11 12  1  0  0  0  0
 11 13  1  0  0  0  0
 11 14  1  0  0  0  0
  9 10  1  0  0  0  0
  9 11  1  0  0  0  0
  9 25  1  0  0  0  0
  7  8  1  0  0  0  0
  7  9  1  0  0  0  0
 29 30  1  0  0  0  0
 29 31  1  0  0  0  0
 29 32  1  0  0  0  0
 27 28  1  0  0  0  0
 27 29  1  0  0  0  0
M  END
$$$$
default_name
  -OEChem-02102213163D

 32 32  0     1  0  0  0  0  0999 V2000
   -3.8405   -3.7518    1.6252 H   0  0  0  0  0  0  0  0  0  0  0  0
   -3.7965   -2.8768    0.9782 C   0  0  0  0  0  0  0  0  0  0  0  0
   -4.5465   -2.1527    1.2902 H   0  0  0  0  0  0  0  0  0  0  0  0
   -3.9745   -3.1748   -0.0538 H   0  0  0  0  0  0  0  0  0  0  0  0
   -2.4245   -2.2537    1.0882 C   0  0  0  0  0  0  0  0  0  0  0  0
   -1.5805   -2.7478    1.8242 O   0  0  0  0  0  0  0  0  0  0  0  0
   -2.2045   -1.1637    0.3562 N   0  0  0  0  0  0  0  0  0  0  0  0
   -2.9595   -0.7907   -0.2008 H   0  0  0  0  0  0  0  0  0  0  0  0
   -0.9485   -0.4087    0.3482 C   0  0  1  0  0  0  0  0  0  0  0  0
   -0.3666   -0.6914    1.2269 H   0  0  0  0  0  0  0  0  0  0  0  0
   -0.1405   -0.7797   -0.9072 C   0  0  0  0  0  0  0  0  0  0  0  0
    0.4970   -1.6351   -0.6793 H   0  0  0  0  0  0  0  0  0  0  0  0
   -0.8309   -1.0863   -1.6944 H   0  0  0  0  0  0  0  0  0  0  0  0
    0.7425    0.3402   -1.4238 C   0  0  0  0  0  0  0  0  0  0  0  0
    1.7638    0.0716   -2.3547 C   0  0  0  0  0  0  0  0  0  0  0  0
    1.9398   -0.9407   -2.6903 H   0  0  0  0  0  0  0  0  0  0  0  0
    2.5518    1.1218   -2.8607 C   0  0  0  0  0  0  0  0  0  0  0  0
    3.3372    0.9130   -3.5734 H   0  0  0  0  0  0  0  0  0  0  0  0
    2.3191    2.4418   -2.4386 C   0  0  0  0  0  0  0  0  0  0  0  0
    2.9261    3.2483   -2.8255 H   0  0  0  0  0  0  0  0  0  0  0  0
    1.3003    2.7135   -1.5073 C   0  0  0  0  0  0  0  0  0  0  0  0
    1.1249    3.7273   -1.1786 H   0  0  0  0  0  0  0  0  0  0  0  0
    0.5151    1.6633   -0.9994 C   0  0  0  0  0  0  0  0  0  0  0  0
   -0.2661    1.8732   -0.2805 H   0  0  0  0  0  0  0  0  0  0  0  0
   -1.2168    1.1047    0.4313 C   0  0  0  0  0  0  0  0  0  0  0  0
   -2.0890    1.6186   -0.2704 O   0  0  0  0  0  0  0  0  0  0  0  0
   -0.4674    1.8182    1.2813 N   0  0  0  0  0  0  0  0  0  0  0  0
    0.2640    1.3348    1.7800 H   0  0  0  0  0  0  0  0  0  0  0  0
   -0.5889    3.2615    1.4722 C   0  0  0  0  0  0  0  0  0  0  0  0
   -1.6291    3.5206    1.6805 H   0  0  0  0  0  0  0  0  0  0  0  0
    0.0359    3.5855    2.3049 H   0  0  0  0  0  0  0  0  0  0  0  0
   -0.2760    3.7797    0.5637 H   0  0  0  0  0  0  0  0  0  0  0  0
  5  6  2  0  0  0  0
  5  7  1  0  0  0  0
  2  3  1  0  0  0  0
  2  4  1  0  0  0  0
  2  5  1  0  0  0  0
  1  2  1  0  0  0  0
 25 26  2  0  0  0  0
 25 27  1  0  0  0  0
 23 24  1  0  0  0  0
 21 22  1  0  0  0  0
 21 23  2  0  0  0  0
 19 20  1  0  0  0  0
 19 21  1  0  0  0  0
 17 18  1  0  0  0  0
 17 19  2  0  0  0  0
 15 16  1  0  0  0  0
 15 17  1  0  0  0  0
 14 15  2  0  0  0  0
 14 23  1  0  0  0  0
 11 12  1  0  0  0  0
 11 13  1  0  0  0  0
 11 14  1  0  0  0  0
  9 10  1  0  0  0  0
  9 11  1  0  0  0  0
  9 25  1  0  0  0  0
  7  8  1  0  0  0  0
  7  9  1  0  0  0  0
 29 30  1  0  0  0  0
 29 31  1  0  0  0  0
 29 32  1  0  0  0  0
 27 28  1  0  0  0  0
 27 29  1  0  0  0  0
M  END
$$$$
default_name
  -OEChem-02102213163D

 32 32  0     1  0  0  0  0  0999 V2000
   -3.8405   -3.7518    1.6252 H   0  0  0  0  0  0  0  0  0  0  0  0
   -3.7965   -2.8768    0.9782 C   0  0  0  0  0  0  0  0  0  0  0  0
   -4.5465   -2.1527    1.2902 H   0  0  0  0  0  0  0  0  0  0  0  0
   -3.9745   -3.1748   -0.0538 H   0  0  0  0  0  0  0  0  0  0  0  0
   -2.4245   -2.2537    1.0882 C   0  0  0  0  0  0  0  0  0  0  0  0
   -1.5805   -2.7478    1.8242 O   0  0  0  0  0  0  0  0  0  0  0  0
   -2.2045   -1.1637    0.3562 N   0  0  0  0  0  0  0  0  0  0  0  0
   -2.9595   -0.7907   -0.2008 H   0  0  0  0  0  0  0  0  0  0  0  0
   -0.9485   -0.4087    0.3482 C   0  0  1  0  0  0  0  0  0  0  0  0
   -0.3666   -0.6914    1.2269 H   0  0  0  0  0  0  0  0  0  0  0  0
   -0.1405   -0.7797   -0.9072 C   0  0  0  0  0  0  0  0  0  0  0  0
    0.2868   -1.7745   -0.7734 H   0  0  0  0  0  0  0  0  0  0  0  0
   -0.8166   -0.8259   -1.7622 H   0  0  0  0  0  0  0  0  0  0  0  0
    0.9922    0.1808   -1.2160 C   0  0  0  0  0  0  0  0  0  0  0  0
    1.8200   -0.0289   -2.3352 C   0  0  0  0  0  0  0  0  0  0  0  0
    1.6670   -0.8905   -2.9696 H   0  0  0  0  0  0  0  0  0  0  0  0
    2.8425    0.8888   -2.6386 C   0  0  0  0  0  0  0  0  0  0  0  0
    3.4787    0.7246   -3.4970 H   0  0  0  0  0  0  0  0  0  0  0  0
    3.0379    2.0180   -1.8254 C   0  0  0  0  0  0  0  0  0  0  0  0
    3.8250    2.7219   -2.0572 H   0  0  0  0  0  0  0  0  0  0  0  0
    2.2134    2.2298   -0.7054 C   0  0  0  0  0  0  0  0  0  0  0  0
    2.3669    3.0948   -0.0771 H   0  0  0  0  0  0  0  0  0  0  0  0
    1.1937    1.3107   -0.4005 C   0  0  0  0  0  0  0  0  0  0  0  0
    0.5623    1.4729    0.4633 H   0  0  0  0  0  0  0  0  0  0  0  0
   -1.2168    1.1047    0.4313 C   0  0  0  0  0  0  0  0  0  0  0  0
   -2.0890    1.6186   -0.2704 O   0  0  0  0  0  0  0  0  0  0  0  0
   -0.4674    1.8182    1.2813 N   0  0  0  0  0  0  0  0  0  0  0  0
    0.2640    1.3348    1.7800 H   0  0  0  0  0  0  0  0  0  0  0  0
   -0.5889    3.2615    1.4722 C   0  0  0  0  0  0  0  0  0  0  0  0
   -1.6291    3.5206    1.6805 H   0  0  0  0  0  0  0  0  0  0  0  0
    0.0359    3.5855    2.3049 H   0  0  0  0  0  0  0  0  0  0  0  0
   -0.2760    3.7797    0.5637 H   0  0  0  0  0  0  0  0  0  0  0  0
  5  6  2  0  0  0  0
  5  7  1  0  0  0  0
  2  3  1  0  0  0  0
  2  4  1  0  0  0  0
  2  5  1  0  0  0  0
  1  2  1  0  0  0  0
 25 26  2  0  0  0  0
 25 27  1  0  0  0  0
 23 24  1  0  0  0  0
 21 22  1  0  0  0  0
 21 23  2  0  0  0  0
 19 20  1  0  0  0  0
 19 21  1  0  0  0  0
 17 18  1  0  0  0  0
 17 19  2  0  0  0  0
 15 16  1  0  0  0  0
 15 17  1  0  0  0  0
 14 15  2  0  0  0  0
 14 23  1  0  0  0  0
 11 12  1  0  0  0  0
 11 13  1  0  0  0  0
 11 14  1  0  0  0  0
  9 10  1  0  0  0  0
  9 11  1  0  0  0  0
  9 25  1  0  0  0  0
  7  8  1  0  0  0  0
  7  9  1  0  0  0  0
 29 30  1  0  0  0  0
 29 31  1  0  0  0  0
 29 32  1  0  0  0  0
 27 28  1  0  0  0  0
 27 29  1  0  0  0  0
M  END
$$$$
default_name
  -OEChem-02102213163D

 32 32  0     1  0  0  0  0  0999 V2000
   -3.8405   -3.7518    1.6252 H   0  0  0  0  0  0  0  0  0  0  0  0
   -3.7965   -2.8768    0.9782 C   0  0  0  0  0  0  0  0  0  0  0  0
   -4.5465   -2.1527    1.2902 H   0  0  0  0  0  0  0  0  0  0  0  0
   -3.9745   -3.1748   -0.0538 H   0  0  0  0  0  0  0  0  0  0  0  0
   -2.4245   -2.2537    1.0882 C   0  0  0  0  0  0  0  0  0  0  0  0
   -1.5805   -2.7478    1.8242 O   0  0  0  0  0  0  0  0  0  0  0  0
   -2.2045   -1.1637    0.3562 N   0  0  0  0  0  0  0  0  0  0  0  0
   -2.9595   -0.7907   -0.2008 H   0  0  0  0  0  0  0  0  0  0  0  0
   -0.9485   -0.4087    0.3482 C   0  0  1  0  0  0  0  0  0  0  0  0
   -0.3666   -0.6914    1.2269 H   0  0  0  0  0  0  0  0  0  0  0  0
   -0.1405   -0.7797   -0.9072 C   0  0  0  0  0  0  0  0  0  0  0  0
    0.2868   -1.7745   -0.7734 H   0  0  0  0  0  0  0  0  0  0  0  0
   -0.8166   -0.8259   -1.7622 H   0  0  0  0  0  0  0  0  0  0  0  0
    0.9922    0.1808   -1.2160 C   0  0  0  0  0  0  0  0  0  0  0  0
    1.6155    0.1663   -2.4782 C   0  0  0  0  0  0  0  0  0  0  0  0
    1.3048   -0.5467   -3.2288 H   0  0  0  0  0  0  0  0  0  0  0  0
    2.6376    1.0879   -2.7713 C   0  0  0  0  0  0  0  0  0  0  0  0
    3.1166    1.0734   -3.7402 H   0  0  0  0  0  0  0  0  0  0  0  0
    3.0367    2.0262   -1.8043 C   0  0  0  0  0  0  0  0  0  0  0  0
    3.8236    2.7327   -2.0287 H   0  0  0  0  0  0  0  0  0  0  0  0
    2.4170    2.0424   -0.5415 C   0  0  0  0  0  0  0  0  0  0  0  0
    2.7274    2.7600    0.2037 H   0  0  0  0  0  0  0  0  0  0  0  0
    1.3979    1.1191   -0.2478 C   0  0  0  0  0  0  0  0  0  0  0  0
    0.9242    1.1304    0.7252 H   0  0  0  0  0  0  0  0  0  0  0  0
   -1.2168    1.1047    0.4313 C   0  0  0  0  0  0  0  0  0  0  0  0
   -2.0890    1.6186   -0.2704 O   0  0  0  0  0  0  0  0  0  0  0  0
   -0.4674    1.8182    1.2813 N   0  0  0  0  0  0  0  0  0  0  0  0
    0.2640    1.3348    1.7800 H   0  0  0  0  0  0  0  0  0  0  0  0
   -0.5889    3.2615    1.4722 C   0  0  0  0  0  0  0  0  0  0  0  0
   -1.6291    3.5206    1.6805 H   0  0  0  0  0  0  0  0  0  0  0  0
    0.0359    3.5855    2.3049 H   0  0  0  0  0  0  0  0  0  0  0  0
   -0.2760    3.7797    0.5637 H   0  0  0  0  0  0  0  0  0  0  0  0
  5  6  2  0  0  0  0
  5  7  1  0  0  0  0
  2  3  1  0  0  0  0
  2  4  1  0  0  0  0
  2  5  1  0  0  0  0
  1  2  1  0  0  0  0
 25 26  2  0  0  0  0
 25 27  1  0  0  0  0
 23 24  1  0  0  0  0
 21 22  1  0  0  0  0
 21 23  2  0  0  0  0
 19 20  1  0  0  0  0
 19 21  1  0  0  0  0
 17 18  1  0  0  0  0
 17 19  2  0  0  0  0
 15 16  1  0  0  0  0
 15 17  1  0  0  0  0
 14 15  2  0  0  0  0
 14 23  1  0  0  0  0
 11 12  1  0  0  0  0
 11 13  1  0  0  0  0
 11 14  1  0  0  0  0
  9 10  1  0  0  0  0
  9 11  1  0  0  0  0
  9 25  1  0  0  0  0
  7  8  1  0  0  0  0
  7  9  1  0  0  0  0
 29 30  1  0  0  0  0
 29 31  1  0  0  0  0
 29 32  1  0  0  0  0
 27 28  1  0  0  0  0
 27 29  1  0  0  0  0
M  END
$$$$
default_name
  -OEChem-02102213163D

 32 32  0     1  0  0  0  0  0999 V2000
   -3.8405   -3.7518    1.6252 H   0  0  0  0  0  0  0  0  0  0  0  0
   -3.7965   -2.8768    0.9782 C   0  0  0  0  0  0  0  0  0  0  0  0
   -4.5465   -2.1527    1.2902 H   0  0  0  0  0  0  0  0  0  0  0  0
   -3.9745   -3.1748   -0.0538 H   0  0  0  0  0  0  0  0  0  0  0  0
   -2.4245   -2.2537    1.0882 C   0  0  0  0  0  0  0  0  0  0  0  0
   -1.5805   -2.7478    1.8242 O   0  0  0  0  0  0  0  0  0  0  0  0
   -2.2045   -1.1637    0.3562 N   0  0  0  0  0  0  0  0  0  0  0  0
   -2.9595   -0.7907   -0.2008 H   0  0  0  0  0  0  0  0  0  0  0  0
   -0.9485   -0.4087    0.3482 C   0  0  1  0  0  0  0  0  0  0  0  0
   -0.3666   -0.6914    1.2269 H   0  0  0  0  0  0  0  0  0  0  0  0
   -0.1405   -0.7797   -0.9072 C   0  0  0  0  0  0  0  0  0  0  0  0
    0.2868   -1.7745   -0.7734 H   0  0  0  0  0  0  0  0  0  0  0  0
   -0.8166   -0.8259   -1.7622 H   0  0  0  0  0  0  0  0  0  0  0  0
    0.9922    0.1808   -1.2160 C   0  0  0  0  0  0  0  0  0  0  0  0
    1.4048    0.3933   -2.5451 C   0  0  0  0  0  0  0  0  0  0  0  0
    0.9306   -0.1454   -3.3533 H   0  0  0  0  0  0  0  0  0  0  0  0
    2.4283    1.3166   -2.8273 C   0  0  0  0  0  0  0  0  0  0  0  0
    2.7454    1.4764   -3.8483 H   0  0  0  0  0  0  0  0  0  0  0  0
    3.0395    2.0300   -1.7822 C   0  0  0  0  0  0  0  0  0  0  0  0
    3.8275    2.7377   -1.9989 H   0  0  0  0  0  0  0  0  0  0  0  0
    2.6306    1.8189   -0.4528 C   0  0  0  0  0  0  0  0  0  0  0  0
    3.1040    2.3632    0.3511 H   0  0  0  0  0  0  0  0  0  0  0  0
    1.6100    0.8937   -0.1708 C   0  0  0  0  0  0  0  0  0  0  0  0
    1.2986    0.7298    0.8527 H   0  0  0  0  0  0  0  0  0  0  0  0
   -1.2168    1.1047    0.4313 C   0  0  0  0  0  0  0  0  0  0  0  0
   -2.0890    1.6186   -0.2704 O   0  0  0  0  0  0  0  0  0  0  0  0
   -0.4674    1.8182    1.2813 N   0  0  0  0  0  0  0  0  0  0  0  0
    0.2640    1.3348    1.7800 H   0  0  0  0  0  0  0  0  0  0  0  0
   -0.5889    3.2615    1.4722 C   0  0  0  0  0  0  0  0  0  0  0  0
   -1.6291    3.5206    1.6805 H   0  0  0  0  0  0  0  0  0  0  0  0
    0.0359    3.5855    2.3049 H   0  0  0  0  0  0  0  0  0  0  0  0
   -0.2760    3.7797    0.5637 H   0  0  0  0  0  0  0  0  0  0  0  0
  5  6  2  0  0  0  0
  5  7  1  0  0  0  0
  2  3  1  0  0  0  0
  2  4  1  0  0  0  0
  2  5  1  0  0  0  0
  1  2  1  0  0  0  0
 25 26  2  0  0  0  0
 25 27  1  0  0  0  0
 23 24  1  0  0  0  0
 21 22  1  0  0  0  0
 21 23  2  0  0  0  0
 19 20  1  0  0  0  0
 19 21  1  0  0  0  0
 17 18  1  0  0  0  0
 17 19  2  0  0  0  0
 15 16  1  0  0  0  0
 15 17  1  0  0  0  0
 14 15  2  0  0  0  0
 14 23  1  0  0  0  0
 11 12  1  0  0  0  0
 11 13  1  0  0  0  0
 11 14  1  0  0  0  0
  9 10  1  0  0  0  0
  9 11  1  0  0  0  0
  9 25  1  0  0  0  0
  7  8  1  0  0  0  0
  7  9  1  0  0  0  0
 29 30  1  0  0  0  0
 29 31  1  0  0  0  0
 29 32  1  0  0  0  0
 27 28  1  0  0  0  0
 27 29  1  0  0  0  0
M  END
$$$$
default_name
  -OEChem-02102213163D

 32 32  0     1  0  0  0  0  0999 V2000
   -3.8405   -3.7518    1.6252 H   0  0  0  0  0  0  0  0  0  0  0  0
   -3.7965   -2.8768    0.9782 C   0  0  0  0  0  0  0  0  0  0  0  0
   -4.5465   -2.1527    1.2902 H   0  0  0  0  0  0  0  0  0  0  0  0
   -3.9745   -3.1748   -0.0538 H   0  0  0  0  0  0  0  0  0  0  0  0
   -2.4245   -2.2537    1.0882 C   0  0  0  0  0  0  0  0  0  0  0  0
   -1.5805   -2.7478    1.8242 O   0  0  0  0  0  0  0  0  0  0  0  0
   -2.2045   -1.1637    0.3562 N   0  0  0  0  0  0  0  0  0  0  0  0
   -2.9595   -0.7907   -0.2008 H   0  0  0  0  0  0  0  0  0  0  0  0
   -0.9485   -0.4087    0.3482 C   0  0  1  0  0  0  0  0  0  0  0  0
   -0.3666   -0.6914    1.2269 H   0  0  0  0  0  0  0  0  0  0  0  0
   -0.1405   -0.7797   -0.9072 C   0  0  0  0  0  0  0  0  0  0  0  0
    0.2868   -1.7745   -0.7734 H   0  0  0  0  0  0  0  0  0  0  0  0
   -0.8166   -0.8259   -1.7622 H   0  0  0  0  0  0  0  0  0  0  0  0
    0.9922    0.1808   -1.2160 C   0  0  0  0  0  0  0  0  0  0  0  0
    1.2023    0.6366   -2.5313 C   0  0  0  0  0  0  0  0  0  0  0  0
    0.5699    0.2860   -3.3347 H   0  0  0  0  0  0  0  0  0  0  0  0
    2.2291    1.5594   -2.8029 C   0  0  0  0  0  0  0  0  0  0  0  0
    2.3904    1.9061   -3.8140 H   0  0  0  0  0  0  0  0  0  0  0  0
    3.0460    2.0293   -1.7606 C   0  0  0  0  0  0  0  0  0  0  0  0
    3.8364    2.7365   -1.9697 H   0  0  0  0  0  0  0  0  0  0  0  0
    2.8398    1.5747   -0.4453 C   0  0  0  0  0  0  0  0  0  0  0  0
    3.4711    1.9317    0.3551 H   0  0  0  0  0  0  0  0  0  0  0  0
    1.8156    0.6500   -0.1747 C   0  0  0  0  0  0  0  0  0  0  0  0
    1.6601    0.2985    0.8370 H   0  0  0  0  0  0  0  0  0  0  0  0
   -1.2168    1.1047    0.4313 C   0  0  0  0  0  0  0  0  0  0  0  0
   -2.0890    1.6186   -0.2704 O   0  0  0  0  0  0  0  0  0  0  0  0
   -0.4674    1.8182    1.2813 N   0  0  0  0  0  0  0  0  0  0  0  0
    0.2640    1.3348    1.7800 H   0  0  0  0  0  0  0  0  0  0  0  0
   -0.5889    3.2615    1.4722 C   0  0  0  0  0  0  0  0  0  0  0  0
   -1.6291    3.5206    1.6805 H   0  0  0  0  0  0  0  0  0  0  0  0
    0.0359    3.5855    2.3049 H   0  0  0  0  0  0  0  0  0  0  0  0
   -0.2760    3.7797    0.5637 H   0  0  0  0  0  0  0  0  0  0  0  0
  5  6  2  0  0  0  0
  5  7  1  0  0  0  0
  2  3  1  0  0  0  0
  2  4  1  0  0  0  0
  2  5  1  0  0  0  0
  1  2  1  0  0  0  0
 25 26  2  0  0  0  0
 25 27  1  0  0  0  0
 23 24  1  0  0  0  0
 21 22  1  0  0  0  0
 21 23  2  0  0  0  0
 19 20  1  0  0  0  0
 19 21  1  0  0  0  0
 17 18  1  0  0  0  0
 17 19  2  0  0  0  0
 15 16  1  0  0  0  0
 15 17  1  0  0  0  0
 14 15  2  0  0  0  0
 14 23  1  0  0  0  0
 11 12  1  0  0  0  0
 11 13  1  0  0  0  0
 11 14  1  0  0  0  0
  9 10  1  0  0  0  0
  9 11  1  0  0  0  0
  9 25  1  0  0  0  0
  7  8  1  0  0  0  0
  7  9  1  0  0  0  0
 29 30  1  0  0  0  0
 29 31  1  0  0  0  0
 29 32  1  0  0  0  0
 27 28  1  0  0  0  0
 27 29  1  0  0  0  0
M  END
$$$$
default_name
  -OEChem-02102213163D

 32 32  0     1  0  0  0  0  0999 V2000
   -3.8405   -3.7518    1.6252 H   0  0  0  0  0  0  0  0  0  0  0  0
   -3.7965   -2.8768    0.9782 C   0  0  0  0  0  0  0  0  0  0  0  0
   -4.5465   -2.1527    1.2902 H   0  0  0  0  0  0  0  0  0  0  0  0
   -3.9745   -3.1748   -0.0538 H   0  0  0  0  0  0  0  0  0  0  0  0
   -2.4245   -2.2537    1.0882 C   0  0  0  0  0  0  0  0  0  0  0  0
   -1.5805   -2.7478    1.8242 O   0  0  0  0  0  0  0  0  0  0  0  0
   -2.2045   -1.1637    0.3562 N   0  0  0  0  0  0  0  0  0  0  0  0
   -2.9595   -0.7907   -0.2008 H   0  0  0  0  0  0  0  0  0  0  0  0
   -0.9485   -0.4087    0.3482 C   0  0  1  0  0  0  0  0  0  0  0  0
   -0.3666   -0.6914    1.2269 H   0  0  0  0  0  0  0  0  0  0  0  0
   -0.1405   -0.7797   -0.9072 C   0  0  0  0  0  0  0  0  0  0  0  0
    0.2868   -1.7745   -0.7734 H   0  0  0  0  0  0  0  0  0  0  0  0
   -0.8166   -0.8259   -1.7622 H   0  0  0  0  0  0  0  0  0  0  0  0
    0.9922    0.1808   -1.2160 C   0  0  0  0  0  0  0  0  0  0  0  0
    1.0217    0.8796   -2.4377 C   0  0  0  0  0  0  0  0  0  0  0  0
    0.2473    0.7180   -3.1742 H   0  0  0  0  0  0  0  0  0  0  0  0
    2.0535    1.7997   -2.6998 C   0  0  0  0  0  0  0  0  0  0  0  0
    2.0757    2.3333   -3.6396 H   0  0  0  0  0  0  0  0  0  0  0  0
    3.0558    2.0241   -1.7409 C   0  0  0  0  0  0  0  0  0  0  0  0
    3.8498    2.7293   -1.9432 H   0  0  0  0  0  0  0  0  0  0  0  0
    3.0301    1.3264   -0.5196 C   0  0  0  0  0  0  0  0  0  0  0  0
    3.8035    1.4947    0.2154 H   0  0  0  0  0  0  0  0  0  0  0  0
    2.0007    0.4044   -0.2593 C   0  0  0  0  0  0  0  0  0  0  0  0
    1.9839   -0.1342    0.6793 H   0  0  0  0  0  0  0  0  0  0  0  0
   -1.2168    1.1047    0.4313 C   0  0  0  0  0  0  0  0  0  0  0  0
   -2.0890    1.6186   -0.2704 O   0  0  0  0  0  0  0  0  0  0  0  0
   -0.4674    1.8182    1.2813 N   0  0  0  0  0  0  0  0  0  0  0  0
    0.2640    1.3348    1.7800 H   0  0  0  0  0  0  0  0  0  0  0  0
   -0.5889    3.2615    1.4722 C   0  0  0  0  0  0  0  0  0  0  0  0
   -1.6291    3.5206    1.6805 H   0  0  0  0  0  0  0  0  0  0  0  0
    0.0359    3.5855    2.3049 H   0  0  0  0  0  0  0  0  0  0  0  0
   -0.2760    3.7797    0.5637 H   0  0  0  0  0  0  0  0  0  0  0  0
  5  6  2  0  0  0  0
  5  7  1  0  0  0  0
  2  3  1  0  0  0  0
  2  4  1  0  0  0  0
  2  5  1  0  0  0  0
  1  2  1  0  0  0  0
 25 26  2  0  0  0  0
 25 27  1  0  0  0  0
 23 24  1  0  0  0  0
 21 22  1  0  0  0  0
 21 23  2  0  0  0  0
 19 20  1  0  0  0  0
 19 21  1  0  0  0  0
 17 18  1  0  0  0  0
 17 19  2  0  0  0  0
 15 16  1  0  0  0  0
 15 17  1  0  0  0  0
 14 15  2  0  0  0  0
 14 23  1  0  0  0  0
 11 12  1  0  0  0  0
 11 13  1  0  0  0  0
 11 14  1  0  0  0  0
  9 10  1  0  0  0  0
  9 11  1  0  0  0  0
  9 25  1  0  0  0  0
  7  8  1  0  0  0  0
  7  9  1  0  0  0  0
 29 30  1  0  0  0  0
 29 31  1  0  0  0  0
 29 32  1  0  0  0  0
 27 28  1  0  0  0  0
 27 29  1  0  0  0  0
M  END
$$$$
default_name
  -OEChem-02102213163D

 32 32  0     1  0  0  0  0  0999 V2000
   -3.8405   -3.7518    1.6252 H   0  0  0  0  0  0  0  0  0  0  0  0
   -3.7965   -2.8768    0.9782 C   0  0  0  0  0  0  0  0  0  0  0  0
   -4.5465   -2.1527    1.2902 H   0  0  0  0  0  0  0  0  0  0  0  0
   -3.9745   -3.1748   -0.0538 H   0  0  0  0  0  0  0  0  0  0  0  0
   -2.4245   -2.2537    1.0882 C   0  0  0  0  0  0  0  0  0  0  0  0
   -1.5805   -2.7478    1.8242 O   0  0  0  0  0  0  0  0  0  0  0  0
   -2.2045   -1.1637    0.3562 N   0  0  0  0  0  0  0  0  0  0  0  0
   -2.9595   -0.7907   -0.2008 H   0  0  0  0  0  0  0  0  0  0  0  0
   -0.9485   -0.4087    0.3482 C   0  0  1  0  0  0  0  0  0  0  0  0
   -0.3666   -0.6914    1.2269 H   0  0  0  0  0  0  0  0  0  0  0  0
   -0.1405   -0.7797   -0.9072 C   0  0  0  0  0  0  0  0  0  0  0  0
    0.2868   -1.7745   -0.7734 H   0  0  0  0  0  0  0  0  0  0  0  0
   -0.8166   -0.8259   -1.7622 H   0  0  0  0  0  0  0  0  0  0  0  0
    0.9922    0.1808   -1.2160 C   0  0  0  0  0  0  0  0  0  0  0  0
    0.8754    1.1057   -2.2708 C   0  0  0  0  0  0  0  0  0  0  0  0
   -0.0153    1.1214   -2.8828 H   0  0  0  0  0  0  0  0  0  0  0  0
    1.9134    2.0211   -2.5250 C   0  0  0  0  0  0  0  0  0  0  0  0
    1.8228    2.7288   -3.3371 H   0  0  0  0  0  0  0  0  0  0  0  0
    3.0682    2.0147   -1.7244 C   0  0  0  0  0  0  0  0  0  0  0  0
    3.8666    2.7165   -1.9212 H   0  0  0  0  0  0  0  0  0  0  0  0
    3.1887    1.0908   -0.6705 C   0  0  0  0  0  0  0  0  0  0  0  0
    4.0787    1.0821   -0.0584 H   0  0  0  0  0  0  0  0  0  0  0  0
    2.1527    0.1739   -0.4188 C   0  0  0  0  0  0  0  0  0  0  0  0
    2.2481   -0.5386    0.3902 H   0  0  0  0  0  0  0  0  0  0  0  0
   -1.2168    1.1047    0.4313 C   0  0  0  0  0  0  0  0  0  0  0  0
   -2.0890    1.6186   -0.2704 O   0  0  0  0  0  0  0  0  0  0  0  0
   -0.4674    1.8182    1.2813 N   0  0  0  0  0  0  0  0  0  0  0  0
    0.2640    1.3348    1.7800 H   0  0  0  0  0  0  0  0  0  0  0  0
   -0.5889    3.2615    1.4722 C   0  0  0  0  0  0  0  0  0  0  0  0
   -1.6291    3.5206    1.6805 H   0  0  0  0  0  0  0  0  0  0  0  0
    0.0359    3.5855    2.3049 H   0  0  0  0  0  0  0  0  0  0  0  0
   -0.2760    3.7797    0.5637 H   0  0  0  0  0  0  0  0  0  0  0  0
  5  6  2  0  0  0  0
  5  7  1  0  0  0  0
  2  3  1  0  0  0  0
  2  4  1  0  0  0  0
  2  5  1  0  0  0  0
  1  2  1  0  0  0  0
 25 26  2  0  0  0  0
 25 27  1  0  0  0  0
 23 24  1  0  0  0  0
 21 22  1  0  0  0  0
 21 23  2  0  0  0  0
 19 20  1  0  0  0  0
 19 21  1  0  0  0  0
 17 18  1  0  0  0  0
 17 19  2  0  0  0  0
 15 16  1  0  0  0  0
 15 17  1  0  0  0  0
 14 15  2  0  0  0  0
 14 23  1  0  0  0  0
 11 12  1  0  0  0  0
 11 13  1  0  0  0  0
 11 14  1  0  0  0  0
  9 10  1  0  0  0  0
  9 11  1  0  0  0  0
  9 25  1  0  0  0  0
  7  8  1  0  0  0  0
  7  9  1  0  0  0  0
 29 30  1  0  0  0  0
 29 31  1  0  0  0  0
 29 32  1  0  0  0  0
 27 28  1  0  0  0  0
 27 29  1  0  0  0  0
M  END
$$$$
default_name
  -OEChem-02102213163D

 32 32  0     1  0  0  0  0  0999 V2000
   -3.8405   -3.7518    1.6252 H   0  0  0  0  0  0  0  0  0  0  0  0
   -3.7965   -2.8768    0.9782 C   0  0  0  0  0  0  0  0  0  0  0  0
   -4.5465   -2.1527    1.2902 H   0  0  0  0  0  0  0  0  0  0  0  0
   -3.9745   -3.1748   -0.0538 H   0  0  0  0  0  0  0  0  0  0  0  0
   -2.4245   -2.2537    1.0882 C   0  0  0  0  0  0  0  0  0  0  0  0
   -1.5805   -2.7478    1.8242 O   0  0  0  0  0  0  0  0  0  0  0  0
   -2.2045   -1.1637    0.3562 N   0  0  0  0  0  0  0  0  0  0  0  0
   -2.9595   -0.7907   -0.2008 H   0  0  0  0  0  0  0  0  0  0  0  0
   -0.9485   -0.4087    0.3482 C   0  0  1  0  0  0  0  0  0  0  0  0
   -0.3666   -0.6914    1.2269 H   0  0  0  0  0  0  0  0  0  0  0  0
   -0.1405   -0.7797   -0.9072 C   0  0  0  0  0  0  0  0  0  0  0  0
    0.2868   -1.7745   -0.7734 H   0  0  0  0  0  0  0  0  0  0  0  0
   -0.8166   -0.8259   -1.7622 H   0  0  0  0  0  0  0  0  0  0  0  0
    0.9922    0.1808   -1.2160 C   0  0  0  0  0  0  0  0  0  0  0  0
    0.7734    1.2996   -2.0419 C   0  0  0  0  0  0  0  0  0  0  0  0
   -0.2000    1.4685   -2.4804 H   0  0  0  0  0  0  0  0  0  0  0  0
    1.8184    2.2086   -2.2904 C   0  0  0  0  0  0  0  0  0  0  0  0
    1.6490    3.0657   -2.9270 H   0  0  0  0  0  0  0  0  0  0  0  0
    3.0824    2.0019   -1.7124 C   0  0  0  0  0  0  0  0  0  0  0  0
    3.8858    2.6990   -1.9052 H   0  0  0  0  0  0  0  0  0  0  0  0
    3.3048    0.8840   -0.8878 C   0  0  0  0  0  0  0  0  0  0  0  0
    4.2779    0.7220   -0.4478 H   0  0  0  0  0  0  0  0  0  0  0  0
    2.2612   -0.0260   -0.6423 C   0  0  0  0  0  0  0  0  0  0  0  0
    2.4345   -0.8874   -0.0104 H   0  0  0  0  0  0  0  0  0  0  0  0
   -1.2168    1.1047    0.4313 C   0  0  0  0  0  0  0  0  0  0  0  0
   -2.0890    1.6186   -0.2704 O   0  0  0  0  0  0  0  0  0  0  0  0
   -0.4674    1.8182    1.2813 N   0  0  0  0  0  0  0  0  0  0  0  0
    0.2640    1.3348    1.7800 H   0  0  0  0  0  0  0  0  0  0  0  0
   -0.5889    3.2615    1.4722 C   0  0  0  0  0  0  0  0  0  0  0  0
   -1.6291    3.5206    1.6805 H   0  0  0  0  0  0  0  0  0  0  0  0
    0.0359    3.5855    2.3049 H   0  0  0  0  0  0  0  0  0  0  0  0
   -0.2760    3.7797    0.5637 H   0  0  0  0  0  0  0  0  0  0  0  0
  5  6  2  0  0  0  0
  5  7  1  0  0  0  0
  2  3  1  0  0  0  0
  2  4  1  0  0  0  0
  2  5  1  0  0  0  0
  1  2  1  0  0  0  0
 25 26  2  0  0  0  0
 25 27  1  0  0  0  0
 23 24  1  0  0  0  0
 21 22  1  0  0  0  0
 21 23  2  0  0  0  0
 19 20  1  0  0  0  0
 19 21  1  0  0  0  0
 17 18  1  0  0  0  0
 17 19  2  0  0  0  0
 15 16  1  0  0  0  0
 15 17  1  0  0  0  0
 14 15  2  0  0  0  0
 14 23  1  0  0  0  0
 11 12  1  0  0  0  0
 11 13  1  0  0  0  0
 11 14  1  0  0  0  0
  9 10  1  0  0  0  0
  9 11  1  0  0  0  0
  9 25  1  0  0  0  0
  7  8  1  0  0  0  0
  7  9  1  0  0  0  0
 29 30  1  0  0  0  0
 29 31  1  0  0  0  0
 29 32  1  0  0  0  0
 27 28  1  0  0  0  0
 27 29  1  0  0  0  0
M  END
$$$$
default_name
  -OEChem-02102213163D

 32 32  0     1  0  0  0  0  0999 V2000
   -3.8405   -3.7518    1.6252 H   0  0  0  0  0  0  0  0  0  0  0  0
   -3.7965   -2.8768    0.9782 C   0  0  0  0  0  0  0  0  0  0  0  0
   -4.5465   -2.1527    1.2902 H   0  0  0  0  0  0  0  0  0  0  0  0
   -3.9745   -3.1748   -0.0538 H   0  0  0  0  0  0  0  0  0  0  0  0
   -2.4245   -2.2537    1.0882 C   0  0  0  0  0  0  0  0  0  0  0  0
   -1.5805   -2.7478    1.8242 O   0  0  0  0  0  0  0  0  0  0  0  0
   -2.2045   -1.1637    0.3562 N   0  0  0  0  0  0  0  0  0  0  0  0
   -2.9595   -0.7907   -0.2008 H   0  0  0  0  0  0  0  0  0  0  0  0
   -0.9485   -0.4087    0.3482 C   0  0  1  0  0  0  0  0  0  0  0  0
   -0.3666   -0.6914    1.2269 H   0  0  0  0  0  0  0  0  0  0  0  0
   -0.1405   -0.7797   -0.9072 C   0  0  0  0  0  0  0  0  0  0  0  0
    0.2868   -1.7745   -0.7734 H   0  0  0  0  0  0  0  0  0  0  0  0
   -0.8166   -0.8259   -1.7622 H   0  0  0  0  0  0  0  0  0  0  0  0
    0.9922    0.1808   -1.2160 C   0  0  0  0  0  0  0  0  0  0  0  0
    0.7226    1.4480   -1.7666 C   0  0  0  0  0  0  0  0  0  0  0  0
   -0.2941    1.7358   -1.9943 H   0  0  0  0  0  0  0  0  0  0  0  0
    1.7749    2.3494   -2.0119 C   0  0  0  0  0  0  0  0  0  0  0  0
    1.5660    3.3210   -2.4372 H   0  0  0  0  0  0  0  0  0  0  0  0
    3.0974    1.9863   -1.7056 C   0  0  0  0  0  0  0  0  0  0  0  0
    3.9061    2.6780   -1.8963 H   0  0  0  0  0  0  0  0  0  0  0  0
    3.3704    0.7202   -1.1566 C   0  0  0  0  0  0  0  0  0  0  0  0
    4.3875    0.4389   -0.9262 H   0  0  0  0  0  0  0  0  0  0  0  0
    2.3189   -0.1816   -0.9147 C   0  0  0  0  0  0  0  0  0  0  0  0
    2.5306   -1.1566   -0.4954 H   0  0  0  0  0  0  0  0  0  0  0  0
   -1.2168    1.1047    0.4313 C   0  0  0  0  0  0  0  0  0  0  0  0
   -2.0890    1.6186   -0.2704 O   0  0  0  0  0  0  0  0  0  0  0  0
   -0.4674    1.8182    1.2813 N   0  0  0  0  0  0  0  0  0  0  0  0
    0.2640    1.3348    1.7800 H   0  0  0  0  0  0  0  0  0  0  0  0
   -0.5889    3.2615    1.4722 C   0  0  0  0  0  0  0  0  0  0  0  0
   -1.6291    3.5206    1.6805 H   0  0  0  0  0  0  0  0  0  0  0  0
    0.0359    3.5855    2.3049 H   0  0  0  0  0  0  0  0  0  0  0  0
   -0.2760    3.7797    0.5637 H   0  0  0  0  0  0  0  0  0  0  0  0
  5  6  2  0  0  0  0
  5  7  1  0  0  0  0
  2  3  1  0  0  0  0
  2  4  1  0  0  0  0
  2  5  1  0  0  0  0
  1  2  1  0  0  0  0
 25 26  2  0  0  0  0
 25 27  1  0  0  0  0
 23 24  1  0  0  0  0
 21 22  1  0  0  0  0
 21 23  2  0  0  0  0
 19 20  1  0  0  0  0
 19 21  1  0  0  0  0
 17 18  1  0  0  0  0
 17 19  2  0  0  0  0
 15 16  1  0  0  0  0
 15 17  1  0  0  0  0
 14 15  2  0  0  0  0
 14 23  1  0  0  0  0
 11 12  1  0  0  0  0
 11 13  1  0  0  0  0
 11 14  1  0  0  0  0
  9 10  1  0  0  0  0
  9 11  1  0  0  0  0
  9 25  1  0  0  0  0
  7  8  1  0  0  0  0
  7  9  1  0  0  0  0
 29 30  1  0  0  0  0
 29 31  1  0  0  0  0
 29 32  1  0  0  0  0
 27 28  1  0  0  0  0
 27 29  1  0  0  0  0
M  END
$$$$
default_name
  -OEChem-02102213163D

 32 32  0     1  0  0  0  0  0999 V2000
   -3.8405   -3.7518    1.6252 H   0  0  0  0  0  0  0  0  0  0  0  0
   -3.7965   -2.8768    0.9782 C   0  0  0  0  0  0  0  0  0  0  0  0
   -4.5465   -2.1527    1.2902 H   0  0  0  0  0  0  0  0  0  0  0  0
   -3.9745   -3.1748   -0.0538 H   0  0  0  0  0  0  0  0  0  0  0  0
   -2.4245   -2.2537    1.0882 C   0  0  0  0  0  0  0  0  0  0  0  0
   -1.5805   -2.7478    1.8242 O   0  0  0  0  0  0  0  0  0  0  0  0
   -2.2045   -1.1637    0.3562 N   0  0  0  0  0  0  0  0  0  0  0  0
   -2.9595   -0.7907   -0.2008 H   0  0  0  0  0  0  0  0  0  0  0  0
   -0.9485   -0.4087    0.3482 C   0  0  1  0  0  0  0  0  0  0  0  0
   -0.3666   -0.6914    1.2269 H   0  0  0  0  0  0  0  0  0  0  0  0
   -0.1405   -0.7797   -0.9072 C   0  0  0  0  0  0  0  0  0  0  0  0
    0.2868   -1.7745   -0.7734 H   0  0  0  0  0  0  0  0  0  0  0  0
   -0.8166   -0.8259   -1.7622 H   0  0  0  0  0  0  0  0  0  0  0  0
    0.9922    0.1808   -1.2160 C   0  0  0  0  0  0  0  0  0  0  0  0
    0.7265    1.5409   -1.4637 C   0  0  0  0  0  0  0  0  0  0  0  0
   -0.2912    1.9050   -1.4577 H   0  0  0  0  0  0  0  0  0  0  0  0
    1.7860    2.4338   -1.7087 C   0  0  0  0  0  0  0  0  0  0  0  0
    1.5796    3.4773   -1.9012 H   0  0  0  0  0  0  0  0  0  0  0  0
    3.1122    1.9693   -1.7045 C   0  0  0  0  0  0  0  0  0  0  0  0
    3.9260    2.6549   -1.8950 H   0  0  0  0  0  0  0  0  0  0  0  0
    3.3811    0.6105   -1.4588 C   0  0  0  0  0  0  0  0  0  0  0  0
    4.4001    0.2522   -1.4609 H   0  0  0  0  0  0  0  0  0  0  0  0
    2.3218   -0.2823   -1.2173 C   0  0  0  0  0  0  0  0  0  0  0  0
    2.5298   -1.3280   -1.0316 H   0  0  0  0  0  0  0  0  0  0  0  0
   -1.2168    1.1047    0.4313 C   0  0  0  0  0  0  0  0  0  0  0  0
   -2.0890    1.6186   -0.2704 O   0  0  0  0  0  0  0  0  0  0  0  0
   -0.4674    1.8182    1.2813 N   0  0  0  0  0  0  0  0  0  0  0  0
    0.2640    1.3348    1.7800 H   0  0  0  0  0  0  0  0  0  0  0  0
   -0.5889    3.2615    1.4722 C   0  0  0  0  0  0  0  0  0  0  0  0
   -1.6291    3.5206    1.6805 H   0  0  0  0  0  0  0  0  0  0  0  0
    0.0359    3.5855    2.3049 H   0  0  0  0  0  0  0  0  0  0  0  0
   -0.2760    3.7797    0.5637 H   0  0  0  0  0  0  0  0  0  0  0  0
  5  6  2  0  0  0  0
  5  7  1  0  0  0  0
  2  3  1  0  0  0  0
  2  4  1  0  0  0  0
  2  5  1  0  0  0  0
  1  2  1  0  0  0  0
 25 26  2  0  0  0  0
 25 27  1  0  0  0  0
 23 24  1  0  0  0  0
 21 22  1  0  0  0  0
 21 23  2  0  0  0  0
 19 20  1  0  0  0  0
 19 21  1  0  0  0  0
 17 18  1  0  0  0  0
 17 19  2  0  0  0  0
 15 16  1  0  0  0  0
 15 17  1  0  0  0  0
 14 15  2  0  0  0  0
 14 23  1  0  0  0  0
 11 12  1  0  0  0  0
 11 13  1  0  0  0  0
 11 14  1  0  0  0  0
  9 10  1  0  0  0  0
  9 11  1  0  0  0  0
  9 25  1  0  0  0  0
  7  8  1  0  0  0  0
  7  9  1  0  0  0  0
 29 30  1  0  0  0  0
 29 31  1  0  0  0  0
 29 32  1  0  0  0  0
 27 28  1  0  0  0  0
 27 29  1  0  0  0  0
M  END
$$$$
default_name
  -OEChem-02102213163D

 32 32  0     1  0  0  0  0  0999 V2000
   -3.8405   -3.7518    1.6252 H   0  0  0  0  0  0  0  0  0  0  0  0
   -3.7965   -2.8768    0.9782 C   0  0  0  0  0  0  0  0  0  0  0  0
   -4.5465   -2.1527    1.2902 H   0  0  0  0  0  0  0  0  0  0  0  0
   -3.9745   -3.1748   -0.0538 H   0  0  0  0  0  0  0  0  0  0  0  0
   -2.4245   -2.2537    1.0882 C   0  0  0  0  0  0  0  0  0  0  0  0
   -1.5805   -2.7478    1.8242 O   0  0  0  0  0  0  0  0  0  0  0  0
   -2.2045   -1.1637    0.3562 N   0  0  0  0  0  0  0  0  0  0  0  0
   -2.9595   -0.7907   -0.2008 H   0  0  0  0  0  0  0  0  0  0  0  0
   -0.9485   -0.4087    0.3482 C   0  0  1  0  0  0  0  0  0  0  0  0
   -0.3666   -0.6914    1.2269 H   0  0  0  0  0  0  0  0  0  0  0  0
   -0.1405   -0.7797   -0.9072 C   0  0  0  0  0  0  0  0  0  0  0  0
    0.2868   -1.7745   -0.7734 H   0  0  0  0  0  0  0  0  0  0  0  0
   -0.8166   -0.8259   -1.7622 H   0  0  0  0  0  0  0  0  0  0  0  0
    0.9922    0.1808   -1.2160 C   0  0  0  0  0  0  0  0  0  0  0  0
    0.7847    1.5718   -1.1538 C   0  0  0  0  0  0  0  0  0  0  0  0
   -0.1916    1.9645   -0.9072 H   0  0  0  0  0  0  0  0  0  0  0  0
    1.8509    2.4562   -1.4012 C   0  0  0  0  0  0  0  0  0  0  0  0
    1.6888    3.5240   -1.3555 H   0  0  0  0  0  0  0  0  0  0  0  0
    3.1258    1.9518   -1.7091 C   0  0  0  0  0  0  0  0  0  0  0  0
    3.9442    2.6313   -1.9015 H   0  0  0  0  0  0  0  0  0  0  0  0
    3.3361    0.5623   -1.7735 C   0  0  0  0  0  0  0  0  0  0  0  0
    4.3147    0.1745   -2.0155 H   0  0  0  0  0  0  0  0  0  0  0  0
    2.2697   -0.3212   -1.5295 C   0  0  0  0  0  0  0  0  0  0  0  0
    2.4320   -1.3899   -1.5826 H   0  0  0  0  0  0  0  0  0  0  0  0
   -1.2168    1.1047    0.4313 C   0  0  0  0  0  0  0  0  0  0  0  0
   -2.0890    1.6186   -0.2704 O   0  0  0  0  0  0  0  0  0  0  0  0
   -0.4674    1.8182    1.2813 N   0  0  0  0  0  0  0  0  0  0  0  0
    0.2640    1.3348    1.7800 H   0  0  0  0  0  0  0  0  0  0  0  0
   -0.5889    3.2615    1.4722 C   0  0  0  0  0  0  0  0  0  0  0  0
   -1.6291    3.5206    1.6805 H   0  0  0  0  0  0  0  0  0  0  0  0
    0.0359    3.5855    2.3049 H   0  0  0  0  0  0  0  0  0  0  0  0
   -0.2760    3.7797    0.5637 H   0  0  0  0  0  0  0  0  0  0  0  0
  5  6  2  0  0  0  0
  5  7  1  0  0  0  0
  2  3  1  0  0  0  0
  2  4  1  0  0  0  0
  2  5  1  0  0  0  0
  1  2  1  0  0  0  0
 25 26  2  0  0  0  0
 25 27  1  0  0  0  0
 23 24  1  0  0  0  0
 21 22  1  0  0  0  0
 21 23  2  0  0  0  0
 19 20  1  0  0  0  0
 19 21  1  0  0  0  0
 17 18  1  0  0  0  0
 17 19  2  0  0  0  0
 15 16  1  0  0  0  0
 15 17  1  0  0  0  0
 14 15  2  0  0  0  0
 14 23  1  0  0  0  0
 11 12  1  0  0  0  0
 11 13  1  0  0  0  0
 11 14  1  0  0  0  0
  9 10  1  0  0  0  0
  9 11  1  0  0  0  0
  9 25  1  0  0  0  0
  7  8  1  0  0  0  0
  7  9  1  0  0  0  0
 29 30  1  0  0  0  0
 29 31  1  0  0  0  0
 29 32  1  0  0  0  0
 27 28  1  0  0  0  0
 27 29  1  0  0  0  0
M  END
$$$$
default_name
  -OEChem-02102213163D

 32 32  0     1  0  0  0  0  0999 V2000
   -3.8405   -3.7518    1.6252 H   0  0  0  0  0  0  0  0  0  0  0  0
   -3.7965   -2.8768    0.9782 C   0  0  0  0  0  0  0  0  0  0  0  0
   -4.5465   -2.1527    1.2902 H   0  0  0  0  0  0  0  0  0  0  0  0
   -3.9745   -3.1748   -0.0538 H   0  0  0  0  0  0  0  0  0  0  0  0
   -2.4245   -2.2537    1.0882 C   0  0  0  0  0  0  0  0  0  0  0  0
   -1.5805   -2.7478    1.8242 O   0  0  0  0  0  0  0  0  0  0  0  0
   -2.2045   -1.1637    0.3562 N   0  0  0  0  0  0  0  0  0  0  0  0
   -2.9595   -0.7907   -0.2008 H   0  0  0  0  0  0  0  0  0  0  0  0
   -0.9485   -0.4087    0.3482 C   0  0  1  0  0  0  0  0  0  0  0  0
   -0.3666   -0.6914    1.2269 H   0  0  0  0  0  0  0  0  0  0  0  0
   -0.1405   -0.7797   -0.9072 C   0  0  0  0  0  0  0  0  0  0  0  0
    0.2868   -1.7745   -0.7734 H   0  0  0  0  0  0  0  0  0  0  0  0
   -0.8166   -0.8259   -1.7622 H   0  0  0  0  0  0  0  0  0  0  0  0
    0.9922    0.1808   -1.2160 C   0  0  0  0  0  0  0  0  0  0  0  0
    0.8934    1.5387   -0.8580 C   0  0  0  0  0  0  0  0  0  0  0  0
   -0.0020    1.9104   -0.3802 H   0  0  0  0  0  0  0  0  0  0  0  0
    1.9651    2.4149   -1.1106 C   0  0  0  0  0  0  0  0  0  0  0  0
    1.8862    3.4578   -0.8373 H   0  0  0  0  0  0  0  0  0  0  0  0
    3.1372    1.9351   -1.7192 C   0  0  0  0  0  0  0  0  0  0  0  0
    3.9595    2.6088   -1.9154 H   0  0  0  0  0  0  0  0  0  0  0  0
    3.2385    0.5790   -2.0795 C   0  0  0  0  0  0  0  0  0  0  0  0
    4.1373    0.2111   -2.5523 H   0  0  0  0  0  0  0  0  0  0  0  0
    2.1662   -0.2957   -1.8300 C   0  0  0  0  0  0  0  0  0  0  0  0
    2.2441   -1.3380   -2.1107 H   0  0  0  0  0  0  0  0  0  0  0  0
   -1.2168    1.1047    0.4313 C   0  0  0  0  0  0  0  0  0  0  0  0
   -2.0890    1.6186   -0.2704 O   0  0  0  0  0  0  0  0  0  0  0  0
   -0.4674    1.8182    1.2813 N   0  0  0  0  0  0  0  0  0  0  0  0
    0.2640    1.3348    1.7800 H   0  0  0  0  0  0  0  0  0  0  0  0
   -0.5889    3.2615    1.4722 C   0  0  0  0  0  0  0  0  0  0  0  0
   -1.6291    3.5206    1.6805 H   0  0  0  0  0  0  0  0  0  0  0  0
    0.0359    3.5855    2.3049 H   0  0  0  0  0  0  0  0  0  0  0  0
   -0.2760    3.7797    0.5637 H   0  0  0  0  0  0  0  0  0  0  0  0
  5  6  2  0  0  0  0
  5  7  1  0  0  0  0
  2  3  1  0  0  0  0
  2  4  1  0  0  0  0
  2  5  1  0  0  0  0
  1  2  1  0  0  0  0
 25 26  2  0  0  0  0
 25 27  1  0  0  0  0
 23 24  1  0  0  0  0
 21 22  1  0  0  0  0
 21 23  2  0  0  0  0
 19 20  1  0  0  0  0
 19 21  1  0  0  0  0
 17 18  1  0  0  0  0
 17 19  2  0  0  0  0
 15 16  1  0  0  0  0
 15 17  1  0  0  0  0
 14 15  2  0  0  0  0
 14 23  1  0  0  0  0
 11 12  1  0  0  0  0
 11 13  1  0  0  0  0
 11 14  1  0  0  0  0
  9 10  1  0  0  0  0
  9 11  1  0  0  0  0
  9 25  1  0  0  0  0
  7  8  1  0  0  0  0
  7  9  1  0  0  0  0
 29 30  1  0  0  0  0
 29 31  1  0  0  0  0
 29 32  1  0  0  0  0
 27 28  1  0  0  0  0
 27 29  1  0  0  0  0
M  END
$$$$
default_name
  -OEChem-02102213163D

 32 32  0     1  0  0  0  0  0999 V2000
   -3.8405   -3.7518    1.6252 H   0  0  0  0  0  0  0  0  0  0  0  0
   -3.7965   -2.8768    0.9782 C   0  0  0  0  0  0  0  0  0  0  0  0
   -4.5465   -2.1527    1.2902 H   0  0  0  0  0  0  0  0  0  0  0  0
   -3.9745   -3.1748   -0.0538 H   0  0  0  0  0  0  0  0  0  0  0  0
   -2.4245   -2.2537    1.0882 C   0  0  0  0  0  0  0  0  0  0  0  0
   -1.5805   -2.7478    1.8242 O   0  0  0  0  0  0  0  0  0  0  0  0
   -2.2045   -1.1637    0.3562 N   0  0  0  0  0  0  0  0  0  0  0  0
   -2.9595   -0.7907   -0.2008 H   0  0  0  0  0  0  0  0  0  0  0  0
   -0.9485   -0.4087    0.3482 C   0  0  1  0  0  0  0  0  0  0  0  0
   -0.3666   -0.6914    1.2269 H   0  0  0  0  0  0  0  0  0  0  0  0
   -0.1405   -0.7797   -0.9072 C   0  0  0  0  0  0  0  0  0  0  0  0
    0.2868   -1.7745   -0.7734 H   0  0  0  0  0  0  0  0  0  0  0  0
   -0.8166   -0.8259   -1.7622 H   0  0  0  0  0  0  0  0  0  0  0  0
    0.9922    0.1808   -1.2160 C   0  0  0  0  0  0  0  0  0  0  0  0
    1.0452    1.4439   -0.5966 C   0  0  0  0  0  0  0  0  0  0  0  0
    0.2646    1.7462    0.0872 H   0  0  0  0  0  0  0  0  0  0  0  0
    2.1208    2.3129   -0.8565 C   0  0  0  0  0  0  0  0  0  0  0  0
    2.1583    3.2834   -0.3818 H   0  0  0  0  0  0  0  0  0  0  0  0
    3.1457    1.9203   -1.7341 C   0  0  0  0  0  0  0  0  0  0  0  0
    3.9709    2.5889   -1.9356 H   0  0  0  0  0  0  0  0  0  0  0  0
    3.0950    0.6594   -2.3559 C   0  0  0  0  0  0  0  0  0  0  0  0
    3.8799    0.3596   -3.0347 H   0  0  0  0  0  0  0  0  0  0  0  0
    2.0182   -0.2076   -2.0984 C   0  0  0  0  0  0  0  0  0  0  0  0
    1.9787   -1.1760   -2.5800 H   0  0  0  0  0  0  0  0  0  0  0  0
   -1.2168    1.1047    0.4313 C   0  0  0  0  0  0  0  0  0  0  0  0
   -2.0890    1.6186   -0.2704 O   0  0  0  0  0  0  0  0  0  0  0  0
   -0.4674    1.8182    1.2813 N   0  0  0  0  0  0  0  0  0  0  0  0
    0.2640    1.3348    1.7800 H   0  0  0  0  0  0  0  0  0  0  0  0
   -0.5889    3.2615    1.4722 C   0  0  0  0  0  0  0  0  0  0  0  0
   -1.6291    3.5206    1.6805 H   0  0  0  0  0  0  0  0  0  0  0  0
    0.0359    3.5855    2.3049 H   0  0  0  0  0  0  0  0  0  0  0  0
   -0.2760    3.7797    0.5637 H   0  0  0  0  0  0  0  0  0  0  0  0
  5  6  2  0  0  0  0
  5  7  1  0  0  0  0
  2  3  1  0  0  0  0
  2  4  1  0  0  0  0
  2  5  1  0  0  0  0
  1  2  1  0  0  0  0
 25 26  2  0  0  0  0
 25 27  1  0  0  0  0
 23 24  1  0  0  0  0
 21 22  1  0  0  0  0
 21 23  2  0  0  0  0
 19 20  1  0  0  0  0
 19 21  1  0  0  0  0
 17 18  1  0  0  0  0
 17 19  2  0  0  0  0
 15 16  1  0  0  0  0
 15 17  1  0  0  0  0
 14 15  2  0  0  0  0
 14 23  1  0  0  0  0
 11 12  1  0  0  0  0
 11 13  1  0  0  0  0
 11 14  1  0  0  0  0
  9 10  1  0  0  0  0
  9 11  1  0  0  0  0
  9 25  1  0  0  0  0
  7  8  1  0  0  0  0
  7  9  1  0  0  0  0
 29 30  1  0  0  0  0
 29 31  1  0  0  0  0
 29 32  1  0  0  0  0
 27 28  1  0  0  0  0
 27 29  1  0  0  0  0
M  END
$$$$
default_name
  -OEChem-02102213163D

 32 32  0     1  0  0  0  0  0999 V2000
   -3.8405   -3.7518    1.6252 H   0  0  0  0  0  0  0  0  0  0  0  0
   -3.7965   -2.8768    0.9782 C   0  0  0  0  0  0  0  0  0  0  0  0
   -4.5465   -2.1527    1.2902 H   0  0  0  0  0  0  0  0  0  0  0  0
   -3.9745   -3.1748   -0.0538 H   0  0  0  0  0  0  0  0  0  0  0  0
   -2.4245   -2.2537    1.0882 C   0  0  0  0  0  0  0  0  0  0  0  0
   -1.5805   -2.7478    1.8242 O   0  0  0  0  0  0  0  0  0  0  0  0
   -2.2045   -1.1637    0.3562 N   0  0  0  0  0  0  0  0  0  0  0  0
   -2.9595   -0.7907   -0.2008 H   0  0  0  0  0  0  0  0  0  0  0  0
   -0.9485   -0.4087    0.3482 C   0  0  1  0  0  0  0  0  0  0  0  0
   -0.3666   -0.6914    1.2269 H   0  0  0  0  0  0  0  0  0  0  0  0
   -0.1405   -0.7797   -0.9072 C   0  0  0  0  0  0  0  0  0  0  0  0
    0.2868   -1.7745   -0.7734 H   0  0  0  0  0  0  0  0  0  0  0  0
   -0.8166   -0.8259   -1.7622 H   0  0  0  0  0  0  0  0  0  0  0  0
    0.9922    0.1808   -1.2160 C   0  0  0  0  0  0  0  0  0  0  0  0
    1.2296    1.2937   -0.3872 C   0  0  0  0  0  0  0  0  0  0  0  0
    0.5901    1.4833    0.4634 H   0  0  0  0  0  0  0  0  0  0  0  0
    2.3076    2.1571   -0.6564 C   0  0  0  0  0  0  0  0  0  0  0  0
    2.4865    3.0125   -0.0202 H   0  0  0  0  0  0  0  0  0  0  0  0
    3.1507    1.9084   -1.7527 C   0  0  0  0  0  0  0  0  0  0  0  0
    3.9774    2.5731   -1.9609 H   0  0  0  0  0  0  0  0  0  0  0  0
    2.9153    0.7980   -2.5838 C   0  0  0  0  0  0  0  0  0  0  0  0
    3.5601    0.6098   -3.4297 H   0  0  0  0  0  0  0  0  0  0  0  0
    1.8360   -0.0627   -2.3164 C   0  0  0  0  0  0  0  0  0  0  0  0
    1.6540   -0.9147   -2.9585 H   0  0  0  0  0  0  0  0  0  0  0  0
   -1.2168    1.1047    0.4313 C   0  0  0  0  0  0  0  0  0  0  0  0
   -2.0890    1.6186   -0.2704 O   0  0  0  0  0  0  0  0  0  0  0  0
   -0.4674    1.8182    1.2813 N   0  0  0  0  0  0  0  0  0  0  0  0
    0.2640    1.3348    1.7800 H   0  0  0  0  0  0  0  0  0  0  0  0
   -0.5889    3.2615    1.4722 C   0  0  0  0  0  0  0  0  0  0  0  0
   -1.6291    3.5206    1.6805 H   0  0  0  0  0  0  0  0  0  0  0  0
    0.0359    3.5855    2.3049 H   0  0  0  0  0  0  0  0  0  0  0  0
   -0.2760    3.7797    0.5637 H   0  0  0  0  0  0  0  0  0  0  0  0
  5  6  2  0  0  0  0
  5  7  1  0  0  0  0
  2  3  1  0  0  0  0
  2  4  1  0  0  0  0
  2  5  1  0  0  0  0
  1  2  1  0  0  0  0
 25 26  2  0  0  0  0
 25 27  1  0  0  0  0
 23 24  1  0  0  0  0
 21 22  1  0  0  0  0
 21 23  2  0  0  0  0
 19 20  1  0  0  0  0
 19 21  1  0  0  0  0
 17 18  1  0  0  0  0
 17 19  2  0  0  0  0
 15 16  1  0  0  0  0
 15 17  1  0  0  0  0
 14 15  2  0  0  0  0
 14 23  1  0  0  0  0
 11 12  1  0  0  0  0
 11 13  1  0  0  0  0
 11 14  1  0  0  0  0
  9 10  1  0  0  0  0
  9 11  1  0  0  0  0
  9 25  1  0  0  0  0
  7  8  1  0  0  0  0
  7  9  1  0  0  0  0
 29 30  1  0  0  0  0
 29 31  1  0  0  0  0
 29 32  1  0  0  0  0
 27 28  1  0  0  0  0
 27 29  1  0  0  0  0
M  END
$$$$
default_name
  -OEChem-02102213163D

 32 32  0     1  0  0  0  0  0999 V2000
   -3.8405   -3.7518    1.6252 H   0  0  0  0  0  0  0  0  0  0  0  0
   -3.7965   -2.8768    0.9782 C   0  0  0  0  0  0  0  0  0  0  0  0
   -4.5465   -2.1527    1.2902 H   0  0  0  0  0  0  0  0  0  0  0  0
   -3.9745   -3.1748   -0.0538 H   0  0  0  0  0  0  0  0  0  0  0  0
   -2.4245   -2.2537    1.0882 C   0  0  0  0  0  0  0  0  0  0  0  0
   -1.5805   -2.7478    1.8242 O   0  0  0  0  0  0  0  0  0  0  0  0
   -2.2045   -1.1637    0.3562 N   0  0  0  0  0  0  0  0  0  0  0  0
   -2.9595   -0.7907   -0.2008 H   0  0  0  0  0  0  0  0  0  0  0  0
   -0.9485   -0.4087    0.3482 C   0  0  1  0  0  0  0  0  0  0  0  0
   -0.3666   -0.6914    1.2269 H   0  0  0  0  0  0  0  0  0  0  0  0
   -0.1405   -0.7797   -0.9072 C   0  0  0  0  0  0  0  0  0  0  0  0
    0.2868   -1.7745   -0.7734 H   0  0  0  0  0  0  0  0  0  0  0  0
   -0.8166   -0.8259   -1.7622 H   0  0  0  0  0  0  0  0  0  0  0  0
    0.9922    0.1808   -1.2160 C   0  0  0  0  0  0  0  0  0  0  0  0
    1.4341    1.0985   -0.2442 C   0  0  0  0  0  0  0  0  0  0  0  0
    0.9523    1.1395    0.7225 H   0  0  0  0  0  0  0  0  0  0  0  0
    2.5125    1.9580   -0.5237 C   0  0  0  0  0  0  0  0  0  0  0  0
    2.8486    2.6637    0.2230 H   0  0  0  0  0  0  0  0  0  0  0  0
    3.1518    1.9003   -1.7738 C   0  0  0  0  0  0  0  0  0  0  0  0
    3.9788    2.5623   -1.9894 H   0  0  0  0  0  0  0  0  0  0  0  0
    2.7118    0.9854   -2.7476 C   0  0  0  0  0  0  0  0  0  0  0  0
    3.1995    0.9447   -3.7105 H   0  0  0  0  0  0  0  0  0  0  0  0
    1.6319    0.1289   -2.4691 C   0  0  0  0  0  0  0  0  0  0  0  0
    1.2921   -0.5722   -3.2204 H   0  0  0  0  0  0  0  0  0  0  0  0
   -1.2168    1.1047    0.4313 C   0  0  0  0  0  0  0  0  0  0  0  0
   -2.0890    1.6186   -0.2704 O   0  0  0  0  0  0  0  0  0  0  0  0
   -0.4674    1.8182    1.2813 N   0  0  0  0  0  0  0  0  0  0  0  0
    0.2640    1.3348    1.7800 H   0  0  0  0  0  0  0  0  0  0  0  0
   -0.5889    3.2615    1.4722 C   0  0  0  0  0  0  0  0  0  0  0  0
   -1.6291    3.5206    1.6805 H   0  0  0  0  0  0  0  0  0  0  0  0
    0.0359    3.5855    2.3049 H   0  0  0  0  0  0  0  0  0  0  0  0
   -0.2760    3.7797    0.5637 H   0  0  0  0  0  0  0  0  0  0  0  0
  5  6  2  0  0  0  0
  5  7  1  0  0  0  0
  2  3  1  0  0  0  0
  2  4  1  0  0  0  0
  2  5  1  0  0  0  0
  1  2  1  0  0  0  0
 25 26  2  0  0  0  0
 25 27  1  0  0  0  0
 23 24  1  0  0  0  0
 21 22  1  0  0  0  0
 21 23  2  0  0  0  0
 19 20  1  0  0  0  0
 19 21  1  0  0  0  0
 17 18  1  0  0  0  0
 17 19  2  0  0  0  0
 15 16  1  0  0  0  0
 15 17  1  0  0  0  0
 14 15  2  0  0  0  0
 14 23  1  0  0  0  0
 11 12  1  0  0  0  0
 11 13  1  0  0  0  0
 11 14  1  0  0  0  0
  9 10  1  0  0  0  0
  9 11  1  0  0  0  0
  9 25  1  0  0  0  0
  7  8  1  0  0  0  0
  7  9  1  0  0  0  0
 29 30  1  0  0  0  0
 29 31  1  0  0  0  0
 29 32  1  0  0  0  0
 27 28  1  0  0  0  0
 27 29  1  0  0  0  0
M  END
$$$$
default_name
  -OEChem-02102213163D

 32 32  0     1  0  0  0  0  0999 V2000
   -3.8405   -3.7518    1.6252 H   0  0  0  0  0  0  0  0  0  0  0  0
   -3.7965   -2.8768    0.9782 C   0  0  0  0  0  0  0  0  0  0  0  0
   -4.5465   -2.1527    1.2902 H   0  0  0  0  0  0  0  0  0  0  0  0
   -3.9745   -3.1748   -0.0538 H   0  0  0  0  0  0  0  0  0  0  0  0
   -2.4245   -2.2537    1.0882 C   0  0  0  0  0  0  0  0  0  0  0  0
   -1.5805   -2.7478    1.8242 O   0  0  0  0  0  0  0  0  0  0  0  0
   -2.2045   -1.1637    0.3562 N   0  0  0  0  0  0  0  0  0  0  0  0
   -2.9595   -0.7907   -0.2008 H   0  0  0  0  0  0  0  0  0  0  0  0
   -0.9485   -0.4087    0.3482 C   0  0  1  0  0  0  0  0  0  0  0  0
   -0.3666   -0.6914    1.2269 H   0  0  0  0  0  0  0  0  0  0  0  0
   -0.1405   -0.7797   -0.9072 C   0  0  0  0  0  0  0  0  0  0  0  0
    0.2868   -1.7745   -0.7734 H   0  0  0  0  0  0  0  0  0  0  0  0
   -0.8166   -0.8259   -1.7622 H   0  0  0  0  0  0  0  0  0  0  0  0
    0.9922    0.1808   -1.2160 C   0  0  0  0  0  0  0  0  0  0  0  0
    1.6448    0.8715   -0.1773 C   0  0  0  0  0  0  0  0  0  0  0  0
    1.3265    0.7382    0.8470 H   0  0  0  0  0  0  0  0  0  0  0  0
    2.7217    1.7293   -0.4677 C   0  0  0  0  0  0  0  0  0  0  0  0
    3.2198    2.2607    0.3311 H   0  0  0  0  0  0  0  0  0  0  0  0
    3.1490    1.8964   -1.7959 C   0  0  0  0  0  0  0  0  0  0  0  0
    3.9749    2.5573   -2.0192 H   0  0  0  0  0  0  0  0  0  0  0  0
    2.4981    1.2089   -2.8363 C   0  0  0  0  0  0  0  0  0  0  0  0
    2.8229    1.3414   -3.8579 H   0  0  0  0  0  0  0  0  0  0  0  0
    1.4198    0.3543   -2.5461 C   0  0  0  0  0  0  0  0  0  0  0  0
    0.9177   -0.1716   -3.3478 H   0  0  0  0  0  0  0  0  0  0  0  0
   -1.2168    1.1047    0.4313 C   0  0  0  0  0  0  0  0  0  0  0  0
   -2.0890    1.6186   -0.2704 O   0  0  0  0  0  0  0  0  0  0  0  0
   -0.4674    1.8182    1.2813 N   0  0  0  0  0  0  0  0  0  0  0  0
    0.2640    1.3348    1.7800 H   0  0  0  0  0  0  0  0  0  0  0  0
   -0.5889    3.2615    1.4722 C   0  0  0  0  0  0  0  0  0  0  0  0
   -1.6291    3.5206    1.6805 H   0  0  0  0  0  0  0  0  0  0  0  0
    0.0359    3.5855    2.3049 H   0  0  0  0  0  0  0  0  0  0  0  0
   -0.2760    3.7797    0.5637 H   0  0  0  0  0  0  0  0  0  0  0  0
  5  6  2  0  0  0  0
  5  7  1  0  0  0  0
  2  3  1  0  0  0  0
  2  4  1  0  0  0  0
  2  5  1  0  0  0  0
  1  2  1  0  0  0  0
 25 26  2  0  0  0  0
 25 27  1  0  0  0  0
 23 24  1  0  0  0  0
 21 22  1  0  0  0  0
 21 23  2  0  0  0  0
 19 20  1  0  0  0  0
 19 21  1  0  0  0  0
 17 18  1  0  0  0  0
 17 19  2  0  0  0  0
 15 16  1  0  0  0  0
 15 17  1  0  0  0  0
 14 15  2  0  0  0  0
 14 23  1  0  0  0  0
 11 12  1  0  0  0  0
 11 13  1  0  0  0  0
 11 14  1  0  0  0  0
  9 10  1  0  0  0  0
  9 11  1  0  0  0  0
  9 25  1  0  0  0  0
  7  8  1  0  0  0  0
  7  9  1  0  0  0  0
 29 30  1  0  0  0  0
 29 31  1  0  0  0  0
 29 32  1  0  0  0  0
 27 28  1  0  0  0  0
 27 29  1  0  0  0  0
M  END
$$$$
default_name
  -OEChem-02102213163D

 32 32  0     1  0  0  0  0  0999 V2000
   -3.8405   -3.7518    1.6252 H   0  0  0  0  0  0  0  0  0  0  0  0
   -3.7965   -2.8768    0.9782 C   0  0  0  0  0  0  0  0  0  0  0  0
   -4.5465   -2.1527    1.2902 H   0  0  0  0  0  0  0  0  0  0  0  0
   -3.9745   -3.1748   -0.0538 H   0  0  0  0  0  0  0  0  0  0  0  0
   -2.4245   -2.2537    1.0882 C   0  0  0  0  0  0  0  0  0  0  0  0
   -1.5805   -2.7478    1.8242 O   0  0  0  0  0  0  0  0  0  0  0  0
   -2.2045   -1.1637    0.3562 N   0  0  0  0  0  0  0  0  0  0  0  0
   -2.9595   -0.7907   -0.2008 H   0  0  0  0  0  0  0  0  0  0  0  0
   -0.9485   -0.4087    0.3482 C   0  0  1  0  0  0  0  0  0  0  0  0
   -0.3666   -0.6914    1.2269 H   0  0  0  0  0  0  0  0  0  0  0  0
   -0.1405   -0.7797   -0.9072 C   0  0  0  0  0  0  0  0  0  0  0  0
    0.2868   -1.7745   -0.7734 H   0  0  0  0  0  0  0  0  0  0  0  0
   -0.8166   -0.8259   -1.7622 H   0  0  0  0  0  0  0  0  0  0  0  0
    0.9922    0.1808   -1.2160 C   0  0  0  0  0  0  0  0  0  0  0  0
    1.8473    0.6282   -0.1911 C   0  0  0  0  0  0  0  0  0  0  0  0
    1.6872    0.3068    0.8284 H   0  0  0  0  0  0  0  0  0  0  0  0
    2.9210    1.4865   -0.4921 C   0  0  0  0  0  0  0  0  0  0  0  0
    3.5748    1.8309    0.2968 H   0  0  0  0  0  0  0  0  0  0  0  0
    3.1425    1.8971   -1.8175 C   0  0  0  0  0  0  0  0  0  0  0  0
    3.9660    2.5584   -2.0484 H   0  0  0  0  0  0  0  0  0  0  0  0
    2.2890    1.4531   -2.8438 C   0  0  0  0  0  0  0  0  0  0  0  0
    2.4559    1.7730   -3.8619 H   0  0  0  0  0  0  0  0  0  0  0  0
    1.2142    0.5980   -2.5422 C   0  0  0  0  0  0  0  0  0  0  0  0
    0.5562    0.2598   -3.3322 H   0  0  0  0  0  0  0  0  0  0  0  0
   -1.2168    1.1047    0.4313 C   0  0  0  0  0  0  0  0  0  0  0  0
   -2.0890    1.6186   -0.2704 O   0  0  0  0  0  0  0  0  0  0  0  0
   -0.4674    1.8182    1.2813 N   0  0  0  0  0  0  0  0  0  0  0  0
    0.2640    1.3348    1.7800 H   0  0  0  0  0  0  0  0  0  0  0  0
   -0.5889    3.2615    1.4722 C   0  0  0  0  0  0  0  0  0  0  0  0
   -1.6291    3.5206    1.6805 H   0  0  0  0  0  0  0  0  0  0  0  0
    0.0359    3.5855    2.3049 H   0  0  0  0  0  0  0  0  0  0  0  0
   -0.2760    3.7797    0.5637 H   0  0  0  0  0  0  0  0  0  0  0  0
  5  6  2  0  0  0  0
  5  7  1  0  0  0  0
  2  3  1  0  0  0  0
  2  4  1  0  0  0  0
  2  5  1  0  0  0  0
  1  2  1  0  0  0  0
 25 26  2  0  0  0  0
 25 27  1  0  0  0  0
 23 24  1  0  0  0  0
 21 22  1  0  0  0  0
 21 23  2  0  0  0  0
 19 20  1  0  0  0  0
 19 21  1  0  0  0  0
 17 18  1  0  0  0  0
 17 19  2  0  0  0  0
 15 16  1  0  0  0  0
 15 17  1  0  0  0  0
 14 15  2  0  0  0  0
 14 23  1  0  0  0  0
 11 12  1  0  0  0  0
 11 13  1  0  0  0  0
 11 14  1  0  0  0  0
  9 10  1  0  0  0  0
  9 11  1  0  0  0  0
  9 25  1  0  0  0  0
  7  8  1  0  0  0  0
  7  9  1  0  0  0  0
 29 30  1  0  0  0  0
 29 31  1  0  0  0  0
 29 32  1  0  0  0  0
 27 28  1  0  0  0  0
 27 29  1  0  0  0  0
M  END
$$$$
default_name
  -OEChem-02102213163D

 32 32  0     1  0  0  0  0  0999 V2000
   -3.8405   -3.7518    1.6252 H   0  0  0  0  0  0  0  0  0  0  0  0
   -3.7965   -2.8768    0.9782 C   0  0  0  0  0  0  0  0  0  0  0  0
   -4.5465   -2.1527    1.2902 H   0  0  0  0  0  0  0  0  0  0  0  0
   -3.9745   -3.1748   -0.0538 H   0  0  0  0  0  0  0  0  0  0  0  0
   -2.4245   -2.2537    1.0882 C   0  0  0  0  0  0  0  0  0  0  0  0
   -1.5805   -2.7478    1.8242 O   0  0  0  0  0  0  0  0  0  0  0  0
   -2.2045   -1.1637    0.3562 N   0  0  0  0  0  0  0  0  0  0  0  0
   -2.9595   -0.7907   -0.2008 H   0  0  0  0  0  0  0  0  0  0  0  0
   -0.9485   -0.4087    0.3482 C   0  0  1  0  0  0  0  0  0  0  0  0
   -0.3666   -0.6914    1.2269 H   0  0  0  0  0  0  0  0  0  0  0  0
   -0.1405   -0.7797   -0.9072 C   0  0  0  0  0  0  0  0  0  0  0  0
    0.2868   -1.7745   -0.7734 H   0  0  0  0  0  0  0  0  0  0  0  0
   -0.8166   -0.8259   -1.7622 H   0  0  0  0  0  0  0  0  0  0  0  0
    0.9922    0.1808   -1.2160 C   0  0  0  0  0  0  0  0  0  0  0  0
    2.0279    0.3852   -0.2846 C   0  0  0  0  0  0  0  0  0  0  0  0
    2.0098   -0.1253    0.6680 H   0  0  0  0  0  0  0  0  0  0  0  0
    3.0966    1.2462   -0.5952 C   0  0  0  0  0  0  0  0  0  0  0  0
    3.8895    1.4038    0.1224 H   0  0  0  0  0  0  0  0  0  0  0  0
    3.1327    1.9024   -1.8373 C   0  0  0  0  0  0  0  0  0  0  0  0
    3.9526    2.5657   -2.0749 H   0  0  0  0  0  0  0  0  0  0  0  0
    2.0986    1.7014   -2.7696 C   0  0  0  0  0  0  0  0  0  0  0  0
    2.1235    2.2100   -3.7222 H   0  0  0  0  0  0  0  0  0  0  0  0
    1.0290    0.8435   -2.4576 C   0  0  0  0  0  0  0  0  0  0  0  0
    0.2324    0.6924   -3.1744 H   0  0  0  0  0  0  0  0  0  0  0  0
   -1.2168    1.1047    0.4313 C   0  0  0  0  0  0  0  0  0  0  0  0
   -2.0890    1.6186   -0.2704 O   0  0  0  0  0  0  0  0  0  0  0  0
   -0.4674    1.8182    1.2813 N   0  0  0  0  0  0  0  0  0  0  0  0
    0.2640    1.3348    1.7800 H   0  0  0  0  0  0  0  0  0  0  0  0
   -0.5889    3.2615    1.4722 C   0  0  0  0  0  0  0  0  0  0  0  0
   -1.6291    3.5206    1.6805 H   0  0  0  0  0  0  0  0  0  0  0  0
    0.0359    3.5855    2.3049 H   0  0  0  0  0  0  0  0  0  0  0  0
   -0.2760    3.7797    0.5637 H   0  0  0  0  0  0  0  0  0  0  0  0
  5  6  2  0  0  0  0
  5  7  1  0  0  0  0
  2  3  1  0  0  0  0
  2  4  1  0  0  0  0
  2  5  1  0  0  0  0
  1  2  1  0  0  0  0
 25 26  2  0  0  0  0
 25 27  1  0  0  0  0
 23 24  1  0  0  0  0
 21 22  1  0  0  0  0
 21 23  2  0  0  0  0
 19 20  1  0  0  0  0
 19 21  1  0  0  0  0
 17 18  1  0  0  0  0
 17 19  2  0  0  0  0
 15 16  1  0  0  0  0
 15 17  1  0  0  0  0
 14 15  2  0  0  0  0
 14 23  1  0  0  0  0
 11 12  1  0  0  0  0
 11 13  1  0  0  0  0
 11 14  1  0  0  0  0
  9 10  1  0  0  0  0
  9 11  1  0  0  0  0
  9 25  1  0  0  0  0
  7  8  1  0  0  0  0
  7  9  1  0  0  0  0
 29 30  1  0  0  0  0
 29 31  1  0  0  0  0
 29 32  1  0  0  0  0
 27 28  1  0  0  0  0
 27 29  1  0  0  0  0
M  END
$$$$
default_name
  -OEChem-02102213163D

 32 32  0     1  0  0  0  0  0999 V2000
   -3.8405   -3.7518    1.6252 H   0  0  0  0  0  0  0  0  0  0  0  0
   -3.7965   -2.8768    0.9782 C   0  0  0  0  0  0  0  0  0  0  0  0
   -4.5465   -2.1527    1.2902 H   0  0  0  0  0  0  0  0  0  0  0  0
   -3.9745   -3.1748   -0.0538 H   0  0  0  0  0  0  0  0  0  0  0  0
   -2.4245   -2.2537    1.0882 C   0  0  0  0  0  0  0  0  0  0  0  0
   -1.5805   -2.7478    1.8242 O   0  0  0  0  0  0  0  0  0  0  0  0
   -2.2045   -1.1637    0.3562 N   0  0  0  0  0  0  0  0  0  0  0  0
   -2.9595   -0.7907   -0.2008 H   0  0  0  0  0  0  0  0  0  0  0  0
   -0.9485   -0.4087    0.3482 C   0  0  1  0  0  0  0  0  0  0  0  0
   -0.3666   -0.6914    1.2269 H   0  0  0  0  0  0  0  0  0  0  0  0
   -0.1405   -0.7797   -0.9072 C   0  0  0  0  0  0  0  0  0  0  0  0
    0.2868   -1.7745   -0.7734 H   0  0  0  0  0  0  0  0  0  0  0  0
   -0.8166   -0.8259   -1.7622 H   0  0  0  0  0  0  0  0  0  0  0  0
    0.9922    0.1808   -1.2160 C   0  0  0  0  0  0  0  0  0  0  0  0
    2.1741    0.1591   -0.4515 C   0  0  0  0  0  0  0  0  0  0  0  0
    2.2724   -0.5286    0.3766 H   0  0  0  0  0  0  0  0  0  0  0  0
    3.2367    1.0248   -0.7700 C   0  0  0  0  0  0  0  0  0  0  0  0
    4.1424    1.0083   -0.1801 H   0  0  0  0  0  0  0  0  0  0  0  0
    3.1203    1.9117   -1.8537 C   0  0  0  0  0  0  0  0  0  0  0  0
    3.9358    2.5785   -2.0969 H   0  0  0  0  0  0  0  0  0  0  0  0
    1.9400    1.9370   -2.6187 C   0  0  0  0  0  0  0  0  0  0  0  0
    1.8483    2.6225   -3.4483 H   0  0  0  0  0  0  0  0  0  0  0  0
    0.8770    1.0741   -2.2981 C   0  0  0  0  0  0  0  0  0  0  0  0
   -0.0318    1.0968   -2.8854 H   0  0  0  0  0  0  0  0  0  0  0  0
   -1.2168    1.1047    0.4313 C   0  0  0  0  0  0  0  0  0  0  0  0
   -2.0890    1.6186   -0.2704 O   0  0  0  0  0  0  0  0  0  0  0  0
   -0.4674    1.8182    1.2813 N   0  0  0  0  0  0  0  0  0  0  0  0
    0.2640    1.3348    1.7800 H   0  0  0  0  0  0  0  0  0  0  0  0
   -0.5889    3.2615    1.4722 C   0  0  0  0  0  0  0  0  0  0  0  0
   -1.6291    3.5206    1.6805 H   0  0  0  0  0  0  0  0  0  0  0  0
    0.0359    3.5855    2.3049 H   0  0  0  0  0  0  0  0  0  0  0  0
   -0.2760    3.7797    0.5637 H   0  0  0  0  0  0  0  0  0  0  0  0
  5  6  2  0  0  0  0
  5  7  1  0  0  0  0
  2  3  1  0  0  0  0
  2  4  1  0  0  0  0
  2  5  1  0  0  0  0
  1  2  1  0  0  0  0
 25 26  2  0  0  0  0
 25 27  1  0  0  0  0
 23 24  1  0  0  0  0
 21 22  1  0  0  0  0
 21 23  2  0  0  0  0
 19 20  1  0  0  0  0
 19 21  1  0  0  0  0
 17 18  1  0  0  0  0
 17 19  2  0  0  0  0
 15 16  1  0  0  0  0
 15 17  1  0  0  0  0
 14 15  2  0  0  0  0
 14 23  1  0  0  0  0
 11 12  1  0  0  0  0
 11 13  1  0  0  0  0
 11 14  1  0  0  0  0
  9 10  1  0  0  0  0
  9 11  1  0  0  0  0
  9 25  1  0  0  0  0
  7  8  1  0  0  0  0
  7  9  1  0  0  0  0
 29 30  1  0  0  0  0
 29 31  1  0  0  0  0
 29 32  1  0  0  0  0
 27 28  1  0  0  0  0
 27 29  1  0  0  0  0
M  END
$$$$
default_name
  -OEChem-02102213163D

 32 32  0     1  0  0  0  0  0999 V2000
   -3.8405   -3.7518    1.6252 H   0  0  0  0  0  0  0  0  0  0  0  0
   -3.7965   -2.8768    0.9782 C   0  0  0  0  0  0  0  0  0  0  0  0
   -4.5465   -2.1527    1.2902 H   0  0  0  0  0  0  0  0  0  0  0  0
   -3.9745   -3.1748   -0.0538 H   0  0  0  0  0  0  0  0  0  0  0  0
   -2.4245   -2.2537    1.0882 C   0  0  0  0  0  0  0  0  0  0  0  0
   -1.5805   -2.7478    1.8242 O   0  0  0  0  0  0  0  0  0  0  0  0
   -2.2045   -1.1637    0.3562 N   0  0  0  0  0  0  0  0  0  0  0  0
   -2.9595   -0.7907   -0.2008 H   0  0  0  0  0  0  0  0  0  0  0  0
   -0.9485   -0.4087    0.3482 C   0  0  1  0  0  0  0  0  0  0  0  0
   -0.3666   -0.6914    1.2269 H   0  0  0  0  0  0  0  0  0  0  0  0
   -0.1405   -0.7797   -0.9072 C   0  0  0  0  0  0  0  0  0  0  0  0
    0.2868   -1.7745   -0.7734 H   0  0  0  0  0  0  0  0  0  0  0  0
   -0.8166   -0.8259   -1.7622 H   0  0  0  0  0  0  0  0  0  0  0  0
    0.9922    0.1808   -1.2160 C   0  0  0  0  0  0  0  0  0  0  0  0
    2.2762   -0.0348   -0.6804 C   0  0  0  0  0  0  0  0  0  0  0  0
    2.4570   -0.8758   -0.0259 H   0  0  0  0  0  0  0  0  0  0  0  0
    3.3317    0.8373   -1.0046 C   0  0  0  0  0  0  0  0  0  0  0  0
    4.3162    0.6714   -0.5902 H   0  0  0  0  0  0  0  0  0  0  0  0
    3.1061    1.9246   -1.8657 C   0  0  0  0  0  0  0  0  0  0  0  0
    3.9166    2.5960   -2.1129 H   0  0  0  0  0  0  0  0  0  0  0  0
    1.8240    2.1438   -2.4014 C   0  0  0  0  0  0  0  0  0  0  0  0
    1.6491    2.9826   -3.0590 H   0  0  0  0  0  0  0  0  0  0  0  0
    0.7685    1.2739   -2.0746 C   0  0  0  0  0  0  0  0  0  0  0  0
   -0.2182    1.4456   -2.4847 H   0  0  0  0  0  0  0  0  0  0  0  0
   -1.2168    1.1047    0.4313 C   0  0  0  0  0  0  0  0  0  0  0  0
   -2.0890    1.6186   -0.2704 O   0  0  0  0  0  0  0  0  0  0  0  0
   -0.4674    1.8182    1.2813 N   0  0  0  0  0  0  0  0  0  0  0  0
    0.2640    1.3348    1.7800 H   0  0  0  0  0  0  0  0  0  0  0  0
   -0.5889    3.2615    1.4722 C   0  0  0  0  0  0  0  0  0  0  0  0
   -1.6291    3.5206    1.6805 H   0  0  0  0  0  0  0  0  0  0  0  0
    0.0359    3.5855    2.3049 H   0  0  0  0  0  0  0  0  0  0  0  0
   -0.2760    3.7797    0.5637 H   0  0  0  0  0  0  0  0  0  0  0  0
  5  6  2  0  0  0  0
  5  7  1  0  0  0  0
  2  3  1  0  0  0  0
  2  4  1  0  0  0  0
  2  5  1  0  0  0  0
  1  2  1  0  0  0  0
 25 26  2  0  0  0  0
 25 27  1  0  0  0  0
 23 24  1  0  0  0  0
 21 22  1  0  0  0  0
 21 23  2  0  0  0  0
 19 20  1  0  0  0  0
 19 21  1  0  0  0  0
 17 18  1  0  0  0  0
 17 19  2  0  0  0  0
 15 16  1  0  0  0  0
 15 17  1  0  0  0  0
 14 15  2  0  0  0  0
 14 23  1  0  0  0  0
 11 12  1  0  0  0  0
 11 13  1  0  0  0  0
 11 14  1  0  0  0  0
  9 10  1  0  0  0  0
  9 11  1  0  0  0  0
  9 25  1  0  0  0  0
  7  8  1  0  0  0  0
  7  9  1  0  0  0  0
 29 30  1  0  0  0  0
 29 31  1  0  0  0  0
 29 32  1  0  0  0  0
 27 28  1  0  0  0  0
 27 29  1  0  0  0  0
M  END
$$$$
default_name
  -OEChem-02102213163D

 32 32  0     1  0  0  0  0  0999 V2000
   -3.8405   -3.7518    1.6252 H   0  0  0  0  0  0  0  0  0  0  0  0
   -3.7965   -2.8768    0.9782 C   0  0  0  0  0  0  0  0  0  0  0  0
   -4.5465   -2.1527    1.2902 H   0  0  0  0  0  0  0  0  0  0  0  0
   -3.9745   -3.1748   -0.0538 H   0  0  0  0  0  0  0  0  0  0  0  0
   -2.4245   -2.2537    1.0882 C   0  0  0  0  0  0  0  0  0  0  0  0
   -1.5805   -2.7478    1.8242 O   0  0  0  0  0  0  0  0  0  0  0  0
   -2.2045   -1.1637    0.3562 N   0  0  0  0  0  0  0  0  0  0  0  0
   -2.9595   -0.7907   -0.2008 H   0  0  0  0  0  0  0  0  0  0  0  0
   -0.9485   -0.4087    0.3482 C   0  0  1  0  0  0  0  0  0  0  0  0
   -0.3666   -0.6914    1.2269 H   0  0  0  0  0  0  0  0  0  0  0  0
   -0.1405   -0.7797   -0.9072 C   0  0  0  0  0  0  0  0  0  0  0  0
    0.2868   -1.7745   -0.7734 H   0  0  0  0  0  0  0  0  0  0  0  0
   -0.8166   -0.8259   -1.7622 H   0  0  0  0  0  0  0  0  0  0  0  0
    0.9922    0.1808   -1.2160 C   0  0  0  0  0  0  0  0  0  0  0  0
    2.3270   -0.1833   -0.9557 C   0  0  0  0  0  0  0  0  0  0  0  0
    2.5511   -1.1430   -0.5119 H   0  0  0  0  0  0  0  0  0  0  0  0
    3.3752    0.6965   -1.2830 C   0  0  0  0  0  0  0  0  0  0  0  0
    4.3992    0.4161   -1.0800 H   0  0  0  0  0  0  0  0  0  0  0  0
    3.0911    1.9401   -1.8725 C   0  0  0  0  0  0  0  0  0  0  0  0
    3.8963    2.6170   -2.1218 H   0  0  0  0  0  0  0  0  0  0  0  0
    1.7583    2.3076   -2.1325 C   0  0  0  0  0  0  0  0  0  0  0  0
    1.5395    3.2657   -2.5806 H   0  0  0  0  0  0  0  0  0  0  0  0
    0.7108    1.4295   -1.8023 C   0  0  0  0  0  0  0  0  0  0  0  0
   -0.3143    1.7148   -1.9997 H   0  0  0  0  0  0  0  0  0  0  0  0
   -1.2168    1.1047    0.4313 C   0  0  0  0  0  0  0  0  0  0  0  0
   -2.0890    1.6186   -0.2704 O   0  0  0  0  0  0  0  0  0  0  0  0
   -0.4674    1.8182    1.2813 N   0  0  0  0  0  0  0  0  0  0  0  0
    0.2640    1.3348    1.7800 H   0  0  0  0  0  0  0  0  0  0  0  0
   -0.5889    3.2615    1.4722 C   0  0  0  0  0  0  0  0  0  0  0  0
   -1.6291    3.5206    1.6805 H   0  0  0  0  0  0  0  0  0  0  0  0
    0.0359    3.5855    2.3049 H   0  0  0  0  0  0  0  0  0  0  0  0
   -0.2760    3.7797    0.5637 H   0  0  0  0  0  0  0  0  0  0  0  0
  5  6  2  0  0  0  0
  5  7  1  0  0  0  0
  2  3  1  0  0  0  0
  2  4  1  0  0  0  0
  2  5  1  0  0  0  0
  1  2  1  0  0  0  0
 25 26  2  0  0  0  0
 25 27  1  0  0  0  0
 23 24  1  0  0  0  0
 21 22  1  0  0  0  0
 21 23  2  0  0  0  0
 19 20  1  0  0  0  0
 19 21  1  0  0  0  0
 17 18  1  0  0  0  0
 17 19  2  0  0  0  0
 15 16  1  0  0  0  0
 15 17  1  0  0  0  0
 14 15  2  0  0  0  0
 14 23  1  0  0  0  0
 11 12  1  0  0  0  0
 11 13  1  0  0  0  0
 11 14  1  0  0  0  0
  9 10  1  0  0  0  0
  9 11  1  0  0  0  0
  9 25  1  0  0  0  0
  7  8  1  0  0  0  0
  7  9  1  0  0  0  0
 29 30  1  0  0  0  0
 29 31  1  0  0  0  0
 29 32  1  0  0  0  0
 27 28  1  0  0  0  0
 27 29  1  0  0  0  0
M  END
$$$$
default_name
  -OEChem-02102213163D

 32 32  0     1  0  0  0  0  0999 V2000
   -3.8405   -3.7518    1.6252 H   0  0  0  0  0  0  0  0  0  0  0  0
   -3.7965   -2.8768    0.9782 C   0  0  0  0  0  0  0  0  0  0  0  0
   -4.5465   -2.1527    1.2902 H   0  0  0  0  0  0  0  0  0  0  0  0
   -3.9745   -3.1748   -0.0538 H   0  0  0  0  0  0  0  0  0  0  0  0
   -2.4245   -2.2537    1.0882 C   0  0  0  0  0  0  0  0  0  0  0  0
   -1.5805   -2.7478    1.8242 O   0  0  0  0  0  0  0  0  0  0  0  0
   -2.2045   -1.1637    0.3562 N   0  0  0  0  0  0  0  0  0  0  0  0
   -2.9595   -0.7907   -0.2008 H   0  0  0  0  0  0  0  0  0  0  0  0
   -0.9485   -0.4087    0.3482 C   0  0  1  0  0  0  0  0  0  0  0  0
   -0.3666   -0.6914    1.2269 H   0  0  0  0  0  0  0  0  0  0  0  0
   -0.1405   -0.7797   -0.9072 C   0  0  0  0  0  0  0  0  0  0  0  0
    0.2868   -1.7745   -0.7734 H   0  0  0  0  0  0  0  0  0  0  0  0
   -0.8166   -0.8259   -1.7622 H   0  0  0  0  0  0  0  0  0  0  0  0
    0.9922    0.1808   -1.2160 C   0  0  0  0  0  0  0  0  0  0  0  0
    2.3231   -0.2761   -1.2586 C   0  0  0  0  0  0  0  0  0  0  0  0
    2.5483   -1.3122   -1.0485 H   0  0  0  0  0  0  0  0  0  0  0  0
    3.3641    0.6121   -1.5863 C   0  0  0  0  0  0  0  0  0  0  0  0
    4.3856    0.2598   -1.6160 H   0  0  0  0  0  0  0  0  0  0  0  0
    3.0763    1.9572   -1.8736 C   0  0  0  0  0  0  0  0  0  0  0  0
    3.8764    2.6401   -2.1231 H   0  0  0  0  0  0  0  0  0  0  0  0
    1.7477    2.4173   -1.8304 C   0  0  0  0  0  0  0  0  0  0  0  0
    1.5269    3.4525   -2.0459 H   0  0  0  0  0  0  0  0  0  0  0  0
    0.7079    1.5302   -1.4997 C   0  0  0  0  0  0  0  0  0  0  0  0
   -0.3135    1.8862   -1.4635 H   0  0  0  0  0  0  0  0  0  0  0  0
   -1.2168    1.1047    0.4313 C   0  0  0  0  0  0  0  0  0  0  0  0
   -2.0890    1.6186   -0.2704 O   0  0  0  0  0  0  0  0  0  0  0  0
   -0.4674    1.8182    1.2813 N   0  0  0  0  0  0  0  0  0  0  0  0
    0.2640    1.3348    1.7800 H   0  0  0  0  0  0  0  0  0  0  0  0
   -0.5889    3.2615    1.4722 C   0  0  0  0  0  0  0  0  0  0  0  0
   -1.6291    3.5206    1.6805 H   0  0  0  0  0  0  0  0  0  0  0  0
    0.0359    3.5855    2.3049 H   0  0  0  0  0  0  0  0  0  0  0  0
   -0.2760    3.7797    0.5637 H   0  0  0  0  0  0  0  0  0  0  0  0
  5  6  2  0  0  0  0
  5  7  1  0  0  0  0
  2  3  1  0  0  0  0
  2  4  1  0  0  0  0
  2  5  1  0  0  0  0
  1  2  1  0  0  0  0
 25 26  2  0  0  0  0
 25 27  1  0  0  0  0
 23 24  1  0  0  0  0
 21 22  1  0  0  0  0
 21 23  2  0  0  0  0
 19 20  1  0  0  0  0
 19 21  1  0  0  0  0
 17 18  1  0  0  0  0
 17 19  2  0  0  0  0
 15 16  1  0  0  0  0
 15 17  1  0  0  0  0
 14 15  2  0  0  0  0
 14 23  1  0  0  0  0
 11 12  1  0  0  0  0
 11 13  1  0  0  0  0
 11 14  1  0  0  0  0
  9 10  1  0  0  0  0
  9 11  1  0  0  0  0
  9 25  1  0  0  0  0
  7  8  1  0  0  0  0
  7  9  1  0  0  0  0
 29 30  1  0  0  0  0
 29 31  1  0  0  0  0
 29 32  1  0  0  0  0
 27 28  1  0  0  0  0
 27 29  1  0  0  0  0
M  END
$$$$
default_name
  -OEChem-02102213163D

 32 32  0     1  0  0  0  0  0999 V2000
   -3.8405   -3.7518    1.6252 H   0  0  0  0  0  0  0  0  0  0  0  0
   -3.7965   -2.8768    0.9782 C   0  0  0  0  0  0  0  0  0  0  0  0
   -4.5465   -2.1527    1.2902 H   0  0  0  0  0  0  0  0  0  0  0  0
   -3.9745   -3.1748   -0.0538 H   0  0  0  0  0  0  0  0  0  0  0  0
   -2.4245   -2.2537    1.0882 C   0  0  0  0  0  0  0  0  0  0  0  0
   -1.5805   -2.7478    1.8242 O   0  0  0  0  0  0  0  0  0  0  0  0
   -2.2045   -1.1637    0.3562 N   0  0  0  0  0  0  0  0  0  0  0  0
   -2.9595   -0.7907   -0.2008 H   0  0  0  0  0  0  0  0  0  0  0  0
   -0.9485   -0.4087    0.3482 C   0  0  1  0  0  0  0  0  0  0  0  0
   -0.3666   -0.6914    1.2269 H   0  0  0  0  0  0  0  0  0  0  0  0
   -0.1405   -0.7797   -0.9072 C   0  0  0  0  0  0  0  0  0  0  0  0
    0.2868   -1.7745   -0.7734 H   0  0  0  0  0  0  0  0  0  0  0  0
   -0.8166   -0.8259   -1.7622 H   0  0  0  0  0  0  0  0  0  0  0  0
    0.9922    0.1808   -1.2160 C   0  0  0  0  0  0  0  0  0  0  0  0
    2.2648   -0.3070   -1.5685 C   0  0  0  0  0  0  0  0  0  0  0  0
    2.4487   -1.3717   -1.5991 H   0  0  0  0  0  0  0  0  0  0  0  0
    3.2992    0.5897   -1.8937 C   0  0  0  0  0  0  0  0  0  0  0  0
    4.2764    0.2131   -2.1617 H   0  0  0  0  0  0  0  0  0  0  0  0
    3.0628    1.9747   -1.8690 C   0  0  0  0  0  0  0  0  0  0  0  0
    3.8582    2.6637   -2.1165 H   0  0  0  0  0  0  0  0  0  0  0  0
    1.7926    2.4655   -1.5156 C   0  0  0  0  0  0  0  0  0  0  0  0
    1.6122    3.5302   -1.4913 H   0  0  0  0  0  0  0  0  0  0  0  0
    0.7600    1.5692   -1.1875 C   0  0  0  0  0  0  0  0  0  0  0  0
   -0.2157    1.9481   -0.9126 H   0  0  0  0  0  0  0  0  0  0  0  0
   -1.2168    1.1047    0.4313 C   0  0  0  0  0  0  0  0  0  0  0  0
   -2.0890    1.6186   -0.2704 O   0  0  0  0  0  0  0  0  0  0  0  0
   -0.4674    1.8182    1.2813 N   0  0  0  0  0  0  0  0  0  0  0  0
    0.2640    1.3348    1.7800 H   0  0  0  0  0  0  0  0  0  0  0  0
   -0.5889    3.2615    1.4722 C   0  0  0  0  0  0  0  0  0  0  0  0
   -1.6291    3.5206    1.6805 H   0  0  0  0  0  0  0  0  0  0  0  0
    0.0359    3.5855    2.3049 H   0  0  0  0  0  0  0  0  0  0  0  0
   -0.2760    3.7797    0.5637 H   0  0  0  0  0  0  0  0  0  0  0  0
  5  6  2  0  0  0  0
  5  7  1  0  0  0  0
  2  3  1  0  0  0  0
  2  4  1  0  0  0  0
  2  5  1  0  0  0  0
  1  2  1  0  0  0  0
 25 26  2  0  0  0  0
 25 27  1  0  0  0  0
 23 24  1  0  0  0  0
 21 22  1  0  0  0  0
 21 23  2  0  0  0  0
 19 20  1  0  0  0  0
 19 21  1  0  0  0  0
 17 18  1  0  0  0  0
 17 19  2  0  0  0  0
 15 16  1  0  0  0  0
 15 17  1  0  0  0  0
 14 15  2  0  0  0  0
 14 23  1  0  0  0  0
 11 12  1  0  0  0  0
 11 13  1  0  0  0  0
 11 14  1  0  0  0  0
  9 10  1  0  0  0  0
  9 11  1  0  0  0  0
  9 25  1  0  0  0  0
  7  8  1  0  0  0  0
  7  9  1  0  0  0  0
 29 30  1  0  0  0  0
 29 31  1  0  0  0  0
 29 32  1  0  0  0  0
 27 28  1  0  0  0  0
 27 29  1  0  0  0  0
M  END
$$$$
default_name
  -OEChem-02102213163D

 32 32  0     1  0  0  0  0  0999 V2000
   -3.8405   -3.7518    1.6252 H   0  0  0  0  0  0  0  0  0  0  0  0
   -3.7965   -2.8768    0.9782 C   0  0  0  0  0  0  0  0  0  0  0  0
   -4.5465   -2.1527    1.2902 H   0  0  0  0  0  0  0  0  0  0  0  0
   -3.9745   -3.1748   -0.0538 H   0  0  0  0  0  0  0  0  0  0  0  0
   -2.4245   -2.2537    1.0882 C   0  0  0  0  0  0  0  0  0  0  0  0
   -1.5805   -2.7478    1.8242 O   0  0  0  0  0  0  0  0  0  0  0  0
   -2.2045   -1.1637    0.3562 N   0  0  0  0  0  0  0  0  0  0  0  0
   -2.9595   -0.7907   -0.2008 H   0  0  0  0  0  0  0  0  0  0  0  0
   -0.9485   -0.4087    0.3482 C   0  0  1  0  0  0  0  0  0  0  0  0
   -0.3666   -0.6914    1.2269 H   0  0  0  0  0  0  0  0  0  0  0  0
   -0.1405   -0.7797   -0.9072 C   0  0  0  0  0  0  0  0  0  0  0  0
    0.2868   -1.7745   -0.7734 H   0  0  0  0  0  0  0  0  0  0  0  0
   -0.8166   -0.8259   -1.7622 H   0  0  0  0  0  0  0  0  0  0  0  0
    0.9922    0.1808   -1.2160 C   0  0  0  0  0  0  0  0  0  0  0  0
    2.1561   -0.2739   -1.8643 C   0  0  0  0  0  0  0  0  0  0  0  0
    2.2591   -1.3176   -2.1260 H   0  0  0  0  0  0  0  0  0  0  0  0
    3.1850    0.6310   -2.1844 C   0  0  0  0  0  0  0  0  0  0  0  0
    4.0791    0.2793   -2.6799 H   0  0  0  0  0  0  0  0  0  0  0  0
    3.0514    1.9914   -1.8589 C   0  0  0  0  0  0  0  0  0  0  0  0
    3.8429    2.6861   -2.1027 H   0  0  0  0  0  0  0  0  0  0  0  0
    1.8902    2.4488   -1.2096 C   0  0  0  0  0  0  0  0  0  0  0  0
    1.7897    3.4935   -0.9545 H   0  0  0  0  0  0  0  0  0  0  0  0
    0.8636    1.5437   -0.8869 C   0  0  0  0  0  0  0  0  0  0  0  0
   -0.0278    1.8962   -0.3844 H   0  0  0  0  0  0  0  0  0  0  0  0
   -1.2168    1.1047    0.4313 C   0  0  0  0  0  0  0  0  0  0  0  0
   -2.0890    1.6186   -0.2704 O   0  0  0  0  0  0  0  0  0  0  0  0
   -0.4674    1.8182    1.2813 N   0  0  0  0  0  0  0  0  0  0  0  0
    0.2640    1.3348    1.7800 H   0  0  0  0  0  0  0  0  0  0  0  0
   -0.5889    3.2615    1.4722 C   0  0  0  0  0  0  0  0  0  0  0  0
   -1.6291    3.5206    1.6805 H   0  0  0  0  0  0  0  0  0  0  0  0
    0.0359    3.5855    2.3049 H   0  0  0  0  0  0  0  0  0  0  0  0
   -0.2760    3.7797    0.5637 H   0  0  0  0  0  0  0  0  0  0  0  0
  5  6  2  0  0  0  0
  5  7  1  0  0  0  0
  2  3  1  0  0  0  0
  2  4  1  0  0  0  0
  2  5  1  0  0  0  0
  1  2  1  0  0  0  0
 25 26  2  0  0  0  0
 25 27  1  0  0  0  0
 23 24  1  0  0  0  0
 21 22  1  0  0  0  0
 21 23  2  0  0  0  0
 19 20  1  0  0  0  0
 19 21  1  0  0  0  0
 17 18  1  0  0  0  0
 17 19  2  0  0  0  0
 15 16  1  0  0  0  0
 15 17  1  0  0  0  0
 14 15  2  0  0  0  0
 14 23  1  0  0  0  0
 11 12  1  0  0  0  0
 11 13  1  0  0  0  0
 11 14  1  0  0  0  0
  9 10  1  0  0  0  0
  9 11  1  0  0  0  0
  9 25  1  0  0  0  0
  7  8  1  0  0  0  0
  7  9  1  0  0  0  0
 29 30  1  0  0  0  0
 29 31  1  0  0  0  0
 29 32  1  0  0  0  0
 27 28  1  0  0  0  0
 27 29  1  0  0  0  0
M  END
$$$$
default_name
  -OEChem-02102213163D

 32 32  0     1  0  0  0  0  0999 V2000
   -3.8405   -3.7518    1.6252 H   0  0  0  0  0  0  0  0  0  0  0  0
   -3.7965   -2.8768    0.9782 C   0  0  0  0  0  0  0  0  0  0  0  0
   -4.5465   -2.1527    1.2902 H   0  0  0  0  0  0  0  0  0  0  0  0
   -3.9745   -3.1748   -0.0538 H   0  0  0  0  0  0  0  0  0  0  0  0
   -2.4245   -2.2537    1.0882 C   0  0  0  0  0  0  0  0  0  0  0  0
   -1.5805   -2.7478    1.8242 O   0  0  0  0  0  0  0  0  0  0  0  0
   -2.2045   -1.1637    0.3562 N   0  0  0  0  0  0  0  0  0  0  0  0
   -2.9595   -0.7907   -0.2008 H   0  0  0  0  0  0  0  0  0  0  0  0
   -0.9485   -0.4087    0.3482 C   0  0  1  0  0  0  0  0  0  0  0  0
   -0.3666   -0.6914    1.2269 H   0  0  0  0  0  0  0  0  0  0  0  0
   -0.1405   -0.7797   -0.9072 C   0  0  0  0  0  0  0  0  0  0  0  0
    0.2868   -1.7745   -0.7734 H   0  0  0  0  0  0  0  0  0  0  0  0
   -0.8166   -0.8259   -1.7622 H   0  0  0  0  0  0  0  0  0  0  0  0
    0.9922    0.1808   -1.2160 C   0  0  0  0  0  0  0  0  0  0  0  0
    2.0044   -0.1791   -2.1258 C   0  0  0  0  0  0  0  0  0  0  0  0
    1.9925   -1.1534   -2.5935 H   0  0  0  0  0  0  0  0  0  0  0  0
    3.0292    0.7330   -2.4385 C   0  0  0  0  0  0  0  0  0  0  0  0
    3.8070    0.4537   -3.1354 H   0  0  0  0  0  0  0  0  0  0  0  0
    3.0429    2.0062   -1.8440 C   0  0  0  0  0  0  0  0  0  0  0  0
    3.8316    2.7060   -2.0825 H   0  0  0  0  0  0  0  0  0  0  0  0
    2.0337    2.3684   -0.9333 C   0  0  0  0  0  0  0  0  0  0  0  0
    2.0471    3.3450   -0.4721 H   0  0  0  0  0  0  0  0  0  0  0  0
    1.0115    1.4555   -0.6185 C   0  0  0  0  0  0  0  0  0  0  0  0
    0.2376    1.7342    0.0848 H   0  0  0  0  0  0  0  0  0  0  0  0
   -1.2168    1.1047    0.4313 C   0  0  0  0  0  0  0  0  0  0  0  0
   -2.0890    1.6186   -0.2704 O   0  0  0  0  0  0  0  0  0  0  0  0
   -0.4674    1.8182    1.2813 N   0  0  0  0  0  0  0  0  0  0  0  0
    0.2640    1.3348    1.7800 H   0  0  0  0  0  0  0  0  0  0  0  0
   -0.5889    3.2615    1.4722 C   0  0  0  0  0  0  0  0  0  0  0  0
   -1.6291    3.5206    1.6805 H   0  0  0  0  0  0  0  0  0  0  0  0
    0.0359    3.5855    2.3049 H   0  0  0  0  0  0  0  0  0  0  0  0
   -0.2760    3.7797    0.5637 H   0  0  0  0  0  0  0  0  0  0  0  0
  5  6  2  0  0  0  0
  5  7  1  0  0  0  0
  2  3  1  0  0  0  0
  2  4  1  0  0  0  0
  2  5  1  0  0  0  0
  1  2  1  0  0  0  0
 25 26  2  0  0  0  0
 25 27  1  0  0  0  0
 23 24  1  0  0  0  0
 21 22  1  0  0  0  0
 21 23  2  0  0  0  0
 19 20  1  0  0  0  0
 19 21  1  0  0  0  0
 17 18  1  0  0  0  0
 17 19  2  0  0  0  0
 15 16  1  0  0  0  0
 15 17  1  0  0  0  0
 14 15  2  0  0  0  0
 14 23  1  0  0  0  0
 11 12  1  0  0  0  0
 11 13  1  0  0  0  0
 11 14  1  0  0  0  0
  9 10  1  0  0  0  0
  9 11  1  0  0  0  0
  9 25  1  0  0  0  0
  7  8  1  0  0  0  0
  7  9  1  0  0  0  0
 29 30  1  0  0  0  0
 29 31  1  0  0  0  0
 29 32  1  0  0  0  0
 27 28  1  0  0  0  0
 27 29  1  0  0  0  0
M  END
$$$$
