
  -OEChem-03222214073D

 32 32  0     1  0  0  0  0  0999 V2000
   -3.3113   -4.2693    0.8233 H   0  0  0  0  0  0  0  0  0  0  0  0
   -3.1745   -3.3862    0.1926 C   0  0  0  0  0  0  0  0  0  0  0  0
   -3.9787   -2.6769    0.4017 H   0  0  0  0  0  0  0  0  0  0  0  0
   -3.2280   -3.6925   -0.8550 H   0  0  0  0  0  0  0  0  0  0  0  0
   -1.8289   -2.7457    0.4782 C   0  0  0  0  0  0  0  0  0  0  0  0
   -1.1045   -3.2233    1.3313 O   0  0  0  0  0  0  0  0  0  0  0  0
   -1.4325   -1.6395   -0.2501 N   0  0  0  0  0  0  0  0  0  0  0  0
   -2.0488   -1.3465   -1.0019 H   0  0  0  0  0  0  0  0  0  0  0  0
   -0.1228   -0.9668   -0.1142 C   0  0  1  0  0  0  0  0  0  0  0  0
    0.6884   -1.6657   -0.3453 H   0  0  0  0  0  0  0  0  0  0  0  0
   -0.1492    0.1766   -1.1552 C   0  0  0  0  0  0  0  0  0  0  0  0
   -0.3249   -0.2752   -2.1369 H   0  0  0  0  0  0  0  0  0  0  0  0
   -1.0082    0.8176   -0.9312 H   0  0  0  0  0  0  0  0  0  0  0  0
    1.0619    1.0840   -1.2955 C   0  0  0  0  0  0  0  0  0  0  0  0
    0.9867    2.1114   -2.2517 C   0  0  0  0  0  0  0  0  0  0  0  0
    0.0671    2.2681   -2.8072 H   0  0  0  0  0  0  0  0  0  0  0  0
    2.0736    2.9570   -2.4966 C   0  0  0  0  0  0  0  0  0  0  0  0
    1.9874    3.7574   -3.2252 H   0  0  0  0  0  0  0  0  0  0  0  0
    3.2727    2.7685   -1.8075 C   0  0  0  0  0  0  0  0  0  0  0  0
    4.1196    3.4225   -1.9930 H   0  0  0  0  0  0  0  0  0  0  0  0
    3.3843    1.7225   -0.8899 C   0  0  0  0  0  0  0  0  0  0  0  0
    4.3211    1.5540   -0.3663 H   0  0  0  0  0  0  0  0  0  0  0  0
    2.2958    0.8775   -0.6496 C   0  0  0  0  0  0  0  0  0  0  0  0
    2.4549    0.0519    0.0327 H   0  0  0  0  0  0  0  0  0  0  0  0
    0.0831   -0.4353    1.3297 C   0  0  0  0  0  0  0  0  0  0  0  0
    1.1358   -0.6135    1.9283 O   0  0  0  0  0  0  0  0  0  0  0  0
   -0.9428    0.2372    1.9718 N   0  0  0  0  0  0  0  0  0  0  0  0
   -1.8437    0.2399    1.5072 H   0  0  0  0  0  0  0  0  0  0  0  0
   -0.8713    0.6423    3.3698 C   0  0  0  0  0  0  0  0  0  0  0  0
   -0.0236    1.3167    3.5301 H   0  0  0  0  0  0  0  0  0  0  0  0
   -1.7871    1.1656    3.6602 H   0  0  0  0  0  0  0  0  0  0  0  0
   -0.7517   -0.2342    4.0153 H   0  0  0  0  0  0  0  0  0  0  0  0
  1  2  1  0  0  0  0
  2  3  1  0  0  0  0
  2  4  1  0  0  0  0
  2  5  1  0  0  0  0
  5  6  2  0  0  0  0
  5  7  1  0  0  0  0
  7  8  1  0  0  0  0
  7  9  1  0  0  0  0
  9 10  1  0  0  0  0
  9 11  1  0  0  0  0
  9 25  1  0  0  0  0
 11 12  1  0  0  0  0
 11 13  1  0  0  0  0
 11 14  1  0  0  0  0
 14 15  1  0  0  0  0
 14 23  2  0  0  0  0
 15 16  1  0  0  0  0
 15 17  2  0  0  0  0
 17 18  1  0  0  0  0
 17 19  1  0  0  0  0
 19 20  1  0  0  0  0
 19 21  2  0  0  0  0
 21 22  1  0  0  0  0
 21 23  1  0  0  0  0
 23 24  1  0  0  0  0
 25 26  2  0  0  0  0
 25 27  1  0  0  0  0
 27 28  1  0  0  0  0
 27 29  1  0  0  0  0
 29 30  1  0  0  0  0
 29 31  1  0  0  0  0
 29 32  1  0  0  0  0
M  END
$$$$

  -OEChem-03222214073D

 32 32  0     1  0  0  0  0  0999 V2000
   -3.2867   -4.3130    0.8315 H   0  0  0  0  0  0  0  0  0  0  0  0
   -3.1775   -3.4203    0.2088 C   0  0  0  0  0  0  0  0  0  0  0  0
   -3.9858   -2.7247    0.4468 H   0  0  0  0  0  0  0  0  0  0  0  0
   -3.2537   -3.7139   -0.8411 H   0  0  0  0  0  0  0  0  0  0  0  0
   -1.8344   -2.7640    0.4694 C   0  0  0  0  0  0  0  0  0  0  0  0
   -1.0922   -3.2239    1.3172 O   0  0  0  0  0  0  0  0  0  0  0  0
   -1.4649   -1.6539   -0.2659 N   0  0  0  0  0  0  0  0  0  0  0  0
   -2.0929   -1.3744   -1.0131 H   0  0  0  0  0  0  0  0  0  0  0  0
   -0.1624   -0.9663   -0.1503 C   0  0  1  0  0  0  0  0  0  0  0  0
    0.6407   -1.6714   -0.3894 H   0  0  0  0  0  0  0  0  0  0  0  0
   -0.1893    0.1663   -1.2001 C   0  0  0  0  0  0  0  0  0  0  0  0
   -0.3573   -0.2847   -2.1833 H   0  0  0  0  0  0  0  0  0  0  0  0
   -1.0475    0.8105   -0.9828 H   0  0  0  0  0  0  0  0  0  0  0  0
    1.0374    1.0528   -1.3149 C   0  0  0  0  0  0  0  0  0  0  0  0
    0.9121    2.2635   -2.0162 C   0  0  0  0  0  0  0  0  0  0  0  0
   -0.0521    2.5620   -2.4157 H   0  0  0  0  0  0  0  0  0  0  0  0
    2.0126    3.1059   -2.2058 C   0  0  0  0  0  0  0  0  0  0  0  0
    1.8942    4.0451   -2.7382 H   0  0  0  0  0  0  0  0  0  0  0  0
    3.2657    2.7381   -1.7115 C   0  0  0  0  0  0  0  0  0  0  0  0
    4.1222    3.3907   -1.8529 H   0  0  0  0  0  0  0  0  0  0  0  0
    3.4160    1.5222   -1.0412 C   0  0  0  0  0  0  0  0  0  0  0  0
    4.3899    1.2255   -0.6627 H   0  0  0  0  0  0  0  0  0  0  0  0
    2.3147    0.6801   -0.8564 C   0  0  0  0  0  0  0  0  0  0  0  0
    2.4811   -0.2647   -0.3493 H   0  0  0  0  0  0  0  0  0  0  0  0
    0.0944   -0.4188    1.2771 C   0  0  0  0  0  0  0  0  0  0  0  0
    1.1897   -0.5431    1.8096 O   0  0  0  0  0  0  0  0  0  0  0  0
   -0.9082    0.2549    1.9531 N   0  0  0  0  0  0  0  0  0  0  0  0
   -1.8330    0.2278    1.5387 H   0  0  0  0  0  0  0  0  0  0  0  0
   -0.7665    0.7083    3.3307 C   0  0  0  0  0  0  0  0  0  0  0  0
    0.0645    1.4162    3.4173 H   0  0  0  0  0  0  0  0  0  0  0  0
   -1.6815    1.2089    3.6606 H   0  0  0  0  0  0  0  0  0  0  0  0
   -0.5764   -0.1417    3.9946 H   0  0  0  0  0  0  0  0  0  0  0  0
  1  2  1  0  0  0  0
  2  3  1  0  0  0  0
  2  4  1  0  0  0  0
  2  5  1  0  0  0  0
  5  6  2  0  0  0  0
  5  7  1  0  0  0  0
  7  8  1  0  0  0  0
  7  9  1  0  0  0  0
  9 10  1  0  0  0  0
  9 11  1  0  0  0  0
  9 25  1  0  0  0  0
 11 12  1  0  0  0  0
 11 13  1  0  0  0  0
 11 14  1  0  0  0  0
 14 15  1  0  0  0  0
 14 23  2  0  0  0  0
 15 16  1  0  0  0  0
 15 17  2  0  0  0  0
 17 18  1  0  0  0  0
 17 19  1  0  0  0  0
 19 20  1  0  0  0  0
 19 21  2  0  0  0  0
 21 22  1  0  0  0  0
 21 23  1  0  0  0  0
 23 24  1  0  0  0  0
 25 26  2  0  0  0  0
 25 27  1  0  0  0  0
 27 28  1  0  0  0  0
 27 29  1  0  0  0  0
 29 30  1  0  0  0  0
 29 31  1  0  0  0  0
 29 32  1  0  0  0  0
M  END
$$$$

  -OEChem-03222214073D

 32 32  0     1  0  0  0  0  0999 V2000
   -3.2469   -4.3513    0.8528 H   0  0  0  0  0  0  0  0  0  0  0  0
   -3.1661   -3.4597    0.2244 C   0  0  0  0  0  0  0  0  0  0  0  0
   -3.9871   -2.7817    0.4696 H   0  0  0  0  0  0  0  0  0  0  0  0
   -3.2489   -3.7605   -0.8228 H   0  0  0  0  0  0  0  0  0  0  0  0
   -1.8348   -2.7722    0.4643 C   0  0  0  0  0  0  0  0  0  0  0  0
   -1.0719   -3.2115    1.3049 O   0  0  0  0  0  0  0  0  0  0  0  0
   -1.4974   -1.6567   -0.2784 N   0  0  0  0  0  0  0  0  0  0  0  0
   -2.1387   -1.3922   -1.0199 H   0  0  0  0  0  0  0  0  0  0  0  0
   -0.2014   -0.9544   -0.1870 C   0  0  1  0  0  0  0  0  0  0  0  0
    0.5937   -1.6652   -0.4342 H   0  0  0  0  0  0  0  0  0  0  0  0
   -0.2337    0.1678   -1.2458 C   0  0  0  0  0  0  0  0  0  0  0  0
   -0.3964   -0.2860   -2.2283 H   0  0  0  0  0  0  0  0  0  0  0  0
   -1.0929    0.8129   -1.0346 H   0  0  0  0  0  0  0  0  0  0  0  0
    1.0061    1.0365   -1.3423 C   0  0  0  0  0  0  0  0  0  0  0  0
    0.8665    2.3733   -1.7503 C   0  0  0  0  0  0  0  0  0  0  0  0
   -0.1177    2.7790   -1.9631 H   0  0  0  0  0  0  0  0  0  0  0  0
    1.9841    3.2035   -1.8866 C   0  0  0  0  0  0  0  0  0  0  0  0
    1.8596    4.2373   -2.1944 H   0  0  0  0  0  0  0  0  0  0  0  0
    3.2619    2.7041   -1.6247 C   0  0  0  0  0  0  0  0  0  0  0  0
    4.1308    3.3479   -1.7235 H   0  0  0  0  0  0  0  0  0  0  0  0
    3.4191    1.3726   -1.2337 C   0  0  0  0  0  0  0  0  0  0  0  0
    4.4098    0.9795   -1.0257 H   0  0  0  0  0  0  0  0  0  0  0  0
    2.3012    0.5425   -1.1022 C   0  0  0  0  0  0  0  0  0  0  0  0
    2.4610   -0.4860   -0.7945 H   0  0  0  0  0  0  0  0  0  0  0  0
    0.1041   -0.3959    1.2239 C   0  0  0  0  0  0  0  0  0  0  0  0
    1.2295   -0.4872    1.6969 O   0  0  0  0  0  0  0  0  0  0  0  0
   -0.8756    0.2759    1.9338 N   0  0  0  0  0  0  0  0  0  0  0  0
   -1.8185    0.2253    1.5650 H   0  0  0  0  0  0  0  0  0  0  0  0
   -0.6751    0.7533    3.2958 C   0  0  0  0  0  0  0  0  0  0  0  0
    0.1580    1.4632    3.3337 H   0  0  0  0  0  0  0  0  0  0  0  0
   -1.5758    1.2587    3.6568 H   0  0  0  0  0  0  0  0  0  0  0  0
   -0.4544   -0.0850    3.9650 H   0  0  0  0  0  0  0  0  0  0  0  0
  1  2  1  0  0  0  0
  2  3  1  0  0  0  0
  2  4  1  0  0  0  0
  2  5  1  0  0  0  0
  5  6  2  0  0  0  0
  5  7  1  0  0  0  0
  7  8  1  0  0  0  0
  7  9  1  0  0  0  0
  9 10  1  0  0  0  0
  9 11  1  0  0  0  0
  9 25  1  0  0  0  0
 11 12  1  0  0  0  0
 11 13  1  0  0  0  0
 11 14  1  0  0  0  0
 14 15  1  0  0  0  0
 14 23  2  0  0  0  0
 15 16  1  0  0  0  0
 15 17  2  0  0  0  0
 17 18  1  0  0  0  0
 17 19  1  0  0  0  0
 19 20  1  0  0  0  0
 19 21  2  0  0  0  0
 21 22  1  0  0  0  0
 21 23  1  0  0  0  0
 23 24  1  0  0  0  0
 25 26  2  0  0  0  0
 25 27  1  0  0  0  0
 27 28  1  0  0  0  0
 27 29  1  0  0  0  0
 29 30  1  0  0  0  0
 29 31  1  0  0  0  0
 29 32  1  0  0  0  0
M  END
$$$$

  -OEChem-03222214073D

 32 32  0     1  0  0  0  0  0999 V2000
   -3.2098   -4.3767    0.8629 H   0  0  0  0  0  0  0  0  0  0  0  0
   -3.1428   -3.4880    0.2286 C   0  0  0  0  0  0  0  0  0  0  0  0
   -3.9749   -2.8217    0.4678 H   0  0  0  0  0  0  0  0  0  0  0  0
   -3.2193   -3.7968   -0.8167 H   0  0  0  0  0  0  0  0  0  0  0  0
   -1.8235   -2.7767    0.4652 C   0  0  0  0  0  0  0  0  0  0  0  0
   -1.0517   -3.2005    1.3055 O   0  0  0  0  0  0  0  0  0  0  0  0
   -1.5065   -1.6588   -0.2826 N   0  0  0  0  0  0  0  0  0  0  0  0
   -2.1536   -1.4090   -1.0242 H   0  0  0  0  0  0  0  0  0  0  0  0
   -0.2170   -0.9434   -0.2085 C   0  0  1  0  0  0  0  0  0  0  0  0
    0.5819   -1.6477   -0.4625 H   0  0  0  0  0  0  0  0  0  0  0  0
   -0.2689    0.1757   -1.2681 C   0  0  0  0  0  0  0  0  0  0  0  0
   -0.4317   -0.2760   -2.2517 H   0  0  0  0  0  0  0  0  0  0  0  0
   -1.1299    0.8173   -1.0548 H   0  0  0  0  0  0  0  0  0  0  0  0
    0.9772    1.0327   -1.3498 C   0  0  0  0  0  0  0  0  0  0  0  0
    0.8579    2.4298   -1.4326 C   0  0  0  0  0  0  0  0  0  0  0  0
   -0.1210    2.8981   -1.4110 H   0  0  0  0  0  0  0  0  0  0  0  0
    1.9935    3.2400   -1.5407 C   0  0  0  0  0  0  0  0  0  0  0  0
    1.8885    4.3192   -1.5973 H   0  0  0  0  0  0  0  0  0  0  0  0
    3.2645    2.6612   -1.5734 C   0  0  0  0  0  0  0  0  0  0  0  0
    4.1476    3.2882   -1.6520 H   0  0  0  0  0  0  0  0  0  0  0  0
    3.3973    1.2723   -1.5011 C   0  0  0  0  0  0  0  0  0  0  0  0
    4.3839    0.8189   -1.5202 H   0  0  0  0  0  0  0  0  0  0  0  0
    2.2611    0.4632   -1.3963 C   0  0  0  0  0  0  0  0  0  0  0  0
    2.3932   -0.6124   -1.3389 H   0  0  0  0  0  0  0  0  0  0  0  0
    0.1112   -0.3759    1.1925 C   0  0  0  0  0  0  0  0  0  0  0  0
    1.2511   -0.4376    1.6339 O   0  0  0  0  0  0  0  0  0  0  0  0
   -0.8608    0.2910    1.9174 N   0  0  0  0  0  0  0  0  0  0  0  0
   -1.8123    0.2170    1.5755 H   0  0  0  0  0  0  0  0  0  0  0  0
   -0.6325    0.7929    3.2662 C   0  0  0  0  0  0  0  0  0  0  0  0
    0.1951    1.5102    3.2731 H   0  0  0  0  0  0  0  0  0  0  0  0
   -1.5285    1.2979    3.6393 H   0  0  0  0  0  0  0  0  0  0  0  0
   -0.3889   -0.0321    3.9441 H   0  0  0  0  0  0  0  0  0  0  0  0
  1  2  1  0  0  0  0
  2  3  1  0  0  0  0
  2  4  1  0  0  0  0
  2  5  1  0  0  0  0
  5  6  2  0  0  0  0
  5  7  1  0  0  0  0
  7  8  1  0  0  0  0
  7  9  1  0  0  0  0
  9 10  1  0  0  0  0
  9 11  1  0  0  0  0
  9 25  1  0  0  0  0
 11 12  1  0  0  0  0
 11 13  1  0  0  0  0
 11 14  1  0  0  0  0
 14 15  1  0  0  0  0
 14 23  2  0  0  0  0
 15 16  1  0  0  0  0
 15 17  2  0  0  0  0
 17 18  1  0  0  0  0
 17 19  1  0  0  0  0
 19 20  1  0  0  0  0
 19 21  2  0  0  0  0
 21 22  1  0  0  0  0
 21 23  1  0  0  0  0
 23 24  1  0  0  0  0
 25 26  2  0  0  0  0
 25 27  1  0  0  0  0
 27 28  1  0  0  0  0
 27 29  1  0  0  0  0
 29 30  1  0  0  0  0
 29 31  1  0  0  0  0
 29 32  1  0  0  0  0
M  END
$$$$

  -OEChem-03222214073D

 32 32  0     1  0  0  0  0  0999 V2000
   -3.1707   -4.3841    0.8888 H   0  0  0  0  0  0  0  0  0  0  0  0
   -3.1179   -3.4999    0.2471 C   0  0  0  0  0  0  0  0  0  0  0  0
   -3.9525   -2.8384    0.4908 H   0  0  0  0  0  0  0  0  0  0  0  0
   -3.2043   -3.8176   -0.7947 H   0  0  0  0  0  0  0  0  0  0  0  0
   -1.8016   -2.7769    0.4632 C   0  0  0  0  0  0  0  0  0  0  0  0
   -1.0170   -3.1885    1.2977 O   0  0  0  0  0  0  0  0  0  0  0  0
   -1.5053   -1.6582   -0.2915 N   0  0  0  0  0  0  0  0  0  0  0  0
   -2.1641   -1.4179   -1.0259 H   0  0  0  0  0  0  0  0  0  0  0  0
   -0.2222   -0.9296   -0.2354 C   0  0  1  0  0  0  0  0  0  0  0  0
    0.5851   -1.6213   -0.4986 H   0  0  0  0  0  0  0  0  0  0  0  0
   -0.2965    0.1887   -1.2927 C   0  0  0  0  0  0  0  0  0  0  0  0
   -0.4642   -0.2590   -2.2773 H   0  0  0  0  0  0  0  0  0  0  0  0
   -1.1564    0.8298   -1.0739 H   0  0  0  0  0  0  0  0  0  0  0  0
    0.9545    1.0340   -1.3622 C   0  0  0  0  0  0  0  0  0  0  0  0
    0.8941    2.4151   -1.1176 C   0  0  0  0  0  0  0  0  0  0  0  0
   -0.0482    2.8849   -0.8535 H   0  0  0  0  0  0  0  0  0  0  0  0
    2.0468    3.2038   -1.2012 C   0  0  0  0  0  0  0  0  0  0  0  0
    1.9909    4.2701   -1.0040 H   0  0  0  0  0  0  0  0  0  0  0  0
    3.2721    2.6190   -1.5329 C   0  0  0  0  0  0  0  0  0  0  0  0
    4.1688    3.2287   -1.5915 H   0  0  0  0  0  0  0  0  0  0  0  0
    3.3426    1.2457   -1.7829 C   0  0  0  0  0  0  0  0  0  0  0  0
    4.2942    0.7874   -2.0351 H   0  0  0  0  0  0  0  0  0  0  0  0
    2.1891    0.4586   -1.7010 C   0  0  0  0  0  0  0  0  0  0  0  0
    2.2629   -0.6070   -1.8942 H   0  0  0  0  0  0  0  0  0  0  0  0
    0.1157   -0.3559    1.1610 C   0  0  0  0  0  0  0  0  0  0  0  0
    1.2630   -0.3932    1.5855 O   0  0  0  0  0  0  0  0  0  0  0  0
   -0.8564    0.3021    1.8947 N   0  0  0  0  0  0  0  0  0  0  0  0
   -1.8124    0.1960    1.5745 H   0  0  0  0  0  0  0  0  0  0  0  0
   -0.6174    0.8105    3.2391 C   0  0  0  0  0  0  0  0  0  0  0  0
    0.2059    1.5327    3.2344 H   0  0  0  0  0  0  0  0  0  0  0  0
   -1.5125    1.3115    3.6195 H   0  0  0  0  0  0  0  0  0  0  0  0
   -0.3627   -0.0107    3.9173 H   0  0  0  0  0  0  0  0  0  0  0  0
  1  2  1  0  0  0  0
  2  3  1  0  0  0  0
  2  4  1  0  0  0  0
  2  5  1  0  0  0  0
  5  6  2  0  0  0  0
  5  7  1  0  0  0  0
  7  8  1  0  0  0  0
  7  9  1  0  0  0  0
  9 10  1  0  0  0  0
  9 11  1  0  0  0  0
  9 25  1  0  0  0  0
 11 12  1  0  0  0  0
 11 13  1  0  0  0  0
 11 14  1  0  0  0  0
 14 15  1  0  0  0  0
 14 23  2  0  0  0  0
 15 16  1  0  0  0  0
 15 17  2  0  0  0  0
 17 18  1  0  0  0  0
 17 19  1  0  0  0  0
 19 20  1  0  0  0  0
 19 21  2  0  0  0  0
 21 22  1  0  0  0  0
 21 23  1  0  0  0  0
 23 24  1  0  0  0  0
 25 26  2  0  0  0  0
 25 27  1  0  0  0  0
 27 28  1  0  0  0  0
 27 29  1  0  0  0  0
 29 30  1  0  0  0  0
 29 31  1  0  0  0  0
 29 32  1  0  0  0  0
M  END
$$$$

  -OEChem-03222214073D

 32 32  0     1  0  0  0  0  0999 V2000
   -3.1555   -4.3890    0.8887 H   0  0  0  0  0  0  0  0  0  0  0  0
   -3.1099   -3.5023    0.2497 C   0  0  0  0  0  0  0  0  0  0  0  0
   -3.9485   -2.8473    0.4978 H   0  0  0  0  0  0  0  0  0  0  0  0
   -3.1967   -3.8176   -0.7930 H   0  0  0  0  0  0  0  0  0  0  0  0
   -1.7973   -2.7713    0.4643 C   0  0  0  0  0  0  0  0  0  0  0  0
   -1.0093   -3.1789    1.2974 O   0  0  0  0  0  0  0  0  0  0  0  0
   -1.5073   -1.6515   -0.2919 N   0  0  0  0  0  0  0  0  0  0  0  0
   -2.1692   -1.4151   -1.0247 H   0  0  0  0  0  0  0  0  0  0  0  0
   -0.2244   -0.9208   -0.2456 C   0  0  1  0  0  0  0  0  0  0  0  0
    0.5854   -1.6071   -0.5163 H   0  0  0  0  0  0  0  0  0  0  0  0
   -0.3091    0.1941   -1.3050 C   0  0  0  0  0  0  0  0  0  0  0  0
   -0.4857   -0.2555   -2.2873 H   0  0  0  0  0  0  0  0  0  0  0  0
   -1.1651    0.8396   -1.0833 H   0  0  0  0  0  0  0  0  0  0  0  0
    0.9434    1.0346   -1.3773 C   0  0  0  0  0  0  0  0  0  0  0  0
    0.9684    2.3309   -0.8397 C   0  0  0  0  0  0  0  0  0  0  0  0
    0.0885    2.7381   -0.3517 H   0  0  0  0  0  0  0  0  0  0  0  0
    2.1290    3.1084   -0.9141 C   0  0  0  0  0  0  0  0  0  0  0  0
    2.1416    4.1075   -0.4894 H   0  0  0  0  0  0  0  0  0  0  0  0
    3.2765    2.5959   -1.5258 C   0  0  0  0  0  0  0  0  0  0  0  0
    4.1799    3.1961   -1.5777 H   0  0  0  0  0  0  0  0  0  0  0  0
    3.2629    1.3045   -2.0608 C   0  0  0  0  0  0  0  0  0  0  0  0
    4.1567    0.9007   -2.5271 H   0  0  0  0  0  0  0  0  0  0  0  0
    2.1012    0.5283   -1.9868 C   0  0  0  0  0  0  0  0  0  0  0  0
    2.1062   -0.4761   -2.3986 H   0  0  0  0  0  0  0  0  0  0  0  0
    0.1210   -0.3483    1.1497 C   0  0  0  0  0  0  0  0  0  0  0  0
    1.2718   -0.3757    1.5654 O   0  0  0  0  0  0  0  0  0  0  0  0
   -0.8492    0.3061    1.8888 N   0  0  0  0  0  0  0  0  0  0  0  0
   -1.8067    0.1900    1.5762 H   0  0  0  0  0  0  0  0  0  0  0  0
   -0.6050    0.8105    3.2340 C   0  0  0  0  0  0  0  0  0  0  0  0
    0.2176    1.5334    3.2282 H   0  0  0  0  0  0  0  0  0  0  0  0
   -1.4989    1.3094    3.6196 H   0  0  0  0  0  0  0  0  0  0  0  0
   -0.3461   -0.0120    3.9091 H   0  0  0  0  0  0  0  0  0  0  0  0
  1  2  1  0  0  0  0
  2  3  1  0  0  0  0
  2  4  1  0  0  0  0
  2  5  1  0  0  0  0
  5  6  2  0  0  0  0
  5  7  1  0  0  0  0
  7  8  1  0  0  0  0
  7  9  1  0  0  0  0
  9 10  1  0  0  0  0
  9 11  1  0  0  0  0
  9 25  1  0  0  0  0
 11 12  1  0  0  0  0
 11 13  1  0  0  0  0
 11 14  1  0  0  0  0
 14 15  1  0  0  0  0
 14 23  2  0  0  0  0
 15 16  1  0  0  0  0
 15 17  2  0  0  0  0
 17 18  1  0  0  0  0
 17 19  1  0  0  0  0
 19 20  1  0  0  0  0
 19 21  2  0  0  0  0
 21 22  1  0  0  0  0
 21 23  1  0  0  0  0
 23 24  1  0  0  0  0
 25 26  2  0  0  0  0
 25 27  1  0  0  0  0
 27 28  1  0  0  0  0
 27 29  1  0  0  0  0
 29 30  1  0  0  0  0
 29 31  1  0  0  0  0
 29 32  1  0  0  0  0
M  END
$$$$

  -OEChem-03222214073D

 32 32  0     1  0  0  0  0  0999 V2000
   -3.1618   -4.3778    0.8899 H   0  0  0  0  0  0  0  0  0  0  0  0
   -3.1106   -3.4929    0.2489 C   0  0  0  0  0  0  0  0  0  0  0  0
   -3.9476   -2.8339    0.4915 H   0  0  0  0  0  0  0  0  0  0  0  0
   -3.1946   -3.8102   -0.7933 H   0  0  0  0  0  0  0  0  0  0  0  0
   -1.7964   -2.7659    0.4674 C   0  0  0  0  0  0  0  0  0  0  0  0
   -1.0108   -3.1771    1.3012 O   0  0  0  0  0  0  0  0  0  0  0  0
   -1.5034   -1.6452   -0.2862 N   0  0  0  0  0  0  0  0  0  0  0  0
   -2.1645   -1.4059   -1.0189 H   0  0  0  0  0  0  0  0  0  0  0  0
   -0.2183   -0.9183   -0.2395 C   0  0  1  0  0  0  0  0  0  0  0  0
    0.5917   -1.6051   -0.5098 H   0  0  0  0  0  0  0  0  0  0  0  0
   -0.3010    0.1939   -1.3035 C   0  0  0  0  0  0  0  0  0  0  0  0
   -0.4900   -0.2590   -2.2820 H   0  0  0  0  0  0  0  0  0  0  0  0
   -1.1509    0.8464   -1.0784 H   0  0  0  0  0  0  0  0  0  0  0  0
    0.9487    1.0381   -1.3874 C   0  0  0  0  0  0  0  0  0  0  0  0
    1.0934    2.1957   -0.6063 C   0  0  0  0  0  0  0  0  0  0  0  0
    0.3073    2.4939    0.0807 H   0  0  0  0  0  0  0  0  0  0  0  0
    2.2554    2.9698   -0.6915 C   0  0  0  0  0  0  0  0  0  0  0  0
    2.3607    3.8593   -0.0778 H   0  0  0  0  0  0  0  0  0  0  0  0
    3.2854    2.5927   -1.5578 C   0  0  0  0  0  0  0  0  0  0  0  0
    4.1901    3.1901   -1.6199 H   0  0  0  0  0  0  0  0  0  0  0  0
    3.1536    1.4389   -2.3357 C   0  0  0  0  0  0  0  0  0  0  0  0
    3.9568    1.1401   -3.0024 H   0  0  0  0  0  0  0  0  0  0  0  0
    1.9914    0.6650   -2.2489 C   0  0  0  0  0  0  0  0  0  0  0  0
    1.9064   -0.2340   -2.8517 H   0  0  0  0  0  0  0  0  0  0  0  0
    0.1198   -0.3544    1.1613 C   0  0  0  0  0  0  0  0  0  0  0  0
    1.2680   -0.3810    1.5837 O   0  0  0  0  0  0  0  0  0  0  0  0
   -0.8551    0.2968    1.8976 N   0  0  0  0  0  0  0  0  0  0  0  0
   -1.8110    0.1724    1.5832 H   0  0  0  0  0  0  0  0  0  0  0  0
   -0.6198    0.7889    3.2488 C   0  0  0  0  0  0  0  0  0  0  0  0
    0.2038    1.5107    3.2561 H   0  0  0  0  0  0  0  0  0  0  0  0
   -1.5156    1.2859    3.6328 H   0  0  0  0  0  0  0  0  0  0  0  0
   -0.3671   -0.0406    3.9177 H   0  0  0  0  0  0  0  0  0  0  0  0
  1  2  1  0  0  0  0
  2  3  1  0  0  0  0
  2  4  1  0  0  0  0
  2  5  1  0  0  0  0
  5  6  2  0  0  0  0
  5  7  1  0  0  0  0
  7  8  1  0  0  0  0
  7  9  1  0  0  0  0
  9 10  1  0  0  0  0
  9 11  1  0  0  0  0
  9 25  1  0  0  0  0
 11 12  1  0  0  0  0
 11 13  1  0  0  0  0
 11 14  1  0  0  0  0
 14 15  1  0  0  0  0
 14 23  2  0  0  0  0
 15 16  1  0  0  0  0
 15 17  2  0  0  0  0
 17 18  1  0  0  0  0
 17 19  1  0  0  0  0
 19 20  1  0  0  0  0
 19 21  2  0  0  0  0
 21 22  1  0  0  0  0
 21 23  1  0  0  0  0
 23 24  1  0  0  0  0
 25 26  2  0  0  0  0
 25 27  1  0  0  0  0
 27 28  1  0  0  0  0
 27 29  1  0  0  0  0
 29 30  1  0  0  0  0
 29 31  1  0  0  0  0
 29 32  1  0  0  0  0
M  END
$$$$

  -OEChem-03222214073D

 32 32  0     1  0  0  0  0  0999 V2000
   -3.1866   -4.3624    0.8685 H   0  0  0  0  0  0  0  0  0  0  0  0
   -3.1234   -3.4704    0.2384 C   0  0  0  0  0  0  0  0  0  0  0  0
   -3.9534   -2.8050    0.4873 H   0  0  0  0  0  0  0  0  0  0  0  0
   -3.2082   -3.7743   -0.8077 H   0  0  0  0  0  0  0  0  0  0  0  0
   -1.8013   -2.7616    0.4688 C   0  0  0  0  0  0  0  0  0  0  0  0
   -1.0261   -3.1888    1.3041 O   0  0  0  0  0  0  0  0  0  0  0  0
   -1.4906   -1.6377   -0.2733 N   0  0  0  0  0  0  0  0  0  0  0  0
   -2.1447   -1.3845   -1.0075 H   0  0  0  0  0  0  0  0  0  0  0  0
   -0.1996   -0.9212   -0.2102 C   0  0  1  0  0  0  0  0  0  0  0  0
    0.6103   -1.6115   -0.4716 H   0  0  0  0  0  0  0  0  0  0  0  0
   -0.2689    0.1853   -1.2858 C   0  0  0  0  0  0  0  0  0  0  0  0
   -0.4664   -0.2811   -2.2562 H   0  0  0  0  0  0  0  0  0  0  0  0
   -1.1178    0.8402   -1.0637 H   0  0  0  0  0  0  0  0  0  0  0  0
    0.9683    1.0514   -1.3980 C   0  0  0  0  0  0  0  0  0  0  0  0
    1.2659    2.0442   -0.4494 C   0  0  0  0  0  0  0  0  0  0  0  0
    0.6029    2.2191    0.3920 H   0  0  0  0  0  0  0  0  0  0  0  0
    2.4228    2.8212   -0.5677 C   0  0  0  0  0  0  0  0  0  0  0  0
    2.6435    3.5796    0.1773 H   0  0  0  0  0  0  0  0  0  0  0  0
    3.2990    2.6150   -1.6361 C   0  0  0  0  0  0  0  0  0  0  0  0
    4.1998    3.2149   -1.7245 H   0  0  0  0  0  0  0  0  0  0  0  0
    3.0176    1.6285   -2.5843 C   0  0  0  0  0  0  0  0  0  0  0  0
    3.7012    1.4606   -3.4109 H   0  0  0  0  0  0  0  0  0  0  0  0
    1.8607    0.8512   -2.4638 C   0  0  0  0  0  0  0  0  0  0  0  0
    1.6642    0.0823   -3.2046 H   0  0  0  0  0  0  0  0  0  0  0  0
    0.1153   -0.3768    1.2030 C   0  0  0  0  0  0  0  0  0  0  0  0
    1.2542   -0.4148    1.6491 O   0  0  0  0  0  0  0  0  0  0  0  0
   -0.8705    0.2703    1.9282 N   0  0  0  0  0  0  0  0  0  0  0  0
   -1.8196    0.1634    1.5874 H   0  0  0  0  0  0  0  0  0  0  0  0
   -0.6653    0.7298    3.2959 C   0  0  0  0  0  0  0  0  0  0  0  0
    0.1578    1.4507    3.3387 H   0  0  0  0  0  0  0  0  0  0  0  0
   -1.5698    1.2174    3.6718 H   0  0  0  0  0  0  0  0  0  0  0  0
   -0.4274   -0.1153    3.9506 H   0  0  0  0  0  0  0  0  0  0  0  0
  1  2  1  0  0  0  0
  2  3  1  0  0  0  0
  2  4  1  0  0  0  0
  2  5  1  0  0  0  0
  5  6  2  0  0  0  0
  5  7  1  0  0  0  0
  7  8  1  0  0  0  0
  7  9  1  0  0  0  0
  9 10  1  0  0  0  0
  9 11  1  0  0  0  0
  9 25  1  0  0  0  0
 11 12  1  0  0  0  0
 11 13  1  0  0  0  0
 11 14  1  0  0  0  0
 14 15  1  0  0  0  0
 14 23  2  0  0  0  0
 15 16  1  0  0  0  0
 15 17  2  0  0  0  0
 17 18  1  0  0  0  0
 17 19  1  0  0  0  0
 19 20  1  0  0  0  0
 19 21  2  0  0  0  0
 21 22  1  0  0  0  0
 21 23  1  0  0  0  0
 23 24  1  0  0  0  0
 25 26  2  0  0  0  0
 25 27  1  0  0  0  0
 27 28  1  0  0  0  0
 27 29  1  0  0  0  0
 29 30  1  0  0  0  0
 29 31  1  0  0  0  0
 29 32  1  0  0  0  0
M  END
$$$$

  -OEChem-03222214073D

 32 32  0     1  0  0  0  0  0999 V2000
   -3.2288   -4.3391    0.8284 H   0  0  0  0  0  0  0  0  0  0  0  0
   -3.1437   -3.4387    0.2132 C   0  0  0  0  0  0  0  0  0  0  0  0
   -3.9611   -2.7604    0.4688 H   0  0  0  0  0  0  0  0  0  0  0  0
   -3.2285   -3.7239   -0.8381 H   0  0  0  0  0  0  0  0  0  0  0  0
   -1.8089   -2.7609    0.4623 C   0  0  0  0  0  0  0  0  0  0  0  0
   -1.0475   -3.2172    1.2949 O   0  0  0  0  0  0  0  0  0  0  0  0
   -1.4717   -1.6321   -0.2609 N   0  0  0  0  0  0  0  0  0  0  0  0
   -2.1171   -1.3535   -0.9937 H   0  0  0  0  0  0  0  0  0  0  0  0
   -0.1745   -0.9295   -0.1664 C   0  0  1  0  0  0  0  0  0  0  0  0
    0.6348   -1.6264   -0.4118 H   0  0  0  0  0  0  0  0  0  0  0  0
   -0.2171    0.1726   -1.2533 C   0  0  0  0  0  0  0  0  0  0  0  0
   -0.4120   -0.3117   -2.2154 H   0  0  0  0  0  0  0  0  0  0  0  0
   -1.0699    0.8266   -1.0459 H   0  0  0  0  0  0  0  0  0  0  0  0
    1.0047    1.0661   -1.3934 C   0  0  0  0  0  0  0  0  0  0  0  0
    1.4870    1.8809   -0.3530 C   0  0  0  0  0  0  0  0  0  0  0  0
    0.9787    1.9329    0.6033 H   0  0  0  0  0  0  0  0  0  0  0  0
    2.6315    2.6661   -0.5261 C   0  0  0  0  0  0  0  0  0  0  0  0
    2.9900    3.2841    0.2917 H   0  0  0  0  0  0  0  0  0  0  0  0
    3.3143    2.6523   -1.7439 C   0  0  0  0  0  0  0  0  0  0  0  0
    4.2045    3.2604   -1.8756 H   0  0  0  0  0  0  0  0  0  0  0  0
    2.8502    1.8504   -2.7883 C   0  0  0  0  0  0  0  0  0  0  0  0
    3.3812    1.8328   -3.7352 H   0  0  0  0  0  0  0  0  0  0  0  0
    1.7069    1.0639   -2.6118 C   0  0  0  0  0  0  0  0  0  0  0  0
    1.3721    0.4421   -3.4362 H   0  0  0  0  0  0  0  0  0  0  0  0
    0.1018   -0.4115    1.2641 C   0  0  0  0  0  0  0  0  0  0  0  0
    1.2239   -0.4785    1.7483 O   0  0  0  0  0  0  0  0  0  0  0  0
   -0.8989    0.2313    1.9727 N   0  0  0  0  0  0  0  0  0  0  0  0
   -1.8376    0.1468    1.5982 H   0  0  0  0  0  0  0  0  0  0  0  0
   -0.7336    0.6569    3.3567 C   0  0  0  0  0  0  0  0  0  0  0  0
    0.0866    1.3776    3.4410 H   0  0  0  0  0  0  0  0  0  0  0  0
   -1.6494    1.1339    3.7183 H   0  0  0  0  0  0  0  0  0  0  0  0
   -0.5136   -0.2044    3.9964 H   0  0  0  0  0  0  0  0  0  0  0  0
  1  2  1  0  0  0  0
  2  3  1  0  0  0  0
  2  4  1  0  0  0  0
  2  5  1  0  0  0  0
  5  6  2  0  0  0  0
  5  7  1  0  0  0  0
  7  8  1  0  0  0  0
  7  9  1  0  0  0  0
  9 10  1  0  0  0  0
  9 11  1  0  0  0  0
  9 25  1  0  0  0  0
 11 12  1  0  0  0  0
 11 13  1  0  0  0  0
 11 14  1  0  0  0  0
 14 15  1  0  0  0  0
 14 23  2  0  0  0  0
 15 16  1  0  0  0  0
 15 17  2  0  0  0  0
 17 18  1  0  0  0  0
 17 19  1  0  0  0  0
 19 20  1  0  0  0  0
 19 21  2  0  0  0  0
 21 22  1  0  0  0  0
 21 23  1  0  0  0  0
 23 24  1  0  0  0  0
 25 26  2  0  0  0  0
 25 27  1  0  0  0  0
 27 28  1  0  0  0  0
 27 29  1  0  0  0  0
 29 30  1  0  0  0  0
 29 31  1  0  0  0  0
 29 32  1  0  0  0  0
M  END
$$$$

  -OEChem-03222214073D

 32 32  0     1  0  0  0  0  0999 V2000
   -3.2883   -4.3011    0.7800 H   0  0  0  0  0  0  0  0  0  0  0  0
   -3.1671   -3.4017    0.1691 C   0  0  0  0  0  0  0  0  0  0  0  0
   -3.9771   -2.7067    0.4027 H   0  0  0  0  0  0  0  0  0  0  0  0
   -3.2285   -3.6832   -0.8849 H   0  0  0  0  0  0  0  0  0  0  0  0
   -1.8256   -2.7533    0.4568 C   0  0  0  0  0  0  0  0  0  0  0  0
   -1.0927   -3.2351    1.3003 O   0  0  0  0  0  0  0  0  0  0  0  0
   -1.4483   -1.6258   -0.2485 N   0  0  0  0  0  0  0  0  0  0  0  0
   -2.0716   -1.3280   -0.9927 H   0  0  0  0  0  0  0  0  0  0  0  0
   -0.1414   -0.9463   -0.1162 C   0  0  1  0  0  0  0  0  0  0  0  0
    0.6656   -1.6508   -0.3469 H   0  0  0  0  0  0  0  0  0  0  0  0
   -0.1581    0.1580   -1.2051 C   0  0  0  0  0  0  0  0  0  0  0  0
   -0.3472   -0.3388   -2.1621 H   0  0  0  0  0  0  0  0  0  0  0  0
   -1.0147    0.8102   -1.0079 H   0  0  0  0  0  0  0  0  0  0  0  0
    1.0485    1.0746   -1.3723 C   0  0  0  0  0  0  0  0  0  0  0  0
    1.7391    1.6970   -0.3143 C   0  0  0  0  0  0  0  0  0  0  0  0
    1.4196    1.6082    0.7155 H   0  0  0  0  0  0  0  0  0  0  0  0
    2.8618    2.4958   -0.5552 C   0  0  0  0  0  0  0  0  0  0  0  0
    3.3779    2.9629    0.2786 H   0  0  0  0  0  0  0  0  0  0  0  0
    3.3191    2.6922   -1.8588 C   0  0  0  0  0  0  0  0  0  0  0  0
    4.1936    3.3094   -2.0428 H   0  0  0  0  0  0  0  0  0  0  0  0
    2.6465    2.0906   -2.9227 C   0  0  0  0  0  0  0  0  0  0  0  0
    2.9977    2.2386   -3.9395 H   0  0  0  0  0  0  0  0  0  0  0  0
    1.5247    1.2919   -2.6789 C   0  0  0  0  0  0  0  0  0  0  0  0
    1.0275    0.8314   -3.5269 H   0  0  0  0  0  0  0  0  0  0  0  0
    0.0931   -0.4484    1.3286 C   0  0  0  0  0  0  0  0  0  0  0  0
    1.1838   -0.5852    1.8679 O   0  0  0  0  0  0  0  0  0  0  0  0
   -0.9197    0.2027    2.0114 N   0  0  0  0  0  0  0  0  0  0  0  0
   -1.8406    0.1695    1.5885 H   0  0  0  0  0  0  0  0  0  0  0  0
   -0.8048    0.5888    3.4118 C   0  0  0  0  0  0  0  0  0  0  0  0
    0.0332    1.2798    3.5512 H   0  0  0  0  0  0  0  0  0  0  0  0
   -1.7208    1.0866    3.7438 H   0  0  0  0  0  0  0  0  0  0  0  0
   -0.6417   -0.2941    4.0391 H   0  0  0  0  0  0  0  0  0  0  0  0
  1  2  1  0  0  0  0
  2  3  1  0  0  0  0
  2  4  1  0  0  0  0
  2  5  1  0  0  0  0
  5  6  2  0  0  0  0
  5  7  1  0  0  0  0
  7  8  1  0  0  0  0
  7  9  1  0  0  0  0
  9 10  1  0  0  0  0
  9 11  1  0  0  0  0
  9 25  1  0  0  0  0
 11 12  1  0  0  0  0
 11 13  1  0  0  0  0
 11 14  1  0  0  0  0
 14 15  1  0  0  0  0
 14 23  2  0  0  0  0
 15 16  1  0  0  0  0
 15 17  2  0  0  0  0
 17 18  1  0  0  0  0
 17 19  1  0  0  0  0
 19 20  1  0  0  0  0
 19 21  2  0  0  0  0
 21 22  1  0  0  0  0
 21 23  1  0  0  0  0
 23 24  1  0  0  0  0
 25 26  2  0  0  0  0
 25 27  1  0  0  0  0
 27 28  1  0  0  0  0
 27 29  1  0  0  0  0
 29 30  1  0  0  0  0
 29 31  1  0  0  0  0
 29 32  1  0  0  0  0
M  END
$$$$

  -OEChem-03222214073D

 32 32  0     1  0  0  0  0  0999 V2000
   -3.3639   -4.2371    0.7677 H   0  0  0  0  0  0  0  0  0  0  0  0
   -3.2018   -3.3464    0.1537 C   0  0  0  0  0  0  0  0  0  0  0  0
   -3.9932   -2.6237    0.3660 H   0  0  0  0  0  0  0  0  0  0  0  0
   -3.2507   -3.6334   -0.8994 H   0  0  0  0  0  0  0  0  0  0  0  0
   -1.8463   -2.7391    0.4635 C   0  0  0  0  0  0  0  0  0  0  0  0
   -1.1423   -3.2446    1.3175 O   0  0  0  0  0  0  0  0  0  0  0  0
   -1.4220   -1.6277   -0.2409 N   0  0  0  0  0  0  0  0  0  0  0  0
   -2.0243   -1.3137   -0.9956 H   0  0  0  0  0  0  0  0  0  0  0  0
   -0.1012   -0.9800   -0.0830 C   0  0  1  0  0  0  0  0  0  0  0  0
    0.6997   -1.6964   -0.2971 H   0  0  0  0  0  0  0  0  0  0  0  0
   -0.0931    0.1284   -1.1683 C   0  0  0  0  0  0  0  0  0  0  0  0
   -0.2748   -0.3722   -2.1252 H   0  0  0  0  0  0  0  0  0  0  0  0
   -0.9490    0.7843   -0.9784 H   0  0  0  0  0  0  0  0  0  0  0  0
    1.1106    1.0471   -1.3564 C   0  0  0  0  0  0  0  0  0  0  0  0
    2.0099    1.4519   -0.3502 C   0  0  0  0  0  0  0  0  0  0  0  0
    1.9087    1.1529    0.6819 H   0  0  0  0  0  0  0  0  0  0  0  0
    3.0921    2.2893   -0.6420 C   0  0  0  0  0  0  0  0  0  0  0  0
    3.7736    2.5823    0.1516 H   0  0  0  0  0  0  0  0  0  0  0  0
    3.2989    2.7469   -1.9435 C   0  0  0  0  0  0  0  0  0  0  0  0
    4.1415    3.3949   -2.1663 H   0  0  0  0  0  0  0  0  0  0  0  0
    2.4161    2.3680   -2.9542 C   0  0  0  0  0  0  0  0  0  0  0  0
    2.5694    2.7220   -3.9693 H   0  0  0  0  0  0  0  0  0  0  0  0
    1.3362    1.5299   -2.6597 C   0  0  0  0  0  0  0  0  0  0  0  0
    0.6669    1.2510   -3.4679 H   0  0  0  0  0  0  0  0  0  0  0  0
    0.0943   -0.4810    1.3690 C   0  0  0  0  0  0  0  0  0  0  0  0
    1.1362   -0.7039    1.9723 O   0  0  0  0  0  0  0  0  0  0  0  0
   -0.9248    0.1964    2.0162 N   0  0  0  0  0  0  0  0  0  0  0  0
   -1.8209    0.2228    1.5427 H   0  0  0  0  0  0  0  0  0  0  0  0
   -0.8681    0.5435    3.4306 C   0  0  0  0  0  0  0  0  0  0  0  0
   -0.0011    1.1806    3.6343 H   0  0  0  0  0  0  0  0  0  0  0  0
   -1.7711    1.0874    3.7233 H   0  0  0  0  0  0  0  0  0  0  0  0
   -0.7927   -0.3613    4.0432 H   0  0  0  0  0  0  0  0  0  0  0  0
  1  2  1  0  0  0  0
  2  3  1  0  0  0  0
  2  4  1  0  0  0  0
  2  5  1  0  0  0  0
  5  6  2  0  0  0  0
  5  7  1  0  0  0  0
  7  8  1  0  0  0  0
  7  9  1  0  0  0  0
  9 10  1  0  0  0  0
  9 11  1  0  0  0  0
  9 25  1  0  0  0  0
 11 12  1  0  0  0  0
 11 13  1  0  0  0  0
 11 14  1  0  0  0  0
 14 15  1  0  0  0  0
 14 23  2  0  0  0  0
 15 16  1  0  0  0  0
 15 17  2  0  0  0  0
 17 18  1  0  0  0  0
 17 19  1  0  0  0  0
 19 20  1  0  0  0  0
 19 21  2  0  0  0  0
 21 22  1  0  0  0  0
 21 23  1  0  0  0  0
 23 24  1  0  0  0  0
 25 26  2  0  0  0  0
 25 27  1  0  0  0  0
 27 28  1  0  0  0  0
 27 29  1  0  0  0  0
 29 30  1  0  0  0  0
 29 31  1  0  0  0  0
 29 32  1  0  0  0  0
M  END
$$$$

  -OEChem-03222214073D

 32 32  0     1  0  0  0  0  0999 V2000
   -3.4189   -4.1858    0.8073 H   0  0  0  0  0  0  0  0  0  0  0  0
   -3.2386   -3.3043    0.1853 C   0  0  0  0  0  0  0  0  0  0  0  0
   -4.0094   -2.5602    0.3992 H   0  0  0  0  0  0  0  0  0  0  0  0
   -3.3036   -3.5974   -0.8653 H   0  0  0  0  0  0  0  0  0  0  0  0
   -1.8658   -2.7296    0.4802 C   0  0  0  0  0  0  0  0  0  0  0  0
   -1.1698   -3.2437    1.3355 O   0  0  0  0  0  0  0  0  0  0  0  0
   -1.4160   -1.6404   -0.2430 N   0  0  0  0  0  0  0  0  0  0  0  0
   -2.0145   -1.3216   -0.9985 H   0  0  0  0  0  0  0  0  0  0  0  0
   -0.0815   -1.0180   -0.0961 C   0  0  1  0  0  0  0  0  0  0  0  0
    0.7096   -1.7450   -0.3102 H   0  0  0  0  0  0  0  0  0  0  0  0
   -0.0718    0.0994   -1.1704 C   0  0  0  0  0  0  0  0  0  0  0  0
   -0.2665   -0.3863   -2.1325 H   0  0  0  0  0  0  0  0  0  0  0  0
   -0.9165    0.7647   -0.9635 H   0  0  0  0  0  0  0  0  0  0  0  0
    1.1409    0.9992   -1.3711 C   0  0  0  0  0  0  0  0  0  0  0  0
    2.2219    1.1471   -0.4811 C   0  0  0  0  0  0  0  0  0  0  0  0
    2.3044    0.5814    0.4345 H   0  0  0  0  0  0  0  0  0  0  0  0
    3.2719    2.0284   -0.7613 C   0  0  0  0  0  0  0  0  0  0  0  0
    4.0981    2.1185   -0.0619 H   0  0  0  0  0  0  0  0  0  0  0  0
    3.2634    2.7848   -1.9339 C   0  0  0  0  0  0  0  0  0  0  0  0
    4.0806    3.4669   -2.1492 H   0  0  0  0  0  0  0  0  0  0  0  0
    2.2002    2.6569   -2.8279 C   0  0  0  0  0  0  0  0  0  0  0  0
    2.1864    3.2426   -3.7422 H   0  0  0  0  0  0  0  0  0  0  0  0
    1.1524    1.7752   -2.5445 C   0  0  0  0  0  0  0  0  0  0  0  0
    0.3335    1.6981   -3.2534 H   0  0  0  0  0  0  0  0  0  0  0  0
    0.1149   -0.4994    1.3523 C   0  0  0  0  0  0  0  0  0  0  0  0
    1.1307   -0.7603    1.9839 O   0  0  0  0  0  0  0  0  0  0  0  0
   -0.8966    0.2078    1.9798 N   0  0  0  0  0  0  0  0  0  0  0  0
   -1.7804    0.2673    1.4869 H   0  0  0  0  0  0  0  0  0  0  0  0
   -0.8554    0.5625    3.3929 C   0  0  0  0  0  0  0  0  0  0  0  0
    0.0161    1.1905    3.6051 H   0  0  0  0  0  0  0  0  0  0  0  0
   -1.7562    1.1179    3.6706 H   0  0  0  0  0  0  0  0  0  0  0  0
   -0.7987   -0.3398    4.0111 H   0  0  0  0  0  0  0  0  0  0  0  0
  1  2  1  0  0  0  0
  2  3  1  0  0  0  0
  2  4  1  0  0  0  0
  2  5  1  0  0  0  0
  5  6  2  0  0  0  0
  5  7  1  0  0  0  0
  7  8  1  0  0  0  0
  7  9  1  0  0  0  0
  9 10  1  0  0  0  0
  9 11  1  0  0  0  0
  9 25  1  0  0  0  0
 11 12  1  0  0  0  0
 11 13  1  0  0  0  0
 11 14  1  0  0  0  0
 14 15  1  0  0  0  0
 14 23  2  0  0  0  0
 15 16  1  0  0  0  0
 15 17  2  0  0  0  0
 17 18  1  0  0  0  0
 17 19  1  0  0  0  0
 19 20  1  0  0  0  0
 19 21  2  0  0  0  0
 21 22  1  0  0  0  0
 21 23  1  0  0  0  0
 23 24  1  0  0  0  0
 25 26  2  0  0  0  0
 25 27  1  0  0  0  0
 27 28  1  0  0  0  0
 27 29  1  0  0  0  0
 29 30  1  0  0  0  0
 29 31  1  0  0  0  0
 29 32  1  0  0  0  0
M  END
$$$$

  -OEChem-03222214073D

 32 32  0     1  0  0  0  0  0999 V2000
   -3.3999   -4.1995    0.8773 H   0  0  0  0  0  0  0  0  0  0  0  0
   -3.2392   -3.3282    0.2356 C   0  0  0  0  0  0  0  0  0  0  0  0
   -4.0094   -2.5845    0.4535 H   0  0  0  0  0  0  0  0  0  0  0  0
   -3.3264   -3.6406   -0.8077 H   0  0  0  0  0  0  0  0  0  0  0  0
   -1.8630   -2.7411    0.4887 C   0  0  0  0  0  0  0  0  0  0  0  0
   -1.1417   -3.2395    1.3324 O   0  0  0  0  0  0  0  0  0  0  0  0
   -1.4373   -1.6589   -0.2588 N   0  0  0  0  0  0  0  0  0  0  0  0
   -2.0548   -1.3534   -1.0046 H   0  0  0  0  0  0  0  0  0  0  0  0
   -0.1045   -1.0272   -0.1480 C   0  0  1  0  0  0  0  0  0  0  0  0
    0.6845   -1.7514   -0.3783 H   0  0  0  0  0  0  0  0  0  0  0  0
   -0.1171    0.0990   -1.2095 C   0  0  0  0  0  0  0  0  0  0  0  0
   -0.3239   -0.3666   -2.1789 H   0  0  0  0  0  0  0  0  0  0  0  0
   -0.9558    0.7648   -0.9806 H   0  0  0  0  0  0  0  0  0  0  0  0
    1.1078    0.9793   -1.3995 C   0  0  0  0  0  0  0  0  0  0  0  0
    2.3094    0.8644   -0.6759 C   0  0  0  0  0  0  0  0  0  0  0  0
    2.4722    0.0730    0.0440 H   0  0  0  0  0  0  0  0  0  0  0  0
    3.3685    1.7516   -0.8952 C   0  0  0  0  0  0  0  0  0  0  0  0
    4.2883    1.6400   -0.3286 H   0  0  0  0  0  0  0  0  0  0  0  0
    3.2478    2.7716   -1.8407 C   0  0  0  0  0  0  0  0  0  0  0  0
    4.0718    3.4587   -2.0084 H   0  0  0  0  0  0  0  0  0  0  0  0
    2.0648    2.9000   -2.5703 C   0  0  0  0  0  0  0  0  0  0  0  0
    1.9655    3.6910   -3.3077 H   0  0  0  0  0  0  0  0  0  0  0  0
    1.0077    2.0114   -2.3483 C   0  0  0  0  0  0  0  0  0  0  0  0
    0.0941    2.1325   -2.9220 H   0  0  0  0  0  0  0  0  0  0  0  0
    0.1273   -0.4854    1.2885 C   0  0  0  0  0  0  0  0  0  0  0  0
    1.1714   -0.7028    1.8895 O   0  0  0  0  0  0  0  0  0  0  0  0
   -0.8728    0.2262    1.9294 N   0  0  0  0  0  0  0  0  0  0  0  0
   -1.7721    0.2663    1.4634 H   0  0  0  0  0  0  0  0  0  0  0  0
   -0.7820    0.6441    3.3229 C   0  0  0  0  0  0  0  0  0  0  0  0
    0.0855    1.2956    3.4713 H   0  0  0  0  0  0  0  0  0  0  0  0
   -1.6810    1.1966    3.6121 H   0  0  0  0  0  0  0  0  0  0  0  0
   -0.6841   -0.2280    3.9782 H   0  0  0  0  0  0  0  0  0  0  0  0
  1  2  1  0  0  0  0
  2  3  1  0  0  0  0
  2  4  1  0  0  0  0
  2  5  1  0  0  0  0
  5  6  2  0  0  0  0
  5  7  1  0  0  0  0
  7  8  1  0  0  0  0
  7  9  1  0  0  0  0
  9 10  1  0  0  0  0
  9 11  1  0  0  0  0
  9 25  1  0  0  0  0
 11 12  1  0  0  0  0
 11 13  1  0  0  0  0
 11 14  1  0  0  0  0
 14 15  1  0  0  0  0
 14 23  2  0  0  0  0
 15 16  1  0  0  0  0
 15 17  2  0  0  0  0
 17 18  1  0  0  0  0
 17 19  1  0  0  0  0
 19 20  1  0  0  0  0
 19 21  2  0  0  0  0
 21 22  1  0  0  0  0
 21 23  1  0  0  0  0
 23 24  1  0  0  0  0
 25 26  2  0  0  0  0
 25 27  1  0  0  0  0
 27 28  1  0  0  0  0
 27 29  1  0  0  0  0
 29 30  1  0  0  0  0
 29 31  1  0  0  0  0
 29 32  1  0  0  0  0
M  END
$$$$

  -OEChem-03222214073D

 32 32  0     1  0  0  0  0  0999 V2000
   -3.3331   -4.2658    0.8926 H   0  0  0  0  0  0  0  0  0  0  0  0
   -3.2104   -3.3909    0.2476 C   0  0  0  0  0  0  0  0  0  0  0  0
   -4.0033   -2.6737    0.4732 H   0  0  0  0  0  0  0  0  0  0  0  0
   -3.2996   -3.7083   -0.7941 H   0  0  0  0  0  0  0  0  0  0  0  0
   -1.8526   -2.7558    0.4829 C   0  0  0  0  0  0  0  0  0  0  0  0
   -1.1070   -3.2208    1.3248 O   0  0  0  0  0  0  0  0  0  0  0  0
   -1.4727   -1.6619   -0.2716 N   0  0  0  0  0  0  0  0  0  0  0  0
   -2.1041   -1.3840   -1.0166 H   0  0  0  0  0  0  0  0  0  0  0  0
   -0.1540   -1.0000   -0.1872 C   0  0  1  0  0  0  0  0  0  0  0  0
    0.6343   -1.7192   -0.4342 H   0  0  0  0  0  0  0  0  0  0  0  0
   -0.1871    0.1248   -1.2466 C   0  0  0  0  0  0  0  0  0  0  0  0
   -0.3882   -0.3337   -2.2201 H   0  0  0  0  0  0  0  0  0  0  0  0
   -1.0305    0.7828   -1.0129 H   0  0  0  0  0  0  0  0  0  0  0  0
    1.0457    0.9971   -1.4096 C   0  0  0  0  0  0  0  0  0  0  0  0
    2.3134    0.6727   -0.8914 C   0  0  0  0  0  0  0  0  0  0  0  0
    2.4863   -0.2542   -0.3550 H   0  0  0  0  0  0  0  0  0  0  0  0
    3.4016    1.5338   -1.0673 C   0  0  0  0  0  0  0  0  0  0  0  0
    4.3702    1.2670   -0.6548 H   0  0  0  0  0  0  0  0  0  0  0  0
    3.2441    2.7316   -1.7679 C   0  0  0  0  0  0  0  0  0  0  0  0
    4.0906    3.3990   -1.9014 H   0  0  0  0  0  0  0  0  0  0  0  0
    1.9948    3.0659   -2.2942 C   0  0  0  0  0  0  0  0  0  0  0  0
    1.8678    3.9960   -2.8402 H   0  0  0  0  0  0  0  0  0  0  0  0
    0.9073    2.2043   -2.1152 C   0  0  0  0  0  0  0  0  0  0  0  0
   -0.0564    2.4839   -2.5298 H   0  0  0  0  0  0  0  0  0  0  0  0
    0.1290   -0.4454    1.2335 C   0  0  0  0  0  0  0  0  0  0  0  0
    1.2225   -0.5963    1.7625 O   0  0  0  0  0  0  0  0  0  0  0  0
   -0.8535    0.2528    1.9146 N   0  0  0  0  0  0  0  0  0  0  0  0
   -1.7813    0.2460    1.5062 H   0  0  0  0  0  0  0  0  0  0  0  0
   -0.6918    0.7118    3.2884 C   0  0  0  0  0  0  0  0  0  0  0  0
    0.1641    1.3904    3.3670 H   0  0  0  0  0  0  0  0  0  0  0  0
   -1.5870    1.2482    3.6164 H   0  0  0  0  0  0  0  0  0  0  0  0
   -0.5307   -0.1386    3.9594 H   0  0  0  0  0  0  0  0  0  0  0  0
  1  2  1  0  0  0  0
  2  3  1  0  0  0  0
  2  4  1  0  0  0  0
  2  5  1  0  0  0  0
  5  6  2  0  0  0  0
  5  7  1  0  0  0  0
  7  8  1  0  0  0  0
  7  9  1  0  0  0  0
  9 10  1  0  0  0  0
  9 11  1  0  0  0  0
  9 25  1  0  0  0  0
 11 12  1  0  0  0  0
 11 13  1  0  0  0  0
 11 14  1  0  0  0  0
 14 15  1  0  0  0  0
 14 23  2  0  0  0  0
 15 16  1  0  0  0  0
 15 17  2  0  0  0  0
 17 18  1  0  0  0  0
 17 19  1  0  0  0  0
 19 20  1  0  0  0  0
 19 21  2  0  0  0  0
 21 22  1  0  0  0  0
 21 23  1  0  0  0  0
 23 24  1  0  0  0  0
 25 26  2  0  0  0  0
 25 27  1  0  0  0  0
 27 28  1  0  0  0  0
 27 29  1  0  0  0  0
 29 30  1  0  0  0  0
 29 31  1  0  0  0  0
 29 32  1  0  0  0  0
M  END
$$$$

  -OEChem-03222214073D

 32 32  0     1  0  0  0  0  0999 V2000
   -3.2643   -4.3273    0.8918 H   0  0  0  0  0  0  0  0  0  0  0  0
   -3.1762   -3.4487    0.2461 C   0  0  0  0  0  0  0  0  0  0  0  0
   -3.9908   -2.7587    0.4784 H   0  0  0  0  0  0  0  0  0  0  0  0
   -3.2630   -3.7686   -0.7951 H   0  0  0  0  0  0  0  0  0  0  0  0
   -1.8389   -2.7685    0.4712 C   0  0  0  0  0  0  0  0  0  0  0  0
   -1.0707   -3.2086    1.3063 O   0  0  0  0  0  0  0  0  0  0  0  0
   -1.5032   -1.6595   -0.2816 N   0  0  0  0  0  0  0  0  0  0  0  0
   -2.1500   -1.3986   -1.0197 H   0  0  0  0  0  0  0  0  0  0  0  0
   -0.2000   -0.9679   -0.2153 C   0  0  1  0  0  0  0  0  0  0  0  0
    0.5872   -1.6832   -0.4745 H   0  0  0  0  0  0  0  0  0  0  0  0
   -0.2477    0.1524   -1.2760 C   0  0  0  0  0  0  0  0  0  0  0  0
   -0.4360   -0.3034   -2.2531 H   0  0  0  0  0  0  0  0  0  0  0  0
   -1.0987    0.8023   -1.0466 H   0  0  0  0  0  0  0  0  0  0  0  0
    0.9914    1.0180   -1.4075 C   0  0  0  0  0  0  0  0  0  0  0  0
    2.2878    0.5434   -1.1365 C   0  0  0  0  0  0  0  0  0  0  0  0
    2.4543   -0.4744   -0.7980 H   0  0  0  0  0  0  0  0  0  0  0  0
    3.4004    1.3784   -1.2825 C   0  0  0  0  0  0  0  0  0  0  0  0
    4.3922    0.9981   -1.0563 H   0  0  0  0  0  0  0  0  0  0  0  0
    3.2360    2.6980   -1.7095 C   0  0  0  0  0  0  0  0  0  0  0  0
    4.1009    3.3455   -1.8195 H   0  0  0  0  0  0  0  0  0  0  0  0
    1.9558    3.1816   -1.9896 C   0  0  0  0  0  0  0  0  0  0  0  0
    1.8243    4.2073   -2.3207 H   0  0  0  0  0  0  0  0  0  0  0  0
    0.8438    2.3463   -1.8403 C   0  0  0  0  0  0  0  0  0  0  0  0
   -0.1422    2.7410   -2.0645 H   0  0  0  0  0  0  0  0  0  0  0  0
    0.1278   -0.4077    1.1904 C   0  0  0  0  0  0  0  0  0  0  0  0
    1.2584   -0.5037    1.6501 O   0  0  0  0  0  0  0  0  0  0  0  0
   -0.8392    0.2730    1.9095 N   0  0  0  0  0  0  0  0  0  0  0  0
   -1.7879    0.2207    1.5557 H   0  0  0  0  0  0  0  0  0  0  0  0
   -0.6178    0.7637    3.2635 C   0  0  0  0  0  0  0  0  0  0  0  0
    0.2254    1.4621    3.2841 H   0  0  0  0  0  0  0  0  0  0  0  0
   -1.5068    1.2874    3.6270 H   0  0  0  0  0  0  0  0  0  0  0  0
   -0.4026   -0.0692    3.9412 H   0  0  0  0  0  0  0  0  0  0  0  0
  1  2  1  0  0  0  0
  2  3  1  0  0  0  0
  2  4  1  0  0  0  0
  2  5  1  0  0  0  0
  5  6  2  0  0  0  0
  5  7  1  0  0  0  0
  7  8  1  0  0  0  0
  7  9  1  0  0  0  0
  9 10  1  0  0  0  0
  9 11  1  0  0  0  0
  9 25  1  0  0  0  0
 11 12  1  0  0  0  0
 11 13  1  0  0  0  0
 11 14  1  0  0  0  0
 14 15  1  0  0  0  0
 14 23  2  0  0  0  0
 15 16  1  0  0  0  0
 15 17  2  0  0  0  0
 17 18  1  0  0  0  0
 17 19  1  0  0  0  0
 19 20  1  0  0  0  0
 19 21  2  0  0  0  0
 21 22  1  0  0  0  0
 21 23  1  0  0  0  0
 23 24  1  0  0  0  0
 25 26  2  0  0  0  0
 25 27  1  0  0  0  0
 27 28  1  0  0  0  0
 27 29  1  0  0  0  0
 29 30  1  0  0  0  0
 29 31  1  0  0  0  0
 29 32  1  0  0  0  0
M  END
$$$$

  -OEChem-03222214073D

 32 32  0     1  0  0  0  0  0999 V2000
   -3.2016   -4.3652    0.9098 H   0  0  0  0  0  0  0  0  0  0  0  0
   -3.1430   -3.4833    0.2651 C   0  0  0  0  0  0  0  0  0  0  0  0
   -3.9635   -2.8077    0.5187 H   0  0  0  0  0  0  0  0  0  0  0  0
   -3.2483   -3.8019   -0.7748 H   0  0  0  0  0  0  0  0  0  0  0  0
   -1.8123   -2.7810    0.4623 C   0  0  0  0  0  0  0  0  0  0  0  0
   -1.0214   -3.2066    1.2837 O   0  0  0  0  0  0  0  0  0  0  0  0
   -1.5100   -1.6652   -0.2946 N   0  0  0  0  0  0  0  0  0  0  0  0
   -2.1738   -1.4138   -1.0206 H   0  0  0  0  0  0  0  0  0  0  0  0
   -0.2204   -0.9476   -0.2446 C   0  0  1  0  0  0  0  0  0  0  0  0
    0.5751   -1.6514   -0.5097 H   0  0  0  0  0  0  0  0  0  0  0  0
   -0.2917    0.1699   -1.3055 C   0  0  0  0  0  0  0  0  0  0  0  0
   -0.4711   -0.2846   -2.2848 H   0  0  0  0  0  0  0  0  0  0  0  0
   -1.1501    0.8101   -1.0781 H   0  0  0  0  0  0  0  0  0  0  0  0
    0.9498    1.0318   -1.4145 C   0  0  0  0  0  0  0  0  0  0  0  0
    2.2393    0.4728   -1.4337 C   0  0  0  0  0  0  0  0  0  0  0  0
    2.3810   -0.5999   -1.3507 H   0  0  0  0  0  0  0  0  0  0  0  0
    3.3699    1.2889   -1.5444 C   0  0  0  0  0  0  0  0  0  0  0  0
    4.3600    0.8429   -1.5450 H   0  0  0  0  0  0  0  0  0  0  0  0
    3.2267    2.6748   -1.6448 C   0  0  0  0  0  0  0  0  0  0  0  0
    4.1058    3.3073   -1.7263 H   0  0  0  0  0  0  0  0  0  0  0  0
    1.9508    3.2438   -1.6336 C   0  0  0  0  0  0  0  0  0  0  0  0
    1.8383    4.3211   -1.7099 H   0  0  0  0  0  0  0  0  0  0  0  0
    0.8207    2.4267   -1.5191 C   0  0  0  0  0  0  0  0  0  0  0  0
   -0.1614    2.8886   -1.5098 H   0  0  0  0  0  0  0  0  0  0  0  0
    0.1279   -0.3759    1.1500 C   0  0  0  0  0  0  0  0  0  0  0  0
    1.2746   -0.4330    1.5741 O   0  0  0  0  0  0  0  0  0  0  0  0
   -0.8348    0.2908    1.8876 N   0  0  0  0  0  0  0  0  0  0  0  0
   -1.7916    0.2110    1.5619 H   0  0  0  0  0  0  0  0  0  0  0  0
   -0.5862    0.8043    3.2286 C   0  0  0  0  0  0  0  0  0  0  0  0
    0.2477    1.5141    3.2180 H   0  0  0  0  0  0  0  0  0  0  0  0
   -1.4731    1.3211    3.6070 H   0  0  0  0  0  0  0  0  0  0  0  0
   -0.3419   -0.0158    3.9120 H   0  0  0  0  0  0  0  0  0  0  0  0
  1  2  1  0  0  0  0
  2  3  1  0  0  0  0
  2  4  1  0  0  0  0
  2  5  1  0  0  0  0
  5  6  2  0  0  0  0
  5  7  1  0  0  0  0
  7  8  1  0  0  0  0
  7  9  1  0  0  0  0
  9 10  1  0  0  0  0
  9 11  1  0  0  0  0
  9 25  1  0  0  0  0
 11 12  1  0  0  0  0
 11 13  1  0  0  0  0
 11 14  1  0  0  0  0
 14 15  1  0  0  0  0
 14 23  2  0  0  0  0
 15 16  1  0  0  0  0
 15 17  2  0  0  0  0
 17 18  1  0  0  0  0
 17 19  1  0  0  0  0
 19 20  1  0  0  0  0
 19 21  2  0  0  0  0
 21 22  1  0  0  0  0
 21 23  1  0  0  0  0
 23 24  1  0  0  0  0
 25 26  2  0  0  0  0
 25 27  1  0  0  0  0
 27 28  1  0  0  0  0
 27 29  1  0  0  0  0
 29 30  1  0  0  0  0
 29 31  1  0  0  0  0
 29 32  1  0  0  0  0
M  END
$$$$

  -OEChem-03222214073D

 32 32  0     1  0  0  0  0  0999 V2000
   -3.1328   -4.3957    0.9190 H   0  0  0  0  0  0  0  0  0  0  0  0
   -3.0992   -3.5142    0.2722 C   0  0  0  0  0  0  0  0  0  0  0  0
   -3.9371   -2.8604    0.5257 H   0  0  0  0  0  0  0  0  0  0  0  0
   -3.1974   -3.8386   -0.7666 H   0  0  0  0  0  0  0  0  0  0  0  0
   -1.7874   -2.7763    0.4647 C   0  0  0  0  0  0  0  0  0  0  0  0
   -0.9850   -3.1780    1.2870 O   0  0  0  0  0  0  0  0  0  0  0  0
   -1.5133   -1.6577   -0.2991 N   0  0  0  0  0  0  0  0  0  0  0  0
   -2.1853   -1.4267   -1.0245 H   0  0  0  0  0  0  0  0  0  0  0  0
   -0.2343   -0.9198   -0.2677 C   0  0  1  0  0  0  0  0  0  0  0  0
    0.5723   -1.6079   -0.5415 H   0  0  0  0  0  0  0  0  0  0  0  0
   -0.3311    0.1939   -1.3283 C   0  0  0  0  0  0  0  0  0  0  0  0
   -0.5105   -0.2593   -2.3083 H   0  0  0  0  0  0  0  0  0  0  0  0
   -1.1918    0.8304   -1.0997 H   0  0  0  0  0  0  0  0  0  0  0  0
    0.9134    1.0477   -1.4220 C   0  0  0  0  0  0  0  0  0  0  0  0
    2.1533    0.4759   -1.7488 C   0  0  0  0  0  0  0  0  0  0  0  0
    2.2344   -0.5914   -1.9295 H   0  0  0  0  0  0  0  0  0  0  0  0
    3.3027    1.2684   -1.8329 C   0  0  0  0  0  0  0  0  0  0  0  0
    4.2580    0.8131   -2.0759 H   0  0  0  0  0  0  0  0  0  0  0  0
    3.2240    2.6431   -1.5939 C   0  0  0  0  0  0  0  0  0  0  0  0
    4.1178    3.2569   -1.6537 H   0  0  0  0  0  0  0  0  0  0  0  0
    1.9950    3.2235   -1.2685 C   0  0  0  0  0  0  0  0  0  0  0  0
    1.9340    4.2904   -1.0764 H   0  0  0  0  0  0  0  0  0  0  0  0
    0.8465    2.4295   -1.1819 C   0  0  0  0  0  0  0  0  0  0  0  0
   -0.0980    2.8954   -0.9198 H   0  0  0  0  0  0  0  0  0  0  0  0
    0.1245   -0.3392    1.1205 C   0  0  0  0  0  0  0  0  0  0  0  0
    1.2794   -0.3676    1.5248 O   0  0  0  0  0  0  0  0  0  0  0  0
   -0.8390    0.3142    1.8688 N   0  0  0  0  0  0  0  0  0  0  0  0
   -1.7994    0.2044    1.5630 H   0  0  0  0  0  0  0  0  0  0  0  0
   -0.5790    0.8335    3.2053 C   0  0  0  0  0  0  0  0  0  0  0  0
    0.2456    1.5541    3.1822 H   0  0  0  0  0  0  0  0  0  0  0  0
   -1.4675    1.3393    3.5947 H   0  0  0  0  0  0  0  0  0  0  0  0
   -0.3147    0.0180    3.8868 H   0  0  0  0  0  0  0  0  0  0  0  0
  1  2  1  0  0  0  0
  2  3  1  0  0  0  0
  2  4  1  0  0  0  0
  2  5  1  0  0  0  0
  5  6  2  0  0  0  0
  5  7  1  0  0  0  0
  7  8  1  0  0  0  0
  7  9  1  0  0  0  0
  9 10  1  0  0  0  0
  9 11  1  0  0  0  0
  9 25  1  0  0  0  0
 11 12  1  0  0  0  0
 11 13  1  0  0  0  0
 11 14  1  0  0  0  0
 14 15  1  0  0  0  0
 14 23  2  0  0  0  0
 15 16  1  0  0  0  0
 15 17  2  0  0  0  0
 17 18  1  0  0  0  0
 17 19  1  0  0  0  0
 19 20  1  0  0  0  0
 19 21  2  0  0  0  0
 21 22  1  0  0  0  0
 21 23  1  0  0  0  0
 23 24  1  0  0  0  0
 25 26  2  0  0  0  0
 25 27  1  0  0  0  0
 27 28  1  0  0  0  0
 27 29  1  0  0  0  0
 29 30  1  0  0  0  0
 29 31  1  0  0  0  0
 29 32  1  0  0  0  0
M  END
$$$$

  -OEChem-03222214073D

 32 32  0     1  0  0  0  0  0999 V2000
   -3.1019   -4.4010    0.9206 H   0  0  0  0  0  0  0  0  0  0  0  0
   -3.0774   -3.5184    0.2748 C   0  0  0  0  0  0  0  0  0  0  0  0
   -3.9199   -2.8718    0.5313 H   0  0  0  0  0  0  0  0  0  0  0  0
   -3.1761   -3.8420   -0.7640 H   0  0  0  0  0  0  0  0  0  0  0  0
   -1.7715   -2.7696    0.4644 C   0  0  0  0  0  0  0  0  0  0  0  0
   -0.9658   -3.1624    1.2877 O   0  0  0  0  0  0  0  0  0  0  0  0
   -1.5085   -1.6490   -0.3003 N   0  0  0  0  0  0  0  0  0  0  0  0
   -2.1820   -1.4269   -1.0269 H   0  0  0  0  0  0  0  0  0  0  0  0
   -0.2348   -0.9021   -0.2742 C   0  0  1  0  0  0  0  0  0  0  0  0
    0.5797   -1.5798   -0.5525 H   0  0  0  0  0  0  0  0  0  0  0  0
   -0.3447    0.2092   -1.3349 C   0  0  0  0  0  0  0  0  0  0  0  0
   -0.5279   -0.2434   -2.3145 H   0  0  0  0  0  0  0  0  0  0  0  0
   -1.2040    0.8470   -1.1041 H   0  0  0  0  0  0  0  0  0  0  0  0
    0.8996    1.0601   -1.4208 C   0  0  0  0  0  0  0  0  0  0  0  0
    2.0555    0.5619   -2.0401 C   0  0  0  0  0  0  0  0  0  0  0  0
    2.0634   -0.4416   -2.4540 H   0  0  0  0  0  0  0  0  0  0  0  0
    3.2122    1.3445   -2.1194 C   0  0  0  0  0  0  0  0  0  0  0  0
    4.1054    0.9467   -2.5916 H   0  0  0  0  0  0  0  0  0  0  0  0
    3.2226    2.6341   -1.5804 C   0  0  0  0  0  0  0  0  0  0  0  0
    4.1229    3.2387   -1.6350 H   0  0  0  0  0  0  0  0  0  0  0  0
    2.0759    3.1395   -0.9610 C   0  0  0  0  0  0  0  0  0  0  0  0
    2.0857    4.1376   -0.5338 H   0  0  0  0  0  0  0  0  0  0  0  0
    0.9200    2.3556   -0.8811 C   0  0  0  0  0  0  0  0  0  0  0  0
    0.0412    2.7563   -0.3859 H   0  0  0  0  0  0  0  0  0  0  0  0
    0.1206   -0.3213    1.1151 C   0  0  0  0  0  0  0  0  0  0  0  0
    1.2763   -0.3343    1.5174 O   0  0  0  0  0  0  0  0  0  0  0  0
   -0.8484    0.3227    1.8650 N   0  0  0  0  0  0  0  0  0  0  0  0
   -1.8083    0.1906    1.5665 H   0  0  0  0  0  0  0  0  0  0  0  0
   -0.5929    0.8294    3.2073 C   0  0  0  0  0  0  0  0  0  0  0  0
    0.2278    1.5544    3.1935 H   0  0  0  0  0  0  0  0  0  0  0  0
   -1.4842    1.3264    3.6013 H   0  0  0  0  0  0  0  0  0  0  0  0
   -0.3249    0.0082    3.8803 H   0  0  0  0  0  0  0  0  0  0  0  0
  1  2  1  0  0  0  0
  2  3  1  0  0  0  0
  2  4  1  0  0  0  0
  2  5  1  0  0  0  0
  5  6  2  0  0  0  0
  5  7  1  0  0  0  0
  7  8  1  0  0  0  0
  7  9  1  0  0  0  0
  9 10  1  0  0  0  0
  9 11  1  0  0  0  0
  9 25  1  0  0  0  0
 11 12  1  0  0  0  0
 11 13  1  0  0  0  0
 11 14  1  0  0  0  0
 14 15  1  0  0  0  0
 14 23  2  0  0  0  0
 15 16  1  0  0  0  0
 15 17  2  0  0  0  0
 17 18  1  0  0  0  0
 17 19  1  0  0  0  0
 19 20  1  0  0  0  0
 19 21  2  0  0  0  0
 21 22  1  0  0  0  0
 21 23  1  0  0  0  0
 23 24  1  0  0  0  0
 25 26  2  0  0  0  0
 25 27  1  0  0  0  0
 27 28  1  0  0  0  0
 27 29  1  0  0  0  0
 29 30  1  0  0  0  0
 29 31  1  0  0  0  0
 29 32  1  0  0  0  0
M  END
$$$$

  -OEChem-03222214073D

 32 32  0     1  0  0  0  0  0999 V2000
   -3.1233   -4.3918    0.8989 H   0  0  0  0  0  0  0  0  0  0  0  0
   -3.0874   -3.5051    0.2593 C   0  0  0  0  0  0  0  0  0  0  0  0
   -3.9272   -2.8540    0.5137 H   0  0  0  0  0  0  0  0  0  0  0  0
   -3.1807   -3.8210   -0.7825 H   0  0  0  0  0  0  0  0  0  0  0  0
   -1.7773   -2.7671    0.4637 C   0  0  0  0  0  0  0  0  0  0  0  0
   -0.9805   -3.1709    1.2904 O   0  0  0  0  0  0  0  0  0  0  0  0
   -1.5023   -1.6426   -0.2912 N   0  0  0  0  0  0  0  0  0  0  0  0
   -2.1706   -1.4105   -1.0196 H   0  0  0  0  0  0  0  0  0  0  0  0
   -0.2239   -0.9036   -0.2538 C   0  0  1  0  0  0  0  0  0  0  0  0
    0.5905   -1.5819   -0.5319 H   0  0  0  0  0  0  0  0  0  0  0  0
   -0.3255    0.2100   -1.3142 C   0  0  0  0  0  0  0  0  0  0  0  0
   -0.5173   -0.2419   -2.2926 H   0  0  0  0  0  0  0  0  0  0  0  0
   -1.1798    0.8540   -1.0815 H   0  0  0  0  0  0  0  0  0  0  0  0
    0.9173    1.0638   -1.4032 C   0  0  0  0  0  0  0  0  0  0  0  0
    1.9540    0.7075   -2.2786 C   0  0  0  0  0  0  0  0  0  0  0  0
    1.8777   -0.1958   -2.8759 H   0  0  0  0  0  0  0  0  0  0  0  0
    3.1009    1.5019   -2.3839 C   0  0  0  0  0  0  0  0  0  0  0  0
    3.9023    1.2120   -3.0571 H   0  0  0  0  0  0  0  0  0  0  0  0
    3.2194    2.6645   -1.6169 C   0  0  0  0  0  0  0  0  0  0  0  0
    4.1118    3.2787   -1.6934 H   0  0  0  0  0  0  0  0  0  0  0  0
    2.1903    3.0310   -0.7447 C   0  0  0  0  0  0  0  0  0  0  0  0
    2.2834    3.9296   -0.1422 H   0  0  0  0  0  0  0  0  0  0  0  0
    1.0439    2.2357   -0.6406 C   0  0  0  0  0  0  0  0  0  0  0  0
    0.2565    2.5284    0.0473 H   0  0  0  0  0  0  0  0  0  0  0  0
    0.1198   -0.3388    1.1449 C   0  0  0  0  0  0  0  0  0  0  0  0
    1.2719   -0.3523    1.5574 O   0  0  0  0  0  0  0  0  0  0  0  0
   -0.8565    0.3014    1.8888 N   0  0  0  0  0  0  0  0  0  0  0  0
   -1.8133    0.1678    1.5804 H   0  0  0  0  0  0  0  0  0  0  0  0
   -0.6174    0.7953    3.2387 C   0  0  0  0  0  0  0  0  0  0  0  0
    0.2006    1.5235    3.2409 H   0  0  0  0  0  0  0  0  0  0  0  0
   -1.5153    1.2851    3.6268 H   0  0  0  0  0  0  0  0  0  0  0  0
   -0.3548   -0.0317    3.9070 H   0  0  0  0  0  0  0  0  0  0  0  0
  1  2  1  0  0  0  0
  2  3  1  0  0  0  0
  2  4  1  0  0  0  0
  2  5  1  0  0  0  0
  5  6  2  0  0  0  0
  5  7  1  0  0  0  0
  7  8  1  0  0  0  0
  7  9  1  0  0  0  0
  9 10  1  0  0  0  0
  9 11  1  0  0  0  0
  9 25  1  0  0  0  0
 11 12  1  0  0  0  0
 11 13  1  0  0  0  0
 11 14  1  0  0  0  0
 14 15  1  0  0  0  0
 14 23  2  0  0  0  0
 15 16  1  0  0  0  0
 15 17  2  0  0  0  0
 17 18  1  0  0  0  0
 17 19  1  0  0  0  0
 19 20  1  0  0  0  0
 19 21  2  0  0  0  0
 21 22  1  0  0  0  0
 21 23  1  0  0  0  0
 23 24  1  0  0  0  0
 25 26  2  0  0  0  0
 25 27  1  0  0  0  0
 27 28  1  0  0  0  0
 27 29  1  0  0  0  0
 29 30  1  0  0  0  0
 29 31  1  0  0  0  0
 29 32  1  0  0  0  0
M  END
$$$$

  -OEChem-03222214073D

 32 32  0     1  0  0  0  0  0999 V2000
   -3.1749   -4.3696    0.8653 H   0  0  0  0  0  0  0  0  0  0  0  0
   -3.1175   -3.4760    0.2371 C   0  0  0  0  0  0  0  0  0  0  0  0
   -3.9469   -2.8126    0.4935 H   0  0  0  0  0  0  0  0  0  0  0  0
   -3.2092   -3.7774   -0.8092 H   0  0  0  0  0  0  0  0  0  0  0  0
   -1.7955   -2.7651    0.4606 C   0  0  0  0  0  0  0  0  0  0  0  0
   -1.0151   -3.1904    1.2921 O   0  0  0  0  0  0  0  0  0  0  0  0
   -1.4940   -1.6369   -0.2787 N   0  0  0  0  0  0  0  0  0  0  0  0
   -2.1501   -1.3878   -1.0124 H   0  0  0  0  0  0  0  0  0  0  0  0
   -0.2062   -0.9148   -0.2192 C   0  0  1  0  0  0  0  0  0  0  0  0
    0.6043   -1.6014   -0.4880 H   0  0  0  0  0  0  0  0  0  0  0  0
   -0.2818    0.1974   -1.2872 C   0  0  0  0  0  0  0  0  0  0  0  0
   -0.4769   -0.2627   -2.2610 H   0  0  0  0  0  0  0  0  0  0  0  0
   -1.1319    0.8493   -1.0618 H   0  0  0  0  0  0  0  0  0  0  0  0
    0.9583    1.0596   -1.3875 C   0  0  0  0  0  0  0  0  0  0  0  0
    1.8442    0.8850   -2.4627 C   0  0  0  0  0  0  0  0  0  0  0  0
    1.6693    0.1016   -3.1936 H   0  0  0  0  0  0  0  0  0  0  0  0
    2.9692    1.7049   -2.6027 C   0  0  0  0  0  0  0  0  0  0  0  0
    3.6546    1.5501   -3.4306 H   0  0  0  0  0  0  0  0  0  0  0  0
    3.2139    2.7206   -1.6750 C   0  0  0  0  0  0  0  0  0  0  0  0
    4.0897    3.3541   -1.7784 H   0  0  0  0  0  0  0  0  0  0  0  0
    2.3290    2.9186   -0.6121 C   0  0  0  0  0  0  0  0  0  0  0  0
    2.5155    3.7071    0.1105 H   0  0  0  0  0  0  0  0  0  0  0  0
    1.2042    2.0987   -0.4744 C   0  0  0  0  0  0  0  0  0  0  0  0
    0.5273    2.2731    0.3560 H   0  0  0  0  0  0  0  0  0  0  0  0
    0.1179   -0.3725    1.1927 C   0  0  0  0  0  0  0  0  0  0  0  0
    1.2617   -0.4038    1.6264 O   0  0  0  0  0  0  0  0  0  0  0  0
   -0.8640    0.2690    1.9281 N   0  0  0  0  0  0  0  0  0  0  0  0
   -1.8161    0.1515    1.5993 H   0  0  0  0  0  0  0  0  0  0  0  0
   -0.6468    0.7268    3.2945 C   0  0  0  0  0  0  0  0  0  0  0  0
    0.1737    1.4511    3.3304 H   0  0  0  0  0  0  0  0  0  0  0  0
   -1.5495    1.2099    3.6803 H   0  0  0  0  0  0  0  0  0  0  0  0
   -0.3988   -0.1184    3.9452 H   0  0  0  0  0  0  0  0  0  0  0  0
  1  2  1  0  0  0  0
  2  3  1  0  0  0  0
  2  4  1  0  0  0  0
  2  5  1  0  0  0  0
  5  6  2  0  0  0  0
  5  7  1  0  0  0  0
  7  8  1  0  0  0  0
  7  9  1  0  0  0  0
  9 10  1  0  0  0  0
  9 11  1  0  0  0  0
  9 25  1  0  0  0  0
 11 12  1  0  0  0  0
 11 13  1  0  0  0  0
 11 14  1  0  0  0  0
 14 15  1  0  0  0  0
 14 23  2  0  0  0  0
 15 16  1  0  0  0  0
 15 17  2  0  0  0  0
 17 18  1  0  0  0  0
 17 19  1  0  0  0  0
 19 20  1  0  0  0  0
 19 21  2  0  0  0  0
 21 22  1  0  0  0  0
 21 23  1  0  0  0  0
 23 24  1  0  0  0  0
 25 26  2  0  0  0  0
 25 27  1  0  0  0  0
 27 28  1  0  0  0  0
 27 29  1  0  0  0  0
 29 30  1  0  0  0  0
 29 31  1  0  0  0  0
 29 32  1  0  0  0  0
M  END
$$$$

  -OEChem-03222214073D

 32 32  0     1  0  0  0  0  0999 V2000
   -3.2332   -4.3438    0.8201 H   0  0  0  0  0  0  0  0  0  0  0  0
   -3.1502   -3.4434    0.2044 C   0  0  0  0  0  0  0  0  0  0  0  0
   -3.9709   -2.7680    0.4576 H   0  0  0  0  0  0  0  0  0  0  0  0
   -3.2321   -3.7295   -0.8469 H   0  0  0  0  0  0  0  0  0  0  0  0
   -1.8183   -2.7607    0.4551 C   0  0  0  0  0  0  0  0  0  0  0  0
   -1.0549   -3.2156    1.2866 O   0  0  0  0  0  0  0  0  0  0  0  0
   -1.4858   -1.6289   -0.2653 N   0  0  0  0  0  0  0  0  0  0  0  0
   -2.1325   -1.3510   -0.9971 H   0  0  0  0  0  0  0  0  0  0  0  0
   -0.1864   -0.9301   -0.1777 C   0  0  1  0  0  0  0  0  0  0  0  0
    0.6168   -1.6301   -0.4342 H   0  0  0  0  0  0  0  0  0  0  0  0
   -0.2263    0.1805   -1.2543 C   0  0  0  0  0  0  0  0  0  0  0  0
   -0.4224   -0.2918   -2.2221 H   0  0  0  0  0  0  0  0  0  0  0  0
   -1.0731    0.8408   -1.0415 H   0  0  0  0  0  0  0  0  0  0  0  0
    1.0101    1.0540   -1.3736 C   0  0  0  0  0  0  0  0  0  0  0  0
    1.7103    1.0838   -2.5924 C   0  0  0  0  0  0  0  0  0  0  0  0
    1.4109    0.4373   -3.4114 H   0  0  0  0  0  0  0  0  0  0  0  0
    2.8112    1.9283   -2.7719 C   0  0  0  0  0  0  0  0  0  0  0  0
    3.3523    1.9237   -3.7135 H   0  0  0  0  0  0  0  0  0  0  0  0
    3.2148    2.7788   -1.7404 C   0  0  0  0  0  0  0  0  0  0  0  0
    4.0717    3.4326   -1.8747 H   0  0  0  0  0  0  0  0  0  0  0  0
    2.5067    2.7913   -0.5367 C   0  0  0  0  0  0  0  0  0  0  0  0
    2.8084    3.4586    0.2652 H   0  0  0  0  0  0  0  0  0  0  0  0
    1.4055    1.9471   -0.3610 C   0  0  0  0  0  0  0  0  0  0  0  0
    0.8649    2.0043    0.5776 H   0  0  0  0  0  0  0  0  0  0  0  0
    0.1112   -0.4172    1.2502 C   0  0  0  0  0  0  0  0  0  0  0  0
    1.2425   -0.4794    1.7130 O   0  0  0  0  0  0  0  0  0  0  0  0
   -0.8772    0.2271    1.9744 N   0  0  0  0  0  0  0  0  0  0  0  0
   -1.8225    0.1397    1.6173 H   0  0  0  0  0  0  0  0  0  0  0  0
   -0.6872    0.6495    3.3560 C   0  0  0  0  0  0  0  0  0  0  0  0
    0.1381    1.3656    3.4277 H   0  0  0  0  0  0  0  0  0  0  0  0
   -1.5943    1.1305    3.7335 H   0  0  0  0  0  0  0  0  0  0  0  0
   -0.4609   -0.2141    3.9903 H   0  0  0  0  0  0  0  0  0  0  0  0
  1  2  1  0  0  0  0
  2  3  1  0  0  0  0
  2  4  1  0  0  0  0
  2  5  1  0  0  0  0
  5  6  2  0  0  0  0
  5  7  1  0  0  0  0
  7  8  1  0  0  0  0
  7  9  1  0  0  0  0
  9 10  1  0  0  0  0
  9 11  1  0  0  0  0
  9 25  1  0  0  0  0
 11 12  1  0  0  0  0
 11 13  1  0  0  0  0
 11 14  1  0  0  0  0
 14 15  1  0  0  0  0
 14 23  2  0  0  0  0
 15 16  1  0  0  0  0
 15 17  2  0  0  0  0
 17 18  1  0  0  0  0
 17 19  1  0  0  0  0
 19 20  1  0  0  0  0
 19 21  2  0  0  0  0
 21 22  1  0  0  0  0
 21 23  1  0  0  0  0
 23 24  1  0  0  0  0
 25 26  2  0  0  0  0
 25 27  1  0  0  0  0
 27 28  1  0  0  0  0
 27 29  1  0  0  0  0
 29 30  1  0  0  0  0
 29 31  1  0  0  0  0
 29 32  1  0  0  0  0
M  END
$$$$

  -OEChem-03222214073D

 32 32  0     1  0  0  0  0  0999 V2000
   -3.3020   -4.3015    0.7716 H   0  0  0  0  0  0  0  0  0  0  0  0
   -3.1834   -3.3992    0.1647 C   0  0  0  0  0  0  0  0  0  0  0  0
   -3.9881   -2.7021    0.4103 H   0  0  0  0  0  0  0  0  0  0  0  0
   -3.2560   -3.6746   -0.8902 H   0  0  0  0  0  0  0  0  0  0  0  0
   -1.8371   -2.7572    0.4431 C   0  0  0  0  0  0  0  0  0  0  0  0
   -1.0966   -3.2471    1.2754 O   0  0  0  0  0  0  0  0  0  0  0  0
   -1.4639   -1.6249   -0.2565 N   0  0  0  0  0  0  0  0  0  0  0  0
   -2.0947   -1.3163   -0.9897 H   0  0  0  0  0  0  0  0  0  0  0  0
   -0.1535   -0.9516   -0.1317 C   0  0  1  0  0  0  0  0  0  0  0  0
    0.6462   -1.6608   -0.3732 H   0  0  0  0  0  0  0  0  0  0  0  0
   -0.1635    0.1586   -1.2138 C   0  0  0  0  0  0  0  0  0  0  0  0
   -0.3534   -0.3280   -2.1759 H   0  0  0  0  0  0  0  0  0  0  0  0
   -1.0128    0.8198   -1.0142 H   0  0  0  0  0  0  0  0  0  0  0  0
    1.0604    1.0530   -1.3606 C   0  0  0  0  0  0  0  0  0  0  0  0
    1.5393    1.3064   -2.6597 C   0  0  0  0  0  0  0  0  0  0  0  0
    1.0850    0.8172   -3.5158 H   0  0  0  0  0  0  0  0  0  0  0  0
    2.6166    2.1701   -2.8838 C   0  0  0  0  0  0  0  0  0  0  0  0
    2.9847    2.3306   -3.8929 H   0  0  0  0  0  0  0  0  0  0  0  0
    3.2182    2.8273   -1.8099 C   0  0  0  0  0  0  0  0  0  0  0  0
    4.0571    3.4962   -1.9777 H   0  0  0  0  0  0  0  0  0  0  0  0
    2.7266    2.6316   -0.5188 C   0  0  0  0  0  0  0  0  0  0  0  0
    3.1766    3.1552    0.3197 H   0  0  0  0  0  0  0  0  0  0  0  0
    1.6477    1.7689   -0.2991 C   0  0  0  0  0  0  0  0  0  0  0  0
    1.2815    1.6937    0.7169 H   0  0  0  0  0  0  0  0  0  0  0  0
    0.1050   -0.4644    1.3126 C   0  0  0  0  0  0  0  0  0  0  0  0
    1.2108   -0.5857    1.8238 O   0  0  0  0  0  0  0  0  0  0  0  0
   -0.8935    0.1868    2.0163 N   0  0  0  0  0  0  0  0  0  0  0  0
   -1.8244    0.1475    1.6160 H   0  0  0  0  0  0  0  0  0  0  0  0
   -0.7464    0.5777    3.4127 C   0  0  0  0  0  0  0  0  0  0  0  0
    0.0891    1.2759    3.5298 H   0  0  0  0  0  0  0  0  0  0  0  0
   -1.6578    1.0686    3.7666 H   0  0  0  0  0  0  0  0  0  0  0  0
   -0.5600   -0.3022    4.0377 H   0  0  0  0  0  0  0  0  0  0  0  0
  1  2  1  0  0  0  0
  2  3  1  0  0  0  0
  2  4  1  0  0  0  0
  2  5  1  0  0  0  0
  5  6  2  0  0  0  0
  5  7  1  0  0  0  0
  7  8  1  0  0  0  0
  7  9  1  0  0  0  0
  9 10  1  0  0  0  0
  9 11  1  0  0  0  0
  9 25  1  0  0  0  0
 11 12  1  0  0  0  0
 11 13  1  0  0  0  0
 11 14  1  0  0  0  0
 14 15  1  0  0  0  0
 14 23  2  0  0  0  0
 15 16  1  0  0  0  0
 15 17  2  0  0  0  0
 17 18  1  0  0  0  0
 17 19  1  0  0  0  0
 19 20  1  0  0  0  0
 19 21  2  0  0  0  0
 21 22  1  0  0  0  0
 21 23  1  0  0  0  0
 23 24  1  0  0  0  0
 25 26  2  0  0  0  0
 25 27  1  0  0  0  0
 27 28  1  0  0  0  0
 27 29  1  0  0  0  0
 29 30  1  0  0  0  0
 29 31  1  0  0  0  0
 29 32  1  0  0  0  0
M  END
$$$$

  -OEChem-03222214073D

 32 32  0     1  0  0  0  0  0999 V2000
   -3.3594   -4.2450    0.7472 H   0  0  0  0  0  0  0  0  0  0  0  0
   -3.1991   -3.3519    0.1361 C   0  0  0  0  0  0  0  0  0  0  0  0
   -3.9910   -2.6310    0.3529 H   0  0  0  0  0  0  0  0  0  0  0  0
   -3.2499   -3.6350   -0.9181 H   0  0  0  0  0  0  0  0  0  0  0  0
   -1.8442   -2.7438    0.4468 C   0  0  0  0  0  0  0  0  0  0  0  0
   -1.1352   -3.2550    1.2933 O   0  0  0  0  0  0  0  0  0  0  0  0
   -1.4275   -1.6224   -0.2461 N   0  0  0  0  0  0  0  0  0  0  0  0
   -2.0343   -1.3018   -0.9943 H   0  0  0  0  0  0  0  0  0  0  0  0
   -0.1087   -0.9718   -0.0863 C   0  0  1  0  0  0  0  0  0  0  0  0
    0.6925   -1.6849   -0.3108 H   0  0  0  0  0  0  0  0  0  0  0  0
   -0.1046    0.1465   -1.1618 C   0  0  0  0  0  0  0  0  0  0  0  0
   -0.2871   -0.3450   -2.1232 H   0  0  0  0  0  0  0  0  0  0  0  0
   -0.9607    0.7996   -0.9642 H   0  0  0  0  0  0  0  0  0  0  0  0
    1.0987    1.0674   -1.3399 C   0  0  0  0  0  0  0  0  0  0  0  0
    1.3261    1.5642   -2.6375 C   0  0  0  0  0  0  0  0  0  0  0  0
    0.6806    1.2638   -3.4572 H   0  0  0  0  0  0  0  0  0  0  0  0
    2.3812    2.4396   -2.9126 C   0  0  0  0  0  0  0  0  0  0  0  0
    2.5422    2.7970   -3.9254 H   0  0  0  0  0  0  0  0  0  0  0  0
    3.2277    2.8546   -1.8849 C   0  0  0  0  0  0  0  0  0  0  0  0
    4.0510    3.5318   -2.0927 H   0  0  0  0  0  0  0  0  0  0  0  0
    3.0048    2.4008   -0.5847 C   0  0  0  0  0  0  0  0  0  0  0  0
    3.6520    2.7284    0.2237 H   0  0  0  0  0  0  0  0  0  0  0  0
    1.9467    1.5269   -0.3126 C   0  0  0  0  0  0  0  0  0  0  0  0
    1.8216    1.2432    0.7214 H   0  0  0  0  0  0  0  0  0  0  0  0
    0.0956   -0.4881    1.3692 C   0  0  0  0  0  0  0  0  0  0  0  0
    1.1484   -0.7026    1.9566 O   0  0  0  0  0  0  0  0  0  0  0  0
   -0.9204    0.1790    2.0316 N   0  0  0  0  0  0  0  0  0  0  0  0
   -1.8226    0.2010    1.5694 H   0  0  0  0  0  0  0  0  0  0  0  0
   -0.8472    0.5247    3.4456 C   0  0  0  0  0  0  0  0  0  0  0  0
    0.0210    1.1633    3.6394 H   0  0  0  0  0  0  0  0  0  0  0  0
   -1.7473    1.0666    3.7504 H   0  0  0  0  0  0  0  0  0  0  0  0
   -0.7622   -0.3807    4.0558 H   0  0  0  0  0  0  0  0  0  0  0  0
  1  2  1  0  0  0  0
  2  3  1  0  0  0  0
  2  4  1  0  0  0  0
  2  5  1  0  0  0  0
  5  6  2  0  0  0  0
  5  7  1  0  0  0  0
  7  8  1  0  0  0  0
  7  9  1  0  0  0  0
  9 10  1  0  0  0  0
  9 11  1  0  0  0  0
  9 25  1  0  0  0  0
 11 12  1  0  0  0  0
 11 13  1  0  0  0  0
 11 14  1  0  0  0  0
 14 15  1  0  0  0  0
 14 23  2  0  0  0  0
 15 16  1  0  0  0  0
 15 17  2  0  0  0  0
 17 18  1  0  0  0  0
 17 19  1  0  0  0  0
 19 20  1  0  0  0  0
 19 21  2  0  0  0  0
 21 22  1  0  0  0  0
 21 23  1  0  0  0  0
 23 24  1  0  0  0  0
 25 26  2  0  0  0  0
 25 27  1  0  0  0  0
 27 28  1  0  0  0  0
 27 29  1  0  0  0  0
 29 30  1  0  0  0  0
 29 31  1  0  0  0  0
 29 32  1  0  0  0  0
M  END
$$$$

  -OEChem-03222214073D

 32 32  0     1  0  0  0  0  0999 V2000
   -3.3569   -4.2260    0.7824 H   0  0  0  0  0  0  0  0  0  0  0  0
   -3.1934   -3.3373    0.1661 C   0  0  0  0  0  0  0  0  0  0  0  0
   -3.9782   -2.6094    0.3845 H   0  0  0  0  0  0  0  0  0  0  0  0
   -3.2533   -3.6255   -0.8860 H   0  0  0  0  0  0  0  0  0  0  0  0
   -1.8311   -2.7391    0.4642 C   0  0  0  0  0  0  0  0  0  0  0  0
   -1.1223   -3.2505    1.3106 O   0  0  0  0  0  0  0  0  0  0  0  0
   -1.4059   -1.6297   -0.2431 N   0  0  0  0  0  0  0  0  0  0  0  0
   -2.0155   -1.3074   -0.9883 H   0  0  0  0  0  0  0  0  0  0  0  0
   -0.0880   -0.9763   -0.0819 C   0  0  1  0  0  0  0  0  0  0  0  0
    0.7224   -1.6793   -0.3041 H   0  0  0  0  0  0  0  0  0  0  0  0
   -0.1008    0.1617   -1.1339 C   0  0  0  0  0  0  0  0  0  0  0  0
   -0.2790   -0.3098   -2.1062 H   0  0  0  0  0  0  0  0  0  0  0  0
   -0.9619    0.8034   -0.9202 H   0  0  0  0  0  0  0  0  0  0  0  0
    1.0929    1.0917   -1.3095 C   0  0  0  0  0  0  0  0  0  0  0  0
    1.1134    1.8660   -2.4839 C   0  0  0  0  0  0  0  0  0  0  0  0
    0.2883    1.8053   -3.1872 H   0  0  0  0  0  0  0  0  0  0  0  0
    2.1742    2.7307   -2.7718 C   0  0  0  0  0  0  0  0  0  0  0  0
    2.1614    3.3250   -3.6805 H   0  0  0  0  0  0  0  0  0  0  0  0
    3.2522    2.8269   -1.8916 C   0  0  0  0  0  0  0  0  0  0  0  0
    4.0805    3.4947   -2.1099 H   0  0  0  0  0  0  0  0  0  0  0  0
    3.2660    2.0495   -0.7328 C   0  0  0  0  0  0  0  0  0  0  0  0
    4.1088    2.1065   -0.0499 H   0  0  0  0  0  0  0  0  0  0  0  0
    2.2036    1.1846   -0.4490 C   0  0  0  0  0  0  0  0  0  0  0  0
    2.2980    0.5895    0.4466 H   0  0  0  0  0  0  0  0  0  0  0  0
    0.0871   -0.4725    1.3746 C   0  0  0  0  0  0  0  0  0  0  0  0
    1.1058   -0.7134    2.0094 O   0  0  0  0  0  0  0  0  0  0  0  0
   -0.9463    0.2003    2.0044 N   0  0  0  0  0  0  0  0  0  0  0  0
   -1.8294    0.2404    1.5085 H   0  0  0  0  0  0  0  0  0  0  0  0
   -0.9182    0.5509    3.4187 C   0  0  0  0  0  0  0  0  0  0  0  0
   -0.0598    1.1949    3.6368 H   0  0  0  0  0  0  0  0  0  0  0  0
   -1.8306    1.0883    3.6939 H   0  0  0  0  0  0  0  0  0  0  0  0
   -0.8468   -0.3520    4.0342 H   0  0  0  0  0  0  0  0  0  0  0  0
  1  2  1  0  0  0  0
  2  3  1  0  0  0  0
  2  4  1  0  0  0  0
  2  5  1  0  0  0  0
  5  6  2  0  0  0  0
  5  7  1  0  0  0  0
  7  8  1  0  0  0  0
  7  9  1  0  0  0  0
  9 10  1  0  0  0  0
  9 11  1  0  0  0  0
  9 25  1  0  0  0  0
 11 12  1  0  0  0  0
 11 13  1  0  0  0  0
 11 14  1  0  0  0  0
 14 15  1  0  0  0  0
 14 23  2  0  0  0  0
 15 16  1  0  0  0  0
 15 17  2  0  0  0  0
 17 18  1  0  0  0  0
 17 19  1  0  0  0  0
 19 20  1  0  0  0  0
 19 21  2  0  0  0  0
 21 22  1  0  0  0  0
 21 23  1  0  0  0  0
 23 24  1  0  0  0  0
 25 26  2  0  0  0  0
 25 27  1  0  0  0  0
 27 28  1  0  0  0  0
 27 29  1  0  0  0  0
 29 30  1  0  0  0  0
 29 31  1  0  0  0  0
 29 32  1  0  0  0  0
M  END
$$$$

  -OEChem-03222214073D

 32 32  0     1  0  0  0  0  0999 V2000
   -3.2767   -4.3250    0.8512 H   0  0  0  0  0  0  0  0  0  0  0  0
   -3.1718   -3.4419    0.2142 C   0  0  0  0  0  0  0  0  0  0  0  0
   -3.9956   -2.7561    0.4258 H   0  0  0  0  0  0  0  0  0  0  0  0
   -3.2257   -3.7555   -0.8312 H   0  0  0  0  0  0  0  0  0  0  0  0
   -1.8441   -2.7585    0.4847 C   0  0  0  0  0  0  0  0  0  0  0  0
   -1.1117   -3.1869    1.3574 O   0  0  0  0  0  0  0  0  0  0  0  0
   -1.4799   -1.6559   -0.2647 N   0  0  0  0  0  0  0  0  0  0  0  0
   -2.0929   -1.4112   -1.0363 H   0  0  0  0  0  0  0  0  0  0  0  0
   -0.1765   -0.9671   -0.1621 C   0  0  1  0  0  0  0  0  0  0  0  0
    0.6146   -1.6860   -0.3996 H   0  0  0  0  0  0  0  0  0  0  0  0
   -0.1927    0.1599   -1.2187 C   0  0  0  0  0  0  0  0  0  0  0  0
   -0.6026   -0.2537   -2.1458 H   0  0  0  0  0  0  0  0  0  0  0  0
   -0.8774    0.9445   -0.8803 H   0  0  0  0  0  0  0  0  0  0  0  0
    1.1305    0.8100   -1.5851 C   0  0  0  0  0  0  0  0  0  0  0  0
    1.1027    1.8350   -2.5455 C   0  0  0  0  0  0  0  0  0  0  0  0
    0.1559    2.1518   -2.9720 H   0  0  0  0  0  0  0  0  0  0  0  0
    2.2777    2.4681   -2.9638 C   0  0  0  0  0  0  0  0  0  0  0  0
    2.2345    3.2646   -3.7008 H   0  0  0  0  0  0  0  0  0  0  0  0
    3.5079    2.0755   -2.4329 C   0  0  0  0  0  0  0  0  0  0  0  0
    4.4228    2.5655   -2.7524 H   0  0  0  0  0  0  0  0  0  0  0  0
    3.5583    1.0454   -1.4915 C   0  0  0  0  0  0  0  0  0  0  0  0
    4.5124    0.7314   -1.0782 H   0  0  0  0  0  0  0  0  0  0  0  0
    2.3821    0.4117   -1.0769 C   0  0  0  0  0  0  0  0  0  0  0  0
    2.4783   -0.3933   -0.3568 H   0  0  0  0  0  0  0  0  0  0  0  0
    0.0963   -0.4018    1.2551 C   0  0  0  0  0  0  0  0  0  0  0  0
    1.2044   -0.4913    1.7673 O   0  0  0  0  0  0  0  0  0  0  0  0
   -0.9004    0.2814    1.9304 N   0  0  0  0  0  0  0  0  0  0  0  0
   -1.8341    0.2175    1.5401 H   0  0  0  0  0  0  0  0  0  0  0  0
   -0.7431    0.7547    3.2998 C   0  0  0  0  0  0  0  0  0  0  0  0
    0.0955    1.4555    3.3689 H   0  0  0  0  0  0  0  0  0  0  0  0
   -1.6503    1.2699    3.6288 H   0  0  0  0  0  0  0  0  0  0  0  0
   -0.5559   -0.0869    3.9751 H   0  0  0  0  0  0  0  0  0  0  0  0
  1  2  1  0  0  0  0
  2  3  1  0  0  0  0
  2  4  1  0  0  0  0
  2  5  1  0  0  0  0
  5  6  2  0  0  0  0
  5  7  1  0  0  0  0
  7  8  1  0  0  0  0
  7  9  1  0  0  0  0
  9 10  1  0  0  0  0
  9 11  1  0  0  0  0
  9 25  1  0  0  0  0
 11 12  1  0  0  0  0
 11 13  1  0  0  0  0
 11 14  1  0  0  0  0
 14 15  1  0  0  0  0
 14 23  2  0  0  0  0
 15 16  1  0  0  0  0
 15 17  2  0  0  0  0
 17 18  1  0  0  0  0
 17 19  1  0  0  0  0
 19 20  1  0  0  0  0
 19 21  2  0  0  0  0
 21 22  1  0  0  0  0
 21 23  1  0  0  0  0
 23 24  1  0  0  0  0
 25 26  2  0  0  0  0
 25 27  1  0  0  0  0
 27 28  1  0  0  0  0
 27 29  1  0  0  0  0
 29 30  1  0  0  0  0
 29 31  1  0  0  0  0
 29 32  1  0  0  0  0
M  END
$$$$

  -OEChem-03222214073D

 32 32  0     1  0  0  0  0  0999 V2000
   -3.2689   -4.3568    0.8516 H   0  0  0  0  0  0  0  0  0  0  0  0
   -3.1846   -3.4698    0.2171 C   0  0  0  0  0  0  0  0  0  0  0  0
   -4.0130   -2.7948    0.4449 H   0  0  0  0  0  0  0  0  0  0  0  0
   -3.2507   -3.7792   -0.8288 H   0  0  0  0  0  0  0  0  0  0  0  0
   -1.8613   -2.7723    0.4701 C   0  0  0  0  0  0  0  0  0  0  0  0
   -1.1101   -3.1950    1.3295 O   0  0  0  0  0  0  0  0  0  0  0  0
   -1.5205   -1.6616   -0.2778 N   0  0  0  0  0  0  0  0  0  0  0  0
   -2.1498   -1.4122   -1.0347 H   0  0  0  0  0  0  0  0  0  0  0  0
   -0.2210   -0.9664   -0.1896 C   0  0  1  0  0  0  0  0  0  0  0  0
    0.5528   -1.7001   -0.4347 H   0  0  0  0  0  0  0  0  0  0  0  0
   -0.2292    0.1510   -1.2545 C   0  0  0  0  0  0  0  0  0  0  0  0
   -0.6347   -0.2622   -2.1834 H   0  0  0  0  0  0  0  0  0  0  0  0
   -0.9121    0.9392   -0.9210 H   0  0  0  0  0  0  0  0  0  0  0  0
    1.1063    0.7840   -1.6059 C   0  0  0  0  0  0  0  0  0  0  0  0
    1.0893    1.9966   -2.3150 C   0  0  0  0  0  0  0  0  0  0  0  0
    0.1424    2.4548   -2.5836 H   0  0  0  0  0  0  0  0  0  0  0  0
    2.2781    2.6335   -2.6869 C   0  0  0  0  0  0  0  0  0  0  0  0
    2.2451    3.5716   -3.2329 H   0  0  0  0  0  0  0  0  0  0  0  0
    3.5086    2.0642   -2.3533 C   0  0  0  0  0  0  0  0  0  0  0  0
    4.4340    2.5578   -2.6350 H   0  0  0  0  0  0  0  0  0  0  0  0
    3.5456    0.8580   -1.6508 C   0  0  0  0  0  0  0  0  0  0  0  0
    4.4993    0.4132   -1.3820 H   0  0  0  0  0  0  0  0  0  0  0  0
    2.3561    0.2203   -1.2831 C   0  0  0  0  0  0  0  0  0  0  0  0
    2.4378   -0.7094   -0.7301 H   0  0  0  0  0  0  0  0  0  0  0  0
    0.1043   -0.3986    1.2120 C   0  0  0  0  0  0  0  0  0  0  0  0
    1.2426   -0.4598    1.6578 O   0  0  0  0  0  0  0  0  0  0  0  0
   -0.8644    0.2865    1.9241 N   0  0  0  0  0  0  0  0  0  0  0  0
   -1.8160    0.2053    1.5833 H   0  0  0  0  0  0  0  0  0  0  0  0
   -0.6419    0.7907    3.2731 C   0  0  0  0  0  0  0  0  0  0  0  0
    0.1950    1.4969    3.2852 H   0  0  0  0  0  0  0  0  0  0  0  0
   -1.5346    1.3091    3.6355 H   0  0  0  0  0  0  0  0  0  0  0  0
   -0.4164   -0.0349    3.9564 H   0  0  0  0  0  0  0  0  0  0  0  0
  1  2  1  0  0  0  0
  2  3  1  0  0  0  0
  2  4  1  0  0  0  0
  2  5  1  0  0  0  0
  5  6  2  0  0  0  0
  5  7  1  0  0  0  0
  7  8  1  0  0  0  0
  7  9  1  0  0  0  0
  9 10  1  0  0  0  0
  9 11  1  0  0  0  0
  9 25  1  0  0  0  0
 11 12  1  0  0  0  0
 11 13  1  0  0  0  0
 11 14  1  0  0  0  0
 14 15  1  0  0  0  0
 14 23  2  0  0  0  0
 15 16  1  0  0  0  0
 15 17  2  0  0  0  0
 17 18  1  0  0  0  0
 17 19  1  0  0  0  0
 19 20  1  0  0  0  0
 19 21  2  0  0  0  0
 21 22  1  0  0  0  0
 21 23  1  0  0  0  0
 23 24  1  0  0  0  0
 25 26  2  0  0  0  0
 25 27  1  0  0  0  0
 27 28  1  0  0  0  0
 27 29  1  0  0  0  0
 29 30  1  0  0  0  0
 29 31  1  0  0  0  0
 29 32  1  0  0  0  0
M  END
$$$$

  -OEChem-03222214073D

 32 32  0     1  0  0  0  0  0999 V2000
   -3.2507   -4.3795    0.8537 H   0  0  0  0  0  0  0  0  0  0  0  0
   -3.1745   -3.4948    0.2149 C   0  0  0  0  0  0  0  0  0  0  0  0
   -4.0123   -2.8288    0.4347 H   0  0  0  0  0  0  0  0  0  0  0  0
   -3.2320   -3.8111   -0.8294 H   0  0  0  0  0  0  0  0  0  0  0  0
   -1.8610   -2.7789    0.4696 C   0  0  0  0  0  0  0  0  0  0  0  0
   -1.1059   -3.1887    1.3319 O   0  0  0  0  0  0  0  0  0  0  0  0
   -1.5340   -1.6653   -0.2797 N   0  0  0  0  0  0  0  0  0  0  0  0
   -2.1667   -1.4255   -1.0370 H   0  0  0  0  0  0  0  0  0  0  0  0
   -0.2392   -0.9608   -0.2005 C   0  0  1  0  0  0  0  0  0  0  0  0
    0.5335   -1.6949   -0.4431 H   0  0  0  0  0  0  0  0  0  0  0  0
   -0.2559    0.1549   -1.2665 C   0  0  0  0  0  0  0  0  0  0  0  0
   -0.6559   -0.2577   -2.1979 H   0  0  0  0  0  0  0  0  0  0  0  0
   -0.9439    0.9397   -0.9350 H   0  0  0  0  0  0  0  0  0  0  0  0
    1.0859    0.7789   -1.6054 C   0  0  0  0  0  0  0  0  0  0  0  0
    1.1109    2.1218   -2.0171 C   0  0  0  0  0  0  0  0  0  0  0  0
    0.1894    2.6935   -2.0673 H   0  0  0  0  0  0  0  0  0  0  0  0
    2.3125    2.7477   -2.3644 C   0  0  0  0  0  0  0  0  0  0  0  0
    2.3131    3.7885   -2.6739 H   0  0  0  0  0  0  0  0  0  0  0  0
    3.5120    2.0351   -2.3097 C   0  0  0  0  0  0  0  0  0  0  0  0
    4.4477    2.5195   -2.5723 H   0  0  0  0  0  0  0  0  0  0  0  0
    3.5048    0.6965   -1.9118 C   0  0  0  0  0  0  0  0  0  0  0  0
    4.4355    0.1391   -1.8624 H   0  0  0  0  0  0  0  0  0  0  0  0
    2.3020    0.0704   -1.5683 C   0  0  0  0  0  0  0  0  0  0  0  0
    2.3451   -0.9693   -1.2638 H   0  0  0  0  0  0  0  0  0  0  0  0
    0.1083   -0.3860    1.1911 C   0  0  0  0  0  0  0  0  0  0  0  0
    1.2607   -0.4205    1.6017 O   0  0  0  0  0  0  0  0  0  0  0  0
   -0.8503    0.2979    1.9181 N   0  0  0  0  0  0  0  0  0  0  0  0
   -1.8099    0.1943    1.6069 H   0  0  0  0  0  0  0  0  0  0  0  0
   -0.5979    0.8253    3.2530 C   0  0  0  0  0  0  0  0  0  0  0  0
    0.2331    1.5382    3.2327 H   0  0  0  0  0  0  0  0  0  0  0  0
   -1.4854    1.3426    3.6292 H   0  0  0  0  0  0  0  0  0  0  0  0
   -0.3485    0.0132    3.9441 H   0  0  0  0  0  0  0  0  0  0  0  0
  1  2  1  0  0  0  0
  2  3  1  0  0  0  0
  2  4  1  0  0  0  0
  2  5  1  0  0  0  0
  5  6  2  0  0  0  0
  5  7  1  0  0  0  0
  7  8  1  0  0  0  0
  7  9  1  0  0  0  0
  9 10  1  0  0  0  0
  9 11  1  0  0  0  0
  9 25  1  0  0  0  0
 11 12  1  0  0  0  0
 11 13  1  0  0  0  0
 11 14  1  0  0  0  0
 14 15  1  0  0  0  0
 14 23  2  0  0  0  0
 15 16  1  0  0  0  0
 15 17  2  0  0  0  0
 17 18  1  0  0  0  0
 17 19  1  0  0  0  0
 19 20  1  0  0  0  0
 19 21  2  0  0  0  0
 21 22  1  0  0  0  0
 21 23  1  0  0  0  0
 23 24  1  0  0  0  0
 25 26  2  0  0  0  0
 25 27  1  0  0  0  0
 27 28  1  0  0  0  0
 27 29  1  0  0  0  0
 29 30  1  0  0  0  0
 29 31  1  0  0  0  0
 29 32  1  0  0  0  0
M  END
$$$$

  -OEChem-03222214073D

 32 32  0     1  0  0  0  0  0999 V2000
   -3.1958   -4.3986    0.8780 H   0  0  0  0  0  0  0  0  0  0  0  0
   -3.1384   -3.5161    0.2340 C   0  0  0  0  0  0  0  0  0  0  0  0
   -3.9810   -2.8589    0.4621 H   0  0  0  0  0  0  0  0  0  0  0  0
   -3.2060   -3.8380   -0.8080 H   0  0  0  0  0  0  0  0  0  0  0  0
   -1.8302   -2.7838    0.4687 C   0  0  0  0  0  0  0  0  0  0  0  0
   -1.0585   -3.1838    1.3209 O   0  0  0  0  0  0  0  0  0  0  0  0
   -1.5268   -1.6668   -0.2859 N   0  0  0  0  0  0  0  0  0  0  0  0
   -2.1725   -1.4347   -1.0345 H   0  0  0  0  0  0  0  0  0  0  0  0
   -0.2409   -0.9442   -0.2214 C   0  0  1  0  0  0  0  0  0  0  0  0
    0.5476   -1.6602   -0.4711 H   0  0  0  0  0  0  0  0  0  0  0  0
   -0.2851    0.1768   -1.2800 C   0  0  0  0  0  0  0  0  0  0  0  0
   -0.6854   -0.2311   -2.2133 H   0  0  0  0  0  0  0  0  0  0  0  0
   -0.9761    0.9559   -0.9422 H   0  0  0  0  0  0  0  0  0  0  0  0
    1.0629    0.7892   -1.6019 C   0  0  0  0  0  0  0  0  0  0  0  0
    1.1832    2.1858   -1.6900 C   0  0  0  0  0  0  0  0  0  0  0  0
    0.3262    2.8222   -1.4933 H   0  0  0  0  0  0  0  0  0  0  0  0
    2.4050    2.7807   -2.0219 C   0  0  0  0  0  0  0  0  0  0  0  0
    2.4855    3.8621   -2.0766 H   0  0  0  0  0  0  0  0  0  0  0  0
    3.5232    1.9843   -2.2802 C   0  0  0  0  0  0  0  0  0  0  0  0
    4.4743    2.4439   -2.5317 H   0  0  0  0  0  0  0  0  0  0  0  0
    3.4146    0.5933   -2.2133 C   0  0  0  0  0  0  0  0  0  0  0  0
    4.2810   -0.0296   -2.4143 H   0  0  0  0  0  0  0  0  0  0  0  0
    2.1914   -0.0004   -1.8848 C   0  0  0  0  0  0  0  0  0  0  0  0
    2.1373   -1.0832   -1.8516 H   0  0  0  0  0  0  0  0  0  0  0  0
    0.1083   -0.3643    1.1681 C   0  0  0  0  0  0  0  0  0  0  0  0
    1.2645   -0.3744    1.5689 O   0  0  0  0  0  0  0  0  0  0  0  0
   -0.8558    0.3052    1.9015 N   0  0  0  0  0  0  0  0  0  0  0  0
   -1.8159    0.1836    1.5989 H   0  0  0  0  0  0  0  0  0  0  0  0
   -0.6015    0.8419    3.2324 C   0  0  0  0  0  0  0  0  0  0  0  0
    0.2196    1.5661    3.2034 H   0  0  0  0  0  0  0  0  0  0  0  0
   -1.4934    1.3486    3.6130 H   0  0  0  0  0  0  0  0  0  0  0  0
   -0.3360    0.0363    3.9252 H   0  0  0  0  0  0  0  0  0  0  0  0
  1  2  1  0  0  0  0
  2  3  1  0  0  0  0
  2  4  1  0  0  0  0
  2  5  1  0  0  0  0
  5  6  2  0  0  0  0
  5  7  1  0  0  0  0
  7  8  1  0  0  0  0
  7  9  1  0  0  0  0
  9 10  1  0  0  0  0
  9 11  1  0  0  0  0
  9 25  1  0  0  0  0
 11 12  1  0  0  0  0
 11 13  1  0  0  0  0
 11 14  1  0  0  0  0
 14 15  1  0  0  0  0
 14 23  2  0  0  0  0
 15 16  1  0  0  0  0
 15 17  2  0  0  0  0
 17 18  1  0  0  0  0
 17 19  1  0  0  0  0
 19 20  1  0  0  0  0
 19 21  2  0  0  0  0
 21 22  1  0  0  0  0
 21 23  1  0  0  0  0
 23 24  1  0  0  0  0
 25 26  2  0  0  0  0
 25 27  1  0  0  0  0
 27 28  1  0  0  0  0
 27 29  1  0  0  0  0
 29 30  1  0  0  0  0
 29 31  1  0  0  0  0
 29 32  1  0  0  0  0
M  END
$$$$

  -OEChem-03222214073D

 32 32  0     1  0  0  0  0  0999 V2000
   -3.1505   -4.4088    0.8924 H   0  0  0  0  0  0  0  0  0  0  0  0
   -3.1105   -3.5262    0.2474 C   0  0  0  0  0  0  0  0  0  0  0  0
   -3.9553   -2.8764    0.4881 H   0  0  0  0  0  0  0  0  0  0  0  0
   -3.1912   -3.8493   -0.7933 H   0  0  0  0  0  0  0  0  0  0  0  0
   -1.8052   -2.7830    0.4620 C   0  0  0  0  0  0  0  0  0  0  0  0
   -1.0160   -3.1785    1.3000 O   0  0  0  0  0  0  0  0  0  0  0  0
   -1.5235   -1.6623   -0.2955 N   0  0  0  0  0  0  0  0  0  0  0  0
   -2.1854   -1.4312   -1.0301 H   0  0  0  0  0  0  0  0  0  0  0  0
   -0.2445   -0.9260   -0.2482 C   0  0  1  0  0  0  0  0  0  0  0  0
    0.5552   -1.6250   -0.5140 H   0  0  0  0  0  0  0  0  0  0  0  0
   -0.3154    0.1963   -1.3012 C   0  0  0  0  0  0  0  0  0  0  0  0
   -0.7222   -0.2083   -2.2334 H   0  0  0  0  0  0  0  0  0  0  0  0
   -1.0031    0.9754   -0.9571 H   0  0  0  0  0  0  0  0  0  0  0  0
    1.0365    0.7959   -1.6134 C   0  0  0  0  0  0  0  0  0  0  0  0
    1.2733    2.1615   -1.3919 C   0  0  0  0  0  0  0  0  0  0  0  0
    0.4979    2.7892   -0.9645 H   0  0  0  0  0  0  0  0  0  0  0  0
    2.5129    2.7296   -1.7051 C   0  0  0  0  0  0  0  0  0  0  0  0
    2.6882    3.7853   -1.5206 H   0  0  0  0  0  0  0  0  0  0  0  0
    3.5281    1.9378   -2.2490 C   0  0  0  0  0  0  0  0  0  0  0  0
    4.4926    2.3764   -2.4867 H   0  0  0  0  0  0  0  0  0  0  0  0
    3.3005    0.5788   -2.4828 C   0  0  0  0  0  0  0  0  0  0  0  0
    4.0881   -0.0393   -2.9038 H   0  0  0  0  0  0  0  0  0  0  0  0
    2.0598    0.0126   -2.1711 C   0  0  0  0  0  0  0  0  0  0  0  0
    1.8994   -1.0437   -2.3627 H   0  0  0  0  0  0  0  0  0  0  0  0
    0.1131   -0.3452    1.1390 C   0  0  0  0  0  0  0  0  0  0  0  0
    1.2731   -0.3385    1.5284 O   0  0  0  0  0  0  0  0  0  0  0  0
   -0.8518    0.3114    1.8832 N   0  0  0  0  0  0  0  0  0  0  0  0
   -1.8137    0.1724    1.5937 H   0  0  0  0  0  0  0  0  0  0  0  0
   -0.5905    0.8454    3.2138 C   0  0  0  0  0  0  0  0  0  0  0  0
    0.2240    1.5767    3.1802 H   0  0  0  0  0  0  0  0  0  0  0  0
   -1.4834    1.3429    3.6039 H   0  0  0  0  0  0  0  0  0  0  0  0
   -0.3122    0.0389    3.9005 H   0  0  0  0  0  0  0  0  0  0  0  0
  1  2  1  0  0  0  0
  2  3  1  0  0  0  0
  2  4  1  0  0  0  0
  2  5  1  0  0  0  0
  5  6  2  0  0  0  0
  5  7  1  0  0  0  0
  7  8  1  0  0  0  0
  7  9  1  0  0  0  0
  9 10  1  0  0  0  0
  9 11  1  0  0  0  0
  9 25  1  0  0  0  0
 11 12  1  0  0  0  0
 11 13  1  0  0  0  0
 11 14  1  0  0  0  0
 14 15  1  0  0  0  0
 14 23  2  0  0  0  0
 15 16  1  0  0  0  0
 15 17  2  0  0  0  0
 17 18  1  0  0  0  0
 17 19  1  0  0  0  0
 19 20  1  0  0  0  0
 19 21  2  0  0  0  0
 21 22  1  0  0  0  0
 21 23  1  0  0  0  0
 23 24  1  0  0  0  0
 25 26  2  0  0  0  0
 25 27  1  0  0  0  0
 27 28  1  0  0  0  0
 27 29  1  0  0  0  0
 29 30  1  0  0  0  0
 29 31  1  0  0  0  0
 29 32  1  0  0  0  0
M  END
$$$$

  -OEChem-03222214073D

 32 32  0     1  0  0  0  0  0999 V2000
   -3.1280   -4.4091    0.8988 H   0  0  0  0  0  0  0  0  0  0  0  0
   -3.0989   -3.5234    0.2576 C   0  0  0  0  0  0  0  0  0  0  0  0
   -3.9415   -2.8767    0.5134 H   0  0  0  0  0  0  0  0  0  0  0  0
   -3.1940   -3.8417   -0.7832 H   0  0  0  0  0  0  0  0  0  0  0  0
   -1.7920   -2.7784    0.4569 C   0  0  0  0  0  0  0  0  0  0  0  0
   -0.9912   -3.1746    1.2835 O   0  0  0  0  0  0  0  0  0  0  0  0
   -1.5228   -1.6552   -0.3014 N   0  0  0  0  0  0  0  0  0  0  0  0
   -2.1952   -1.4237   -1.0263 H   0  0  0  0  0  0  0  0  0  0  0  0
   -0.2466   -0.9132   -0.2675 C   0  0  1  0  0  0  0  0  0  0  0  0
    0.5573   -1.6031   -0.5472 H   0  0  0  0  0  0  0  0  0  0  0  0
   -0.3356    0.2074   -1.3192 C   0  0  0  0  0  0  0  0  0  0  0  0
   -0.7531   -0.1965   -2.2471 H   0  0  0  0  0  0  0  0  0  0  0  0
   -1.0170    0.9897   -0.9695 H   0  0  0  0  0  0  0  0  0  0  0  0
    1.0168    0.7997   -1.6332 C   0  0  0  0  0  0  0  0  0  0  0  0
    1.3757    2.0614   -1.1351 C   0  0  0  0  0  0  0  0  0  0  0  0
    0.6892    2.6144   -0.5013 H   0  0  0  0  0  0  0  0  0  0  0  0
    2.6263    2.6130   -1.4330 C   0  0  0  0  0  0  0  0  0  0  0  0
    2.8980    3.5857   -1.0341 H   0  0  0  0  0  0  0  0  0  0  0  0
    3.5298    1.9076   -2.2332 C   0  0  0  0  0  0  0  0  0  0  0  0
    4.5030    2.3331   -2.4587 H   0  0  0  0  0  0  0  0  0  0  0  0
    3.1816    0.6496   -2.7340 C   0  0  0  0  0  0  0  0  0  0  0  0
    3.8853    0.0966   -3.3489 H   0  0  0  0  0  0  0  0  0  0  0  0
    1.9301    0.0994   -2.4360 C   0  0  0  0  0  0  0  0  0  0  0  0
    1.6738   -0.8805   -2.8267 H   0  0  0  0  0  0  0  0  0  0  0  0
    0.1199   -0.3351    1.1191 C   0  0  0  0  0  0  0  0  0  0  0  0
    1.2824   -0.3218    1.5009 O   0  0  0  0  0  0  0  0  0  0  0  0
   -0.8432    0.3138    1.8725 N   0  0  0  0  0  0  0  0  0  0  0  0
   -1.8060    0.1718    1.5873 H   0  0  0  0  0  0  0  0  0  0  0  0
   -0.5775    0.8375    3.2064 C   0  0  0  0  0  0  0  0  0  0  0  0
    0.2386    1.5674    3.1765 H   0  0  0  0  0  0  0  0  0  0  0  0
   -1.4684    1.3342    3.6022 H   0  0  0  0  0  0  0  0  0  0  0  0
   -0.2995    0.0256    3.8868 H   0  0  0  0  0  0  0  0  0  0  0  0
  1  2  1  0  0  0  0
  2  3  1  0  0  0  0
  2  4  1  0  0  0  0
  2  5  1  0  0  0  0
  5  6  2  0  0  0  0
  5  7  1  0  0  0  0
  7  8  1  0  0  0  0
  7  9  1  0  0  0  0
  9 10  1  0  0  0  0
  9 11  1  0  0  0  0
  9 25  1  0  0  0  0
 11 12  1  0  0  0  0
 11 13  1  0  0  0  0
 11 14  1  0  0  0  0
 14 15  1  0  0  0  0
 14 23  2  0  0  0  0
 15 16  1  0  0  0  0
 15 17  2  0  0  0  0
 17 18  1  0  0  0  0
 17 19  1  0  0  0  0
 19 20  1  0  0  0  0
 19 21  2  0  0  0  0
 21 22  1  0  0  0  0
 21 23  1  0  0  0  0
 23 24  1  0  0  0  0
 25 26  2  0  0  0  0
 25 27  1  0  0  0  0
 27 28  1  0  0  0  0
 27 29  1  0  0  0  0
 29 30  1  0  0  0  0
 29 31  1  0  0  0  0
 29 32  1  0  0  0  0
M  END
$$$$

  -OEChem-03222214073D

 32 32  0     1  0  0  0  0  0999 V2000
   -3.1353   -4.3962    0.9039 H   0  0  0  0  0  0  0  0  0  0  0  0
   -3.0994   -3.5138    0.2586 C   0  0  0  0  0  0  0  0  0  0  0  0
   -3.9418   -2.8635    0.5054 H   0  0  0  0  0  0  0  0  0  0  0  0
   -3.1883   -3.8368   -0.7813 H   0  0  0  0  0  0  0  0  0  0  0  0
   -1.7918   -2.7717    0.4629 C   0  0  0  0  0  0  0  0  0  0  0  0
   -0.9960   -3.1683    1.2941 O   0  0  0  0  0  0  0  0  0  0  0  0
   -1.5184   -1.6494   -0.2955 N   0  0  0  0  0  0  0  0  0  0  0  0
   -2.1895   -1.4176   -1.0213 H   0  0  0  0  0  0  0  0  0  0  0  0
   -0.2393   -0.9116   -0.2647 C   0  0  1  0  0  0  0  0  0  0  0  0
    0.5653   -1.5999   -0.5476 H   0  0  0  0  0  0  0  0  0  0  0  0
   -0.3317    0.2076   -1.3189 C   0  0  0  0  0  0  0  0  0  0  0  0
   -0.7633   -0.1957   -2.2405 H   0  0  0  0  0  0  0  0  0  0  0  0
   -1.0044    0.9954   -0.9646 H   0  0  0  0  0  0  0  0  0  0  0  0
    1.0174    0.8016   -1.6447 C   0  0  0  0  0  0  0  0  0  0  0  0
    1.5120    1.8985   -0.9228 C   0  0  0  0  0  0  0  0  0  0  0  0
    0.9325    2.3230   -0.1085 H   0  0  0  0  0  0  0  0  0  0  0  0
    2.7630    2.4447   -1.2280 C   0  0  0  0  0  0  0  0  0  0  0  0
    3.1394    3.2877   -0.6562 H   0  0  0  0  0  0  0  0  0  0  0  0
    3.5325    1.8977   -2.2588 C   0  0  0  0  0  0  0  0  0  0  0  0
    4.5067    2.3177   -2.4907 H   0  0  0  0  0  0  0  0  0  0  0  0
    3.0500    0.8035   -2.9826 C   0  0  0  0  0  0  0  0  0  0  0  0
    3.6497    0.3738   -3.7792 H   0  0  0  0  0  0  0  0  0  0  0  0
    1.7989    0.2576   -2.6755 C   0  0  0  0  0  0  0  0  0  0  0  0
    1.4396   -0.5968   -3.2405 H   0  0  0  0  0  0  0  0  0  0  0  0
    0.1220   -0.3385    1.1258 C   0  0  0  0  0  0  0  0  0  0  0  0
    1.2822   -0.3253    1.5147 O   0  0  0  0  0  0  0  0  0  0  0  0
   -0.8448    0.3090    1.8755 N   0  0  0  0  0  0  0  0  0  0  0  0
   -1.8060    0.1592    1.5887 H   0  0  0  0  0  0  0  0  0  0  0  0
   -0.5871    0.8220    3.2150 C   0  0  0  0  0  0  0  0  0  0  0  0
    0.2272    1.5540    3.1961 H   0  0  0  0  0  0  0  0  0  0  0  0
   -1.4811    1.3130    3.6106 H   0  0  0  0  0  0  0  0  0  0  0  0
   -0.3107    0.0047    3.8894 H   0  0  0  0  0  0  0  0  0  0  0  0
  1  2  1  0  0  0  0
  2  3  1  0  0  0  0
  2  4  1  0  0  0  0
  2  5  1  0  0  0  0
  5  6  2  0  0  0  0
  5  7  1  0  0  0  0
  7  8  1  0  0  0  0
  7  9  1  0  0  0  0
  9 10  1  0  0  0  0
  9 11  1  0  0  0  0
  9 25  1  0  0  0  0
 11 12  1  0  0  0  0
 11 13  1  0  0  0  0
 11 14  1  0  0  0  0
 14 15  1  0  0  0  0
 14 23  2  0  0  0  0
 15 16  1  0  0  0  0
 15 17  2  0  0  0  0
 17 18  1  0  0  0  0
 17 19  1  0  0  0  0
 19 20  1  0  0  0  0
 19 21  2  0  0  0  0
 21 22  1  0  0  0  0
 21 23  1  0  0  0  0
 23 24  1  0  0  0  0
 25 26  2  0  0  0  0
 25 27  1  0  0  0  0
 27 28  1  0  0  0  0
 27 29  1  0  0  0  0
 29 30  1  0  0  0  0
 29 31  1  0  0  0  0
 29 32  1  0  0  0  0
M  END
$$$$

  -OEChem-03222214073D

 32 32  0     1  0  0  0  0  0999 V2000
   -3.1591   -4.3759    0.8940 H   0  0  0  0  0  0  0  0  0  0  0  0
   -3.1098   -3.4904    0.2537 C   0  0  0  0  0  0  0  0  0  0  0  0
   -3.9469   -2.8323    0.4985 H   0  0  0  0  0  0  0  0  0  0  0  0
   -3.1948   -3.8070   -0.7887 H   0  0  0  0  0  0  0  0  0  0  0  0
   -1.7963   -2.7625    0.4709 C   0  0  0  0  0  0  0  0  0  0  0  0
   -1.0116   -3.1702    1.3071 O   0  0  0  0  0  0  0  0  0  0  0  0
   -1.5059   -1.6411   -0.2827 N   0  0  0  0  0  0  0  0  0  0  0  0
   -2.1667   -1.4048   -1.0165 H   0  0  0  0  0  0  0  0  0  0  0  0
   -0.2202   -0.9145   -0.2396 C   0  0  1  0  0  0  0  0  0  0  0  0
    0.5843   -1.6066   -0.5132 H   0  0  0  0  0  0  0  0  0  0  0  0
   -0.3028    0.1969   -1.3077 C   0  0  0  0  0  0  0  0  0  0  0  0
   -0.7439   -0.2169   -2.2201 H   0  0  0  0  0  0  0  0  0  0  0  0
   -0.9733    0.9882   -0.9568 H   0  0  0  0  0  0  0  0  0  0  0  0
    1.0361    0.8093   -1.6573 C   0  0  0  0  0  0  0  0  0  0  0  0
    1.6786    1.7088   -0.7914 C   0  0  0  0  0  0  0  0  0  0  0  0
    1.2213    1.9869    0.1535 H   0  0  0  0  0  0  0  0  0  0  0  0
    2.9213    2.2568   -1.1251 C   0  0  0  0  0  0  0  0  0  0  0  0
    3.4080    2.9459   -0.4414 H   0  0  0  0  0  0  0  0  0  0  0  0
    3.5384    1.9114   -2.3301 C   0  0  0  0  0  0  0  0  0  0  0  0
    4.5055    2.3338   -2.5860 H   0  0  0  0  0  0  0  0  0  0  0  0
    2.9115    1.0150   -3.1996 C   0  0  0  0  0  0  0  0  0  0  0  0
    3.3920    0.7396   -4.1337 H   0  0  0  0  0  0  0  0  0  0  0  0
    1.6689    0.4666   -2.8633 C   0  0  0  0  0  0  0  0  0  0  0  0
    1.2005   -0.2342   -3.5475 H   0  0  0  0  0  0  0  0  0  0  0  0
    0.1173   -0.3548    1.1625 C   0  0  0  0  0  0  0  0  0  0  0  0
    1.2663   -0.3690    1.5833 O   0  0  0  0  0  0  0  0  0  0  0  0
   -0.8591    0.2930    1.8996 N   0  0  0  0  0  0  0  0  0  0  0  0
   -1.8149    0.1622    1.5862 H   0  0  0  0  0  0  0  0  0  0  0  0
   -0.6288    0.7767    3.2551 C   0  0  0  0  0  0  0  0  0  0  0  0
    0.1905    1.5034    3.2697 H   0  0  0  0  0  0  0  0  0  0  0  0
   -1.5287    1.2652    3.6407 H   0  0  0  0  0  0  0  0  0  0  0  0
   -0.3727   -0.0559    3.9190 H   0  0  0  0  0  0  0  0  0  0  0  0
  1  2  1  0  0  0  0
  2  3  1  0  0  0  0
  2  4  1  0  0  0  0
  2  5  1  0  0  0  0
  5  6  2  0  0  0  0
  5  7  1  0  0  0  0
  7  8  1  0  0  0  0
  7  9  1  0  0  0  0
  9 10  1  0  0  0  0
  9 11  1  0  0  0  0
  9 25  1  0  0  0  0
 11 12  1  0  0  0  0
 11 13  1  0  0  0  0
 11 14  1  0  0  0  0
 14 15  1  0  0  0  0
 14 23  2  0  0  0  0
 15 16  1  0  0  0  0
 15 17  2  0  0  0  0
 17 18  1  0  0  0  0
 17 19  1  0  0  0  0
 19 20  1  0  0  0  0
 19 21  2  0  0  0  0
 21 22  1  0  0  0  0
 21 23  1  0  0  0  0
 23 24  1  0  0  0  0
 25 26  2  0  0  0  0
 25 27  1  0  0  0  0
 27 28  1  0  0  0  0
 27 29  1  0  0  0  0
 29 30  1  0  0  0  0
 29 31  1  0  0  0  0
 29 32  1  0  0  0  0
M  END
$$$$

  -OEChem-03222214073D

 32 32  0     1  0  0  0  0  0999 V2000
   -3.1905   -4.3499    0.8751 H   0  0  0  0  0  0  0  0  0  0  0  0
   -3.1213   -3.4608    0.2417 C   0  0  0  0  0  0  0  0  0  0  0  0
   -3.9520   -2.7929    0.4815 H   0  0  0  0  0  0  0  0  0  0  0  0
   -3.1983   -3.7693   -0.8036 H   0  0  0  0  0  0  0  0  0  0  0  0
   -1.8004   -2.7526    0.4788 C   0  0  0  0  0  0  0  0  0  0  0  0
   -1.0321   -3.1781    1.3213 O   0  0  0  0  0  0  0  0  0  0  0  0
   -1.4831   -1.6331   -0.2676 N   0  0  0  0  0  0  0  0  0  0  0  0
   -2.1306   -1.3851   -1.0092 H   0  0  0  0  0  0  0  0  0  0  0  0
   -0.1898   -0.9205   -0.2013 C   0  0  1  0  0  0  0  0  0  0  0  0
    0.6157   -1.6171   -0.4599 H   0  0  0  0  0  0  0  0  0  0  0  0
   -0.2570    0.1854   -1.2814 C   0  0  0  0  0  0  0  0  0  0  0  0
   -0.7009   -0.2425   -2.1859 H   0  0  0  0  0  0  0  0  0  0  0  0
   -0.9315    0.9760   -0.9375 H   0  0  0  0  0  0  0  0  0  0  0  0
    1.0681    0.8248   -1.6574 C   0  0  0  0  0  0  0  0  0  0  0  0
    1.8763    1.5049   -0.7295 C   0  0  0  0  0  0  0  0  0  0  0  0
    1.5625    1.6363    0.3001 H   0  0  0  0  0  0  0  0  0  0  0  0
    3.1056    2.0514   -1.1124 C   0  0  0  0  0  0  0  0  0  0  0  0
    3.7167    2.5686   -0.3783 H   0  0  0  0  0  0  0  0  0  0  0  0
    3.5475    1.9297   -2.4315 C   0  0  0  0  0  0  0  0  0  0  0  0
    4.5036    2.3520   -2.7260 H   0  0  0  0  0  0  0  0  0  0  0  0
    2.7562    1.2606   -3.3675 C   0  0  0  0  0  0  0  0  0  0  0  0
    3.0976    1.1618   -4.3936 H   0  0  0  0  0  0  0  0  0  0  0  0
    1.5285    0.7120   -2.9814 C   0  0  0  0  0  0  0  0  0  0  0  0
    0.9363    0.1887   -3.7254 H   0  0  0  0  0  0  0  0  0  0  0  0
    0.1092   -0.3748    1.2153 C   0  0  0  0  0  0  0  0  0  0  0  0
    1.2339   -0.4480    1.6928 O   0  0  0  0  0  0  0  0  0  0  0  0
   -0.8831    0.2753    1.9285 N   0  0  0  0  0  0  0  0  0  0  0  0
   -1.8259    0.1867    1.5655 H   0  0  0  0  0  0  0  0  0  0  0  0
   -0.7034    0.7139    3.3066 C   0  0  0  0  0  0  0  0  0  0  0  0
    0.1268    1.4246    3.3781 H   0  0  0  0  0  0  0  0  0  0  0  0
   -1.6106    1.2070    3.6679 H   0  0  0  0  0  0  0  0  0  0  0  0
   -0.4908   -0.1428    3.9549 H   0  0  0  0  0  0  0  0  0  0  0  0
  1  2  1  0  0  0  0
  2  3  1  0  0  0  0
  2  4  1  0  0  0  0
  2  5  1  0  0  0  0
  5  6  2  0  0  0  0
  5  7  1  0  0  0  0
  7  8  1  0  0  0  0
  7  9  1  0  0  0  0
  9 10  1  0  0  0  0
  9 11  1  0  0  0  0
  9 25  1  0  0  0  0
 11 12  1  0  0  0  0
 11 13  1  0  0  0  0
 11 14  1  0  0  0  0
 14 15  1  0  0  0  0
 14 23  2  0  0  0  0
 15 16  1  0  0  0  0
 15 17  2  0  0  0  0
 17 18  1  0  0  0  0
 17 19  1  0  0  0  0
 19 20  1  0  0  0  0
 19 21  2  0  0  0  0
 21 22  1  0  0  0  0
 21 23  1  0  0  0  0
 23 24  1  0  0  0  0
 25 26  2  0  0  0  0
 25 27  1  0  0  0  0
 27 28  1  0  0  0  0
 27 29  1  0  0  0  0
 29 30  1  0  0  0  0
 29 31  1  0  0  0  0
 29 32  1  0  0  0  0
M  END
$$$$

  -OEChem-03222214073D

 32 32  0     1  0  0  0  0  0999 V2000
   -3.2592   -4.2975    0.8640 H   0  0  0  0  0  0  0  0  0  0  0  0
   -3.1515   -3.4134    0.2291 C   0  0  0  0  0  0  0  0  0  0  0  0
   -3.9639   -2.7185    0.4541 H   0  0  0  0  0  0  0  0  0  0  0  0
   -3.2225   -3.7224   -0.8166 H   0  0  0  0  0  0  0  0  0  0  0  0
   -1.8124   -2.7477    0.4853 C   0  0  0  0  0  0  0  0  0  0  0  0
   -1.0689   -3.1996    1.3359 O   0  0  0  0  0  0  0  0  0  0  0  0
   -1.4512   -1.6380   -0.2556 N   0  0  0  0  0  0  0  0  0  0  0  0
   -2.0818   -1.3696   -1.0046 H   0  0  0  0  0  0  0  0  0  0  0  0
   -0.1473   -0.9473   -0.1574 C   0  0  1  0  0  0  0  0  0  0  0  0
    0.6580   -1.6521   -0.3933 H   0  0  0  0  0  0  0  0  0  0  0  0
   -0.1897    0.1537   -1.2472 C   0  0  0  0  0  0  0  0  0  0  0  0
   -0.6262   -0.2891   -2.1481 H   0  0  0  0  0  0  0  0  0  0  0  0
   -0.8713    0.9436   -0.9161 H   0  0  0  0  0  0  0  0  0  0  0  0
    1.1220    0.8151   -1.6462 C   0  0  0  0  0  0  0  0  0  0  0  0
    2.0931    1.2610   -0.7308 C   0  0  0  0  0  0  0  0  0  0  0  0
    1.9432    1.2001    0.3387 H   0  0  0  0  0  0  0  0  0  0  0  0
    3.2910    1.8332   -1.1721 C   0  0  0  0  0  0  0  0  0  0  0  0
    4.0264    2.1683   -0.4462 H   0  0  0  0  0  0  0  0  0  0  0  0
    3.5413    1.9760   -2.5377 C   0  0  0  0  0  0  0  0  0  0  0  0
    4.4730    2.4187   -2.8776 H   0  0  0  0  0  0  0  0  0  0  0  0
    2.5876    1.5485   -3.4622 C   0  0  0  0  0  0  0  0  0  0  0  0
    2.7773    1.6589   -4.5258 H   0  0  0  0  0  0  0  0  0  0  0  0
    1.3918    0.9744   -3.0183 C   0  0  0  0  0  0  0  0  0  0  0  0
    0.6707    0.6464   -3.7604 H   0  0  0  0  0  0  0  0  0  0  0  0
    0.1046   -0.4060    1.2710 C   0  0  0  0  0  0  0  0  0  0  0  0
    1.1900   -0.5526    1.8176 O   0  0  0  0  0  0  0  0  0  0  0  0
   -0.9035    0.2592    1.9476 N   0  0  0  0  0  0  0  0  0  0  0  0
   -1.8264    0.2216    1.5290 H   0  0  0  0  0  0  0  0  0  0  0  0
   -0.7841    0.6624    3.3431 C   0  0  0  0  0  0  0  0  0  0  0  0
    0.0648    1.3416    3.4751 H   0  0  0  0  0  0  0  0  0  0  0  0
   -1.6922    1.1800    3.6663 H   0  0  0  0  0  0  0  0  0  0  0  0
   -0.6367   -0.2145    3.9827 H   0  0  0  0  0  0  0  0  0  0  0  0
  1  2  1  0  0  0  0
  2  3  1  0  0  0  0
  2  4  1  0  0  0  0
  2  5  1  0  0  0  0
  5  6  2  0  0  0  0
  5  7  1  0  0  0  0
  7  8  1  0  0  0  0
  7  9  1  0  0  0  0
  9 10  1  0  0  0  0
  9 11  1  0  0  0  0
  9 25  1  0  0  0  0
 11 12  1  0  0  0  0
 11 13  1  0  0  0  0
 11 14  1  0  0  0  0
 14 15  1  0  0  0  0
 14 23  2  0  0  0  0
 15 16  1  0  0  0  0
 15 17  2  0  0  0  0
 17 18  1  0  0  0  0
 17 19  1  0  0  0  0
 19 20  1  0  0  0  0
 19 21  2  0  0  0  0
 21 22  1  0  0  0  0
 21 23  1  0  0  0  0
 23 24  1  0  0  0  0
 25 26  2  0  0  0  0
 25 27  1  0  0  0  0
 27 28  1  0  0  0  0
 27 29  1  0  0  0  0
 29 30  1  0  0  0  0
 29 31  1  0  0  0  0
 29 32  1  0  0  0  0
M  END
$$$$

  -OEChem-03222214073D

 32 32  0     1  0  0  0  0  0999 V2000
   -3.3211   -4.2558    0.8795 H   0  0  0  0  0  0  0  0  0  0  0  0
   -3.1876   -3.3784    0.2401 C   0  0  0  0  0  0  0  0  0  0  0  0
   -3.9865   -2.6641    0.4527 H   0  0  0  0  0  0  0  0  0  0  0  0
   -3.2550   -3.6929   -0.8042 H   0  0  0  0  0  0  0  0  0  0  0  0
   -1.8362   -2.7410    0.5055 C   0  0  0  0  0  0  0  0  0  0  0  0
   -1.1145   -3.2018    1.3700 O   0  0  0  0  0  0  0  0  0  0  0  0
   -1.4361   -1.6530   -0.2481 N   0  0  0  0  0  0  0  0  0  0  0  0
   -2.0508   -1.3795   -1.0084 H   0  0  0  0  0  0  0  0  0  0  0  0
   -0.1182   -0.9892   -0.1399 C   0  0  1  0  0  0  0  0  0  0  0  0
    0.6798   -1.7071   -0.3596 H   0  0  0  0  0  0  0  0  0  0  0  0
   -0.1370    0.1154   -1.2263 C   0  0  0  0  0  0  0  0  0  0  0  0
   -0.5697   -0.3267   -2.1299 H   0  0  0  0  0  0  0  0  0  0  0  0
   -0.8150    0.9105   -0.8994 H   0  0  0  0  0  0  0  0  0  0  0  0
    1.1734    0.7714   -1.6409 C   0  0  0  0  0  0  0  0  0  0  0  0
    2.2920    0.9458   -0.8043 C   0  0  0  0  0  0  0  0  0  0  0  0
    2.3047    0.6115    0.2225 H   0  0  0  0  0  0  0  0  0  0  0  0
    3.4542    1.5673   -1.2735 C   0  0  0  0  0  0  0  0  0  0  0  0
    4.3057    1.6848   -0.6096 H   0  0  0  0  0  0  0  0  0  0  0  0
    3.5221    2.0338   -2.5868 C   0  0  0  0  0  0  0  0  0  0  0  0
    4.4266    2.5143   -2.9483 H   0  0  0  0  0  0  0  0  0  0  0  0
    2.4216    1.8800   -3.4305 C   0  0  0  0  0  0  0  0  0  0  0  0
    2.4677    2.2442   -4.4526 H   0  0  0  0  0  0  0  0  0  0  0  0
    1.2613    1.2577   -2.9586 C   0  0  0  0  0  0  0  0  0  0  0  0
    0.4181    1.1549   -3.6346 H   0  0  0  0  0  0  0  0  0  0  0  0
    0.1082   -0.4316    1.2890 C   0  0  0  0  0  0  0  0  0  0  0  0
    1.1597   -0.6231    1.8855 O   0  0  0  0  0  0  0  0  0  0  0  0
   -0.9049    0.2629    1.9280 N   0  0  0  0  0  0  0  0  0  0  0  0
   -1.8104    0.2591    1.4719 H   0  0  0  0  0  0  0  0  0  0  0  0
   -0.8278    0.6610    3.3277 C   0  0  0  0  0  0  0  0  0  0  0  0
    0.0344    1.3156    3.4934 H   0  0  0  0  0  0  0  0  0  0  0  0
   -1.7325    1.2036    3.6173 H   0  0  0  0  0  0  0  0  0  0  0  0
   -0.7299   -0.2207    3.9701 H   0  0  0  0  0  0  0  0  0  0  0  0
  1  2  1  0  0  0  0
  2  3  1  0  0  0  0
  2  4  1  0  0  0  0
  2  5  1  0  0  0  0
  5  6  2  0  0  0  0
  5  7  1  0  0  0  0
  7  8  1  0  0  0  0
  7  9  1  0  0  0  0
  9 10  1  0  0  0  0
  9 11  1  0  0  0  0
  9 25  1  0  0  0  0
 11 12  1  0  0  0  0
 11 13  1  0  0  0  0
 11 14  1  0  0  0  0
 14 15  1  0  0  0  0
 14 23  2  0  0  0  0
 15 16  1  0  0  0  0
 15 17  2  0  0  0  0
 17 18  1  0  0  0  0
 17 19  1  0  0  0  0
 19 20  1  0  0  0  0
 19 21  2  0  0  0  0
 21 22  1  0  0  0  0
 21 23  1  0  0  0  0
 23 24  1  0  0  0  0
 25 26  2  0  0  0  0
 25 27  1  0  0  0  0
 27 28  1  0  0  0  0
 27 29  1  0  0  0  0
 29 30  1  0  0  0  0
 29 31  1  0  0  0  0
 29 32  1  0  0  0  0
M  END
$$$$

  -OEChem-03222214073D

 32 32  0     1  0  0  0  0  0999 V2000
   -3.3490   -4.2467    0.9089 H   0  0  0  0  0  0  0  0  0  0  0  0
   -3.2088   -3.3838    0.2513 C   0  0  0  0  0  0  0  0  0  0  0  0
   -4.0073   -2.6630    0.4424 H   0  0  0  0  0  0  0  0  0  0  0  0
   -3.2703   -3.7212   -0.7863 H   0  0  0  0  0  0  0  0  0  0  0  0
   -1.8573   -2.7443    0.5107 C   0  0  0  0  0  0  0  0  0  0  0  0
   -1.1361   -3.1946    1.3813 O   0  0  0  0  0  0  0  0  0  0  0  0
   -1.4558   -1.6653   -0.2547 N   0  0  0  0  0  0  0  0  0  0  0  0
   -2.0657   -1.4055   -1.0237 H   0  0  0  0  0  0  0  0  0  0  0  0
   -0.1326   -1.0113   -0.1597 C   0  0  1  0  0  0  0  0  0  0  0  0
    0.6559   -1.7377   -0.3852 H   0  0  0  0  0  0  0  0  0  0  0  0
   -0.1456    0.1017   -1.2351 C   0  0  0  0  0  0  0  0  0  0  0  0
   -0.5808   -0.3256   -2.1444 H   0  0  0  0  0  0  0  0  0  0  0  0
   -0.8146    0.9011   -0.8996 H   0  0  0  0  0  0  0  0  0  0  0  0
    1.1700    0.7414   -1.6503 C   0  0  0  0  0  0  0  0  0  0  0  0
    2.3827    0.6309   -0.9445 C   0  0  0  0  0  0  0  0  0  0  0  0
    2.4756    0.0290   -0.0508 H   0  0  0  0  0  0  0  0  0  0  0  0
    3.5373    1.2819   -1.3924 C   0  0  0  0  0  0  0  0  0  0  0  0
    4.4629    1.1793   -0.8334 H   0  0  0  0  0  0  0  0  0  0  0  0
    3.5030    2.0580   -2.5521 C   0  0  0  0  0  0  0  0  0  0  0  0
    4.4014    2.5614   -2.8973 H   0  0  0  0  0  0  0  0  0  0  0  0
    2.3092    2.1824   -3.2641 C   0  0  0  0  0  0  0  0  0  0  0  0
    2.2766    2.7858   -4.1664 H   0  0  0  0  0  0  0  0  0  0  0  0
    1.1562    1.5315   -2.8132 C   0  0  0  0  0  0  0  0  0  0  0  0
    0.2365    1.6479   -3.3783 H   0  0  0  0  0  0  0  0  0  0  0  0
    0.1151   -0.4413    1.2625 C   0  0  0  0  0  0  0  0  0  0  0  0
    1.1812   -0.6088    1.8397 O   0  0  0  0  0  0  0  0  0  0  0  0
   -0.8847    0.2683    1.9058 N   0  0  0  0  0  0  0  0  0  0  0  0
   -1.7999    0.2526    1.4701 H   0  0  0  0  0  0  0  0  0  0  0  0
   -0.7750    0.7101    3.2905 C   0  0  0  0  0  0  0  0  0  0  0  0
    0.0960    1.3616    3.4174 H   0  0  0  0  0  0  0  0  0  0  0  0
   -1.6685    1.2704    3.5812 H   0  0  0  0  0  0  0  0  0  0  0  0
   -0.6708   -0.1513    3.9585 H   0  0  0  0  0  0  0  0  0  0  0  0
  1  2  1  0  0  0  0
  2  3  1  0  0  0  0
  2  4  1  0  0  0  0
  2  5  1  0  0  0  0
  5  6  2  0  0  0  0
  5  7  1  0  0  0  0
  7  8  1  0  0  0  0
  7  9  1  0  0  0  0
  9 10  1  0  0  0  0
  9 11  1  0  0  0  0
  9 25  1  0  0  0  0
 11 12  1  0  0  0  0
 11 13  1  0  0  0  0
 11 14  1  0  0  0  0
 14 15  1  0  0  0  0
 14 23  2  0  0  0  0
 15 16  1  0  0  0  0
 15 17  2  0  0  0  0
 17 18  1  0  0  0  0
 17 19  1  0  0  0  0
 19 20  1  0  0  0  0
 19 21  2  0  0  0  0
 21 22  1  0  0  0  0
 21 23  1  0  0  0  0
 23 24  1  0  0  0  0
 25 26  2  0  0  0  0
 25 27  1  0  0  0  0
 27 28  1  0  0  0  0
 27 29  1  0  0  0  0
 29 30  1  0  0  0  0
 29 31  1  0  0  0  0
 29 32  1  0  0  0  0
M  END
$$$$

  -OEChem-03222214073D

 32 32  0     1  0  0  0  0  0999 V2000
   -3.3180   -4.2928    0.9093 H   0  0  0  0  0  0  0  0  0  0  0  0
   -3.2068   -3.4202    0.2593 C   0  0  0  0  0  0  0  0  0  0  0  0
   -4.0119   -2.7145    0.4773 H   0  0  0  0  0  0  0  0  0  0  0  0
   -3.2867   -3.7459   -0.7805 H   0  0  0  0  0  0  0  0  0  0  0  0
   -1.8603   -2.7619    0.4962 C   0  0  0  0  0  0  0  0  0  0  0  0
   -1.1164   -3.2016    1.3533 O   0  0  0  0  0  0  0  0  0  0  0  0
   -1.4892   -1.6731   -0.2700 N   0  0  0  0  0  0  0  0  0  0  0  0
   -2.1184   -1.4138   -1.0235 H   0  0  0  0  0  0  0  0  0  0  0  0
   -0.1744   -1.0028   -0.1931 C   0  0  1  0  0  0  0  0  0  0  0  0
    0.6057   -1.7328   -0.4340 H   0  0  0  0  0  0  0  0  0  0  0  0
   -0.1933    0.1138   -1.2611 C   0  0  0  0  0  0  0  0  0  0  0  0
   -0.6252   -0.3033   -2.1765 H   0  0  0  0  0  0  0  0  0  0  0  0
   -0.8618    0.9105   -0.9186 H   0  0  0  0  0  0  0  0  0  0  0  0
    1.1303    0.7446   -1.6587 C   0  0  0  0  0  0  0  0  0  0  0  0
    2.3809    0.3818   -1.1228 C   0  0  0  0  0  0  0  0  0  0  0  0
    2.4816   -0.4088   -0.3878 H   0  0  0  0  0  0  0  0  0  0  0  0
    3.5511    1.0282   -1.5341 C   0  0  0  0  0  0  0  0  0  0  0  0
    4.5055    0.7353   -1.1064 H   0  0  0  0  0  0  0  0  0  0  0  0
    3.4945    2.0464   -2.4879 C   0  0  0  0  0  0  0  0  0  0  0  0
    4.4049    2.5472   -2.8037 H   0  0  0  0  0  0  0  0  0  0  0  0
    2.2633    2.4177   -3.0310 C   0  0  0  0  0  0  0  0  0  0  0  0
    2.2143    3.2101   -3.7721 H   0  0  0  0  0  0  0  0  0  0  0  0
    1.0939    1.7715   -2.6170 C   0  0  0  0  0  0  0  0  0  0  0  0
    0.1454    2.0778   -3.0471 H   0  0  0  0  0  0  0  0  0  0  0  0
    0.1195   -0.4284    1.2167 C   0  0  0  0  0  0  0  0  0  0  0  0
    1.2276   -0.5351    1.7254 O   0  0  0  0  0  0  0  0  0  0  0  0
   -0.8622    0.2745    1.8938 N   0  0  0  0  0  0  0  0  0  0  0  0
   -1.7981    0.2288    1.5068 H   0  0  0  0  0  0  0  0  0  0  0  0
   -0.6888    0.7618    3.2562 C   0  0  0  0  0  0  0  0  0  0  0  0
    0.1631    1.4477    3.3120 H   0  0  0  0  0  0  0  0  0  0  0  0
   -1.5844    1.2981    3.5838 H   0  0  0  0  0  0  0  0  0  0  0  0
   -0.5136   -0.0744    3.9414 H   0  0  0  0  0  0  0  0  0  0  0  0
  1  2  1  0  0  0  0
  2  3  1  0  0  0  0
  2  4  1  0  0  0  0
  2  5  1  0  0  0  0
  5  6  2  0  0  0  0
  5  7  1  0  0  0  0
  7  8  1  0  0  0  0
  7  9  1  0  0  0  0
  9 10  1  0  0  0  0
  9 11  1  0  0  0  0
  9 25  1  0  0  0  0
 11 12  1  0  0  0  0
 11 13  1  0  0  0  0
 11 14  1  0  0  0  0
 14 15  1  0  0  0  0
 14 23  2  0  0  0  0
 15 16  1  0  0  0  0
 15 17  2  0  0  0  0
 17 18  1  0  0  0  0
 17 19  1  0  0  0  0
 19 20  1  0  0  0  0
 19 21  2  0  0  0  0
 21 22  1  0  0  0  0
 21 23  1  0  0  0  0
 23 24  1  0  0  0  0
 25 26  2  0  0  0  0
 25 27  1  0  0  0  0
 27 28  1  0  0  0  0
 27 29  1  0  0  0  0
 29 30  1  0  0  0  0
 29 31  1  0  0  0  0
 29 32  1  0  0  0  0
M  END
$$$$

  -OEChem-03222214073D

 32 32  0     1  0  0  0  0  0999 V2000
   -3.2835   -4.3439    0.8853 H   0  0  0  0  0  0  0  0  0  0  0  0
   -3.1962   -3.4656    0.2391 C   0  0  0  0  0  0  0  0  0  0  0  0
   -4.0192   -2.7824    0.4616 H   0  0  0  0  0  0  0  0  0  0  0  0
   -3.2692   -3.7885   -0.8023 H   0  0  0  0  0  0  0  0  0  0  0  0
   -1.8672   -2.7729    0.4764 C   0  0  0  0  0  0  0  0  0  0  0  0
   -1.1082   -3.1979    1.3279 O   0  0  0  0  0  0  0  0  0  0  0  0
   -1.5282   -1.6675   -0.2801 N   0  0  0  0  0  0  0  0  0  0  0  0
   -2.1662   -1.4166   -1.0292 H   0  0  0  0  0  0  0  0  0  0  0  0
   -0.2236   -0.9791   -0.2107 C   0  0  1  0  0  0  0  0  0  0  0  0
    0.5447   -1.7164   -0.4625 H   0  0  0  0  0  0  0  0  0  0  0  0
   -0.2414    0.1359   -1.2783 C   0  0  0  0  0  0  0  0  0  0  0  0
   -0.6616   -0.2789   -2.1999 H   0  0  0  0  0  0  0  0  0  0  0  0
   -0.9161    0.9286   -0.9383 H   0  0  0  0  0  0  0  0  0  0  0  0
    1.0910    0.7629   -1.6520 C   0  0  0  0  0  0  0  0  0  0  0  0
    2.3442    0.2064   -1.3297 C   0  0  0  0  0  0  0  0  0  0  0  0
    2.4314   -0.7138   -0.7616 H   0  0  0  0  0  0  0  0  0  0  0  0
    3.5295    0.8379   -1.7208 C   0  0  0  0  0  0  0  0  0  0  0  0
    4.4865    0.3993   -1.4539 H   0  0  0  0  0  0  0  0  0  0  0  0
    3.4846    2.0307   -2.4454 C   0  0  0  0  0  0  0  0  0  0  0  0
    4.4067    2.5195   -2.7460 H   0  0  0  0  0  0  0  0  0  0  0  0
    2.2507    2.5933   -2.7773 C   0  0  0  0  0  0  0  0  0  0  0  0
    2.2120    3.5220   -3.3388 H   0  0  0  0  0  0  0  0  0  0  0  0
    1.0663    1.9620   -2.3835 C   0  0  0  0  0  0  0  0  0  0  0  0
    0.1166    2.4141   -2.6518 H   0  0  0  0  0  0  0  0  0  0  0  0
    0.1191   -0.4076    1.1854 C   0  0  0  0  0  0  0  0  0  0  0  0
    1.2613   -0.4723    1.6204 O   0  0  0  0  0  0  0  0  0  0  0  0
   -0.8396    0.2851    1.9039 N   0  0  0  0  0  0  0  0  0  0  0  0
   -1.7949    0.2059    1.5734 H   0  0  0  0  0  0  0  0  0  0  0  0
   -0.6013    0.7979    3.2469 C   0  0  0  0  0  0  0  0  0  0  0  0
    0.2406    1.4984    3.2462 H   0  0  0  0  0  0  0  0  0  0  0  0
   -1.4870    1.3252    3.6133 H   0  0  0  0  0  0  0  0  0  0  0  0
   -0.3754   -0.0237    3.9347 H   0  0  0  0  0  0  0  0  0  0  0  0
  1  2  1  0  0  0  0
  2  3  1  0  0  0  0
  2  4  1  0  0  0  0
  2  5  1  0  0  0  0
  5  6  2  0  0  0  0
  5  7  1  0  0  0  0
  7  8  1  0  0  0  0
  7  9  1  0  0  0  0
  9 10  1  0  0  0  0
  9 11  1  0  0  0  0
  9 25  1  0  0  0  0
 11 12  1  0  0  0  0
 11 13  1  0  0  0  0
 11 14  1  0  0  0  0
 14 15  1  0  0  0  0
 14 23  2  0  0  0  0
 15 16  1  0  0  0  0
 15 17  2  0  0  0  0
 17 18  1  0  0  0  0
 17 19  1  0  0  0  0
 19 20  1  0  0  0  0
 19 21  2  0  0  0  0
 21 22  1  0  0  0  0
 21 23  1  0  0  0  0
 23 24  1  0  0  0  0
 25 26  2  0  0  0  0
 25 27  1  0  0  0  0
 27 28  1  0  0  0  0
 27 29  1  0  0  0  0
 29 30  1  0  0  0  0
 29 31  1  0  0  0  0
 29 32  1  0  0  0  0
M  END
$$$$

  -OEChem-03222214073D

 32 32  0     1  0  0  0  0  0999 V2000
   -3.2531   -4.3673    0.8954 H   0  0  0  0  0  0  0  0  0  0  0  0
   -3.1817   -3.4901    0.2459 C   0  0  0  0  0  0  0  0  0  0  0  0
   -4.0118   -2.8166    0.4719 H   0  0  0  0  0  0  0  0  0  0  0  0
   -3.2575   -3.8169   -0.7939 H   0  0  0  0  0  0  0  0  0  0  0  0
   -1.8600   -2.7800    0.4720 C   0  0  0  0  0  0  0  0  0  0  0  0
   -1.0893   -3.1922    1.3193 O   0  0  0  0  0  0  0  0  0  0  0  0
   -1.5427   -1.6698   -0.2865 N   0  0  0  0  0  0  0  0  0  0  0  0
   -2.1887   -1.4290   -1.0321 H   0  0  0  0  0  0  0  0  0  0  0  0
   -0.2450   -0.9679   -0.2305 C   0  0  1  0  0  0  0  0  0  0  0  0
    0.5217   -1.7044   -0.4849 H   0  0  0  0  0  0  0  0  0  0  0  0
   -0.2772    0.1462   -1.2978 C   0  0  0  0  0  0  0  0  0  0  0  0
   -0.6948   -0.2681   -2.2207 H   0  0  0  0  0  0  0  0  0  0  0  0
   -0.9579    0.9327   -0.9555 H   0  0  0  0  0  0  0  0  0  0  0  0
    1.0586    0.7689   -1.6631 C   0  0  0  0  0  0  0  0  0  0  0  0
    2.2814    0.0727   -1.6084 C   0  0  0  0  0  0  0  0  0  0  0  0
    2.3346   -0.9585   -1.2779 H   0  0  0  0  0  0  0  0  0  0  0  0
    3.4786    0.7004   -1.9686 C   0  0  0  0  0  0  0  0  0  0  0  0
    4.4142    0.1520   -1.9093 H   0  0  0  0  0  0  0  0  0  0  0  0
    3.4743    2.0301   -2.3949 C   0  0  0  0  0  0  0  0  0  0  0  0
    4.4057    2.5161   -2.6704 H   0  0  0  0  0  0  0  0  0  0  0  0
    2.2695    2.7326   -2.4605 C   0  0  0  0  0  0  0  0  0  0  0  0
    2.2630    3.7675   -2.7892 H   0  0  0  0  0  0  0  0  0  0  0  0
    1.0731    2.1045   -2.0989 C   0  0  0  0  0  0  0  0  0  0  0  0
    0.1473    2.6683   -2.1573 H   0  0  0  0  0  0  0  0  0  0  0  0
    0.1240   -0.3899    1.1543 C   0  0  0  0  0  0  0  0  0  0  0  0
    1.2814   -0.4273    1.5504 O   0  0  0  0  0  0  0  0  0  0  0  0
   -0.8237    0.2978    1.8920 N   0  0  0  0  0  0  0  0  0  0  0  0
   -1.7872    0.1953    1.5930 H   0  0  0  0  0  0  0  0  0  0  0  0
   -0.5547    0.8246    3.2237 C   0  0  0  0  0  0  0  0  0  0  0  0
    0.2790    1.5342    3.1947 H   0  0  0  0  0  0  0  0  0  0  0  0
   -1.4360    1.3453    3.6100 H   0  0  0  0  0  0  0  0  0  0  0  0
   -0.3014    0.0109    3.9115 H   0  0  0  0  0  0  0  0  0  0  0  0
  1  2  1  0  0  0  0
  2  3  1  0  0  0  0
  2  4  1  0  0  0  0
  2  5  1  0  0  0  0
  5  6  2  0  0  0  0
  5  7  1  0  0  0  0
  7  8  1  0  0  0  0
  7  9  1  0  0  0  0
  9 10  1  0  0  0  0
  9 11  1  0  0  0  0
  9 25  1  0  0  0  0
 11 12  1  0  0  0  0
 11 13  1  0  0  0  0
 11 14  1  0  0  0  0
 14 15  1  0  0  0  0
 14 23  2  0  0  0  0
 15 16  1  0  0  0  0
 15 17  2  0  0  0  0
 17 18  1  0  0  0  0
 17 19  1  0  0  0  0
 19 20  1  0  0  0  0
 19 21  2  0  0  0  0
 21 22  1  0  0  0  0
 21 23  1  0  0  0  0
 23 24  1  0  0  0  0
 25 26  2  0  0  0  0
 25 27  1  0  0  0  0
 27 28  1  0  0  0  0
 27 29  1  0  0  0  0
 29 30  1  0  0  0  0
 29 31  1  0  0  0  0
 29 32  1  0  0  0  0
M  END
$$$$

  -OEChem-03222214073D

 32 32  0     1  0  0  0  0  0999 V2000
   -3.1888   -4.3947    0.9124 H   0  0  0  0  0  0  0  0  0  0  0  0
   -3.1411   -3.5178    0.2601 C   0  0  0  0  0  0  0  0  0  0  0  0
   -3.9792   -2.8579    0.4964 H   0  0  0  0  0  0  0  0  0  0  0  0
   -3.2259   -3.8485   -0.7779 H   0  0  0  0  0  0  0  0  0  0  0  0
   -1.8287   -2.7850    0.4672 C   0  0  0  0  0  0  0  0  0  0  0  0
   -1.0392   -3.1841    1.3032 O   0  0  0  0  0  0  0  0  0  0  0  0
   -1.5408   -1.6698   -0.2957 N   0  0  0  0  0  0  0  0  0  0  0  0
   -2.2009   -1.4394   -1.0322 H   0  0  0  0  0  0  0  0  0  0  0  0
   -0.2539   -0.9475   -0.2590 C   0  0  1  0  0  0  0  0  0  0  0  0
    0.5278   -1.6653   -0.5229 H   0  0  0  0  0  0  0  0  0  0  0  0
   -0.3211    0.1701   -1.3200 C   0  0  0  0  0  0  0  0  0  0  0  0
   -0.7401   -0.2438   -2.2426 H   0  0  0  0  0  0  0  0  0  0  0  0
   -1.0075    0.9482   -0.9706 H   0  0  0  0  0  0  0  0  0  0  0  0
    1.0155    0.7884   -1.6782 C   0  0  0  0  0  0  0  0  0  0  0  0
    2.1617    0.0102   -1.9203 C   0  0  0  0  0  0  0  0  0  0  0  0
    2.1265   -1.0724   -1.8609 H   0  0  0  0  0  0  0  0  0  0  0  0
    3.3802    0.6158   -2.2455 C   0  0  0  0  0  0  0  0  0  0  0  0
    4.2588    0.0025   -2.4219 H   0  0  0  0  0  0  0  0  0  0  0  0
    3.4704    2.0068   -2.3359 C   0  0  0  0  0  0  0  0  0  0  0  0
    4.4179    2.4756   -2.5839 H   0  0  0  0  0  0  0  0  0  0  0  0
    2.3396    2.7921   -2.1000 C   0  0  0  0  0  0  0  0  0  0  0  0
    2.4078    3.8739   -2.1641 H   0  0  0  0  0  0  0  0  0  0  0  0
    1.1219    2.1857   -1.7736 C   0  0  0  0  0  0  0  0  0  0  0  0
    0.2565    2.8142   -1.5881 H   0  0  0  0  0  0  0  0  0  0  0  0
    0.1254   -0.3643    1.1212 C   0  0  0  0  0  0  0  0  0  0  0  0
    1.2898   -0.3749    1.4973 O   0  0  0  0  0  0  0  0  0  0  0  0
   -0.8222    0.3079    1.8736 N   0  0  0  0  0  0  0  0  0  0  0  0
   -1.7891    0.1843    1.5938 H   0  0  0  0  0  0  0  0  0  0  0  0
   -0.5376    0.8520    3.1954 C   0  0  0  0  0  0  0  0  0  0  0  0
    0.2857    1.5723    3.1443 H   0  0  0  0  0  0  0  0  0  0  0  0
   -1.4188    1.3654    3.5915 H   0  0  0  0  0  0  0  0  0  0  0  0
   -0.2612    0.0494    3.8872 H   0  0  0  0  0  0  0  0  0  0  0  0
  1  2  1  0  0  0  0
  2  3  1  0  0  0  0
  2  4  1  0  0  0  0
  2  5  1  0  0  0  0
  5  6  2  0  0  0  0
  5  7  1  0  0  0  0
  7  8  1  0  0  0  0
  7  9  1  0  0  0  0
  9 10  1  0  0  0  0
  9 11  1  0  0  0  0
  9 25  1  0  0  0  0
 11 12  1  0  0  0  0
 11 13  1  0  0  0  0
 11 14  1  0  0  0  0
 14 15  1  0  0  0  0
 14 23  2  0  0  0  0
 15 16  1  0  0  0  0
 15 17  2  0  0  0  0
 17 18  1  0  0  0  0
 17 19  1  0  0  0  0
 19 20  1  0  0  0  0
 19 21  2  0  0  0  0
 21 22  1  0  0  0  0
 21 23  1  0  0  0  0
 23 24  1  0  0  0  0
 25 26  2  0  0  0  0
 25 27  1  0  0  0  0
 27 28  1  0  0  0  0
 27 29  1  0  0  0  0
 29 30  1  0  0  0  0
 29 31  1  0  0  0  0
 29 32  1  0  0  0  0
M  END
$$$$

  -OEChem-03222214073D

 32 32  0     1  0  0  0  0  0999 V2000
   -3.1115   -4.4189    0.9200 H   0  0  0  0  0  0  0  0  0  0  0  0
   -3.0895   -3.5406    0.2683 C   0  0  0  0  0  0  0  0  0  0  0  0
   -3.9374   -2.8979    0.5161 H   0  0  0  0  0  0  0  0  0  0  0  0
   -3.1808   -3.8716   -0.7689 H   0  0  0  0  0  0  0  0  0  0  0  0
   -1.7891   -2.7826    0.4598 C   0  0  0  0  0  0  0  0  0  0  0  0
   -0.9811   -3.1686    1.2842 O   0  0  0  0  0  0  0  0  0  0  0  0
   -1.5325   -1.6608   -0.3048 N   0  0  0  0  0  0  0  0  0  0  0  0
   -2.2074   -1.4414   -1.0312 H   0  0  0  0  0  0  0  0  0  0  0  0
   -0.2586   -0.9148   -0.2849 C   0  0  1  0  0  0  0  0  0  0  0  0
    0.5406   -1.6083   -0.5666 H   0  0  0  0  0  0  0  0  0  0  0  0
   -0.3617    0.2068   -1.3363 C   0  0  0  0  0  0  0  0  0  0  0  0
   -0.7851   -0.2024   -2.2591 H   0  0  0  0  0  0  0  0  0  0  0  0
   -1.0491    0.9796   -0.9774 H   0  0  0  0  0  0  0  0  0  0  0  0
    0.9772    0.8191   -1.6804 C   0  0  0  0  0  0  0  0  0  0  0  0
    2.0115    0.0369   -2.2192 C   0  0  0  0  0  0  0  0  0  0  0  0
    1.8606   -1.0223   -2.4022 H   0  0  0  0  0  0  0  0  0  0  0  0
    3.2513    0.6078   -2.5254 C   0  0  0  0  0  0  0  0  0  0  0  0
    4.0453   -0.0088   -2.9360 H   0  0  0  0  0  0  0  0  0  0  0  0
    3.4709    1.9684   -2.2949 C   0  0  0  0  0  0  0  0  0  0  0  0
    4.4353    2.4103   -2.5268 H   0  0  0  0  0  0  0  0  0  0  0  0
    2.4501    2.7564   -1.7561 C   0  0  0  0  0  0  0  0  0  0  0  0
    2.6221    3.8119   -1.5677 H   0  0  0  0  0  0  0  0  0  0  0  0
    1.2108    2.1839   -1.4495 C   0  0  0  0  0  0  0  0  0  0  0  0
    0.4333    2.8082   -1.0205 H   0  0  0  0  0  0  0  0  0  0  0  0
    0.1233   -0.3298    1.0943 C   0  0  0  0  0  0  0  0  0  0  0  0
    1.2910   -0.3136    1.4595 O   0  0  0  0  0  0  0  0  0  0  0  0
   -0.8311    0.3203    1.8577 N   0  0  0  0  0  0  0  0  0  0  0  0
   -1.7977    0.1723    1.5890 H   0  0  0  0  0  0  0  0  0  0  0  0
   -0.5460    0.8612    3.1807 C   0  0  0  0  0  0  0  0  0  0  0  0
    0.2652    1.5951    3.1283 H   0  0  0  0  0  0  0  0  0  0  0  0
   -1.4327    1.3578    3.5858 H   0  0  0  0  0  0  0  0  0  0  0  0
   -0.2516    0.0591    3.8655 H   0  0  0  0  0  0  0  0  0  0  0  0
  1  2  1  0  0  0  0
  2  3  1  0  0  0  0
  2  4  1  0  0  0  0
  2  5  1  0  0  0  0
  5  6  2  0  0  0  0
  5  7  1  0  0  0  0
  7  8  1  0  0  0  0
  7  9  1  0  0  0  0
  9 10  1  0  0  0  0
  9 11  1  0  0  0  0
  9 25  1  0  0  0  0
 11 12  1  0  0  0  0
 11 13  1  0  0  0  0
 11 14  1  0  0  0  0
 14 15  1  0  0  0  0
 14 23  2  0  0  0  0
 15 16  1  0  0  0  0
 15 17  2  0  0  0  0
 17 18  1  0  0  0  0
 17 19  1  0  0  0  0
 19 20  1  0  0  0  0
 19 21  2  0  0  0  0
 21 22  1  0  0  0  0
 21 23  1  0  0  0  0
 23 24  1  0  0  0  0
 25 26  2  0  0  0  0
 25 27  1  0  0  0  0
 27 28  1  0  0  0  0
 27 29  1  0  0  0  0
 29 30  1  0  0  0  0
 29 31  1  0  0  0  0
 29 32  1  0  0  0  0
M  END
$$$$

  -OEChem-03222214073D

 32 32  0     1  0  0  0  0  0999 V2000
   -3.0788   -4.4219    0.9205 H   0  0  0  0  0  0  0  0  0  0  0  0
   -3.0651   -3.5426    0.2700 C   0  0  0  0  0  0  0  0  0  0  0  0
   -3.9156   -2.9051    0.5227 H   0  0  0  0  0  0  0  0  0  0  0  0
   -3.1597   -3.8729   -0.7672 H   0  0  0  0  0  0  0  0  0  0  0  0
   -1.7683   -2.7771    0.4557 C   0  0  0  0  0  0  0  0  0  0  0  0
   -0.9546   -3.1586    1.2765 O   0  0  0  0  0  0  0  0  0  0  0  0
   -1.5239   -1.6513   -0.3072 N   0  0  0  0  0  0  0  0  0  0  0  0
   -2.2056   -1.4337   -1.0278 H   0  0  0  0  0  0  0  0  0  0  0  0
   -0.2558   -0.8948   -0.2925 C   0  0  1  0  0  0  0  0  0  0  0  0
    0.5525   -1.5741   -0.5851 H   0  0  0  0  0  0  0  0  0  0  0  0
   -0.3747    0.2280   -1.3389 C   0  0  0  0  0  0  0  0  0  0  0  0
   -0.8030   -0.1778   -2.2609 H   0  0  0  0  0  0  0  0  0  0  0  0
   -1.0587    1.0018   -0.9759 H   0  0  0  0  0  0  0  0  0  0  0  0
    0.9655    0.8364   -1.6740 C   0  0  0  0  0  0  0  0  0  0  0  0
    1.8756    0.1438   -2.4873 C   0  0  0  0  0  0  0  0  0  0  0  0
    1.6192   -0.8343   -2.8827 H   0  0  0  0  0  0  0  0  0  0  0  0
    3.1218    0.7009   -2.7939 C   0  0  0  0  0  0  0  0  0  0  0  0
    3.8210    0.1556   -3.4206 H   0  0  0  0  0  0  0  0  0  0  0  0
    3.4710    1.9553   -2.2854 C   0  0  0  0  0  0  0  0  0  0  0  0
    4.4408    2.3857   -2.5166 H   0  0  0  0  0  0  0  0  0  0  0  0
    2.5741    2.6498   -1.4684 C   0  0  0  0  0  0  0  0  0  0  0  0
    2.8483    3.6186   -1.0618 H   0  0  0  0  0  0  0  0  0  0  0  0
    1.3276    2.0922   -1.1636 C   0  0  0  0  0  0  0  0  0  0  0  0
    0.6477    2.6360   -0.5151 H   0  0  0  0  0  0  0  0  0  0  0  0
    0.1217   -0.3131    1.0897 C   0  0  0  0  0  0  0  0  0  0  0  0
    1.2887   -0.2836    1.4563 O   0  0  0  0  0  0  0  0  0  0  0  0
   -0.8405    0.3235    1.8545 N   0  0  0  0  0  0  0  0  0  0  0  0
   -1.8046    0.1629    1.5837 H   0  0  0  0  0  0  0  0  0  0  0  0
   -0.5652    0.8534    3.1840 C   0  0  0  0  0  0  0  0  0  0  0  0
    0.2395    1.5950    3.1425 H   0  0  0  0  0  0  0  0  0  0  0  0
   -1.4581    1.3375    3.5906 H   0  0  0  0  0  0  0  0  0  0  0  0
   -0.2658    0.0470    3.8619 H   0  0  0  0  0  0  0  0  0  0  0  0
  1  2  1  0  0  0  0
  2  3  1  0  0  0  0
  2  4  1  0  0  0  0
  2  5  1  0  0  0  0
  5  6  2  0  0  0  0
  5  7  1  0  0  0  0
  7  8  1  0  0  0  0
  7  9  1  0  0  0  0
  9 10  1  0  0  0  0
  9 11  1  0  0  0  0
  9 25  1  0  0  0  0
 11 12  1  0  0  0  0
 11 13  1  0  0  0  0
 11 14  1  0  0  0  0
 14 15  1  0  0  0  0
 14 23  2  0  0  0  0
 15 16  1  0  0  0  0
 15 17  2  0  0  0  0
 17 18  1  0  0  0  0
 17 19  1  0  0  0  0
 19 20  1  0  0  0  0
 19 21  2  0  0  0  0
 21 22  1  0  0  0  0
 21 23  1  0  0  0  0
 23 24  1  0  0  0  0
 25 26  2  0  0  0  0
 25 27  1  0  0  0  0
 27 28  1  0  0  0  0
 27 29  1  0  0  0  0
 29 30  1  0  0  0  0
 29 31  1  0  0  0  0
 29 32  1  0  0  0  0
M  END
$$$$

  -OEChem-03222214073D

 32 32  0     1  0  0  0  0  0999 V2000
   -3.0904   -4.4100    0.9120 H   0  0  0  0  0  0  0  0  0  0  0  0
   -3.0706   -3.5275    0.2662 C   0  0  0  0  0  0  0  0  0  0  0  0
   -3.9169   -2.8857    0.5220 H   0  0  0  0  0  0  0  0  0  0  0  0
   -3.1665   -3.8518   -0.7728 H   0  0  0  0  0  0  0  0  0  0  0  0
   -1.7688   -2.7716    0.4567 C   0  0  0  0  0  0  0  0  0  0  0  0
   -0.9597   -3.1606    1.2787 O   0  0  0  0  0  0  0  0  0  0  0  0
   -1.5159   -1.6448   -0.3021 N   0  0  0  0  0  0  0  0  0  0  0  0
   -2.1954   -1.4201   -1.0223 H   0  0  0  0  0  0  0  0  0  0  0  0
   -0.2451   -0.8925   -0.2799 C   0  0  1  0  0  0  0  0  0  0  0  0
    0.5652   -1.5703   -0.5717 H   0  0  0  0  0  0  0  0  0  0  0  0
   -0.3593    0.2291   -1.3292 C   0  0  0  0  0  0  0  0  0  0  0  0
   -0.7935   -0.1766   -2.2485 H   0  0  0  0  0  0  0  0  0  0  0  0
   -1.0385    1.0076   -0.9668 H   0  0  0  0  0  0  0  0  0  0  0  0
    0.9806    0.8390   -1.6642 C   0  0  0  0  0  0  0  0  0  0  0  0
    1.7570    0.3107   -2.7069 C   0  0  0  0  0  0  0  0  0  0  0  0
    1.4031   -0.5467   -3.2710 H   0  0  0  0  0  0  0  0  0  0  0  0
    2.9964    0.8756   -3.0272 C   0  0  0  0  0  0  0  0  0  0  0  0
    3.5929    0.4566   -3.8321 H   0  0  0  0  0  0  0  0  0  0  0  0
    3.4710    1.9754   -2.3065 C   0  0  0  0  0  0  0  0  0  0  0  0
    4.4357    2.4107   -2.5491 H   0  0  0  0  0  0  0  0  0  0  0  0
    2.7055    2.5084   -1.2655 C   0  0  0  0  0  0  0  0  0  0  0  0
    3.0757    3.3558   -0.6963 H   0  0  0  0  0  0  0  0  0  0  0  0
    1.4661    1.9433   -0.9472 C   0  0  0  0  0  0  0  0  0  0  0  0
    0.8894    2.3583   -0.1258 H   0  0  0  0  0  0  0  0  0  0  0  0
    0.1196   -0.3192    1.1095 C   0  0  0  0  0  0  0  0  0  0  0  0
    1.2819   -0.2967    1.4913 O   0  0  0  0  0  0  0  0  0  0  0  0
   -0.8490    0.3151    1.8682 N   0  0  0  0  0  0  0  0  0  0  0  0
   -1.8104    0.1589    1.5857 H   0  0  0  0  0  0  0  0  0  0  0  0
   -0.5886    0.8247    3.2085 C   0  0  0  0  0  0  0  0  0  0  0  0
    0.2190    1.5640    3.1883 H   0  0  0  0  0  0  0  0  0  0  0  0
   -1.4849    1.3055    3.6114 H   0  0  0  0  0  0  0  0  0  0  0  0
   -0.3011    0.0070    3.8778 H   0  0  0  0  0  0  0  0  0  0  0  0
  1  2  1  0  0  0  0
  2  3  1  0  0  0  0
  2  4  1  0  0  0  0
  2  5  1  0  0  0  0
  5  6  2  0  0  0  0
  5  7  1  0  0  0  0
  7  8  1  0  0  0  0
  7  9  1  0  0  0  0
  9 10  1  0  0  0  0
  9 11  1  0  0  0  0
  9 25  1  0  0  0  0
 11 12  1  0  0  0  0
 11 13  1  0  0  0  0
 11 14  1  0  0  0  0
 14 15  1  0  0  0  0
 14 23  2  0  0  0  0
 15 16  1  0  0  0  0
 15 17  2  0  0  0  0
 17 18  1  0  0  0  0
 17 19  1  0  0  0  0
 19 20  1  0  0  0  0
 19 21  2  0  0  0  0
 21 22  1  0  0  0  0
 21 23  1  0  0  0  0
 23 24  1  0  0  0  0
 25 26  2  0  0  0  0
 25 27  1  0  0  0  0
 27 28  1  0  0  0  0
 27 29  1  0  0  0  0
 29 30  1  0  0  0  0
 29 31  1  0  0  0  0
 29 32  1  0  0  0  0
M  END
$$$$

  -OEChem-03222214073D

 32 32  0     1  0  0  0  0  0999 V2000
   -3.1380   -4.3909    0.8822 H   0  0  0  0  0  0  0  0  0  0  0  0
   -3.0981   -3.5011    0.2471 C   0  0  0  0  0  0  0  0  0  0  0  0
   -3.9394   -2.8514    0.4996 H   0  0  0  0  0  0  0  0  0  0  0  0
   -3.1856   -3.8123   -0.7966 H   0  0  0  0  0  0  0  0  0  0  0  0
   -1.7891   -2.7641    0.4627 C   0  0  0  0  0  0  0  0  0  0  0  0
   -0.9991   -3.1682    1.2958 O   0  0  0  0  0  0  0  0  0  0  0  0
   -1.5090   -1.6375   -0.2872 N   0  0  0  0  0  0  0  0  0  0  0  0
   -2.1734   -1.4037   -1.0186 H   0  0  0  0  0  0  0  0  0  0  0  0
   -0.2276   -0.9031   -0.2470 C   0  0  1  0  0  0  0  0  0  0  0  0
    0.5785   -1.5901   -0.5279 H   0  0  0  0  0  0  0  0  0  0  0  0
   -0.3179    0.2140   -1.3071 C   0  0  0  0  0  0  0  0  0  0  0  0
   -0.7575   -0.1955   -2.2221 H   0  0  0  0  0  0  0  0  0  0  0  0
   -0.9902    1.0013   -0.9506 H   0  0  0  0  0  0  0  0  0  0  0  0
    1.0211    0.8280   -1.6502 C   0  0  0  0  0  0  0  0  0  0  0  0
    1.6491    0.5081   -2.8647 C   0  0  0  0  0  0  0  0  0  0  0  0
    1.1960   -0.2080   -3.5429 H   0  0  0  0  0  0  0  0  0  0  0  0
    2.8693    1.0963   -3.2146 C   0  0  0  0  0  0  0  0  0  0  0  0
    3.3511    0.8327   -4.1513 H   0  0  0  0  0  0  0  0  0  0  0  0
    3.4710    2.0213   -2.3572 C   0  0  0  0  0  0  0  0  0  0  0  0
    4.4211    2.4746   -2.6240 H   0  0  0  0  0  0  0  0  0  0  0  0
    2.8481    2.3600   -1.1531 C   0  0  0  0  0  0  0  0  0  0  0  0
    3.3126    3.0769   -0.4828 H   0  0  0  0  0  0  0  0  0  0  0  0
    1.6277    1.7717   -0.8057 C   0  0  0  0  0  0  0  0  0  0  0  0
    1.1601    2.0497    0.1342 H   0  0  0  0  0  0  0  0  0  0  0  0
    0.1173   -0.3459    1.1540 C   0  0  0  0  0  0  0  0  0  0  0  0
    1.2707   -0.3501    1.5633 O   0  0  0  0  0  0  0  0  0  0  0  0
   -0.8570    0.2940    1.9002 N   0  0  0  0  0  0  0  0  0  0  0  0
   -1.8142    0.1565    1.5944 H   0  0  0  0  0  0  0  0  0  0  0  0
   -0.6180    0.7730    3.2556 C   0  0  0  0  0  0  0  0  0  0  0  0
    0.1964    1.5050    3.2661 H   0  0  0  0  0  0  0  0  0  0  0  0
   -1.5174    1.2535    3.6521 H   0  0  0  0  0  0  0  0  0  0  0  0
   -0.3496   -0.0609    3.9127 H   0  0  0  0  0  0  0  0  0  0  0  0
  1  2  1  0  0  0  0
  2  3  1  0  0  0  0
  2  4  1  0  0  0  0
  2  5  1  0  0  0  0
  5  6  2  0  0  0  0
  5  7  1  0  0  0  0
  7  8  1  0  0  0  0
  7  9  1  0  0  0  0
  9 10  1  0  0  0  0
  9 11  1  0  0  0  0
  9 25  1  0  0  0  0
 11 12  1  0  0  0  0
 11 13  1  0  0  0  0
 11 14  1  0  0  0  0
 14 15  1  0  0  0  0
 14 23  2  0  0  0  0
 15 16  1  0  0  0  0
 15 17  2  0  0  0  0
 17 18  1  0  0  0  0
 17 19  1  0  0  0  0
 19 20  1  0  0  0  0
 19 21  2  0  0  0  0
 21 22  1  0  0  0  0
 21 23  1  0  0  0  0
 23 24  1  0  0  0  0
 25 26  2  0  0  0  0
 25 27  1  0  0  0  0
 27 28  1  0  0  0  0
 27 29  1  0  0  0  0
 29 30  1  0  0  0  0
 29 31  1  0  0  0  0
 29 32  1  0  0  0  0
M  END
$$$$

  -OEChem-03222214073D

 32 32  0     1  0  0  0  0  0999 V2000
   -3.1972   -4.3566    0.8632 H   0  0  0  0  0  0  0  0  0  0  0  0
   -3.1307   -3.4663    0.2308 C   0  0  0  0  0  0  0  0  0  0  0  0
   -3.9624   -2.8004    0.4730 H   0  0  0  0  0  0  0  0  0  0  0  0
   -3.2087   -3.7728   -0.8151 H   0  0  0  0  0  0  0  0  0  0  0  0
   -1.8104   -2.7565    0.4674 C   0  0  0  0  0  0  0  0  0  0  0  0
   -1.0404   -3.1825    1.3081 O   0  0  0  0  0  0  0  0  0  0  0  0
   -1.4959   -1.6330   -0.2741 N   0  0  0  0  0  0  0  0  0  0  0  0
   -2.1455   -1.3823   -1.0132 H   0  0  0  0  0  0  0  0  0  0  0  0
   -0.2013   -0.9224   -0.2091 C   0  0  1  0  0  0  0  0  0  0  0  0
    0.5997   -1.6216   -0.4746 H   0  0  0  0  0  0  0  0  0  0  0  0
   -0.2628    0.1895   -1.2825 C   0  0  0  0  0  0  0  0  0  0  0  0
   -0.7050   -0.2297   -2.1918 H   0  0  0  0  0  0  0  0  0  0  0  0
   -0.9328    0.9831   -0.9367 H   0  0  0  0  0  0  0  0  0  0  0  0
    1.0714    0.8149   -1.6432 C   0  0  0  0  0  0  0  0  0  0  0  0
    1.5335    0.7364   -2.9687 C   0  0  0  0  0  0  0  0  0  0  0  0
    0.9686    0.1860   -3.7146 H   0  0  0  0  0  0  0  0  0  0  0  0
    2.7318    1.3492   -3.3509 C   0  0  0  0  0  0  0  0  0  0  0  0
    3.0841    1.2644   -4.3744 H   0  0  0  0  0  0  0  0  0  0  0  0
    3.4767    2.0714   -2.4162 C   0  0  0  0  0  0  0  0  0  0  0  0
    4.4097    2.5445   -2.7084 H   0  0  0  0  0  0  0  0  0  0  0  0
    3.0130    2.1897   -1.1042 C   0  0  0  0  0  0  0  0  0  0  0  0
    3.5815    2.7589   -0.3748 H   0  0  0  0  0  0  0  0  0  0  0  0
    1.8139    1.5779   -0.7252 C   0  0  0  0  0  0  0  0  0  0  0  0
    1.4725    1.7145    0.2953 H   0  0  0  0  0  0  0  0  0  0  0  0
    0.1138   -0.3819    1.2055 C   0  0  0  0  0  0  0  0  0  0  0  0
    1.2471   -0.4465    1.6634 O   0  0  0  0  0  0  0  0  0  0  0  0
   -0.8679    0.2690    1.9323 N   0  0  0  0  0  0  0  0  0  0  0  0
   -1.8163    0.1788    1.5843 H   0  0  0  0  0  0  0  0  0  0  0  0
   -0.6657    0.7101    3.3066 C   0  0  0  0  0  0  0  0  0  0  0  0
    0.1647    1.4218    3.3632 H   0  0  0  0  0  0  0  0  0  0  0  0
   -1.5672    1.2029    3.6829 H   0  0  0  0  0  0  0  0  0  0  0  0
   -0.4410   -0.1456    3.9524 H   0  0  0  0  0  0  0  0  0  0  0  0
  1  2  1  0  0  0  0
  2  3  1  0  0  0  0
  2  4  1  0  0  0  0
  2  5  1  0  0  0  0
  5  6  2  0  0  0  0
  5  7  1  0  0  0  0
  7  8  1  0  0  0  0
  7  9  1  0  0  0  0
  9 10  1  0  0  0  0
  9 11  1  0  0  0  0
  9 25  1  0  0  0  0
 11 12  1  0  0  0  0
 11 13  1  0  0  0  0
 11 14  1  0  0  0  0
 14 15  1  0  0  0  0
 14 23  2  0  0  0  0
 15 16  1  0  0  0  0
 15 17  2  0  0  0  0
 17 18  1  0  0  0  0
 17 19  1  0  0  0  0
 19 20  1  0  0  0  0
 19 21  2  0  0  0  0
 21 22  1  0  0  0  0
 21 23  1  0  0  0  0
 23 24  1  0  0  0  0
 25 26  2  0  0  0  0
 25 27  1  0  0  0  0
 27 28  1  0  0  0  0
 27 29  1  0  0  0  0
 29 30  1  0  0  0  0
 29 31  1  0  0  0  0
 29 32  1  0  0  0  0
M  END
$$$$

  -OEChem-03222214073D

 32 32  0     1  0  0  0  0  0999 V2000
   -3.2657   -4.3050    0.8435 H   0  0  0  0  0  0  0  0  0  0  0  0
   -3.1651   -3.4118    0.2199 C   0  0  0  0  0  0  0  0  0  0  0  0
   -3.9756   -2.7207    0.4632 H   0  0  0  0  0  0  0  0  0  0  0  0
   -3.2468   -3.7064   -0.8290 H   0  0  0  0  0  0  0  0  0  0  0  0
   -1.8236   -2.7485    0.4709 C   0  0  0  0  0  0  0  0  0  0  0  0
   -1.0745   -3.2062    1.3136 O   0  0  0  0  0  0  0  0  0  0  0  0
   -1.4659   -1.6330   -0.2631 N   0  0  0  0  0  0  0  0  0  0  0  0
   -2.1021   -1.3553   -1.0039 H   0  0  0  0  0  0  0  0  0  0  0  0
   -0.1602   -0.9456   -0.1667 C   0  0  1  0  0  0  0  0  0  0  0  0
    0.6390   -1.6549   -0.4096 H   0  0  0  0  0  0  0  0  0  0  0  0
   -0.1942    0.1582   -1.2527 C   0  0  0  0  0  0  0  0  0  0  0  0
   -0.6283   -0.2785   -2.1578 H   0  0  0  0  0  0  0  0  0  0  0  0
   -0.8715    0.9523   -0.9227 H   0  0  0  0  0  0  0  0  0  0  0  0
    1.1282    0.8046   -1.6371 C   0  0  0  0  0  0  0  0  0  0  0  0
    1.4078    0.9867   -3.0040 C   0  0  0  0  0  0  0  0  0  0  0  0
    0.7181    0.6198   -3.7577 H   0  0  0  0  0  0  0  0  0  0  0  0
    2.5784    1.6243   -3.4278 C   0  0  0  0  0  0  0  0  0  0  0  0
    2.7832    1.7362   -4.4883 H   0  0  0  0  0  0  0  0  0  0  0  0
    3.4828    2.1196   -2.4876 C   0  0  0  0  0  0  0  0  0  0  0  0
    4.3942    2.6134   -2.8118 H   0  0  0  0  0  0  0  0  0  0  0  0
    3.2034    1.9878   -1.1265 C   0  0  0  0  0  0  0  0  0  0  0  0
    3.8932    2.3866   -0.3883 H   0  0  0  0  0  0  0  0  0  0  0  0
    2.0314    1.3502   -0.7060 C   0  0  0  0  0  0  0  0  0  0  0  0
    1.8466    1.3126    0.3596 H   0  0  0  0  0  0  0  0  0  0  0  0
    0.1096   -0.4141    1.2614 C   0  0  0  0  0  0  0  0  0  0  0  0
    1.2067   -0.5533    1.7862 O   0  0  0  0  0  0  0  0  0  0  0  0
   -0.8873    0.2502    1.9549 N   0  0  0  0  0  0  0  0  0  0  0  0
   -1.8172    0.2095    1.5527 H   0  0  0  0  0  0  0  0  0  0  0  0
   -0.7457    0.6434    3.3513 C   0  0  0  0  0  0  0  0  0  0  0  0
    0.0965    1.3327    3.4722 H   0  0  0  0  0  0  0  0  0  0  0  0
   -1.6539    1.1455    3.6972 H   0  0  0  0  0  0  0  0  0  0  0  0
   -0.5736   -0.2368    3.9797 H   0  0  0  0  0  0  0  0  0  0  0  0
  1  2  1  0  0  0  0
  2  3  1  0  0  0  0
  2  4  1  0  0  0  0
  2  5  1  0  0  0  0
  5  6  2  0  0  0  0
  5  7  1  0  0  0  0
  7  8  1  0  0  0  0
  7  9  1  0  0  0  0
  9 10  1  0  0  0  0
  9 11  1  0  0  0  0
  9 25  1  0  0  0  0
 11 12  1  0  0  0  0
 11 13  1  0  0  0  0
 11 14  1  0  0  0  0
 14 15  1  0  0  0  0
 14 23  2  0  0  0  0
 15 16  1  0  0  0  0
 15 17  2  0  0  0  0
 17 18  1  0  0  0  0
 17 19  1  0  0  0  0
 19 20  1  0  0  0  0
 19 21  2  0  0  0  0
 21 22  1  0  0  0  0
 21 23  1  0  0  0  0
 23 24  1  0  0  0  0
 25 26  2  0  0  0  0
 25 27  1  0  0  0  0
 27 28  1  0  0  0  0
 27 29  1  0  0  0  0
 29 30  1  0  0  0  0
 29 31  1  0  0  0  0
 29 32  1  0  0  0  0
M  END
$$$$

  -OEChem-03222214073D

 32 32  0     1  0  0  0  0  0999 V2000
   -3.2990   -4.2686    0.8394 H   0  0  0  0  0  0  0  0  0  0  0  0
   -3.1750   -3.3753    0.2203 C   0  0  0  0  0  0  0  0  0  0  0  0
   -3.9725   -2.6682    0.4603 H   0  0  0  0  0  0  0  0  0  0  0  0
   -3.2551   -3.6637   -0.8304 H   0  0  0  0  0  0  0  0  0  0  0  0
   -1.8218   -2.7411    0.4846 C   0  0  0  0  0  0  0  0  0  0  0  0
   -1.0934   -3.2126    1.3377 O   0  0  0  0  0  0  0  0  0  0  0  0
   -1.4300   -1.6397   -0.2536 N   0  0  0  0  0  0  0  0  0  0  0  0
   -2.0517   -1.3530   -1.0033 H   0  0  0  0  0  0  0  0  0  0  0  0
   -0.1185   -0.9655   -0.1346 C   0  0  1  0  0  0  0  0  0  0  0  0
    0.6851   -1.6752   -0.3607 H   0  0  0  0  0  0  0  0  0  0  0  0
   -0.1439    0.1465   -1.2134 C   0  0  0  0  0  0  0  0  0  0  0  0
   -0.5702   -0.2925   -2.1216 H   0  0  0  0  0  0  0  0  0  0  0  0
   -0.8297    0.9327   -0.8821 H   0  0  0  0  0  0  0  0  0  0  0  0
    1.1611    0.8183   -1.6186 C   0  0  0  0  0  0  0  0  0  0  0  0
    1.2577    1.2950   -2.9392 C   0  0  0  0  0  0  0  0  0  0  0  0
    0.4288    1.1645   -3.6282 H   0  0  0  0  0  0  0  0  0  0  0  0
    2.4100    1.9412   -3.3985 C   0  0  0  0  0  0  0  0  0  0  0  0
    2.4635    2.2960   -4.4235 H   0  0  0  0  0  0  0  0  0  0  0  0
    3.4918    2.1313   -2.5381 C   0  0  0  0  0  0  0  0  0  0  0  0
    4.3891    2.6324   -2.8893 H   0  0  0  0  0  0  0  0  0  0  0  0
    3.4138    1.6762   -1.2212 C   0  0  0  0  0  0  0  0  0  0  0  0
    4.2503    1.8237   -0.5440 H   0  0  0  0  0  0  0  0  0  0  0  0
    2.2599    1.0300   -0.7650 C   0  0  0  0  0  0  0  0  0  0  0  0
    2.2604    0.7100    0.2665 H   0  0  0  0  0  0  0  0  0  0  0  0
    0.1029   -0.4243    1.3012 C   0  0  0  0  0  0  0  0  0  0  0  0
    1.1559   -0.6159    1.8952 O   0  0  0  0  0  0  0  0  0  0  0  0
   -0.9152    0.2534    1.9504 N   0  0  0  0  0  0  0  0  0  0  0  0
   -1.8202    0.2527    1.4932 H   0  0  0  0  0  0  0  0  0  0  0  0
   -0.8420    0.6304    3.3565 C   0  0  0  0  0  0  0  0  0  0  0  0
   -0.0046    1.3151    3.5267 H   0  0  0  0  0  0  0  0  0  0  0  0
   -1.7651    1.1318    3.6623 H   0  0  0  0  0  0  0  0  0  0  0  0
   -0.7045   -0.2571    3.9835 H   0  0  0  0  0  0  0  0  0  0  0  0
  1  2  1  0  0  0  0
  2  3  1  0  0  0  0
  2  4  1  0  0  0  0
  2  5  1  0  0  0  0
  5  6  2  0  0  0  0
  5  7  1  0  0  0  0
  7  8  1  0  0  0  0
  7  9  1  0  0  0  0
  9 10  1  0  0  0  0
  9 11  1  0  0  0  0
  9 25  1  0  0  0  0
 11 12  1  0  0  0  0
 11 13  1  0  0  0  0
 11 14  1  0  0  0  0
 14 15  1  0  0  0  0
 14 23  2  0  0  0  0
 15 16  1  0  0  0  0
 15 17  2  0  0  0  0
 17 18  1  0  0  0  0
 17 19  1  0  0  0  0
 19 20  1  0  0  0  0
 19 21  2  0  0  0  0
 21 22  1  0  0  0  0
 21 23  1  0  0  0  0
 23 24  1  0  0  0  0
 25 26  2  0  0  0  0
 25 27  1  0  0  0  0
 27 28  1  0  0  0  0
 27 29  1  0  0  0  0
 29 30  1  0  0  0  0
 29 31  1  0  0  0  0
 29 32  1  0  0  0  0
M  END
$$$$

  -OEChem-03222214073D

 32 32  0     1  0  0  0  0  0999 V2000
   -3.2831   -4.2876    0.8551 H   0  0  0  0  0  0  0  0  0  0  0  0
   -3.1675   -3.3983    0.2286 C   0  0  0  0  0  0  0  0  0  0  0  0
   -3.9715   -2.6966    0.4633 H   0  0  0  0  0  0  0  0  0  0  0  0
   -3.2450   -3.6961   -0.8199 H   0  0  0  0  0  0  0  0  0  0  0  0
   -1.8203   -2.7498    0.4878 C   0  0  0  0  0  0  0  0  0  0  0  0
   -1.0886   -3.2066    1.3462 O   0  0  0  0  0  0  0  0  0  0  0  0
   -1.4365   -1.6514   -0.2590 N   0  0  0  0  0  0  0  0  0  0  0  0
   -2.0570   -1.3776   -1.0146 H   0  0  0  0  0  0  0  0  0  0  0  0
   -0.1299   -0.9691   -0.1422 C   0  0  1  0  0  0  0  0  0  0  0  0
    0.6758   -1.6755   -0.3705 H   0  0  0  0  0  0  0  0  0  0  0  0
   -0.1551    0.1594   -1.2002 C   0  0  0  0  0  0  0  0  0  0  0  0
   -0.5707   -0.2631   -2.1210 H   0  0  0  0  0  0  0  0  0  0  0  0
   -0.8442    0.9394   -0.8608 H   0  0  0  0  0  0  0  0  0  0  0  0
    1.1528    0.8311   -1.5884 C   0  0  0  0  0  0  0  0  0  0  0  0
    1.1505    1.6099   -2.7589 C   0  0  0  0  0  0  0  0  0  0  0  0
    0.2326    1.7343   -3.3252 H   0  0  0  0  0  0  0  0  0  0  0  0
    2.3115    2.2447   -3.2124 C   0  0  0  0  0  0  0  0  0  0  0  0
    2.2844    2.8494   -4.1140 H   0  0  0  0  0  0  0  0  0  0  0  0
    3.5063    2.1002   -2.5055 C   0  0  0  0  0  0  0  0  0  0  0  0
    4.4104    2.5920   -2.8521 H   0  0  0  0  0  0  0  0  0  0  0  0
    3.5358    1.3120   -1.3538 C   0  0  0  0  0  0  0  0  0  0  0  0
    4.4643    1.1844   -0.8047 H   0  0  0  0  0  0  0  0  0  0  0  0
    2.3731    0.6771   -0.9039 C   0  0  0  0  0  0  0  0  0  0  0  0
    2.4639    0.0575   -0.0220 H   0  0  0  0  0  0  0  0  0  0  0  0
    0.0920   -0.4134    1.2897 C   0  0  0  0  0  0  0  0  0  0  0  0
    1.1578   -0.5612    1.8727 O   0  0  0  0  0  0  0  0  0  0  0  0
   -0.9291    0.2647    1.9339 N   0  0  0  0  0  0  0  0  0  0  0  0
   -1.8383    0.2449    1.4859 H   0  0  0  0  0  0  0  0  0  0  0  0
   -0.8404    0.6924    3.3242 C   0  0  0  0  0  0  0  0  0  0  0  0
   -0.0080    1.3913    3.4571 H   0  0  0  0  0  0  0  0  0  0  0  0
   -1.7642    1.1952    3.6252 H   0  0  0  0  0  0  0  0  0  0  0  0
   -0.6844   -0.1706    3.9802 H   0  0  0  0  0  0  0  0  0  0  0  0
  1  2  1  0  0  0  0
  2  3  1  0  0  0  0
  2  4  1  0  0  0  0
  2  5  1  0  0  0  0
  5  6  2  0  0  0  0
  5  7  1  0  0  0  0
  7  8  1  0  0  0  0
  7  9  1  0  0  0  0
  9 10  1  0  0  0  0
  9 11  1  0  0  0  0
  9 25  1  0  0  0  0
 11 12  1  0  0  0  0
 11 13  1  0  0  0  0
 11 14  1  0  0  0  0
 14 15  1  0  0  0  0
 14 23  2  0  0  0  0
 15 16  1  0  0  0  0
 15 17  2  0  0  0  0
 17 18  1  0  0  0  0
 17 19  1  0  0  0  0
 19 20  1  0  0  0  0
 19 21  2  0  0  0  0
 21 22  1  0  0  0  0
 21 23  1  0  0  0  0
 23 24  1  0  0  0  0
 25 26  2  0  0  0  0
 25 27  1  0  0  0  0
 27 28  1  0  0  0  0
 27 29  1  0  0  0  0
 29 30  1  0  0  0  0
 29 31  1  0  0  0  0
 29 32  1  0  0  0  0
M  END
$$$$

  -OEChem-03222214073D

 32 32  0     1  0  0  0  0  0999 V2000
   -3.2680   -4.3813    0.8597 H   0  0  0  0  0  0  0  0  0  0  0  0
   -3.1917   -3.4984    0.2184 C   0  0  0  0  0  0  0  0  0  0  0  0
   -4.0323   -2.8342    0.4334 H   0  0  0  0  0  0  0  0  0  0  0  0
   -3.2452   -3.8184   -0.8251 H   0  0  0  0  0  0  0  0  0  0  0  0
   -1.8808   -2.7780    0.4762 C   0  0  0  0  0  0  0  0  0  0  0  0
   -1.1319   -3.1788    1.3484 O   0  0  0  0  0  0  0  0  0  0  0  0
   -1.5511   -1.6674   -0.2769 N   0  0  0  0  0  0  0  0  0  0  0  0
   -2.1743   -1.4414   -1.0463 H   0  0  0  0  0  0  0  0  0  0  0  0
   -0.2510   -0.9699   -0.2036 C   0  0  1  0  0  0  0  0  0  0  0  0
    0.5084   -1.7179   -0.4494 H   0  0  0  0  0  0  0  0  0  0  0  0
   -0.2468    0.1434   -1.2766 C   0  0  0  0  0  0  0  0  0  0  0  0
   -0.8789   -0.1789   -2.1099 H   0  0  0  0  0  0  0  0  0  0  0  0
   -0.7058    1.0430   -0.8531 H   0  0  0  0  0  0  0  0  0  0  0  0
    1.0936    0.5237   -1.8838 C   0  0  0  0  0  0  0  0  0  0  0  0
    1.0970    1.5341   -2.8599 C   0  0  0  0  0  0  0  0  0  0  0  0
    0.1631    1.9971   -3.1633 H   0  0  0  0  0  0  0  0  0  0  0  0
    2.2874    1.9580   -3.4598 C   0  0  0  0  0  0  0  0  0  0  0  0
    2.2683    2.7363   -4.2167 H   0  0  0  0  0  0  0  0  0  0  0  0
    3.5022    1.3831   -3.0821 C   0  0  0  0  0  0  0  0  0  0  0  0
    4.4295    1.7120   -3.5418 H   0  0  0  0  0  0  0  0  0  0  0  0
    3.5218    0.3895   -2.1014 C   0  0  0  0  0  0  0  0  0  0  0  0
    4.4651   -0.0508   -1.7918 H   0  0  0  0  0  0  0  0  0  0  0  0
    2.3305   -0.0350   -1.5037 C   0  0  0  0  0  0  0  0  0  0  0  0
    2.4069   -0.7921   -0.7305 H   0  0  0  0  0  0  0  0  0  0  0  0
    0.1010   -0.3964    1.1884 C   0  0  0  0  0  0  0  0  0  0  0  0
    1.2562   -0.4188    1.5920 O   0  0  0  0  0  0  0  0  0  0  0  0
   -0.8539    0.2922    1.9155 N   0  0  0  0  0  0  0  0  0  0  0  0
   -1.8150    0.1835    1.6104 H   0  0  0  0  0  0  0  0  0  0  0  0
   -0.5964    0.8267    3.2469 C   0  0  0  0  0  0  0  0  0  0  0  0
    0.2346    1.5396    3.2198 H   0  0  0  0  0  0  0  0  0  0  0  0
   -1.4824    1.3457    3.6246 H   0  0  0  0  0  0  0  0  0  0  0  0
   -0.3440    0.0181    3.9410 H   0  0  0  0  0  0  0  0  0  0  0  0
  1  2  1  0  0  0  0
  2  3  1  0  0  0  0
  2  4  1  0  0  0  0
  2  5  1  0  0  0  0
  5  6  2  0  0  0  0
  5  7  1  0  0  0  0
  7  8  1  0  0  0  0
  7  9  1  0  0  0  0
  9 10  1  0  0  0  0
  9 11  1  0  0  0  0
  9 25  1  0  0  0  0
 11 12  1  0  0  0  0
 11 13  1  0  0  0  0
 11 14  1  0  0  0  0
 14 15  1  0  0  0  0
 14 23  2  0  0  0  0
 15 16  1  0  0  0  0
 15 17  2  0  0  0  0
 17 18  1  0  0  0  0
 17 19  1  0  0  0  0
 19 20  1  0  0  0  0
 19 21  2  0  0  0  0
 21 22  1  0  0  0  0
 21 23  1  0  0  0  0
 23 24  1  0  0  0  0
 25 26  2  0  0  0  0
 25 27  1  0  0  0  0
 27 28  1  0  0  0  0
 27 29  1  0  0  0  0
 29 30  1  0  0  0  0
 29 31  1  0  0  0  0
 29 32  1  0  0  0  0
M  END
$$$$

  -OEChem-03222214073D

 32 32  0     1  0  0  0  0  0999 V2000
   -3.2829   -4.3896    0.8583 H   0  0  0  0  0  0  0  0  0  0  0  0
   -3.2075   -3.5070    0.2165 C   0  0  0  0  0  0  0  0  0  0  0  0
   -4.0492   -2.8439    0.4303 H   0  0  0  0  0  0  0  0  0  0  0  0
   -3.2593   -3.8278   -0.8268 H   0  0  0  0  0  0  0  0  0  0  0  0
   -1.8982   -2.7847    0.4749 C   0  0  0  0  0  0  0  0  0  0  0  0
   -1.1483   -3.1843    1.3468 O   0  0  0  0  0  0  0  0  0  0  0  0
   -1.5700   -1.6735   -0.2775 N   0  0  0  0  0  0  0  0  0  0  0  0
   -2.1955   -1.4439   -1.0439 H   0  0  0  0  0  0  0  0  0  0  0  0
   -0.2704   -0.9762   -0.2034 C   0  0  1  0  0  0  0  0  0  0  0  0
    0.4779   -1.7361   -0.4368 H   0  0  0  0  0  0  0  0  0  0  0  0
   -0.2540    0.1309   -1.2827 C   0  0  0  0  0  0  0  0  0  0  0  0
   -0.8784   -0.1936   -2.1208 H   0  0  0  0  0  0  0  0  0  0  0  0
   -0.7195    1.0296   -0.8645 H   0  0  0  0  0  0  0  0  0  0  0  0
    1.0906    0.5092   -1.8845 C   0  0  0  0  0  0  0  0  0  0  0  0
    1.1542    1.7103   -2.6111 C   0  0  0  0  0  0  0  0  0  0  0  0
    0.2638    2.3200   -2.7284 H   0  0  0  0  0  0  0  0  0  0  0  0
    2.3489    2.1424   -3.1957 C   0  0  0  0  0  0  0  0  0  0  0  0
    2.3754    3.0725   -3.7555 H   0  0  0  0  0  0  0  0  0  0  0  0
    3.5097    1.3803   -3.0548 C   0  0  0  0  0  0  0  0  0  0  0  0
    4.4410    1.7152   -3.5019 H   0  0  0  0  0  0  0  0  0  0  0  0
    3.4711    0.1897   -2.3266 C   0  0  0  0  0  0  0  0  0  0  0  0
    4.3748   -0.3996   -2.2024 H   0  0  0  0  0  0  0  0  0  0  0  0
    2.2747   -0.2434   -1.7445 C   0  0  0  0  0  0  0  0  0  0  0  0
    2.3122   -1.1637   -1.1732 H   0  0  0  0  0  0  0  0  0  0  0  0
    0.1016   -0.3969    1.1785 C   0  0  0  0  0  0  0  0  0  0  0  0
    1.2666   -0.4078    1.5529 O   0  0  0  0  0  0  0  0  0  0  0  0
   -0.8402    0.2992    1.9152 N   0  0  0  0  0  0  0  0  0  0  0  0
   -1.8071    0.1818    1.6325 H   0  0  0  0  0  0  0  0  0  0  0  0
   -0.5570    0.8504    3.2342 C   0  0  0  0  0  0  0  0  0  0  0  0
    0.2752    1.5606    3.1829 H   0  0  0  0  0  0  0  0  0  0  0  0
   -1.4349    1.3768    3.6206 H   0  0  0  0  0  0  0  0  0  0  0  0
   -0.2943    0.0499    3.9338 H   0  0  0  0  0  0  0  0  0  0  0  0
  1  2  1  0  0  0  0
  2  3  1  0  0  0  0
  2  4  1  0  0  0  0
  2  5  1  0  0  0  0
  5  6  2  0  0  0  0
  5  7  1  0  0  0  0
  7  8  1  0  0  0  0
  7  9  1  0  0  0  0
  9 10  1  0  0  0  0
  9 11  1  0  0  0  0
  9 25  1  0  0  0  0
 11 12  1  0  0  0  0
 11 13  1  0  0  0  0
 11 14  1  0  0  0  0
 14 15  1  0  0  0  0
 14 23  2  0  0  0  0
 15 16  1  0  0  0  0
 15 17  2  0  0  0  0
 17 18  1  0  0  0  0
 17 19  1  0  0  0  0
 19 20  1  0  0  0  0
 19 21  2  0  0  0  0
 21 22  1  0  0  0  0
 21 23  1  0  0  0  0
 23 24  1  0  0  0  0
 25 26  2  0  0  0  0
 25 27  1  0  0  0  0
 27 28  1  0  0  0  0
 27 29  1  0  0  0  0
 29 30  1  0  0  0  0
 29 31  1  0  0  0  0
 29 32  1  0  0  0  0
M  END
$$$$

  -OEChem-03222214073D

 32 32  0     1  0  0  0  0  0999 V2000
   -3.2406   -4.3963    0.8841 H   0  0  0  0  0  0  0  0  0  0  0  0
   -3.1726   -3.5163    0.2380 C   0  0  0  0  0  0  0  0  0  0  0  0
   -4.0145   -2.8546    0.4550 H   0  0  0  0  0  0  0  0  0  0  0  0
   -3.2306   -3.8412   -0.8037 H   0  0  0  0  0  0  0  0  0  0  0  0
   -1.8641   -2.7886    0.4841 C   0  0  0  0  0  0  0  0  0  0  0  0
   -1.1060   -3.1828    1.3512 O   0  0  0  0  0  0  0  0  0  0  0  0
   -1.5467   -1.6779   -0.2738 N   0  0  0  0  0  0  0  0  0  0  0  0
   -2.1779   -1.4532   -1.0370 H   0  0  0  0  0  0  0  0  0  0  0  0
   -0.2548   -0.9662   -0.2030 C   0  0  1  0  0  0  0  0  0  0  0  0
    0.5133   -1.7086   -0.4260 H   0  0  0  0  0  0  0  0  0  0  0  0
   -0.2569    0.1501   -1.2735 C   0  0  0  0  0  0  0  0  0  0  0  0
   -0.8775   -0.1725   -2.1151 H   0  0  0  0  0  0  0  0  0  0  0  0
   -0.7310    1.0414   -0.8496 H   0  0  0  0  0  0  0  0  0  0  0  0
    1.0917    0.5255   -1.8637 C   0  0  0  0  0  0  0  0  0  0  0  0
    1.2780    1.8492   -2.2971 C   0  0  0  0  0  0  0  0  0  0  0  0
    0.4846    2.5798   -2.1724 H   0  0  0  0  0  0  0  0  0  0  0  0
    2.4816    2.2560   -2.8822 C   0  0  0  0  0  0  0  0  0  0  0  0
    2.6116    3.2870   -3.1978 H   0  0  0  0  0  0  0  0  0  0  0  0
    3.5178    1.3372   -3.0580 C   0  0  0  0  0  0  0  0  0  0  0  0
    4.4556    1.6514   -3.5065 H   0  0  0  0  0  0  0  0  0  0  0  0
    3.3428    0.0115   -2.6562 C   0  0  0  0  0  0  0  0  0  0  0  0
    4.1449   -0.7072   -2.7955 H   0  0  0  0  0  0  0  0  0  0  0  0
    2.1377   -0.3947   -2.0727 C   0  0  0  0  0  0  0  0  0  0  0  0
    2.0460   -1.4376   -1.7929 H   0  0  0  0  0  0  0  0  0  0  0  0
    0.0988   -0.3799    1.1814 C   0  0  0  0  0  0  0  0  0  0  0  0
    1.2608   -0.3665    1.5644 O   0  0  0  0  0  0  0  0  0  0  0  0
   -0.8604    0.3043    1.9073 N   0  0  0  0  0  0  0  0  0  0  0  0
   -1.8227    0.1679    1.6175 H   0  0  0  0  0  0  0  0  0  0  0  0
   -0.5988    0.8634    3.2276 C   0  0  0  0  0  0  0  0  0  0  0  0
    0.2228    1.5860    3.1825 H   0  0  0  0  0  0  0  0  0  0  0  0
   -1.4883    1.3775    3.6034 H   0  0  0  0  0  0  0  0  0  0  0  0
   -0.3311    0.0698    3.9330 H   0  0  0  0  0  0  0  0  0  0  0  0
  1  2  1  0  0  0  0
  2  3  1  0  0  0  0
  2  4  1  0  0  0  0
  2  5  1  0  0  0  0
  5  6  2  0  0  0  0
  5  7  1  0  0  0  0
  7  8  1  0  0  0  0
  7  9  1  0  0  0  0
  9 10  1  0  0  0  0
  9 11  1  0  0  0  0
  9 25  1  0  0  0  0
 11 12  1  0  0  0  0
 11 13  1  0  0  0  0
 11 14  1  0  0  0  0
 14 15  1  0  0  0  0
 14 23  2  0  0  0  0
 15 16  1  0  0  0  0
 15 17  2  0  0  0  0
 17 18  1  0  0  0  0
 17 19  1  0  0  0  0
 19 20  1  0  0  0  0
 19 21  2  0  0  0  0
 21 22  1  0  0  0  0
 21 23  1  0  0  0  0
 23 24  1  0  0  0  0
 25 26  2  0  0  0  0
 25 27  1  0  0  0  0
 27 28  1  0  0  0  0
 27 29  1  0  0  0  0
 29 30  1  0  0  0  0
 29 31  1  0  0  0  0
 29 32  1  0  0  0  0
M  END
$$$$

  -OEChem-03222214073D

 32 32  0     1  0  0  0  0  0999 V2000
   -3.1793   -4.4215    0.8855 H   0  0  0  0  0  0  0  0  0  0  0  0
   -3.1327   -3.5371    0.2434 C   0  0  0  0  0  0  0  0  0  0  0  0
   -3.9809   -2.8887    0.4761 H   0  0  0  0  0  0  0  0  0  0  0  0
   -3.2007   -3.8576   -0.7990 H   0  0  0  0  0  0  0  0  0  0  0  0
   -1.8305   -2.7933    0.4745 C   0  0  0  0  0  0  0  0  0  0  0  0
   -1.0552   -3.1827    1.3283 O   0  0  0  0  0  0  0  0  0  0  0  0
   -1.5374   -1.6757   -0.2830 N   0  0  0  0  0  0  0  0  0  0  0  0
   -2.1849   -1.4519   -1.0327 H   0  0  0  0  0  0  0  0  0  0  0  0
   -0.2551   -0.9457   -0.2258 C   0  0  1  0  0  0  0  0  0  0  0  0
    0.5321   -1.6655   -0.4664 H   0  0  0  0  0  0  0  0  0  0  0  0
   -0.2904    0.1792   -1.2845 C   0  0  0  0  0  0  0  0  0  0  0  0
   -0.9125   -0.1394   -2.1266 H   0  0  0  0  0  0  0  0  0  0  0  0
   -0.7658    1.0661   -0.8528 H   0  0  0  0  0  0  0  0  0  0  0  0
    1.0644    0.5397   -1.8596 C   0  0  0  0  0  0  0  0  0  0  0  0
    1.4162    1.8924   -1.9971 C   0  0  0  0  0  0  0  0  0  0  0  0
    0.7444    2.6701   -1.6472 H   0  0  0  0  0  0  0  0  0  0  0  0
    2.6376    2.2614   -2.5708 C   0  0  0  0  0  0  0  0  0  0  0  0
    2.9014    3.3111   -2.6575 H   0  0  0  0  0  0  0  0  0  0  0  0
    3.5190    1.2799   -3.0302 C   0  0  0  0  0  0  0  0  0  0  0  0
    4.4695    1.5644   -3.4716 H   0  0  0  0  0  0  0  0  0  0  0  0
    3.1726   -0.0693   -2.9232 C   0  0  0  0  0  0  0  0  0  0  0  0
    3.8526   -0.8345   -3.2857 H   0  0  0  0  0  0  0  0  0  0  0  0
    1.9498   -0.4364   -2.3513 C   0  0  0  0  0  0  0  0  0  0  0  0
    1.7000   -1.4910   -2.3000 H   0  0  0  0  0  0  0  0  0  0  0  0
    0.1018   -0.3609    1.1589 C   0  0  0  0  0  0  0  0  0  0  0  0
    1.2665   -0.3269    1.5322 O   0  0  0  0  0  0  0  0  0  0  0  0
   -0.8616    0.3051    1.8966 N   0  0  0  0  0  0  0  0  0  0  0  0
   -1.8245    0.1566    1.6148 H   0  0  0  0  0  0  0  0  0  0  0  0
   -0.5950    0.8707    3.2130 C   0  0  0  0  0  0  0  0  0  0  0  0
    0.2135    1.6074    3.1572 H   0  0  0  0  0  0  0  0  0  0  0  0
   -1.4888    1.3698    3.5988 H   0  0  0  0  0  0  0  0  0  0  0  0
   -0.3052    0.0826    3.9159 H   0  0  0  0  0  0  0  0  0  0  0  0
  1  2  1  0  0  0  0
  2  3  1  0  0  0  0
  2  4  1  0  0  0  0
  2  5  1  0  0  0  0
  5  6  2  0  0  0  0
  5  7  1  0  0  0  0
  7  8  1  0  0  0  0
  7  9  1  0  0  0  0
  9 10  1  0  0  0  0
  9 11  1  0  0  0  0
  9 25  1  0  0  0  0
 11 12  1  0  0  0  0
 11 13  1  0  0  0  0
 11 14  1  0  0  0  0
 14 15  1  0  0  0  0
 14 23  2  0  0  0  0
 15 16  1  0  0  0  0
 15 17  2  0  0  0  0
 17 18  1  0  0  0  0
 17 19  1  0  0  0  0
 19 20  1  0  0  0  0
 19 21  2  0  0  0  0
 21 22  1  0  0  0  0
 21 23  1  0  0  0  0
 23 24  1  0  0  0  0
 25 26  2  0  0  0  0
 25 27  1  0  0  0  0
 27 28  1  0  0  0  0
 27 29  1  0  0  0  0
 29 30  1  0  0  0  0
 29 31  1  0  0  0  0
 29 32  1  0  0  0  0
M  END
$$$$

  -OEChem-03222214073D

 32 32  0     1  0  0  0  0  0999 V2000
   -3.1249   -4.4399    0.8873 H   0  0  0  0  0  0  0  0  0  0  0  0
   -3.1034   -3.5521    0.2484 C   0  0  0  0  0  0  0  0  0  0  0  0
   -3.9554   -2.9165    0.5011 H   0  0  0  0  0  0  0  0  0  0  0  0
   -3.1884   -3.8681   -0.7941 H   0  0  0  0  0  0  0  0  0  0  0  0
   -1.8074   -2.7913    0.4574 C   0  0  0  0  0  0  0  0  0  0  0  0
   -1.0096   -3.1760    1.2925 O   0  0  0  0  0  0  0  0  0  0  0  0
   -1.5448   -1.6650   -0.2984 N   0  0  0  0  0  0  0  0  0  0  0  0
   -2.2119   -1.4430   -1.0313 H   0  0  0  0  0  0  0  0  0  0  0  0
   -0.2708   -0.9193   -0.2616 C   0  0  1  0  0  0  0  0  0  0  0  0
    0.5240   -1.6234   -0.5295 H   0  0  0  0  0  0  0  0  0  0  0  0
   -0.3348    0.2091   -1.3113 C   0  0  0  0  0  0  0  0  0  0  0  0
   -0.9631   -0.1069   -2.1498 H   0  0  0  0  0  0  0  0  0  0  0  0
   -0.8042    1.0968   -0.8749 H   0  0  0  0  0  0  0  0  0  0  0  0
    1.0246    0.5509   -1.8762 C   0  0  0  0  0  0  0  0  0  0  0  0
    1.5419    1.8474   -1.7316 C   0  0  0  0  0  0  0  0  0  0  0  0
    0.9859    2.5997   -1.1805 H   0  0  0  0  0  0  0  0  0  0  0  0
    2.7857    2.1833   -2.2767 C   0  0  0  0  0  0  0  0  0  0  0  0
    3.1820    3.1857   -2.1455 H   0  0  0  0  0  0  0  0  0  0  0  0
    3.5212    1.2274   -2.9831 C   0  0  0  0  0  0  0  0  0  0  0  0
    4.4890    1.4865   -3.4024 H   0  0  0  0  0  0  0  0  0  0  0  0
    3.0099   -0.0633   -3.1456 C   0  0  0  0  0  0  0  0  0  0  0  0
    3.5801   -0.8077   -3.6932 H   0  0  0  0  0  0  0  0  0  0  0  0
    1.7658   -0.3975   -2.6000 C   0  0  0  0  0  0  0  0  0  0  0  0
    1.3809   -1.4027   -2.7400 H   0  0  0  0  0  0  0  0  0  0  0  0
    0.1069   -0.3390    1.1200 C   0  0  0  0  0  0  0  0  0  0  0  0
    1.2783   -0.2873    1.4693 O   0  0  0  0  0  0  0  0  0  0  0  0
   -0.8499    0.3098    1.8813 N   0  0  0  0  0  0  0  0  0  0  0  0
   -1.8163    0.1476    1.6195 H   0  0  0  0  0  0  0  0  0  0  0  0
   -0.5646    0.8660    3.1980 C   0  0  0  0  0  0  0  0  0  0  0  0
    0.2389    1.6075    3.1357 H   0  0  0  0  0  0  0  0  0  0  0  0
   -1.4545    1.3578    3.6018 H   0  0  0  0  0  0  0  0  0  0  0  0
   -0.2597    0.0734    3.8895 H   0  0  0  0  0  0  0  0  0  0  0  0
  1  2  1  0  0  0  0
  2  3  1  0  0  0  0
  2  4  1  0  0  0  0
  2  5  1  0  0  0  0
  5  6  2  0  0  0  0
  5  7  1  0  0  0  0
  7  8  1  0  0  0  0
  7  9  1  0  0  0  0
  9 10  1  0  0  0  0
  9 11  1  0  0  0  0
  9 25  1  0  0  0  0
 11 12  1  0  0  0  0
 11 13  1  0  0  0  0
 11 14  1  0  0  0  0
 14 15  1  0  0  0  0
 14 23  2  0  0  0  0
 15 16  1  0  0  0  0
 15 17  2  0  0  0  0
 17 18  1  0  0  0  0
 17 19  1  0  0  0  0
 19 20  1  0  0  0  0
 19 21  2  0  0  0  0
 21 22  1  0  0  0  0
 21 23  1  0  0  0  0
 23 24  1  0  0  0  0
 25 26  2  0  0  0  0
 25 27  1  0  0  0  0
 27 28  1  0  0  0  0
 27 29  1  0  0  0  0
 29 30  1  0  0  0  0
 29 31  1  0  0  0  0
 29 32  1  0  0  0  0
M  END
$$$$

  -OEChem-03222214073D

 32 32  0     1  0  0  0  0  0999 V2000
   -3.1084   -4.4360    0.8904 H   0  0  0  0  0  0  0  0  0  0  0  0
   -3.0884   -3.5545    0.2431 C   0  0  0  0  0  0  0  0  0  0  0  0
   -3.9450   -2.9211    0.4854 H   0  0  0  0  0  0  0  0  0  0  0  0
   -3.1669   -3.8813   -0.7965 H   0  0  0  0  0  0  0  0  0  0  0  0
   -1.7971   -2.7848    0.4500 C   0  0  0  0  0  0  0  0  0  0  0  0
   -0.9926   -3.1659    1.2803 O   0  0  0  0  0  0  0  0  0  0  0  0
   -1.5476   -1.6539   -0.3034 N   0  0  0  0  0  0  0  0  0  0  0  0
   -2.2199   -1.4372   -1.0330 H   0  0  0  0  0  0  0  0  0  0  0  0
   -0.2761   -0.9035   -0.2798 C   0  0  1  0  0  0  0  0  0  0  0  0
    0.5212   -1.5982   -0.5673 H   0  0  0  0  0  0  0  0  0  0  0  0
   -0.3593    0.2283   -1.3220 C   0  0  0  0  0  0  0  0  0  0  0  0
   -0.9998   -0.0809   -2.1540 H   0  0  0  0  0  0  0  0  0  0  0  0
   -0.8168    1.1189   -0.8784 H   0  0  0  0  0  0  0  0  0  0  0  0
    1.0002    0.5581   -1.8875 C   0  0  0  0  0  0  0  0  0  0  0  0
    1.6728    1.7225   -1.4896 C   0  0  0  0  0  0  0  0  0  0  0  0
    1.2315    2.3812   -0.7478 H   0  0  0  0  0  0  0  0  0  0  0  0
    2.9268    2.0359   -2.0245 C   0  0  0  0  0  0  0  0  0  0  0  0
    3.4447    2.9334   -1.6998 H   0  0  0  0  0  0  0  0  0  0  0  0
    3.5174    1.1891   -2.9672 C   0  0  0  0  0  0  0  0  0  0  0  0
    4.4933    1.4302   -3.3783 H   0  0  0  0  0  0  0  0  0  0  0  0
    2.8533    0.0276   -3.3725 C   0  0  0  0  0  0  0  0  0  0  0  0
    3.3133   -0.6343   -4.1000 H   0  0  0  0  0  0  0  0  0  0  0  0
    1.5998   -0.2851   -2.8359 C   0  0  0  0  0  0  0  0  0  0  0  0
    1.0951   -1.1914   -3.1562 H   0  0  0  0  0  0  0  0  0  0  0  0
    0.1129   -0.3300    1.1021 C   0  0  0  0  0  0  0  0  0  0  0  0
    1.2879   -0.2612    1.4367 O   0  0  0  0  0  0  0  0  0  0  0  0
   -0.8411    0.3089    1.8753 N   0  0  0  0  0  0  0  0  0  0  0  0
   -1.8085    0.1306    1.6276 H   0  0  0  0  0  0  0  0  0  0  0  0
   -0.5461    0.8631    3.1909 C   0  0  0  0  0  0  0  0  0  0  0  0
    0.2433    1.6189    3.1209 H   0  0  0  0  0  0  0  0  0  0  0  0
   -1.4383    1.3370    3.6107 H   0  0  0  0  0  0  0  0  0  0  0  0
   -0.2170    0.0726    3.8736 H   0  0  0  0  0  0  0  0  0  0  0  0
  1  2  1  0  0  0  0
  2  3  1  0  0  0  0
  2  4  1  0  0  0  0
  2  5  1  0  0  0  0
  5  6  2  0  0  0  0
  5  7  1  0  0  0  0
  7  8  1  0  0  0  0
  7  9  1  0  0  0  0
  9 10  1  0  0  0  0
  9 11  1  0  0  0  0
  9 25  1  0  0  0  0
 11 12  1  0  0  0  0
 11 13  1  0  0  0  0
 11 14  1  0  0  0  0
 14 15  1  0  0  0  0
 14 23  2  0  0  0  0
 15 16  1  0  0  0  0
 15 17  2  0  0  0  0
 17 18  1  0  0  0  0
 17 19  1  0  0  0  0
 19 20  1  0  0  0  0
 19 21  2  0  0  0  0
 21 22  1  0  0  0  0
 21 23  1  0  0  0  0
 23 24  1  0  0  0  0
 25 26  2  0  0  0  0
 25 27  1  0  0  0  0
 27 28  1  0  0  0  0
 27 29  1  0  0  0  0
 29 30  1  0  0  0  0
 29 31  1  0  0  0  0
 29 32  1  0  0  0  0
M  END
$$$$

  -OEChem-03222214073D

 32 32  0     1  0  0  0  0  0999 V2000
   -3.1073   -4.4265    0.8981 H   0  0  0  0  0  0  0  0  0  0  0  0
   -3.0876   -3.5448    0.2511 C   0  0  0  0  0  0  0  0  0  0  0  0
   -3.9414   -2.9091    0.4970 H   0  0  0  0  0  0  0  0  0  0  0  0
   -3.1710   -3.8713   -0.7882 H   0  0  0  0  0  0  0  0  0  0  0  0
   -1.7936   -2.7787    0.4528 C   0  0  0  0  0  0  0  0  0  0  0  0
   -0.9871   -3.1606    1.2807 O   0  0  0  0  0  0  0  0  0  0  0  0
   -1.5460   -1.6478   -0.3013 N   0  0  0  0  0  0  0  0  0  0  0  0
   -2.2211   -1.4311   -1.0281 H   0  0  0  0  0  0  0  0  0  0  0  0
   -0.2730   -0.8989   -0.2850 C   0  0  1  0  0  0  0  0  0  0  0  0
    0.5241   -1.5909   -0.5803 H   0  0  0  0  0  0  0  0  0  0  0  0
   -0.3631    0.2327   -1.3274 C   0  0  0  0  0  0  0  0  0  0  0  0
   -1.0168   -0.0733   -2.1501 H   0  0  0  0  0  0  0  0  0  0  0  0
   -0.8095    1.1267   -0.8792 H   0  0  0  0  0  0  0  0  0  0  0  0
    0.9928    0.5615   -1.9029 C   0  0  0  0  0  0  0  0  0  0  0  0
    1.8057    1.5337   -1.3022 C   0  0  0  0  0  0  0  0  0  0  0  0
    1.4724    2.0439   -0.4028 H   0  0  0  0  0  0  0  0  0  0  0  0
    3.0617    1.8380   -1.8369 C   0  0  0  0  0  0  0  0  0  0  0  0
    3.6865    2.5841   -1.3554 H   0  0  0  0  0  0  0  0  0  0  0  0
    3.5157    1.1741   -2.9804 C   0  0  0  0  0  0  0  0  0  0  0  0
    4.4932    1.4079   -3.3916 H   0  0  0  0  0  0  0  0  0  0  0  0
    2.7138    0.2018   -3.5854 C   0  0  0  0  0  0  0  0  0  0  0  0
    3.0676   -0.3203   -4.4693 H   0  0  0  0  0  0  0  0  0  0  0  0
    1.4585   -0.1032   -3.0479 C   0  0  0  0  0  0  0  0  0  0  0  0
    0.8482   -0.8644   -3.5237 H   0  0  0  0  0  0  0  0  0  0  0  0
    0.1166   -0.3303    1.0992 C   0  0  0  0  0  0  0  0  0  0  0  0
    1.2909   -0.2624    1.4368 O   0  0  0  0  0  0  0  0  0  0  0  0
   -0.8386    0.3054    1.8734 N   0  0  0  0  0  0  0  0  0  0  0  0
   -1.8054    0.1255    1.6244 H   0  0  0  0  0  0  0  0  0  0  0  0
   -0.5471    0.8488    3.1941 C   0  0  0  0  0  0  0  0  0  0  0  0
    0.2448    1.6027    3.1331 H   0  0  0  0  0  0  0  0  0  0  0  0
   -1.4399    1.3218    3.6141 H   0  0  0  0  0  0  0  0  0  0  0  0
   -0.2230    0.0522    3.8721 H   0  0  0  0  0  0  0  0  0  0  0  0
  1  2  1  0  0  0  0
  2  3  1  0  0  0  0
  2  4  1  0  0  0  0
  2  5  1  0  0  0  0
  5  6  2  0  0  0  0
  5  7  1  0  0  0  0
  7  8  1  0  0  0  0
  7  9  1  0  0  0  0
  9 10  1  0  0  0  0
  9 11  1  0  0  0  0
  9 25  1  0  0  0  0
 11 12  1  0  0  0  0
 11 13  1  0  0  0  0
 11 14  1  0  0  0  0
 14 15  1  0  0  0  0
 14 23  2  0  0  0  0
 15 16  1  0  0  0  0
 15 17  2  0  0  0  0
 17 18  1  0  0  0  0
 17 19  1  0  0  0  0
 19 20  1  0  0  0  0
 19 21  2  0  0  0  0
 21 22  1  0  0  0  0
 21 23  1  0  0  0  0
 23 24  1  0  0  0  0
 25 26  2  0  0  0  0
 25 27  1  0  0  0  0
 27 28  1  0  0  0  0
 27 29  1  0  0  0  0
 29 30  1  0  0  0  0
 29 31  1  0  0  0  0
 29 32  1  0  0  0  0
M  END
$$$$

  -OEChem-03222214073D

 32 32  0     1  0  0  0  0  0999 V2000
   -3.1212   -4.4100    0.8936 H   0  0  0  0  0  0  0  0  0  0  0  0
   -3.0945   -3.5240    0.2528 C   0  0  0  0  0  0  0  0  0  0  0  0
   -3.9434   -2.8836    0.5034 H   0  0  0  0  0  0  0  0  0  0  0  0
   -3.1804   -3.8429   -0.7887 H   0  0  0  0  0  0  0  0  0  0  0  0
   -1.7947   -2.7688    0.4603 C   0  0  0  0  0  0  0  0  0  0  0  0
   -0.9960   -3.1588    1.2920 O   0  0  0  0  0  0  0  0  0  0  0  0
   -1.5331   -1.6401   -0.2927 N   0  0  0  0  0  0  0  0  0  0  0  0
   -2.2028   -1.4186   -1.0231 H   0  0  0  0  0  0  0  0  0  0  0  0
   -0.2551   -0.8986   -0.2695 C   0  0  1  0  0  0  0  0  0  0  0  0
    0.5432   -1.5913   -0.5598 H   0  0  0  0  0  0  0  0  0  0  0  0
   -0.3463    0.2251   -1.3246 C   0  0  0  0  0  0  0  0  0  0  0  0
   -1.0110   -0.0868   -2.1363 H   0  0  0  0  0  0  0  0  0  0  0  0
   -0.7888    1.1211   -0.8772 H   0  0  0  0  0  0  0  0  0  0  0  0
    0.9994    0.5718   -1.9201 C   0  0  0  0  0  0  0  0  0  0  0  0
    1.9413    1.3178   -1.1949 C   0  0  0  0  0  0  0  0  0  0  0  0
    1.7121    1.6671   -0.1923 H   0  0  0  0  0  0  0  0  0  0  0  0
    3.1907    1.6186   -1.7469 C   0  0  0  0  0  0  0  0  0  0  0  0
    3.9108    2.1916   -1.1705 H   0  0  0  0  0  0  0  0  0  0  0  0
    3.5138    1.1749   -3.0320 C   0  0  0  0  0  0  0  0  0  0  0  0
    4.4856    1.4061   -3.4580 H   0  0  0  0  0  0  0  0  0  0  0  0
    2.5863    0.4271   -3.7626 C   0  0  0  0  0  0  0  0  0  0  0  0
    2.8384    0.0757   -4.7587 H   0  0  0  0  0  0  0  0  0  0  0  0
    1.3373    0.1262   -3.2082 C   0  0  0  0  0  0  0  0  0  0  0  0
    0.6324   -0.4634   -3.7858 H   0  0  0  0  0  0  0  0  0  0  0  0
    0.1165   -0.3365    1.1228 C   0  0  0  0  0  0  0  0  0  0  0  0
    1.2818   -0.3102    1.4960 O   0  0  0  0  0  0  0  0  0  0  0  0
   -0.8450    0.3013    1.8871 N   0  0  0  0  0  0  0  0  0  0  0  0
   -1.8088    0.1468    1.6113 H   0  0  0  0  0  0  0  0  0  0  0  0
   -0.5738    0.8113    3.2252 C   0  0  0  0  0  0  0  0  0  0  0  0
    0.2338    1.5506    3.1977 H   0  0  0  0  0  0  0  0  0  0  0  0
   -1.4666    1.2927    3.6351 H   0  0  0  0  0  0  0  0  0  0  0  0
   -0.2806   -0.0058    3.8928 H   0  0  0  0  0  0  0  0  0  0  0  0
  1  2  1  0  0  0  0
  2  3  1  0  0  0  0
  2  4  1  0  0  0  0
  2  5  1  0  0  0  0
  5  6  2  0  0  0  0
  5  7  1  0  0  0  0
  7  8  1  0  0  0  0
  7  9  1  0  0  0  0
  9 10  1  0  0  0  0
  9 11  1  0  0  0  0
  9 25  1  0  0  0  0
 11 12  1  0  0  0  0
 11 13  1  0  0  0  0
 11 14  1  0  0  0  0
 14 15  1  0  0  0  0
 14 23  2  0  0  0  0
 15 16  1  0  0  0  0
 15 17  2  0  0  0  0
 17 18  1  0  0  0  0
 17 19  1  0  0  0  0
 19 20  1  0  0  0  0
 19 21  2  0  0  0  0
 21 22  1  0  0  0  0
 21 23  1  0  0  0  0
 23 24  1  0  0  0  0
 25 26  2  0  0  0  0
 25 27  1  0  0  0  0
 27 28  1  0  0  0  0
 27 29  1  0  0  0  0
 29 30  1  0  0  0  0
 29 31  1  0  0  0  0
 29 32  1  0  0  0  0
M  END
$$$$

  -OEChem-03222214073D

 32 32  0     1  0  0  0  0  0999 V2000
   -3.1521   -4.3762    0.8919 H   0  0  0  0  0  0  0  0  0  0  0  0
   -3.1028   -3.4902    0.2522 C   0  0  0  0  0  0  0  0  0  0  0  0
   -3.9476   -2.8388    0.4882 H   0  0  0  0  0  0  0  0  0  0  0  0
   -3.1744   -3.8070   -0.7911 H   0  0  0  0  0  0  0  0  0  0  0  0
   -1.7971   -2.7525    0.4827 C   0  0  0  0  0  0  0  0  0  0  0  0
   -1.0199   -3.1524    1.3296 O   0  0  0  0  0  0  0  0  0  0  0  0
   -1.5053   -1.6330   -0.2734 N   0  0  0  0  0  0  0  0  0  0  0  0
   -2.1572   -1.4113   -1.0194 H   0  0  0  0  0  0  0  0  0  0  0  0
   -0.2181   -0.9070   -0.2338 C   0  0  1  0  0  0  0  0  0  0  0  0
    0.5824   -1.6041   -0.5068 H   0  0  0  0  0  0  0  0  0  0  0  0
   -0.2981    0.2086   -1.3036 C   0  0  0  0  0  0  0  0  0  0  0  0
   -0.9690   -0.1132   -2.1061 H   0  0  0  0  0  0  0  0  0  0  0  0
   -0.7413    1.1066   -0.8613 H   0  0  0  0  0  0  0  0  0  0  0  0
    1.0354    0.5778   -1.9237 C   0  0  0  0  0  0  0  0  0  0  0  0
    2.1067    1.0692   -1.1593 C   0  0  0  0  0  0  0  0  0  0  0  0
    2.0022    1.2358   -0.0929 H   0  0  0  0  0  0  0  0  0  0  0  0
    3.3337    1.3738   -1.7578 C   0  0  0  0  0  0  0  0  0  0  0  0
    4.1502    1.7520   -1.1497 H   0  0  0  0  0  0  0  0  0  0  0  0
    3.5093    1.1895   -3.1312 C   0  0  0  0  0  0  0  0  0  0  0  0
    4.4636    1.4234   -3.5936 H   0  0  0  0  0  0  0  0  0  0  0  0
    2.4542    0.7014   -3.9053 C   0  0  0  0  0  0  0  0  0  0  0  0
    2.5880    0.5545   -4.9729 H   0  0  0  0  0  0  0  0  0  0  0  0
    1.2280    0.3974   -3.3045 C   0  0  0  0  0  0  0  0  0  0  0  0
    0.4251    0.0125   -3.9250 H   0  0  0  0  0  0  0  0  0  0  0  0
    0.1134   -0.3478    1.1707 C   0  0  0  0  0  0  0  0  0  0  0  0
    1.2537   -0.3914    1.6131 O   0  0  0  0  0  0  0  0  0  0  0  0
   -0.8668    0.2989    1.9030 N   0  0  0  0  0  0  0  0  0  0  0  0
   -1.8188    0.1838    1.5725 H   0  0  0  0  0  0  0  0  0  0  0  0
   -0.6528    0.7588    3.2692 C   0  0  0  0  0  0  0  0  0  0  0  0
    0.1710    1.4791    3.3066 H   0  0  0  0  0  0  0  0  0  0  0  0
   -1.5546    1.2478    3.6499 H   0  0  0  0  0  0  0  0  0  0  0  0
   -0.4120   -0.0861    3.9231 H   0  0  0  0  0  0  0  0  0  0  0  0
  1  2  1  0  0  0  0
  2  3  1  0  0  0  0
  2  4  1  0  0  0  0
  2  5  1  0  0  0  0
  5  6  2  0  0  0  0
  5  7  1  0  0  0  0
  7  8  1  0  0  0  0
  7  9  1  0  0  0  0
  9 10  1  0  0  0  0
  9 11  1  0  0  0  0
  9 25  1  0  0  0  0
 11 12  1  0  0  0  0
 11 13  1  0  0  0  0
 11 14  1  0  0  0  0
 14 15  1  0  0  0  0
 14 23  2  0  0  0  0
 15 16  1  0  0  0  0
 15 17  2  0  0  0  0
 17 18  1  0  0  0  0
 17 19  1  0  0  0  0
 19 20  1  0  0  0  0
 19 21  2  0  0  0  0
 21 22  1  0  0  0  0
 21 23  1  0  0  0  0
 23 24  1  0  0  0  0
 25 26  2  0  0  0  0
 25 27  1  0  0  0  0
 27 28  1  0  0  0  0
 27 29  1  0  0  0  0
 29 30  1  0  0  0  0
 29 31  1  0  0  0  0
 29 32  1  0  0  0  0
M  END
$$$$

  -OEChem-03222214073D

 32 32  0     1  0  0  0  0  0999 V2000
   -3.2078   -4.3342    0.9221 H   0  0  0  0  0  0  0  0  0  0  0  0
   -3.1304   -3.4590    0.2704 C   0  0  0  0  0  0  0  0  0  0  0  0
   -3.9605   -2.7833    0.4894 H   0  0  0  0  0  0  0  0  0  0  0  0
   -3.2004   -3.7892   -0.7689 H   0  0  0  0  0  0  0  0  0  0  0  0
   -1.8088   -2.7508    0.5037 C   0  0  0  0  0  0  0  0  0  0  0  0
   -1.0492   -3.1626    1.3606 O   0  0  0  0  0  0  0  0  0  0  0  0
   -1.4820   -1.6472   -0.2622 N   0  0  0  0  0  0  0  0  0  0  0  0
   -2.1186   -1.4201   -1.0197 H   0  0  0  0  0  0  0  0  0  0  0  0
   -0.1836   -0.9410   -0.2056 C   0  0  1  0  0  0  0  0  0  0  0  0
    0.6156   -1.6474   -0.4573 H   0  0  0  0  0  0  0  0  0  0  0  0
   -0.2409    0.1717   -1.2828 C   0  0  0  0  0  0  0  0  0  0  0  0
   -0.9099   -0.1567   -2.0844 H   0  0  0  0  0  0  0  0  0  0  0  0
   -0.6857    1.0724   -0.8476 H   0  0  0  0  0  0  0  0  0  0  0  0
    1.0849    0.5540   -1.9197 C   0  0  0  0  0  0  0  0  0  0  0  0
    2.2648    0.7641   -1.1842 C   0  0  0  0  0  0  0  0  0  0  0  0
    2.2825    0.6854   -0.1050 H   0  0  0  0  0  0  0  0  0  0  0  0
    3.4614    1.1018   -1.8248 C   0  0  0  0  0  0  0  0  0  0  0  0
    4.3608    1.2583   -1.2363 H   0  0  0  0  0  0  0  0  0  0  0  0
    3.5002    1.2386   -3.2137 C   0  0  0  0  0  0  0  0  0  0  0  0
    4.4308    1.4997   -3.7089 H   0  0  0  0  0  0  0  0  0  0  0  0
    2.3379    1.0394   -3.9607 C   0  0  0  0  0  0  0  0  0  0  0  0
    2.3630    1.1463   -5.0411 H   0  0  0  0  0  0  0  0  0  0  0  0
    1.1426    0.7009   -3.3175 C   0  0  0  0  0  0  0  0  0  0  0  0
    0.2534    0.5509   -3.9217 H   0  0  0  0  0  0  0  0  0  0  0  0
    0.1084   -0.3733    1.2061 C   0  0  0  0  0  0  0  0  0  0  0  0
    1.2189   -0.4700    1.7110 O   0  0  0  0  0  0  0  0  0  0  0  0
   -0.8869    0.2930    1.9003 N   0  0  0  0  0  0  0  0  0  0  0  0
   -1.8247    0.2181    1.5213 H   0  0  0  0  0  0  0  0  0  0  0  0
   -0.7230    0.7388    3.2782 C   0  0  0  0  0  0  0  0  0  0  0  0
    0.1188    1.4346    3.3582 H   0  0  0  0  0  0  0  0  0  0  0  0
   -1.6267    1.2518    3.6204 H   0  0  0  0  0  0  0  0  0  0  0  0
   -0.5373   -0.1166    3.9363 H   0  0  0  0  0  0  0  0  0  0  0  0
  1  2  1  0  0  0  0
  2  3  1  0  0  0  0
  2  4  1  0  0  0  0
  2  5  1  0  0  0  0
  5  6  2  0  0  0  0
  5  7  1  0  0  0  0
  7  8  1  0  0  0  0
  7  9  1  0  0  0  0
  9 10  1  0  0  0  0
  9 11  1  0  0  0  0
  9 25  1  0  0  0  0
 11 12  1  0  0  0  0
 11 13  1  0  0  0  0
 11 14  1  0  0  0  0
 14 15  1  0  0  0  0
 14 23  2  0  0  0  0
 15 16  1  0  0  0  0
 15 17  2  0  0  0  0
 17 18  1  0  0  0  0
 17 19  1  0  0  0  0
 19 20  1  0  0  0  0
 19 21  2  0  0  0  0
 21 22  1  0  0  0  0
 21 23  1  0  0  0  0
 23 24  1  0  0  0  0
 25 26  2  0  0  0  0
 25 27  1  0  0  0  0
 27 28  1  0  0  0  0
 27 29  1  0  0  0  0
 29 30  1  0  0  0  0
 29 31  1  0  0  0  0
 29 32  1  0  0  0  0
M  END
$$$$

  -OEChem-03222214073D

 32 32  0     1  0  0  0  0  0999 V2000
   -3.2507   -4.3256    0.9352 H   0  0  0  0  0  0  0  0  0  0  0  0
   -3.1615   -3.4523    0.2825 C   0  0  0  0  0  0  0  0  0  0  0  0
   -3.9847   -2.7670    0.4976 H   0  0  0  0  0  0  0  0  0  0  0  0
   -3.2316   -3.7832   -0.7565 H   0  0  0  0  0  0  0  0  0  0  0  0
   -1.8332   -2.7581    0.5187 C   0  0  0  0  0  0  0  0  0  0  0  0
   -1.0852   -3.1678    1.3869 O   0  0  0  0  0  0  0  0  0  0  0  0
   -1.4862   -1.6689   -0.2585 N   0  0  0  0  0  0  0  0  0  0  0  0
   -2.1129   -1.4444   -1.0252 H   0  0  0  0  0  0  0  0  0  0  0  0
   -0.1800   -0.9778   -0.1992 C   0  0  1  0  0  0  0  0  0  0  0  0
    0.6106   -1.6973   -0.4393 H   0  0  0  0  0  0  0  0  0  0  0  0
   -0.2135    0.1357   -1.2757 C   0  0  0  0  0  0  0  0  0  0  0  0
   -0.8759   -0.1921   -2.0834 H   0  0  0  0  0  0  0  0  0  0  0  0
   -0.6575    1.0392   -0.8456 H   0  0  0  0  0  0  0  0  0  0  0  0
    1.1109    0.5149   -1.9187 C   0  0  0  0  0  0  0  0  0  0  0  0
    2.3571    0.4279   -1.2713 C   0  0  0  0  0  0  0  0  0  0  0  0
    2.4496    0.0636   -0.2566 H   0  0  0  0  0  0  0  0  0  0  0  0
    3.5346    0.8092   -1.9234 C   0  0  0  0  0  0  0  0  0  0  0  0
    4.4859    0.7306   -1.4048 H   0  0  0  0  0  0  0  0  0  0  0  0
    3.4890    1.2898   -3.2334 C   0  0  0  0  0  0  0  0  0  0  0  0
    4.4047    1.5856   -3.7370 H   0  0  0  0  0  0  0  0  0  0  0  0
    2.2611    1.3907   -3.8895 C   0  0  0  0  0  0  0  0  0  0  0  0
    2.2201    1.7679   -4.9070 H   0  0  0  0  0  0  0  0  0  0  0  0
    1.0852    1.0086   -3.2351 C   0  0  0  0  0  0  0  0  0  0  0  0
    0.1414    1.1022   -3.7636 H   0  0  0  0  0  0  0  0  0  0  0  0
    0.1062   -0.3945    1.2089 C   0  0  0  0  0  0  0  0  0  0  0  0
    1.2145   -0.4808    1.7199 O   0  0  0  0  0  0  0  0  0  0  0  0
   -0.8877    0.2925    1.8848 N   0  0  0  0  0  0  0  0  0  0  0  0
   -1.8242    0.2157    1.5034 H   0  0  0  0  0  0  0  0  0  0  0  0
   -0.7265    0.7678    3.2533 C   0  0  0  0  0  0  0  0  0  0  0  0
    0.1184    1.4612    3.3216 H   0  0  0  0  0  0  0  0  0  0  0  0
   -1.6292    1.2923    3.5807 H   0  0  0  0  0  0  0  0  0  0  0  0
   -0.5475   -0.0741    3.9306 H   0  0  0  0  0  0  0  0  0  0  0  0
  1  2  1  0  0  0  0
  2  3  1  0  0  0  0
  2  4  1  0  0  0  0
  2  5  1  0  0  0  0
  5  6  2  0  0  0  0
  5  7  1  0  0  0  0
  7  8  1  0  0  0  0
  7  9  1  0  0  0  0
  9 10  1  0  0  0  0
  9 11  1  0  0  0  0
  9 25  1  0  0  0  0
 11 12  1  0  0  0  0
 11 13  1  0  0  0  0
 11 14  1  0  0  0  0
 14 15  1  0  0  0  0
 14 23  2  0  0  0  0
 15 16  1  0  0  0  0
 15 17  2  0  0  0  0
 17 18  1  0  0  0  0
 17 19  1  0  0  0  0
 19 20  1  0  0  0  0
 19 21  2  0  0  0  0
 21 22  1  0  0  0  0
 21 23  1  0  0  0  0
 23 24  1  0  0  0  0
 25 26  2  0  0  0  0
 25 27  1  0  0  0  0
 27 28  1  0  0  0  0
 27 29  1  0  0  0  0
 29 30  1  0  0  0  0
 29 31  1  0  0  0  0
 29 32  1  0  0  0  0
M  END
$$$$

  -OEChem-03222214073D

 32 32  0     1  0  0  0  0  0999 V2000
   -3.2593   -4.3505    0.9205 H   0  0  0  0  0  0  0  0  0  0  0  0
   -3.1802   -3.4722    0.2733 C   0  0  0  0  0  0  0  0  0  0  0  0
   -4.0053   -2.7929    0.5004 H   0  0  0  0  0  0  0  0  0  0  0  0
   -3.2580   -3.7959   -0.7674 H   0  0  0  0  0  0  0  0  0  0  0  0
   -1.8534   -2.7726    0.5031 C   0  0  0  0  0  0  0  0  0  0  0  0
   -1.0972   -3.1801    1.3656 O   0  0  0  0  0  0  0  0  0  0  0  0
   -1.5172   -1.6767   -0.2688 N   0  0  0  0  0  0  0  0  0  0  0  0
   -2.1484   -1.4503   -1.0313 H   0  0  0  0  0  0  0  0  0  0  0  0
   -0.2131   -0.9837   -0.2112 C   0  0  1  0  0  0  0  0  0  0  0  0
    0.5630   -1.7167   -0.4560 H   0  0  0  0  0  0  0  0  0  0  0  0
   -0.2316    0.1315   -1.2836 C   0  0  0  0  0  0  0  0  0  0  0  0
   -0.8833   -0.1922   -2.1016 H   0  0  0  0  0  0  0  0  0  0  0  0
   -0.6791    1.0338   -0.8539 H   0  0  0  0  0  0  0  0  0  0  0  0
    1.0976    0.5089   -1.9163 C   0  0  0  0  0  0  0  0  0  0  0  0
    2.3557    0.1461   -1.3979 C   0  0  0  0  0  0  0  0  0  0  0  0
    2.4536   -0.4453   -0.4948 H   0  0  0  0  0  0  0  0  0  0  0  0
    3.5356    0.5423   -2.0363 C   0  0  0  0  0  0  0  0  0  0  0  0
    4.4959    0.2546   -1.6182 H   0  0  0  0  0  0  0  0  0  0  0  0
    3.4814    1.3065   -3.2035 C   0  0  0  0  0  0  0  0  0  0  0  0
    4.3993    1.6131   -3.6963 H   0  0  0  0  0  0  0  0  0  0  0  0
    2.2429    1.6763   -3.7309 C   0  0  0  0  0  0  0  0  0  0  0  0
    2.1959    2.2726   -4.6372 H   0  0  0  0  0  0  0  0  0  0  0  0
    1.0642    1.2813   -3.0898 C   0  0  0  0  0  0  0  0  0  0  0  0
    0.1115    1.5838   -3.5133 H   0  0  0  0  0  0  0  0  0  0  0  0
    0.1055   -0.4017    1.1887 C   0  0  0  0  0  0  0  0  0  0  0  0
    1.2402   -0.4429    1.6449 O   0  0  0  0  0  0  0  0  0  0  0  0
   -0.8717    0.2872    1.8863 N   0  0  0  0  0  0  0  0  0  0  0  0
   -1.8215    0.1853    1.5457 H   0  0  0  0  0  0  0  0  0  0  0  0
   -0.6622    0.8066    3.2319 C   0  0  0  0  0  0  0  0  0  0  0  0
    0.1757    1.5117    3.2445 H   0  0  0  0  0  0  0  0  0  0  0  0
   -1.5574    1.3304    3.5798 H   0  0  0  0  0  0  0  0  0  0  0  0
   -0.4447   -0.0114    3.9268 H   0  0  0  0  0  0  0  0  0  0  0  0
  1  2  1  0  0  0  0
  2  3  1  0  0  0  0
  2  4  1  0  0  0  0
  2  5  1  0  0  0  0
  5  6  2  0  0  0  0
  5  7  1  0  0  0  0
  7  8  1  0  0  0  0
  7  9  1  0  0  0  0
  9 10  1  0  0  0  0
  9 11  1  0  0  0  0
  9 25  1  0  0  0  0
 11 12  1  0  0  0  0
 11 13  1  0  0  0  0
 11 14  1  0  0  0  0
 14 15  1  0  0  0  0
 14 23  2  0  0  0  0
 15 16  1  0  0  0  0
 15 17  2  0  0  0  0
 17 18  1  0  0  0  0
 17 19  1  0  0  0  0
 19 20  1  0  0  0  0
 19 21  2  0  0  0  0
 21 22  1  0  0  0  0
 21 23  1  0  0  0  0
 23 24  1  0  0  0  0
 25 26  2  0  0  0  0
 25 27  1  0  0  0  0
 27 28  1  0  0  0  0
 27 29  1  0  0  0  0
 29 30  1  0  0  0  0
 29 31  1  0  0  0  0
 29 32  1  0  0  0  0
M  END
$$$$

  -OEChem-03222214073D

 32 32  0     1  0  0  0  0  0999 V2000
   -3.2642   -4.3809    0.8836 H   0  0  0  0  0  0  0  0  0  0  0  0
   -3.1940   -3.4983    0.2412 C   0  0  0  0  0  0  0  0  0  0  0  0
   -4.0277   -2.8299    0.4693 H   0  0  0  0  0  0  0  0  0  0  0  0
   -3.2647   -3.8172   -0.8015 H   0  0  0  0  0  0  0  0  0  0  0  0
   -1.8763   -2.7845    0.4790 C   0  0  0  0  0  0  0  0  0  0  0  0
   -1.1177   -3.1876    1.3415 O   0  0  0  0  0  0  0  0  0  0  0  0
   -1.5532   -1.6752   -0.2785 N   0  0  0  0  0  0  0  0  0  0  0  0
   -2.1870   -1.4447   -1.0376 H   0  0  0  0  0  0  0  0  0  0  0  0
   -0.2547   -0.9748   -0.2149 C   0  0  1  0  0  0  0  0  0  0  0  0
    0.5029   -1.7235   -0.4622 H   0  0  0  0  0  0  0  0  0  0  0  0
   -0.2568    0.1359   -1.2905 C   0  0  0  0  0  0  0  0  0  0  0  0
   -0.8921   -0.1904   -2.1201 H   0  0  0  0  0  0  0  0  0  0  0  0
   -0.7156    1.0362   -0.8681 H   0  0  0  0  0  0  0  0  0  0  0  0
    1.0808    0.5162   -1.9044 C   0  0  0  0  0  0  0  0  0  0  0  0
    2.3149   -0.0710   -1.5597 C   0  0  0  0  0  0  0  0  0  0  0  0
    2.3960   -0.8264   -0.7856 H   0  0  0  0  0  0  0  0  0  0  0  0
    3.4978    0.3257   -2.1921 C   0  0  0  0  0  0  0  0  0  0  0  0
    4.4403   -0.1319   -1.9055 H   0  0  0  0  0  0  0  0  0  0  0  0
    3.4707    1.3110   -3.1810 C   0  0  0  0  0  0  0  0  0  0  0  0
    4.3914    1.6177   -3.6684 H   0  0  0  0  0  0  0  0  0  0  0  0
    2.2570    1.9031   -3.5348 C   0  0  0  0  0  0  0  0  0  0  0  0
    2.2322    2.6716   -4.3015 H   0  0  0  0  0  0  0  0  0  0  0  0
    1.0751    1.5073   -2.9001 C   0  0  0  0  0  0  0  0  0  0  0  0
    0.1408    1.9789   -3.1887 H   0  0  0  0  0  0  0  0  0  0  0  0
    0.1052   -0.3966    1.1728 C   0  0  0  0  0  0  0  0  0  0  0  0
    1.2636   -0.4118    1.5672 O   0  0  0  0  0  0  0  0  0  0  0  0
   -0.8475    0.2917    1.9031 N   0  0  0  0  0  0  0  0  0  0  0  0
   -1.8102    0.1769    1.6053 H   0  0  0  0  0  0  0  0  0  0  0  0
   -0.5842    0.8330    3.2303 C   0  0  0  0  0  0  0  0  0  0  0  0
    0.2475    1.5447    3.1964 H   0  0  0  0  0  0  0  0  0  0  0  0
   -1.4681    1.3552    3.6082 H   0  0  0  0  0  0  0  0  0  0  0  0
   -0.3304    0.0278    3.9276 H   0  0  0  0  0  0  0  0  0  0  0  0
  1  2  1  0  0  0  0
  2  3  1  0  0  0  0
  2  4  1  0  0  0  0
  2  5  1  0  0  0  0
  5  6  2  0  0  0  0
  5  7  1  0  0  0  0
  7  8  1  0  0  0  0
  7  9  1  0  0  0  0
  9 10  1  0  0  0  0
  9 11  1  0  0  0  0
  9 25  1  0  0  0  0
 11 12  1  0  0  0  0
 11 13  1  0  0  0  0
 11 14  1  0  0  0  0
 14 15  1  0  0  0  0
 14 23  2  0  0  0  0
 15 16  1  0  0  0  0
 15 17  2  0  0  0  0
 17 18  1  0  0  0  0
 17 19  1  0  0  0  0
 19 20  1  0  0  0  0
 19 21  2  0  0  0  0
 21 22  1  0  0  0  0
 21 23  1  0  0  0  0
 23 24  1  0  0  0  0
 25 26  2  0  0  0  0
 25 27  1  0  0  0  0
 27 28  1  0  0  0  0
 27 29  1  0  0  0  0
 29 30  1  0  0  0  0
 29 31  1  0  0  0  0
 29 32  1  0  0  0  0
M  END
$$$$

  -OEChem-03222214073D

 32 32  0     1  0  0  0  0  0999 V2000
   -3.2798   -4.3909    0.8771 H   0  0  0  0  0  0  0  0  0  0  0  0
   -3.2062   -3.5143    0.2271 C   0  0  0  0  0  0  0  0  0  0  0  0
   -4.0500   -2.8518    0.4342 H   0  0  0  0  0  0  0  0  0  0  0  0
   -3.2559   -3.8447   -0.8131 H   0  0  0  0  0  0  0  0  0  0  0  0
   -1.8990   -2.7863    0.4792 C   0  0  0  0  0  0  0  0  0  0  0  0
   -1.1428   -3.1832    1.3469 O   0  0  0  0  0  0  0  0  0  0  0  0
   -1.5778   -1.6753   -0.2766 N   0  0  0  0  0  0  0  0  0  0  0  0
   -2.2067   -1.4513   -1.0417 H   0  0  0  0  0  0  0  0  0  0  0  0
   -0.2773   -0.9781   -0.2150 C   0  0  1  0  0  0  0  0  0  0  0  0
    0.4682   -1.7385   -0.4553 H   0  0  0  0  0  0  0  0  0  0  0  0
   -0.2695    0.1303   -1.2932 C   0  0  0  0  0  0  0  0  0  0  0  0
   -0.9014   -0.1936   -2.1259 H   0  0  0  0  0  0  0  0  0  0  0  0
   -0.7304    1.0296   -0.8710 H   0  0  0  0  0  0  0  0  0  0  0  0
    1.0700    0.5075   -1.9065 C   0  0  0  0  0  0  0  0  0  0  0  0
    2.2480   -0.2597   -1.7984 C   0  0  0  0  0  0  0  0  0  0  0  0
    2.2906   -1.1767   -1.2224 H   0  0  0  0  0  0  0  0  0  0  0  0
    3.4317    0.1547   -2.4189 C   0  0  0  0  0  0  0  0  0  0  0  0
    4.3321   -0.4435   -2.3159 H   0  0  0  0  0  0  0  0  0  0  0  0
    3.4616    1.3369   -3.1610 C   0  0  0  0  0  0  0  0  0  0  0  0
    4.3829    1.6573   -3.6385 H   0  0  0  0  0  0  0  0  0  0  0  0
    2.3038    2.1070   -3.2810 C   0  0  0  0  0  0  0  0  0  0  0  0
    2.3232    3.0285   -3.8550 H   0  0  0  0  0  0  0  0  0  0  0  0
    1.1210    1.6923   -2.6603 C   0  0  0  0  0  0  0  0  0  0  0  0
    0.2309    2.3044   -2.7681 H   0  0  0  0  0  0  0  0  0  0  0  0
    0.1068   -0.3988    1.1636 C   0  0  0  0  0  0  0  0  0  0  0  0
    1.2755   -0.4065    1.5267 O   0  0  0  0  0  0  0  0  0  0  0  0
   -0.8293    0.2971    1.9080 N   0  0  0  0  0  0  0  0  0  0  0  0
   -1.7988    0.1806    1.6335 H   0  0  0  0  0  0  0  0  0  0  0  0
   -0.5331    0.8582    3.2199 C   0  0  0  0  0  0  0  0  0  0  0  0
    0.2955    1.5713    3.1538 H   0  0  0  0  0  0  0  0  0  0  0  0
   -1.4080    1.3841    3.6136 H   0  0  0  0  0  0  0  0  0  0  0  0
   -0.2593    0.0634    3.9216 H   0  0  0  0  0  0  0  0  0  0  0  0
  1  2  1  0  0  0  0
  2  3  1  0  0  0  0
  2  4  1  0  0  0  0
  2  5  1  0  0  0  0
  5  6  2  0  0  0  0
  5  7  1  0  0  0  0
  7  8  1  0  0  0  0
  7  9  1  0  0  0  0
  9 10  1  0  0  0  0
  9 11  1  0  0  0  0
  9 25  1  0  0  0  0
 11 12  1  0  0  0  0
 11 13  1  0  0  0  0
 11 14  1  0  0  0  0
 14 15  1  0  0  0  0
 14 23  2  0  0  0  0
 15 16  1  0  0  0  0
 15 17  2  0  0  0  0
 17 18  1  0  0  0  0
 17 19  1  0  0  0  0
 19 20  1  0  0  0  0
 19 21  2  0  0  0  0
 21 22  1  0  0  0  0
 21 23  1  0  0  0  0
 23 24  1  0  0  0  0
 25 26  2  0  0  0  0
 25 27  1  0  0  0  0
 27 28  1  0  0  0  0
 27 29  1  0  0  0  0
 29 30  1  0  0  0  0
 29 31  1  0  0  0  0
 29 32  1  0  0  0  0
M  END
$$$$

  -OEChem-03222214073D

 32 32  0     1  0  0  0  0  0999 V2000
   -3.2548   -4.3894    0.9182 H   0  0  0  0  0  0  0  0  0  0  0  0
   -3.1934   -3.5146    0.2644 C   0  0  0  0  0  0  0  0  0  0  0  0
   -4.0292   -2.8482    0.4896 H   0  0  0  0  0  0  0  0  0  0  0  0
   -3.2690   -3.8469   -0.7737 H   0  0  0  0  0  0  0  0  0  0  0  0
   -1.8778   -2.7913    0.4839 C   0  0  0  0  0  0  0  0  0  0  0  0
   -1.1029   -3.1898    1.3339 O   0  0  0  0  0  0  0  0  0  0  0  0
   -1.5703   -1.6830   -0.2815 N   0  0  0  0  0  0  0  0  0  0  0  0
   -2.2178   -1.4541   -1.0296 H   0  0  0  0  0  0  0  0  0  0  0  0
   -0.2737   -0.9773   -0.2384 C   0  0  1  0  0  0  0  0  0  0  0  0
    0.4838   -1.7256   -0.4772 H   0  0  0  0  0  0  0  0  0  0  0  0
   -0.2931    0.1353   -1.3127 C   0  0  0  0  0  0  0  0  0  0  0  0
   -0.9322   -0.1891   -2.1396 H   0  0  0  0  0  0  0  0  0  0  0  0
   -0.7570    1.0287   -0.8814 H   0  0  0  0  0  0  0  0  0  0  0  0
    1.0414    0.5100   -1.9367 C   0  0  0  0  0  0  0  0  0  0  0  0
    2.1160   -0.3870   -2.1001 C   0  0  0  0  0  0  0  0  0  0  0  0
    2.0524   -1.4221   -1.7859 H   0  0  0  0  0  0  0  0  0  0  0  0
    3.3168    0.0328   -2.6834 C   0  0  0  0  0  0  0  0  0  0  0  0
    4.1378   -0.6693   -2.7948 H   0  0  0  0  0  0  0  0  0  0  0  0
    3.4645    1.3515   -3.1178 C   0  0  0  0  0  0  0  0  0  0  0  0
    4.3989    1.6759   -3.5663 H   0  0  0  0  0  0  0  0  0  0  0  0
    2.4078    2.2514   -2.9692 C   0  0  0  0  0  0  0  0  0  0  0  0
    2.5194    3.2787   -3.3032 H   0  0  0  0  0  0  0  0  0  0  0  0
    1.2087    1.8315   -2.3845 C   0  0  0  0  0  0  0  0  0  0  0  0
    0.4019    2.5495   -2.2749 H   0  0  0  0  0  0  0  0  0  0  0  0
    0.1141   -0.3898    1.1360 C   0  0  0  0  0  0  0  0  0  0  0  0
    1.2841   -0.3852    1.4937 O   0  0  0  0  0  0  0  0  0  0  0  0
   -0.8240    0.3015    1.8826 N   0  0  0  0  0  0  0  0  0  0  0  0
   -1.7937    0.1716    1.6149 H   0  0  0  0  0  0  0  0  0  0  0  0
   -0.5280    0.8612    3.1953 C   0  0  0  0  0  0  0  0  0  0  0  0
    0.2996    1.5754    3.1296 H   0  0  0  0  0  0  0  0  0  0  0  0
   -1.4037    1.3851    3.5896 H   0  0  0  0  0  0  0  0  0  0  0  0
   -0.2526    0.0660    3.8960 H   0  0  0  0  0  0  0  0  0  0  0  0
  1  2  1  0  0  0  0
  2  3  1  0  0  0  0
  2  4  1  0  0  0  0
  2  5  1  0  0  0  0
  5  6  2  0  0  0  0
  5  7  1  0  0  0  0
  7  8  1  0  0  0  0
  7  9  1  0  0  0  0
  9 10  1  0  0  0  0
  9 11  1  0  0  0  0
  9 25  1  0  0  0  0
 11 12  1  0  0  0  0
 11 13  1  0  0  0  0
 11 14  1  0  0  0  0
 14 15  1  0  0  0  0
 14 23  2  0  0  0  0
 15 16  1  0  0  0  0
 15 17  2  0  0  0  0
 17 18  1  0  0  0  0
 17 19  1  0  0  0  0
 19 20  1  0  0  0  0
 19 21  2  0  0  0  0
 21 22  1  0  0  0  0
 21 23  1  0  0  0  0
 23 24  1  0  0  0  0
 25 26  2  0  0  0  0
 25 27  1  0  0  0  0
 27 28  1  0  0  0  0
 27 29  1  0  0  0  0
 29 30  1  0  0  0  0
 29 31  1  0  0  0  0
 29 32  1  0  0  0  0
M  END
$$$$

  -OEChem-03222214073D

 32 32  0     1  0  0  0  0  0999 V2000
   -3.1747   -4.4159    0.9292 H   0  0  0  0  0  0  0  0  0  0  0  0
   -3.1374   -3.5421    0.2723 C   0  0  0  0  0  0  0  0  0  0  0  0
   -3.9835   -2.8913    0.5051 H   0  0  0  0  0  0  0  0  0  0  0  0
   -3.2183   -3.8795   -0.7638 H   0  0  0  0  0  0  0  0  0  0  0  0
   -1.8337   -2.7928    0.4747 C   0  0  0  0  0  0  0  0  0  0  0  0
   -1.0381   -3.1787    1.3114 O   0  0  0  0  0  0  0  0  0  0  0  0
   -1.5611   -1.6758   -0.2914 N   0  0  0  0  0  0  0  0  0  0  0  0
   -2.2246   -1.4585   -1.0287 H   0  0  0  0  0  0  0  0  0  0  0  0
   -0.2771   -0.9468   -0.2706 C   0  0  1  0  0  0  0  0  0  0  0  0
    0.5013   -1.6683   -0.5312 H   0  0  0  0  0  0  0  0  0  0  0  0
   -0.3414    0.1797   -1.3269 C   0  0  0  0  0  0  0  0  0  0  0  0
   -0.9884   -0.1398   -2.1498 H   0  0  0  0  0  0  0  0  0  0  0  0
   -0.8067    1.0649   -0.8807 H   0  0  0  0  0  0  0  0  0  0  0  0
    0.9920    0.5487   -1.9479 C   0  0  0  0  0  0  0  0  0  0  0  0
    1.9124   -0.4199   -2.3890 C   0  0  0  0  0  0  0  0  0  0  0  0
    1.6883   -1.4788   -2.3167 H   0  0  0  0  0  0  0  0  0  0  0  0
    3.1384   -0.0399   -2.9459 C   0  0  0  0  0  0  0  0  0  0  0  0
    3.8404   -0.7984   -3.2800 H   0  0  0  0  0  0  0  0  0  0  0  0
    3.4634    1.3131   -3.0683 C   0  0  0  0  0  0  0  0  0  0  0  0
    4.4171    1.6073   -3.4962 H   0  0  0  0  0  0  0  0  0  0  0  0
    2.5607    2.2860   -2.6326 C   0  0  0  0  0  0  0  0  0  0  0  0
    2.8142    3.3384   -2.7188 H   0  0  0  0  0  0  0  0  0  0  0  0
    1.3346    1.9047   -2.0772 C   0  0  0  0  0  0  0  0  0  0  0  0
    0.6511    2.6763   -1.7363 H   0  0  0  0  0  0  0  0  0  0  0  0
    0.1181   -0.3618    1.1035 C   0  0  0  0  0  0  0  0  0  0  0  0
    1.2928   -0.3260    1.4439 O   0  0  0  0  0  0  0  0  0  0  0  0
   -0.8256    0.3046    1.8660 N   0  0  0  0  0  0  0  0  0  0  0  0
   -1.7954    0.1512    1.6116 H   0  0  0  0  0  0  0  0  0  0  0  0
   -0.5255    0.8680    3.1762 C   0  0  0  0  0  0  0  0  0  0  0  0
    0.2820    1.6041    3.1016 H   0  0  0  0  0  0  0  0  0  0  0  0
   -1.4090    1.3675    3.5851 H   0  0  0  0  0  0  0  0  0  0  0  0
   -0.2195    0.0782    3.8703 H   0  0  0  0  0  0  0  0  0  0  0  0
  1  2  1  0  0  0  0
  2  3  1  0  0  0  0
  2  4  1  0  0  0  0
  2  5  1  0  0  0  0
  5  6  2  0  0  0  0
  5  7  1  0  0  0  0
  7  8  1  0  0  0  0
  7  9  1  0  0  0  0
  9 10  1  0  0  0  0
  9 11  1  0  0  0  0
  9 25  1  0  0  0  0
 11 12  1  0  0  0  0
 11 13  1  0  0  0  0
 11 14  1  0  0  0  0
 14 15  1  0  0  0  0
 14 23  2  0  0  0  0
 15 16  1  0  0  0  0
 15 17  2  0  0  0  0
 17 18  1  0  0  0  0
 17 19  1  0  0  0  0
 19 20  1  0  0  0  0
 19 21  2  0  0  0  0
 21 22  1  0  0  0  0
 21 23  1  0  0  0  0
 23 24  1  0  0  0  0
 25 26  2  0  0  0  0
 25 27  1  0  0  0  0
 27 28  1  0  0  0  0
 27 29  1  0  0  0  0
 29 30  1  0  0  0  0
 29 31  1  0  0  0  0
 29 32  1  0  0  0  0
M  END
$$$$

  -OEChem-03222214073D

 32 32  0     1  0  0  0  0  0999 V2000
   -3.1012   -4.4349    0.9216 H   0  0  0  0  0  0  0  0  0  0  0  0
   -3.0870   -3.5573    0.2688 C   0  0  0  0  0  0  0  0  0  0  0  0
   -3.9378   -2.9193    0.5197 H   0  0  0  0  0  0  0  0  0  0  0  0
   -3.1810   -3.8901   -0.7677 H   0  0  0  0  0  0  0  0  0  0  0  0
   -1.7902   -2.7913    0.4536 C   0  0  0  0  0  0  0  0  0  0  0  0
   -0.9748   -3.1720    1.2733 O   0  0  0  0  0  0  0  0  0  0  0  0
   -1.5482   -1.6629   -0.3061 N   0  0  0  0  0  0  0  0  0  0  0  0
   -2.2278   -1.4483   -1.0294 H   0  0  0  0  0  0  0  0  0  0  0  0
   -0.2783   -0.9092   -0.2957 C   0  0  1  0  0  0  0  0  0  0  0  0
    0.5170   -1.6050   -0.5824 H   0  0  0  0  0  0  0  0  0  0  0  0
   -0.3785    0.2248   -1.3374 C   0  0  0  0  0  0  0  0  0  0  0  0
   -1.0272   -0.0920   -2.1601 H   0  0  0  0  0  0  0  0  0  0  0  0
   -0.8445    1.1053   -0.8835 H   0  0  0  0  0  0  0  0  0  0  0  0
    0.9589    0.5869   -1.9416 C   0  0  0  0  0  0  0  0  0  0  0  0
    1.7154   -0.3637   -2.6465 C   0  0  0  0  0  0  0  0  0  0  0  0
    1.3408   -1.3742   -2.7774 H   0  0  0  0  0  0  0  0  0  0  0  0
    2.9575   -0.0229   -3.1923 C   0  0  0  0  0  0  0  0  0  0  0  0
    3.5346   -0.7661   -3.7347 H   0  0  0  0  0  0  0  0  0  0  0  0
    3.4593    1.2718   -3.0336 C   0  0  0  0  0  0  0  0  0  0  0  0
    4.4257    1.5357   -3.4526 H   0  0  0  0  0  0  0  0  0  0  0  0
    2.7193    2.2234   -2.3264 C   0  0  0  0  0  0  0  0  0  0  0  0
    3.1126    3.2265   -2.1918 H   0  0  0  0  0  0  0  0  0  0  0  0
    1.4766    1.8815   -1.7827 C   0  0  0  0  0  0  0  0  0  0  0  0
    0.9204    2.6284   -1.2247 H   0  0  0  0  0  0  0  0  0  0  0  0
    0.1191   -0.3298    1.0807 C   0  0  0  0  0  0  0  0  0  0  0  0
    1.2956   -0.2655    1.4098 O   0  0  0  0  0  0  0  0  0  0  0  0
   -0.8318    0.3094    1.8574 N   0  0  0  0  0  0  0  0  0  0  0  0
   -1.8000    0.1359    1.6102 H   0  0  0  0  0  0  0  0  0  0  0  0
   -0.5339    0.8613    3.1730 C   0  0  0  0  0  0  0  0  0  0  0  0
    0.2580    1.6146    3.1033 H   0  0  0  0  0  0  0  0  0  0  0  0
   -1.4247    1.3373    3.5939 H   0  0  0  0  0  0  0  0  0  0  0  0
   -0.2074    0.0686    3.8544 H   0  0  0  0  0  0  0  0  0  0  0  0
  1  2  1  0  0  0  0
  2  3  1  0  0  0  0
  2  4  1  0  0  0  0
  2  5  1  0  0  0  0
  5  6  2  0  0  0  0
  5  7  1  0  0  0  0
  7  8  1  0  0  0  0
  7  9  1  0  0  0  0
  9 10  1  0  0  0  0
  9 11  1  0  0  0  0
  9 25  1  0  0  0  0
 11 12  1  0  0  0  0
 11 13  1  0  0  0  0
 11 14  1  0  0  0  0
 14 15  1  0  0  0  0
 14 23  2  0  0  0  0
 15 16  1  0  0  0  0
 15 17  2  0  0  0  0
 17 18  1  0  0  0  0
 17 19  1  0  0  0  0
 19 20  1  0  0  0  0
 19 21  2  0  0  0  0
 21 22  1  0  0  0  0
 21 23  1  0  0  0  0
 23 24  1  0  0  0  0
 25 26  2  0  0  0  0
 25 27  1  0  0  0  0
 27 28  1  0  0  0  0
 27 29  1  0  0  0  0
 29 30  1  0  0  0  0
 29 31  1  0  0  0  0
 29 32  1  0  0  0  0
M  END
$$$$

  -OEChem-03222214073D

 32 32  0     1  0  0  0  0  0999 V2000
   -3.0485   -4.4530    0.9056 H   0  0  0  0  0  0  0  0  0  0  0  0
   -3.0529   -3.5710    0.2586 C   0  0  0  0  0  0  0  0  0  0  0  0
   -3.9125   -2.9487    0.5187 H   0  0  0  0  0  0  0  0  0  0  0  0
   -3.1478   -3.8990   -0.7794 H   0  0  0  0  0  0  0  0  0  0  0  0
   -1.7682   -2.7845    0.4405 C   0  0  0  0  0  0  0  0  0  0  0  0
   -0.9423   -3.1561    1.2539 O   0  0  0  0  0  0  0  0  0  0  0  0
   -1.5492   -1.6479   -0.3139 N   0  0  0  0  0  0  0  0  0  0  0  0
   -2.2378   -1.4377   -1.0299 H   0  0  0  0  0  0  0  0  0  0  0  0
   -0.2882   -0.8792   -0.3103 C   0  0  1  0  0  0  0  0  0  0  0  0
    0.5142   -1.5608   -0.6144 H   0  0  0  0  0  0  0  0  0  0  0  0
   -0.4053    0.2570   -1.3450 C   0  0  0  0  0  0  0  0  0  0  0  0
   -1.0566   -0.0575   -2.1663 H   0  0  0  0  0  0  0  0  0  0  0  0
   -0.8678    1.1385   -0.8885 H   0  0  0  0  0  0  0  0  0  0  0  0
    0.9386    0.6100   -1.9348 C   0  0  0  0  0  0  0  0  0  0  0  0
    1.5425   -0.2302   -2.8832 C   0  0  0  0  0  0  0  0  0  0  0  0
    1.0400   -1.1364   -3.2071 H   0  0  0  0  0  0  0  0  0  0  0  0
    2.7956    0.0870   -3.4183 C   0  0  0  0  0  0  0  0  0  0  0  0
    3.2555   -0.5695   -4.1509 H   0  0  0  0  0  0  0  0  0  0  0  0
    3.4603    1.2445   -3.0033 C   0  0  0  0  0  0  0  0  0  0  0  0
    4.4361    1.4889   -3.4127 H   0  0  0  0  0  0  0  0  0  0  0  0
    2.8724    2.0810   -2.0499 C   0  0  0  0  0  0  0  0  0  0  0  0
    3.3933    2.9726   -1.7139 H   0  0  0  0  0  0  0  0  0  0  0  0
    1.6184    1.7636   -1.5170 C   0  0  0  0  0  0  0  0  0  0  0  0
    1.1826    2.4115   -0.7623 H   0  0  0  0  0  0  0  0  0  0  0  0
    0.1147   -0.3057    1.0675 C   0  0  0  0  0  0  0  0  0  0  0  0
    1.2933   -0.2234    1.3855 O   0  0  0  0  0  0  0  0  0  0  0  0
   -0.8370    0.3157    1.8575 N   0  0  0  0  0  0  0  0  0  0  0  0
   -1.8050    0.1246    1.6225 H   0  0  0  0  0  0  0  0  0  0  0  0
   -0.5323    0.8632    3.1733 C   0  0  0  0  0  0  0  0  0  0  0  0
    0.2520    1.6239    3.1008 H   0  0  0  0  0  0  0  0  0  0  0  0
   -1.4234    1.3286    3.6048 H   0  0  0  0  0  0  0  0  0  0  0  0
   -0.1920    0.0702    3.8475 H   0  0  0  0  0  0  0  0  0  0  0  0
  1  2  1  0  0  0  0
  2  3  1  0  0  0  0
  2  4  1  0  0  0  0
  2  5  1  0  0  0  0
  5  6  2  0  0  0  0
  5  7  1  0  0  0  0
  7  8  1  0  0  0  0
  7  9  1  0  0  0  0
  9 10  1  0  0  0  0
  9 11  1  0  0  0  0
  9 25  1  0  0  0  0
 11 12  1  0  0  0  0
 11 13  1  0  0  0  0
 11 14  1  0  0  0  0
 14 15  1  0  0  0  0
 14 23  2  0  0  0  0
 15 16  1  0  0  0  0
 15 17  2  0  0  0  0
 17 18  1  0  0  0  0
 17 19  1  0  0  0  0
 19 20  1  0  0  0  0
 19 21  2  0  0  0  0
 21 22  1  0  0  0  0
 21 23  1  0  0  0  0
 23 24  1  0  0  0  0
 25 26  2  0  0  0  0
 25 27  1  0  0  0  0
 27 28  1  0  0  0  0
 27 29  1  0  0  0  0
 29 30  1  0  0  0  0
 29 31  1  0  0  0  0
 29 32  1  0  0  0  0
M  END
$$$$

  -OEChem-03222214073D

 32 32  0     1  0  0  0  0  0999 V2000
   -3.0501   -4.4478    0.8928 H   0  0  0  0  0  0  0  0  0  0  0  0
   -3.0503   -3.5629    0.2496 C   0  0  0  0  0  0  0  0  0  0  0  0
   -3.9122   -2.9422    0.5061 H   0  0  0  0  0  0  0  0  0  0  0  0
   -3.1375   -3.8864   -0.7905 H   0  0  0  0  0  0  0  0  0  0  0  0
   -1.7668   -2.7769    0.4435 C   0  0  0  0  0  0  0  0  0  0  0  0
   -0.9477   -3.1503    1.2629 O   0  0  0  0  0  0  0  0  0  0  0  0
   -1.5422   -1.6393   -0.3078 N   0  0  0  0  0  0  0  0  0  0  0  0
   -2.2257   -1.4305   -1.0291 H   0  0  0  0  0  0  0  0  0  0  0  0
   -0.2792   -0.8735   -0.3006 C   0  0  1  0  0  0  0  0  0  0  0  0
    0.5248   -1.5524   -0.6078 H   0  0  0  0  0  0  0  0  0  0  0  0
   -0.3953    0.2637   -1.3346 C   0  0  0  0  0  0  0  0  0  0  0  0
   -1.0553   -0.0444   -2.1517 H   0  0  0  0  0  0  0  0  0  0  0  0
   -0.8468    1.1493   -0.8749 H   0  0  0  0  0  0  0  0  0  0  0  0
    0.9498    0.6141   -1.9230 C   0  0  0  0  0  0  0  0  0  0  0  0
    1.4100   -0.0372   -3.0780 C   0  0  0  0  0  0  0  0  0  0  0  0
    0.7998   -0.7968   -3.5567 H   0  0  0  0  0  0  0  0  0  0  0  0
    2.6586    0.2806   -3.6237 C   0  0  0  0  0  0  0  0  0  0  0  0
    3.0071   -0.2291   -4.5170 H   0  0  0  0  0  0  0  0  0  0  0  0
    3.4611    1.2500   -3.0150 C   0  0  0  0  0  0  0  0  0  0  0  0
    4.4330    1.4942   -3.4332 H   0  0  0  0  0  0  0  0  0  0  0  0
    3.0145    1.8982   -1.8598 C   0  0  0  0  0  0  0  0  0  0  0  0
    3.6403    2.6420   -1.3759 H   0  0  0  0  0  0  0  0  0  0  0  0
    1.7649    1.5814   -1.3169 C   0  0  0  0  0  0  0  0  0  0  0  0
    1.4382    2.0790   -0.4082 H   0  0  0  0  0  0  0  0  0  0  0  0
    0.1140   -0.3076    1.0838 C   0  0  0  0  0  0  0  0  0  0  0  0
    1.2896   -0.2281    1.4142 O   0  0  0  0  0  0  0  0  0  0  0  0
   -0.8437    0.3104    1.8689 N   0  0  0  0  0  0  0  0  0  0  0  0
   -1.8097    0.1221    1.6238 H   0  0  0  0  0  0  0  0  0  0  0  0
   -0.5503    0.8506    3.1904 C   0  0  0  0  0  0  0  0  0  0  0  0
    0.2310    1.6155    3.1279 H   0  0  0  0  0  0  0  0  0  0  0  0
   -1.4464    1.3093    3.6192 H   0  0  0  0  0  0  0  0  0  0  0  0
   -0.2106    0.0549    3.8617 H   0  0  0  0  0  0  0  0  0  0  0  0
  1  2  1  0  0  0  0
  2  3  1  0  0  0  0
  2  4  1  0  0  0  0
  2  5  1  0  0  0  0
  5  6  2  0  0  0  0
  5  7  1  0  0  0  0
  7  8  1  0  0  0  0
  7  9  1  0  0  0  0
  9 10  1  0  0  0  0
  9 11  1  0  0  0  0
  9 25  1  0  0  0  0
 11 12  1  0  0  0  0
 11 13  1  0  0  0  0
 11 14  1  0  0  0  0
 14 15  1  0  0  0  0
 14 23  2  0  0  0  0
 15 16  1  0  0  0  0
 15 17  2  0  0  0  0
 17 18  1  0  0  0  0
 17 19  1  0  0  0  0
 19 20  1  0  0  0  0
 19 21  2  0  0  0  0
 21 22  1  0  0  0  0
 21 23  1  0  0  0  0
 23 24  1  0  0  0  0
 25 26  2  0  0  0  0
 25 27  1  0  0  0  0
 27 28  1  0  0  0  0
 27 29  1  0  0  0  0
 29 30  1  0  0  0  0
 29 31  1  0  0  0  0
 29 32  1  0  0  0  0
M  END
$$$$

  -OEChem-03222214073D

 32 32  0     1  0  0  0  0  0999 V2000
   -3.0975   -4.4145    0.8944 H   0  0  0  0  0  0  0  0  0  0  0  0
   -3.0765   -3.5280    0.2540 C   0  0  0  0  0  0  0  0  0  0  0  0
   -3.9258   -2.8898    0.5094 H   0  0  0  0  0  0  0  0  0  0  0  0
   -3.1666   -3.8459   -0.7874 H   0  0  0  0  0  0  0  0  0  0  0  0
   -1.7779   -2.7696    0.4549 C   0  0  0  0  0  0  0  0  0  0  0  0
   -0.9732   -3.1588    1.2811 O   0  0  0  0  0  0  0  0  0  0  0  0
   -1.5263   -1.6373   -0.2962 N   0  0  0  0  0  0  0  0  0  0  0  0
   -2.2009   -1.4164   -1.0221 H   0  0  0  0  0  0  0  0  0  0  0  0
   -0.2536   -0.8874   -0.2742 C   0  0  1  0  0  0  0  0  0  0  0  0
    0.5492   -1.5731   -0.5698 H   0  0  0  0  0  0  0  0  0  0  0  0
   -0.3541    0.2431   -1.3206 C   0  0  0  0  0  0  0  0  0  0  0  0
   -1.0192   -0.0676   -2.1324 H   0  0  0  0  0  0  0  0  0  0  0  0
   -0.8008    1.1336   -0.8664 H   0  0  0  0  0  0  0  0  0  0  0  0
    0.9893    0.5990   -1.9165 C   0  0  0  0  0  0  0  0  0  0  0  0
    1.3161    0.1860   -3.2184 C   0  0  0  0  0  0  0  0  0  0  0  0
    0.6157   -0.4089   -3.7964 H   0  0  0  0  0  0  0  0  0  0  0  0
    2.5481    0.5277   -3.7872 C   0  0  0  0  0  0  0  0  0  0  0  0
    2.7934    0.1977   -4.7924 H   0  0  0  0  0  0  0  0  0  0  0  0
    3.4658    1.2918   -3.0609 C   0  0  0  0  0  0  0  0  0  0  0  0
    4.4245    1.5544   -3.4983 H   0  0  0  0  0  0  0  0  0  0  0  0
    3.1481    1.7155   -1.7676 C   0  0  0  0  0  0  0  0  0  0  0  0
    3.8589    2.3063   -1.1970 H   0  0  0  0  0  0  0  0  0  0  0  0
    1.9154    1.3744   -1.2013 C   0  0  0  0  0  0  0  0  0  0  0  0
    1.6888    1.7116   -0.1938 H   0  0  0  0  0  0  0  0  0  0  0  0
    0.1146   -0.3278    1.1197 C   0  0  0  0  0  0  0  0  0  0  0  0
    1.2796   -0.2933    1.4928 O   0  0  0  0  0  0  0  0  0  0  0  0
   -0.8530    0.2997    1.8850 N   0  0  0  0  0  0  0  0  0  0  0  0
   -1.8150    0.1386    1.6063 H   0  0  0  0  0  0  0  0  0  0  0  0
   -0.5902    0.8028    3.2272 C   0  0  0  0  0  0  0  0  0  0  0  0
    0.2101    1.5502    3.2076 H   0  0  0  0  0  0  0  0  0  0  0  0
   -1.4891    1.2726    3.6374 H   0  0  0  0  0  0  0  0  0  0  0  0
   -0.2916   -0.0166    3.8897 H   0  0  0  0  0  0  0  0  0  0  0  0
  1  2  1  0  0  0  0
  2  3  1  0  0  0  0
  2  4  1  0  0  0  0
  2  5  1  0  0  0  0
  5  6  2  0  0  0  0
  5  7  1  0  0  0  0
  7  8  1  0  0  0  0
  7  9  1  0  0  0  0
  9 10  1  0  0  0  0
  9 11  1  0  0  0  0
  9 25  1  0  0  0  0
 11 12  1  0  0  0  0
 11 13  1  0  0  0  0
 11 14  1  0  0  0  0
 14 15  1  0  0  0  0
 14 23  2  0  0  0  0
 15 16  1  0  0  0  0
 15 17  2  0  0  0  0
 17 18  1  0  0  0  0
 17 19  1  0  0  0  0
 19 20  1  0  0  0  0
 19 21  2  0  0  0  0
 21 22  1  0  0  0  0
 21 23  1  0  0  0  0
 23 24  1  0  0  0  0
 25 26  2  0  0  0  0
 25 27  1  0  0  0  0
 27 28  1  0  0  0  0
 27 29  1  0  0  0  0
 29 30  1  0  0  0  0
 29 31  1  0  0  0  0
 29 32  1  0  0  0  0
M  END
$$$$

  -OEChem-03222214073D

 32 32  0     1  0  0  0  0  0999 V2000
   -3.1499   -4.3848    0.8758 H   0  0  0  0  0  0  0  0  0  0  0  0
   -3.1026   -3.4979    0.2373 C   0  0  0  0  0  0  0  0  0  0  0  0
   -3.9511   -2.8507    0.4713 H   0  0  0  0  0  0  0  0  0  0  0  0
   -3.1693   -3.8137   -0.8066 H   0  0  0  0  0  0  0  0  0  0  0  0
   -1.8008   -2.7547    0.4726 C   0  0  0  0  0  0  0  0  0  0  0  0
   -1.0208   -3.1566    1.3161 O   0  0  0  0  0  0  0  0  0  0  0  0
   -1.5133   -1.6307   -0.2781 N   0  0  0  0  0  0  0  0  0  0  0  0
   -2.1685   -1.4043   -1.0199 H   0  0  0  0  0  0  0  0  0  0  0  0
   -0.2269   -0.9038   -0.2374 C   0  0  1  0  0  0  0  0  0  0  0  0
    0.5717   -1.6013   -0.5153 H   0  0  0  0  0  0  0  0  0  0  0  0
   -0.3052    0.2161   -1.3016 C   0  0  0  0  0  0  0  0  0  0  0  0
   -0.9732   -0.1016   -2.1082 H   0  0  0  0  0  0  0  0  0  0  0  0
   -0.7474    1.1141   -0.8580 H   0  0  0  0  0  0  0  0  0  0  0  0
    1.0336    0.5788   -1.9117 C   0  0  0  0  0  0  0  0  0  0  0  0
    1.2277    0.4339   -3.2962 C   0  0  0  0  0  0  0  0  0  0  0  0
    0.4392    0.0269   -3.9213 H   0  0  0  0  0  0  0  0  0  0  0  0
    2.4397    0.7971   -3.8932 C   0  0  0  0  0  0  0  0  0  0  0  0
    2.5804    0.6663   -4.9620 H   0  0  0  0  0  0  0  0  0  0  0  0
    3.4704    1.3291   -3.1148 C   0  0  0  0  0  0  0  0  0  0  0  0
    4.4135    1.6090   -3.5748 H   0  0  0  0  0  0  0  0  0  0  0  0
    3.2815    1.5061   -1.7423 C   0  0  0  0  0  0  0  0  0  0  0  0
    4.0751    1.9280   -1.1328 H   0  0  0  0  0  0  0  0  0  0  0  0
    2.0688    1.1428   -1.1479 C   0  0  0  0  0  0  0  0  0  0  0  0
    1.9468    1.3151   -0.0839 H   0  0  0  0  0  0  0  0  0  0  0  0
    0.1140   -0.3497    1.1668 C   0  0  0  0  0  0  0  0  0  0  0  0
    1.2590   -0.3892    1.5973 O   0  0  0  0  0  0  0  0  0  0  0  0
   -0.8600    0.2949    1.9093 N   0  0  0  0  0  0  0  0  0  0  0  0
   -1.8148    0.1852    1.5849 H   0  0  0  0  0  0  0  0  0  0  0  0
   -0.6330    0.7568    3.2731 C   0  0  0  0  0  0  0  0  0  0  0  0
    0.1883    1.4804    3.3012 H   0  0  0  0  0  0  0  0  0  0  0  0
   -1.5325    1.2423    3.6631 H   0  0  0  0  0  0  0  0  0  0  0  0
   -0.3819   -0.0868    3.9247 H   0  0  0  0  0  0  0  0  0  0  0  0
  1  2  1  0  0  0  0
  2  3  1  0  0  0  0
  2  4  1  0  0  0  0
  2  5  1  0  0  0  0
  5  6  2  0  0  0  0
  5  7  1  0  0  0  0
  7  8  1  0  0  0  0
  7  9  1  0  0  0  0
  9 10  1  0  0  0  0
  9 11  1  0  0  0  0
  9 25  1  0  0  0  0
 11 12  1  0  0  0  0
 11 13  1  0  0  0  0
 11 14  1  0  0  0  0
 14 15  1  0  0  0  0
 14 23  2  0  0  0  0
 15 16  1  0  0  0  0
 15 17  2  0  0  0  0
 17 18  1  0  0  0  0
 17 19  1  0  0  0  0
 19 20  1  0  0  0  0
 19 21  2  0  0  0  0
 21 22  1  0  0  0  0
 21 23  1  0  0  0  0
 23 24  1  0  0  0  0
 25 26  2  0  0  0  0
 25 27  1  0  0  0  0
 27 28  1  0  0  0  0
 27 29  1  0  0  0  0
 29 30  1  0  0  0  0
 29 31  1  0  0  0  0
 29 32  1  0  0  0  0
M  END
$$$$

  -OEChem-03222214073D

 32 32  0     1  0  0  0  0  0999 V2000
   -3.1987   -4.3420    0.8948 H   0  0  0  0  0  0  0  0  0  0  0  0
   -3.1302   -3.4553    0.2579 C   0  0  0  0  0  0  0  0  0  0  0  0
   -3.9588   -2.7850    0.4985 H   0  0  0  0  0  0  0  0  0  0  0  0
   -3.2120   -3.7671   -0.7861 H   0  0  0  0  0  0  0  0  0  0  0  0
   -1.8065   -2.7496    0.4877 C   0  0  0  0  0  0  0  0  0  0  0  0
   -1.0401   -3.1695    1.3347 O   0  0  0  0  0  0  0  0  0  0  0  0
   -1.4855   -1.6382   -0.2690 N   0  0  0  0  0  0  0  0  0  0  0  0
   -2.1291   -1.4012   -1.0176 H   0  0  0  0  0  0  0  0  0  0  0  0
   -0.1893   -0.9283   -0.2095 C   0  0  1  0  0  0  0  0  0  0  0  0
    0.6100   -1.6328   -0.4666 H   0  0  0  0  0  0  0  0  0  0  0  0
   -0.2468    0.1869   -1.2834 C   0  0  0  0  0  0  0  0  0  0  0  0
   -0.9118   -0.1406   -2.0887 H   0  0  0  0  0  0  0  0  0  0  0  0
   -0.6952    1.0854   -0.8475 H   0  0  0  0  0  0  0  0  0  0  0  0
    1.0829    0.5687   -1.9116 C   0  0  0  0  0  0  0  0  0  0  0  0
    1.1520    0.7253   -3.3078 C   0  0  0  0  0  0  0  0  0  0  0  0
    0.2778    0.5405   -3.9242 H   0  0  0  0  0  0  0  0  0  0  0  0
    2.3416    1.1119   -3.9345 C   0  0  0  0  0  0  0  0  0  0  0  0
    2.3788    1.2157   -5.0148 H   0  0  0  0  0  0  0  0  0  0  0  0
    3.4818    1.3677   -3.1706 C   0  0  0  0  0  0  0  0  0  0  0  0
    4.4075    1.6678   -3.6527 H   0  0  0  0  0  0  0  0  0  0  0  0
    3.4244    1.2456   -1.7811 C   0  0  0  0  0  0  0  0  0  0  0  0
    4.3037    1.4556   -1.1788 H   0  0  0  0  0  0  0  0  0  0  0  0
    2.2335    0.8592   -1.1574 C   0  0  0  0  0  0  0  0  0  0  0  0
    2.2310    0.8045   -0.0765 H   0  0  0  0  0  0  0  0  0  0  0  0
    0.1084   -0.3708    1.2050 C   0  0  0  0  0  0  0  0  0  0  0  0
    1.2224   -0.4686    1.7021 O   0  0  0  0  0  0  0  0  0  0  0  0
   -0.8835    0.2878    1.9112 N   0  0  0  0  0  0  0  0  0  0  0  0
   -1.8230    0.2165    1.5360 H   0  0  0  0  0  0  0  0  0  0  0  0
   -0.7134    0.7150    3.2945 C   0  0  0  0  0  0  0  0  0  0  0  0
    0.1221    1.4178    3.3792 H   0  0  0  0  0  0  0  0  0  0  0  0
   -1.6197    1.2134    3.6510 H   0  0  0  0  0  0  0  0  0  0  0  0
   -0.5143   -0.1479    3.9391 H   0  0  0  0  0  0  0  0  0  0  0  0
  1  2  1  0  0  0  0
  2  3  1  0  0  0  0
  2  4  1  0  0  0  0
  2  5  1  0  0  0  0
  5  6  2  0  0  0  0
  5  7  1  0  0  0  0
  7  8  1  0  0  0  0
  7  9  1  0  0  0  0
  9 10  1  0  0  0  0
  9 11  1  0  0  0  0
  9 25  1  0  0  0  0
 11 12  1  0  0  0  0
 11 13  1  0  0  0  0
 11 14  1  0  0  0  0
 14 15  1  0  0  0  0
 14 23  2  0  0  0  0
 15 16  1  0  0  0  0
 15 17  2  0  0  0  0
 17 18  1  0  0  0  0
 17 19  1  0  0  0  0
 19 20  1  0  0  0  0
 19 21  2  0  0  0  0
 21 22  1  0  0  0  0
 21 23  1  0  0  0  0
 23 24  1  0  0  0  0
 25 26  2  0  0  0  0
 25 27  1  0  0  0  0
 27 28  1  0  0  0  0
 27 29  1  0  0  0  0
 29 30  1  0  0  0  0
 29 31  1  0  0  0  0
 29 32  1  0  0  0  0
M  END
$$$$

  -OEChem-03222214073D

 32 32  0     1  0  0  0  0  0999 V2000
   -3.2190   -4.3347    0.8946 H   0  0  0  0  0  0  0  0  0  0  0  0
   -3.1358   -3.4545    0.2506 C   0  0  0  0  0  0  0  0  0  0  0  0
   -3.9658   -2.7789    0.4702 H   0  0  0  0  0  0  0  0  0  0  0  0
   -3.2000   -3.7761   -0.7917 H   0  0  0  0  0  0  0  0  0  0  0  0
   -1.8142   -2.7512    0.4980 C   0  0  0  0  0  0  0  0  0  0  0  0
   -1.0641   -3.1662    1.3619 O   0  0  0  0  0  0  0  0  0  0  0  0
   -1.4758   -1.6480   -0.2632 N   0  0  0  0  0  0  0  0  0  0  0  0
   -2.1027   -1.4192   -1.0285 H   0  0  0  0  0  0  0  0  0  0  0  0
   -0.1767   -0.9449   -0.1903 C   0  0  1  0  0  0  0  0  0  0  0  0
    0.6217   -1.6541   -0.4354 H   0  0  0  0  0  0  0  0  0  0  0  0
   -0.2163    0.1784   -1.2564 C   0  0  0  0  0  0  0  0  0  0  0  0
   -0.8726   -0.1475   -2.0697 H   0  0  0  0  0  0  0  0  0  0  0  0
   -0.6709    1.0730   -0.8188 H   0  0  0  0  0  0  0  0  0  0  0  0
    1.1077    0.5768   -1.8892 C   0  0  0  0  0  0  0  0  0  0  0  0
    1.0881    1.0563   -3.2111 C   0  0  0  0  0  0  0  0  0  0  0  0
    0.1491    1.1289   -3.7509 H   0  0  0  0  0  0  0  0  0  0  0  0
    2.2647    1.4485   -3.8582 C   0  0  0  0  0  0  0  0  0  0  0  0
    2.2282    1.8134   -4.8803 H   0  0  0  0  0  0  0  0  0  0  0  0
    3.4873    1.3723   -3.1889 C   0  0  0  0  0  0  0  0  0  0  0  0
    4.4036    1.6762   -3.6866 H   0  0  0  0  0  0  0  0  0  0  0  0
    3.5268    0.9041   -1.8743 C   0  0  0  0  0  0  0  0  0  0  0  0
    4.4738    0.8437   -1.3457 H   0  0  0  0  0  0  0  0  0  0  0  0
    2.3489    0.5113   -1.2301 C   0  0  0  0  0  0  0  0  0  0  0  0
    2.4370    0.1564   -0.2120 H   0  0  0  0  0  0  0  0  0  0  0  0
    0.0984   -0.3787    1.2271 C   0  0  0  0  0  0  0  0  0  0  0  0
    1.2051   -0.4644    1.7418 O   0  0  0  0  0  0  0  0  0  0  0  0
   -0.9041    0.2890    1.9103 N   0  0  0  0  0  0  0  0  0  0  0  0
   -1.8385    0.2115    1.5239 H   0  0  0  0  0  0  0  0  0  0  0  0
   -0.7529    0.7415    3.2878 C   0  0  0  0  0  0  0  0  0  0  0  0
    0.0829    1.4443    3.3711 H   0  0  0  0  0  0  0  0  0  0  0  0
   -1.6632    1.2480    3.6222 H   0  0  0  0  0  0  0  0  0  0  0  0
   -0.5644   -0.1097    3.9506 H   0  0  0  0  0  0  0  0  0  0  0  0
  1  2  1  0  0  0  0
  2  3  1  0  0  0  0
  2  4  1  0  0  0  0
  2  5  1  0  0  0  0
  5  6  2  0  0  0  0
  5  7  1  0  0  0  0
  7  8  1  0  0  0  0
  7  9  1  0  0  0  0
  9 10  1  0  0  0  0
  9 11  1  0  0  0  0
  9 25  1  0  0  0  0
 11 12  1  0  0  0  0
 11 13  1  0  0  0  0
 11 14  1  0  0  0  0
 14 15  1  0  0  0  0
 14 23  2  0  0  0  0
 15 16  1  0  0  0  0
 15 17  2  0  0  0  0
 17 18  1  0  0  0  0
 17 19  1  0  0  0  0
 19 20  1  0  0  0  0
 19 21  2  0  0  0  0
 21 22  1  0  0  0  0
 21 23  1  0  0  0  0
 23 24  1  0  0  0  0
 25 26  2  0  0  0  0
 25 27  1  0  0  0  0
 27 28  1  0  0  0  0
 27 29  1  0  0  0  0
 29 30  1  0  0  0  0
 29 31  1  0  0  0  0
 29 32  1  0  0  0  0
M  END
$$$$

  -OEChem-03222214073D

 32 32  0     1  0  0  0  0  0999 V2000
   -3.2354   -4.3587    0.8798 H   0  0  0  0  0  0  0  0  0  0  0  0
   -3.1579   -3.4745    0.2405 C   0  0  0  0  0  0  0  0  0  0  0  0
   -3.9916   -2.8047    0.4643 H   0  0  0  0  0  0  0  0  0  0  0  0
   -3.2215   -3.7905   -0.8034 H   0  0  0  0  0  0  0  0  0  0  0  0
   -1.8403   -2.7650    0.4899 C   0  0  0  0  0  0  0  0  0  0  0  0
   -1.0904   -3.1720    1.3581 O   0  0  0  0  0  0  0  0  0  0  0  0
   -1.5060   -1.6598   -0.2695 N   0  0  0  0  0  0  0  0  0  0  0  0
   -2.1295   -1.4348   -1.0388 H   0  0  0  0  0  0  0  0  0  0  0  0
   -0.2073   -0.9585   -0.1953 C   0  0  1  0  0  0  0  0  0  0  0  0
    0.5759   -1.6835   -0.4406 H   0  0  0  0  0  0  0  0  0  0  0  0
   -0.2252    0.1650   -1.2596 C   0  0  0  0  0  0  0  0  0  0  0  0
   -0.8685   -0.1567   -2.0849 H   0  0  0  0  0  0  0  0  0  0  0  0
   -0.6818    1.0612   -0.8268 H   0  0  0  0  0  0  0  0  0  0  0  0
    1.1065    0.5568   -1.8786 C   0  0  0  0  0  0  0  0  0  0  0  0
    1.0774    1.3271   -3.0538 C   0  0  0  0  0  0  0  0  0  0  0  0
    0.1261    1.6195   -3.4876 H   0  0  0  0  0  0  0  0  0  0  0  0
    2.2591    1.7326   -3.6833 C   0  0  0  0  0  0  0  0  0  0  0  0
    2.2166    2.3272   -4.5911 H   0  0  0  0  0  0  0  0  0  0  0  0
    3.4957    1.3756   -3.1424 C   0  0  0  0  0  0  0  0  0  0  0  0
    4.4159    1.6915   -3.6252 H   0  0  0  0  0  0  0  0  0  0  0  0
    3.5453    0.6122   -1.9744 C   0  0  0  0  0  0  0  0  0  0  0  0
    4.5037    0.3338   -1.5457 H   0  0  0  0  0  0  0  0  0  0  0  0
    2.3627    0.2054   -1.3480 C   0  0  0  0  0  0  0  0  0  0  0  0
    2.4574   -0.3844   -0.4436 H   0  0  0  0  0  0  0  0  0  0  0  0
    0.0965   -0.3870    1.2126 C   0  0  0  0  0  0  0  0  0  0  0  0
    1.2269   -0.4281    1.6792 O   0  0  0  0  0  0  0  0  0  0  0  0
   -0.8898    0.2891    1.9097 N   0  0  0  0  0  0  0  0  0  0  0  0
   -1.8363    0.1852    1.5606 H   0  0  0  0  0  0  0  0  0  0  0  0
   -0.6948    0.7878    3.2653 C   0  0  0  0  0  0  0  0  0  0  0  0
    0.1348    1.5021    3.2949 H   0  0  0  0  0  0  0  0  0  0  0  0
   -1.5983    1.2953    3.6158 H   0  0  0  0  0  0  0  0  0  0  0  0
   -0.4725   -0.0390    3.9483 H   0  0  0  0  0  0  0  0  0  0  0  0
  1  2  1  0  0  0  0
  2  3  1  0  0  0  0
  2  4  1  0  0  0  0
  2  5  1  0  0  0  0
  5  6  2  0  0  0  0
  5  7  1  0  0  0  0
  7  8  1  0  0  0  0
  7  9  1  0  0  0  0
  9 10  1  0  0  0  0
  9 11  1  0  0  0  0
  9 25  1  0  0  0  0
 11 12  1  0  0  0  0
 11 13  1  0  0  0  0
 11 14  1  0  0  0  0
 14 15  1  0  0  0  0
 14 23  2  0  0  0  0
 15 16  1  0  0  0  0
 15 17  2  0  0  0  0
 17 18  1  0  0  0  0
 17 19  1  0  0  0  0
 19 20  1  0  0  0  0
 19 21  2  0  0  0  0
 21 22  1  0  0  0  0
 21 23  1  0  0  0  0
 23 24  1  0  0  0  0
 25 26  2  0  0  0  0
 25 27  1  0  0  0  0
 27 28  1  0  0  0  0
 27 29  1  0  0  0  0
 29 30  1  0  0  0  0
 29 31  1  0  0  0  0
 29 32  1  0  0  0  0
M  END
$$$$

  -OEChem-03222214073D

 32 32  0     1  0  0  0  0  0999 V2000
   -3.2855   -4.4033    0.8869 H   0  0  0  0  0  0  0  0  0  0  0  0
   -3.2197   -3.5236    0.2401 C   0  0  0  0  0  0  0  0  0  0  0  0
   -4.0638   -2.8645    0.4563 H   0  0  0  0  0  0  0  0  0  0  0  0
   -3.2758   -3.8487   -0.8016 H   0  0  0  0  0  0  0  0  0  0  0  0
   -1.9134   -2.7921    0.4861 C   0  0  0  0  0  0  0  0  0  0  0  0
   -1.1572   -3.1802    1.3578 O   0  0  0  0  0  0  0  0  0  0  0  0
   -1.5982   -1.6813   -0.2727 N   0  0  0  0  0  0  0  0  0  0  0  0
   -2.2229   -1.4699   -1.0448 H   0  0  0  0  0  0  0  0  0  0  0  0
   -0.2980   -0.9827   -0.2175 C   0  0  1  0  0  0  0  0  0  0  0  0
    0.4392   -1.7529   -0.4489 H   0  0  0  0  0  0  0  0  0  0  0  0
   -0.2741    0.1213   -1.3052 C   0  0  0  0  0  0  0  0  0  0  0  0
   -1.0993   -0.0568   -2.0018 H   0  0  0  0  0  0  0  0  0  0  0  0
   -0.4674    1.0890   -0.8299 H   0  0  0  0  0  0  0  0  0  0  0  0
    0.9801    0.2529   -2.1564 C   0  0  0  0  0  0  0  0  0  0  0  0
    0.9810    1.2568   -3.1395 C   0  0  0  0  0  0  0  0  0  0  0  0
    0.0965    1.8688   -3.2873 H   0  0  0  0  0  0  0  0  0  0  0  0
    2.1006    1.4834   -3.9462 C   0  0  0  0  0  0  0  0  0  0  0  0
    2.0741    2.2558   -4.7091 H   0  0  0  0  0  0  0  0  0  0  0  0
    3.2558    0.7214   -3.7649 C   0  0  0  0  0  0  0  0  0  0  0  0
    4.1291    0.8966   -4.3860 H   0  0  0  0  0  0  0  0  0  0  0  0
    3.2908   -0.2548   -2.7676 C   0  0  0  0  0  0  0  0  0  0  0  0
    4.1963   -0.8318   -2.6039 H   0  0  0  0  0  0  0  0  0  0  0  0
    2.1689   -0.4818   -1.9631 C   0  0  0  0  0  0  0  0  0  0  0  0
    2.2737   -1.2215   -1.1774 H   0  0  0  0  0  0  0  0  0  0  0  0
    0.0942   -0.4014    1.1573 C   0  0  0  0  0  0  0  0  0  0  0  0
    1.2698   -0.3828    1.4971 O   0  0  0  0  0  0  0  0  0  0  0  0
   -0.8388    0.2943    1.9051 N   0  0  0  0  0  0  0  0  0  0  0  0
   -1.8103    0.1592    1.6461 H   0  0  0  0  0  0  0  0  0  0  0  0
   -0.5341    0.8608    3.2127 C   0  0  0  0  0  0  0  0  0  0  0  0
    0.2970    1.5701    3.1396 H   0  0  0  0  0  0  0  0  0  0  0  0
   -1.4053    1.3918    3.6074 H   0  0  0  0  0  0  0  0  0  0  0  0
   -0.2597    0.0685    3.9171 H   0  0  0  0  0  0  0  0  0  0  0  0
  1  2  1  0  0  0  0
  2  3  1  0  0  0  0
  2  4  1  0  0  0  0
  2  5  1  0  0  0  0
  5  6  2  0  0  0  0
  5  7  1  0  0  0  0
  7  8  1  0  0  0  0
  7  9  1  0  0  0  0
  9 10  1  0  0  0  0
  9 11  1  0  0  0  0
  9 25  1  0  0  0  0
 11 12  1  0  0  0  0
 11 13  1  0  0  0  0
 11 14  1  0  0  0  0
 14 15  1  0  0  0  0
 14 23  2  0  0  0  0
 15 16  1  0  0  0  0
 15 17  2  0  0  0  0
 17 18  1  0  0  0  0
 17 19  1  0  0  0  0
 19 20  1  0  0  0  0
 19 21  2  0  0  0  0
 21 22  1  0  0  0  0
 21 23  1  0  0  0  0
 23 24  1  0  0  0  0
 25 26  2  0  0  0  0
 25 27  1  0  0  0  0
 27 28  1  0  0  0  0
 27 29  1  0  0  0  0
 29 30  1  0  0  0  0
 29 31  1  0  0  0  0
 29 32  1  0  0  0  0
M  END
$$$$

  -OEChem-03222214073D

 32 32  0     1  0  0  0  0  0999 V2000
   -3.2759   -4.3964    0.9030 H   0  0  0  0  0  0  0  0  0  0  0  0
   -3.2001   -3.5217    0.2505 C   0  0  0  0  0  0  0  0  0  0  0  0
   -4.0462   -2.8596    0.4499 H   0  0  0  0  0  0  0  0  0  0  0  0
   -3.2427   -3.8555   -0.7891 H   0  0  0  0  0  0  0  0  0  0  0  0
   -1.8962   -2.7900    0.5090 C   0  0  0  0  0  0  0  0  0  0  0  0
   -1.1536   -3.1710    1.3955 O   0  0  0  0  0  0  0  0  0  0  0  0
   -1.5649   -1.6906   -0.2594 N   0  0  0  0  0  0  0  0  0  0  0  0
   -2.1779   -1.4852   -1.0426 H   0  0  0  0  0  0  0  0  0  0  0  0
   -0.2654   -0.9918   -0.1912 C   0  0  1  0  0  0  0  0  0  0  0  0
    0.4906   -1.7507   -0.3890 H   0  0  0  0  0  0  0  0  0  0  0  0
   -0.2376    0.1177   -1.2751 C   0  0  0  0  0  0  0  0  0  0  0  0
   -1.0566   -0.0611   -1.9785 H   0  0  0  0  0  0  0  0  0  0  0  0
   -0.4434    1.0801   -0.7943 H   0  0  0  0  0  0  0  0  0  0  0  0
    1.0159    0.2627   -2.1265 C   0  0  0  0  0  0  0  0  0  0  0  0
    1.1511    1.4532   -2.8616 C   0  0  0  0  0  0  0  0  0  0  0  0
    0.3896    2.2238   -2.7890 H   0  0  0  0  0  0  0  0  0  0  0  0
    2.2565    1.6760   -3.6886 C   0  0  0  0  0  0  0  0  0  0  0  0
    2.3434    2.6071   -4.2407 H   0  0  0  0  0  0  0  0  0  0  0  0
    3.2503    0.7027   -3.8012 C   0  0  0  0  0  0  0  0  0  0  0  0
    4.1128    0.8735   -4.4389 H   0  0  0  0  0  0  0  0  0  0  0  0
    3.1310   -0.4920   -3.0892 C   0  0  0  0  0  0  0  0  0  0  0  0
    3.9023   -1.2518   -3.1742 H   0  0  0  0  0  0  0  0  0  0  0  0
    2.0242   -0.7146   -2.2624 C   0  0  0  0  0  0  0  0  0  0  0  0
    1.9911   -1.6637   -1.7420 H   0  0  0  0  0  0  0  0  0  0  0  0
    0.0883   -0.3957    1.1886 C   0  0  0  0  0  0  0  0  0  0  0  0
    1.2535   -0.3687    1.5612 O   0  0  0  0  0  0  0  0  0  0  0  0
   -0.8664    0.3055    1.9041 N   0  0  0  0  0  0  0  0  0  0  0  0
   -1.8308    0.1615    1.6237 H   0  0  0  0  0  0  0  0  0  0  0  0
   -0.5966    0.8910    3.2112 C   0  0  0  0  0  0  0  0  0  0  0  0
    0.2276    1.6092    3.1466 H   0  0  0  0  0  0  0  0  0  0  0  0
   -1.4821    1.4166    3.5807 H   0  0  0  0  0  0  0  0  0  0  0  0
   -0.3281    0.1107    3.9311 H   0  0  0  0  0  0  0  0  0  0  0  0
  1  2  1  0  0  0  0
  2  3  1  0  0  0  0
  2  4  1  0  0  0  0
  2  5  1  0  0  0  0
  5  6  2  0  0  0  0
  5  7  1  0  0  0  0
  7  8  1  0  0  0  0
  7  9  1  0  0  0  0
  9 10  1  0  0  0  0
  9 11  1  0  0  0  0
  9 25  1  0  0  0  0
 11 12  1  0  0  0  0
 11 13  1  0  0  0  0
 11 14  1  0  0  0  0
 14 15  1  0  0  0  0
 14 23  2  0  0  0  0
 15 16  1  0  0  0  0
 15 17  2  0  0  0  0
 17 18  1  0  0  0  0
 17 19  1  0  0  0  0
 19 20  1  0  0  0  0
 19 21  2  0  0  0  0
 21 22  1  0  0  0  0
 21 23  1  0  0  0  0
 23 24  1  0  0  0  0
 25 26  2  0  0  0  0
 25 27  1  0  0  0  0
 27 28  1  0  0  0  0
 27 29  1  0  0  0  0
 29 30  1  0  0  0  0
 29 31  1  0  0  0  0
 29 32  1  0  0  0  0
M  END
$$$$

  -OEChem-03222214073D

 32 32  0     1  0  0  0  0  0999 V2000
   -3.2094   -4.4153    0.9119 H   0  0  0  0  0  0  0  0  0  0  0  0
   -3.1476   -3.5415    0.2568 C   0  0  0  0  0  0  0  0  0  0  0  0
   -4.0000   -2.8889    0.4600 H   0  0  0  0  0  0  0  0  0  0  0  0
   -3.1930   -3.8781   -0.7817 H   0  0  0  0  0  0  0  0  0  0  0  0
   -1.8506   -2.7940    0.5049 C   0  0  0  0  0  0  0  0  0  0  0  0
   -1.0937   -3.1698    1.3812 O   0  0  0  0  0  0  0  0  0  0  0  0
   -1.5420   -1.6876   -0.2627 N   0  0  0  0  0  0  0  0  0  0  0  0
   -2.1669   -1.4865   -1.0376 H   0  0  0  0  0  0  0  0  0  0  0  0
   -0.2534   -0.9680   -0.2027 C   0  0  1  0  0  0  0  0  0  0  0  0
    0.5296   -1.7000   -0.4087 H   0  0  0  0  0  0  0  0  0  0  0  0
   -0.2555    0.1553   -1.2718 C   0  0  0  0  0  0  0  0  0  0  0  0
   -1.0742   -0.0210   -1.9760 H   0  0  0  0  0  0  0  0  0  0  0  0
   -0.4646    1.1126   -0.7822 H   0  0  0  0  0  0  0  0  0  0  0  0
    1.0054    0.2860   -2.1082 C   0  0  0  0  0  0  0  0  0  0  0  0
    1.3546    1.5588   -2.5897 C   0  0  0  0  0  0  0  0  0  0  0  0
    0.7631    2.4263   -2.3129 H   0  0  0  0  0  0  0  0  0  0  0  0
    2.4707    1.7389   -3.4129 C   0  0  0  0  0  0  0  0  0  0  0  0
    2.7357    2.7335   -3.7587 H   0  0  0  0  0  0  0  0  0  0  0  0
    3.2453    0.6400   -3.7893 C   0  0  0  0  0  0  0  0  0  0  0  0
    4.1158    0.7779   -4.4238 H   0  0  0  0  0  0  0  0  0  0  0  0
    2.8914   -0.6385   -3.3533 C   0  0  0  0  0  0  0  0  0  0  0  0
    3.4829   -1.4973   -3.6568 H   0  0  0  0  0  0  0  0  0  0  0  0
    1.7738   -0.8169   -2.5305 C   0  0  0  0  0  0  0  0  0  0  0  0
    1.5192   -1.8308   -2.2425 H   0  0  0  0  0  0  0  0  0  0  0  0
    0.0908   -0.3733    1.1813 C   0  0  0  0  0  0  0  0  0  0  0  0
    1.2555   -0.3167    1.5518 O   0  0  0  0  0  0  0  0  0  0  0  0
   -0.8774    0.3058    1.9002 N   0  0  0  0  0  0  0  0  0  0  0  0
   -1.8384    0.1438    1.6187 H   0  0  0  0  0  0  0  0  0  0  0  0
   -0.6202    0.8932    3.2091 C   0  0  0  0  0  0  0  0  0  0  0  0
    0.1851    1.6328    3.1463 H   0  0  0  0  0  0  0  0  0  0  0  0
   -1.5182    1.3944    3.5824 H   0  0  0  0  0  0  0  0  0  0  0  0
   -0.3308    0.1173    3.9257 H   0  0  0  0  0  0  0  0  0  0  0  0
  1  2  1  0  0  0  0
  2  3  1  0  0  0  0
  2  4  1  0  0  0  0
  2  5  1  0  0  0  0
  5  6  2  0  0  0  0
  5  7  1  0  0  0  0
  7  8  1  0  0  0  0
  7  9  1  0  0  0  0
  9 10  1  0  0  0  0
  9 11  1  0  0  0  0
  9 25  1  0  0  0  0
 11 12  1  0  0  0  0
 11 13  1  0  0  0  0
 11 14  1  0  0  0  0
 14 15  1  0  0  0  0
 14 23  2  0  0  0  0
 15 16  1  0  0  0  0
 15 17  2  0  0  0  0
 17 18  1  0  0  0  0
 17 19  1  0  0  0  0
 19 20  1  0  0  0  0
 19 21  2  0  0  0  0
 21 22  1  0  0  0  0
 21 23  1  0  0  0  0
 23 24  1  0  0  0  0
 25 26  2  0  0  0  0
 25 27  1  0  0  0  0
 27 28  1  0  0  0  0
 27 29  1  0  0  0  0
 29 30  1  0  0  0  0
 29 31  1  0  0  0  0
 29 32  1  0  0  0  0
M  END
$$$$

  -OEChem-03222214073D

 32 32  0     1  0  0  0  0  0999 V2000
   -3.1466   -4.4439    0.8982 H   0  0  0  0  0  0  0  0  0  0  0  0
   -3.1150   -3.5574    0.2583 C   0  0  0  0  0  0  0  0  0  0  0  0
   -3.9679   -2.9189    0.5000 H   0  0  0  0  0  0  0  0  0  0  0  0
   -3.1890   -3.8757   -0.7842 H   0  0  0  0  0  0  0  0  0  0  0  0
   -1.8194   -2.7996    0.4805 C   0  0  0  0  0  0  0  0  0  0  0  0
   -1.0348   -3.1800    1.3300 O   0  0  0  0  0  0  0  0  0  0  0  0
   -1.5422   -1.6801   -0.2803 N   0  0  0  0  0  0  0  0  0  0  0  0
   -2.1926   -1.4696   -1.0313 H   0  0  0  0  0  0  0  0  0  0  0  0
   -0.2639   -0.9410   -0.2354 C   0  0  1  0  0  0  0  0  0  0  0  0
    0.5313   -1.6539   -0.4731 H   0  0  0  0  0  0  0  0  0  0  0  0
   -0.2985    0.1920   -1.2899 C   0  0  0  0  0  0  0  0  0  0  0  0
   -1.1187    0.0153   -1.9922 H   0  0  0  0  0  0  0  0  0  0  0  0
   -0.5083    1.1463   -0.7955 H   0  0  0  0  0  0  0  0  0  0  0  0
    0.9678    0.3039   -2.1133 C   0  0  0  0  0  0  0  0  0  0  0  0
    1.5359    1.5671   -2.3431 C   0  0  0  0  0  0  0  0  0  0  0  0
    1.1036    2.4517   -1.8856 H   0  0  0  0  0  0  0  0  0  0  0  0
    2.6731    1.7059   -3.1459 C   0  0  0  0  0  0  0  0  0  0  0  0
    3.1122    2.6871   -3.2991 H   0  0  0  0  0  0  0  0  0  0  0  0
    3.2454    0.5829   -3.7484 C   0  0  0  0  0  0  0  0  0  0  0  0
    4.1308    0.6892   -4.3683 H   0  0  0  0  0  0  0  0  0  0  0  0
    2.6732   -0.6768   -3.5540 C   0  0  0  0  0  0  0  0  0  0  0  0
    3.1108   -1.5503   -4.0284 H   0  0  0  0  0  0  0  0  0  0  0  0
    1.5366   -0.8138   -2.7499 C   0  0  0  0  0  0  0  0  0  0  0  0
    1.1001   -1.8002   -2.6295 H   0  0  0  0  0  0  0  0  0  0  0  0
    0.0952   -0.3565    1.1489 C   0  0  0  0  0  0  0  0  0  0  0  0
    1.2649   -0.2813    1.4997 O   0  0  0  0  0  0  0  0  0  0  0  0
   -0.8716    0.2990    1.8911 N   0  0  0  0  0  0  0  0  0  0  0  0
   -1.8349    0.1286    1.6228 H   0  0  0  0  0  0  0  0  0  0  0  0
   -0.6006    0.8810    3.1993 C   0  0  0  0  0  0  0  0  0  0  0  0
    0.1974    1.6279    3.1293 H   0  0  0  0  0  0  0  0  0  0  0  0
   -1.4977    1.3721    3.5879 H   0  0  0  0  0  0  0  0  0  0  0  0
   -0.2941    0.1033    3.9068 H   0  0  0  0  0  0  0  0  0  0  0  0
  1  2  1  0  0  0  0
  2  3  1  0  0  0  0
  2  4  1  0  0  0  0
  2  5  1  0  0  0  0
  5  6  2  0  0  0  0
  5  7  1  0  0  0  0
  7  8  1  0  0  0  0
  7  9  1  0  0  0  0
  9 10  1  0  0  0  0
  9 11  1  0  0  0  0
  9 25  1  0  0  0  0
 11 12  1  0  0  0  0
 11 13  1  0  0  0  0
 11 14  1  0  0  0  0
 14 15  1  0  0  0  0
 14 23  2  0  0  0  0
 15 16  1  0  0  0  0
 15 17  2  0  0  0  0
 17 18  1  0  0  0  0
 17 19  1  0  0  0  0
 19 20  1  0  0  0  0
 19 21  2  0  0  0  0
 21 22  1  0  0  0  0
 21 23  1  0  0  0  0
 23 24  1  0  0  0  0
 25 26  2  0  0  0  0
 25 27  1  0  0  0  0
 27 28  1  0  0  0  0
 27 29  1  0  0  0  0
 29 30  1  0  0  0  0
 29 31  1  0  0  0  0
 29 32  1  0  0  0  0
M  END
$$$$

  -OEChem-03222214073D

 32 32  0     1  0  0  0  0  0999 V2000
   -3.1074   -4.4579    0.8837 H   0  0  0  0  0  0  0  0  0  0  0  0
   -3.0937   -3.5708    0.2439 C   0  0  0  0  0  0  0  0  0  0  0  0
   -3.9529   -2.9440    0.4940 H   0  0  0  0  0  0  0  0  0  0  0  0
   -3.1733   -3.8892   -0.7983 H   0  0  0  0  0  0  0  0  0  0  0  0
   -1.8057   -2.7966    0.4544 C   0  0  0  0  0  0  0  0  0  0  0  0
   -1.0019   -3.1757    1.2864 O   0  0  0  0  0  0  0  0  0  0  0  0
   -1.5571   -1.6641   -0.2969 N   0  0  0  0  0  0  0  0  0  0  0  0
   -2.2268   -1.4489   -1.0292 H   0  0  0  0  0  0  0  0  0  0  0  0
   -0.2863   -0.9117   -0.2687 C   0  0  1  0  0  0  0  0  0  0  0  0
    0.5102   -1.6136   -0.5386 H   0  0  0  0  0  0  0  0  0  0  0  0
   -0.3464    0.2271   -1.3118 C   0  0  0  0  0  0  0  0  0  0  0  0
   -1.1718    0.0529   -2.0086 H   0  0  0  0  0  0  0  0  0  0  0  0
   -0.5492    1.1816   -0.8146 H   0  0  0  0  0  0  0  0  0  0  0  0
    0.9224    0.3196   -2.1274 C   0  0  0  0  0  0  0  0  0  0  0  0
    1.6891    1.4947   -2.1128 C   0  0  0  0  0  0  0  0  0  0  0  0
    1.3959    2.3313   -1.4856 H   0  0  0  0  0  0  0  0  0  0  0  0
    2.8482    1.5980   -2.8893 C   0  0  0  0  0  0  0  0  0  0  0  0
    3.4414    2.5072   -2.8600 H   0  0  0  0  0  0  0  0  0  0  0  0
    3.2467    0.5295   -3.6975 C   0  0  0  0  0  0  0  0  0  0  0  0
    4.1496    0.6079   -4.2958 H   0  0  0  0  0  0  0  0  0  0  0  0
    2.4821   -0.6400   -3.7324 C   0  0  0  0  0  0  0  0  0  0  0  0
    2.7901   -1.4698   -4.3613 H   0  0  0  0  0  0  0  0  0  0  0  0
    1.3234   -0.7419   -2.9553 C   0  0  0  0  0  0  0  0  0  0  0  0
    0.7372   -1.6547   -2.9955 H   0  0  0  0  0  0  0  0  0  0  0  0
    0.1000   -0.3397    1.1134 C   0  0  0  0  0  0  0  0  0  0  0  0
    1.2774   -0.2464    1.4330 O   0  0  0  0  0  0  0  0  0  0  0  0
   -0.8558    0.2970    1.8858 N   0  0  0  0  0  0  0  0  0  0  0  0
   -1.8230    0.1092    1.6444 H   0  0  0  0  0  0  0  0  0  0  0  0
   -0.5580    0.8704    3.1924 C   0  0  0  0  0  0  0  0  0  0  0  0
    0.2295    1.6270    3.1092 H   0  0  0  0  0  0  0  0  0  0  0  0
   -1.4498    1.3479    3.6092 H   0  0  0  0  0  0  0  0  0  0  0  0
   -0.2241    0.0900    3.8843 H   0  0  0  0  0  0  0  0  0  0  0  0
  1  2  1  0  0  0  0
  2  3  1  0  0  0  0
  2  4  1  0  0  0  0
  2  5  1  0  0  0  0
  5  6  2  0  0  0  0
  5  7  1  0  0  0  0
  7  8  1  0  0  0  0
  7  9  1  0  0  0  0
  9 10  1  0  0  0  0
  9 11  1  0  0  0  0
  9 25  1  0  0  0  0
 11 12  1  0  0  0  0
 11 13  1  0  0  0  0
 11 14  1  0  0  0  0
 14 15  1  0  0  0  0
 14 23  2  0  0  0  0
 15 16  1  0  0  0  0
 15 17  2  0  0  0  0
 17 18  1  0  0  0  0
 17 19  1  0  0  0  0
 19 20  1  0  0  0  0
 19 21  2  0  0  0  0
 21 22  1  0  0  0  0
 21 23  1  0  0  0  0
 23 24  1  0  0  0  0
 25 26  2  0  0  0  0
 25 27  1  0  0  0  0
 27 28  1  0  0  0  0
 27 29  1  0  0  0  0
 29 30  1  0  0  0  0
 29 31  1  0  0  0  0
 29 32  1  0  0  0  0
M  END
$$$$

  -OEChem-03222214073D

 32 32  0     1  0  0  0  0  0999 V2000
   -3.0979   -4.4546    0.8769 H   0  0  0  0  0  0  0  0  0  0  0  0
   -3.0858   -3.5703    0.2330 C   0  0  0  0  0  0  0  0  0  0  0  0
   -3.9486   -2.9457    0.4764 H   0  0  0  0  0  0  0  0  0  0  0  0
   -3.1597   -3.8936   -0.8081 H   0  0  0  0  0  0  0  0  0  0  0  0
   -1.8024   -2.7889    0.4448 C   0  0  0  0  0  0  0  0  0  0  0  0
   -0.9969   -3.1618    1.2779 O   0  0  0  0  0  0  0  0  0  0  0  0
   -1.5646   -1.6521   -0.3030 N   0  0  0  0  0  0  0  0  0  0  0  0
   -2.2352   -1.4446   -1.0366 H   0  0  0  0  0  0  0  0  0  0  0  0
   -0.2953   -0.8973   -0.2858 C   0  0  1  0  0  0  0  0  0  0  0  0
    0.4996   -1.5942   -0.5756 H   0  0  0  0  0  0  0  0  0  0  0  0
   -0.3707    0.2444   -1.3215 C   0  0  0  0  0  0  0  0  0  0  0  0
   -1.2037    0.0745   -2.0106 H   0  0  0  0  0  0  0  0  0  0  0  0
   -0.5632    1.2005   -0.8229 H   0  0  0  0  0  0  0  0  0  0  0  0
    0.8957    0.3240   -2.1375 C   0  0  0  0  0  0  0  0  0  0  0  0
    1.8302    1.3416   -1.8982 C   0  0  0  0  0  0  0  0  0  0  0  0
    1.6604    2.0615   -1.1028 H   0  0  0  0  0  0  0  0  0  0  0  0
    2.9982    1.4265   -2.6631 C   0  0  0  0  0  0  0  0  0  0  0  0
    3.7205    2.2119   -2.4615 H   0  0  0  0  0  0  0  0  0  0  0  0
    3.2394    0.4961   -3.6784 C   0  0  0  0  0  0  0  0  0  0  0  0
    4.1484    0.5608   -4.2692 H   0  0  0  0  0  0  0  0  0  0  0  0
    2.3120   -0.5201   -3.9269 C   0  0  0  0  0  0  0  0  0  0  0  0
    2.5006   -1.2459   -4.7123 H   0  0  0  0  0  0  0  0  0  0  0  0
    1.1445   -0.6046   -3.1603 C   0  0  0  0  0  0  0  0  0  0  0  0
    0.4323   -1.3990   -3.3605 H   0  0  0  0  0  0  0  0  0  0  0  0
    0.1070   -0.3316    1.0946 C   0  0  0  0  0  0  0  0  0  0  0  0
    1.2884   -0.2252    1.3954 O   0  0  0  0  0  0  0  0  0  0  0  0
   -0.8414    0.2985    1.8812 N   0  0  0  0  0  0  0  0  0  0  0  0
   -1.8100    0.0981    1.6558 H   0  0  0  0  0  0  0  0  0  0  0  0
   -0.5306    0.8648    3.1878 C   0  0  0  0  0  0  0  0  0  0  0  0
    0.2416    1.6360    3.0984 H   0  0  0  0  0  0  0  0  0  0  0  0
   -1.4234    1.3224    3.6242 H   0  0  0  0  0  0  0  0  0  0  0  0
   -0.1718    0.0841    3.8668 H   0  0  0  0  0  0  0  0  0  0  0  0
  1  2  1  0  0  0  0
  2  3  1  0  0  0  0
  2  4  1  0  0  0  0
  2  5  1  0  0  0  0
  5  6  2  0  0  0  0
  5  7  1  0  0  0  0
  7  8  1  0  0  0  0
  7  9  1  0  0  0  0
  9 10  1  0  0  0  0
  9 11  1  0  0  0  0
  9 25  1  0  0  0  0
 11 12  1  0  0  0  0
 11 13  1  0  0  0  0
 11 14  1  0  0  0  0
 14 15  1  0  0  0  0
 14 23  2  0  0  0  0
 15 16  1  0  0  0  0
 15 17  2  0  0  0  0
 17 18  1  0  0  0  0
 17 19  1  0  0  0  0
 19 20  1  0  0  0  0
 19 21  2  0  0  0  0
 21 22  1  0  0  0  0
 21 23  1  0  0  0  0
 23 24  1  0  0  0  0
 25 26  2  0  0  0  0
 25 27  1  0  0  0  0
 27 28  1  0  0  0  0
 27 29  1  0  0  0  0
 29 30  1  0  0  0  0
 29 31  1  0  0  0  0
 29 32  1  0  0  0  0
M  END
$$$$

  -OEChem-03222214073D

 32 32  0     1  0  0  0  0  0999 V2000
   -3.0920   -4.4527    0.8811 H   0  0  0  0  0  0  0  0  0  0  0  0
   -3.0832   -3.5704    0.2348 C   0  0  0  0  0  0  0  0  0  0  0  0
   -3.9485   -2.9488    0.4765 H   0  0  0  0  0  0  0  0  0  0  0  0
   -3.1551   -3.8974   -0.8053 H   0  0  0  0  0  0  0  0  0  0  0  0
   -1.8033   -2.7830    0.4448 C   0  0  0  0  0  0  0  0  0  0  0  0
   -0.9952   -3.1535    1.2764 O   0  0  0  0  0  0  0  0  0  0  0  0
   -1.5713   -1.6450   -0.3035 N   0  0  0  0  0  0  0  0  0  0  0  0
   -2.2405   -1.4459   -1.0407 H   0  0  0  0  0  0  0  0  0  0  0  0
   -0.3008   -0.8917   -0.2952 C   0  0  1  0  0  0  0  0  0  0  0  0
    0.4914   -1.5871   -0.5964 H   0  0  0  0  0  0  0  0  0  0  0  0
   -0.3826    0.2535   -1.3262 C   0  0  0  0  0  0  0  0  0  0  0  0
   -1.2272    0.0940   -2.0034 H   0  0  0  0  0  0  0  0  0  0  0  0
   -0.5578    1.2110   -0.8240 H   0  0  0  0  0  0  0  0  0  0  0  0
    0.8800    0.3268   -2.1482 C   0  0  0  0  0  0  0  0  0  0  0  0
    1.9534    1.1228   -1.7240 C   0  0  0  0  0  0  0  0  0  0  0  0
    1.8867    1.6737   -0.7896 H   0  0  0  0  0  0  0  0  0  0  0  0
    3.1250    1.1976   -2.4842 C   0  0  0  0  0  0  0  0  0  0  0  0
    3.9530    1.8108   -2.1412 H   0  0  0  0  0  0  0  0  0  0  0  0
    3.2324    0.4771   -3.6774 C   0  0  0  0  0  0  0  0  0  0  0  0
    4.1437    0.5338   -4.2654 H   0  0  0  0  0  0  0  0  0  0  0  0
    2.1682   -0.3213   -4.1073 C   0  0  0  0  0  0  0  0  0  0  0  0
    2.2531   -0.8847   -5.0317 H   0  0  0  0  0  0  0  0  0  0  0  0
    0.9974   -0.3969   -3.3448 C   0  0  0  0  0  0  0  0  0  0  0  0
    0.1799   -1.0236   -3.6868 H   0  0  0  0  0  0  0  0  0  0  0  0
    0.1104   -0.3305    1.0849 C   0  0  0  0  0  0  0  0  0  0  0  0
    1.2939   -0.2228    1.3777 O   0  0  0  0  0  0  0  0  0  0  0  0
   -0.8330    0.2980    1.8790 N   0  0  0  0  0  0  0  0  0  0  0  0
   -1.8036    0.1044    1.6560 H   0  0  0  0  0  0  0  0  0  0  0  0
   -0.5148    0.8600    3.1855 C   0  0  0  0  0  0  0  0  0  0  0  0
    0.2551    1.6334    3.0933 H   0  0  0  0  0  0  0  0  0  0  0  0
   -1.4060    1.3132    3.6296 H   0  0  0  0  0  0  0  0  0  0  0  0
   -0.1495    0.0773    3.8588 H   0  0  0  0  0  0  0  0  0  0  0  0
  1  2  1  0  0  0  0
  2  3  1  0  0  0  0
  2  4  1  0  0  0  0
  2  5  1  0  0  0  0
  5  6  2  0  0  0  0
  5  7  1  0  0  0  0
  7  8  1  0  0  0  0
  7  9  1  0  0  0  0
  9 10  1  0  0  0  0
  9 11  1  0  0  0  0
  9 25  1  0  0  0  0
 11 12  1  0  0  0  0
 11 13  1  0  0  0  0
 11 14  1  0  0  0  0
 14 15  1  0  0  0  0
 14 23  2  0  0  0  0
 15 16  1  0  0  0  0
 15 17  2  0  0  0  0
 17 18  1  0  0  0  0
 17 19  1  0  0  0  0
 19 20  1  0  0  0  0
 19 21  2  0  0  0  0
 21 22  1  0  0  0  0
 21 23  1  0  0  0  0
 23 24  1  0  0  0  0
 25 26  2  0  0  0  0
 25 27  1  0  0  0  0
 27 28  1  0  0  0  0
 27 29  1  0  0  0  0
 29 30  1  0  0  0  0
 29 31  1  0  0  0  0
 29 32  1  0  0  0  0
M  END
$$$$

  -OEChem-03222214073D

 32 32  0     1  0  0  0  0  0999 V2000
   -3.0969   -4.4391    0.8848 H   0  0  0  0  0  0  0  0  0  0  0  0
   -3.0827   -3.5567    0.2387 C   0  0  0  0  0  0  0  0  0  0  0  0
   -3.9475   -2.9328    0.4761 H   0  0  0  0  0  0  0  0  0  0  0  0
   -3.1506   -3.8833   -0.8017 H   0  0  0  0  0  0  0  0  0  0  0  0
   -1.8016   -2.7731    0.4542 C   0  0  0  0  0  0  0  0  0  0  0  0
   -0.9998   -3.1444    1.2916 O   0  0  0  0  0  0  0  0  0  0  0  0
   -1.5621   -1.6376   -0.2958 N   0  0  0  0  0  0  0  0  0  0  0  0
   -2.2229   -1.4442   -1.0420 H   0  0  0  0  0  0  0  0  0  0  0  0
   -0.2876   -0.8906   -0.2872 C   0  0  1  0  0  0  0  0  0  0  0  0
    0.5042   -1.5869   -0.5878 H   0  0  0  0  0  0  0  0  0  0  0  0
   -0.3738    0.2516   -1.3247 C   0  0  0  0  0  0  0  0  0  0  0  0
   -1.2287    0.0934   -1.9893 H   0  0  0  0  0  0  0  0  0  0  0  0
   -0.5397    1.2103   -0.8218 H   0  0  0  0  0  0  0  0  0  0  0  0
    0.8807    0.3346   -2.1618 C   0  0  0  0  0  0  0  0  0  0  0  0
    2.0615    0.8708   -1.6264 C   0  0  0  0  0  0  0  0  0  0  0  0
    2.0836    1.2326   -0.6019 H   0  0  0  0  0  0  0  0  0  0  0  0
    3.2263    0.9379   -2.3975 C   0  0  0  0  0  0  0  0  0  0  0  0
    4.1346    1.3499   -1.9674 H   0  0  0  0  0  0  0  0  0  0  0  0
    3.2216    0.4698   -3.7144 C   0  0  0  0  0  0  0  0  0  0  0  0
    4.1271    0.5211   -4.3118 H   0  0  0  0  0  0  0  0  0  0  0  0
    2.0516   -0.0690   -4.2574 C   0  0  0  0  0  0  0  0  0  0  0  0
    2.0487   -0.4375   -5.2788 H   0  0  0  0  0  0  0  0  0  0  0  0
    0.8873   -0.1375   -3.4841 C   0  0  0  0  0  0  0  0  0  0  0  0
   -0.0116   -0.5636   -3.9184 H   0  0  0  0  0  0  0  0  0  0  0  0
    0.1132   -0.3336    1.0987 C   0  0  0  0  0  0  0  0  0  0  0  0
    1.2921   -0.2561    1.4187 O   0  0  0  0  0  0  0  0  0  0  0  0
   -0.8351    0.2964    1.8854 N   0  0  0  0  0  0  0  0  0  0  0  0
   -1.8039    0.1180    1.6428 H   0  0  0  0  0  0  0  0  0  0  0  0
   -0.5328    0.8377    3.2047 C   0  0  0  0  0  0  0  0  0  0  0  0
    0.2494    1.6010    3.1363 H   0  0  0  0  0  0  0  0  0  0  0  0
   -1.4254    1.2986    3.6378 H   0  0  0  0  0  0  0  0  0  0  0  0
   -0.1915    0.0420    3.8753 H   0  0  0  0  0  0  0  0  0  0  0  0
  1  2  1  0  0  0  0
  2  3  1  0  0  0  0
  2  4  1  0  0  0  0
  2  5  1  0  0  0  0
  5  6  2  0  0  0  0
  5  7  1  0  0  0  0
  7  8  1  0  0  0  0
  7  9  1  0  0  0  0
  9 10  1  0  0  0  0
  9 11  1  0  0  0  0
  9 25  1  0  0  0  0
 11 12  1  0  0  0  0
 11 13  1  0  0  0  0
 11 14  1  0  0  0  0
 14 15  1  0  0  0  0
 14 23  2  0  0  0  0
 15 16  1  0  0  0  0
 15 17  2  0  0  0  0
 17 18  1  0  0  0  0
 17 19  1  0  0  0  0
 19 20  1  0  0  0  0
 19 21  2  0  0  0  0
 21 22  1  0  0  0  0
 21 23  1  0  0  0  0
 23 24  1  0  0  0  0
 25 26  2  0  0  0  0
 25 27  1  0  0  0  0
 27 28  1  0  0  0  0
 27 29  1  0  0  0  0
 29 30  1  0  0  0  0
 29 31  1  0  0  0  0
 29 32  1  0  0  0  0
M  END
$$$$

  -OEChem-03222214073D

 32 32  0     1  0  0  0  0  0999 V2000
   -3.1150   -4.4254    0.8820 H   0  0  0  0  0  0  0  0  0  0  0  0
   -3.0909   -3.5381    0.2428 C   0  0  0  0  0  0  0  0  0  0  0  0
   -3.9541   -2.9114    0.4790 H   0  0  0  0  0  0  0  0  0  0  0  0
   -3.1531   -3.8567   -0.8006 H   0  0  0  0  0  0  0  0  0  0  0  0
   -1.8067   -2.7636    0.4741 C   0  0  0  0  0  0  0  0  0  0  0  0
   -1.0215   -3.1372    1.3259 O   0  0  0  0  0  0  0  0  0  0  0  0
   -1.5438   -1.6378   -0.2829 N   0  0  0  0  0  0  0  0  0  0  0  0
   -2.1905   -1.4480   -1.0422 H   0  0  0  0  0  0  0  0  0  0  0  0
   -0.2620   -0.9022   -0.2639 C   0  0  1  0  0  0  0  0  0  0  0  0
    0.5309   -1.6028   -0.5511 H   0  0  0  0  0  0  0  0  0  0  0  0
   -0.3418    0.2328   -1.3137 C   0  0  0  0  0  0  0  0  0  0  0  0
   -1.2026    0.0709   -1.9694 H   0  0  0  0  0  0  0  0  0  0  0  0
   -0.5056    1.1932   -0.8135 H   0  0  0  0  0  0  0  0  0  0  0  0
    0.9041    0.3350   -2.1678 C   0  0  0  0  0  0  0  0  0  0  0  0
    2.1630    0.5881   -1.5992 C   0  0  0  0  0  0  0  0  0  0  0  0
    2.2683    0.7381   -0.5295 H   0  0  0  0  0  0  0  0  0  0  0  0
    3.3070    0.6616   -2.4000 C   0  0  0  0  0  0  0  0  0  0  0  0
    4.2723    0.8573   -1.9425 H   0  0  0  0  0  0  0  0  0  0  0  0
    3.2077    0.4826   -3.7820 C   0  0  0  0  0  0  0  0  0  0  0  0
    4.0975    0.5391   -4.4022 H   0  0  0  0  0  0  0  0  0  0  0  0
    1.9617    0.2294   -4.3614 C   0  0  0  0  0  0  0  0  0  0  0  0
    1.8827    0.0887   -5.4352 H   0  0  0  0  0  0  0  0  0  0  0  0
    0.8182    0.1551   -3.5586 C   0  0  0  0  0  0  0  0  0  0  0  0
   -0.1392   -0.0471   -4.0280 H   0  0  0  0  0  0  0  0  0  0  0  0
    0.1105   -0.3410    1.1293 C   0  0  0  0  0  0  0  0  0  0  0  0
    1.2762   -0.3161    1.5012 O   0  0  0  0  0  0  0  0  0  0  0  0
   -0.8492    0.3005    1.8923 N   0  0  0  0  0  0  0  0  0  0  0  0
   -1.8132    0.1501    1.6147 H   0  0  0  0  0  0  0  0  0  0  0  0
   -0.5777    0.8152    3.2286 C   0  0  0  0  0  0  0  0  0  0  0  0
    0.2252    1.5594    3.1972 H   0  0  0  0  0  0  0  0  0  0  0  0
   -1.4725    1.2917    3.6400 H   0  0  0  0  0  0  0  0  0  0  0  0
   -0.2776    0.0013    3.8971 H   0  0  0  0  0  0  0  0  0  0  0  0
  1  2  1  0  0  0  0
  2  3  1  0  0  0  0
  2  4  1  0  0  0  0
  2  5  1  0  0  0  0
  5  6  2  0  0  0  0
  5  7  1  0  0  0  0
  7  8  1  0  0  0  0
  7  9  1  0  0  0  0
  9 10  1  0  0  0  0
  9 11  1  0  0  0  0
  9 25  1  0  0  0  0
 11 12  1  0  0  0  0
 11 13  1  0  0  0  0
 11 14  1  0  0  0  0
 14 15  1  0  0  0  0
 14 23  2  0  0  0  0
 15 16  1  0  0  0  0
 15 17  2  0  0  0  0
 17 18  1  0  0  0  0
 17 19  1  0  0  0  0
 19 20  1  0  0  0  0
 19 21  2  0  0  0  0
 21 22  1  0  0  0  0
 21 23  1  0  0  0  0
 23 24  1  0  0  0  0
 25 26  2  0  0  0  0
 25 27  1  0  0  0  0
 27 28  1  0  0  0  0
 27 29  1  0  0  0  0
 29 30  1  0  0  0  0
 29 31  1  0  0  0  0
 29 32  1  0  0  0  0
M  END
$$$$

  -OEChem-03222214073D

 32 32  0     1  0  0  0  0  0999 V2000
   -3.1513   -4.4043    0.9159 H   0  0  0  0  0  0  0  0  0  0  0  0
   -3.1136   -3.5208    0.2721 C   0  0  0  0  0  0  0  0  0  0  0  0
   -3.9645   -2.8774    0.5077 H   0  0  0  0  0  0  0  0  0  0  0  0
   -3.1847   -3.8434   -0.7693 H   0  0  0  0  0  0  0  0  0  0  0  0
   -1.8158   -2.7675    0.4962 C   0  0  0  0  0  0  0  0  0  0  0  0
   -1.0399   -3.1453    1.3547 O   0  0  0  0  0  0  0  0  0  0  0  0
   -1.5309   -1.6549   -0.2726 N   0  0  0  0  0  0  0  0  0  0  0  0
   -2.1686   -1.4642   -1.0393 H   0  0  0  0  0  0  0  0  0  0  0  0
   -0.2416   -0.9322   -0.2461 C   0  0  1  0  0  0  0  0  0  0  0  0
    0.5479   -1.6429   -0.5156 H   0  0  0  0  0  0  0  0  0  0  0  0
   -0.3010    0.1988   -1.3033 C   0  0  0  0  0  0  0  0  0  0  0  0
   -1.1614    0.0343   -1.9591 H   0  0  0  0  0  0  0  0  0  0  0  0
   -0.4655    1.1606   -0.8065 H   0  0  0  0  0  0  0  0  0  0  0  0
    0.9398    0.3138   -2.1691 C   0  0  0  0  0  0  0  0  0  0  0  0
    2.2391    0.2629   -1.6350 C   0  0  0  0  0  0  0  0  0  0  0  0
    2.4019    0.1489   -0.5690 H   0  0  0  0  0  0  0  0  0  0  0  0
    3.3598    0.3672   -2.4652 C   0  0  0  0  0  0  0  0  0  0  0  0
    4.3554    0.3257   -2.0331 H   0  0  0  0  0  0  0  0  0  0  0  0
    3.1992    0.5264   -3.8436 C   0  0  0  0  0  0  0  0  0  0  0  0
    4.0704    0.6080   -4.4868 H   0  0  0  0  0  0  0  0  0  0  0  0
    1.9150    0.5827   -4.3899 C   0  0  0  0  0  0  0  0  0  0  0  0
    1.7861    0.7079   -5.4608 H   0  0  0  0  0  0  0  0  0  0  0  0
    0.7955    0.4784   -3.5575 C   0  0  0  0  0  0  0  0  0  0  0  0
   -0.1929    0.5270   -4.0033 H   0  0  0  0  0  0  0  0  0  0  0  0
    0.1056   -0.3608    1.1503 C   0  0  0  0  0  0  0  0  0  0  0  0
    1.2605   -0.3514    1.5548 O   0  0  0  0  0  0  0  0  0  0  0  0
   -0.8668    0.2955    1.8845 N   0  0  0  0  0  0  0  0  0  0  0  0
   -1.8246    0.1583    1.5799 H   0  0  0  0  0  0  0  0  0  0  0  0
   -0.6272    0.8108    3.2264 C   0  0  0  0  0  0  0  0  0  0  0  0
    0.1873    1.5427    3.2167 H   0  0  0  0  0  0  0  0  0  0  0  0
   -1.5266    1.3024    3.6087 H   0  0  0  0  0  0  0  0  0  0  0  0
   -0.3602   -0.0053    3.9062 H   0  0  0  0  0  0  0  0  0  0  0  0
  1  2  1  0  0  0  0
  2  3  1  0  0  0  0
  2  4  1  0  0  0  0
  2  5  1  0  0  0  0
  5  6  2  0  0  0  0
  5  7  1  0  0  0  0
  7  8  1  0  0  0  0
  7  9  1  0  0  0  0
  9 10  1  0  0  0  0
  9 11  1  0  0  0  0
  9 25  1  0  0  0  0
 11 12  1  0  0  0  0
 11 13  1  0  0  0  0
 11 14  1  0  0  0  0
 14 15  1  0  0  0  0
 14 23  2  0  0  0  0
 15 16  1  0  0  0  0
 15 17  2  0  0  0  0
 17 18  1  0  0  0  0
 17 19  1  0  0  0  0
 19 20  1  0  0  0  0
 19 21  2  0  0  0  0
 21 22  1  0  0  0  0
 21 23  1  0  0  0  0
 23 24  1  0  0  0  0
 25 26  2  0  0  0  0
 25 27  1  0  0  0  0
 27 28  1  0  0  0  0
 27 29  1  0  0  0  0
 29 30  1  0  0  0  0
 29 31  1  0  0  0  0
 29 32  1  0  0  0  0
M  END
$$$$

  -OEChem-03222214073D

 32 32  0     1  0  0  0  0  0999 V2000
   -3.1816   -4.4160    0.9122 H   0  0  0  0  0  0  0  0  0  0  0  0
   -3.1401   -3.5340    0.2666 C   0  0  0  0  0  0  0  0  0  0  0  0
   -3.9936   -2.8909    0.4941 H   0  0  0  0  0  0  0  0  0  0  0  0
   -3.2026   -3.8584   -0.7750 H   0  0  0  0  0  0  0  0  0  0  0  0
   -1.8447   -2.7790    0.4988 C   0  0  0  0  0  0  0  0  0  0  0  0
   -1.0760   -3.1520    1.3659 O   0  0  0  0  0  0  0  0  0  0  0  0
   -1.5539   -1.6683   -0.2703 N   0  0  0  0  0  0  0  0  0  0  0  0
   -2.1837   -1.4810   -1.0447 H   0  0  0  0  0  0  0  0  0  0  0  0
   -0.2622   -0.9509   -0.2371 C   0  0  1  0  0  0  0  0  0  0  0  0
    0.5117   -1.6809   -0.4966 H   0  0  0  0  0  0  0  0  0  0  0  0
   -0.2950    0.1731   -1.3038 C   0  0  0  0  0  0  0  0  0  0  0  0
   -1.1440    0.0010   -1.9725 H   0  0  0  0  0  0  0  0  0  0  0  0
   -0.4700    1.1370   -0.8148 H   0  0  0  0  0  0  0  0  0  0  0  0
    0.9494    0.2959   -2.1661 C   0  0  0  0  0  0  0  0  0  0  0  0
    2.2381   -0.0447   -1.7133 C   0  0  0  0  0  0  0  0  0  0  0  0
    2.4053   -0.4048   -0.7035 H   0  0  0  0  0  0  0  0  0  0  0  0
    3.3501    0.0861   -2.5515 C   0  0  0  0  0  0  0  0  0  0  0  0
    4.3364   -0.1807   -2.1829 H   0  0  0  0  0  0  0  0  0  0  0  0
    3.1947    0.5635   -3.8546 C   0  0  0  0  0  0  0  0  0  0  0  0
    4.0601    0.6665   -4.5027 H   0  0  0  0  0  0  0  0  0  0  0  0
    1.9244    0.9128   -4.3177 C   0  0  0  0  0  0  0  0  0  0  0  0
    1.8014    1.2894   -5.3289 H   0  0  0  0  0  0  0  0  0  0  0  0
    0.8128    0.7801   -3.4784 C   0  0  0  0  0  0  0  0  0  0  0  0
   -0.1654    1.0604   -3.8570 H   0  0  0  0  0  0  0  0  0  0  0  0
    0.0995   -0.3719    1.1515 C   0  0  0  0  0  0  0  0  0  0  0  0
    1.2627   -0.3469    1.5310 O   0  0  0  0  0  0  0  0  0  0  0  0
   -0.8616    0.2970    1.8888 N   0  0  0  0  0  0  0  0  0  0  0  0
   -1.8240    0.1504    1.6036 H   0  0  0  0  0  0  0  0  0  0  0  0
   -0.6002    0.8385    3.2162 C   0  0  0  0  0  0  0  0  0  0  0  0
    0.2151    1.5688    3.1786 H   0  0  0  0  0  0  0  0  0  0  0  0
   -1.4925    1.3397    3.6028 H   0  0  0  0  0  0  0  0  0  0  0  0
   -0.3232    0.0361    3.9082 H   0  0  0  0  0  0  0  0  0  0  0  0
  1  2  1  0  0  0  0
  2  3  1  0  0  0  0
  2  4  1  0  0  0  0
  2  5  1  0  0  0  0
  5  6  2  0  0  0  0
  5  7  1  0  0  0  0
  7  8  1  0  0  0  0
  7  9  1  0  0  0  0
  9 10  1  0  0  0  0
  9 11  1  0  0  0  0
  9 25  1  0  0  0  0
 11 12  1  0  0  0  0
 11 13  1  0  0  0  0
 11 14  1  0  0  0  0
 14 15  1  0  0  0  0
 14 23  2  0  0  0  0
 15 16  1  0  0  0  0
 15 17  2  0  0  0  0
 17 18  1  0  0  0  0
 17 19  1  0  0  0  0
 19 20  1  0  0  0  0
 19 21  2  0  0  0  0
 21 22  1  0  0  0  0
 21 23  1  0  0  0  0
 23 24  1  0  0  0  0
 25 26  2  0  0  0  0
 25 27  1  0  0  0  0
 27 28  1  0  0  0  0
 27 29  1  0  0  0  0
 29 30  1  0  0  0  0
 29 31  1  0  0  0  0
 29 32  1  0  0  0  0
M  END
$$$$

  -OEChem-03222214073D

 32 32  0     1  0  0  0  0  0999 V2000
   -3.2104   -4.4384    0.8738 H   0  0  0  0  0  0  0  0  0  0  0  0
   -3.1673   -3.5523    0.2338 C   0  0  0  0  0  0  0  0  0  0  0  0
   -4.0289   -2.9175    0.4539 H   0  0  0  0  0  0  0  0  0  0  0  0
   -3.2142   -3.8715   -0.8102 H   0  0  0  0  0  0  0  0  0  0  0  0
   -1.8810   -2.7883    0.4869 C   0  0  0  0  0  0  0  0  0  0  0  0
   -1.1181   -3.1604    1.3599 O   0  0  0  0  0  0  0  0  0  0  0  0
   -1.5878   -1.6716   -0.2719 N   0  0  0  0  0  0  0  0  0  0  0  0
   -2.2105   -1.4817   -1.0513 H   0  0  0  0  0  0  0  0  0  0  0  0
   -0.2956   -0.9573   -0.2247 C   0  0  1  0  0  0  0  0  0  0  0  0
    0.4568   -1.7104   -0.4730 H   0  0  0  0  0  0  0  0  0  0  0  0
   -0.2970    0.1567   -1.3024 C   0  0  0  0  0  0  0  0  0  0  0  0
   -1.1292   -0.0236   -1.9900 H   0  0  0  0  0  0  0  0  0  0  0  0
   -0.4885    1.1221   -0.8223 H   0  0  0  0  0  0  0  0  0  0  0  0
    0.9563    0.2900   -2.1530 C   0  0  0  0  0  0  0  0  0  0  0  0
    2.1955   -0.3014   -1.8340 C   0  0  0  0  0  0  0  0  0  0  0  0
    2.3419   -0.8608   -0.9152 H   0  0  0  0  0  0  0  0  0  0  0  0
    3.2999   -0.1505   -2.6793 C   0  0  0  0  0  0  0  0  0  0  0  0
    4.2488   -0.6057   -2.4114 H   0  0  0  0  0  0  0  0  0  0  0  0
    3.1875    0.5902   -3.8575 C   0  0  0  0  0  0  0  0  0  0  0  0
    4.0473    0.7070   -4.5106 H   0  0  0  0  0  0  0  0  0  0  0  0
    1.9686    1.1859   -4.1872 C   0  0  0  0  0  0  0  0  0  0  0  0
    1.8793    1.7668   -5.1003 H   0  0  0  0  0  0  0  0  0  0  0  0
    0.8654    1.0360   -3.3402 C   0  0  0  0  0  0  0  0  0  0  0  0
   -0.0733    1.5078   -3.6137 H   0  0  0  0  0  0  0  0  0  0  0  0
    0.0915   -0.3787    1.1541 C   0  0  0  0  0  0  0  0  0  0  0  0
    1.2666   -0.3479    1.4950 O   0  0  0  0  0  0  0  0  0  0  0  0
   -0.8487    0.2998    1.9087 N   0  0  0  0  0  0  0  0  0  0  0  0
   -1.8191    0.1565    1.6500 H   0  0  0  0  0  0  0  0  0  0  0  0
   -0.5476    0.8679    3.2167 C   0  0  0  0  0  0  0  0  0  0  0  0
    0.2692    1.5936    3.1419 H   0  0  0  0  0  0  0  0  0  0  0  0
   -1.4265    1.3812    3.6180 H   0  0  0  0  0  0  0  0  0  0  0  0
   -0.2543    0.0787    3.9170 H   0  0  0  0  0  0  0  0  0  0  0  0
  1  2  1  0  0  0  0
  2  3  1  0  0  0  0
  2  4  1  0  0  0  0
  2  5  1  0  0  0  0
  5  6  2  0  0  0  0
  5  7  1  0  0  0  0
  7  8  1  0  0  0  0
  7  9  1  0  0  0  0
  9 10  1  0  0  0  0
  9 11  1  0  0  0  0
  9 25  1  0  0  0  0
 11 12  1  0  0  0  0
 11 13  1  0  0  0  0
 11 14  1  0  0  0  0
 14 15  1  0  0  0  0
 14 23  2  0  0  0  0
 15 16  1  0  0  0  0
 15 17  2  0  0  0  0
 17 18  1  0  0  0  0
 17 19  1  0  0  0  0
 19 20  1  0  0  0  0
 19 21  2  0  0  0  0
 21 22  1  0  0  0  0
 21 23  1  0  0  0  0
 23 24  1  0  0  0  0
 25 26  2  0  0  0  0
 25 27  1  0  0  0  0
 27 28  1  0  0  0  0
 27 29  1  0  0  0  0
 29 30  1  0  0  0  0
 29 31  1  0  0  0  0
 29 32  1  0  0  0  0
M  END
$$$$

  -OEChem-03222214073D

 32 32  0     1  0  0  0  0  0999 V2000
   -3.2681   -4.4165    0.8866 H   0  0  0  0  0  0  0  0  0  0  0  0
   -3.2014   -3.5427    0.2321 C   0  0  0  0  0  0  0  0  0  0  0  0
   -4.0589   -2.8934    0.4240 H   0  0  0  0  0  0  0  0  0  0  0  0
   -3.2323   -3.8802   -0.8066 H   0  0  0  0  0  0  0  0  0  0  0  0
   -1.9104   -2.7902    0.4961 C   0  0  0  0  0  0  0  0  0  0  0  0
   -1.1603   -3.1655    1.3788 O   0  0  0  0  0  0  0  0  0  0  0  0
   -1.5973   -1.6806   -0.2654 N   0  0  0  0  0  0  0  0  0  0  0  0
   -2.2104   -1.4875   -1.0516 H   0  0  0  0  0  0  0  0  0  0  0  0
   -0.2981   -0.9798   -0.2092 C   0  0  1  0  0  0  0  0  0  0  0  0
    0.4413   -1.7485   -0.4357 H   0  0  0  0  0  0  0  0  0  0  0  0
   -0.2751    0.1263   -1.2953 C   0  0  0  0  0  0  0  0  0  0  0  0
   -1.1010   -0.0529   -1.9906 H   0  0  0  0  0  0  0  0  0  0  0  0
   -0.4708    1.0925   -0.8180 H   0  0  0  0  0  0  0  0  0  0  0  0
    0.9766    0.2661   -2.1502 C   0  0  0  0  0  0  0  0  0  0  0  0
    2.1329   -0.5339   -2.0348 C   0  0  0  0  0  0  0  0  0  0  0  0
    2.2388   -1.2961   -1.2716 H   0  0  0  0  0  0  0  0  0  0  0  0
    3.2230   -0.3456   -2.8918 C   0  0  0  0  0  0  0  0  0  0  0  0
    4.1089   -0.9643   -2.7814 H   0  0  0  0  0  0  0  0  0  0  0  0
    3.1805    0.6399   -3.8796 C   0  0  0  0  0  0  0  0  0  0  0  0
    4.0296    0.7851   -4.5410 H   0  0  0  0  0  0  0  0  0  0  0  0
    2.0457    1.4420   -4.0073 C   0  0  0  0  0  0  0  0  0  0  0  0
    2.0098    2.2126   -4.7715 H   0  0  0  0  0  0  0  0  0  0  0  0
    0.9572    1.2539   -3.1496 C   0  0  0  0  0  0  0  0  0  0  0  0
    0.0835    1.8878   -3.2659 H   0  0  0  0  0  0  0  0  0  0  0  0
    0.0910   -0.3945    1.1654 C   0  0  0  0  0  0  0  0  0  0  0  0
    1.2673   -0.3655    1.5020 O   0  0  0  0  0  0  0  0  0  0  0  0
   -0.8439    0.3018    1.9108 N   0  0  0  0  0  0  0  0  0  0  0  0
   -1.8153    0.1601    1.6552 H   0  0  0  0  0  0  0  0  0  0  0  0
   -0.5392    0.8852    3.2110 C   0  0  0  0  0  0  0  0  0  0  0  0
    0.2800    1.6072    3.1253 H   0  0  0  0  0  0  0  0  0  0  0  0
   -1.4159    1.4065    3.6067 H   0  0  0  0  0  0  0  0  0  0  0  0
   -0.2481    0.1043    3.9213 H   0  0  0  0  0  0  0  0  0  0  0  0
  1  2  1  0  0  0  0
  2  3  1  0  0  0  0
  2  4  1  0  0  0  0
  2  5  1  0  0  0  0
  5  6  2  0  0  0  0
  5  7  1  0  0  0  0
  7  8  1  0  0  0  0
  7  9  1  0  0  0  0
  9 10  1  0  0  0  0
  9 11  1  0  0  0  0
  9 25  1  0  0  0  0
 11 12  1  0  0  0  0
 11 13  1  0  0  0  0
 11 14  1  0  0  0  0
 14 15  1  0  0  0  0
 14 23  2  0  0  0  0
 15 16  1  0  0  0  0
 15 17  2  0  0  0  0
 17 18  1  0  0  0  0
 17 19  1  0  0  0  0
 19 20  1  0  0  0  0
 19 21  2  0  0  0  0
 21 22  1  0  0  0  0
 21 23  1  0  0  0  0
 23 24  1  0  0  0  0
 25 26  2  0  0  0  0
 25 27  1  0  0  0  0
 27 28  1  0  0  0  0
 27 29  1  0  0  0  0
 29 30  1  0  0  0  0
 29 31  1  0  0  0  0
 29 32  1  0  0  0  0
M  END
$$$$

  -OEChem-03222214073D

 32 32  0     1  0  0  0  0  0999 V2000
   -3.2883   -4.3926    0.9356 H   0  0  0  0  0  0  0  0  0  0  0  0
   -3.2171   -3.5236    0.2751 C   0  0  0  0  0  0  0  0  0  0  0  0
   -4.0593   -2.8576    0.4777 H   0  0  0  0  0  0  0  0  0  0  0  0
   -3.2715   -3.8660   -0.7611 H   0  0  0  0  0  0  0  0  0  0  0  0
   -1.9087   -2.7934    0.5128 C   0  0  0  0  0  0  0  0  0  0  0  0
   -1.1517   -3.1765    1.3860 O   0  0  0  0  0  0  0  0  0  0  0  0
   -1.5884   -1.6953   -0.2618 N   0  0  0  0  0  0  0  0  0  0  0  0
   -2.2155   -1.4878   -1.0333 H   0  0  0  0  0  0  0  0  0  0  0  0
   -0.2852   -1.0011   -0.2172 C   0  0  1  0  0  0  0  0  0  0  0  0
    0.4619   -1.7650   -0.4286 H   0  0  0  0  0  0  0  0  0  0  0  0
   -0.2711    0.1055   -1.3039 C   0  0  0  0  0  0  0  0  0  0  0  0
   -1.1036   -0.0700   -1.9920 H   0  0  0  0  0  0  0  0  0  0  0  0
   -0.4637    1.0695   -0.8207 H   0  0  0  0  0  0  0  0  0  0  0  0
    0.9684    0.2447   -2.1771 C   0  0  0  0  0  0  0  0  0  0  0  0
    1.9916   -0.7191   -2.2997 C   0  0  0  0  0  0  0  0  0  0  0  0
    1.9781   -1.6574   -1.7595 H   0  0  0  0  0  0  0  0  0  0  0  0
    3.0906   -0.4950   -3.1369 C   0  0  0  0  0  0  0  0  0  0  0  0
    3.8730   -1.2444   -3.2128 H   0  0  0  0  0  0  0  0  0  0  0  0
    3.1886    0.6889   -3.8699 C   0  0  0  0  0  0  0  0  0  0  0  0
    4.0448    0.8605   -4.5158 H   0  0  0  0  0  0  0  0  0  0  0  0
    2.1839    1.6515   -3.7649 C   0  0  0  0  0  0  0  0  0  0  0  0
    2.2565    2.5757   -4.3306 H   0  0  0  0  0  0  0  0  0  0  0  0
    1.0872    1.4278   -2.9267 C   0  0  0  0  0  0  0  0  0  0  0  0
    0.3186    2.1916   -2.8578 H   0  0  0  0  0  0  0  0  0  0  0  0
    0.0976   -0.4053    1.1551 C   0  0  0  0  0  0  0  0  0  0  0  0
    1.2700   -0.3812    1.5046 O   0  0  0  0  0  0  0  0  0  0  0  0
   -0.8407    0.3001    1.8879 N   0  0  0  0  0  0  0  0  0  0  0  0
   -1.8103    0.1639    1.6229 H   0  0  0  0  0  0  0  0  0  0  0  0
   -0.5456    0.8875    3.1886 C   0  0  0  0  0  0  0  0  0  0  0  0
    0.2817    1.6008    3.1090 H   0  0  0  0  0  0  0  0  0  0  0  0
   -1.4220    1.4190    3.5711 H   0  0  0  0  0  0  0  0  0  0  0  0
   -0.2702    0.1075    3.9062 H   0  0  0  0  0  0  0  0  0  0  0  0
  1  2  1  0  0  0  0
  2  3  1  0  0  0  0
  2  4  1  0  0  0  0
  2  5  1  0  0  0  0
  5  6  2  0  0  0  0
  5  7  1  0  0  0  0
  7  8  1  0  0  0  0
  7  9  1  0  0  0  0
  9 10  1  0  0  0  0
  9 11  1  0  0  0  0
  9 25  1  0  0  0  0
 11 12  1  0  0  0  0
 11 13  1  0  0  0  0
 11 14  1  0  0  0  0
 14 15  1  0  0  0  0
 14 23  2  0  0  0  0
 15 16  1  0  0  0  0
 15 17  2  0  0  0  0
 17 18  1  0  0  0  0
 17 19  1  0  0  0  0
 19 20  1  0  0  0  0
 19 21  2  0  0  0  0
 21 22  1  0  0  0  0
 21 23  1  0  0  0  0
 23 24  1  0  0  0  0
 25 26  2  0  0  0  0
 25 27  1  0  0  0  0
 27 28  1  0  0  0  0
 27 29  1  0  0  0  0
 29 30  1  0  0  0  0
 29 31  1  0  0  0  0
 29 32  1  0  0  0  0
M  END
$$$$

  -OEChem-03222214073D

 32 32  0     1  0  0  0  0  0999 V2000
   -3.2363   -4.4001    0.9648 H   0  0  0  0  0  0  0  0  0  0  0  0
   -3.1836   -3.5325    0.3007 C   0  0  0  0  0  0  0  0  0  0  0  0
   -4.0238   -2.8695    0.5209 H   0  0  0  0  0  0  0  0  0  0  0  0
   -3.2599   -3.8775   -0.7333 H   0  0  0  0  0  0  0  0  0  0  0  0
   -1.8730   -2.7964    0.5076 C   0  0  0  0  0  0  0  0  0  0  0  0
   -1.0933   -3.1780    1.3611 O   0  0  0  0  0  0  0  0  0  0  0  0
   -1.5784   -1.6931   -0.2700 N   0  0  0  0  0  0  0  0  0  0  0  0
   -2.2251   -1.4868   -1.0253 H   0  0  0  0  0  0  0  0  0  0  0  0
   -0.2832   -0.9828   -0.2481 C   0  0  1  0  0  0  0  0  0  0  0  0
    0.4852   -1.7235   -0.4736 H   0  0  0  0  0  0  0  0  0  0  0  0
   -0.3081    0.1386   -1.3198 C   0  0  0  0  0  0  0  0  0  0  0  0
   -1.1493   -0.0351   -1.9978 H   0  0  0  0  0  0  0  0  0  0  0  0
   -0.5005    1.0963   -0.8240 H   0  0  0  0  0  0  0  0  0  0  0  0
    0.9231    0.2731   -2.2020 C   0  0  0  0  0  0  0  0  0  0  0  0
    1.7581   -0.8047   -2.5596 C   0  0  0  0  0  0  0  0  0  0  0  0
    1.5512   -1.8194   -2.2395 H   0  0  0  0  0  0  0  0  0  0  0  0
    2.8844   -0.6021   -3.3648 C   0  0  0  0  0  0  0  0  0  0  0  0
    3.5188   -1.4429   -3.6294 H   0  0  0  0  0  0  0  0  0  0  0  0
    3.1967    0.6777   -3.8274 C   0  0  0  0  0  0  0  0  0  0  0  0
    4.0740    0.8337   -4.4482 H   0  0  0  0  0  0  0  0  0  0  0  0
    2.3783    1.7558   -3.4864 C   0  0  0  0  0  0  0  0  0  0  0  0
    2.6195    2.7532   -3.8415 H   0  0  0  0  0  0  0  0  0  0  0  0
    1.2525    1.5522   -2.6819 C   0  0  0  0  0  0  0  0  0  0  0  0
    0.6339    2.4063   -2.4237 H   0  0  0  0  0  0  0  0  0  0  0  0
    0.1047   -0.3894    1.1246 C   0  0  0  0  0  0  0  0  0  0  0  0
    1.2791   -0.3473    1.4651 O   0  0  0  0  0  0  0  0  0  0  0  0
   -0.8377    0.2973    1.8698 N   0  0  0  0  0  0  0  0  0  0  0  0
   -1.8069    0.1450    1.6126 H   0  0  0  0  0  0  0  0  0  0  0  0
   -0.5419    0.8742    3.1750 C   0  0  0  0  0  0  0  0  0  0  0  0
    0.2744    1.6004    3.0977 H   0  0  0  0  0  0  0  0  0  0  0  0
   -1.4230    1.3886    3.5700 H   0  0  0  0  0  0  0  0  0  0  0  0
   -0.2501    0.0901    3.8818 H   0  0  0  0  0  0  0  0  0  0  0  0
  1  2  1  0  0  0  0
  2  3  1  0  0  0  0
  2  4  1  0  0  0  0
  2  5  1  0  0  0  0
  5  6  2  0  0  0  0
  5  7  1  0  0  0  0
  7  8  1  0  0  0  0
  7  9  1  0  0  0  0
  9 10  1  0  0  0  0
  9 11  1  0  0  0  0
  9 25  1  0  0  0  0
 11 12  1  0  0  0  0
 11 13  1  0  0  0  0
 11 14  1  0  0  0  0
 14 15  1  0  0  0  0
 14 23  2  0  0  0  0
 15 16  1  0  0  0  0
 15 17  2  0  0  0  0
 17 18  1  0  0  0  0
 17 19  1  0  0  0  0
 19 20  1  0  0  0  0
 19 21  2  0  0  0  0
 21 22  1  0  0  0  0
 21 23  1  0  0  0  0
 23 24  1  0  0  0  0
 25 26  2  0  0  0  0
 25 27  1  0  0  0  0
 27 28  1  0  0  0  0
 27 29  1  0  0  0  0
 29 30  1  0  0  0  0
 29 31  1  0  0  0  0
 29 32  1  0  0  0  0
M  END
$$$$

  -OEChem-03222214073D

 32 32  0     1  0  0  0  0  0999 V2000
   -3.1509   -4.4335    0.9383 H   0  0  0  0  0  0  0  0  0  0  0  0
   -3.1269   -3.5584    0.2823 C   0  0  0  0  0  0  0  0  0  0  0  0
   -3.9765   -2.9153    0.5237 H   0  0  0  0  0  0  0  0  0  0  0  0
   -3.2144   -3.8946   -0.7536 H   0  0  0  0  0  0  0  0  0  0  0  0
   -1.8279   -2.7981    0.4747 C   0  0  0  0  0  0  0  0  0  0  0  0
   -1.0233   -3.1766    1.3062 O   0  0  0  0  0  0  0  0  0  0  0  0
   -1.5724   -1.6762   -0.2899 N   0  0  0  0  0  0  0  0  0  0  0  0
   -2.2377   -1.4714   -1.0293 H   0  0  0  0  0  0  0  0  0  0  0  0
   -0.2927   -0.9385   -0.2802 C   0  0  1  0  0  0  0  0  0  0  0  0
    0.4935   -1.6522   -0.5407 H   0  0  0  0  0  0  0  0  0  0  0  0
   -0.3592    0.1990   -1.3298 C   0  0  0  0  0  0  0  0  0  0  0  0
   -1.2019    0.0231   -2.0050 H   0  0  0  0  0  0  0  0  0  0  0  0
   -0.5570    1.1499   -0.8238 H   0  0  0  0  0  0  0  0  0  0  0  0
    0.8760    0.3259   -2.1998 C   0  0  0  0  0  0  0  0  0  0  0  0
    1.5000   -0.7920   -2.7832 C   0  0  0  0  0  0  0  0  0  0  0  0
    1.0947   -1.7890   -2.6449 H   0  0  0  0  0  0  0  0  0  0  0  0
    2.6494   -0.6419   -3.5663 C   0  0  0  0  0  0  0  0  0  0  0  0
    3.1219   -1.5141   -4.0083 H   0  0  0  0  0  0  0  0  0  0  0  0
    3.1926    0.6277   -3.7771 C   0  0  0  0  0  0  0  0  0  0  0  0
    4.0885    0.7436   -4.3801 H   0  0  0  0  0  0  0  0  0  0  0  0
    2.5835    1.7469   -3.2043 C   0  0  0  0  0  0  0  0  0  0  0  0
    3.0069    2.7346   -3.3604 H   0  0  0  0  0  0  0  0  0  0  0  0
    1.4341    1.5953   -2.4213 C   0  0  0  0  0  0  0  0  0  0  0  0
    0.9822    2.4764   -1.9758 H   0  0  0  0  0  0  0  0  0  0  0  0
    0.1077   -0.3595    1.0953 C   0  0  0  0  0  0  0  0  0  0  0  0
    1.2874   -0.2872    1.4117 O   0  0  0  0  0  0  0  0  0  0  0  0
   -0.8362    0.2939    1.8685 N   0  0  0  0  0  0  0  0  0  0  0  0
   -1.8066    0.1167    1.6319 H   0  0  0  0  0  0  0  0  0  0  0  0
   -0.5276    0.8635    3.1740 C   0  0  0  0  0  0  0  0  0  0  0  0
    0.2682    1.6109    3.0885 H   0  0  0  0  0  0  0  0  0  0  0  0
   -1.4133    1.3510    3.5924 H   0  0  0  0  0  0  0  0  0  0  0  0
   -0.2013    0.0792    3.8653 H   0  0  0  0  0  0  0  0  0  0  0  0
  1  2  1  0  0  0  0
  2  3  1  0  0  0  0
  2  4  1  0  0  0  0
  2  5  1  0  0  0  0
  5  6  2  0  0  0  0
  5  7  1  0  0  0  0
  7  8  1  0  0  0  0
  7  9  1  0  0  0  0
  9 10  1  0  0  0  0
  9 11  1  0  0  0  0
  9 25  1  0  0  0  0
 11 12  1  0  0  0  0
 11 13  1  0  0  0  0
 11 14  1  0  0  0  0
 14 15  1  0  0  0  0
 14 23  2  0  0  0  0
 15 16  1  0  0  0  0
 15 17  2  0  0  0  0
 17 18  1  0  0  0  0
 17 19  1  0  0  0  0
 19 20  1  0  0  0  0
 19 21  2  0  0  0  0
 21 22  1  0  0  0  0
 21 23  1  0  0  0  0
 23 24  1  0  0  0  0
 25 26  2  0  0  0  0
 25 27  1  0  0  0  0
 27 28  1  0  0  0  0
 27 29  1  0  0  0  0
 29 30  1  0  0  0  0
 29 31  1  0  0  0  0
 29 32  1  0  0  0  0
M  END
$$$$

  -OEChem-03222214073D

 32 32  0     1  0  0  0  0  0999 V2000
   -3.0760   -4.4605    0.9028 H   0  0  0  0  0  0  0  0  0  0  0  0
   -3.0768   -3.5780    0.2565 C   0  0  0  0  0  0  0  0  0  0  0  0
   -3.9357   -2.9540    0.5145 H   0  0  0  0  0  0  0  0  0  0  0  0
   -3.1693   -3.9044   -0.7823 H   0  0  0  0  0  0  0  0  0  0  0  0
   -1.7908   -2.7945    0.4426 C   0  0  0  0  0  0  0  0  0  0  0  0
   -0.9675   -3.1683    1.2578 O   0  0  0  0  0  0  0  0  0  0  0  0
   -1.5688   -1.6564   -0.3084 N   0  0  0  0  0  0  0  0  0  0  0  0
   -2.2538   -1.4472   -1.0281 H   0  0  0  0  0  0  0  0  0  0  0  0
   -0.3044   -0.8933   -0.3055 C   0  0  1  0  0  0  0  0  0  0  0  0
    0.4925   -1.5861   -0.5964 H   0  0  0  0  0  0  0  0  0  0  0  0
   -0.4005    0.2519   -1.3394 C   0  0  0  0  0  0  0  0  0  0  0  0
   -1.2408    0.0720   -2.0165 H   0  0  0  0  0  0  0  0  0  0  0  0
   -0.6035    1.2006   -0.8313 H   0  0  0  0  0  0  0  0  0  0  0  0
    0.8445    0.3672   -2.1894 C   0  0  0  0  0  0  0  0  0  0  0  0
    1.2704   -0.7018   -2.9952 C   0  0  0  0  0  0  0  0  0  0  0  0
    0.6984   -1.6239   -3.0269 H   0  0  0  0  0  0  0  0  0  0  0  0
    2.4332   -0.5947   -3.7655 C   0  0  0  0  0  0  0  0  0  0  0  0
    2.7537   -1.4278   -4.3838 H   0  0  0  0  0  0  0  0  0  0  0  0
    3.1868    0.5818   -3.7334 C   0  0  0  0  0  0  0  0  0  0  0  0
    4.0929    0.6643   -4.3263 H   0  0  0  0  0  0  0  0  0  0  0  0
    2.7778    1.6485   -2.9280 C   0  0  0  0  0  0  0  0  0  0  0  0
    3.3683    2.5591   -2.8914 H   0  0  0  0  0  0  0  0  0  0  0  0
    1.6138    1.5403   -2.1593 C   0  0  0  0  0  0  0  0  0  0  0  0
    1.3186    2.3723   -1.5270 H   0  0  0  0  0  0  0  0  0  0  0  0
    0.1066   -0.3258    1.0715 C   0  0  0  0  0  0  0  0  0  0  0  0
    1.2897   -0.2241    1.3663 O   0  0  0  0  0  0  0  0  0  0  0  0
   -0.8379    0.2976    1.8683 N   0  0  0  0  0  0  0  0  0  0  0  0
   -1.8077    0.0986    1.6476 H   0  0  0  0  0  0  0  0  0  0  0  0
   -0.5190    0.8537    3.1772 C   0  0  0  0  0  0  0  0  0  0  0  0
    0.2620    1.6166    3.0906 H   0  0  0  0  0  0  0  0  0  0  0  0
   -1.4062    1.3189    3.6169 H   0  0  0  0  0  0  0  0  0  0  0  0
   -0.1676    0.0652    3.8511 H   0  0  0  0  0  0  0  0  0  0  0  0
  1  2  1  0  0  0  0
  2  3  1  0  0  0  0
  2  4  1  0  0  0  0
  2  5  1  0  0  0  0
  5  6  2  0  0  0  0
  5  7  1  0  0  0  0
  7  8  1  0  0  0  0
  7  9  1  0  0  0  0
  9 10  1  0  0  0  0
  9 11  1  0  0  0  0
  9 25  1  0  0  0  0
 11 12  1  0  0  0  0
 11 13  1  0  0  0  0
 11 14  1  0  0  0  0
 14 15  1  0  0  0  0
 14 23  2  0  0  0  0
 15 16  1  0  0  0  0
 15 17  2  0  0  0  0
 17 18  1  0  0  0  0
 17 19  1  0  0  0  0
 19 20  1  0  0  0  0
 19 21  2  0  0  0  0
 21 22  1  0  0  0  0
 21 23  1  0  0  0  0
 23 24  1  0  0  0  0
 25 26  2  0  0  0  0
 25 27  1  0  0  0  0
 27 28  1  0  0  0  0
 27 29  1  0  0  0  0
 29 30  1  0  0  0  0
 29 31  1  0  0  0  0
 29 32  1  0  0  0  0
M  END
$$$$

  -OEChem-03222214073D

 32 32  0     1  0  0  0  0  0999 V2000
   -3.0384   -4.4689    0.8858 H   0  0  0  0  0  0  0  0  0  0  0  0
   -3.0495   -3.5836    0.2435 C   0  0  0  0  0  0  0  0  0  0  0  0
   -3.9126   -2.9682    0.5079 H   0  0  0  0  0  0  0  0  0  0  0  0
   -3.1440   -3.9062   -0.7961 H   0  0  0  0  0  0  0  0  0  0  0  0
   -1.7698   -2.7894    0.4273 C   0  0  0  0  0  0  0  0  0  0  0  0
   -0.9388   -3.1604    1.2359 O   0  0  0  0  0  0  0  0  0  0  0  0
   -1.5634   -1.6439   -0.3168 N   0  0  0  0  0  0  0  0  0  0  0  0
   -2.2559   -1.4344   -1.0292 H   0  0  0  0  0  0  0  0  0  0  0  0
   -0.3058   -0.8694   -0.3169 C   0  0  1  0  0  0  0  0  0  0  0  0
    0.4954   -1.5504   -0.6261 H   0  0  0  0  0  0  0  0  0  0  0  0
   -0.4167    0.2812   -1.3400 C   0  0  0  0  0  0  0  0  0  0  0  0
   -1.2602    0.1055   -2.0146 H   0  0  0  0  0  0  0  0  0  0  0  0
   -0.6138    1.2299   -0.8293 H   0  0  0  0  0  0  0  0  0  0  0  0
    0.8328    0.3882   -2.1791 C   0  0  0  0  0  0  0  0  0  0  0  0
    1.0863   -0.5397   -3.2014 C   0  0  0  0  0  0  0  0  0  0  0  0
    0.3753   -1.3342   -3.4049 H   0  0  0  0  0  0  0  0  0  0  0  0
    2.2541   -0.4515   -3.9668 C   0  0  0  0  0  0  0  0  0  0  0  0
    2.4416   -1.1716   -4.7576 H   0  0  0  0  0  0  0  0  0  0  0  0
    3.1842    0.5598   -3.7087 C   0  0  0  0  0  0  0  0  0  0  0  0
    4.0937    0.6270   -4.2984 H   0  0  0  0  0  0  0  0  0  0  0  0
    2.9478    1.4781   -2.6814 C   0  0  0  0  0  0  0  0  0  0  0  0
    3.6758    2.2548   -2.4672 H   0  0  0  0  0  0  0  0  0  0  0  0
    1.7788    1.3899   -1.9184 C   0  0  0  0  0  0  0  0  0  0  0  0
    1.6169    2.0960   -1.1091 H   0  0  0  0  0  0  0  0  0  0  0  0
    0.1084   -0.3087    1.0622 C   0  0  0  0  0  0  0  0  0  0  0  0
    1.2920   -0.1884    1.3483 O   0  0  0  0  0  0  0  0  0  0  0  0
   -0.8392    0.2993    1.8673 N   0  0  0  0  0  0  0  0  0  0  0  0
   -1.8077    0.0898    1.6499 H   0  0  0  0  0  0  0  0  0  0  0  0
   -0.5214    0.8524    3.1777 C   0  0  0  0  0  0  0  0  0  0  0  0
    0.2483    1.6267    3.0919 H   0  0  0  0  0  0  0  0  0  0  0  0
   -1.4130    1.3026    3.6242 H   0  0  0  0  0  0  0  0  0  0  0  0
   -0.1561    0.0654    3.8459 H   0  0  0  0  0  0  0  0  0  0  0  0
  1  2  1  0  0  0  0
  2  3  1  0  0  0  0
  2  4  1  0  0  0  0
  2  5  1  0  0  0  0
  5  6  2  0  0  0  0
  5  7  1  0  0  0  0
  7  8  1  0  0  0  0
  7  9  1  0  0  0  0
  9 10  1  0  0  0  0
  9 11  1  0  0  0  0
  9 25  1  0  0  0  0
 11 12  1  0  0  0  0
 11 13  1  0  0  0  0
 11 14  1  0  0  0  0
 14 15  1  0  0  0  0
 14 23  2  0  0  0  0
 15 16  1  0  0  0  0
 15 17  2  0  0  0  0
 17 18  1  0  0  0  0
 17 19  1  0  0  0  0
 19 20  1  0  0  0  0
 19 21  2  0  0  0  0
 21 22  1  0  0  0  0
 21 23  1  0  0  0  0
 23 24  1  0  0  0  0
 25 26  2  0  0  0  0
 25 27  1  0  0  0  0
 27 28  1  0  0  0  0
 27 29  1  0  0  0  0
 29 30  1  0  0  0  0
 29 31  1  0  0  0  0
 29 32  1  0  0  0  0
M  END
$$$$

  -OEChem-03222214073D

 32 32  0     1  0  0  0  0  0999 V2000
   -3.0298   -4.4704    0.8730 H   0  0  0  0  0  0  0  0  0  0  0  0
   -3.0413   -3.5846    0.2312 C   0  0  0  0  0  0  0  0  0  0  0  0
   -3.9118   -2.9759    0.4873 H   0  0  0  0  0  0  0  0  0  0  0  0
   -3.1228   -3.9074   -0.8096 H   0  0  0  0  0  0  0  0  0  0  0  0
   -1.7693   -2.7812    0.4283 C   0  0  0  0  0  0  0  0  0  0  0  0
   -0.9443   -3.1464    1.2458 O   0  0  0  0  0  0  0  0  0  0  0  0
   -1.5641   -1.6343   -0.3141 N   0  0  0  0  0  0  0  0  0  0  0  0
   -2.2456   -1.4385   -1.0407 H   0  0  0  0  0  0  0  0  0  0  0  0
   -0.3058   -0.8612   -0.3135 C   0  0  1  0  0  0  0  0  0  0  0  0
    0.4943   -1.5414   -0.6287 H   0  0  0  0  0  0  0  0  0  0  0  0
   -0.4164    0.2916   -1.3335 C   0  0  0  0  0  0  0  0  0  0  0  0
   -1.2663    0.1251   -2.0023 H   0  0  0  0  0  0  0  0  0  0  0  0
   -0.6002    1.2418   -0.8205 H   0  0  0  0  0  0  0  0  0  0  0  0
    0.8350    0.3932   -2.1696 C   0  0  0  0  0  0  0  0  0  0  0  0
    0.9500   -0.3181   -3.3739 C   0  0  0  0  0  0  0  0  0  0  0  0
    0.1319   -0.9416   -3.7207 H   0  0  0  0  0  0  0  0  0  0  0  0
    2.1186   -0.2333   -4.1392 C   0  0  0  0  0  0  0  0  0  0  0  0
    2.1995   -0.7843   -5.0715 H   0  0  0  0  0  0  0  0  0  0  0  0
    3.1855    0.5569   -3.7010 C   0  0  0  0  0  0  0  0  0  0  0  0
    4.0951    0.6205   -4.2907 H   0  0  0  0  0  0  0  0  0  0  0  0
    3.0844    1.2570   -2.4951 C   0  0  0  0  0  0  0  0  0  0  0  0
    3.9161    1.8601   -2.1430 H   0  0  0  0  0  0  0  0  0  0  0  0
    1.9150    1.1731   -1.7325 C   0  0  0  0  0  0  0  0  0  0  0  0
    1.8552    1.7051   -0.7867 H   0  0  0  0  0  0  0  0  0  0  0  0
    0.1086   -0.3052    1.0676 C   0  0  0  0  0  0  0  0  0  0  0  0
    1.2925   -0.1846    1.3537 O   0  0  0  0  0  0  0  0  0  0  0  0
   -0.8383    0.3012    1.8746 N   0  0  0  0  0  0  0  0  0  0  0  0
   -1.8075    0.0973    1.6549 H   0  0  0  0  0  0  0  0  0  0  0  0
   -0.5197    0.8528    3.1856 C   0  0  0  0  0  0  0  0  0  0  0  0
    0.2430    1.6339    3.0989 H   0  0  0  0  0  0  0  0  0  0  0  0
   -1.4132    1.2937    3.6375 H   0  0  0  0  0  0  0  0  0  0  0  0
   -0.1445    0.0669    3.8496 H   0  0  0  0  0  0  0  0  0  0  0  0
  1  2  1  0  0  0  0
  2  3  1  0  0  0  0
  2  4  1  0  0  0  0
  2  5  1  0  0  0  0
  5  6  2  0  0  0  0
  5  7  1  0  0  0  0
  7  8  1  0  0  0  0
  7  9  1  0  0  0  0
  9 10  1  0  0  0  0
  9 11  1  0  0  0  0
  9 25  1  0  0  0  0
 11 12  1  0  0  0  0
 11 13  1  0  0  0  0
 11 14  1  0  0  0  0
 14 15  1  0  0  0  0
 14 23  2  0  0  0  0
 15 16  1  0  0  0  0
 15 17  2  0  0  0  0
 17 18  1  0  0  0  0
 17 19  1  0  0  0  0
 19 20  1  0  0  0  0
 19 21  2  0  0  0  0
 21 22  1  0  0  0  0
 21 23  1  0  0  0  0
 23 24  1  0  0  0  0
 25 26  2  0  0  0  0
 25 27  1  0  0  0  0
 27 28  1  0  0  0  0
 27 29  1  0  0  0  0
 29 30  1  0  0  0  0
 29 31  1  0  0  0  0
 29 32  1  0  0  0  0
M  END
$$$$

  -OEChem-03222214073D

 32 32  0     1  0  0  0  0  0999 V2000
   -3.0561   -4.4556    0.8621 H   0  0  0  0  0  0  0  0  0  0  0  0
   -3.0549   -3.5671    0.2241 C   0  0  0  0  0  0  0  0  0  0  0  0
   -3.9268   -2.9566    0.4702 H   0  0  0  0  0  0  0  0  0  0  0  0
   -3.1227   -3.8852   -0.8190 H   0  0  0  0  0  0  0  0  0  0  0  0
   -1.7828   -2.7694    0.4436 C   0  0  0  0  0  0  0  0  0  0  0  0
   -0.9780   -3.1343    1.2809 O   0  0  0  0  0  0  0  0  0  0  0  0
   -1.5562   -1.6278   -0.3011 N   0  0  0  0  0  0  0  0  0  0  0  0
   -2.2192   -1.4397   -1.0467 H   0  0  0  0  0  0  0  0  0  0  0  0
   -0.2888   -0.8683   -0.2919 C   0  0  1  0  0  0  0  0  0  0  0  0
    0.5092   -1.5547   -0.5986 H   0  0  0  0  0  0  0  0  0  0  0  0
   -0.3881    0.2794   -1.3217 C   0  0  0  0  0  0  0  0  0  0  0  0
   -1.2433    0.1172   -1.9849 H   0  0  0  0  0  0  0  0  0  0  0  0
   -0.5615    1.2333   -0.8122 H   0  0  0  0  0  0  0  0  0  0  0  0
    0.8631    0.3801   -2.1620 C   0  0  0  0  0  0  0  0  0  0  0  0
    0.8665   -0.0694   -3.4921 C   0  0  0  0  0  0  0  0  0  0  0  0
   -0.0296   -0.5002   -3.9274 H   0  0  0  0  0  0  0  0  0  0  0  0
    2.0239    0.0280   -4.2726 C   0  0  0  0  0  0  0  0  0  0  0  0
    2.0184   -0.3242   -5.2998 H   0  0  0  0  0  0  0  0  0  0  0  0
    3.1895    0.5765   -3.7300 C   0  0  0  0  0  0  0  0  0  0  0  0
    4.0896    0.6506   -4.3331 H   0  0  0  0  0  0  0  0  0  0  0  0
    3.1959    1.0272   -2.4071 C   0  0  0  0  0  0  0  0  0  0  0  0
    4.1002    1.4489   -1.9784 H   0  0  0  0  0  0  0  0  0  0  0  0
    2.0380    0.9311   -1.6286 C   0  0  0  0  0  0  0  0  0  0  0  0
    2.0613    1.2817   -0.6003 H   0  0  0  0  0  0  0  0  0  0  0  0
    0.1098   -0.3151    1.0960 C   0  0  0  0  0  0  0  0  0  0  0  0
    1.2889   -0.2271    1.4127 O   0  0  0  0  0  0  0  0  0  0  0  0
   -0.8427    0.3012    1.8883 N   0  0  0  0  0  0  0  0  0  0  0  0
   -1.8100    0.1096    1.6497 H   0  0  0  0  0  0  0  0  0  0  0  0
   -0.5421    0.8313    3.2124 C   0  0  0  0  0  0  0  0  0  0  0  0
    0.2323    1.6032    3.1503 H   0  0  0  0  0  0  0  0  0  0  0  0
   -1.4380    1.2781    3.6536 H   0  0  0  0  0  0  0  0  0  0  0  0
   -0.1903    0.0317    3.8729 H   0  0  0  0  0  0  0  0  0  0  0  0
  1  2  1  0  0  0  0
  2  3  1  0  0  0  0
  2  4  1  0  0  0  0
  2  5  1  0  0  0  0
  5  6  2  0  0  0  0
  5  7  1  0  0  0  0
  7  8  1  0  0  0  0
  7  9  1  0  0  0  0
  9 10  1  0  0  0  0
  9 11  1  0  0  0  0
  9 25  1  0  0  0  0
 11 12  1  0  0  0  0
 11 13  1  0  0  0  0
 11 14  1  0  0  0  0
 14 15  1  0  0  0  0
 14 23  2  0  0  0  0
 15 16  1  0  0  0  0
 15 17  2  0  0  0  0
 17 18  1  0  0  0  0
 17 19  1  0  0  0  0
 19 20  1  0  0  0  0
 19 21  2  0  0  0  0
 21 22  1  0  0  0  0
 21 23  1  0  0  0  0
 23 24  1  0  0  0  0
 25 26  2  0  0  0  0
 25 27  1  0  0  0  0
 27 28  1  0  0  0  0
 27 29  1  0  0  0  0
 29 30  1  0  0  0  0
 29 31  1  0  0  0  0
 29 32  1  0  0  0  0
M  END
$$$$

  -OEChem-03222214073D

 32 32  0     1  0  0  0  0  0999 V2000
   -3.1011   -4.4270    0.8701 H   0  0  0  0  0  0  0  0  0  0  0  0
   -3.0769   -3.5423    0.2274 C   0  0  0  0  0  0  0  0  0  0  0  0
   -3.9455   -2.9195    0.4540 H   0  0  0  0  0  0  0  0  0  0  0  0
   -3.1289   -3.8652   -0.8151 H   0  0  0  0  0  0  0  0  0  0  0  0
   -1.7991   -2.7592    0.4656 C   0  0  0  0  0  0  0  0  0  0  0  0
   -1.0162   -3.1284    1.3215 O   0  0  0  0  0  0  0  0  0  0  0  0
   -1.5425   -1.6284   -0.2863 N   0  0  0  0  0  0  0  0  0  0  0  0
   -2.1855   -1.4447   -1.0503 H   0  0  0  0  0  0  0  0  0  0  0  0
   -0.2630   -0.8884   -0.2649 C   0  0  1  0  0  0  0  0  0  0  0  0
    0.5318   -1.5847   -0.5566 H   0  0  0  0  0  0  0  0  0  0  0  0
   -0.3456    0.2528   -1.3077 C   0  0  0  0  0  0  0  0  0  0  0  0
   -1.2055    0.0926   -1.9652 H   0  0  0  0  0  0  0  0  0  0  0  0
   -0.5118    1.2104   -0.8028 H   0  0  0  0  0  0  0  0  0  0  0  0
    0.9016    0.3593   -2.1590 C   0  0  0  0  0  0  0  0  0  0  0  0
    0.8171    0.2072   -3.5532 C   0  0  0  0  0  0  0  0  0  0  0  0
   -0.1363   -0.0095   -4.0249 H   0  0  0  0  0  0  0  0  0  0  0  0
    1.9572    0.3260   -4.3558 C   0  0  0  0  0  0  0  0  0  0  0  0
    1.8807    0.1993   -5.4316 H   0  0  0  0  0  0  0  0  0  0  0  0
    3.1957    0.6085   -3.7741 C   0  0  0  0  0  0  0  0  0  0  0  0
    4.0824    0.6996   -4.3944 H   0  0  0  0  0  0  0  0  0  0  0  0
    3.2903    0.7777   -2.3906 C   0  0  0  0  0  0  0  0  0  0  0  0
    4.2491    1.0023   -1.9325 H   0  0  0  0  0  0  0  0  0  0  0  0
    2.1496    0.6605   -1.5900 C   0  0  0  0  0  0  0  0  0  0  0  0
    2.2488    0.8098   -0.5194 H   0  0  0  0  0  0  0  0  0  0  0  0
    0.1091   -0.3339    1.1311 C   0  0  0  0  0  0  0  0  0  0  0  0
    1.2758   -0.3019    1.4994 O   0  0  0  0  0  0  0  0  0  0  0  0
   -0.8527    0.2997    1.8983 N   0  0  0  0  0  0  0  0  0  0  0  0
   -1.8162    0.1425    1.6226 H   0  0  0  0  0  0  0  0  0  0  0  0
   -0.5833    0.8042    3.2389 C   0  0  0  0  0  0  0  0  0  0  0  0
    0.2118    1.5568    3.2128 H   0  0  0  0  0  0  0  0  0  0  0  0
   -1.4819    1.2681    3.6566 H   0  0  0  0  0  0  0  0  0  0  0  0
   -0.2742   -0.0128    3.8995 H   0  0  0  0  0  0  0  0  0  0  0  0
  1  2  1  0  0  0  0
  2  3  1  0  0  0  0
  2  4  1  0  0  0  0
  2  5  1  0  0  0  0
  5  6  2  0  0  0  0
  5  7  1  0  0  0  0
  7  8  1  0  0  0  0
  7  9  1  0  0  0  0
  9 10  1  0  0  0  0
  9 11  1  0  0  0  0
  9 25  1  0  0  0  0
 11 12  1  0  0  0  0
 11 13  1  0  0  0  0
 11 14  1  0  0  0  0
 14 15  1  0  0  0  0
 14 23  2  0  0  0  0
 15 16  1  0  0  0  0
 15 17  2  0  0  0  0
 17 18  1  0  0  0  0
 17 19  1  0  0  0  0
 19 20  1  0  0  0  0
 19 21  2  0  0  0  0
 21 22  1  0  0  0  0
 21 23  1  0  0  0  0
 23 24  1  0  0  0  0
 25 26  2  0  0  0  0
 25 27  1  0  0  0  0
 27 28  1  0  0  0  0
 27 29  1  0  0  0  0
 29 30  1  0  0  0  0
 29 31  1  0  0  0  0
 29 32  1  0  0  0  0
M  END
$$$$

  -OEChem-03222214073D

 32 32  0     1  0  0  0  0  0999 V2000
   -3.1440   -4.4039    0.8887 H   0  0  0  0  0  0  0  0  0  0  0  0
   -3.1066   -3.5156    0.2514 C   0  0  0  0  0  0  0  0  0  0  0  0
   -3.9580   -2.8743    0.4920 H   0  0  0  0  0  0  0  0  0  0  0  0
   -3.1784   -3.8308   -0.7924 H   0  0  0  0  0  0  0  0  0  0  0  0
   -1.8085   -2.7634    0.4797 C   0  0  0  0  0  0  0  0  0  0  0  0
   -1.0306   -3.1475    1.3336 O   0  0  0  0  0  0  0  0  0  0  0  0
   -1.5268   -1.6434   -0.2793 N   0  0  0  0  0  0  0  0  0  0  0  0
   -2.1680   -1.4448   -1.0408 H   0  0  0  0  0  0  0  0  0  0  0  0
   -0.2406   -0.9152   -0.2464 C   0  0  1  0  0  0  0  0  0  0  0  0
    0.5522   -1.6207   -0.5200 H   0  0  0  0  0  0  0  0  0  0  0  0
   -0.3035    0.2201   -1.2988 C   0  0  0  0  0  0  0  0  0  0  0  0
   -1.1604    0.0545   -1.9587 H   0  0  0  0  0  0  0  0  0  0  0  0
   -0.4733    1.1796   -0.7988 H   0  0  0  0  0  0  0  0  0  0  0  0
    0.9406    0.3399   -2.1580 C   0  0  0  0  0  0  0  0  0  0  0  0
    0.8049    0.5068   -3.5470 C   0  0  0  0  0  0  0  0  0  0  0  0
   -0.1800    0.5230   -4.0031 H   0  0  0  0  0  0  0  0  0  0  0  0
    1.9292    0.6511   -4.3670 C   0  0  0  0  0  0  0  0  0  0  0  0
    1.8086    0.7710   -5.4395 H   0  0  0  0  0  0  0  0  0  0  0  0
    3.2084    0.6452   -3.8063 C   0  0  0  0  0  0  0  0  0  0  0  0
    4.0833    0.7574   -4.4397 H   0  0  0  0  0  0  0  0  0  0  0  0
    3.3591    0.5016   -2.4252 C   0  0  0  0  0  0  0  0  0  0  0  0
    4.3504    0.5058   -1.9813 H   0  0  0  0  0  0  0  0  0  0  0  0
    2.2339    0.3571   -1.6073 C   0  0  0  0  0  0  0  0  0  0  0  0
    2.3880    0.2642   -0.5378 H   0  0  0  0  0  0  0  0  0  0  0  0
    0.1054   -0.3525    1.1539 C   0  0  0  0  0  0  0  0  0  0  0  0
    1.2600   -0.3443    1.5594 O   0  0  0  0  0  0  0  0  0  0  0  0
   -0.8683    0.2945    1.8946 N   0  0  0  0  0  0  0  0  0  0  0  0
   -1.8256    0.1524    1.5910 H   0  0  0  0  0  0  0  0  0  0  0  0
   -0.6293    0.7885    3.2448 C   0  0  0  0  0  0  0  0  0  0  0  0
    0.1839    1.5221    3.2467 H   0  0  0  0  0  0  0  0  0  0  0  0
   -1.5294    1.2717    3.6362 H   0  0  0  0  0  0  0  0  0  0  0  0
   -0.3597   -0.0382    3.9106 H   0  0  0  0  0  0  0  0  0  0  0  0
  1  2  1  0  0  0  0
  2  3  1  0  0  0  0
  2  4  1  0  0  0  0
  2  5  1  0  0  0  0
  5  6  2  0  0  0  0
  5  7  1  0  0  0  0
  7  8  1  0  0  0  0
  7  9  1  0  0  0  0
  9 10  1  0  0  0  0
  9 11  1  0  0  0  0
  9 25  1  0  0  0  0
 11 12  1  0  0  0  0
 11 13  1  0  0  0  0
 11 14  1  0  0  0  0
 14 15  1  0  0  0  0
 14 23  2  0  0  0  0
 15 16  1  0  0  0  0
 15 17  2  0  0  0  0
 17 18  1  0  0  0  0
 17 19  1  0  0  0  0
 19 20  1  0  0  0  0
 19 21  2  0  0  0  0
 21 22  1  0  0  0  0
 21 23  1  0  0  0  0
 23 24  1  0  0  0  0
 25 26  2  0  0  0  0
 25 27  1  0  0  0  0
 27 28  1  0  0  0  0
 27 29  1  0  0  0  0
 29 30  1  0  0  0  0
 29 31  1  0  0  0  0
 29 32  1  0  0  0  0
M  END
$$$$

  -OEChem-03222214073D

 32 32  0     1  0  0  0  0  0999 V2000
   -3.1843   -4.4073    0.8839 H   0  0  0  0  0  0  0  0  0  0  0  0
   -3.1330   -3.5261    0.2378 C   0  0  0  0  0  0  0  0  0  0  0  0
   -3.9884   -2.8816    0.4540 H   0  0  0  0  0  0  0  0  0  0  0  0
   -3.1838   -3.8521   -0.8038 H   0  0  0  0  0  0  0  0  0  0  0  0
   -1.8393   -2.7722    0.4851 C   0  0  0  0  0  0  0  0  0  0  0  0
   -1.0746   -3.1516    1.3532 O   0  0  0  0  0  0  0  0  0  0  0  0
   -1.5447   -1.6559   -0.2746 N   0  0  0  0  0  0  0  0  0  0  0  0
   -2.1713   -1.4635   -1.0500 H   0  0  0  0  0  0  0  0  0  0  0  0
   -0.2529   -0.9390   -0.2325 C   0  0  1  0  0  0  0  0  0  0  0  0
    0.5253   -1.6630   -0.4973 H   0  0  0  0  0  0  0  0  0  0  0  0
   -0.2880    0.1940   -1.2894 C   0  0  0  0  0  0  0  0  0  0  0  0
   -1.1367    0.0285   -1.9602 H   0  0  0  0  0  0  0  0  0  0  0  0
   -0.4628    1.1542   -0.7924 H   0  0  0  0  0  0  0  0  0  0  0  0
    0.9584    0.3202   -2.1476 C   0  0  0  0  0  0  0  0  0  0  0  0
    0.8263    0.8057   -3.4597 C   0  0  0  0  0  0  0  0  0  0  0  0
   -0.1541    1.0578   -3.8519 H   0  0  0  0  0  0  0  0  0  0  0  0
    1.9448    0.9706   -4.2836 C   0  0  0  0  0  0  0  0  0  0  0  0
    1.8235    1.3396   -5.2977 H   0  0  0  0  0  0  0  0  0  0  0  0
    3.2193    0.6664   -3.8007 C   0  0  0  0  0  0  0  0  0  0  0  0
    4.0902    0.7944   -4.4368 H   0  0  0  0  0  0  0  0  0  0  0  0
    3.3716    0.2057   -2.4912 C   0  0  0  0  0  0  0  0  0  0  0  0
    4.3611   -0.0199   -2.1043 H   0  0  0  0  0  0  0  0  0  0  0  0
    2.2522    0.0407   -1.6692 C   0  0  0  0  0  0  0  0  0  0  0  0
    2.4169   -0.3020   -0.6532 H   0  0  0  0  0  0  0  0  0  0  0  0
    0.1008   -0.3714    1.1635 C   0  0  0  0  0  0  0  0  0  0  0  0
    1.2604   -0.3557    1.5543 O   0  0  0  0  0  0  0  0  0  0  0  0
   -0.8643    0.2910    1.9018 N   0  0  0  0  0  0  0  0  0  0  0  0
   -1.8250    0.1514    1.6076 H   0  0  0  0  0  0  0  0  0  0  0  0
   -0.6112    0.8201    3.2363 C   0  0  0  0  0  0  0  0  0  0  0  0
    0.2013    1.5538    3.2110 H   0  0  0  0  0  0  0  0  0  0  0  0
   -1.5076    1.3132    3.6239 H   0  0  0  0  0  0  0  0  0  0  0  0
   -0.3344    0.0117    3.9213 H   0  0  0  0  0  0  0  0  0  0  0  0
  1  2  1  0  0  0  0
  2  3  1  0  0  0  0
  2  4  1  0  0  0  0
  2  5  1  0  0  0  0
  5  6  2  0  0  0  0
  5  7  1  0  0  0  0
  7  8  1  0  0  0  0
  7  9  1  0  0  0  0
  9 10  1  0  0  0  0
  9 11  1  0  0  0  0
  9 25  1  0  0  0  0
 11 12  1  0  0  0  0
 11 13  1  0  0  0  0
 11 14  1  0  0  0  0
 14 15  1  0  0  0  0
 14 23  2  0  0  0  0
 15 16  1  0  0  0  0
 15 17  2  0  0  0  0
 17 18  1  0  0  0  0
 17 19  1  0  0  0  0
 19 20  1  0  0  0  0
 19 21  2  0  0  0  0
 21 22  1  0  0  0  0
 21 23  1  0  0  0  0
 23 24  1  0  0  0  0
 25 26  2  0  0  0  0
 25 27  1  0  0  0  0
 27 28  1  0  0  0  0
 27 29  1  0  0  0  0
 29 30  1  0  0  0  0
 29 31  1  0  0  0  0
 29 32  1  0  0  0  0
M  END
$$$$

  -OEChem-03222214073D

 32 32  0     1  0  0  0  0  0999 V2000
   -3.2356   -4.4134    0.8803 H   0  0  0  0  0  0  0  0  0  0  0  0
   -3.1782   -3.5356    0.2301 C   0  0  0  0  0  0  0  0  0  0  0  0
   -4.0345   -2.8890    0.4363 H   0  0  0  0  0  0  0  0  0  0  0  0
   -3.2208   -3.8675   -0.8100 H   0  0  0  0  0  0  0  0  0  0  0  0
   -1.8851   -2.7830    0.4824 C   0  0  0  0  0  0  0  0  0  0  0  0
   -1.1241   -3.1640    1.3532 O   0  0  0  0  0  0  0  0  0  0  0  0
   -1.5842   -1.6670   -0.2749 N   0  0  0  0  0  0  0  0  0  0  0  0
   -2.2067   -1.4708   -1.0530 H   0  0  0  0  0  0  0  0  0  0  0  0
   -0.2872   -0.9612   -0.2279 C   0  0  1  0  0  0  0  0  0  0  0  0
    0.4658   -1.7124   -0.4829 H   0  0  0  0  0  0  0  0  0  0  0  0
   -0.2882    0.1586   -1.2993 C   0  0  0  0  0  0  0  0  0  0  0  0
   -1.1235   -0.0123   -1.9854 H   0  0  0  0  0  0  0  0  0  0  0  0
   -0.4701    1.1233   -0.8137 H   0  0  0  0  0  0  0  0  0  0  0  0
    0.9642    0.2828   -2.1512 C   0  0  0  0  0  0  0  0  0  0  0  0
    0.8867    1.0487   -3.3267 C   0  0  0  0  0  0  0  0  0  0  0  0
   -0.0578    1.4956   -3.6215 H   0  0  0  0  0  0  0  0  0  0  0  0
    2.0096    1.2449   -4.1377 C   0  0  0  0  0  0  0  0  0  0  0  0
    1.9273    1.8295   -5.0491 H   0  0  0  0  0  0  0  0  0  0  0  0
    3.2398    0.6957   -3.7713 C   0  0  0  0  0  0  0  0  0  0  0  0
    4.1146    0.8488   -4.3965 H   0  0  0  0  0  0  0  0  0  0  0  0
    3.3455   -0.0366   -2.5870 C   0  0  0  0  0  0  0  0  0  0  0  0
    4.3049   -0.4458   -2.2840 H   0  0  0  0  0  0  0  0  0  0  0  0
    2.2214   -0.2331   -1.7780 C   0  0  0  0  0  0  0  0  0  0  0  0
    2.3623   -0.7761   -0.8488 H   0  0  0  0  0  0  0  0  0  0  0  0
    0.0964   -0.3902    1.1563 C   0  0  0  0  0  0  0  0  0  0  0  0
    1.2684   -0.3706    1.5086 O   0  0  0  0  0  0  0  0  0  0  0  0
   -0.8452    0.2898    1.9085 N   0  0  0  0  0  0  0  0  0  0  0  0
   -1.8143    0.1565    1.6398 H   0  0  0  0  0  0  0  0  0  0  0  0
   -0.5524    0.8463    3.2235 C   0  0  0  0  0  0  0  0  0  0  0  0
    0.2644    1.5732    3.1594 H   0  0  0  0  0  0  0  0  0  0  0  0
   -1.4341    1.3553    3.6240 H   0  0  0  0  0  0  0  0  0  0  0  0
   -0.2631    0.0514    3.9192 H   0  0  0  0  0  0  0  0  0  0  0  0
  1  2  1  0  0  0  0
  2  3  1  0  0  0  0
  2  4  1  0  0  0  0
  2  5  1  0  0  0  0
  5  6  2  0  0  0  0
  5  7  1  0  0  0  0
  7  8  1  0  0  0  0
  7  9  1  0  0  0  0
  9 10  1  0  0  0  0
  9 11  1  0  0  0  0
  9 25  1  0  0  0  0
 11 12  1  0  0  0  0
 11 13  1  0  0  0  0
 11 14  1  0  0  0  0
 14 15  1  0  0  0  0
 14 23  2  0  0  0  0
 15 16  1  0  0  0  0
 15 17  2  0  0  0  0
 17 18  1  0  0  0  0
 17 19  1  0  0  0  0
 19 20  1  0  0  0  0
 19 21  2  0  0  0  0
 21 22  1  0  0  0  0
 21 23  1  0  0  0  0
 23 24  1  0  0  0  0
 25 26  2  0  0  0  0
 25 27  1  0  0  0  0
 27 28  1  0  0  0  0
 27 29  1  0  0  0  0
 29 30  1  0  0  0  0
 29 31  1  0  0  0  0
 29 32  1  0  0  0  0
M  END
$$$$

  -OEChem-03222214073D

 32 32  0     1  0  0  0  0  0999 V2000
   -3.2816   -4.3988    0.9382 H   0  0  0  0  0  0  0  0  0  0  0  0
   -3.2058   -3.5291    0.2790 C   0  0  0  0  0  0  0  0  0  0  0  0
   -4.0563   -2.8696    0.4675 H   0  0  0  0  0  0  0  0  0  0  0  0
   -3.2400   -3.8720   -0.7579 H   0  0  0  0  0  0  0  0  0  0  0  0
   -1.9070   -2.7890    0.5390 C   0  0  0  0  0  0  0  0  0  0  0  0
   -1.1734   -3.1532    1.4399 O   0  0  0  0  0  0  0  0  0  0  0  0
   -1.5699   -1.7030   -0.2460 N   0  0  0  0  0  0  0  0  0  0  0  0
   -2.1661   -1.5276   -1.0493 H   0  0  0  0  0  0  0  0  0  0  0  0
   -0.2643   -1.0138   -0.1909 C   0  0  1  0  0  0  0  0  0  0  0  0
    0.4940   -1.7734   -0.3734 H   0  0  0  0  0  0  0  0  0  0  0  0
   -0.2358    0.0932   -1.2815 C   0  0  0  0  0  0  0  0  0  0  0  0
   -1.2069    0.1185   -1.7854 H   0  0  0  0  0  0  0  0  0  0  0  0
   -0.1220    1.0643   -0.7867 H   0  0  0  0  0  0  0  0  0  0  0  0
    0.8289    0.0254   -2.3690 C   0  0  0  0  0  0  0  0  0  0  0  0
    0.8091    1.0503   -3.3309 C   0  0  0  0  0  0  0  0  0  0  0  0
    0.0538    1.8284   -3.2756 H   0  0  0  0  0  0  0  0  0  0  0  0
    1.7461    1.0954   -4.3678 C   0  0  0  0  0  0  0  0  0  0  0  0
    1.7098    1.8971   -5.0994 H   0  0  0  0  0  0  0  0  0  0  0  0
    2.7326    0.1130   -4.4584 C   0  0  0  0  0  0  0  0  0  0  0  0
    3.4655    0.1468   -5.2593 H   0  0  0  0  0  0  0  0  0  0  0  0
    2.7794   -0.9084   -3.5081 C   0  0  0  0  0  0  0  0  0  0  0  0
    3.5526   -1.6689   -3.5693 H   0  0  0  0  0  0  0  0  0  0  0  0
    1.8414   -0.9528   -2.4703 C   0  0  0  0  0  0  0  0  0  0  0  0
    1.9497   -1.7617   -1.7588 H   0  0  0  0  0  0  0  0  0  0  0  0
    0.0822   -0.4072    1.1872 C   0  0  0  0  0  0  0  0  0  0  0  0
    1.2476   -0.3668    1.5581 O   0  0  0  0  0  0  0  0  0  0  0  0
   -0.8743    0.3049    1.8895 N   0  0  0  0  0  0  0  0  0  0  0  0
   -1.8373    0.1595    1.6054 H   0  0  0  0  0  0  0  0  0  0  0  0
   -0.6113    0.9075    3.1902 C   0  0  0  0  0  0  0  0  0  0  0  0
    0.2147    1.6234    3.1224 H   0  0  0  0  0  0  0  0  0  0  0  0
   -1.4983    1.4399    3.5460 H   0  0  0  0  0  0  0  0  0  0  0  0
   -0.3506    0.1363    3.9227 H   0  0  0  0  0  0  0  0  0  0  0  0
  1  2  1  0  0  0  0
  2  3  1  0  0  0  0
  2  4  1  0  0  0  0
  2  5  1  0  0  0  0
  5  6  2  0  0  0  0
  5  7  1  0  0  0  0
  7  8  1  0  0  0  0
  7  9  1  0  0  0  0
  9 10  1  0  0  0  0
  9 11  1  0  0  0  0
  9 25  1  0  0  0  0
 11 12  1  0  0  0  0
 11 13  1  0  0  0  0
 11 14  1  0  0  0  0
 14 15  1  0  0  0  0
 14 23  2  0  0  0  0
 15 16  1  0  0  0  0
 15 17  2  0  0  0  0
 17 18  1  0  0  0  0
 17 19  1  0  0  0  0
 19 20  1  0  0  0  0
 19 21  2  0  0  0  0
 21 22  1  0  0  0  0
 21 23  1  0  0  0  0
 23 24  1  0  0  0  0
 25 26  2  0  0  0  0
 25 27  1  0  0  0  0
 27 28  1  0  0  0  0
 27 29  1  0  0  0  0
 29 30  1  0  0  0  0
 29 31  1  0  0  0  0
 29 32  1  0  0  0  0
M  END
$$$$

  -OEChem-03222214073D

 32 32  0     1  0  0  0  0  0999 V2000
   -3.2298   -4.4024    0.9556 H   0  0  0  0  0  0  0  0  0  0  0  0
   -3.1560   -3.5394    0.2876 C   0  0  0  0  0  0  0  0  0  0  0  0
   -4.0099   -2.8817    0.4667 H   0  0  0  0  0  0  0  0  0  0  0  0
   -3.1862   -3.8934   -0.7457 H   0  0  0  0  0  0  0  0  0  0  0  0
   -1.8613   -2.7907    0.5436 C   0  0  0  0  0  0  0  0  0  0  0  0
   -1.1216   -3.1516    1.4407 O   0  0  0  0  0  0  0  0  0  0  0  0
   -1.5332   -1.7035   -0.2437 N   0  0  0  0  0  0  0  0  0  0  0  0
   -2.1336   -1.5313   -1.0447 H   0  0  0  0  0  0  0  0  0  0  0  0
   -0.2365   -0.9976   -0.1875 C   0  0  1  0  0  0  0  0  0  0  0  0
    0.5528   -1.7292   -0.3615 H   0  0  0  0  0  0  0  0  0  0  0  0
   -0.2229    0.1212   -1.2654 C   0  0  0  0  0  0  0  0  0  0  0  0
   -1.1910    0.1436   -1.7749 H   0  0  0  0  0  0  0  0  0  0  0  0
   -0.1182    1.0894   -0.7629 H   0  0  0  0  0  0  0  0  0  0  0  0
    0.8485    0.0493   -2.3434 C   0  0  0  0  0  0  0  0  0  0  0  0
    1.0689    1.2068   -3.1095 C   0  0  0  0  0  0  0  0  0  0  0  0
    0.5193    2.1164   -2.8867 H   0  0  0  0  0  0  0  0  0  0  0  0
    1.9995    1.2212   -4.1534 C   0  0  0  0  0  0  0  0  0  0  0  0
    2.1662    2.1321   -4.7207 H   0  0  0  0  0  0  0  0  0  0  0  0
    2.7145    0.0641   -4.4659 C   0  0  0  0  0  0  0  0  0  0  0  0
    3.4400    0.0722   -5.2740 H   0  0  0  0  0  0  0  0  0  0  0  0
    2.4868   -1.1063   -3.7403 C   0  0  0  0  0  0  0  0  0  0  0  0
    3.0316   -2.0121   -3.9895 H   0  0  0  0  0  0  0  0  0  0  0  0
    1.5557   -1.1192   -2.6957 C   0  0  0  0  0  0  0  0  0  0  0  0
    1.4024   -2.0636   -2.1875 H   0  0  0  0  0  0  0  0  0  0  0  0
    0.0845   -0.3863    1.1954 C   0  0  0  0  0  0  0  0  0  0  0  0
    1.2443   -0.3226    1.5802 O   0  0  0  0  0  0  0  0  0  0  0  0
   -0.8921    0.3104    1.8854 N   0  0  0  0  0  0  0  0  0  0  0  0
   -1.8489    0.1492    1.5894 H   0  0  0  0  0  0  0  0  0  0  0  0
   -0.6558    0.9132    3.1910 C   0  0  0  0  0  0  0  0  0  0  0  0
    0.1538    1.6484    3.1339 H   0  0  0  0  0  0  0  0  0  0  0  0
   -1.5586    1.4228    3.5406 H   0  0  0  0  0  0  0  0  0  0  0  0
   -0.3833    0.1449    3.9224 H   0  0  0  0  0  0  0  0  0  0  0  0
  1  2  1  0  0  0  0
  2  3  1  0  0  0  0
  2  4  1  0  0  0  0
  2  5  1  0  0  0  0
  5  6  2  0  0  0  0
  5  7  1  0  0  0  0
  7  8  1  0  0  0  0
  7  9  1  0  0  0  0
  9 10  1  0  0  0  0
  9 11  1  0  0  0  0
  9 25  1  0  0  0  0
 11 12  1  0  0  0  0
 11 13  1  0  0  0  0
 11 14  1  0  0  0  0
 14 15  1  0  0  0  0
 14 23  2  0  0  0  0
 15 16  1  0  0  0  0
 15 17  2  0  0  0  0
 17 18  1  0  0  0  0
 17 19  1  0  0  0  0
 19 20  1  0  0  0  0
 19 21  2  0  0  0  0
 21 22  1  0  0  0  0
 21 23  1  0  0  0  0
 23 24  1  0  0  0  0
 25 26  2  0  0  0  0
 25 27  1  0  0  0  0
 27 28  1  0  0  0  0
 27 29  1  0  0  0  0
 29 30  1  0  0  0  0
 29 31  1  0  0  0  0
 29 32  1  0  0  0  0
M  END
$$$$

  -OEChem-03222214073D

 32 32  0     1  0  0  0  0  0999 V2000
   -3.1741   -4.4230    0.9329 H   0  0  0  0  0  0  0  0  0  0  0  0
   -3.1183   -3.5520    0.2734 C   0  0  0  0  0  0  0  0  0  0  0  0
   -3.9742   -2.9033    0.4748 H   0  0  0  0  0  0  0  0  0  0  0  0
   -3.1633   -3.8942   -0.7633 H   0  0  0  0  0  0  0  0  0  0  0  0
   -1.8250   -2.7961    0.5147 C   0  0  0  0  0  0  0  0  0  0  0  0
   -1.0615   -3.1675    1.3871 O   0  0  0  0  0  0  0  0  0  0  0  0
   -1.5246   -1.6918   -0.2595 N   0  0  0  0  0  0  0  0  0  0  0  0
   -2.1499   -1.5024   -1.0370 H   0  0  0  0  0  0  0  0  0  0  0  0
   -0.2395   -0.9646   -0.2114 C   0  0  1  0  0  0  0  0  0  0  0  0
    0.5661   -1.6752   -0.4153 H   0  0  0  0  0  0  0  0  0  0  0  0
   -0.2599    0.1656   -1.2745 C   0  0  0  0  0  0  0  0  0  0  0  0
   -1.2274    0.1783   -1.7850 H   0  0  0  0  0  0  0  0  0  0  0  0
   -0.1638    1.1332   -0.7696 H   0  0  0  0  0  0  0  0  0  0  0  0
    0.8178    0.0723   -2.3386 C   0  0  0  0  0  0  0  0  0  0  0  0
    1.3036    1.2583   -2.9132 C   0  0  0  0  0  0  0  0  0  0  0  0
    0.9541    2.2208   -2.5517 H   0  0  0  0  0  0  0  0  0  0  0  0
    2.2504    1.2254   -3.9424 C   0  0  0  0  0  0  0  0  0  0  0  0
    2.6290    2.1531   -4.3614 H   0  0  0  0  0  0  0  0  0  0  0  0
    2.7091    0.0000   -4.4307 C   0  0  0  0  0  0  0  0  0  0  0  0
    3.4473   -0.0272   -5.2267 H   0  0  0  0  0  0  0  0  0  0  0  0
    2.2087   -1.1901   -3.8975 C   0  0  0  0  0  0  0  0  0  0  0  0
    2.5533   -2.1443   -4.2851 H   0  0  0  0  0  0  0  0  0  0  0  0
    1.2609   -1.1549   -2.8690 C   0  0  0  0  0  0  0  0  0  0  0  0
    0.8732   -2.0986   -2.4997 H   0  0  0  0  0  0  0  0  0  0  0  0
    0.0916   -0.3681    1.1756 C   0  0  0  0  0  0  0  0  0  0  0  0
    1.2556   -0.2842    1.5436 O   0  0  0  0  0  0  0  0  0  0  0  0
   -0.8873    0.3011    1.8892 N   0  0  0  0  0  0  0  0  0  0  0  0
   -1.8452    0.1217    1.6073 H   0  0  0  0  0  0  0  0  0  0  0  0
   -0.6419    0.8934    3.1982 C   0  0  0  0  0  0  0  0  0  0  0  0
    0.1522    1.6450    3.1370 H   0  0  0  0  0  0  0  0  0  0  0  0
   -1.5483    1.3810    3.5690 H   0  0  0  0  0  0  0  0  0  0  0  0
   -0.3422    0.1225    3.9159 H   0  0  0  0  0  0  0  0  0  0  0  0
  1  2  1  0  0  0  0
  2  3  1  0  0  0  0
  2  4  1  0  0  0  0
  2  5  1  0  0  0  0
  5  6  2  0  0  0  0
  5  7  1  0  0  0  0
  7  8  1  0  0  0  0
  7  9  1  0  0  0  0
  9 10  1  0  0  0  0
  9 11  1  0  0  0  0
  9 25  1  0  0  0  0
 11 12  1  0  0  0  0
 11 13  1  0  0  0  0
 11 14  1  0  0  0  0
 14 15  1  0  0  0  0
 14 23  2  0  0  0  0
 15 16  1  0  0  0  0
 15 17  2  0  0  0  0
 17 18  1  0  0  0  0
 17 19  1  0  0  0  0
 19 20  1  0  0  0  0
 19 21  2  0  0  0  0
 21 22  1  0  0  0  0
 21 23  1  0  0  0  0
 23 24  1  0  0  0  0
 25 26  2  0  0  0  0
 25 27  1  0  0  0  0
 27 28  1  0  0  0  0
 27 29  1  0  0  0  0
 29 30  1  0  0  0  0
 29 31  1  0  0  0  0
 29 32  1  0  0  0  0
M  END
$$$$

  -OEChem-03222214073D

 32 32  0     1  0  0  0  0  0999 V2000
   -3.1315   -4.4391    0.9096 H   0  0  0  0  0  0  0  0  0  0  0  0
   -3.0993   -3.5582    0.2622 C   0  0  0  0  0  0  0  0  0  0  0  0
   -3.9534   -2.9183    0.4964 H   0  0  0  0  0  0  0  0  0  0  0  0
   -3.1706   -3.8849   -0.7781 H   0  0  0  0  0  0  0  0  0  0  0  0
   -1.8049   -2.7975    0.4819 C   0  0  0  0  0  0  0  0  0  0  0  0
   -1.0179   -3.1741    1.3310 O   0  0  0  0  0  0  0  0  0  0  0  0
   -1.5331   -1.6781   -0.2806 N   0  0  0  0  0  0  0  0  0  0  0  0
   -2.1826   -1.4749   -1.0344 H   0  0  0  0  0  0  0  0  0  0  0  0
   -0.2563   -0.9360   -0.2436 C   0  0  1  0  0  0  0  0  0  0  0  0
    0.5517   -1.6345   -0.4846 H   0  0  0  0  0  0  0  0  0  0  0  0
   -0.3038    0.2034   -1.2918 C   0  0  0  0  0  0  0  0  0  0  0  0
   -1.2724    0.2091   -1.8007 H   0  0  0  0  0  0  0  0  0  0  0  0
   -0.2127    1.1705   -0.7854 H   0  0  0  0  0  0  0  0  0  0  0  0
    0.7764    0.0911   -2.3464 C   0  0  0  0  0  0  0  0  0  0  0  0
    1.5109    1.2282   -2.7177 C   0  0  0  0  0  0  0  0  0  0  0  0
    1.3410    2.1763   -2.2160 H   0  0  0  0  0  0  0  0  0  0  0  0
    2.4789    1.1562   -3.7251 C   0  0  0  0  0  0  0  0  0  0  0  0
    3.0502    2.0404   -3.9916 H   0  0  0  0  0  0  0  0  0  0  0  0
    2.7126   -0.0525   -4.3863 C   0  0  0  0  0  0  0  0  0  0  0  0
    3.4670   -0.1096   -5.1655 H   0  0  0  0  0  0  0  0  0  0  0  0
    1.9712   -1.1864   -4.0442 C   0  0  0  0  0  0  0  0  0  0  0  0
    2.1465   -2.1254   -4.5610 H   0  0  0  0  0  0  0  0  0  0  0  0
    1.0027   -1.1125   -3.0372 C   0  0  0  0  0  0  0  0  0  0  0  0
    0.4278   -2.0013   -2.7957 H   0  0  0  0  0  0  0  0  0  0  0  0
    0.0957   -0.3554    1.1449 C   0  0  0  0  0  0  0  0  0  0  0  0
    1.2656   -0.2612    1.4908 O   0  0  0  0  0  0  0  0  0  0  0  0
   -0.8768    0.2922    1.8869 N   0  0  0  0  0  0  0  0  0  0  0  0
   -1.8381    0.1061    1.6216 H   0  0  0  0  0  0  0  0  0  0  0  0
   -0.6123    0.8676    3.1998 C   0  0  0  0  0  0  0  0  0  0  0  0
    0.1752    1.6259    3.1356 H   0  0  0  0  0  0  0  0  0  0  0  0
   -1.5158    1.3430    3.5932 H   0  0  0  0  0  0  0  0  0  0  0  0
   -0.2944    0.0887    3.9010 H   0  0  0  0  0  0  0  0  0  0  0  0
  1  2  1  0  0  0  0
  2  3  1  0  0  0  0
  2  4  1  0  0  0  0
  2  5  1  0  0  0  0
  5  6  2  0  0  0  0
  5  7  1  0  0  0  0
  7  8  1  0  0  0  0
  7  9  1  0  0  0  0
  9 10  1  0  0  0  0
  9 11  1  0  0  0  0
  9 25  1  0  0  0  0
 11 12  1  0  0  0  0
 11 13  1  0  0  0  0
 11 14  1  0  0  0  0
 14 15  1  0  0  0  0
 14 23  2  0  0  0  0
 15 16  1  0  0  0  0
 15 17  2  0  0  0  0
 17 18  1  0  0  0  0
 17 19  1  0  0  0  0
 19 20  1  0  0  0  0
 19 21  2  0  0  0  0
 21 22  1  0  0  0  0
 21 23  1  0  0  0  0
 23 24  1  0  0  0  0
 25 26  2  0  0  0  0
 25 27  1  0  0  0  0
 27 28  1  0  0  0  0
 27 29  1  0  0  0  0
 29 30  1  0  0  0  0
 29 31  1  0  0  0  0
 29 32  1  0  0  0  0
M  END
$$$$

  -OEChem-03222214073D

 32 32  0     1  0  0  0  0  0999 V2000
   -3.1006   -4.4616    0.8774 H   0  0  0  0  0  0  0  0  0  0  0  0
   -3.0873   -3.5730    0.2396 C   0  0  0  0  0  0  0  0  0  0  0  0
   -3.9472   -2.9474    0.4901 H   0  0  0  0  0  0  0  0  0  0  0  0
   -3.1654   -3.8897   -0.8032 H   0  0  0  0  0  0  0  0  0  0  0  0
   -1.8010   -2.7967    0.4527 C   0  0  0  0  0  0  0  0  0  0  0  0
   -0.9982   -3.1739    1.2865 O   0  0  0  0  0  0  0  0  0  0  0  0
   -1.5547   -1.6626   -0.2970 N   0  0  0  0  0  0  0  0  0  0  0  0
   -2.2208   -1.4531   -1.0343 H   0  0  0  0  0  0  0  0  0  0  0  0
   -0.2834   -0.9101   -0.2719 C   0  0  1  0  0  0  0  0  0  0  0  0
    0.5212   -1.6030   -0.5432 H   0  0  0  0  0  0  0  0  0  0  0  0
   -0.3462    0.2391   -1.3056 C   0  0  0  0  0  0  0  0  0  0  0  0
   -1.3160    0.2449   -1.8122 H   0  0  0  0  0  0  0  0  0  0  0  0
   -0.2536    1.2057   -0.7980 H   0  0  0  0  0  0  0  0  0  0  0  0
    0.7353    0.1103   -2.3528 C   0  0  0  0  0  0  0  0  0  0  0  0
    1.6910    1.1242   -2.5166 C   0  0  0  0  0  0  0  0  0  0  0  0
    1.6799    1.9963   -1.8694 H   0  0  0  0  0  0  0  0  0  0  0  0
    2.6789    1.0176   -3.5016 C   0  0  0  0  0  0  0  0  0  0  0  0
    3.4211    1.8029   -3.6111 H   0  0  0  0  0  0  0  0  0  0  0  0
    2.7147   -0.1007   -4.3395 C   0  0  0  0  0  0  0  0  0  0  0  0
    3.4845   -0.1847   -5.1010 H   0  0  0  0  0  0  0  0  0  0  0  0
    1.7600   -1.1111   -4.1928 C   0  0  0  0  0  0  0  0  0  0  0  0
    1.7868   -1.9809   -4.8424 H   0  0  0  0  0  0  0  0  0  0  0  0
    0.7732   -1.0034   -3.2072 C   0  0  0  0  0  0  0  0  0  0  0  0
    0.0373   -1.7945   -3.1039 H   0  0  0  0  0  0  0  0  0  0  0  0
    0.0968   -0.3463    1.1154 C   0  0  0  0  0  0  0  0  0  0  0  0
    1.2747   -0.2336    1.4275 O   0  0  0  0  0  0  0  0  0  0  0  0
   -0.8628    0.2836    1.8887 N   0  0  0  0  0  0  0  0  0  0  0  0
   -1.8289    0.0871    1.6493 H   0  0  0  0  0  0  0  0  0  0  0  0
   -0.5680    0.8590    3.1948 C   0  0  0  0  0  0  0  0  0  0  0  0
    0.2134    1.6216    3.1104 H   0  0  0  0  0  0  0  0  0  0  0  0
   -1.4633    1.3294    3.6120 H   0  0  0  0  0  0  0  0  0  0  0  0
   -0.2279    0.0812    3.8866 H   0  0  0  0  0  0  0  0  0  0  0  0
  1  2  1  0  0  0  0
  2  3  1  0  0  0  0
  2  4  1  0  0  0  0
  2  5  1  0  0  0  0
  5  6  2  0  0  0  0
  5  7  1  0  0  0  0
  7  8  1  0  0  0  0
  7  9  1  0  0  0  0
  9 10  1  0  0  0  0
  9 11  1  0  0  0  0
  9 25  1  0  0  0  0
 11 12  1  0  0  0  0
 11 13  1  0  0  0  0
 11 14  1  0  0  0  0
 14 15  1  0  0  0  0
 14 23  2  0  0  0  0
 15 16  1  0  0  0  0
 15 17  2  0  0  0  0
 17 18  1  0  0  0  0
 17 19  1  0  0  0  0
 19 20  1  0  0  0  0
 19 21  2  0  0  0  0
 21 22  1  0  0  0  0
 21 23  1  0  0  0  0
 23 24  1  0  0  0  0
 25 26  2  0  0  0  0
 25 27  1  0  0  0  0
 27 28  1  0  0  0  0
 27 29  1  0  0  0  0
 29 30  1  0  0  0  0
 29 31  1  0  0  0  0
 29 32  1  0  0  0  0
M  END
$$$$

  -OEChem-03222214073D

 32 32  0     1  0  0  0  0  0999 V2000
   -3.0944   -4.4634    0.8650 H   0  0  0  0  0  0  0  0  0  0  0  0
   -3.0848   -3.5756    0.2258 C   0  0  0  0  0  0  0  0  0  0  0  0
   -3.9491   -2.9546    0.4735 H   0  0  0  0  0  0  0  0  0  0  0  0
   -3.1583   -3.8940   -0.8169 H   0  0  0  0  0  0  0  0  0  0  0  0
   -1.8037   -2.7914    0.4405 C   0  0  0  0  0  0  0  0  0  0  0  0
   -0.9981   -3.1651    1.2733 O   0  0  0  0  0  0  0  0  0  0  0  0
   -1.5681   -1.6515   -0.3039 N   0  0  0  0  0  0  0  0  0  0  0  0
   -2.2371   -1.4460   -1.0395 H   0  0  0  0  0  0  0  0  0  0  0  0
   -0.2980   -0.8972   -0.2881 C   0  0  1  0  0  0  0  0  0  0  0  0
    0.5019   -1.5890   -0.5782 H   0  0  0  0  0  0  0  0  0  0  0  0
   -0.3713    0.2568   -1.3132 C   0  0  0  0  0  0  0  0  0  0  0  0
   -1.3458    0.2679   -1.8106 H   0  0  0  0  0  0  0  0  0  0  0  0
   -0.2689    1.2231   -0.8075 H   0  0  0  0  0  0  0  0  0  0  0  0
    0.7063    0.1170   -2.3600 C   0  0  0  0  0  0  0  0  0  0  0  0
    1.8369    0.9461   -2.3283 C   0  0  0  0  0  0  0  0  0  0  0  0
    1.9520    1.6814   -1.5368 H   0  0  0  0  0  0  0  0  0  0  0  0
    2.8353    0.8222   -3.3001 C   0  0  0  0  0  0  0  0  0  0  0  0
    3.7110    1.4632   -3.2603 H   0  0  0  0  0  0  0  0  0  0  0  0
    2.7097   -0.1311   -4.3151 C   0  0  0  0  0  0  0  0  0  0  0  0
    3.4876   -0.2298   -5.0667 H   0  0  0  0  0  0  0  0  0  0  0  0
    1.5845   -0.9602   -4.3567 C   0  0  0  0  0  0  0  0  0  0  0  0
    1.4879   -1.7035   -5.1425 H   0  0  0  0  0  0  0  0  0  0  0  0
    0.5870   -0.8356   -3.3834 C   0  0  0  0  0  0  0  0  0  0  0  0
   -0.2800   -1.4871   -3.4229 H   0  0  0  0  0  0  0  0  0  0  0  0
    0.1027   -0.3405    1.0961 C   0  0  0  0  0  0  0  0  0  0  0  0
    1.2855   -0.2197    1.3861 O   0  0  0  0  0  0  0  0  0  0  0  0
   -0.8464    0.2840    1.8861 N   0  0  0  0  0  0  0  0  0  0  0  0
   -1.8149    0.0809    1.6627 H   0  0  0  0  0  0  0  0  0  0  0  0
   -0.5346    0.8543    3.1905 C   0  0  0  0  0  0  0  0  0  0  0  0
    0.2404    1.6227    3.0988 H   0  0  0  0  0  0  0  0  0  0  0  0
   -1.4268    1.3164    3.6236 H   0  0  0  0  0  0  0  0  0  0  0  0
   -0.1792    0.0748    3.8728 H   0  0  0  0  0  0  0  0  0  0  0  0
  1  2  1  0  0  0  0
  2  3  1  0  0  0  0
  2  4  1  0  0  0  0
  2  5  1  0  0  0  0
  5  6  2  0  0  0  0
  5  7  1  0  0  0  0
  7  8  1  0  0  0  0
  7  9  1  0  0  0  0
  9 10  1  0  0  0  0
  9 11  1  0  0  0  0
  9 25  1  0  0  0  0
 11 12  1  0  0  0  0
 11 13  1  0  0  0  0
 11 14  1  0  0  0  0
 14 15  1  0  0  0  0
 14 23  2  0  0  0  0
 15 16  1  0  0  0  0
 15 17  2  0  0  0  0
 17 18  1  0  0  0  0
 17 19  1  0  0  0  0
 19 20  1  0  0  0  0
 19 21  2  0  0  0  0
 21 22  1  0  0  0  0
 21 23  1  0  0  0  0
 23 24  1  0  0  0  0
 25 26  2  0  0  0  0
 25 27  1  0  0  0  0
 27 28  1  0  0  0  0
 27 29  1  0  0  0  0
 29 30  1  0  0  0  0
 29 31  1  0  0  0  0
 29 32  1  0  0  0  0
M  END
$$$$

  -OEChem-03222214073D

 32 32  0     1  0  0  0  0  0999 V2000
   -3.0899   -4.4674    0.8548 H   0  0  0  0  0  0  0  0  0  0  0  0
   -3.0823   -3.5827    0.2116 C   0  0  0  0  0  0  0  0  0  0  0  0
   -3.9569   -2.9706    0.4447 H   0  0  0  0  0  0  0  0  0  0  0  0
   -3.1384   -3.9067   -0.8304 H   0  0  0  0  0  0  0  0  0  0  0  0
   -1.8131   -2.7832    0.4394 C   0  0  0  0  0  0  0  0  0  0  0  0
   -1.0135   -3.1454    1.2831 O   0  0  0  0  0  0  0  0  0  0  0  0
   -1.5834   -1.6412   -0.3033 N   0  0  0  0  0  0  0  0  0  0  0  0
   -2.2374   -1.4575   -1.0578 H   0  0  0  0  0  0  0  0  0  0  0  0
   -0.3113   -0.8909   -0.2941 C   0  0  1  0  0  0  0  0  0  0  0  0
    0.4823   -1.5855   -0.5943 H   0  0  0  0  0  0  0  0  0  0  0  0
   -0.3867    0.2657   -1.3150 C   0  0  0  0  0  0  0  0  0  0  0  0
   -1.3661    0.2872   -1.8025 H   0  0  0  0  0  0  0  0  0  0  0  0
   -0.2682    1.2314   -0.8109 H   0  0  0  0  0  0  0  0  0  0  0  0
    0.6865    0.1166   -2.3634 C   0  0  0  0  0  0  0  0  0  0  0  0
    1.9460    0.7001   -2.1662 C   0  0  0  0  0  0  0  0  0  0  0  0
    2.1545    1.2469   -1.2500 H   0  0  0  0  0  0  0  0  0  0  0  0
    2.9478    0.5684   -3.1333 C   0  0  0  0  0  0  0  0  0  0  0  0
    3.9218    1.0194   -2.9672 H   0  0  0  0  0  0  0  0  0  0  0  0
    2.6968   -0.1489   -4.3069 C   0  0  0  0  0  0  0  0  0  0  0  0
    3.4760   -0.2526   -5.0562 H   0  0  0  0  0  0  0  0  0  0  0  0
    1.4446   -0.7369   -4.5106 C   0  0  0  0  0  0  0  0  0  0  0  0
    1.2515   -1.2979   -5.4201 H   0  0  0  0  0  0  0  0  0  0  0  0
    0.4435   -0.6053   -3.5417 C   0  0  0  0  0  0  0  0  0  0  0  0
   -0.5235   -1.0687   -3.7091 H   0  0  0  0  0  0  0  0  0  0  0  0
    0.1059   -0.3395    1.0874 C   0  0  0  0  0  0  0  0  0  0  0  0
    1.2928   -0.2113    1.3582 O   0  0  0  0  0  0  0  0  0  0  0  0
   -0.8329    0.2859    1.8889 N   0  0  0  0  0  0  0  0  0  0  0  0
   -1.8038    0.0775    1.6809 H   0  0  0  0  0  0  0  0  0  0  0  0
   -0.5038    0.8604    3.1874 C   0  0  0  0  0  0  0  0  0  0  0  0
    0.2604    1.6375    3.0807 H   0  0  0  0  0  0  0  0  0  0  0  0
   -1.3926    1.3128    3.6372 H   0  0  0  0  0  0  0  0  0  0  0  0
   -0.1270    0.0858    3.8636 H   0  0  0  0  0  0  0  0  0  0  0  0
  1  2  1  0  0  0  0
  2  3  1  0  0  0  0
  2  4  1  0  0  0  0
  2  5  1  0  0  0  0
  5  6  2  0  0  0  0
  5  7  1  0  0  0  0
  7  8  1  0  0  0  0
  7  9  1  0  0  0  0
  9 10  1  0  0  0  0
  9 11  1  0  0  0  0
  9 25  1  0  0  0  0
 11 12  1  0  0  0  0
 11 13  1  0  0  0  0
 11 14  1  0  0  0  0
 14 15  1  0  0  0  0
 14 23  2  0  0  0  0
 15 16  1  0  0  0  0
 15 17  2  0  0  0  0
 17 18  1  0  0  0  0
 17 19  1  0  0  0  0
 19 20  1  0  0  0  0
 19 21  2  0  0  0  0
 21 22  1  0  0  0  0
 21 23  1  0  0  0  0
 23 24  1  0  0  0  0
 25 26  2  0  0  0  0
 25 27  1  0  0  0  0
 27 28  1  0  0  0  0
 27 29  1  0  0  0  0
 29 30  1  0  0  0  0
 29 31  1  0  0  0  0
 29 32  1  0  0  0  0
M  END
$$$$

  -OEChem-03222214073D

 32 32  0     1  0  0  0  0  0999 V2000
   -3.0902   -4.4698    0.8499 H   0  0  0  0  0  0  0  0  0  0  0  0
   -3.0818   -3.5849    0.2070 C   0  0  0  0  0  0  0  0  0  0  0  0
   -3.9613   -2.9774    0.4331 H   0  0  0  0  0  0  0  0  0  0  0  0
   -3.1281   -3.9090   -0.8355 H   0  0  0  0  0  0  0  0  0  0  0  0
   -1.8181   -2.7793    0.4447 C   0  0  0  0  0  0  0  0  0  0  0  0
   -1.0227   -3.1385    1.2936 O   0  0  0  0  0  0  0  0  0  0  0  0
   -1.5870   -1.6381   -0.2987 N   0  0  0  0  0  0  0  0  0  0  0  0
   -2.2335   -1.4636   -1.0619 H   0  0  0  0  0  0  0  0  0  0  0  0
   -0.3126   -0.8916   -0.2921 C   0  0  1  0  0  0  0  0  0  0  0  0
    0.4775   -1.5890   -0.5949 H   0  0  0  0  0  0  0  0  0  0  0  0
   -0.3909    0.2652   -1.3142 C   0  0  0  0  0  0  0  0  0  0  0  0
   -1.3763    0.2926   -1.7892 H   0  0  0  0  0  0  0  0  0  0  0  0
   -0.2605    1.2300   -0.8113 H   0  0  0  0  0  0  0  0  0  0  0  0
    0.6761    0.1202   -2.3704 C   0  0  0  0  0  0  0  0  0  0  0  0
    2.0112    0.4213   -2.0637 C   0  0  0  0  0  0  0  0  0  0  0  0
    2.2783    0.7539   -1.0633 H   0  0  0  0  0  0  0  0  0  0  0  0
    3.0103    0.2840   -3.0325 C   0  0  0  0  0  0  0  0  0  0  0  0
    4.0412    0.5163   -2.7813 H   0  0  0  0  0  0  0  0  0  0  0  0
    2.6818   -0.1560   -4.3183 C   0  0  0  0  0  0  0  0  0  0  0  0
    3.4585   -0.2633   -5.0697 H   0  0  0  0  0  0  0  0  0  0  0  0
    1.3538   -0.4608   -4.6327 C   0  0  0  0  0  0  0  0  0  0  0  0
    1.0994   -0.8053   -5.6307 H   0  0  0  0  0  0  0  0  0  0  0  0
    0.3550   -0.3243   -3.6620 C   0  0  0  0  0  0  0  0  0  0  0  0
   -0.6713   -0.5668   -3.9188 H   0  0  0  0  0  0  0  0  0  0  0  0
    0.1090   -0.3412    1.0886 C   0  0  0  0  0  0  0  0  0  0  0  0
    1.2972   -0.2248    1.3604 O   0  0  0  0  0  0  0  0  0  0  0  0
   -0.8253    0.2874    1.8924 N   0  0  0  0  0  0  0  0  0  0  0  0
   -1.7980    0.0906    1.6816 H   0  0  0  0  0  0  0  0  0  0  0  0
   -0.4918    0.8586    3.1910 C   0  0  0  0  0  0  0  0  0  0  0  0
    0.2772    1.6310    3.0843 H   0  0  0  0  0  0  0  0  0  0  0  0
   -1.3774    1.3160    3.6421 H   0  0  0  0  0  0  0  0  0  0  0  0
   -0.1190    0.0811    3.8662 H   0  0  0  0  0  0  0  0  0  0  0  0
  1  2  1  0  0  0  0
  2  3  1  0  0  0  0
  2  4  1  0  0  0  0
  2  5  1  0  0  0  0
  5  6  2  0  0  0  0
  5  7  1  0  0  0  0
  7  8  1  0  0  0  0
  7  9  1  0  0  0  0
  9 10  1  0  0  0  0
  9 11  1  0  0  0  0
  9 25  1  0  0  0  0
 11 12  1  0  0  0  0
 11 13  1  0  0  0  0
 11 14  1  0  0  0  0
 14 15  1  0  0  0  0
 14 23  2  0  0  0  0
 15 16  1  0  0  0  0
 15 17  2  0  0  0  0
 17 18  1  0  0  0  0
 17 19  1  0  0  0  0
 19 20  1  0  0  0  0
 19 21  2  0  0  0  0
 21 22  1  0  0  0  0
 21 23  1  0  0  0  0
 23 24  1  0  0  0  0
 25 26  2  0  0  0  0
 25 27  1  0  0  0  0
 27 28  1  0  0  0  0
 27 29  1  0  0  0  0
 29 30  1  0  0  0  0
 29 31  1  0  0  0  0
 29 32  1  0  0  0  0
M  END
$$$$

  -OEChem-03222214073D

 32 32  0     1  0  0  0  0  0999 V2000
   -3.1016   -4.4673    0.8529 H   0  0  0  0  0  0  0  0  0  0  0  0
   -3.0865   -3.5828    0.2096 C   0  0  0  0  0  0  0  0  0  0  0  0
   -3.9685   -2.9756    0.4261 H   0  0  0  0  0  0  0  0  0  0  0  0
   -3.1218   -3.9073   -0.8331 H   0  0  0  0  0  0  0  0  0  0  0  0
   -1.8258   -2.7762    0.4600 C   0  0  0  0  0  0  0  0  0  0  0  0
   -1.0414   -3.1314    1.3210 O   0  0  0  0  0  0  0  0  0  0  0  0
   -1.5831   -1.6408   -0.2890 N   0  0  0  0  0  0  0  0  0  0  0  0
   -2.2169   -1.4759   -1.0649 H   0  0  0  0  0  0  0  0  0  0  0  0
   -0.3041   -0.9020   -0.2779 C   0  0  1  0  0  0  0  0  0  0  0  0
    0.4815   -1.6073   -0.5723 H   0  0  0  0  0  0  0  0  0  0  0  0
   -0.3758    0.2505   -1.3087 C   0  0  0  0  0  0  0  0  0  0  0  0
   -1.3646    0.2802   -1.7760 H   0  0  0  0  0  0  0  0  0  0  0  0
   -0.2397    1.2147   -0.8066 H   0  0  0  0  0  0  0  0  0  0  0  0
    0.6868    0.1202   -2.3758 C   0  0  0  0  0  0  0  0  0  0  0  0
    2.0480    0.1191   -2.0315 C   0  0  0  0  0  0  0  0  0  0  0  0
    2.3504    0.2216   -0.9921 H   0  0  0  0  0  0  0  0  0  0  0  0
    3.0316   -0.0135   -3.0166 C   0  0  0  0  0  0  0  0  0  0  0  0
    4.0805   -0.0146   -2.7344 H   0  0  0  0  0  0  0  0  0  0  0  0
    2.6645   -0.1454   -4.3586 C   0  0  0  0  0  0  0  0  0  0  0  0
    3.4292   -0.2476   -5.1229 H   0  0  0  0  0  0  0  0  0  0  0  0
    1.3124   -0.1452   -4.7135 C   0  0  0  0  0  0  0  0  0  0  0  0
    1.0265   -0.2475   -5.7562 H   0  0  0  0  0  0  0  0  0  0  0  0
    0.3289   -0.0136   -3.7267 C   0  0  0  0  0  0  0  0  0  0  0  0
   -0.7161   -0.0162   -4.0200 H   0  0  0  0  0  0  0  0  0  0  0  0
    0.1068   -0.3477    1.1052 C   0  0  0  0  0  0  0  0  0  0  0  0
    1.2922   -0.2550    1.3971 O   0  0  0  0  0  0  0  0  0  0  0  0
   -0.8306    0.2900    1.8981 N   0  0  0  0  0  0  0  0  0  0  0  0
   -1.8030    0.1090    1.6721 H   0  0  0  0  0  0  0  0  0  0  0  0
   -0.5073    0.8553    3.2020 C   0  0  0  0  0  0  0  0  0  0  0  0
    0.2718    1.6190    3.1067 H   0  0  0  0  0  0  0  0  0  0  0  0
   -1.3934    1.3220    3.6424 H   0  0  0  0  0  0  0  0  0  0  0  0
   -0.1518    0.0727    3.8808 H   0  0  0  0  0  0  0  0  0  0  0  0
  1  2  1  0  0  0  0
  2  3  1  0  0  0  0
  2  4  1  0  0  0  0
  2  5  1  0  0  0  0
  5  6  2  0  0  0  0
  5  7  1  0  0  0  0
  7  8  1  0  0  0  0
  7  9  1  0  0  0  0
  9 10  1  0  0  0  0
  9 11  1  0  0  0  0
  9 25  1  0  0  0  0
 11 12  1  0  0  0  0
 11 13  1  0  0  0  0
 11 14  1  0  0  0  0
 14 15  1  0  0  0  0
 14 23  2  0  0  0  0
 15 16  1  0  0  0  0
 15 17  2  0  0  0  0
 17 18  1  0  0  0  0
 17 19  1  0  0  0  0
 19 20  1  0  0  0  0
 19 21  2  0  0  0  0
 21 22  1  0  0  0  0
 21 23  1  0  0  0  0
 23 24  1  0  0  0  0
 25 26  2  0  0  0  0
 25 27  1  0  0  0  0
 27 28  1  0  0  0  0
 27 29  1  0  0  0  0
 29 30  1  0  0  0  0
 29 31  1  0  0  0  0
 29 32  1  0  0  0  0
M  END
$$$$

  -OEChem-03222214073D

 32 32  0     1  0  0  0  0  0999 V2000
   -3.1237   -4.4706    0.8624 H   0  0  0  0  0  0  0  0  0  0  0  0
   -3.1070   -3.5836    0.2224 C   0  0  0  0  0  0  0  0  0  0  0  0
   -3.9865   -2.9740    0.4433 H   0  0  0  0  0  0  0  0  0  0  0  0
   -3.1453   -3.9041   -0.8216 H   0  0  0  0  0  0  0  0  0  0  0  0
   -1.8431   -2.7826    0.4743 C   0  0  0  0  0  0  0  0  0  0  0  0
   -1.0675   -3.1347    1.3445 O   0  0  0  0  0  0  0  0  0  0  0  0
   -1.5880   -1.6537   -0.2806 N   0  0  0  0  0  0  0  0  0  0  0  0
   -2.2113   -1.4930   -1.0660 H   0  0  0  0  0  0  0  0  0  0  0  0
   -0.3054   -0.9211   -0.2603 C   0  0  1  0  0  0  0  0  0  0  0  0
    0.4711   -1.6419   -0.5367 H   0  0  0  0  0  0  0  0  0  0  0  0
   -0.3567    0.2212   -1.3071 C   0  0  0  0  0  0  0  0  0  0  0  0
   -1.3429    0.2446   -1.7806 H   0  0  0  0  0  0  0  0  0  0  0  0
   -0.2288    1.1879   -0.8081 H   0  0  0  0  0  0  0  0  0  0  0  0
    0.7087    0.1102   -2.3788 C   0  0  0  0  0  0  0  0  0  0  0  0
    2.0450   -0.1888   -2.0593 C   0  0  0  0  0  0  0  0  0  0  0  0
    2.3484   -0.3258   -1.0245 H   0  0  0  0  0  0  0  0  0  0  0  0
    3.0119   -0.2995   -3.0633 C   0  0  0  0  0  0  0  0  0  0  0  0
    4.0400   -0.5286   -2.7986 H   0  0  0  0  0  0  0  0  0  0  0  0
    2.6566   -0.1117   -4.4014 C   0  0  0  0  0  0  0  0  0  0  0  0
    3.4088   -0.1973   -5.1802 H   0  0  0  0  0  0  0  0  0  0  0  0
    1.3332    0.1906   -4.7330 C   0  0  0  0  0  0  0  0  0  0  0  0
    1.0565    0.3411   -5.7722 H   0  0  0  0  0  0  0  0  0  0  0  0
    0.3664    0.3014   -3.7275 C   0  0  0  0  0  0  0  0  0  0  0  0
   -0.6559    0.5387   -4.0047 H   0  0  0  0  0  0  0  0  0  0  0  0
    0.0986   -0.3569    1.1201 C   0  0  0  0  0  0  0  0  0  0  0  0
    1.2826   -0.2774    1.4209 O   0  0  0  0  0  0  0  0  0  0  0  0
   -0.8394    0.2938    1.9017 N   0  0  0  0  0  0  0  0  0  0  0  0
   -1.8114    0.1120    1.6743 H   0  0  0  0  0  0  0  0  0  0  0  0
   -0.5197    0.8623    3.2050 C   0  0  0  0  0  0  0  0  0  0  0  0
    0.2751    1.6101    3.1132 H   0  0  0  0  0  0  0  0  0  0  0  0
   -1.4014    1.3492    3.6321 H   0  0  0  0  0  0  0  0  0  0  0  0
   -0.1870    0.0774    3.8923 H   0  0  0  0  0  0  0  0  0  0  0  0
  1  2  1  0  0  0  0
  2  3  1  0  0  0  0
  2  4  1  0  0  0  0
  2  5  1  0  0  0  0
  5  6  2  0  0  0  0
  5  7  1  0  0  0  0
  7  8  1  0  0  0  0
  7  9  1  0  0  0  0
  9 10  1  0  0  0  0
  9 11  1  0  0  0  0
  9 25  1  0  0  0  0
 11 12  1  0  0  0  0
 11 13  1  0  0  0  0
 11 14  1  0  0  0  0
 14 15  1  0  0  0  0
 14 23  2  0  0  0  0
 15 16  1  0  0  0  0
 15 17  2  0  0  0  0
 17 18  1  0  0  0  0
 17 19  1  0  0  0  0
 19 20  1  0  0  0  0
 19 21  2  0  0  0  0
 21 22  1  0  0  0  0
 21 23  1  0  0  0  0
 23 24  1  0  0  0  0
 25 26  2  0  0  0  0
 25 27  1  0  0  0  0
 27 28  1  0  0  0  0
 27 29  1  0  0  0  0
 29 30  1  0  0  0  0
 29 31  1  0  0  0  0
 29 32  1  0  0  0  0
M  END
$$$$

  -OEChem-03222214073D

 32 32  0     1  0  0  0  0  0999 V2000
   -3.1737   -4.4587    0.8711 H   0  0  0  0  0  0  0  0  0  0  0  0
   -3.1360   -3.5797    0.2211 C   0  0  0  0  0  0  0  0  0  0  0  0
   -4.0136   -2.9592    0.4174 H   0  0  0  0  0  0  0  0  0  0  0  0
   -3.1573   -3.9125   -0.8193 H   0  0  0  0  0  0  0  0  0  0  0  0
   -1.8693   -2.7882    0.4877 C   0  0  0  0  0  0  0  0  0  0  0  0
   -1.1093   -3.1425    1.3707 O   0  0  0  0  0  0  0  0  0  0  0  0
   -1.5921   -1.6668   -0.2702 N   0  0  0  0  0  0  0  0  0  0  0  0
   -2.2017   -1.5056   -1.0662 H   0  0  0  0  0  0  0  0  0  0  0  0
   -0.3039   -0.9450   -0.2335 C   0  0  1  0  0  0  0  0  0  0  0  0
    0.4580   -1.6876   -0.4838 H   0  0  0  0  0  0  0  0  0  0  0  0
   -0.3263    0.1842   -1.2981 C   0  0  0  0  0  0  0  0  0  0  0  0
   -1.3062    0.2006   -1.7848 H   0  0  0  0  0  0  0  0  0  0  0  0
   -0.2115    1.1536   -0.8008 H   0  0  0  0  0  0  0  0  0  0  0  0
    0.7437    0.0964   -2.3726 C   0  0  0  0  0  0  0  0  0  0  0  0
    2.0112   -0.4749   -2.1479 C   0  0  0  0  0  0  0  0  0  0  0  0
    2.2989   -0.8354   -1.1641 H   0  0  0  0  0  0  0  0  0  0  0  0
    2.9521   -0.5582   -3.1795 C   0  0  0  0  0  0  0  0  0  0  0  0
    3.9271   -0.9958   -2.9858 H   0  0  0  0  0  0  0  0  0  0  0  0
    2.6433   -0.0716   -4.4516 C   0  0  0  0  0  0  0  0  0  0  0  0
    3.3756   -0.1366   -5.2510 H   0  0  0  0  0  0  0  0  0  0  0  0
    1.3936    0.5052   -4.6889 C   0  0  0  0  0  0  0  0  0  0  0  0
    1.1535    0.8899   -5.6758 H   0  0  0  0  0  0  0  0  0  0  0  0
    0.4533    0.5884   -3.6562 C   0  0  0  0  0  0  0  0  0  0  0  0
   -0.5119    1.0409   -3.8616 H   0  0  0  0  0  0  0  0  0  0  0  0
    0.0918   -0.3709    1.1441 C   0  0  0  0  0  0  0  0  0  0  0  0
    1.2741   -0.3032    1.4538 O   0  0  0  0  0  0  0  0  0  0  0  0
   -0.8467    0.2973    1.9098 N   0  0  0  0  0  0  0  0  0  0  0  0
   -1.8182    0.1299    1.6702 H   0  0  0  0  0  0  0  0  0  0  0  0
   -0.5354    0.8773    3.2101 C   0  0  0  0  0  0  0  0  0  0  0  0
    0.2644    1.6197    3.1177 H   0  0  0  0  0  0  0  0  0  0  0  0
   -1.4185    1.3734    3.6241 H   0  0  0  0  0  0  0  0  0  0  0  0
   -0.2137    0.0981    3.9091 H   0  0  0  0  0  0  0  0  0  0  0  0
  1  2  1  0  0  0  0
  2  3  1  0  0  0  0
  2  4  1  0  0  0  0
  2  5  1  0  0  0  0
  5  6  2  0  0  0  0
  5  7  1  0  0  0  0
  7  8  1  0  0  0  0
  7  9  1  0  0  0  0
  9 10  1  0  0  0  0
  9 11  1  0  0  0  0
  9 25  1  0  0  0  0
 11 12  1  0  0  0  0
 11 13  1  0  0  0  0
 11 14  1  0  0  0  0
 14 15  1  0  0  0  0
 14 23  2  0  0  0  0
 15 16  1  0  0  0  0
 15 17  2  0  0  0  0
 17 18  1  0  0  0  0
 17 19  1  0  0  0  0
 19 20  1  0  0  0  0
 19 21  2  0  0  0  0
 21 22  1  0  0  0  0
 21 23  1  0  0  0  0
 23 24  1  0  0  0  0
 25 26  2  0  0  0  0
 25 27  1  0  0  0  0
 27 28  1  0  0  0  0
 27 29  1  0  0  0  0
 29 30  1  0  0  0  0
 29 31  1  0  0  0  0
 29 32  1  0  0  0  0
M  END
$$$$

  -OEChem-03222214073D

 32 32  0     1  0  0  0  0  0999 V2000
   -3.2280   -4.4416    0.9003 H   0  0  0  0  0  0  0  0  0  0  0  0
   -3.1775   -3.5622    0.2515 C   0  0  0  0  0  0  0  0  0  0  0  0
   -4.0450   -2.9282    0.4497 H   0  0  0  0  0  0  0  0  0  0  0  0
   -3.2053   -3.8933   -0.7894 H   0  0  0  0  0  0  0  0  0  0  0  0
   -1.8986   -2.7905    0.5187 C   0  0  0  0  0  0  0  0  0  0  0  0
   -1.1587   -3.1410    1.4201 O   0  0  0  0  0  0  0  0  0  0  0  0
   -1.5892   -1.6888   -0.2559 N   0  0  0  0  0  0  0  0  0  0  0  0
   -2.1849   -1.5286   -1.0628 H   0  0  0  0  0  0  0  0  0  0  0  0
   -0.2911   -0.9851   -0.2086 C   0  0  1  0  0  0  0  0  0  0  0  0
    0.4613   -1.7448   -0.4217 H   0  0  0  0  0  0  0  0  0  0  0  0
   -0.2816    0.1279   -1.2922 C   0  0  0  0  0  0  0  0  0  0  0  0
   -1.2562    0.1442   -1.7902 H   0  0  0  0  0  0  0  0  0  0  0  0
   -0.1716    1.1006   -0.8006 H   0  0  0  0  0  0  0  0  0  0  0  0
    0.7862    0.0546   -2.3738 C   0  0  0  0  0  0  0  0  0  0  0  0
    1.9417   -0.7516   -2.3096 C   0  0  0  0  0  0  0  0  0  0  0  0
    2.1828   -1.3469   -1.4358 H   0  0  0  0  0  0  0  0  0  0  0  0
    2.8570   -0.7776   -3.3676 C   0  0  0  0  0  0  0  0  0  0  0  0
    3.7452   -1.3988   -3.2964 H   0  0  0  0  0  0  0  0  0  0  0  0
    2.6390    0.0006   -4.5060 C   0  0  0  0  0  0  0  0  0  0  0  0
    3.3534   -0.0184   -5.3237 H   0  0  0  0  0  0  0  0  0  0  0  0
    1.5050    0.8109   -4.5833 C   0  0  0  0  0  0  0  0  0  0  0  0
    1.3357    1.4234   -5.4639 H   0  0  0  0  0  0  0  0  0  0  0  0
    0.5898    0.8350   -3.5259 C   0  0  0  0  0  0  0  0  0  0  0  0
   -0.2858    1.4722   -3.6056 H   0  0  0  0  0  0  0  0  0  0  0  0
    0.0839   -0.3899    1.1657 C   0  0  0  0  0  0  0  0  0  0  0  0
    1.2594   -0.3398    1.5029 O   0  0  0  0  0  0  0  0  0  0  0  0
   -0.8609    0.3064    1.8980 N   0  0  0  0  0  0  0  0  0  0  0  0
   -1.8296    0.1478    1.6412 H   0  0  0  0  0  0  0  0  0  0  0  0
   -0.5688    0.8987    3.1969 C   0  0  0  0  0  0  0  0  0  0  0  0
    0.2497    1.6213    3.1139 H   0  0  0  0  0  0  0  0  0  0  0  0
   -1.4500    1.4207    3.5820 H   0  0  0  0  0  0  0  0  0  0  0  0
   -0.2819    0.1226    3.9141 H   0  0  0  0  0  0  0  0  0  0  0  0
  1  2  1  0  0  0  0
  2  3  1  0  0  0  0
  2  4  1  0  0  0  0
  2  5  1  0  0  0  0
  5  6  2  0  0  0  0
  5  7  1  0  0  0  0
  7  8  1  0  0  0  0
  7  9  1  0  0  0  0
  9 10  1  0  0  0  0
  9 11  1  0  0  0  0
  9 25  1  0  0  0  0
 11 12  1  0  0  0  0
 11 13  1  0  0  0  0
 11 14  1  0  0  0  0
 14 15  1  0  0  0  0
 14 23  2  0  0  0  0
 15 16  1  0  0  0  0
 15 17  2  0  0  0  0
 17 18  1  0  0  0  0
 17 19  1  0  0  0  0
 19 20  1  0  0  0  0
 19 21  2  0  0  0  0
 21 22  1  0  0  0  0
 21 23  1  0  0  0  0
 23 24  1  0  0  0  0
 25 26  2  0  0  0  0
 25 27  1  0  0  0  0
 27 28  1  0  0  0  0
 27 29  1  0  0  0  0
 29 30  1  0  0  0  0
 29 31  1  0  0  0  0
 29 32  1  0  0  0  0
M  END
$$$$

  -OEChem-03222214073D

 32 32  0     1  0  0  0  0  0999 V2000
   -3.2752   -4.4096    0.9595 H   0  0  0  0  0  0  0  0  0  0  0  0
   -3.2084   -3.5392    0.3004 C   0  0  0  0  0  0  0  0  0  0  0  0
   -4.0591   -2.8825    0.4973 H   0  0  0  0  0  0  0  0  0  0  0  0
   -3.2517   -3.8812   -0.7365 H   0  0  0  0  0  0  0  0  0  0  0  0
   -1.9102   -2.7945    0.5499 C   0  0  0  0  0  0  0  0  0  0  0  0
   -1.1712   -3.1523    1.4489 O   0  0  0  0  0  0  0  0  0  0  0  0
   -1.5790   -1.7125   -0.2431 N   0  0  0  0  0  0  0  0  0  0  0  0
   -2.1762   -1.5475   -1.0480 H   0  0  0  0  0  0  0  0  0  0  0  0
   -0.2719   -1.0251   -0.2012 C   0  0  1  0  0  0  0  0  0  0  0  0
    0.4858   -1.7842   -0.3880 H   0  0  0  0  0  0  0  0  0  0  0  0
   -0.2542    0.0832   -1.2905 C   0  0  0  0  0  0  0  0  0  0  0  0
   -1.2311    0.1097   -1.7833 H   0  0  0  0  0  0  0  0  0  0  0  0
   -0.1345    1.0541   -0.7970 H   0  0  0  0  0  0  0  0  0  0  0  0
    0.7979    0.0150   -2.3896 C   0  0  0  0  0  0  0  0  0  0  0  0
    1.7872   -0.9829   -2.5211 C   0  0  0  0  0  0  0  0  0  0  0  0
    1.8957   -1.7984   -1.8172 H   0  0  0  0  0  0  0  0  0  0  0  0
    2.6997   -0.9515   -3.5817 C   0  0  0  0  0  0  0  0  0  0  0  0
    3.4578   -1.7249   -3.6640 H   0  0  0  0  0  0  0  0  0  0  0  0
    2.6451    0.0715   -4.5296 C   0  0  0  0  0  0  0  0  0  0  0  0
    3.3572    0.0940   -5.3493 H   0  0  0  0  0  0  0  0  0  0  0  0
    1.6758    1.0684   -4.4144 C   0  0  0  0  0  0  0  0  0  0  0  0
    1.6326    1.8699   -5.1458 H   0  0  0  0  0  0  0  0  0  0  0  0
    0.7640    1.0365   -3.3546 C   0  0  0  0  0  0  0  0  0  0  0  0
    0.0200    1.8241   -3.2817 H   0  0  0  0  0  0  0  0  0  0  0  0
    0.0857   -0.4134    1.1717 C   0  0  0  0  0  0  0  0  0  0  0  0
    1.2538   -0.3729    1.5339 O   0  0  0  0  0  0  0  0  0  0  0  0
   -0.8656    0.3028    1.8766 N   0  0  0  0  0  0  0  0  0  0  0  0
   -1.8305    0.1605    1.5976 H   0  0  0  0  0  0  0  0  0  0  0  0
   -0.5927    0.9187    3.1687 C   0  0  0  0  0  0  0  0  0  0  0  0
    0.2365    1.6295    3.0878 H   0  0  0  0  0  0  0  0  0  0  0  0
   -1.4749    1.4596    3.5240 H   0  0  0  0  0  0  0  0  0  0  0  0
   -0.3309    0.1542    3.9078 H   0  0  0  0  0  0  0  0  0  0  0  0
  1  2  1  0  0  0  0
  2  3  1  0  0  0  0
  2  4  1  0  0  0  0
  2  5  1  0  0  0  0
  5  6  2  0  0  0  0
  5  7  1  0  0  0  0
  7  8  1  0  0  0  0
  7  9  1  0  0  0  0
  9 10  1  0  0  0  0
  9 11  1  0  0  0  0
  9 25  1  0  0  0  0
 11 12  1  0  0  0  0
 11 13  1  0  0  0  0
 11 14  1  0  0  0  0
 14 15  1  0  0  0  0
 14 23  2  0  0  0  0
 15 16  1  0  0  0  0
 15 17  2  0  0  0  0
 17 18  1  0  0  0  0
 17 19  1  0  0  0  0
 19 20  1  0  0  0  0
 19 21  2  0  0  0  0
 21 22  1  0  0  0  0
 21 23  1  0  0  0  0
 23 24  1  0  0  0  0
 25 26  2  0  0  0  0
 25 27  1  0  0  0  0
 27 28  1  0  0  0  0
 27 29  1  0  0  0  0
 29 30  1  0  0  0  0
 29 31  1  0  0  0  0
 29 32  1  0  0  0  0
M  END
$$$$

  -OEChem-03222214073D

 32 32  0     1  0  0  0  0  0999 V2000
   -3.2651   -4.3979    1.0022 H   0  0  0  0  0  0  0  0  0  0  0  0
   -3.2038   -3.5321    0.3364 C   0  0  0  0  0  0  0  0  0  0  0  0
   -4.0420   -2.8647    0.5498 H   0  0  0  0  0  0  0  0  0  0  0  0
   -3.2758   -3.8795   -0.6972 H   0  0  0  0  0  0  0  0  0  0  0  0
   -1.8916   -2.8006    0.5505 C   0  0  0  0  0  0  0  0  0  0  0  0
   -1.1305   -3.1685    1.4266 O   0  0  0  0  0  0  0  0  0  0  0  0
   -1.5733   -1.7179   -0.2468 N   0  0  0  0  0  0  0  0  0  0  0  0
   -2.1933   -1.5400   -1.0314 H   0  0  0  0  0  0  0  0  0  0  0  0
   -0.2694   -1.0231   -0.2237 C   0  0  1  0  0  0  0  0  0  0  0  0
    0.5064   -1.7640   -0.4163 H   0  0  0  0  0  0  0  0  0  0  0  0
   -0.2758    0.0936   -1.3047 C   0  0  0  0  0  0  0  0  0  0  0  0
   -1.2576    0.1211   -1.7871 H   0  0  0  0  0  0  0  0  0  0  0  0
   -0.1530    1.0613   -0.8055 H   0  0  0  0  0  0  0  0  0  0  0  0
    0.7629    0.0219   -2.4152 C   0  0  0  0  0  0  0  0  0  0  0  0
    1.5371   -1.1150   -2.7290 C   0  0  0  0  0  0  0  0  0  0  0  0
    1.4297   -2.0550   -2.2015 H   0  0  0  0  0  0  0  0  0  0  0  0
    2.4778   -1.0775   -3.7646 C   0  0  0  0  0  0  0  0  0  0  0  0
    3.0667   -1.9612   -3.9918 H   0  0  0  0  0  0  0  0  0  0  0  0
    2.6637    0.0907   -4.5060 C   0  0  0  0  0  0  0  0  0  0  0  0
    3.3971    0.1175   -5.3066 H   0  0  0  0  0  0  0  0  0  0  0  0
    1.9041    1.2238   -4.2119 C   0  0  0  0  0  0  0  0  0  0  0  0
    2.0466    2.1360   -4.7837 H   0  0  0  0  0  0  0  0  0  0  0  0
    0.9642    1.1857   -3.1772 C   0  0  0  0  0  0  0  0  0  0  0  0
    0.3878    2.0804   -2.9617 H   0  0  0  0  0  0  0  0  0  0  0  0
    0.0919   -0.4112    1.1492 C   0  0  0  0  0  0  0  0  0  0  0  0
    1.2614   -0.3591    1.5051 O   0  0  0  0  0  0  0  0  0  0  0  0
   -0.8601    0.2962    1.8625 N   0  0  0  0  0  0  0  0  0  0  0  0
   -1.8256    0.1462    1.5897 H   0  0  0  0  0  0  0  0  0  0  0  0
   -0.5842    0.9060    3.1574 C   0  0  0  0  0  0  0  0  0  0  0  0
    0.2444    1.6177    3.0785 H   0  0  0  0  0  0  0  0  0  0  0  0
   -1.4659    1.4446    3.5172 H   0  0  0  0  0  0  0  0  0  0  0  0
   -0.3205    0.1381    3.8922 H   0  0  0  0  0  0  0  0  0  0  0  0
  1  2  1  0  0  0  0
  2  3  1  0  0  0  0
  2  4  1  0  0  0  0
  2  5  1  0  0  0  0
  5  6  2  0  0  0  0
  5  7  1  0  0  0  0
  7  8  1  0  0  0  0
  7  9  1  0  0  0  0
  9 10  1  0  0  0  0
  9 11  1  0  0  0  0
  9 25  1  0  0  0  0
 11 12  1  0  0  0  0
 11 13  1  0  0  0  0
 11 14  1  0  0  0  0
 14 15  1  0  0  0  0
 14 23  2  0  0  0  0
 15 16  1  0  0  0  0
 15 17  2  0  0  0  0
 17 18  1  0  0  0  0
 17 19  1  0  0  0  0
 19 20  1  0  0  0  0
 19 21  2  0  0  0  0
 21 22  1  0  0  0  0
 21 23  1  0  0  0  0
 23 24  1  0  0  0  0
 25 26  2  0  0  0  0
 25 27  1  0  0  0  0
 27 28  1  0  0  0  0
 27 29  1  0  0  0  0
 29 30  1  0  0  0  0
 29 31  1  0  0  0  0
 29 32  1  0  0  0  0
M  END
$$$$

  -OEChem-03222214073D

 32 32  0     1  0  0  0  0  0999 V2000
   -3.2044   -4.4131    0.9782 H   0  0  0  0  0  0  0  0  0  0  0  0
   -3.1568   -3.5501    0.3081 C   0  0  0  0  0  0  0  0  0  0  0  0
   -4.0056   -2.8950    0.5179 H   0  0  0  0  0  0  0  0  0  0  0  0
   -3.2229   -3.9035   -0.7237 H   0  0  0  0  0  0  0  0  0  0  0  0
   -1.8556   -2.7985    0.5177 C   0  0  0  0  0  0  0  0  0  0  0  0
   -1.0712   -3.1732    1.3699 O   0  0  0  0  0  0  0  0  0  0  0  0
   -1.5710   -1.6951   -0.2635 N   0  0  0  0  0  0  0  0  0  0  0  0
   -2.2150   -1.5039   -1.0253 H   0  0  0  0  0  0  0  0  0  0  0  0
   -0.2784   -0.9799   -0.2534 C   0  0  1  0  0  0  0  0  0  0  0  0
    0.5132   -1.6976   -0.4801 H   0  0  0  0  0  0  0  0  0  0  0  0
   -0.3220    0.1561   -1.3107 C   0  0  0  0  0  0  0  0  0  0  0  0
   -1.3071    0.1797   -1.7861 H   0  0  0  0  0  0  0  0  0  0  0  0
   -0.2032    1.1187   -0.8009 H   0  0  0  0  0  0  0  0  0  0  0  0
    0.7144    0.0742   -2.4186 C   0  0  0  0  0  0  0  0  0  0  0  0
    1.2377   -1.1411   -2.9022 C   0  0  0  0  0  0  0  0  0  0  0  0
    0.8954   -2.0961   -2.5183 H   0  0  0  0  0  0  0  0  0  0  0  0
    2.2034   -1.1531   -3.9145 C   0  0  0  0  0  0  0  0  0  0  0  0
    2.5982   -2.0980   -4.2763 H   0  0  0  0  0  0  0  0  0  0  0  0
    2.6617    0.0476   -4.4607 C   0  0  0  0  0  0  0  0  0  0  0  0
    3.4142    0.0377   -5.2436 H   0  0  0  0  0  0  0  0  0  0  0  0
    2.1504    1.2608   -3.9954 C   0  0  0  0  0  0  0  0  0  0  0  0
    2.5063    2.1968   -4.4156 H   0  0  0  0  0  0  0  0  0  0  0  0
    1.1849    1.2711   -2.9834 C   0  0  0  0  0  0  0  0  0  0  0  0
    0.8055    2.2253   -2.6304 H   0  0  0  0  0  0  0  0  0  0  0  0
    0.0994   -0.3909    1.1251 C   0  0  0  0  0  0  0  0  0  0  0  0
    1.2746   -0.3195    1.4585 O   0  0  0  0  0  0  0  0  0  0  0  0
   -0.8515    0.2849    1.8697 N   0  0  0  0  0  0  0  0  0  0  0  0
   -1.8192    0.1165    1.6165 H   0  0  0  0  0  0  0  0  0  0  0  0
   -0.5603    0.8803    3.1677 C   0  0  0  0  0  0  0  0  0  0  0  0
    0.2399    1.6228    3.0781 H   0  0  0  0  0  0  0  0  0  0  0  0
   -1.4496    1.3799    3.5631 H   0  0  0  0  0  0  0  0  0  0  0  0
   -0.2476    0.1095    3.8799 H   0  0  0  0  0  0  0  0  0  0  0  0
  1  2  1  0  0  0  0
  2  3  1  0  0  0  0
  2  4  1  0  0  0  0
  2  5  1  0  0  0  0
  5  6  2  0  0  0  0
  5  7  1  0  0  0  0
  7  8  1  0  0  0  0
  7  9  1  0  0  0  0
  9 10  1  0  0  0  0
  9 11  1  0  0  0  0
  9 25  1  0  0  0  0
 11 12  1  0  0  0  0
 11 13  1  0  0  0  0
 11 14  1  0  0  0  0
 14 15  1  0  0  0  0
 14 23  2  0  0  0  0
 15 16  1  0  0  0  0
 15 17  2  0  0  0  0
 17 18  1  0  0  0  0
 17 19  1  0  0  0  0
 19 20  1  0  0  0  0
 19 21  2  0  0  0  0
 21 22  1  0  0  0  0
 21 23  1  0  0  0  0
 23 24  1  0  0  0  0
 25 26  2  0  0  0  0
 25 27  1  0  0  0  0
 27 28  1  0  0  0  0
 27 29  1  0  0  0  0
 29 30  1  0  0  0  0
 29 31  1  0  0  0  0
 29 32  1  0  0  0  0
M  END
$$$$

  -OEChem-03222214073D

 32 32  0     1  0  0  0  0  0999 V2000
   -3.1340   -4.4397    0.9273 H   0  0  0  0  0  0  0  0  0  0  0  0
   -3.1118   -3.5638    0.2724 C   0  0  0  0  0  0  0  0  0  0  0  0
   -3.9659   -2.9253    0.5102 H   0  0  0  0  0  0  0  0  0  0  0  0
   -3.1924   -3.8993   -0.7644 H   0  0  0  0  0  0  0  0  0  0  0  0
   -1.8180   -2.7967    0.4719 C   0  0  0  0  0  0  0  0  0  0  0  0
   -1.0136   -3.1740    1.3041 O   0  0  0  0  0  0  0  0  0  0  0  0
   -1.5663   -1.6714   -0.2891 N   0  0  0  0  0  0  0  0  0  0  0  0
   -2.2288   -1.4716   -1.0326 H   0  0  0  0  0  0  0  0  0  0  0  0
   -0.2880   -0.9305   -0.2808 C   0  0  1  0  0  0  0  0  0  0  0  0
    0.5127   -1.6284   -0.5453 H   0  0  0  0  0  0  0  0  0  0  0  0
   -0.3618    0.2199   -1.3168 C   0  0  0  0  0  0  0  0  0  0  0  0
   -1.3447    0.2308   -1.7972 H   0  0  0  0  0  0  0  0  0  0  0  0
   -0.2577    1.1813   -0.8018 H   0  0  0  0  0  0  0  0  0  0  0  0
    0.6854    0.1270   -2.4077 C   0  0  0  0  0  0  0  0  0  0  0  0
    0.9638   -1.0854   -3.0639 C   0  0  0  0  0  0  0  0  0  0  0  0
    0.4197   -1.9891   -2.8071 H   0  0  0  0  0  0  0  0  0  0  0  0
    1.9411   -1.1489   -4.0627 C   0  0  0  0  0  0  0  0  0  0  0  0
    2.1484   -2.0917   -4.5603 H   0  0  0  0  0  0  0  0  0  0  0  0
    2.6540   -0.0010   -4.4182 C   0  0  0  0  0  0  0  0  0  0  0  0
    3.4152   -0.0503   -5.1914 H   0  0  0  0  0  0  0  0  0  0  0  0
    2.3886    1.2096   -3.7728 C   0  0  0  0  0  0  0  0  0  0  0  0
    2.9454    2.1021   -4.0424 H   0  0  0  0  0  0  0  0  0  0  0  0
    1.4107    1.2716   -2.7744 C   0  0  0  0  0  0  0  0  0  0  0  0
    1.2241    2.2193   -2.2782 H   0  0  0  0  0  0  0  0  0  0  0  0
    0.1023   -0.3613    1.1020 C   0  0  0  0  0  0  0  0  0  0  0  0
    1.2817   -0.2679    1.4146 O   0  0  0  0  0  0  0  0  0  0  0  0
   -0.8486    0.2812    1.8754 N   0  0  0  0  0  0  0  0  0  0  0  0
   -1.8171    0.0990    1.6345 H   0  0  0  0  0  0  0  0  0  0  0  0
   -0.5471    0.8487    3.1835 C   0  0  0  0  0  0  0  0  0  0  0  0
    0.2365    1.6091    3.1002 H   0  0  0  0  0  0  0  0  0  0  0  0
   -1.4394    1.3197    3.6065 H   0  0  0  0  0  0  0  0  0  0  0  0
   -0.2074    0.0662    3.8702 H   0  0  0  0  0  0  0  0  0  0  0  0
  1  2  1  0  0  0  0
  2  3  1  0  0  0  0
  2  4  1  0  0  0  0
  2  5  1  0  0  0  0
  5  6  2  0  0  0  0
  5  7  1  0  0  0  0
  7  8  1  0  0  0  0
  7  9  1  0  0  0  0
  9 10  1  0  0  0  0
  9 11  1  0  0  0  0
  9 25  1  0  0  0  0
 11 12  1  0  0  0  0
 11 13  1  0  0  0  0
 11 14  1  0  0  0  0
 14 15  1  0  0  0  0
 14 23  2  0  0  0  0
 15 16  1  0  0  0  0
 15 17  2  0  0  0  0
 17 18  1  0  0  0  0
 17 19  1  0  0  0  0
 19 20  1  0  0  0  0
 19 21  2  0  0  0  0
 21 22  1  0  0  0  0
 21 23  1  0  0  0  0
 23 24  1  0  0  0  0
 25 26  2  0  0  0  0
 25 27  1  0  0  0  0
 27 28  1  0  0  0  0
 27 29  1  0  0  0  0
 29 30  1  0  0  0  0
 29 31  1  0  0  0  0
 29 32  1  0  0  0  0
M  END
$$$$

  -OEChem-03222214073D

 32 32  0     1  0  0  0  0  0999 V2000
   -3.0778   -4.4617    0.8810 H   0  0  0  0  0  0  0  0  0  0  0  0
   -3.0738   -3.5777    0.2368 C   0  0  0  0  0  0  0  0  0  0  0  0
   -3.9370   -2.9566    0.4876 H   0  0  0  0  0  0  0  0  0  0  0  0
   -3.1550   -3.9020   -0.8035 H   0  0  0  0  0  0  0  0  0  0  0  0
   -1.7914   -2.7918    0.4375 C   0  0  0  0  0  0  0  0  0  0  0  0
   -0.9741   -3.1682    1.2575 O   0  0  0  0  0  0  0  0  0  0  0  0
   -1.5656   -1.6503   -0.3074 N   0  0  0  0  0  0  0  0  0  0  0  0
   -2.2423   -1.4444   -1.0360 H   0  0  0  0  0  0  0  0  0  0  0  0
   -0.2987   -0.8903   -0.3006 C   0  0  1  0  0  0  0  0  0  0  0  0
    0.5058   -1.5745   -0.5936 H   0  0  0  0  0  0  0  0  0  0  0  0
   -0.3927    0.2687   -1.3214 C   0  0  0  0  0  0  0  0  0  0  0  0
   -1.3740    0.2725   -1.8056 H   0  0  0  0  0  0  0  0  0  0  0  0
   -0.2961    1.2305   -0.8057 H   0  0  0  0  0  0  0  0  0  0  0  0
    0.6642    0.1636   -2.3964 C   0  0  0  0  0  0  0  0  0  0  0  0
    0.7218   -0.9595   -3.2377 C   0  0  0  0  0  0  0  0  0  0  0  0
   -0.0014   -1.7614   -3.1266 H   0  0  0  0  0  0  0  0  0  0  0  0
    1.7084   -1.0598   -4.2244 C   0  0  0  0  0  0  0  0  0  0  0  0
    1.7458   -1.9325   -4.8695 H   0  0  0  0  0  0  0  0  0  0  0  0
    2.6512   -0.0391   -4.3762 C   0  0  0  0  0  0  0  0  0  0  0  0
    3.4202   -0.1172   -5.1391 H   0  0  0  0  0  0  0  0  0  0  0  0
    2.6080    1.0792   -3.5386 C   0  0  0  0  0  0  0  0  0  0  0  0
    3.3453    1.8692   -3.6479 H   0  0  0  0  0  0  0  0  0  0  0  0
    1.6204    1.1784   -2.5528 C   0  0  0  0  0  0  0  0  0  0  0  0
    1.6075    2.0467   -1.9004 H   0  0  0  0  0  0  0  0  0  0  0  0
    0.1030   -0.3362    1.0847 C   0  0  0  0  0  0  0  0  0  0  0  0
    1.2853   -0.2206    1.3782 O   0  0  0  0  0  0  0  0  0  0  0  0
   -0.8470    0.2805    1.8801 N   0  0  0  0  0  0  0  0  0  0  0  0
   -1.8152    0.0789    1.6543 H   0  0  0  0  0  0  0  0  0  0  0  0
   -0.5358    0.8368    3.1910 C   0  0  0  0  0  0  0  0  0  0  0  0
    0.2327    1.6125    3.1066 H   0  0  0  0  0  0  0  0  0  0  0  0
   -1.4299    1.2861    3.6336 H   0  0  0  0  0  0  0  0  0  0  0  0
   -0.1714    0.0518    3.8620 H   0  0  0  0  0  0  0  0  0  0  0  0
  1  2  1  0  0  0  0
  2  3  1  0  0  0  0
  2  4  1  0  0  0  0
  2  5  1  0  0  0  0
  5  6  2  0  0  0  0
  5  7  1  0  0  0  0
  7  8  1  0  0  0  0
  7  9  1  0  0  0  0
  9 10  1  0  0  0  0
  9 11  1  0  0  0  0
  9 25  1  0  0  0  0
 11 12  1  0  0  0  0
 11 13  1  0  0  0  0
 11 14  1  0  0  0  0
 14 15  1  0  0  0  0
 14 23  2  0  0  0  0
 15 16  1  0  0  0  0
 15 17  2  0  0  0  0
 17 18  1  0  0  0  0
 17 19  1  0  0  0  0
 19 20  1  0  0  0  0
 19 21  2  0  0  0  0
 21 22  1  0  0  0  0
 21 23  1  0  0  0  0
 23 24  1  0  0  0  0
 25 26  2  0  0  0  0
 25 27  1  0  0  0  0
 27 28  1  0  0  0  0
 27 29  1  0  0  0  0
 29 30  1  0  0  0  0
 29 31  1  0  0  0  0
 29 32  1  0  0  0  0
M  END
$$$$

  -OEChem-03222214073D

 32 32  0     1  0  0  0  0  0999 V2000
   -3.0344   -4.4854    0.8354 H   0  0  0  0  0  0  0  0  0  0  0  0
   -3.0428   -3.5963    0.1983 C   0  0  0  0  0  0  0  0  0  0  0  0
   -3.9219   -2.9957    0.4434 H   0  0  0  0  0  0  0  0  0  0  0  0
   -3.1053   -3.9135   -0.8453 H   0  0  0  0  0  0  0  0  0  0  0  0
   -1.7805   -2.7841    0.4193 C   0  0  0  0  0  0  0  0  0  0  0  0
   -0.9625   -3.1488    1.2440 O   0  0  0  0  0  0  0  0  0  0  0  0
   -1.5733   -1.6327   -0.3153 N   0  0  0  0  0  0  0  0  0  0  0  0
   -2.2491   -1.4372   -1.0475 H   0  0  0  0  0  0  0  0  0  0  0  0
   -0.3131   -0.8622   -0.3112 C   0  0  1  0  0  0  0  0  0  0  0  0
    0.4908   -1.5402   -0.6218 H   0  0  0  0  0  0  0  0  0  0  0  0
   -0.4184    0.3024   -1.3209 C   0  0  0  0  0  0  0  0  0  0  0  0
   -1.4010    0.3072   -1.8027 H   0  0  0  0  0  0  0  0  0  0  0  0
   -0.3189    1.2646   -0.8062 H   0  0  0  0  0  0  0  0  0  0  0  0
    0.6437    0.1867   -2.3857 C   0  0  0  0  0  0  0  0  0  0  0  0
    0.5229   -0.7638   -3.4110 C   0  0  0  0  0  0  0  0  0  0  0  0
   -0.3465   -1.4121   -3.4533 H   0  0  0  0  0  0  0  0  0  0  0  0
    1.5200   -0.8878   -4.3845 C   0  0  0  0  0  0  0  0  0  0  0  0
    1.4186   -1.6243   -5.1761 H   0  0  0  0  0  0  0  0  0  0  0  0
    2.6516   -0.0682   -4.3345 C   0  0  0  0  0  0  0  0  0  0  0  0
    3.4289   -0.1663   -5.0866 H   0  0  0  0  0  0  0  0  0  0  0  0
    2.7872    0.8706   -3.3072 C   0  0  0  0  0  0  0  0  0  0  0  0
    3.6717    1.4988   -3.2570 H   0  0  0  0  0  0  0  0  0  0  0  0
    1.7886    0.9947   -2.3356 C   0  0  0  0  0  0  0  0  0  0  0  0
    1.9134    1.7139   -1.5308 H   0  0  0  0  0  0  0  0  0  0  0  0
    0.1042   -0.3165    1.0726 C   0  0  0  0  0  0  0  0  0  0  0  0
    1.2902   -0.1789    1.3426 O   0  0  0  0  0  0  0  0  0  0  0  0
   -0.8398    0.2862    1.8853 N   0  0  0  0  0  0  0  0  0  0  0  0
   -1.8089    0.0698    1.6773 H   0  0  0  0  0  0  0  0  0  0  0  0
   -0.5128    0.8469    3.1903 C   0  0  0  0  0  0  0  0  0  0  0  0
    0.2388    1.6372    3.0910 H   0  0  0  0  0  0  0  0  0  0  0  0
   -1.4062    1.2788    3.6509 H   0  0  0  0  0  0  0  0  0  0  0  0
   -0.1205    0.0684    3.8532 H   0  0  0  0  0  0  0  0  0  0  0  0
  1  2  1  0  0  0  0
  2  3  1  0  0  0  0
  2  4  1  0  0  0  0
  2  5  1  0  0  0  0
  5  6  2  0  0  0  0
  5  7  1  0  0  0  0
  7  8  1  0  0  0  0
  7  9  1  0  0  0  0
  9 10  1  0  0  0  0
  9 11  1  0  0  0  0
  9 25  1  0  0  0  0
 11 12  1  0  0  0  0
 11 13  1  0  0  0  0
 11 14  1  0  0  0  0
 14 15  1  0  0  0  0
 14 23  2  0  0  0  0
 15 16  1  0  0  0  0
 15 17  2  0  0  0  0
 17 18  1  0  0  0  0
 17 19  1  0  0  0  0
 19 20  1  0  0  0  0
 19 21  2  0  0  0  0
 21 22  1  0  0  0  0
 21 23  1  0  0  0  0
 23 24  1  0  0  0  0
 25 26  2  0  0  0  0
 25 27  1  0  0  0  0
 27 28  1  0  0  0  0
 27 29  1  0  0  0  0
 29 30  1  0  0  0  0
 29 31  1  0  0  0  0
 29 32  1  0  0  0  0
M  END
$$$$

  -OEChem-03222214073D

 32 32  0     1  0  0  0  0  0999 V2000
   -3.0301   -4.4841    0.8310 H   0  0  0  0  0  0  0  0  0  0  0  0
   -3.0393   -3.5953    0.1933 C   0  0  0  0  0  0  0  0  0  0  0  0
   -3.9219   -2.9985    0.4347 H   0  0  0  0  0  0  0  0  0  0  0  0
   -3.0960   -3.9140   -0.8503 H   0  0  0  0  0  0  0  0  0  0  0  0
   -1.7813   -2.7779    0.4202 C   0  0  0  0  0  0  0  0  0  0  0  0
   -0.9712   -3.1352    1.2560 O   0  0  0  0  0  0  0  0  0  0  0  0
   -1.5731   -1.6266   -0.3149 N   0  0  0  0  0  0  0  0  0  0  0  0
   -2.2353   -1.4462   -1.0630 H   0  0  0  0  0  0  0  0  0  0  0  0
   -0.3118   -0.8582   -0.3096 C   0  0  1  0  0  0  0  0  0  0  0  0
    0.4904   -1.5370   -0.6233 H   0  0  0  0  0  0  0  0  0  0  0  0
   -0.4140    0.3086   -1.3163 C   0  0  0  0  0  0  0  0  0  0  0  0
   -1.3993    0.3220   -1.7921 H   0  0  0  0  0  0  0  0  0  0  0  0
   -0.3026    1.2700   -0.8025 H   0  0  0  0  0  0  0  0  0  0  0  0
    0.6493    0.1891   -2.3784 C   0  0  0  0  0  0  0  0  0  0  0  0
    0.4017   -0.5195   -3.5637 C   0  0  0  0  0  0  0  0  0  0  0  0
   -0.5674   -0.9773   -3.7345 H   0  0  0  0  0  0  0  0  0  0  0  0
    1.3994   -0.6429   -4.5370 C   0  0  0  0  0  0  0  0  0  0  0  0
    1.2004   -1.1895   -5.4540 H   0  0  0  0  0  0  0  0  0  0  0  0
    2.6559   -0.0664   -4.3272 C   0  0  0  0  0  0  0  0  0  0  0  0
    3.4324   -0.1634   -5.0802 H   0  0  0  0  0  0  0  0  0  0  0  0
    2.9152    0.6278   -3.1416 C   0  0  0  0  0  0  0  0  0  0  0  0
    3.8940    1.0657   -2.9690 H   0  0  0  0  0  0  0  0  0  0  0  0
    1.9165    0.7518   -2.1702 C   0  0  0  0  0  0  0  0  0  0  0  0
    2.1331    1.2768   -1.2432 H   0  0  0  0  0  0  0  0  0  0  0  0
    0.1052   -0.3137    1.0747 C   0  0  0  0  0  0  0  0  0  0  0  0
    1.2918   -0.1745    1.3416 O   0  0  0  0  0  0  0  0  0  0  0  0
   -0.8381    0.2902    1.8875 N   0  0  0  0  0  0  0  0  0  0  0  0
   -1.8072    0.0719    1.6811 H   0  0  0  0  0  0  0  0  0  0  0  0
   -0.5109    0.8475    3.1938 C   0  0  0  0  0  0  0  0  0  0  0  0
    0.2401    1.6387    3.0966 H   0  0  0  0  0  0  0  0  0  0  0  0
   -1.4044    1.2770    3.6567 H   0  0  0  0  0  0  0  0  0  0  0  0
   -0.1170    0.0676    3.8540 H   0  0  0  0  0  0  0  0  0  0  0  0
  1  2  1  0  0  0  0
  2  3  1  0  0  0  0
  2  4  1  0  0  0  0
  2  5  1  0  0  0  0
  5  6  2  0  0  0  0
  5  7  1  0  0  0  0
  7  8  1  0  0  0  0
  7  9  1  0  0  0  0
  9 10  1  0  0  0  0
  9 11  1  0  0  0  0
  9 25  1  0  0  0  0
 11 12  1  0  0  0  0
 11 13  1  0  0  0  0
 11 14  1  0  0  0  0
 14 15  1  0  0  0  0
 14 23  2  0  0  0  0
 15 16  1  0  0  0  0
 15 17  2  0  0  0  0
 17 18  1  0  0  0  0
 17 19  1  0  0  0  0
 19 20  1  0  0  0  0
 19 21  2  0  0  0  0
 21 22  1  0  0  0  0
 21 23  1  0  0  0  0
 23 24  1  0  0  0  0
 25 26  2  0  0  0  0
 25 27  1  0  0  0  0
 27 28  1  0  0  0  0
 27 29  1  0  0  0  0
 29 30  1  0  0  0  0
 29 31  1  0  0  0  0
 29 32  1  0  0  0  0
M  END
$$$$

  -OEChem-03222214073D

 32 32  0     1  0  0  0  0  0999 V2000
   -3.0421   -4.4796    0.8258 H   0  0  0  0  0  0  0  0  0  0  0  0
   -3.0469   -3.5896    0.1899 C   0  0  0  0  0  0  0  0  0  0  0  0
   -3.9309   -2.9926    0.4269 H   0  0  0  0  0  0  0  0  0  0  0  0
   -3.0964   -3.9056   -0.8550 H   0  0  0  0  0  0  0  0  0  0  0  0
   -1.7901   -2.7733    0.4264 C   0  0  0  0  0  0  0  0  0  0  0  0
   -0.9874   -3.1300    1.2695 O   0  0  0  0  0  0  0  0  0  0  0  0
   -1.5748   -1.6237   -0.3089 N   0  0  0  0  0  0  0  0  0  0  0  0
   -2.2253   -1.4511   -1.0690 H   0  0  0  0  0  0  0  0  0  0  0  0
   -0.3093   -0.8622   -0.2995 C   0  0  1  0  0  0  0  0  0  0  0  0
    0.4885   -1.5477   -0.6094 H   0  0  0  0  0  0  0  0  0  0  0  0
   -0.4032    0.3020   -1.3118 C   0  0  0  0  0  0  0  0  0  0  0  0
   -1.3900    0.3221   -1.7840 H   0  0  0  0  0  0  0  0  0  0  0  0
   -0.2822    1.2637   -0.8011 H   0  0  0  0  0  0  0  0  0  0  0  0
    0.6624    0.1794   -2.3725 C   0  0  0  0  0  0  0  0  0  0  0  0
    0.3403   -0.2474   -3.6698 C   0  0  0  0  0  0  0  0  0  0  0  0
   -0.6852   -0.4920   -3.9276 H   0  0  0  0  0  0  0  0  0  0  0  0
    1.3370   -0.3638   -4.6452 C   0  0  0  0  0  0  0  0  0  0  0  0
    1.0815   -0.6945   -5.6475 H   0  0  0  0  0  0  0  0  0  0  0  0
    2.6642   -0.0562   -4.3301 C   0  0  0  0  0  0  0  0  0  0  0  0
    3.4392   -0.1474   -5.0855 H   0  0  0  0  0  0  0  0  0  0  0  0
    2.9941    0.3651   -3.0385 C   0  0  0  0  0  0  0  0  0  0  0  0
    4.0245    0.5985   -2.7866 H   0  0  0  0  0  0  0  0  0  0  0  0
    1.9971    0.4820   -2.0648 C   0  0  0  0  0  0  0  0  0  0  0  0
    2.2650    0.8006   -1.0602 H   0  0  0  0  0  0  0  0  0  0  0  0
    0.1068   -0.3190    1.0858 C   0  0  0  0  0  0  0  0  0  0  0  0
    1.2937   -0.1931    1.3590 O   0  0  0  0  0  0  0  0  0  0  0  0
   -0.8348    0.2909    1.8956 N   0  0  0  0  0  0  0  0  0  0  0  0
   -1.8048    0.0840    1.6821 H   0  0  0  0  0  0  0  0  0  0  0  0
   -0.5092    0.8421    3.2048 C   0  0  0  0  0  0  0  0  0  0  0  0
    0.2541    1.6221    3.1140 H   0  0  0  0  0  0  0  0  0  0  0  0
   -1.3997    1.2845    3.6611 H   0  0  0  0  0  0  0  0  0  0  0  0
   -0.1325    0.0556    3.8674 H   0  0  0  0  0  0  0  0  0  0  0  0
  1  2  1  0  0  0  0
  2  3  1  0  0  0  0
  2  4  1  0  0  0  0
  2  5  1  0  0  0  0
  5  6  2  0  0  0  0
  5  7  1  0  0  0  0
  7  8  1  0  0  0  0
  7  9  1  0  0  0  0
  9 10  1  0  0  0  0
  9 11  1  0  0  0  0
  9 25  1  0  0  0  0
 11 12  1  0  0  0  0
 11 13  1  0  0  0  0
 11 14  1  0  0  0  0
 14 15  1  0  0  0  0
 14 23  2  0  0  0  0
 15 16  1  0  0  0  0
 15 17  2  0  0  0  0
 17 18  1  0  0  0  0
 17 19  1  0  0  0  0
 19 20  1  0  0  0  0
 19 21  2  0  0  0  0
 21 22  1  0  0  0  0
 21 23  1  0  0  0  0
 23 24  1  0  0  0  0
 25 26  2  0  0  0  0
 25 27  1  0  0  0  0
 27 28  1  0  0  0  0
 27 29  1  0  0  0  0
 29 30  1  0  0  0  0
 29 31  1  0  0  0  0
 29 32  1  0  0  0  0
M  END
$$$$

  -OEChem-03222214073D

 32 32  0     1  0  0  0  0  0999 V2000
   -3.0777   -4.4672    0.8413 H   0  0  0  0  0  0  0  0  0  0  0  0
   -3.0725   -3.5792    0.2026 C   0  0  0  0  0  0  0  0  0  0  0  0
   -3.9534   -2.9753    0.4328 H   0  0  0  0  0  0  0  0  0  0  0  0
   -3.1190   -3.8989   -0.8411 H   0  0  0  0  0  0  0  0  0  0  0  0
   -1.8109   -2.7714    0.4438 C   0  0  0  0  0  0  0  0  0  0  0  0
   -1.0213   -3.1271    1.2996 O   0  0  0  0  0  0  0  0  0  0  0  0
   -1.5773   -1.6298   -0.2988 N   0  0  0  0  0  0  0  0  0  0  0  0
   -2.2136   -1.4638   -1.0725 H   0  0  0  0  0  0  0  0  0  0  0  0
   -0.3031   -0.8823   -0.2834 C   0  0  1  0  0  0  0  0  0  0  0  0
    0.4876   -1.5807   -0.5809 H   0  0  0  0  0  0  0  0  0  0  0  0
   -0.3775    0.2753   -1.3082 C   0  0  0  0  0  0  0  0  0  0  0  0
   -1.3645    0.3012   -1.7796 H   0  0  0  0  0  0  0  0  0  0  0  0
   -0.2486    1.2380   -0.8014 H   0  0  0  0  0  0  0  0  0  0  0  0
    0.6894    0.1538   -2.3719 C   0  0  0  0  0  0  0  0  0  0  0  0
    0.3391    0.0365   -3.7263 C   0  0  0  0  0  0  0  0  0  0  0  0
   -0.7047    0.0159   -4.0232 H   0  0  0  0  0  0  0  0  0  0  0  0
    1.3289   -0.0577   -4.7113 C   0  0  0  0  0  0  0  0  0  0  0  0
    1.0491   -0.1527   -5.7563 H   0  0  0  0  0  0  0  0  0  0  0  0
    2.6795   -0.0263   -4.3519 C   0  0  0  0  0  0  0  0  0  0  0  0
    3.4489   -0.0995   -5.1148 H   0  0  0  0  0  0  0  0  0  0  0  0
    3.0390    0.1032   -3.0075 C   0  0  0  0  0  0  0  0  0  0  0  0
    4.0868    0.1318   -2.7227 H   0  0  0  0  0  0  0  0  0  0  0  0
    2.0490    0.1971   -2.0242 C   0  0  0  0  0  0  0  0  0  0  0  0
    2.3445    0.3027   -0.9833 H   0  0  0  0  0  0  0  0  0  0  0  0
    0.1029   -0.3348    1.1037 C   0  0  0  0  0  0  0  0  0  0  0  0
    1.2874   -0.2396    1.3980 O   0  0  0  0  0  0  0  0  0  0  0  0
   -0.8385    0.2911    1.9016 N   0  0  0  0  0  0  0  0  0  0  0  0
   -1.8094    0.1022    1.6751 H   0  0  0  0  0  0  0  0  0  0  0  0
   -0.5199    0.8336    3.2165 C   0  0  0  0  0  0  0  0  0  0  0  0
    0.2622    1.5962    3.1381 H   0  0  0  0  0  0  0  0  0  0  0  0
   -1.4066    1.2955    3.6606 H   0  0  0  0  0  0  0  0  0  0  0  0
   -0.1707    0.0382    3.8833 H   0  0  0  0  0  0  0  0  0  0  0  0
  1  2  1  0  0  0  0
  2  3  1  0  0  0  0
  2  4  1  0  0  0  0
  2  5  1  0  0  0  0
  5  6  2  0  0  0  0
  5  7  1  0  0  0  0
  7  8  1  0  0  0  0
  7  9  1  0  0  0  0
  9 10  1  0  0  0  0
  9 11  1  0  0  0  0
  9 25  1  0  0  0  0
 11 12  1  0  0  0  0
 11 13  1  0  0  0  0
 11 14  1  0  0  0  0
 14 15  1  0  0  0  0
 14 23  2  0  0  0  0
 15 16  1  0  0  0  0
 15 17  2  0  0  0  0
 17 18  1  0  0  0  0
 17 19  1  0  0  0  0
 19 20  1  0  0  0  0
 19 21  2  0  0  0  0
 21 22  1  0  0  0  0
 21 23  1  0  0  0  0
 23 24  1  0  0  0  0
 25 26  2  0  0  0  0
 25 27  1  0  0  0  0
 27 28  1  0  0  0  0
 27 29  1  0  0  0  0
 29 30  1  0  0  0  0
 29 31  1  0  0  0  0
 29 32  1  0  0  0  0
M  END
$$$$

  -OEChem-03222214073D

 32 32  0     1  0  0  0  0  0999 V2000
   -3.1337   -4.4574    0.8454 H   0  0  0  0  0  0  0  0  0  0  0  0
   -3.1079   -3.5729    0.2022 C   0  0  0  0  0  0  0  0  0  0  0  0
   -3.9879   -2.9601    0.4113 H   0  0  0  0  0  0  0  0  0  0  0  0
   -3.1361   -3.8977   -0.8407 H   0  0  0  0  0  0  0  0  0  0  0  0
   -1.8442   -2.7747    0.4637 C   0  0  0  0  0  0  0  0  0  0  0  0
   -1.0727   -3.1339    1.3345 O   0  0  0  0  0  0  0  0  0  0  0  0
   -1.5840   -1.6428   -0.2850 N   0  0  0  0  0  0  0  0  0  0  0  0
   -2.2046   -1.4783   -1.0718 H   0  0  0  0  0  0  0  0  0  0  0  0
   -0.2991   -0.9138   -0.2606 C   0  0  1  0  0  0  0  0  0  0  0  0
    0.4795   -1.6310   -0.5418 H   0  0  0  0  0  0  0  0  0  0  0  0
   -0.3506    0.2345   -1.3000 C   0  0  0  0  0  0  0  0  0  0  0  0
   -1.3364    0.2629   -1.7739 H   0  0  0  0  0  0  0  0  0  0  0  0
   -0.2189    1.1989   -0.7972 H   0  0  0  0  0  0  0  0  0  0  0  0
    0.7156    0.1185   -2.3692 C   0  0  0  0  0  0  0  0  0  0  0  0
    0.3815    0.3201   -3.7183 C   0  0  0  0  0  0  0  0  0  0  0  0
   -0.6457    0.5244   -4.0038 H   0  0  0  0  0  0  0  0  0  0  0  0
    1.3620    0.2567   -4.7146 C   0  0  0  0  0  0  0  0  0  0  0  0
    1.0900    0.4038   -5.7556 H   0  0  0  0  0  0  0  0  0  0  0  0
    2.6940    0.0106   -4.3709 C   0  0  0  0  0  0  0  0  0  0  0  0
    3.4571   -0.0372   -5.1422 H   0  0  0  0  0  0  0  0  0  0  0  0
    3.0448   -0.1620   -3.0295 C   0  0  0  0  0  0  0  0  0  0  0  0
    4.0808   -0.3387   -2.7548 H   0  0  0  0  0  0  0  0  0  0  0  0
    2.0636   -0.0992   -2.0350 C   0  0  0  0  0  0  0  0  0  0  0  0
    2.3625   -0.2148   -0.9963 H   0  0  0  0  0  0  0  0  0  0  0  0
    0.1023   -0.3589    1.1248 C   0  0  0  0  0  0  0  0  0  0  0  0
    1.2852   -0.2851    1.4313 O   0  0  0  0  0  0  0  0  0  0  0  0
   -0.8367    0.2891    1.9075 N   0  0  0  0  0  0  0  0  0  0  0  0
   -1.8083    0.1180    1.6706 H   0  0  0  0  0  0  0  0  0  0  0  0
   -0.5225    0.8437    3.2184 C   0  0  0  0  0  0  0  0  0  0  0  0
    0.2667    1.5985    3.1364 H   0  0  0  0  0  0  0  0  0  0  0  0
   -1.4083    1.3187    3.6505 H   0  0  0  0  0  0  0  0  0  0  0  0
   -0.1853    0.0531    3.8971 H   0  0  0  0  0  0  0  0  0  0  0  0
  1  2  1  0  0  0  0
  2  3  1  0  0  0  0
  2  4  1  0  0  0  0
  2  5  1  0  0  0  0
  5  6  2  0  0  0  0
  5  7  1  0  0  0  0
  7  8  1  0  0  0  0
  7  9  1  0  0  0  0
  9 10  1  0  0  0  0
  9 11  1  0  0  0  0
  9 25  1  0  0  0  0
 11 12  1  0  0  0  0
 11 13  1  0  0  0  0
 11 14  1  0  0  0  0
 14 15  1  0  0  0  0
 14 23  2  0  0  0  0
 15 16  1  0  0  0  0
 15 17  2  0  0  0  0
 17 18  1  0  0  0  0
 17 19  1  0  0  0  0
 19 20  1  0  0  0  0
 19 21  2  0  0  0  0
 21 22  1  0  0  0  0
 21 23  1  0  0  0  0
 23 24  1  0  0  0  0
 25 26  2  0  0  0  0
 25 27  1  0  0  0  0
 27 28  1  0  0  0  0
 27 29  1  0  0  0  0
 29 30  1  0  0  0  0
 29 31  1  0  0  0  0
 29 32  1  0  0  0  0
M  END
$$$$

  -OEChem-03222214073D

 32 32  0     1  0  0  0  0  0999 V2000
   -3.1976   -4.4406    0.8755 H   0  0  0  0  0  0  0  0  0  0  0  0
   -3.1557   -3.5628    0.2240 C   0  0  0  0  0  0  0  0  0  0  0  0
   -4.0243   -2.9322    0.4275 H   0  0  0  0  0  0  0  0  0  0  0  0
   -3.1895   -3.8960   -0.8162 H   0  0  0  0  0  0  0  0  0  0  0  0
   -1.8785   -2.7847    0.4787 C   0  0  0  0  0  0  0  0  0  0  0  0
   -1.1129   -3.1485    1.3530 O   0  0  0  0  0  0  0  0  0  0  0  0
   -1.6004   -1.6616   -0.2765 N   0  0  0  0  0  0  0  0  0  0  0  0
   -2.2170   -1.4904   -1.0651 H   0  0  0  0  0  0  0  0  0  0  0  0
   -0.3080   -0.9472   -0.2459 C   0  0  1  0  0  0  0  0  0  0  0  0
    0.4521   -1.6889   -0.5073 H   0  0  0  0  0  0  0  0  0  0  0  0
   -0.3301    0.1866   -1.3047 C   0  0  0  0  0  0  0  0  0  0  0  0
   -1.3108    0.2125   -1.7895 H   0  0  0  0  0  0  0  0  0  0  0  0
   -0.2031    1.1543   -0.8072 H   0  0  0  0  0  0  0  0  0  0  0  0
    0.7384    0.0786   -2.3764 C   0  0  0  0  0  0  0  0  0  0  0  0
    0.4722    0.5858   -3.6592 C   0  0  0  0  0  0  0  0  0  0  0  0
   -0.5048    0.9991   -3.8902 H   0  0  0  0  0  0  0  0  0  0  0  0
    1.4496    0.5602   -4.6603 C   0  0  0  0  0  0  0  0  0  0  0  0
    1.2232    0.9406   -5.6520 H   0  0  0  0  0  0  0  0  0  0  0  0
    2.7213    0.0539   -4.3825 C   0  0  0  0  0  0  0  0  0  0  0  0
    3.4829    0.0354   -5.1563 H   0  0  0  0  0  0  0  0  0  0  0  0
    3.0177   -0.4098   -3.0989 C   0  0  0  0  0  0  0  0  0  0  0  0
    4.0128   -0.7801   -2.8697 H   0  0  0  0  0  0  0  0  0  0  0  0
    2.0391   -0.3840   -2.0999 C   0  0  0  0  0  0  0  0  0  0  0  0
    2.3163   -0.7117   -1.1014 H   0  0  0  0  0  0  0  0  0  0  0  0
    0.0956   -0.3833    1.1340 C   0  0  0  0  0  0  0  0  0  0  0  0
    1.2789   -0.3254    1.4420 O   0  0  0  0  0  0  0  0  0  0  0  0
   -0.8374    0.2846    1.9068 N   0  0  0  0  0  0  0  0  0  0  0  0
   -1.8105    0.1191    1.6721 H   0  0  0  0  0  0  0  0  0  0  0  0
   -0.5188    0.8528    3.2105 C   0  0  0  0  0  0  0  0  0  0  0  0
    0.2864    1.5897    3.1216 H   0  0  0  0  0  0  0  0  0  0  0  0
   -1.3967    1.3530    3.6299 H   0  0  0  0  0  0  0  0  0  0  0  0
   -0.2016    0.0660    3.9028 H   0  0  0  0  0  0  0  0  0  0  0  0
  1  2  1  0  0  0  0
  2  3  1  0  0  0  0
  2  4  1  0  0  0  0
  2  5  1  0  0  0  0
  5  6  2  0  0  0  0
  5  7  1  0  0  0  0
  7  8  1  0  0  0  0
  7  9  1  0  0  0  0
  9 10  1  0  0  0  0
  9 11  1  0  0  0  0
  9 25  1  0  0  0  0
 11 12  1  0  0  0  0
 11 13  1  0  0  0  0
 11 14  1  0  0  0  0
 14 15  1  0  0  0  0
 14 23  2  0  0  0  0
 15 16  1  0  0  0  0
 15 17  2  0  0  0  0
 17 18  1  0  0  0  0
 17 19  1  0  0  0  0
 19 20  1  0  0  0  0
 19 21  2  0  0  0  0
 21 22  1  0  0  0  0
 21 23  1  0  0  0  0
 23 24  1  0  0  0  0
 25 26  2  0  0  0  0
 25 27  1  0  0  0  0
 27 28  1  0  0  0  0
 27 29  1  0  0  0  0
 29 30  1  0  0  0  0
 29 31  1  0  0  0  0
 29 32  1  0  0  0  0
M  END
$$$$

  -OEChem-03222214073D

 32 32  0     1  0  0  0  0  0999 V2000
   -3.2642   -4.4232    0.9009 H   0  0  0  0  0  0  0  0  0  0  0  0
   -3.2049   -3.5486    0.2465 C   0  0  0  0  0  0  0  0  0  0  0  0
   -4.0642   -2.9030    0.4433 H   0  0  0  0  0  0  0  0  0  0  0  0
   -3.2404   -3.8860   -0.7923 H   0  0  0  0  0  0  0  0  0  0  0  0
   -1.9159   -2.7902    0.5041 C   0  0  0  0  0  0  0  0  0  0  0  0
   -1.1651   -3.1565    1.3900 O   0  0  0  0  0  0  0  0  0  0  0  0
   -1.6084   -1.6832   -0.2635 N   0  0  0  0  0  0  0  0  0  0  0  0
   -2.2157   -1.5074   -1.0584 H   0  0  0  0  0  0  0  0  0  0  0  0
   -0.3064   -0.9865   -0.2234 C   0  0  1  0  0  0  0  0  0  0  0  0
    0.4382   -1.7503   -0.4531 H   0  0  0  0  0  0  0  0  0  0  0  0
   -0.2977    0.1287   -1.3039 C   0  0  0  0  0  0  0  0  0  0  0  0
   -1.2729    0.1532   -1.7998 H   0  0  0  0  0  0  0  0  0  0  0  0
   -0.1772    1.1006   -0.8127 H   0  0  0  0  0  0  0  0  0  0  0  0
    0.7695    0.0351   -2.3828 C   0  0  0  0  0  0  0  0  0  0  0  0
    0.6026    0.8229   -3.5346 C   0  0  0  0  0  0  0  0  0  0  0  0
   -0.2945    1.4226   -3.6559 H   0  0  0  0  0  0  0  0  0  0  0  0
    1.5692    0.8435   -4.5455 C   0  0  0  0  0  0  0  0  0  0  0  0
    1.4125    1.4450   -5.4360 H   0  0  0  0  0  0  0  0  0  0  0  0
    2.7414    0.0987   -4.4052 C   0  0  0  0  0  0  0  0  0  0  0  0
    3.4959    0.1142   -5.1862 H   0  0  0  0  0  0  0  0  0  0  0  0
    2.9516   -0.6474   -3.2441 C   0  0  0  0  0  0  0  0  0  0  0  0
    3.8765   -1.2020   -3.1150 H   0  0  0  0  0  0  0  0  0  0  0  0
    1.9837   -0.6666   -2.2341 C   0  0  0  0  0  0  0  0  0  0  0  0
    2.2233   -1.2145   -1.3287 H   0  0  0  0  0  0  0  0  0  0  0  0
    0.0894   -0.4042    1.1500 C   0  0  0  0  0  0  0  0  0  0  0  0
    1.2698   -0.3618    1.4711 O   0  0  0  0  0  0  0  0  0  0  0  0
   -0.8419    0.2917    1.8995 N   0  0  0  0  0  0  0  0  0  0  0  0
   -1.8147    0.1401    1.6545 H   0  0  0  0  0  0  0  0  0  0  0  0
   -0.5301    0.8753    3.1976 C   0  0  0  0  0  0  0  0  0  0  0  0
    0.2936    1.5914    3.1085 H   0  0  0  0  0  0  0  0  0  0  0  0
   -1.4025    1.4031    3.5941 H   0  0  0  0  0  0  0  0  0  0  0  0
   -0.2420    0.0936    3.9082 H   0  0  0  0  0  0  0  0  0  0  0  0
  1  2  1  0  0  0  0
  2  3  1  0  0  0  0
  2  4  1  0  0  0  0
  2  5  1  0  0  0  0
  5  6  2  0  0  0  0
  5  7  1  0  0  0  0
  7  8  1  0  0  0  0
  7  9  1  0  0  0  0
  9 10  1  0  0  0  0
  9 11  1  0  0  0  0
  9 25  1  0  0  0  0
 11 12  1  0  0  0  0
 11 13  1  0  0  0  0
 11 14  1  0  0  0  0
 14 15  1  0  0  0  0
 14 23  2  0  0  0  0
 15 16  1  0  0  0  0
 15 17  2  0  0  0  0
 17 18  1  0  0  0  0
 17 19  1  0  0  0  0
 19 20  1  0  0  0  0
 19 21  2  0  0  0  0
 21 22  1  0  0  0  0
 21 23  1  0  0  0  0
 23 24  1  0  0  0  0
 25 26  2  0  0  0  0
 25 27  1  0  0  0  0
 27 28  1  0  0  0  0
 27 29  1  0  0  0  0
 29 30  1  0  0  0  0
 29 31  1  0  0  0  0
 29 32  1  0  0  0  0
M  END
$$$$

  -OEChem-03222214073D

 32 32  0     1  0  0  0  0  0999 V2000
   -3.2345   -4.3982    0.9915 H   0  0  0  0  0  0  0  0  0  0  0  0
   -3.1536   -3.5460    0.3104 C   0  0  0  0  0  0  0  0  0  0  0  0
   -4.0111   -2.8875    0.4679 H   0  0  0  0  0  0  0  0  0  0  0  0
   -3.1696   -3.9162   -0.7176 H   0  0  0  0  0  0  0  0  0  0  0  0
   -1.8638   -2.7906    0.5717 C   0  0  0  0  0  0  0  0  0  0  0  0
   -1.1406   -3.1312    1.4901 O   0  0  0  0  0  0  0  0  0  0  0  0
   -1.5214   -1.7219   -0.2347 N   0  0  0  0  0  0  0  0  0  0  0  0
   -2.0998   -1.5789   -1.0577 H   0  0  0  0  0  0  0  0  0  0  0  0
   -0.2186   -1.0271   -0.1841 C   0  0  1  0  0  0  0  0  0  0  0  0
    0.5811   -1.7508   -0.3429 H   0  0  0  0  0  0  0  0  0  0  0  0
   -0.2139    0.0888   -1.2623 C   0  0  0  0  0  0  0  0  0  0  0  0
   -1.2455    0.3265   -1.5410 H   0  0  0  0  0  0  0  0  0  0  0  0
    0.2009    0.9983   -0.8127 H   0  0  0  0  0  0  0  0  0  0  0  0
    0.5869   -0.1484   -2.5347 C   0  0  0  0  0  0  0  0  0  0  0  0
    0.5730    0.8807   -3.4913 C   0  0  0  0  0  0  0  0  0  0  0  0
    0.0282    1.7983   -3.2896 H   0  0  0  0  0  0  0  0  0  0  0  0
    1.2562    0.7553   -4.7049 C   0  0  0  0  0  0  0  0  0  0  0  0
    1.2381    1.5677   -5.4254 H   0  0  0  0  0  0  0  0  0  0  0  0
    1.9635   -0.4137   -4.9888 C   0  0  0  0  0  0  0  0  0  0  0  0
    2.4978   -0.5137   -5.9291 H   0  0  0  0  0  0  0  0  0  0  0  0
    1.9804   -1.4547   -4.0589 C   0  0  0  0  0  0  0  0  0  0  0  0
    2.5271   -2.3671   -4.2784 H   0  0  0  0  0  0  0  0  0  0  0  0
    1.2962   -1.3284   -2.8445 C   0  0  0  0  0  0  0  0  0  0  0  0
    1.3410   -2.1764   -2.1723 H   0  0  0  0  0  0  0  0  0  0  0  0
    0.0843   -0.3978    1.1953 C   0  0  0  0  0  0  0  0  0  0  0  0
    1.2396   -0.3320    1.5933 O   0  0  0  0  0  0  0  0  0  0  0  0
   -0.8978    0.3147    1.8607 N   0  0  0  0  0  0  0  0  0  0  0  0
   -1.8514    0.1505    1.5558 H   0  0  0  0  0  0  0  0  0  0  0  0
   -0.6756    0.9378    3.1591 C   0  0  0  0  0  0  0  0  0  0  0  0
    0.1372    1.6691    3.0996 H   0  0  0  0  0  0  0  0  0  0  0  0
   -1.5806    1.4560    3.4897 H   0  0  0  0  0  0  0  0  0  0  0  0
   -0.4145    0.1808    3.9060 H   0  0  0  0  0  0  0  0  0  0  0  0
  1  2  1  0  0  0  0
  2  3  1  0  0  0  0
  2  4  1  0  0  0  0
  2  5  1  0  0  0  0
  5  6  2  0  0  0  0
  5  7  1  0  0  0  0
  7  8  1  0  0  0  0
  7  9  1  0  0  0  0
  9 10  1  0  0  0  0
  9 11  1  0  0  0  0
  9 25  1  0  0  0  0
 11 12  1  0  0  0  0
 11 13  1  0  0  0  0
 11 14  1  0  0  0  0
 14 15  1  0  0  0  0
 14 23  2  0  0  0  0
 15 16  1  0  0  0  0
 15 17  2  0  0  0  0
 17 18  1  0  0  0  0
 17 19  1  0  0  0  0
 19 20  1  0  0  0  0
 19 21  2  0  0  0  0
 21 22  1  0  0  0  0
 21 23  1  0  0  0  0
 23 24  1  0  0  0  0
 25 26  2  0  0  0  0
 25 27  1  0  0  0  0
 27 28  1  0  0  0  0
 27 29  1  0  0  0  0
 29 30  1  0  0  0  0
 29 31  1  0  0  0  0
 29 32  1  0  0  0  0
M  END
$$$$

  -OEChem-03222214073D

 32 32  0     1  0  0  0  0  0999 V2000
   -3.1924   -4.4095    0.9722 H   0  0  0  0  0  0  0  0  0  0  0  0
   -3.1189   -3.5546    0.2935 C   0  0  0  0  0  0  0  0  0  0  0  0
   -3.9778   -2.9000    0.4591 H   0  0  0  0  0  0  0  0  0  0  0  0
   -3.1415   -3.9213   -0.7357 H   0  0  0  0  0  0  0  0  0  0  0  0
   -1.8296   -2.7953    0.5471 C   0  0  0  0  0  0  0  0  0  0  0  0
   -1.0871   -3.1478    1.4452 O   0  0  0  0  0  0  0  0  0  0  0  0
   -1.5084   -1.7105   -0.2461 N   0  0  0  0  0  0  0  0  0  0  0  0
   -2.1083   -1.5481   -1.0497 H   0  0  0  0  0  0  0  0  0  0  0  0
   -0.2161   -0.9963   -0.1985 C   0  0  1  0  0  0  0  0  0  0  0  0
    0.6005   -1.6996   -0.3807 H   0  0  0  0  0  0  0  0  0  0  0  0
   -0.2337    0.1291   -1.2641 C   0  0  0  0  0  0  0  0  0  0  0  0
   -1.2659    0.3542   -1.5497 H   0  0  0  0  0  0  0  0  0  0  0  0
    0.1694    1.0425   -0.8116 H   0  0  0  0  0  0  0  0  0  0  0  0
    0.5746   -0.1278   -2.5246 C   0  0  0  0  0  0  0  0  0  0  0  0
    0.8538    0.9675   -3.3581 C   0  0  0  0  0  0  0  0  0  0  0  0
    0.5389    1.9648   -3.0654 H   0  0  0  0  0  0  0  0  0  0  0  0
    1.5470    0.8027   -4.5616 C   0  0  0  0  0  0  0  0  0  0  0  0
    1.7672    1.6650   -5.1841 H   0  0  0  0  0  0  0  0  0  0  0  0
    1.9558   -0.4706   -4.9627 C   0  0  0  0  0  0  0  0  0  0  0  0
    2.4972   -0.6010   -5.8951 H   0  0  0  0  0  0  0  0  0  0  0  0
    1.6587   -1.5771   -4.1643 C   0  0  0  0  0  0  0  0  0  0  0  0
    1.9644   -2.5703   -4.4802 H   0  0  0  0  0  0  0  0  0  0  0  0
    0.9636   -1.4106   -2.9614 C   0  0  0  0  0  0  0  0  0  0  0  0
    0.7313   -2.3029   -2.3907 H   0  0  0  0  0  0  0  0  0  0  0  0
    0.0916   -0.3806    1.1860 C   0  0  0  0  0  0  0  0  0  0  0  0
    1.2502   -0.2951    1.5705 O   0  0  0  0  0  0  0  0  0  0  0  0
   -0.8945    0.3077    1.8707 N   0  0  0  0  0  0  0  0  0  0  0  0
   -1.8486    0.1315    1.5747 H   0  0  0  0  0  0  0  0  0  0  0  0
   -0.6674    0.9196    3.1738 C   0  0  0  0  0  0  0  0  0  0  0  0
    0.1305    1.6673    3.1131 H   0  0  0  0  0  0  0  0  0  0  0  0
   -1.5782    1.4159    3.5221 H   0  0  0  0  0  0  0  0  0  0  0  0
   -0.3818    0.1589    3.9081 H   0  0  0  0  0  0  0  0  0  0  0  0
  1  2  1  0  0  0  0
  2  3  1  0  0  0  0
  2  4  1  0  0  0  0
  2  5  1  0  0  0  0
  5  6  2  0  0  0  0
  5  7  1  0  0  0  0
  7  8  1  0  0  0  0
  7  9  1  0  0  0  0
  9 10  1  0  0  0  0
  9 11  1  0  0  0  0
  9 25  1  0  0  0  0
 11 12  1  0  0  0  0
 11 13  1  0  0  0  0
 11 14  1  0  0  0  0
 14 15  1  0  0  0  0
 14 23  2  0  0  0  0
 15 16  1  0  0  0  0
 15 17  2  0  0  0  0
 17 18  1  0  0  0  0
 17 19  1  0  0  0  0
 19 20  1  0  0  0  0
 19 21  2  0  0  0  0
 21 22  1  0  0  0  0
 21 23  1  0  0  0  0
 23 24  1  0  0  0  0
 25 26  2  0  0  0  0
 25 27  1  0  0  0  0
 27 28  1  0  0  0  0
 27 29  1  0  0  0  0
 29 30  1  0  0  0  0
 29 31  1  0  0  0  0
 29 32  1  0  0  0  0
M  END
$$$$

  -OEChem-03222214073D

 32 32  0     1  0  0  0  0  0999 V2000
   -3.1547   -4.4306    0.9318 H   0  0  0  0  0  0  0  0  0  0  0  0
   -3.1045   -3.5557    0.2773 C   0  0  0  0  0  0  0  0  0  0  0  0
   -3.9592   -2.9089    0.4888 H   0  0  0  0  0  0  0  0  0  0  0  0
   -3.1566   -3.8909   -0.7614 H   0  0  0  0  0  0  0  0  0  0  0  0
   -1.8108   -2.7997    0.5148 C   0  0  0  0  0  0  0  0  0  0  0  0
   -1.0469   -3.1659    1.3891 O   0  0  0  0  0  0  0  0  0  0  0  0
   -1.5130   -1.6974   -0.2628 N   0  0  0  0  0  0  0  0  0  0  0  0
   -2.1394   -1.5109   -1.0405 H   0  0  0  0  0  0  0  0  0  0  0  0
   -0.2279   -0.9697   -0.2223 C   0  0  1  0  0  0  0  0  0  0  0  0
    0.5902   -1.6635   -0.4421 H   0  0  0  0  0  0  0  0  0  0  0  0
   -0.2672    0.1670   -1.2731 C   0  0  0  0  0  0  0  0  0  0  0  0
   -1.3009    0.3817   -1.5602 H   0  0  0  0  0  0  0  0  0  0  0  0
    0.1272    1.0823   -0.8175 H   0  0  0  0  0  0  0  0  0  0  0  0
    0.5434   -0.1089   -2.5249 C   0  0  0  0  0  0  0  0  0  0  0  0
    1.1138    0.9703   -3.2188 C   0  0  0  0  0  0  0  0  0  0  0  0
    1.0149    1.9801   -2.8314 H   0  0  0  0  0  0  0  0  0  0  0  0
    1.8234    0.7661   -4.4069 C   0  0  0  0  0  0  0  0  0  0  0  0
    2.2704    1.6104   -4.9235 H   0  0  0  0  0  0  0  0  0  0  0  0
    1.9575   -0.5228   -4.9287 C   0  0  0  0  0  0  0  0  0  0  0  0
    2.5103   -0.6827   -5.8499 H   0  0  0  0  0  0  0  0  0  0  0  0
    1.3742   -1.6045   -4.2644 C   0  0  0  0  0  0  0  0  0  0  0  0
    1.4709   -2.6067   -4.6718 H   0  0  0  0  0  0  0  0  0  0  0  0
    0.6638   -1.3984   -3.0769 C   0  0  0  0  0  0  0  0  0  0  0  0
    0.2070   -2.2564   -2.5942 H   0  0  0  0  0  0  0  0  0  0  0  0
    0.0970   -0.3748    1.1671 C   0  0  0  0  0  0  0  0  0  0  0  0
    1.2612   -0.2756    1.5308 O   0  0  0  0  0  0  0  0  0  0  0  0
   -0.8863    0.2904    1.8783 N   0  0  0  0  0  0  0  0  0  0  0  0
   -1.8430    0.1005    1.5996 H   0  0  0  0  0  0  0  0  0  0  0  0
   -0.6450    0.8923    3.1834 C   0  0  0  0  0  0  0  0  0  0  0  0
    0.1448    1.6480    3.1177 H   0  0  0  0  0  0  0  0  0  0  0  0
   -1.5545    1.3772    3.5496 H   0  0  0  0  0  0  0  0  0  0  0  0
   -0.3416    0.1281    3.9066 H   0  0  0  0  0  0  0  0  0  0  0  0
  1  2  1  0  0  0  0
  2  3  1  0  0  0  0
  2  4  1  0  0  0  0
  2  5  1  0  0  0  0
  5  6  2  0  0  0  0
  5  7  1  0  0  0  0
  7  8  1  0  0  0  0
  7  9  1  0  0  0  0
  9 10  1  0  0  0  0
  9 11  1  0  0  0  0
  9 25  1  0  0  0  0
 11 12  1  0  0  0  0
 11 13  1  0  0  0  0
 11 14  1  0  0  0  0
 14 15  1  0  0  0  0
 14 23  2  0  0  0  0
 15 16  1  0  0  0  0
 15 17  2  0  0  0  0
 17 18  1  0  0  0  0
 17 19  1  0  0  0  0
 19 20  1  0  0  0  0
 19 21  2  0  0  0  0
 21 22  1  0  0  0  0
 21 23  1  0  0  0  0
 23 24  1  0  0  0  0
 25 26  2  0  0  0  0
 25 27  1  0  0  0  0
 27 28  1  0  0  0  0
 27 29  1  0  0  0  0
 29 30  1  0  0  0  0
 29 31  1  0  0  0  0
 29 32  1  0  0  0  0
M  END
$$$$

  -OEChem-03222214073D

 32 32  0     1  0  0  0  0  0999 V2000
   -3.1267   -4.4460    0.9050 H   0  0  0  0  0  0  0  0  0  0  0  0
   -3.0972   -3.5612    0.2623 C   0  0  0  0  0  0  0  0  0  0  0  0
   -3.9511   -2.9234    0.5029 H   0  0  0  0  0  0  0  0  0  0  0  0
   -3.1714   -3.8824   -0.7795 H   0  0  0  0  0  0  0  0  0  0  0  0
   -1.8026   -2.8004    0.4811 C   0  0  0  0  0  0  0  0  0  0  0  0
   -1.0144   -3.1786    1.3283 O   0  0  0  0  0  0  0  0  0  0  0  0
   -1.5303   -1.6811   -0.2816 N   0  0  0  0  0  0  0  0  0  0  0  0
   -2.1835   -1.4727   -1.0309 H   0  0  0  0  0  0  0  0  0  0  0  0
   -0.2519   -0.9406   -0.2495 C   0  0  1  0  0  0  0  0  0  0  0  0
    0.5636   -1.6284   -0.5005 H   0  0  0  0  0  0  0  0  0  0  0  0
   -0.3063    0.2056   -1.2870 C   0  0  0  0  0  0  0  0  0  0  0  0
   -1.3412    0.4122   -1.5759 H   0  0  0  0  0  0  0  0  0  0  0  0
    0.0800    1.1235   -0.8299 H   0  0  0  0  0  0  0  0  0  0  0  0
    0.5073   -0.0882   -2.5299 C   0  0  0  0  0  0  0  0  0  0  0  0
    1.3467    0.9003   -3.0677 C   0  0  0  0  0  0  0  0  0  0  0  0
    1.4436    1.8631   -2.5746 H   0  0  0  0  0  0  0  0  0  0  0  0
    2.0773    0.6590   -4.2362 C   0  0  0  0  0  0  0  0  0  0  0  0
    2.7313    1.4284   -4.6357 H   0  0  0  0  0  0  0  0  0  0  0  0
    1.9677   -0.5719   -4.8885 C   0  0  0  0  0  0  0  0  0  0  0  0
    2.5377   -0.7603   -5.7937 H   0  0  0  0  0  0  0  0  0  0  0  0
    1.1228   -1.5586   -4.3737 C   0  0  0  0  0  0  0  0  0  0  0  0
    1.0343   -2.5140   -4.8821 H   0  0  0  0  0  0  0  0  0  0  0  0
    0.3931   -1.3161   -3.2049 C   0  0  0  0  0  0  0  0  0  0  0  0
   -0.2605   -2.0941   -2.8241 H   0  0  0  0  0  0  0  0  0  0  0  0
    0.0970   -0.3649    1.1416 C   0  0  0  0  0  0  0  0  0  0  0  0
    1.2675   -0.2579    1.4816 O   0  0  0  0  0  0  0  0  0  0  0  0
   -0.8772    0.2798    1.8835 N   0  0  0  0  0  0  0  0  0  0  0  0
   -1.8378    0.0871    1.6205 H   0  0  0  0  0  0  0  0  0  0  0  0
   -0.6138    0.8651    3.1922 C   0  0  0  0  0  0  0  0  0  0  0  0
    0.1715    1.6252    3.1222 H   0  0  0  0  0  0  0  0  0  0  0  0
   -1.5185    1.3411    3.5823 H   0  0  0  0  0  0  0  0  0  0  0  0
   -0.2937    0.0922    3.8989 H   0  0  0  0  0  0  0  0  0  0  0  0
  1  2  1  0  0  0  0
  2  3  1  0  0  0  0
  2  4  1  0  0  0  0
  2  5  1  0  0  0  0
  5  6  2  0  0  0  0
  5  7  1  0  0  0  0
  7  8  1  0  0  0  0
  7  9  1  0  0  0  0
  9 10  1  0  0  0  0
  9 11  1  0  0  0  0
  9 25  1  0  0  0  0
 11 12  1  0  0  0  0
 11 13  1  0  0  0  0
 11 14  1  0  0  0  0
 14 15  1  0  0  0  0
 14 23  2  0  0  0  0
 15 16  1  0  0  0  0
 15 17  2  0  0  0  0
 17 18  1  0  0  0  0
 17 19  1  0  0  0  0
 19 20  1  0  0  0  0
 19 21  2  0  0  0  0
 21 22  1  0  0  0  0
 21 23  1  0  0  0  0
 23 24  1  0  0  0  0
 25 26  2  0  0  0  0
 25 27  1  0  0  0  0
 27 28  1  0  0  0  0
 27 29  1  0  0  0  0
 29 30  1  0  0  0  0
 29 31  1  0  0  0  0
 29 32  1  0  0  0  0
M  END
$$$$

  -OEChem-03222214073D

 32 32  0     1  0  0  0  0  0999 V2000
   -3.1153   -4.4464    0.8845 H   0  0  0  0  0  0  0  0  0  0  0  0
   -3.0929   -3.5590    0.2452 C   0  0  0  0  0  0  0  0  0  0  0  0
   -3.9454   -2.9234    0.4966 H   0  0  0  0  0  0  0  0  0  0  0  0
   -3.1769   -3.8763   -0.7970 H   0  0  0  0  0  0  0  0  0  0  0  0
   -1.7973   -2.7972    0.4547 C   0  0  0  0  0  0  0  0  0  0  0  0
   -0.9984   -3.1804    1.2896 O   0  0  0  0  0  0  0  0  0  0  0  0
   -1.5407   -1.6667   -0.2969 N   0  0  0  0  0  0  0  0  0  0  0  0
   -2.2064   -1.4499   -1.0324 H   0  0  0  0  0  0  0  0  0  0  0  0
   -0.2663   -0.9191   -0.2705 C   0  0  1  0  0  0  0  0  0  0  0  0
    0.5473   -1.6019   -0.5434 H   0  0  0  0  0  0  0  0  0  0  0  0
   -0.3349    0.2347   -1.2958 C   0  0  0  0  0  0  0  0  0  0  0  0
   -1.3717    0.4372   -1.5810 H   0  0  0  0  0  0  0  0  0  0  0  0
    0.0492    1.1542   -0.8404 H   0  0  0  0  0  0  0  0  0  0  0  0
    0.4771   -0.0712   -2.5337 C   0  0  0  0  0  0  0  0  0  0  0  0
    1.5425    0.7618   -2.9085 C   0  0  0  0  0  0  0  0  0  0  0  0
    1.8060    1.6211   -2.2986 H   0  0  0  0  0  0  0  0  0  0  0  0
    2.2858    0.4911   -4.0625 C   0  0  0  0  0  0  0  0  0  0  0  0
    3.1131    1.1386   -4.3382 H   0  0  0  0  0  0  0  0  0  0  0  0
    1.9676   -0.6140   -4.8571 C   0  0  0  0  0  0  0  0  0  0  0  0
    2.5480   -0.8263   -5.7503 H   0  0  0  0  0  0  0  0  0  0  0  0
    0.9035   -1.4460   -4.4979 C   0  0  0  0  0  0  0  0  0  0  0  0
    0.6556   -2.3050   -5.1144 H   0  0  0  0  0  0  0  0  0  0  0  0
    0.1607   -1.1736   -3.3440 C   0  0  0  0  0  0  0  0  0  0  0  0
   -0.6615   -1.8293   -3.0775 H   0  0  0  0  0  0  0  0  0  0  0  0
    0.0997   -0.3573    1.1217 C   0  0  0  0  0  0  0  0  0  0  0  0
    1.2748   -0.2422    1.4433 O   0  0  0  0  0  0  0  0  0  0  0  0
   -0.8677    0.2736    1.8844 N   0  0  0  0  0  0  0  0  0  0  0  0
   -1.8307    0.0746    1.6353 H   0  0  0  0  0  0  0  0  0  0  0  0
   -0.5888    0.8444    3.1962 C   0  0  0  0  0  0  0  0  0  0  0  0
    0.1941    1.6069    3.1252 H   0  0  0  0  0  0  0  0  0  0  0  0
   -1.4893    1.3140    3.6033 H   0  0  0  0  0  0  0  0  0  0  0  0
   -0.2587    0.0638    3.8897 H   0  0  0  0  0  0  0  0  0  0  0  0
  1  2  1  0  0  0  0
  2  3  1  0  0  0  0
  2  4  1  0  0  0  0
  2  5  1  0  0  0  0
  5  6  2  0  0  0  0
  5  7  1  0  0  0  0
  7  8  1  0  0  0  0
  7  9  1  0  0  0  0
  9 10  1  0  0  0  0
  9 11  1  0  0  0  0
  9 25  1  0  0  0  0
 11 12  1  0  0  0  0
 11 13  1  0  0  0  0
 11 14  1  0  0  0  0
 14 15  1  0  0  0  0
 14 23  2  0  0  0  0
 15 16  1  0  0  0  0
 15 17  2  0  0  0  0
 17 18  1  0  0  0  0
 17 19  1  0  0  0  0
 19 20  1  0  0  0  0
 19 21  2  0  0  0  0
 21 22  1  0  0  0  0
 21 23  1  0  0  0  0
 23 24  1  0  0  0  0
 25 26  2  0  0  0  0
 25 27  1  0  0  0  0
 27 28  1  0  0  0  0
 27 29  1  0  0  0  0
 29 30  1  0  0  0  0
 29 31  1  0  0  0  0
 29 32  1  0  0  0  0
M  END
$$$$

  -OEChem-03222214073D

 32 32  0     1  0  0  0  0  0999 V2000
   -3.1046   -4.4599    0.8496 H   0  0  0  0  0  0  0  0  0  0  0  0
   -3.0846   -3.5745    0.2075 C   0  0  0  0  0  0  0  0  0  0  0  0
   -3.9559   -2.9556    0.4343 H   0  0  0  0  0  0  0  0  0  0  0  0
   -3.1353   -3.8972   -0.8353 H   0  0  0  0  0  0  0  0  0  0  0  0
   -1.8108   -2.7856    0.4460 C   0  0  0  0  0  0  0  0  0  0  0  0
   -1.0223   -3.1536    1.2974 O   0  0  0  0  0  0  0  0  0  0  0  0
   -1.5614   -1.6505   -0.3008 N   0  0  0  0  0  0  0  0  0  0  0  0
   -2.2102   -1.4578   -1.0576 H   0  0  0  0  0  0  0  0  0  0  0  0
   -0.2853   -0.9066   -0.2788 C   0  0  1  0  0  0  0  0  0  0  0  0
    0.5212   -1.5923   -0.5650 H   0  0  0  0  0  0  0  0  0  0  0  0
   -0.3562    0.2539   -1.2945 C   0  0  0  0  0  0  0  0  0  0  0  0
   -1.3934    0.4639   -1.5733 H   0  0  0  0  0  0  0  0  0  0  0  0
    0.0367    1.1720   -0.8432 H   0  0  0  0  0  0  0  0  0  0  0  0
    0.4512   -0.0645   -2.5292 C   0  0  0  0  0  0  0  0  0  0  0  0
    1.6944    0.5493   -2.7411 C   0  0  0  0  0  0  0  0  0  0  0  0
    2.0904    1.2470   -2.0081 H   0  0  0  0  0  0  0  0  0  0  0  0
    2.4429    0.2602   -3.8870 C   0  0  0  0  0  0  0  0  0  0  0  0
    3.4067    0.7374   -4.0383 H   0  0  0  0  0  0  0  0  0  0  0  0
    1.9530   -0.6453   -4.8328 C   0  0  0  0  0  0  0  0  0  0  0  0
    2.5361   -0.8716   -5.7207 H   0  0  0  0  0  0  0  0  0  0  0  0
    0.7142   -1.2612   -4.6312 C   0  0  0  0  0  0  0  0  0  0  0  0
    0.3345   -1.9662   -5.3647 H   0  0  0  0  0  0  0  0  0  0  0  0
   -0.0333   -0.9712   -3.4844 C   0  0  0  0  0  0  0  0  0  0  0  0
   -0.9917   -1.4579   -3.3382 H   0  0  0  0  0  0  0  0  0  0  0  0
    0.1015   -0.3524    1.1107 C   0  0  0  0  0  0  0  0  0  0  0  0
    1.2824   -0.2359    1.4111 O   0  0  0  0  0  0  0  0  0  0  0  0
   -0.8520    0.2789    1.8898 N   0  0  0  0  0  0  0  0  0  0  0  0
   -1.8193    0.0798    1.6575 H   0  0  0  0  0  0  0  0  0  0  0  0
   -0.5498    0.8521    3.1953 C   0  0  0  0  0  0  0  0  0  0  0  0
    0.2190    1.6268    3.1055 H   0  0  0  0  0  0  0  0  0  0  0  0
   -1.4468    1.3071    3.6256 H   0  0  0  0  0  0  0  0  0  0  0  0
   -0.1905    0.0760    3.8791 H   0  0  0  0  0  0  0  0  0  0  0  0
  1  2  1  0  0  0  0
  2  3  1  0  0  0  0
  2  4  1  0  0  0  0
  2  5  1  0  0  0  0
  5  6  2  0  0  0  0
  5  7  1  0  0  0  0
  7  8  1  0  0  0  0
  7  9  1  0  0  0  0
  9 10  1  0  0  0  0
  9 11  1  0  0  0  0
  9 25  1  0  0  0  0
 11 12  1  0  0  0  0
 11 13  1  0  0  0  0
 11 14  1  0  0  0  0
 14 15  1  0  0  0  0
 14 23  2  0  0  0  0
 15 16  1  0  0  0  0
 15 17  2  0  0  0  0
 17 18  1  0  0  0  0
 17 19  1  0  0  0  0
 19 20  1  0  0  0  0
 19 21  2  0  0  0  0
 21 22  1  0  0  0  0
 21 23  1  0  0  0  0
 23 24  1  0  0  0  0
 25 26  2  0  0  0  0
 25 27  1  0  0  0  0
 27 28  1  0  0  0  0
 27 29  1  0  0  0  0
 29 30  1  0  0  0  0
 29 31  1  0  0  0  0
 29 32  1  0  0  0  0
M  END
$$$$

  -OEChem-03222214073D

 32 32  0     1  0  0  0  0  0999 V2000
   -3.0979   -4.4675    0.8395 H   0  0  0  0  0  0  0  0  0  0  0  0
   -3.0825   -3.5805    0.1994 C   0  0  0  0  0  0  0  0  0  0  0  0
   -3.9609   -2.9702    0.4225 H   0  0  0  0  0  0  0  0  0  0  0  0
   -3.1236   -3.9007   -0.8445 H   0  0  0  0  0  0  0  0  0  0  0  0
   -1.8178   -2.7798    0.4470 C   0  0  0  0  0  0  0  0  0  0  0  0
   -1.0344   -3.1373    1.3078 O   0  0  0  0  0  0  0  0  0  0  0  0
   -1.5740   -1.6437   -0.3003 N   0  0  0  0  0  0  0  0  0  0  0  0
   -2.2099   -1.4719   -1.0726 H   0  0  0  0  0  0  0  0  0  0  0  0
   -0.2972   -0.9021   -0.2847 C   0  0  1  0  0  0  0  0  0  0  0  0
    0.5042   -1.5909   -0.5781 H   0  0  0  0  0  0  0  0  0  0  0  0
   -0.3702    0.2612   -1.2966 C   0  0  0  0  0  0  0  0  0  0  0  0
   -1.4087    0.4775   -1.5653 H   0  0  0  0  0  0  0  0  0  0  0  0
    0.0337    1.1773   -0.8507 H   0  0  0  0  0  0  0  0  0  0  0  0
    0.4312   -0.0625   -2.5322 C   0  0  0  0  0  0  0  0  0  0  0  0
    1.7874    0.2879   -2.6007 C   0  0  0  0  0  0  0  0  0  0  0  0
    2.2644    0.7838   -1.7591 H   0  0  0  0  0  0  0  0  0  0  0  0
    2.5403   -0.0098   -3.7411 C   0  0  0  0  0  0  0  0  0  0  0  0
    3.5915    0.2605   -3.7802 H   0  0  0  0  0  0  0  0  0  0  0  0
    1.9411   -0.6586   -4.8250 C   0  0  0  0  0  0  0  0  0  0  0  0
    2.5269   -0.8900   -5.7099 H   0  0  0  0  0  0  0  0  0  0  0  0
    0.5892   -1.0115   -4.7656 C   0  0  0  0  0  0  0  0  0  0  0  0
    0.1242   -1.5172   -5.6068 H   0  0  0  0  0  0  0  0  0  0  0  0
   -0.1624   -0.7149   -3.6230 C   0  0  0  0  0  0  0  0  0  0  0  0
   -1.2101   -0.9944   -3.5897 H   0  0  0  0  0  0  0  0  0  0  0  0
    0.1029   -0.3498    1.1009 C   0  0  0  0  0  0  0  0  0  0  0  0
    1.2877   -0.2322    1.3859 O   0  0  0  0  0  0  0  0  0  0  0  0
   -0.8416    0.2830    1.8892 N   0  0  0  0  0  0  0  0  0  0  0  0
   -1.8114    0.0836    1.6676 H   0  0  0  0  0  0  0  0  0  0  0  0
   -0.5247    0.8525    3.1926 C   0  0  0  0  0  0  0  0  0  0  0  0
    0.2527    1.6179    3.0982 H   0  0  0  0  0  0  0  0  0  0  0  0
   -1.4138    1.3179    3.6282 H   0  0  0  0  0  0  0  0  0  0  0  0
   -0.1697    0.0721    3.8739 H   0  0  0  0  0  0  0  0  0  0  0  0
  1  2  1  0  0  0  0
  2  3  1  0  0  0  0
  2  4  1  0  0  0  0
  2  5  1  0  0  0  0
  5  6  2  0  0  0  0
  5  7  1  0  0  0  0
  7  8  1  0  0  0  0
  7  9  1  0  0  0  0
  9 10  1  0  0  0  0
  9 11  1  0  0  0  0
  9 25  1  0  0  0  0
 11 12  1  0  0  0  0
 11 13  1  0  0  0  0
 11 14  1  0  0  0  0
 14 15  1  0  0  0  0
 14 23  2  0  0  0  0
 15 16  1  0  0  0  0
 15 17  2  0  0  0  0
 17 18  1  0  0  0  0
 17 19  1  0  0  0  0
 19 20  1  0  0  0  0
 19 21  2  0  0  0  0
 21 22  1  0  0  0  0
 21 23  1  0  0  0  0
 23 24  1  0  0  0  0
 25 26  2  0  0  0  0
 25 27  1  0  0  0  0
 27 28  1  0  0  0  0
 27 29  1  0  0  0  0
 29 30  1  0  0  0  0
 29 31  1  0  0  0  0
 29 32  1  0  0  0  0
M  END
$$$$

  -OEChem-03222214073D

 32 32  0     1  0  0  0  0  0999 V2000
   -3.1001   -4.4735    0.8303 H   0  0  0  0  0  0  0  0  0  0  0  0
   -3.0838   -3.5870    0.1898 C   0  0  0  0  0  0  0  0  0  0  0  0
   -3.9688   -2.9827    0.4028 H   0  0  0  0  0  0  0  0  0  0  0  0
   -3.1116   -3.9088   -0.8542 H   0  0  0  0  0  0  0  0  0  0  0  0
   -1.8275   -2.7769    0.4504 C   0  0  0  0  0  0  0  0  0  0  0  0
   -1.0514   -3.1270    1.3209 O   0  0  0  0  0  0  0  0  0  0  0  0
   -1.5828   -1.6412   -0.2971 N   0  0  0  0  0  0  0  0  0  0  0  0
   -2.2047   -1.4857   -1.0844 H   0  0  0  0  0  0  0  0  0  0  0  0
   -0.3037   -0.9039   -0.2828 C   0  0  1  0  0  0  0  0  0  0  0  0
    0.4924   -1.5978   -0.5770 H   0  0  0  0  0  0  0  0  0  0  0  0
   -0.3778    0.2597   -1.2955 C   0  0  0  0  0  0  0  0  0  0  0  0
   -1.4178    0.4832   -1.5529 H   0  0  0  0  0  0  0  0  0  0  0  0
    0.0377    1.1726   -0.8538 H   0  0  0  0  0  0  0  0  0  0  0  0
    0.4182   -0.0602   -2.5356 C   0  0  0  0  0  0  0  0  0  0  0  0
    1.8192   -0.0032   -2.5008 C   0  0  0  0  0  0  0  0  0  0  0  0
    2.3285    0.2692   -1.5794 H   0  0  0  0  0  0  0  0  0  0  0  0
    2.5701   -0.3038   -3.6418 C   0  0  0  0  0  0  0  0  0  0  0  0
    3.6546   -0.2601   -3.6017 H   0  0  0  0  0  0  0  0  0  0  0  0
    1.9249   -0.6617   -4.8293 C   0  0  0  0  0  0  0  0  0  0  0  0
    2.5088   -0.8940   -5.7152 H   0  0  0  0  0  0  0  0  0  0  0  0
    0.5285   -0.7205   -4.8733 C   0  0  0  0  0  0  0  0  0  0  0  0
    0.0274   -0.9982   -5.7958 H   0  0  0  0  0  0  0  0  0  0  0  0
   -0.2220   -0.4221   -3.7303 C   0  0  0  0  0  0  0  0  0  0  0  0
   -1.3051   -0.4711   -3.7791 H   0  0  0  0  0  0  0  0  0  0  0  0
    0.1054   -0.3514    1.1001 C   0  0  0  0  0  0  0  0  0  0  0  0
    1.2930   -0.2378    1.3762 O   0  0  0  0  0  0  0  0  0  0  0  0
   -0.8318    0.2865    1.8930 N   0  0  0  0  0  0  0  0  0  0  0  0
   -1.8036    0.0890    1.6781 H   0  0  0  0  0  0  0  0  0  0  0  0
   -0.5050    0.8566    3.1937 C   0  0  0  0  0  0  0  0  0  0  0  0
    0.2766    1.6173    3.0944 H   0  0  0  0  0  0  0  0  0  0  0  0
   -1.3892    1.3280    3.6330 H   0  0  0  0  0  0  0  0  0  0  0  0
   -0.1514    0.0754    3.8748 H   0  0  0  0  0  0  0  0  0  0  0  0
  1  2  1  0  0  0  0
  2  3  1  0  0  0  0
  2  4  1  0  0  0  0
  2  5  1  0  0  0  0
  5  6  2  0  0  0  0
  5  7  1  0  0  0  0
  7  8  1  0  0  0  0
  7  9  1  0  0  0  0
  9 10  1  0  0  0  0
  9 11  1  0  0  0  0
  9 25  1  0  0  0  0
 11 12  1  0  0  0  0
 11 13  1  0  0  0  0
 11 14  1  0  0  0  0
 14 15  1  0  0  0  0
 14 23  2  0  0  0  0
 15 16  1  0  0  0  0
 15 17  2  0  0  0  0
 17 18  1  0  0  0  0
 17 19  1  0  0  0  0
 19 20  1  0  0  0  0
 19 21  2  0  0  0  0
 21 22  1  0  0  0  0
 21 23  1  0  0  0  0
 23 24  1  0  0  0  0
 25 26  2  0  0  0  0
 25 27  1  0  0  0  0
 27 28  1  0  0  0  0
 27 29  1  0  0  0  0
 29 30  1  0  0  0  0
 29 31  1  0  0  0  0
 29 32  1  0  0  0  0
M  END
$$$$

  -OEChem-03222214073D

 32 32  0     1  0  0  0  0  0999 V2000
   -3.1111   -4.4745    0.8392 H   0  0  0  0  0  0  0  0  0  0  0  0
   -3.0926   -3.5885    0.1978 C   0  0  0  0  0  0  0  0  0  0  0  0
   -3.9784   -2.9839    0.4070 H   0  0  0  0  0  0  0  0  0  0  0  0
   -3.1164   -3.9114   -0.8458 H   0  0  0  0  0  0  0  0  0  0  0  0
   -1.8372   -2.7783    0.4626 C   0  0  0  0  0  0  0  0  0  0  0  0
   -1.0700   -3.1231    1.3433 O   0  0  0  0  0  0  0  0  0  0  0  0
   -1.5841   -1.6475   -0.2899 N   0  0  0  0  0  0  0  0  0  0  0  0
   -2.1938   -1.5017   -1.0889 H   0  0  0  0  0  0  0  0  0  0  0  0
   -0.3019   -0.9160   -0.2712 C   0  0  1  0  0  0  0  0  0  0  0  0
    0.4880   -1.6208   -0.5534 H   0  0  0  0  0  0  0  0  0  0  0  0
   -0.3688    0.2424   -1.2938 C   0  0  0  0  0  0  0  0  0  0  0  0
   -1.4093    0.4694   -1.5455 H   0  0  0  0  0  0  0  0  0  0  0  0
    0.0507    1.1535   -0.8523 H   0  0  0  0  0  0  0  0  0  0  0  0
    0.4260   -0.0601   -2.5422 C   0  0  0  0  0  0  0  0  0  0  0  0
    1.8065   -0.3047   -2.4631 C   0  0  0  0  0  0  0  0  0  0  0  0
    2.3124   -0.2647   -1.5009 H   0  0  0  0  0  0  0  0  0  0  0  0
    2.5442   -0.5970   -3.6146 C   0  0  0  0  0  0  0  0  0  0  0  0
    3.6113   -0.7853   -3.5392 H   0  0  0  0  0  0  0  0  0  0  0  0
    1.9086   -0.6450   -4.8586 C   0  0  0  0  0  0  0  0  0  0  0  0
    2.4823   -0.8703   -5.7528 H   0  0  0  0  0  0  0  0  0  0  0  0
    0.5350   -0.4003   -4.9492 C   0  0  0  0  0  0  0  0  0  0  0  0
    0.0415   -0.4354   -5.9159 H   0  0  0  0  0  0  0  0  0  0  0  0
   -0.2026   -0.1095   -3.7960 C   0  0  0  0  0  0  0  0  0  0  0  0
   -1.2678    0.0794   -3.8837 H   0  0  0  0  0  0  0  0  0  0  0  0
    0.1022   -0.3581    1.1106 C   0  0  0  0  0  0  0  0  0  0  0  0
    1.2892   -0.2563    1.3934 O   0  0  0  0  0  0  0  0  0  0  0  0
   -0.8349    0.2889    1.8960 N   0  0  0  0  0  0  0  0  0  0  0  0
   -1.8069    0.0949    1.6784 H   0  0  0  0  0  0  0  0  0  0  0  0
   -0.5105    0.8591    3.1973 C   0  0  0  0  0  0  0  0  0  0  0  0
    0.2807    1.6102    3.1012 H   0  0  0  0  0  0  0  0  0  0  0  0
   -1.3916    1.3426    3.6293 H   0  0  0  0  0  0  0  0  0  0  0  0
   -0.1711    0.0758    3.8831 H   0  0  0  0  0  0  0  0  0  0  0  0
  1  2  1  0  0  0  0
  2  3  1  0  0  0  0
  2  4  1  0  0  0  0
  2  5  1  0  0  0  0
  5  6  2  0  0  0  0
  5  7  1  0  0  0  0
  7  8  1  0  0  0  0
  7  9  1  0  0  0  0
  9 10  1  0  0  0  0
  9 11  1  0  0  0  0
  9 25  1  0  0  0  0
 11 12  1  0  0  0  0
 11 13  1  0  0  0  0
 11 14  1  0  0  0  0
 14 15  1  0  0  0  0
 14 23  2  0  0  0  0
 15 16  1  0  0  0  0
 15 17  2  0  0  0  0
 17 18  1  0  0  0  0
 17 19  1  0  0  0  0
 19 20  1  0  0  0  0
 19 21  2  0  0  0  0
 21 22  1  0  0  0  0
 21 23  1  0  0  0  0
 23 24  1  0  0  0  0
 25 26  2  0  0  0  0
 25 27  1  0  0  0  0
 27 28  1  0  0  0  0
 27 29  1  0  0  0  0
 29 30  1  0  0  0  0
 29 31  1  0  0  0  0
 29 32  1  0  0  0  0
M  END
$$$$

  -OEChem-03222214073D

 32 32  0     1  0  0  0  0  0999 V2000
   -3.1451   -4.4666    0.8569 H   0  0  0  0  0  0  0  0  0  0  0  0
   -3.1097   -3.5884    0.2058 C   0  0  0  0  0  0  0  0  0  0  0  0
   -3.9968   -2.9777    0.3900 H   0  0  0  0  0  0  0  0  0  0  0  0
   -3.1143   -3.9232   -0.8343 H   0  0  0  0  0  0  0  0  0  0  0  0
   -1.8557   -2.7815    0.4865 C   0  0  0  0  0  0  0  0  0  0  0  0
   -1.1057   -3.1227    1.3830 O   0  0  0  0  0  0  0  0  0  0  0  0
   -1.5790   -1.6624   -0.2751 N   0  0  0  0  0  0  0  0  0  0  0  0
   -2.1724   -1.5220   -1.0876 H   0  0  0  0  0  0  0  0  0  0  0  0
   -0.2896   -0.9430   -0.2432 C   0  0  1  0  0  0  0  0  0  0  0  0
    0.4915   -1.6650   -0.4978 H   0  0  0  0  0  0  0  0  0  0  0  0
   -0.3373    0.2043   -1.2840 C   0  0  0  0  0  0  0  0  0  0  0  0
   -1.3771    0.4332   -1.5372 H   0  0  0  0  0  0  0  0  0  0  0  0
    0.0805    1.1151   -0.8406 H   0  0  0  0  0  0  0  0  0  0  0  0
    0.4602   -0.0718   -2.5426 C   0  0  0  0  0  0  0  0  0  0  0  0
    1.7601   -0.6064   -2.4938 C   0  0  0  0  0  0  0  0  0  0  0  0
    2.2420   -0.8013   -1.5391 H   0  0  0  0  0  0  0  0  0  0  0  0
    2.4673   -0.8733   -3.6707 C   0  0  0  0  0  0  0  0  0  0  0  0
    3.4724   -1.2817   -3.6165 H   0  0  0  0  0  0  0  0  0  0  0  0
    1.8852   -0.6087   -4.9129 C   0  0  0  0  0  0  0  0  0  0  0  0
    2.4363   -0.8144   -5.8259 H   0  0  0  0  0  0  0  0  0  0  0  0
    0.5964   -0.0728   -4.9761 C   0  0  0  0  0  0  0  0  0  0  0  0
    0.1449    0.1377   -5.9411 H   0  0  0  0  0  0  0  0  0  0  0  0
   -0.1103    0.1937   -3.7981 C   0  0  0  0  0  0  0  0  0  0  0  0
   -1.1097    0.6119   -3.8678 H   0  0  0  0  0  0  0  0  0  0  0  0
    0.0975   -0.3717    1.1384 C   0  0  0  0  0  0  0  0  0  0  0  0
    1.2797   -0.2886    1.4456 O   0  0  0  0  0  0  0  0  0  0  0  0
   -0.8458    0.2945    1.9000 N   0  0  0  0  0  0  0  0  0  0  0  0
   -1.8160    0.1170    1.6614 H   0  0  0  0  0  0  0  0  0  0  0  0
   -0.5400    0.8771    3.2006 C   0  0  0  0  0  0  0  0  0  0  0  0
    0.2561    1.6236    3.1090 H   0  0  0  0  0  0  0  0  0  0  0  0
   -1.4262    1.3692    3.6124 H   0  0  0  0  0  0  0  0  0  0  0  0
   -0.2157    0.0999    3.9010 H   0  0  0  0  0  0  0  0  0  0  0  0
  1  2  1  0  0  0  0
  2  3  1  0  0  0  0
  2  4  1  0  0  0  0
  2  5  1  0  0  0  0
  5  6  2  0  0  0  0
  5  7  1  0  0  0  0
  7  8  1  0  0  0  0
  7  9  1  0  0  0  0
  9 10  1  0  0  0  0
  9 11  1  0  0  0  0
  9 25  1  0  0  0  0
 11 12  1  0  0  0  0
 11 13  1  0  0  0  0
 11 14  1  0  0  0  0
 14 15  1  0  0  0  0
 14 23  2  0  0  0  0
 15 16  1  0  0  0  0
 15 17  2  0  0  0  0
 17 18  1  0  0  0  0
 17 19  1  0  0  0  0
 19 20  1  0  0  0  0
 19 21  2  0  0  0  0
 21 22  1  0  0  0  0
 21 23  1  0  0  0  0
 23 24  1  0  0  0  0
 25 26  2  0  0  0  0
 25 27  1  0  0  0  0
 27 28  1  0  0  0  0
 27 29  1  0  0  0  0
 29 30  1  0  0  0  0
 29 31  1  0  0  0  0
 29 32  1  0  0  0  0
M  END
$$$$

  -OEChem-03222214073D

 32 32  0     1  0  0  0  0  0999 V2000
   -3.2015   -4.4437    0.9014 H   0  0  0  0  0  0  0  0  0  0  0  0
   -3.1409   -3.5762    0.2378 C   0  0  0  0  0  0  0  0  0  0  0  0
   -4.0184   -2.9461    0.4012 H   0  0  0  0  0  0  0  0  0  0  0  0
   -3.1387   -3.9265   -0.7971 H   0  0  0  0  0  0  0  0  0  0  0  0
   -1.8753   -2.7890    0.5223 C   0  0  0  0  0  0  0  0  0  0  0  0
   -1.1429   -3.1300    1.4334 O   0  0  0  0  0  0  0  0  0  0  0  0
   -1.5659   -1.6903   -0.2560 N   0  0  0  0  0  0  0  0  0  0  0  0
   -2.1457   -1.5526   -1.0786 H   0  0  0  0  0  0  0  0  0  0  0  0
   -0.2690   -0.9853   -0.2118 C   0  0  1  0  0  0  0  0  0  0  0  0
    0.5063   -1.7222   -0.4266 H   0  0  0  0  0  0  0  0  0  0  0  0
   -0.2909    0.1451   -1.2745 C   0  0  0  0  0  0  0  0  0  0  0  0
   -1.3285    0.3763   -1.5351 H   0  0  0  0  0  0  0  0  0  0  0  0
    0.1244    1.0562   -0.8296 H   0  0  0  0  0  0  0  0  0  0  0  0
    0.5088   -0.1054   -2.5425 C   0  0  0  0  0  0  0  0  0  0  0  0
    1.6743   -0.8959   -2.5880 C   0  0  0  0  0  0  0  0  0  0  0  0
    2.1027   -1.3283   -1.6895 H   0  0  0  0  0  0  0  0  0  0  0  0
    2.3455   -1.1136   -3.7962 C   0  0  0  0  0  0  0  0  0  0  0  0
    3.2472   -1.7190   -3.8120 H   0  0  0  0  0  0  0  0  0  0  0  0
    1.8662   -0.5454   -4.9783 C   0  0  0  0  0  0  0  0  0  0  0  0
    2.3902   -0.7138   -5.9145 H   0  0  0  0  0  0  0  0  0  0  0  0
    0.7174    0.2475   -4.9495 C   0  0  0  0  0  0  0  0  0  0  0  0
    0.3464    0.6969   -5.8659 H   0  0  0  0  0  0  0  0  0  0  0  0
    0.0471    0.4646   -3.7411 C   0  0  0  0  0  0  0  0  0  0  0  0
   -0.8438    1.0851   -3.7408 H   0  0  0  0  0  0  0  0  0  0  0  0
    0.0894   -0.3901    1.1678 C   0  0  0  0  0  0  0  0  0  0  0  0
    1.2631   -0.3197    1.5079 O   0  0  0  0  0  0  0  0  0  0  0  0
   -0.8655    0.3014    1.8917 N   0  0  0  0  0  0  0  0  0  0  0  0
   -1.8310    0.1308    1.6307 H   0  0  0  0  0  0  0  0  0  0  0  0
   -0.5872    0.9065    3.1879 C   0  0  0  0  0  0  0  0  0  0  0  0
    0.2202    1.6416    3.1032 H   0  0  0  0  0  0  0  0  0  0  0  0
   -1.4780    1.4170    3.5658 H   0  0  0  0  0  0  0  0  0  0  0  0
   -0.2911    0.1398    3.9116 H   0  0  0  0  0  0  0  0  0  0  0  0
  1  2  1  0  0  0  0
  2  3  1  0  0  0  0
  2  4  1  0  0  0  0
  2  5  1  0  0  0  0
  5  6  2  0  0  0  0
  5  7  1  0  0  0  0
  7  8  1  0  0  0  0
  7  9  1  0  0  0  0
  9 10  1  0  0  0  0
  9 11  1  0  0  0  0
  9 25  1  0  0  0  0
 11 12  1  0  0  0  0
 11 13  1  0  0  0  0
 11 14  1  0  0  0  0
 14 15  1  0  0  0  0
 14 23  2  0  0  0  0
 15 16  1  0  0  0  0
 15 17  2  0  0  0  0
 17 18  1  0  0  0  0
 17 19  1  0  0  0  0
 19 20  1  0  0  0  0
 19 21  2  0  0  0  0
 21 22  1  0  0  0  0
 21 23  1  0  0  0  0
 23 24  1  0  0  0  0
 25 26  2  0  0  0  0
 25 27  1  0  0  0  0
 27 28  1  0  0  0  0
 27 29  1  0  0  0  0
 29 30  1  0  0  0  0
 29 31  1  0  0  0  0
 29 32  1  0  0  0  0
M  END
$$$$

  -OEChem-03222214073D

 32 32  0     1  0  0  0  0  0999 V2000
   -3.2509   -4.4109    0.9805 H   0  0  0  0  0  0  0  0  0  0  0  0
   -3.1747   -3.5570    0.3012 C   0  0  0  0  0  0  0  0  0  0  0  0
   -4.0357   -2.9034    0.4598 H   0  0  0  0  0  0  0  0  0  0  0  0
   -3.1890   -3.9256   -0.7272 H   0  0  0  0  0  0  0  0  0  0  0  0
   -1.8886   -2.7958    0.5634 C   0  0  0  0  0  0  0  0  0  0  0  0
   -1.1621   -3.1344    1.4800 O   0  0  0  0  0  0  0  0  0  0  0  0
   -1.5561   -1.7199   -0.2371 N   0  0  0  0  0  0  0  0  0  0  0  0
   -2.1359   -1.5812   -1.0598 H   0  0  0  0  0  0  0  0  0  0  0  0
   -0.2524   -1.0268   -0.1958 C   0  0  1  0  0  0  0  0  0  0  0  0
    0.5268   -1.7665   -0.3744 H   0  0  0  0  0  0  0  0  0  0  0  0
   -0.2578    0.0867   -1.2779 C   0  0  0  0  0  0  0  0  0  0  0  0
   -1.2935    0.3218   -1.5435 H   0  0  0  0  0  0  0  0  0  0  0  0
    0.1601    0.9986   -0.8368 H   0  0  0  0  0  0  0  0  0  0  0  0
    0.5347   -0.1528   -2.5558 C   0  0  0  0  0  0  0  0  0  0  0  0
    1.5132   -1.1541   -2.7299 C   0  0  0  0  0  0  0  0  0  0  0  0
    1.8101   -1.8239   -1.9321 H   0  0  0  0  0  0  0  0  0  0  0  0
    2.1737   -1.3060   -3.9541 C   0  0  0  0  0  0  0  0  0  0  0  0
    2.9299   -2.0776   -4.0671 H   0  0  0  0  0  0  0  0  0  0  0  0
    1.8722   -0.4649   -5.0264 C   0  0  0  0  0  0  0  0  0  0  0  0
    2.3888   -0.5839   -5.9743 H   0  0  0  0  0  0  0  0  0  0  0  0
    0.9109    0.5347   -4.8715 C   0  0  0  0  0  0  0  0  0  0  0  0
    0.6768    1.1950   -5.7015 H   0  0  0  0  0  0  0  0  0  0  0  0
    0.2522    0.6867   -3.6473 C   0  0  0  0  0  0  0  0  0  0  0  0
   -0.4898    1.4732   -3.5476 H   0  0  0  0  0  0  0  0  0  0  0  0
    0.0833   -0.4054    1.1788 C   0  0  0  0  0  0  0  0  0  0  0  0
    1.2491   -0.3406    1.5457 O   0  0  0  0  0  0  0  0  0  0  0  0
   -0.8808    0.3079    1.8691 N   0  0  0  0  0  0  0  0  0  0  0  0
   -1.8421    0.1395    1.5920 H   0  0  0  0  0  0  0  0  0  0  0  0
   -0.6245    0.9296    3.1620 C   0  0  0  0  0  0  0  0  0  0  0  0
    0.1944    1.6525    3.0849 H   0  0  0  0  0  0  0  0  0  0  0  0
   -1.5166    1.4578    3.5116 H   0  0  0  0  0  0  0  0  0  0  0  0
   -0.3557    0.1703    3.9039 H   0  0  0  0  0  0  0  0  0  0  0  0
  1  2  1  0  0  0  0
  2  3  1  0  0  0  0
  2  4  1  0  0  0  0
  2  5  1  0  0  0  0
  5  6  2  0  0  0  0
  5  7  1  0  0  0  0
  7  8  1  0  0  0  0
  7  9  1  0  0  0  0
  9 10  1  0  0  0  0
  9 11  1  0  0  0  0
  9 25  1  0  0  0  0
 11 12  1  0  0  0  0
 11 13  1  0  0  0  0
 11 14  1  0  0  0  0
 14 15  1  0  0  0  0
 14 23  2  0  0  0  0
 15 16  1  0  0  0  0
 15 17  2  0  0  0  0
 17 18  1  0  0  0  0
 17 19  1  0  0  0  0
 19 20  1  0  0  0  0
 19 21  2  0  0  0  0
 21 22  1  0  0  0  0
 21 23  1  0  0  0  0
 23 24  1  0  0  0  0
 25 26  2  0  0  0  0
 25 27  1  0  0  0  0
 27 28  1  0  0  0  0
 27 29  1  0  0  0  0
 29 30  1  0  0  0  0
 29 31  1  0  0  0  0
 29 32  1  0  0  0  0
M  END
$$$$

  -OEChem-03222214073D

 32 32  0     1  0  0  0  0  0999 V2000
   -3.2610   -4.3969    1.0340 H   0  0  0  0  0  0  0  0  0  0  0  0
   -3.1854   -3.5474    0.3490 C   0  0  0  0  0  0  0  0  0  0  0  0
   -4.0354   -2.8819    0.5179 H   0  0  0  0  0  0  0  0  0  0  0  0
   -3.2203   -3.9207   -0.6775 H   0  0  0  0  0  0  0  0  0  0  0  0
   -1.8864   -2.8001    0.5863 C   0  0  0  0  0  0  0  0  0  0  0  0
   -1.1473   -3.1435    1.4908 O   0  0  0  0  0  0  0  0  0  0  0  0
   -1.5543   -1.7347   -0.2281 N   0  0  0  0  0  0  0  0  0  0  0  0
   -2.1497   -1.5888   -1.0384 H   0  0  0  0  0  0  0  0  0  0  0  0
   -0.2483   -1.0449   -0.2048 C   0  0  1  0  0  0  0  0  0  0  0  0
    0.5431   -1.7739   -0.3779 H   0  0  0  0  0  0  0  0  0  0  0  0
   -0.2620    0.0672   -1.2872 C   0  0  0  0  0  0  0  0  0  0  0  0
   -1.2983    0.3070   -1.5452 H   0  0  0  0  0  0  0  0  0  0  0  0
    0.1641    0.9768   -0.8485 H   0  0  0  0  0  0  0  0  0  0  0  0
    0.5116   -0.1740   -2.5756 C   0  0  0  0  0  0  0  0  0  0  0  0
    1.2509   -1.3367   -2.8792 C   0  0  0  0  0  0  0  0  0  0  0  0
    1.3210   -2.1780   -2.2011 H   0  0  0  0  0  0  0  0  0  0  0  0
    1.9346   -1.4534   -4.0947 C   0  0  0  0  0  0  0  0  0  0  0  0
    2.5022   -2.3537   -4.3113 H   0  0  0  0  0  0  0  0  0  0  0  0
    1.8935   -0.4166   -5.0285 C   0  0  0  0  0  0  0  0  0  0  0  0
    2.4280   -0.5088   -5.9694 H   0  0  0  0  0  0  0  0  0  0  0  0
    1.1665    0.7402   -4.7456 C   0  0  0  0  0  0  0  0  0  0  0  0
    1.1350    1.5513   -5.4669 H   0  0  0  0  0  0  0  0  0  0  0  0
    0.4846    0.8565   -3.5305 C   0  0  0  0  0  0  0  0  0  0  0  0
   -0.0707    1.7674   -3.3266 H   0  0  0  0  0  0  0  0  0  0  0  0
    0.0873   -0.4126    1.1656 C   0  0  0  0  0  0  0  0  0  0  0  0
    1.2520   -0.3457    1.5354 O   0  0  0  0  0  0  0  0  0  0  0  0
   -0.8774    0.3062    1.8494 N   0  0  0  0  0  0  0  0  0  0  0  0
   -1.8381    0.1430    1.5669 H   0  0  0  0  0  0  0  0  0  0  0  0
   -0.6245    0.9369    3.1388 C   0  0  0  0  0  0  0  0  0  0  0  0
    0.1957    1.6584    3.0595 H   0  0  0  0  0  0  0  0  0  0  0  0
   -1.5175    1.4685    3.4810 H   0  0  0  0  0  0  0  0  0  0  0  0
   -0.3594    0.1827    3.8872 H   0  0  0  0  0  0  0  0  0  0  0  0
  1  2  1  0  0  0  0
  2  3  1  0  0  0  0
  2  4  1  0  0  0  0
  2  5  1  0  0  0  0
  5  6  2  0  0  0  0
  5  7  1  0  0  0  0
  7  8  1  0  0  0  0
  7  9  1  0  0  0  0
  9 10  1  0  0  0  0
  9 11  1  0  0  0  0
  9 25  1  0  0  0  0
 11 12  1  0  0  0  0
 11 13  1  0  0  0  0
 11 14  1  0  0  0  0
 14 15  1  0  0  0  0
 14 23  2  0  0  0  0
 15 16  1  0  0  0  0
 15 17  2  0  0  0  0
 17 18  1  0  0  0  0
 17 19  1  0  0  0  0
 19 20  1  0  0  0  0
 19 21  2  0  0  0  0
 21 22  1  0  0  0  0
 21 23  1  0  0  0  0
 23 24  1  0  0  0  0
 25 26  2  0  0  0  0
 25 27  1  0  0  0  0
 27 28  1  0  0  0  0
 27 29  1  0  0  0  0
 29 30  1  0  0  0  0
 29 31  1  0  0  0  0
 29 32  1  0  0  0  0
M  END
$$$$

  -OEChem-03222214073D

 32 32  0     1  0  0  0  0  0999 V2000
   -3.2312   -4.4012    1.0233 H   0  0  0  0  0  0  0  0  0  0  0  0
   -3.1676   -3.5470    0.3428 C   0  0  0  0  0  0  0  0  0  0  0  0
   -4.0130   -2.8817    0.5338 H   0  0  0  0  0  0  0  0  0  0  0  0
   -3.2244   -3.9130   -0.6852 H   0  0  0  0  0  0  0  0  0  0  0  0
   -1.8629   -2.8031    0.5589 C   0  0  0  0  0  0  0  0  0  0  0  0
   -1.0977   -3.1650    1.4339 O   0  0  0  0  0  0  0  0  0  0  0  0
   -1.5535   -1.7213   -0.2427 N   0  0  0  0  0  0  0  0  0  0  0  0
   -2.1739   -1.5526   -1.0294 H   0  0  0  0  0  0  0  0  0  0  0  0
   -0.2543   -1.0189   -0.2305 C   0  0  1  0  0  0  0  0  0  0  0  0
    0.5506   -1.7292   -0.4324 H   0  0  0  0  0  0  0  0  0  0  0  0
   -0.2933    0.1091   -1.2939 C   0  0  0  0  0  0  0  0  0  0  0  0
   -1.3322    0.3446   -1.5447 H   0  0  0  0  0  0  0  0  0  0  0  0
    0.1312    1.0166   -0.8492 H   0  0  0  0  0  0  0  0  0  0  0  0
    0.4723   -0.1398   -2.5839 C   0  0  0  0  0  0  0  0  0  0  0  0
    0.9408   -1.4035   -2.9987 C   0  0  0  0  0  0  0  0  0  0  0  0
    0.7559   -2.3017   -2.4204 H   0  0  0  0  0  0  0  0  0  0  0  0
    1.6501   -1.5465   -4.1963 C   0  0  0  0  0  0  0  0  0  0  0  0
    2.0054   -2.5265   -4.5014 H   0  0  0  0  0  0  0  0  0  0  0  0
    1.9036   -0.4335   -5.0004 C   0  0  0  0  0  0  0  0  0  0  0  0
    2.4573   -0.5461   -5.9280 H   0  0  0  0  0  0  0  0  0  0  0  0
    1.4442    0.8244   -4.6061 C   0  0  0  0  0  0  0  0  0  0  0  0
    1.6418    1.6934   -5.2268 H   0  0  0  0  0  0  0  0  0  0  0  0
    0.7348    0.9663   -3.4091 C   0  0  0  0  0  0  0  0  0  0  0  0
    0.3907    1.9540   -3.1169 H   0  0  0  0  0  0  0  0  0  0  0  0
    0.0936   -0.4071    1.1467 C   0  0  0  0  0  0  0  0  0  0  0  0
    1.2626   -0.3299    1.5002 O   0  0  0  0  0  0  0  0  0  0  0  0
   -0.8687    0.2891    1.8572 N   0  0  0  0  0  0  0  0  0  0  0  0
   -1.8320    0.1215    1.5866 H   0  0  0  0  0  0  0  0  0  0  0  0
   -0.6015    0.9107    3.1482 C   0  0  0  0  0  0  0  0  0  0  0  0
    0.2083    1.6428    3.0615 H   0  0  0  0  0  0  0  0  0  0  0  0
   -1.4945    1.4283    3.5109 H   0  0  0  0  0  0  0  0  0  0  0  0
   -0.3138    0.1534    3.8851 H   0  0  0  0  0  0  0  0  0  0  0  0
  1  2  1  0  0  0  0
  2  3  1  0  0  0  0
  2  4  1  0  0  0  0
  2  5  1  0  0  0  0
  5  6  2  0  0  0  0
  5  7  1  0  0  0  0
  7  8  1  0  0  0  0
  7  9  1  0  0  0  0
  9 10  1  0  0  0  0
  9 11  1  0  0  0  0
  9 25  1  0  0  0  0
 11 12  1  0  0  0  0
 11 13  1  0  0  0  0
 11 14  1  0  0  0  0
 14 15  1  0  0  0  0
 14 23  2  0  0  0  0
 15 16  1  0  0  0  0
 15 17  2  0  0  0  0
 17 18  1  0  0  0  0
 17 19  1  0  0  0  0
 19 20  1  0  0  0  0
 19 21  2  0  0  0  0
 21 22  1  0  0  0  0
 21 23  1  0  0  0  0
 23 24  1  0  0  0  0
 25 26  2  0  0  0  0
 25 27  1  0  0  0  0
 27 28  1  0  0  0  0
 27 29  1  0  0  0  0
 29 30  1  0  0  0  0
 29 31  1  0  0  0  0
 29 32  1  0  0  0  0
M  END
$$$$

  -OEChem-03222214073D

 32 32  0     1  0  0  0  0  0999 V2000
   -3.1825   -4.4154    0.9701 H   0  0  0  0  0  0  0  0  0  0  0  0
   -3.1379   -3.5489    0.3039 C   0  0  0  0  0  0  0  0  0  0  0  0
   -3.9861   -2.8954    0.5206 H   0  0  0  0  0  0  0  0  0  0  0  0
   -3.2084   -3.8974   -0.7292 H   0  0  0  0  0  0  0  0  0  0  0  0
   -1.8361   -2.7977    0.5118 C   0  0  0  0  0  0  0  0  0  0  0  0
   -1.0503   -3.1745    1.3618 O   0  0  0  0  0  0  0  0  0  0  0  0
   -1.5528   -1.6925   -0.2674 N   0  0  0  0  0  0  0  0  0  0  0  0
   -2.1973   -1.4997   -1.0288 H   0  0  0  0  0  0  0  0  0  0  0  0
   -0.2626   -0.9726   -0.2559 C   0  0  1  0  0  0  0  0  0  0  0  0
    0.5468   -1.6693   -0.4964 H   0  0  0  0  0  0  0  0  0  0  0  0
   -0.3239    0.1720   -1.2976 C   0  0  0  0  0  0  0  0  0  0  0  0
   -1.3644    0.3967   -1.5509 H   0  0  0  0  0  0  0  0  0  0  0  0
    0.0892    1.0801   -0.8441 H   0  0  0  0  0  0  0  0  0  0  0  0
    0.4477   -0.0889   -2.5782 C   0  0  0  0  0  0  0  0  0  0  0  0
    0.6373   -1.3812   -3.1045 C   0  0  0  0  0  0  0  0  0  0  0  0
    0.2217   -2.2535   -2.6103 H   0  0  0  0  0  0  0  0  0  0  0  0
    1.3604   -1.5727   -4.2867 C   0  0  0  0  0  0  0  0  0  0  0  0
    1.5035   -2.5753   -4.6791 H   0  0  0  0  0  0  0  0  0  0  0  0
    1.9011   -0.4766   -4.9629 C   0  0  0  0  0  0  0  0  0  0  0  0
    2.4654   -0.6258   -5.8788 H   0  0  0  0  0  0  0  0  0  0  0  0
    1.7158    0.8119   -4.4566 C   0  0  0  0  0  0  0  0  0  0  0  0
    2.1361    1.6661   -4.9791 H   0  0  0  0  0  0  0  0  0  0  0  0
    0.9935    1.0022   -3.2739 C   0  0  0  0  0  0  0  0  0  0  0  0
    0.8630    2.0109   -2.8931 H   0  0  0  0  0  0  0  0  0  0  0  0
    0.1008   -0.3882    1.1284 C   0  0  0  0  0  0  0  0  0  0  0  0
    1.2740   -0.3037    1.4662 O   0  0  0  0  0  0  0  0  0  0  0  0
   -0.8596    0.2785    1.8687 N   0  0  0  0  0  0  0  0  0  0  0  0
   -1.8243    0.1051    1.6075 H   0  0  0  0  0  0  0  0  0  0  0  0
   -0.5820    0.8662    3.1730 C   0  0  0  0  0  0  0  0  0  0  0  0
    0.2122    1.6159    3.0945 H   0  0  0  0  0  0  0  0  0  0  0  0
   -1.4780    1.3550    3.5667 H   0  0  0  0  0  0  0  0  0  0  0  0
   -0.2678    0.0922    3.8810 H   0  0  0  0  0  0  0  0  0  0  0  0
  1  2  1  0  0  0  0
  2  3  1  0  0  0  0
  2  4  1  0  0  0  0
  2  5  1  0  0  0  0
  5  6  2  0  0  0  0
  5  7  1  0  0  0  0
  7  8  1  0  0  0  0
  7  9  1  0  0  0  0
  9 10  1  0  0  0  0
  9 11  1  0  0  0  0
  9 25  1  0  0  0  0
 11 12  1  0  0  0  0
 11 13  1  0  0  0  0
 11 14  1  0  0  0  0
 14 15  1  0  0  0  0
 14 23  2  0  0  0  0
 15 16  1  0  0  0  0
 15 17  2  0  0  0  0
 17 18  1  0  0  0  0
 17 19  1  0  0  0  0
 19 20  1  0  0  0  0
 19 21  2  0  0  0  0
 21 22  1  0  0  0  0
 21 23  1  0  0  0  0
 23 24  1  0  0  0  0
 25 26  2  0  0  0  0
 25 27  1  0  0  0  0
 27 28  1  0  0  0  0
 27 29  1  0  0  0  0
 29 30  1  0  0  0  0
 29 31  1  0  0  0  0
 29 32  1  0  0  0  0
M  END
$$$$

  -OEChem-03222214073D

 32 32  0     1  0  0  0  0  0999 V2000
   -3.1349   -4.4369    0.9070 H   0  0  0  0  0  0  0  0  0  0  0  0
   -3.1066   -3.5587    0.2554 C   0  0  0  0  0  0  0  0  0  0  0  0
   -3.9615   -2.9197    0.4888 H   0  0  0  0  0  0  0  0  0  0  0  0
   -3.1800   -3.8904   -0.7831 H   0  0  0  0  0  0  0  0  0  0  0  0
   -1.8133   -2.7941    0.4664 C   0  0  0  0  0  0  0  0  0  0  0  0
   -1.0136   -3.1764    1.3008 O   0  0  0  0  0  0  0  0  0  0  0  0
   -1.5552   -1.6675   -0.2902 N   0  0  0  0  0  0  0  0  0  0  0  0
   -2.2182   -1.4573   -1.0305 H   0  0  0  0  0  0  0  0  0  0  0  0
   -0.2757   -0.9288   -0.2770 C   0  0  1  0  0  0  0  0  0  0  0  0
    0.5352   -1.6131   -0.5512 H   0  0  0  0  0  0  0  0  0  0  0  0
   -0.3552    0.2286   -1.3001 C   0  0  0  0  0  0  0  0  0  0  0  0
   -1.3969    0.4381   -1.5612 H   0  0  0  0  0  0  0  0  0  0  0  0
    0.0411    1.1411   -0.8409 H   0  0  0  0  0  0  0  0  0  0  0  0
    0.4276   -0.0456   -2.5672 C   0  0  0  0  0  0  0  0  0  0  0  0
    0.3532   -1.2871   -3.2236 C   0  0  0  0  0  0  0  0  0  0  0  0
   -0.2721   -2.0819   -2.8298 H   0  0  0  0  0  0  0  0  0  0  0  0
    1.0853   -1.5213   -4.3924 C   0  0  0  0  0  0  0  0  0  0  0  0
    1.0244   -2.4856   -4.8882 H   0  0  0  0  0  0  0  0  0  0  0  0
    1.8998   -0.5165   -4.9209 C   0  0  0  0  0  0  0  0  0  0  0  0
    2.4708   -0.6981   -5.8267 H   0  0  0  0  0  0  0  0  0  0  0  0
    1.9818    0.7217   -4.2786 C   0  0  0  0  0  0  0  0  0  0  0  0
    2.6176    1.5031   -4.6843 H   0  0  0  0  0  0  0  0  0  0  0  0
    1.2498    0.9545   -3.1096 C   0  0  0  0  0  0  0  0  0  0  0  0
    1.3298    1.9209   -2.6205 H   0  0  0  0  0  0  0  0  0  0  0  0
    0.1025   -0.3676    1.1123 C   0  0  0  0  0  0  0  0  0  0  0  0
    1.2801   -0.2661    1.4293 O   0  0  0  0  0  0  0  0  0  0  0  0
   -0.8553    0.2704    1.8805 N   0  0  0  0  0  0  0  0  0  0  0  0
   -1.8214    0.0812    1.6359 H   0  0  0  0  0  0  0  0  0  0  0  0
   -0.5633    0.8388    3.1902 C   0  0  0  0  0  0  0  0  0  0  0  0
    0.2137    1.6064    3.1101 H   0  0  0  0  0  0  0  0  0  0  0  0
   -1.4611    1.3014    3.6107 H   0  0  0  0  0  0  0  0  0  0  0  0
   -0.2188    0.0584    3.8770 H   0  0  0  0  0  0  0  0  0  0  0  0
  1  2  1  0  0  0  0
  2  3  1  0  0  0  0
  2  4  1  0  0  0  0
  2  5  1  0  0  0  0
  5  6  2  0  0  0  0
  5  7  1  0  0  0  0
  7  8  1  0  0  0  0
  7  9  1  0  0  0  0
  9 10  1  0  0  0  0
  9 11  1  0  0  0  0
  9 25  1  0  0  0  0
 11 12  1  0  0  0  0
 11 13  1  0  0  0  0
 11 14  1  0  0  0  0
 14 15  1  0  0  0  0
 14 23  2  0  0  0  0
 15 16  1  0  0  0  0
 15 17  2  0  0  0  0
 17 18  1  0  0  0  0
 17 19  1  0  0  0  0
 19 20  1  0  0  0  0
 19 21  2  0  0  0  0
 21 22  1  0  0  0  0
 21 23  1  0  0  0  0
 23 24  1  0  0  0  0
 25 26  2  0  0  0  0
 25 27  1  0  0  0  0
 27 28  1  0  0  0  0
 27 29  1  0  0  0  0
 29 30  1  0  0  0  0
 29 31  1  0  0  0  0
 29 32  1  0  0  0  0
M  END
$$$$

  -OEChem-03222214073D

 32 32  0     1  0  0  0  0  0999 V2000
   -3.0909   -4.4536    0.8646 H   0  0  0  0  0  0  0  0  0  0  0  0
   -3.0784   -3.5689    0.2215 C   0  0  0  0  0  0  0  0  0  0  0  0
   -3.9404   -2.9439    0.4669 H   0  0  0  0  0  0  0  0  0  0  0  0
   -3.1533   -3.8915   -0.8198 H   0  0  0  0  0  0  0  0  0  0  0  0
   -1.7938   -2.7897    0.4327 C   0  0  0  0  0  0  0  0  0  0  0  0
   -0.9826   -3.1734    1.2554 O   0  0  0  0  0  0  0  0  0  0  0  0
   -1.5579   -1.6482   -0.3088 N   0  0  0  0  0  0  0  0  0  0  0  0
   -2.2312   -1.4342   -1.0381 H   0  0  0  0  0  0  0  0  0  0  0  0
   -0.2873   -0.8942   -0.2948 C   0  0  1  0  0  0  0  0  0  0  0  0
    0.5247   -1.5693   -0.5903 H   0  0  0  0  0  0  0  0  0  0  0  0
   -0.3797    0.2728   -1.3035 C   0  0  0  0  0  0  0  0  0  0  0  0
   -1.4222    0.4722   -1.5688 H   0  0  0  0  0  0  0  0  0  0  0  0
    0.0059    1.1892   -0.8432 H   0  0  0  0  0  0  0  0  0  0  0  0
    0.4120   -0.0120   -2.5593 C   0  0  0  0  0  0  0  0  0  0  0  0
    0.1076   -1.1222   -3.3637 C   0  0  0  0  0  0  0  0  0  0  0  0
   -0.7052   -1.7879   -3.0926 H   0  0  0  0  0  0  0  0  0  0  0  0
    0.8491   -1.3885   -4.5197 C   0  0  0  0  0  0  0  0  0  0  0  0
    0.6085   -2.2511   -5.1341 H   0  0  0  0  0  0  0  0  0  0  0  0
    1.9051   -0.5478   -4.8821 C   0  0  0  0  0  0  0  0  0  0  0  0
    2.4835   -0.7549   -5.7777 H   0  0  0  0  0  0  0  0  0  0  0  0
    2.2201    0.5570   -4.0861 C   0  0  0  0  0  0  0  0  0  0  0  0
    3.0452    1.2076   -4.3610 H   0  0  0  0  0  0  0  0  0  0  0  0
    1.4780    0.8219   -2.9301 C   0  0  0  0  0  0  0  0  0  0  0  0
    1.7420    1.6781   -2.3162 H   0  0  0  0  0  0  0  0  0  0  0  0
    0.1018   -0.3481    1.0973 C   0  0  0  0  0  0  0  0  0  0  0  0
    1.2823   -0.2335    1.3988 O   0  0  0  0  0  0  0  0  0  0  0  0
   -0.8533    0.2684    1.8865 N   0  0  0  0  0  0  0  0  0  0  0  0
   -1.8203    0.0735    1.6502 H   0  0  0  0  0  0  0  0  0  0  0  0
   -0.5523    0.8240    3.1999 C   0  0  0  0  0  0  0  0  0  0  0  0
    0.2151    1.6013    3.1212 H   0  0  0  0  0  0  0  0  0  0  0  0
   -1.4503    1.2709    3.6369 H   0  0  0  0  0  0  0  0  0  0  0  0
   -0.1911    0.0390    3.8727 H   0  0  0  0  0  0  0  0  0  0  0  0
  1  2  1  0  0  0  0
  2  3  1  0  0  0  0
  2  4  1  0  0  0  0
  2  5  1  0  0  0  0
  5  6  2  0  0  0  0
  5  7  1  0  0  0  0
  7  8  1  0  0  0  0
  7  9  1  0  0  0  0
  9 10  1  0  0  0  0
  9 11  1  0  0  0  0
  9 25  1  0  0  0  0
 11 12  1  0  0  0  0
 11 13  1  0  0  0  0
 11 14  1  0  0  0  0
 14 15  1  0  0  0  0
 14 23  2  0  0  0  0
 15 16  1  0  0  0  0
 15 17  2  0  0  0  0
 17 18  1  0  0  0  0
 17 19  1  0  0  0  0
 19 20  1  0  0  0  0
 19 21  2  0  0  0  0
 21 22  1  0  0  0  0
 21 23  1  0  0  0  0
 23 24  1  0  0  0  0
 25 26  2  0  0  0  0
 25 27  1  0  0  0  0
 27 28  1  0  0  0  0
 27 29  1  0  0  0  0
 29 30  1  0  0  0  0
 29 31  1  0  0  0  0
 29 32  1  0  0  0  0
M  END
$$$$

  -OEChem-03222214073D

 32 32  0     1  0  0  0  0  0999 V2000
   -3.0584   -4.4706    0.8231 H   0  0  0  0  0  0  0  0  0  0  0  0
   -3.0542   -3.5824    0.1850 C   0  0  0  0  0  0  0  0  0  0  0  0
   -3.9309   -2.9750    0.4218 H   0  0  0  0  0  0  0  0  0  0  0  0
   -3.1089   -3.9008   -0.8588 H   0  0  0  0  0  0  0  0  0  0  0  0
   -1.7877   -2.7800    0.4176 C   0  0  0  0  0  0  0  0  0  0  0  0
   -0.9837   -3.1494    1.2539 O   0  0  0  0  0  0  0  0  0  0  0  0
   -1.5628   -1.6314   -0.3166 N   0  0  0  0  0  0  0  0  0  0  0  0
   -2.2244   -1.4361   -1.0615 H   0  0  0  0  0  0  0  0  0  0  0  0
   -0.2961   -0.8718   -0.3023 C   0  0  1  0  0  0  0  0  0  0  0  0
    0.5145   -1.5435   -0.6088 H   0  0  0  0  0  0  0  0  0  0  0  0
   -0.3944    0.3014   -1.3011 C   0  0  0  0  0  0  0  0  0  0  0  0
   -1.4378    0.5016   -1.5635 H   0  0  0  0  0  0  0  0  0  0  0  0
   -0.0064    1.2183   -0.8432 H   0  0  0  0  0  0  0  0  0  0  0  0
    0.4000    0.0091   -2.5504 C   0  0  0  0  0  0  0  0  0  0  0  0
   -0.0826   -0.8964   -3.5077 C   0  0  0  0  0  0  0  0  0  0  0  0
   -1.0413   -1.3837   -3.3642 H   0  0  0  0  0  0  0  0  0  0  0  0
    0.6660   -1.1828   -4.6546 C   0  0  0  0  0  0  0  0  0  0  0  0
    0.2860   -1.8838   -5.3918 H   0  0  0  0  0  0  0  0  0  0  0  0
    1.9076   -0.5707   -4.8501 C   0  0  0  0  0  0  0  0  0  0  0  0
    2.4912   -0.7935   -5.7385 H   0  0  0  0  0  0  0  0  0  0  0  0
    2.4013    0.3239   -3.8960 C   0  0  0  0  0  0  0  0  0  0  0  0
    3.3699    0.7936   -4.0397 H   0  0  0  0  0  0  0  0  0  0  0  0
    1.6518    0.6095   -2.7501 C   0  0  0  0  0  0  0  0  0  0  0  0
    2.0532    1.2943   -2.0082 H   0  0  0  0  0  0  0  0  0  0  0  0
    0.1027   -0.3325    1.0893 C   0  0  0  0  0  0  0  0  0  0  0  0
    1.2862   -0.2066    1.3752 O   0  0  0  0  0  0  0  0  0  0  0  0
   -0.8477    0.2755    1.8905 N   0  0  0  0  0  0  0  0  0  0  0  0
   -1.8155    0.0689    1.6673 H   0  0  0  0  0  0  0  0  0  0  0  0
   -0.5360    0.8270    3.2031 C   0  0  0  0  0  0  0  0  0  0  0  0
    0.2234    1.6116    3.1198 H   0  0  0  0  0  0  0  0  0  0  0  0
   -1.4329    1.2636    3.6527 H   0  0  0  0  0  0  0  0  0  0  0  0
   -0.1602    0.0416    3.8672 H   0  0  0  0  0  0  0  0  0  0  0  0
  1  2  1  0  0  0  0
  2  3  1  0  0  0  0
  2  4  1  0  0  0  0
  2  5  1  0  0  0  0
  5  6  2  0  0  0  0
  5  7  1  0  0  0  0
  7  8  1  0  0  0  0
  7  9  1  0  0  0  0
  9 10  1  0  0  0  0
  9 11  1  0  0  0  0
  9 25  1  0  0  0  0
 11 12  1  0  0  0  0
 11 13  1  0  0  0  0
 11 14  1  0  0  0  0
 14 15  1  0  0  0  0
 14 23  2  0  0  0  0
 15 16  1  0  0  0  0
 15 17  2  0  0  0  0
 17 18  1  0  0  0  0
 17 19  1  0  0  0  0
 19 20  1  0  0  0  0
 19 21  2  0  0  0  0
 21 22  1  0  0  0  0
 21 23  1  0  0  0  0
 23 24  1  0  0  0  0
 25 26  2  0  0  0  0
 25 27  1  0  0  0  0
 27 28  1  0  0  0  0
 27 29  1  0  0  0  0
 29 30  1  0  0  0  0
 29 31  1  0  0  0  0
 29 32  1  0  0  0  0
M  END
$$$$

  -OEChem-03222214073D

 32 32  0     1  0  0  0  0  0999 V2000
   -3.0482   -4.4781    0.8009 H   0  0  0  0  0  0  0  0  0  0  0  0
   -3.0436   -3.5900    0.1622 C   0  0  0  0  0  0  0  0  0  0  0  0
   -3.9328   -2.9943    0.3816 H   0  0  0  0  0  0  0  0  0  0  0  0
   -3.0746   -3.9096   -0.8822 H   0  0  0  0  0  0  0  0  0  0  0  0
   -1.7923   -2.7704    0.4178 C   0  0  0  0  0  0  0  0  0  0  0  0
   -1.0020   -3.1254    1.2734 O   0  0  0  0  0  0  0  0  0  0  0  0
   -1.5670   -1.6218   -0.3164 N   0  0  0  0  0  0  0  0  0  0  0  0
   -2.2049   -1.4533   -1.0880 H   0  0  0  0  0  0  0  0  0  0  0  0
   -0.2983   -0.8657   -0.2992 C   0  0  1  0  0  0  0  0  0  0  0  0
    0.5090   -1.5409   -0.6071 H   0  0  0  0  0  0  0  0  0  0  0  0
   -0.3935    0.3102   -1.2946 C   0  0  0  0  0  0  0  0  0  0  0  0
   -1.4367    0.5188   -1.5511 H   0  0  0  0  0  0  0  0  0  0  0  0
    0.0046    1.2244   -0.8396 H   0  0  0  0  0  0  0  0  0  0  0  0
    0.4019    0.0136   -2.5409 C   0  0  0  0  0  0  0  0  0  0  0  0
   -0.1942   -0.6302   -3.6357 C   0  0  0  0  0  0  0  0  0  0  0  0
   -1.2430   -0.9062   -3.6033 H   0  0  0  0  0  0  0  0  0  0  0  0
    0.5558   -0.9214   -4.7808 C   0  0  0  0  0  0  0  0  0  0  0  0
    0.0884   -1.4174   -5.6263 H   0  0  0  0  0  0  0  0  0  0  0  0
    1.9098   -0.5769   -4.8365 C   0  0  0  0  0  0  0  0  0  0  0  0
    2.4940   -0.8040   -5.7235 H   0  0  0  0  0  0  0  0  0  0  0  0
    2.5137    0.0550   -3.7453 C   0  0  0  0  0  0  0  0  0  0  0  0
    3.5674    0.3156   -3.7812 H   0  0  0  0  0  0  0  0  0  0  0  0
    1.7630    0.3459   -2.6015 C   0  0  0  0  0  0  0  0  0  0  0  0
    2.2446    0.8239   -1.7521 H   0  0  0  0  0  0  0  0  0  0  0  0
    0.1043   -0.3269    1.0914 C   0  0  0  0  0  0  0  0  0  0  0  0
    1.2895   -0.2018    1.3716 O   0  0  0  0  0  0  0  0  0  0  0  0
   -0.8422    0.2849    1.8940 N   0  0  0  0  0  0  0  0  0  0  0  0
   -1.8107    0.0765    1.6754 H   0  0  0  0  0  0  0  0  0  0  0  0
   -0.5247    0.8340    3.2062 C   0  0  0  0  0  0  0  0  0  0  0  0
    0.2356    1.6176    3.1214 H   0  0  0  0  0  0  0  0  0  0  0  0
   -1.4193    1.2711    3.6596 H   0  0  0  0  0  0  0  0  0  0  0  0
   -0.1474    0.0473    3.8679 H   0  0  0  0  0  0  0  0  0  0  0  0
  1  2  1  0  0  0  0
  2  3  1  0  0  0  0
  2  4  1  0  0  0  0
  2  5  1  0  0  0  0
  5  6  2  0  0  0  0
  5  7  1  0  0  0  0
  7  8  1  0  0  0  0
  7  9  1  0  0  0  0
  9 10  1  0  0  0  0
  9 11  1  0  0  0  0
  9 25  1  0  0  0  0
 11 12  1  0  0  0  0
 11 13  1  0  0  0  0
 11 14  1  0  0  0  0
 14 15  1  0  0  0  0
 14 23  2  0  0  0  0
 15 16  1  0  0  0  0
 15 17  2  0  0  0  0
 17 18  1  0  0  0  0
 17 19  1  0  0  0  0
 19 20  1  0  0  0  0
 19 21  2  0  0  0  0
 21 22  1  0  0  0  0
 21 23  1  0  0  0  0
 23 24  1  0  0  0  0
 25 26  2  0  0  0  0
 25 27  1  0  0  0  0
 27 28  1  0  0  0  0
 27 29  1  0  0  0  0
 29 30  1  0  0  0  0
 29 31  1  0  0  0  0
 29 32  1  0  0  0  0
M  END
$$$$

  -OEChem-03222214073D

 32 32  0     1  0  0  0  0  0999 V2000
   -3.0578   -4.4809    0.7906 H   0  0  0  0  0  0  0  0  0  0  0  0
   -3.0502   -3.5918    0.1536 C   0  0  0  0  0  0  0  0  0  0  0  0
   -3.9445   -3.0007    0.3643 H   0  0  0  0  0  0  0  0  0  0  0  0
   -3.0683   -3.9100   -0.8915 H   0  0  0  0  0  0  0  0  0  0  0  0
   -1.8060   -2.7668    0.4243 C   0  0  0  0  0  0  0  0  0  0  0  0
   -1.0269   -3.1165    1.2923 O   0  0  0  0  0  0  0  0  0  0  0  0
   -1.5739   -1.6204   -0.3110 N   0  0  0  0  0  0  0  0  0  0  0  0
   -2.1963   -1.4637   -1.0978 H   0  0  0  0  0  0  0  0  0  0  0  0
   -0.3010   -0.8724   -0.2899 C   0  0  1  0  0  0  0  0  0  0  0  0
    0.5001   -1.5567   -0.5925 H   0  0  0  0  0  0  0  0  0  0  0  0
   -0.3860    0.3012   -1.2906 C   0  0  0  0  0  0  0  0  0  0  0  0
   -1.4279    0.5186   -1.5455 H   0  0  0  0  0  0  0  0  0  0  0  0
    0.0222    1.2131   -0.8397 H   0  0  0  0  0  0  0  0  0  0  0  0
    0.4119    0.0005   -2.5345 C   0  0  0  0  0  0  0  0  0  0  0  0
   -0.2274   -0.3490   -3.7334 C   0  0  0  0  0  0  0  0  0  0  0  0
   -1.3103   -0.4009   -3.7821 H   0  0  0  0  0  0  0  0  0  0  0  0
    0.5240   -0.6318   -4.8795 C   0  0  0  0  0  0  0  0  0  0  0  0
    0.0240   -0.9010   -5.8051 H   0  0  0  0  0  0  0  0  0  0  0  0
    1.9203   -0.5678   -4.8348 C   0  0  0  0  0  0  0  0  0  0  0  0
    2.5046   -0.7871   -5.7236 H   0  0  0  0  0  0  0  0  0  0  0  0
    2.5647   -0.2221   -3.6431 C   0  0  0  0  0  0  0  0  0  0  0  0
    3.6491   -0.1749   -3.6029 H   0  0  0  0  0  0  0  0  0  0  0  0
    1.8128    0.0607   -2.4984 C   0  0  0  0  0  0  0  0  0  0  0  0
    2.3209    0.3215   -1.5729 H   0  0  0  0  0  0  0  0  0  0  0  0
    0.1052   -0.3329    1.0992 C   0  0  0  0  0  0  0  0  0  0  0  0
    1.2920   -0.2177    1.3775 O   0  0  0  0  0  0  0  0  0  0  0  0
   -0.8359    0.2877    1.9013 N   0  0  0  0  0  0  0  0  0  0  0  0
   -1.8065    0.0884    1.6827 H   0  0  0  0  0  0  0  0  0  0  0  0
   -0.5135    0.8404    3.2107 C   0  0  0  0  0  0  0  0  0  0  0  0
    0.2561    1.6144    3.1218 H   0  0  0  0  0  0  0  0  0  0  0  0
   -1.4032    1.2908    3.6608 H   0  0  0  0  0  0  0  0  0  0  0  0
   -0.1463    0.0530    3.8775 H   0  0  0  0  0  0  0  0  0  0  0  0
  1  2  1  0  0  0  0
  2  3  1  0  0  0  0
  2  4  1  0  0  0  0
  2  5  1  0  0  0  0
  5  6  2  0  0  0  0
  5  7  1  0  0  0  0
  7  8  1  0  0  0  0
  7  9  1  0  0  0  0
  9 10  1  0  0  0  0
  9 11  1  0  0  0  0
  9 25  1  0  0  0  0
 11 12  1  0  0  0  0
 11 13  1  0  0  0  0
 11 14  1  0  0  0  0
 14 15  1  0  0  0  0
 14 23  2  0  0  0  0
 15 16  1  0  0  0  0
 15 17  2  0  0  0  0
 17 18  1  0  0  0  0
 17 19  1  0  0  0  0
 19 20  1  0  0  0  0
 19 21  2  0  0  0  0
 21 22  1  0  0  0  0
 21 23  1  0  0  0  0
 23 24  1  0  0  0  0
 25 26  2  0  0  0  0
 25 27  1  0  0  0  0
 27 28  1  0  0  0  0
 27 29  1  0  0  0  0
 29 30  1  0  0  0  0
 29 31  1  0  0  0  0
 29 32  1  0  0  0  0
M  END
$$$$

  -OEChem-03222214073D

 32 32  0     1  0  0  0  0  0999 V2000
   -3.1016   -4.4714    0.8033 H   0  0  0  0  0  0  0  0  0  0  0  0
   -3.0785   -3.5857    0.1618 C   0  0  0  0  0  0  0  0  0  0  0  0
   -3.9713   -2.9866    0.3568 H   0  0  0  0  0  0  0  0  0  0  0  0
   -3.0844   -3.9092   -0.8819 H   0  0  0  0  0  0  0  0  0  0  0  0
   -1.8316   -2.7687    0.4446 C   0  0  0  0  0  0  0  0  0  0  0  0
   -1.0664   -3.1184    1.3250 O   0  0  0  0  0  0  0  0  0  0  0  0
   -1.5792   -1.6312   -0.2976 N   0  0  0  0  0  0  0  0  0  0  0  0
   -2.1863   -1.4816   -1.0978 H   0  0  0  0  0  0  0  0  0  0  0  0
   -0.2975   -0.8985   -0.2710 C   0  0  1  0  0  0  0  0  0  0  0  0
    0.4943   -1.5989   -0.5588 H   0  0  0  0  0  0  0  0  0  0  0  0
   -0.3655    0.2667   -1.2855 C   0  0  0  0  0  0  0  0  0  0  0  0
   -1.4055    0.4936   -1.5388 H   0  0  0  0  0  0  0  0  0  0  0  0
    0.0523    1.1759   -0.8385 H   0  0  0  0  0  0  0  0  0  0  0  0
    0.4328   -0.0323   -2.5322 C   0  0  0  0  0  0  0  0  0  0  0  0
   -0.1899   -0.0697   -3.7893 C   0  0  0  0  0  0  0  0  0  0  0  0
   -1.2586    0.0984   -3.8772 H   0  0  0  0  0  0  0  0  0  0  0  0
    0.5577   -0.3262   -4.9443 C   0  0  0  0  0  0  0  0  0  0  0  0
    0.0683   -0.3599   -5.9132 H   0  0  0  0  0  0  0  0  0  0  0  0
    1.9370   -0.5360   -4.8533 C   0  0  0  0  0  0  0  0  0  0  0  0
    2.5185   -0.7346   -5.7489 H   0  0  0  0  0  0  0  0  0  0  0  0
    2.5689   -0.4842   -3.6076 C   0  0  0  0  0  0  0  0  0  0  0  0
    3.6412   -0.6406   -3.5333 H   0  0  0  0  0  0  0  0  0  0  0  0
    1.8209   -0.2283   -2.4540 C   0  0  0  0  0  0  0  0  0  0  0  0
    2.3233   -0.1819   -1.4904 H   0  0  0  0  0  0  0  0  0  0  0  0
    0.1046   -0.3520    1.1164 C   0  0  0  0  0  0  0  0  0  0  0  0
    1.2907   -0.2544    1.4043 O   0  0  0  0  0  0  0  0  0  0  0  0
   -0.8343    0.2873    1.9062 N   0  0  0  0  0  0  0  0  0  0  0  0
   -1.8059    0.0993    1.6815 H   0  0  0  0  0  0  0  0  0  0  0  0
   -0.5141    0.8486    3.2127 C   0  0  0  0  0  0  0  0  0  0  0  0
    0.2658    1.6120    3.1217 H   0  0  0  0  0  0  0  0  0  0  0  0
   -1.4011    1.3146    3.6521 H   0  0  0  0  0  0  0  0  0  0  0  0
   -0.1616    0.0635    3.8898 H   0  0  0  0  0  0  0  0  0  0  0  0
  1  2  1  0  0  0  0
  2  3  1  0  0  0  0
  2  4  1  0  0  0  0
  2  5  1  0  0  0  0
  5  6  2  0  0  0  0
  5  7  1  0  0  0  0
  7  8  1  0  0  0  0
  7  9  1  0  0  0  0
  9 10  1  0  0  0  0
  9 11  1  0  0  0  0
  9 25  1  0  0  0  0
 11 12  1  0  0  0  0
 11 13  1  0  0  0  0
 11 14  1  0  0  0  0
 14 15  1  0  0  0  0
 14 23  2  0  0  0  0
 15 16  1  0  0  0  0
 15 17  2  0  0  0  0
 17 18  1  0  0  0  0
 17 19  1  0  0  0  0
 19 20  1  0  0  0  0
 19 21  2  0  0  0  0
 21 22  1  0  0  0  0
 21 23  1  0  0  0  0
 23 24  1  0  0  0  0
 25 26  2  0  0  0  0
 25 27  1  0  0  0  0
 27 28  1  0  0  0  0
 27 29  1  0  0  0  0
 29 30  1  0  0  0  0
 29 31  1  0  0  0  0
 29 32  1  0  0  0  0
M  END
$$$$

  -OEChem-03222214073D

 32 32  0     1  0  0  0  0  0999 V2000
   -3.1615   -4.4542    0.8474 H   0  0  0  0  0  0  0  0  0  0  0  0
   -3.1240   -3.5743    0.1987 C   0  0  0  0  0  0  0  0  0  0  0  0
   -4.0054   -2.9577    0.3903 H   0  0  0  0  0  0  0  0  0  0  0  0
   -3.1377   -3.9059   -0.8424 H   0  0  0  0  0  0  0  0  0  0  0  0
   -1.8623   -2.7774    0.4739 C   0  0  0  0  0  0  0  0  0  0  0  0
   -1.1071   -3.1290    1.3620 O   0  0  0  0  0  0  0  0  0  0  0  0
   -1.5850   -1.6548   -0.2822 N   0  0  0  0  0  0  0  0  0  0  0  0
   -2.1843   -1.5044   -1.0882 H   0  0  0  0  0  0  0  0  0  0  0  0
   -0.2937   -0.9390   -0.2512 C   0  0  1  0  0  0  0  0  0  0  0  0
    0.4862   -1.6599   -0.5147 H   0  0  0  0  0  0  0  0  0  0  0  0
   -0.3392    0.2122   -1.2861 C   0  0  0  0  0  0  0  0  0  0  0  0
   -1.3773    0.4452   -1.5422 H   0  0  0  0  0  0  0  0  0  0  0  0
    0.0831    1.1208   -0.8423 H   0  0  0  0  0  0  0  0  0  0  0  0
    0.4592   -0.0783   -2.5389 C   0  0  0  0  0  0  0  0  0  0  0  0
   -0.0912    0.1984   -3.8007 C   0  0  0  0  0  0  0  0  0  0  0  0
   -1.1043    0.5791   -3.8843 H   0  0  0  0  0  0  0  0  0  0  0  0
    0.6516   -0.0156   -4.9672 C   0  0  0  0  0  0  0  0  0  0  0  0
    0.2113    0.1906   -5.9384 H   0  0  0  0  0  0  0  0  0  0  0  0
    1.9649   -0.4863   -4.8837 C   0  0  0  0  0  0  0  0  0  0  0  0
    2.5443   -0.6504   -5.7875 H   0  0  0  0  0  0  0  0  0  0  0  0
    2.5376   -0.7303   -3.6327 C   0  0  0  0  0  0  0  0  0  0  0  0
    3.5645   -1.0771   -3.5622 H   0  0  0  0  0  0  0  0  0  0  0  0
    1.7933   -0.5165   -2.4681 C   0  0  0  0  0  0  0  0  0  0  0  0
    2.2674   -0.6829   -1.5039 H   0  0  0  0  0  0  0  0  0  0  0  0
    0.0998   -0.3764    1.1320 C   0  0  0  0  0  0  0  0  0  0  0  0
    1.2831   -0.3001    1.4365 O   0  0  0  0  0  0  0  0  0  0  0  0
   -0.8387    0.2880    1.9010 N   0  0  0  0  0  0  0  0  0  0  0  0
   -1.8100    0.1175    1.6626 H   0  0  0  0  0  0  0  0  0  0  0  0
   -0.5281    0.8570    3.2065 C   0  0  0  0  0  0  0  0  0  0  0  0
    0.2725    1.5994    3.1216 H   0  0  0  0  0  0  0  0  0  0  0  0
   -1.4109    1.3505    3.6237 H   0  0  0  0  0  0  0  0  0  0  0  0
   -0.2081    0.0714    3.8992 H   0  0  0  0  0  0  0  0  0  0  0  0
  1  2  1  0  0  0  0
  2  3  1  0  0  0  0
  2  4  1  0  0  0  0
  2  5  1  0  0  0  0
  5  6  2  0  0  0  0
  5  7  1  0  0  0  0
  7  8  1  0  0  0  0
  7  9  1  0  0  0  0
  9 10  1  0  0  0  0
  9 11  1  0  0  0  0
  9 25  1  0  0  0  0
 11 12  1  0  0  0  0
 11 13  1  0  0  0  0
 11 14  1  0  0  0  0
 14 15  1  0  0  0  0
 14 23  2  0  0  0  0
 15 16  1  0  0  0  0
 15 17  2  0  0  0  0
 17 18  1  0  0  0  0
 17 19  1  0  0  0  0
 19 20  1  0  0  0  0
 19 21  2  0  0  0  0
 21 22  1  0  0  0  0
 21 23  1  0  0  0  0
 23 24  1  0  0  0  0
 25 26  2  0  0  0  0
 25 27  1  0  0  0  0
 27 28  1  0  0  0  0
 27 29  1  0  0  0  0
 29 30  1  0  0  0  0
 29 31  1  0  0  0  0
 29 32  1  0  0  0  0
M  END
$$$$

  -OEChem-03222214073D

 32 32  0     1  0  0  0  0  0999 V2000
   -3.2283   -4.4396    0.8837 H   0  0  0  0  0  0  0  0  0  0  0  0
   -3.1720   -3.5620    0.2332 C   0  0  0  0  0  0  0  0  0  0  0  0
   -4.0417   -2.9277    0.4209 H   0  0  0  0  0  0  0  0  0  0  0  0
   -3.1894   -3.8959   -0.8071 H   0  0  0  0  0  0  0  0  0  0  0  0
   -1.8966   -2.7881    0.5099 C   0  0  0  0  0  0  0  0  0  0  0  0
   -1.1613   -3.1370    1.4157 O   0  0  0  0  0  0  0  0  0  0  0  0
   -1.5869   -1.6860   -0.2631 N   0  0  0  0  0  0  0  0  0  0  0  0
   -2.1717   -1.5398   -1.0807 H   0  0  0  0  0  0  0  0  0  0  0  0
   -0.2859   -0.9890   -0.2243 C   0  0  1  0  0  0  0  0  0  0  0  0
    0.4822   -1.7305   -0.4538 H   0  0  0  0  0  0  0  0  0  0  0  0
   -0.3074    0.1441   -1.2831 C   0  0  0  0  0  0  0  0  0  0  0  0
   -1.3436    0.3797   -1.5455 H   0  0  0  0  0  0  0  0  0  0  0  0
    0.1140    1.0544   -0.8415 H   0  0  0  0  0  0  0  0  0  0  0  0
    0.4896   -0.1282   -2.5457 C   0  0  0  0  0  0  0  0  0  0  0  0
    0.0585    0.4499   -3.7514 C   0  0  0  0  0  0  0  0  0  0  0  0
   -0.8594    1.0288   -3.7800 H   0  0  0  0  0  0  0  0  0  0  0  0
    0.7905    0.2861   -4.9322 C   0  0  0  0  0  0  0  0  0  0  0  0
    0.4333    0.7249   -5.8591 H   0  0  0  0  0  0  0  0  0  0  0  0
    1.9876   -0.4329   -4.9179 C   0  0  0  0  0  0  0  0  0  0  0  0
    2.5602   -0.5587   -5.8322 H   0  0  0  0  0  0  0  0  0  0  0  0
    2.4584   -0.9702   -3.7180 C   0  0  0  0  0  0  0  0  0  0  0  0
    3.4041   -1.5040   -3.6959 H   0  0  0  0  0  0  0  0  0  0  0  0
    1.7242   -0.8061   -2.5386 C   0  0  0  0  0  0  0  0  0  0  0  0
    2.1498   -1.1941   -1.6181 H   0  0  0  0  0  0  0  0  0  0  0  0
    0.0915   -0.4039    1.1539 C   0  0  0  0  0  0  0  0  0  0  0  0
    1.2702   -0.3405    1.4777 O   0  0  0  0  0  0  0  0  0  0  0  0
   -0.8497    0.2901    1.8929 N   0  0  0  0  0  0  0  0  0  0  0  0
   -1.8199    0.1202    1.6489 H   0  0  0  0  0  0  0  0  0  0  0  0
   -0.5483    0.8898    3.1867 C   0  0  0  0  0  0  0  0  0  0  0  0
    0.2706    1.6110    3.0940 H   0  0  0  0  0  0  0  0  0  0  0  0
   -1.4262    1.4154    3.5740 H   0  0  0  0  0  0  0  0  0  0  0  0
   -0.2581    0.1176    3.9068 H   0  0  0  0  0  0  0  0  0  0  0  0
  1  2  1  0  0  0  0
  2  3  1  0  0  0  0
  2  4  1  0  0  0  0
  2  5  1  0  0  0  0
  5  6  2  0  0  0  0
  5  7  1  0  0  0  0
  7  8  1  0  0  0  0
  7  9  1  0  0  0  0
  9 10  1  0  0  0  0
  9 11  1  0  0  0  0
  9 25  1  0  0  0  0
 11 12  1  0  0  0  0
 11 13  1  0  0  0  0
 11 14  1  0  0  0  0
 14 15  1  0  0  0  0
 14 23  2  0  0  0  0
 15 16  1  0  0  0  0
 15 17  2  0  0  0  0
 17 18  1  0  0  0  0
 17 19  1  0  0  0  0
 19 20  1  0  0  0  0
 19 21  2  0  0  0  0
 21 22  1  0  0  0  0
 21 23  1  0  0  0  0
 23 24  1  0  0  0  0
 25 26  2  0  0  0  0
 25 27  1  0  0  0  0
 27 28  1  0  0  0  0
 27 29  1  0  0  0  0
 29 30  1  0  0  0  0
 29 31  1  0  0  0  0
 29 32  1  0  0  0  0
M  END
$$$$

  -OEChem-03222214073D

 32 32  0     1  0  0  0  0  0999 V2000
   -3.2597   -4.4114    0.9513 H   0  0  0  0  0  0  0  0  0  0  0  0
   -3.1891   -3.5415    0.2918 C   0  0  0  0  0  0  0  0  0  0  0  0
   -4.0440   -2.8872    0.4784 H   0  0  0  0  0  0  0  0  0  0  0  0
   -3.2202   -3.8852   -0.7450 H   0  0  0  0  0  0  0  0  0  0  0  0
   -1.8961   -2.7921    0.5538 C   0  0  0  0  0  0  0  0  0  0  0  0
   -1.1710   -3.1387    1.4686 O   0  0  0  0  0  0  0  0  0  0  0  0
   -1.5572   -1.7158   -0.2434 N   0  0  0  0  0  0  0  0  0  0  0  0
   -2.1363   -1.5699   -1.0654 H   0  0  0  0  0  0  0  0  0  0  0  0
   -0.2508   -1.0287   -0.1969 C   0  0  1  0  0  0  0  0  0  0  0  0
    0.5233   -1.7734   -0.3789 H   0  0  0  0  0  0  0  0  0  0  0  0
   -0.2499    0.0878   -1.2753 C   0  0  0  0  0  0  0  0  0  0  0  0
   -1.2837    0.3272   -1.5444 H   0  0  0  0  0  0  0  0  0  0  0  0
    0.1693    0.9979   -0.8317 H   0  0  0  0  0  0  0  0  0  0  0  0
    0.5457   -0.1568   -2.5490 C   0  0  0  0  0  0  0  0  0  0  0  0
    0.2833    0.6916   -3.6382 C   0  0  0  0  0  0  0  0  0  0  0  0
   -0.4810    1.4584   -3.5549 H   0  0  0  0  0  0  0  0  0  0  0  0
    0.9859    0.5694   -4.8410 C   0  0  0  0  0  0  0  0  0  0  0  0
    0.7588    1.2291   -5.6733 H   0  0  0  0  0  0  0  0  0  0  0  0
    1.9857   -0.3958   -4.9689 C   0  0  0  0  0  0  0  0  0  0  0  0
    2.5366   -0.4914   -5.8999 H   0  0  0  0  0  0  0  0  0  0  0  0
    2.2867   -1.2267   -3.8882 C   0  0  0  0  0  0  0  0  0  0  0  0
    3.0791   -1.9643   -3.9767 H   0  0  0  0  0  0  0  0  0  0  0  0
    1.5822   -1.1040   -2.6855 C   0  0  0  0  0  0  0  0  0  0  0  0
    1.8886   -1.7523   -1.8732 H   0  0  0  0  0  0  0  0  0  0  0  0
    0.0852   -0.4120    1.1792 C   0  0  0  0  0  0  0  0  0  0  0  0
    1.2504   -0.3544    1.5492 O   0  0  0  0  0  0  0  0  0  0  0  0
   -0.8778    0.3041    1.8680 N   0  0  0  0  0  0  0  0  0  0  0  0
   -1.8386    0.1439    1.5840 H   0  0  0  0  0  0  0  0  0  0  0  0
   -0.6242    0.9190    3.1649 C   0  0  0  0  0  0  0  0  0  0  0  0
    0.2020    1.6344    3.0960 H   0  0  0  0  0  0  0  0  0  0  0  0
   -1.5133    1.4544    3.5107 H   0  0  0  0  0  0  0  0  0  0  0  0
   -0.3674    0.1547    3.9057 H   0  0  0  0  0  0  0  0  0  0  0  0
  1  2  1  0  0  0  0
  2  3  1  0  0  0  0
  2  4  1  0  0  0  0
  2  5  1  0  0  0  0
  5  6  2  0  0  0  0
  5  7  1  0  0  0  0
  7  8  1  0  0  0  0
  7  9  1  0  0  0  0
  9 10  1  0  0  0  0
  9 11  1  0  0  0  0
  9 25  1  0  0  0  0
 11 12  1  0  0  0  0
 11 13  1  0  0  0  0
 11 14  1  0  0  0  0
 14 15  1  0  0  0  0
 14 23  2  0  0  0  0
 15 16  1  0  0  0  0
 15 17  2  0  0  0  0
 17 18  1  0  0  0  0
 17 19  1  0  0  0  0
 19 20  1  0  0  0  0
 19 21  2  0  0  0  0
 21 22  1  0  0  0  0
 21 23  1  0  0  0  0
 23 24  1  0  0  0  0
 25 26  2  0  0  0  0
 25 27  1  0  0  0  0
 27 28  1  0  0  0  0
 27 29  1  0  0  0  0
 29 30  1  0  0  0  0
 29 31  1  0  0  0  0
 29 32  1  0  0  0  0
M  END
$$$$

  -OEChem-03222214073D

 32 32  0     1  0  0  0  0  0999 V2000
   -3.1902   -4.4187    0.9931 H   0  0  0  0  0  0  0  0  0  0  0  0
   -3.1179   -3.5654    0.3124 C   0  0  0  0  0  0  0  0  0  0  0  0
   -3.9798   -2.9133    0.4735 H   0  0  0  0  0  0  0  0  0  0  0  0
   -3.1351   -3.9353   -0.7157 H   0  0  0  0  0  0  0  0  0  0  0  0
   -1.8328   -2.8000    0.5685 C   0  0  0  0  0  0  0  0  0  0  0  0
   -1.1018   -3.1350    1.4826 O   0  0  0  0  0  0  0  0  0  0  0  0
   -1.5020   -1.7295   -0.2399 N   0  0  0  0  0  0  0  0  0  0  0  0
   -2.0849   -1.5894   -1.0606 H   0  0  0  0  0  0  0  0  0  0  0  0
   -0.2076   -1.0203   -0.1961 C   0  0  1  0  0  0  0  0  0  0  0  0
    0.6144   -1.7181   -0.3748 H   0  0  0  0  0  0  0  0  0  0  0  0
   -0.2337    0.0969   -1.2633 C   0  0  0  0  0  0  0  0  0  0  0  0
   -1.2453    0.5095   -1.3330 H   0  0  0  0  0  0  0  0  0  0  0  0
    0.4167    0.9103   -0.9214 H   0  0  0  0  0  0  0  0  0  0  0  0
    0.2522   -0.2745   -2.6547 C   0  0  0  0  0  0  0  0  0  0  0  0
    0.2344    0.7340   -3.6319 C   0  0  0  0  0  0  0  0  0  0  0  0
   -0.0878    1.7370   -3.3678 H   0  0  0  0  0  0  0  0  0  0  0  0
    0.6352    0.4760   -4.9465 C   0  0  0  0  0  0  0  0  0  0  0  0
    0.6227    1.2728   -5.6845 H   0  0  0  0  0  0  0  0  0  0  0  0
    1.0520   -0.8058   -5.3096 C   0  0  0  0  0  0  0  0  0  0  0  0
    1.3658   -1.0085   -6.3294 H   0  0  0  0  0  0  0  0  0  0  0  0
    1.0613   -1.8269   -4.3571 C   0  0  0  0  0  0  0  0  0  0  0  0
    1.3801   -2.8263   -4.6387 H   0  0  0  0  0  0  0  0  0  0  0  0
    0.6600   -1.5678   -3.0417 C   0  0  0  0  0  0  0  0  0  0  0  0
    0.6725   -2.3997   -2.3468 H   0  0  0  0  0  0  0  0  0  0  0  0
    0.0919   -0.3847    1.1809 C   0  0  0  0  0  0  0  0  0  0  0  0
    1.2487   -0.2987    1.5711 O   0  0  0  0  0  0  0  0  0  0  0  0
   -0.8958    0.3179    1.8488 N   0  0  0  0  0  0  0  0  0  0  0  0
   -1.8487    0.1408    1.5489 H   0  0  0  0  0  0  0  0  0  0  0  0
   -0.6760    0.9430    3.1470 C   0  0  0  0  0  0  0  0  0  0  0  0
    0.1271    1.6850    3.0852 H   0  0  0  0  0  0  0  0  0  0  0  0
   -1.5863    1.4491    3.4817 H   0  0  0  0  0  0  0  0  0  0  0  0
   -0.4019    0.1888    3.8922 H   0  0  0  0  0  0  0  0  0  0  0  0
  1  2  1  0  0  0  0
  2  3  1  0  0  0  0
  2  4  1  0  0  0  0
  2  5  1  0  0  0  0
  5  6  2  0  0  0  0
  5  7  1  0  0  0  0
  7  8  1  0  0  0  0
  7  9  1  0  0  0  0
  9 10  1  0  0  0  0
  9 11  1  0  0  0  0
  9 25  1  0  0  0  0
 11 12  1  0  0  0  0
 11 13  1  0  0  0  0
 11 14  1  0  0  0  0
 14 15  1  0  0  0  0
 14 23  2  0  0  0  0
 15 16  1  0  0  0  0
 15 17  2  0  0  0  0
 17 18  1  0  0  0  0
 17 19  1  0  0  0  0
 19 20  1  0  0  0  0
 19 21  2  0  0  0  0
 21 22  1  0  0  0  0
 21 23  1  0  0  0  0
 23 24  1  0  0  0  0
 25 26  2  0  0  0  0
 25 27  1  0  0  0  0
 27 28  1  0  0  0  0
 27 29  1  0  0  0  0
 29 30  1  0  0  0  0
 29 31  1  0  0  0  0
 29 32  1  0  0  0  0
M  END
$$$$

  -OEChem-03222214073D

 32 32  0     1  0  0  0  0  0999 V2000
   -3.1718   -4.4259    0.9735 H   0  0  0  0  0  0  0  0  0  0  0  0
   -3.1146   -3.5598    0.3079 C   0  0  0  0  0  0  0  0  0  0  0  0
   -3.9688   -2.9075    0.5048 H   0  0  0  0  0  0  0  0  0  0  0  0
   -3.1605   -3.9094   -0.7263 H   0  0  0  0  0  0  0  0  0  0  0  0
   -1.8202   -2.8046    0.5445 C   0  0  0  0  0  0  0  0  0  0  0  0
   -1.0647   -3.1607    1.4302 O   0  0  0  0  0  0  0  0  0  0  0  0
   -1.5084   -1.7191   -0.2509 N   0  0  0  0  0  0  0  0  0  0  0  0
   -2.1216   -1.5479   -1.0431 H   0  0  0  0  0  0  0  0  0  0  0  0
   -0.2189   -0.9997   -0.2131 C   0  0  1  0  0  0  0  0  0  0  0  0
    0.6036   -1.6914   -0.4237 H   0  0  0  0  0  0  0  0  0  0  0  0
   -0.2578    0.1249   -1.2706 C   0  0  0  0  0  0  0  0  0  0  0  0
   -1.2713    0.5315   -1.3432 H   0  0  0  0  0  0  0  0  0  0  0  0
    0.3873    0.9415   -0.9261 H   0  0  0  0  0  0  0  0  0  0  0  0
    0.2289   -0.2638   -2.6554 C   0  0  0  0  0  0  0  0  0  0  0  0
    0.5238    0.7653   -3.5635 C   0  0  0  0  0  0  0  0  0  0  0  0
    0.4339    1.8027   -3.2545 H   0  0  0  0  0  0  0  0  0  0  0  0
    0.9431    0.4788   -4.8668 C   0  0  0  0  0  0  0  0  0  0  0  0
    1.1770    1.2880   -5.5523 H   0  0  0  0  0  0  0  0  0  0  0  0
    1.0625   -0.8477   -5.2867 C   0  0  0  0  0  0  0  0  0  0  0  0
    1.3915   -1.0717   -6.2973 H   0  0  0  0  0  0  0  0  0  0  0  0
    0.7564   -1.8849   -4.4028 C   0  0  0  0  0  0  0  0  0  0  0  0
    0.8458   -2.9172   -4.7285 H   0  0  0  0  0  0  0  0  0  0  0  0
    0.3361   -1.5970   -3.0995 C   0  0  0  0  0  0  0  0  0  0  0  0
    0.0978   -2.4316   -2.4488 H   0  0  0  0  0  0  0  0  0  0  0  0
    0.0970   -0.3820    1.1681 C   0  0  0  0  0  0  0  0  0  0  0  0
    1.2585   -0.2904    1.5423 O   0  0  0  0  0  0  0  0  0  0  0  0
   -0.8870    0.3030    1.8594 N   0  0  0  0  0  0  0  0  0  0  0  0
   -1.8426    0.1256    1.5684 H   0  0  0  0  0  0  0  0  0  0  0  0
   -0.6542    0.9182    3.1600 C   0  0  0  0  0  0  0  0  0  0  0  0
    0.1440    1.6652    3.0939 H   0  0  0  0  0  0  0  0  0  0  0  0
   -1.5627    1.4164    3.5113 H   0  0  0  0  0  0  0  0  0  0  0  0
   -0.3668    0.1592    3.8953 H   0  0  0  0  0  0  0  0  0  0  0  0
  1  2  1  0  0  0  0
  2  3  1  0  0  0  0
  2  4  1  0  0  0  0
  2  5  1  0  0  0  0
  5  6  2  0  0  0  0
  5  7  1  0  0  0  0
  7  8  1  0  0  0  0
  7  9  1  0  0  0  0
  9 10  1  0  0  0  0
  9 11  1  0  0  0  0
  9 25  1  0  0  0  0
 11 12  1  0  0  0  0
 11 13  1  0  0  0  0
 11 14  1  0  0  0  0
 14 15  1  0  0  0  0
 14 23  2  0  0  0  0
 15 16  1  0  0  0  0
 15 17  2  0  0  0  0
 17 18  1  0  0  0  0
 17 19  1  0  0  0  0
 19 20  1  0  0  0  0
 19 21  2  0  0  0  0
 21 22  1  0  0  0  0
 21 23  1  0  0  0  0
 23 24  1  0  0  0  0
 25 26  2  0  0  0  0
 25 27  1  0  0  0  0
 27 28  1  0  0  0  0
 27 29  1  0  0  0  0
 29 30  1  0  0  0  0
 29 31  1  0  0  0  0
 29 32  1  0  0  0  0
M  END
$$$$

  -OEChem-03222214073D

 32 32  0     1  0  0  0  0  0999 V2000
   -3.1642   -4.4341    0.9644 H   0  0  0  0  0  0  0  0  0  0  0  0
   -3.1233   -3.5586    0.3098 C   0  0  0  0  0  0  0  0  0  0  0  0
   -3.9704   -2.9079    0.5396 H   0  0  0  0  0  0  0  0  0  0  0  0
   -3.1992   -3.8928   -0.7277 H   0  0  0  0  0  0  0  0  0  0  0  0
   -1.8205   -2.8102    0.5212 C   0  0  0  0  0  0  0  0  0  0  0  0
   -1.0417   -3.1826    1.3795 O   0  0  0  0  0  0  0  0  0  0  0  0
   -1.5291   -1.7094   -0.2610 N   0  0  0  0  0  0  0  0  0  0  0  0
   -2.1739   -1.5058   -1.0194 H   0  0  0  0  0  0  0  0  0  0  0  0
   -0.2437   -0.9810   -0.2332 C   0  0  1  0  0  0  0  0  0  0  0  0
    0.5734   -1.6709   -0.4733 H   0  0  0  0  0  0  0  0  0  0  0  0
   -0.2886    0.1520   -1.2810 C   0  0  0  0  0  0  0  0  0  0  0  0
   -1.3040    0.5531   -1.3566 H   0  0  0  0  0  0  0  0  0  0  0  0
    0.3508    0.9708   -0.9311 H   0  0  0  0  0  0  0  0  0  0  0  0
    0.1989   -0.2494   -2.6613 C   0  0  0  0  0  0  0  0  0  0  0  0
    0.7993    0.7247   -3.4754 C   0  0  0  0  0  0  0  0  0  0  0  0
    0.9303    1.7374   -3.1055 H   0  0  0  0  0  0  0  0  0  0  0  0
    1.2420    0.4118   -4.7650 C   0  0  0  0  0  0  0  0  0  0  0  0
    1.7111    1.1758   -5.3781 H   0  0  0  0  0  0  0  0  0  0  0  0
    1.0833   -0.8833   -5.2633 C   0  0  0  0  0  0  0  0  0  0  0  0
    1.4304   -1.1284   -6.2629 H   0  0  0  0  0  0  0  0  0  0  0  0
    0.4789   -1.8622   -4.4710 C   0  0  0  0  0  0  0  0  0  0  0  0
    0.3552   -2.8698   -4.8569 H   0  0  0  0  0  0  0  0  0  0  0  0
    0.0365   -1.5477   -3.1813 C   0  0  0  0  0  0  0  0  0  0  0  0
   -0.4261   -2.3334   -2.5942 H   0  0  0  0  0  0  0  0  0  0  0  0
    0.0959   -0.3820    1.1498 C   0  0  0  0  0  0  0  0  0  0  0  0
    1.2644   -0.2835    1.4999 O   0  0  0  0  0  0  0  0  0  0  0  0
   -0.8793    0.2860    1.8693 N   0  0  0  0  0  0  0  0  0  0  0  0
   -1.8393    0.0998    1.5990 H   0  0  0  0  0  0  0  0  0  0  0  0
   -0.6233    0.8943    3.1687 C   0  0  0  0  0  0  0  0  0  0  0  0
    0.1713    1.6439    3.0915 H   0  0  0  0  0  0  0  0  0  0  0  0
   -1.5262    1.3884    3.5398 H   0  0  0  0  0  0  0  0  0  0  0  0
   -0.3198    0.1320    3.8939 H   0  0  0  0  0  0  0  0  0  0  0  0
  1  2  1  0  0  0  0
  2  3  1  0  0  0  0
  2  4  1  0  0  0  0
  2  5  1  0  0  0  0
  5  6  2  0  0  0  0
  5  7  1  0  0  0  0
  7  8  1  0  0  0  0
  7  9  1  0  0  0  0
  9 10  1  0  0  0  0
  9 11  1  0  0  0  0
  9 25  1  0  0  0  0
 11 12  1  0  0  0  0
 11 13  1  0  0  0  0
 11 14  1  0  0  0  0
 14 15  1  0  0  0  0
 14 23  2  0  0  0  0
 15 16  1  0  0  0  0
 15 17  2  0  0  0  0
 17 18  1  0  0  0  0
 17 19  1  0  0  0  0
 19 20  1  0  0  0  0
 19 21  2  0  0  0  0
 21 22  1  0  0  0  0
 21 23  1  0  0  0  0
 23 24  1  0  0  0  0
 25 26  2  0  0  0  0
 25 27  1  0  0  0  0
 27 28  1  0  0  0  0
 27 29  1  0  0  0  0
 29 30  1  0  0  0  0
 29 31  1  0  0  0  0
 29 32  1  0  0  0  0
M  END
$$$$

  -OEChem-03222214073D

 32 32  0     1  0  0  0  0  0999 V2000
   -3.1563   -4.4359    0.9558 H   0  0  0  0  0  0  0  0  0  0  0  0
   -3.1214   -3.5593    0.3023 C   0  0  0  0  0  0  0  0  0  0  0  0
   -3.9653   -2.9083    0.5424 H   0  0  0  0  0  0  0  0  0  0  0  0
   -3.2081   -3.8920   -0.7348 H   0  0  0  0  0  0  0  0  0  0  0  0
   -1.8159   -2.8120    0.5008 C   0  0  0  0  0  0  0  0  0  0  0  0
   -1.0209   -3.1947    1.3395 O   0  0  0  0  0  0  0  0  0  0  0  0
   -1.5426   -1.6988   -0.2702 N   0  0  0  0  0  0  0  0  0  0  0  0
   -2.2116   -1.4734   -1.0004 H   0  0  0  0  0  0  0  0  0  0  0  0
   -0.2623   -0.9611   -0.2503 C   0  0  1  0  0  0  0  0  0  0  0  0
    0.5513   -1.6480   -0.5110 H   0  0  0  0  0  0  0  0  0  0  0  0
   -0.3121    0.1793   -1.2894 C   0  0  0  0  0  0  0  0  0  0  0  0
   -1.3295    0.5750   -1.3668 H   0  0  0  0  0  0  0  0  0  0  0  0
    0.3203    1.0015   -0.9360 H   0  0  0  0  0  0  0  0  0  0  0  0
    0.1774   -0.2347   -2.6641 C   0  0  0  0  0  0  0  0  0  0  0  0
    1.0536    0.6099   -3.3651 C   0  0  0  0  0  0  0  0  0  0  0  0
    1.3914    1.5396   -2.9168 H   0  0  0  0  0  0  0  0  0  0  0  0
    1.5103    0.2696   -4.6425 C   0  0  0  0  0  0  0  0  0  0  0  0
    2.1931    0.9310   -5.1677 H   0  0  0  0  0  0  0  0  0  0  0  0
    1.0908   -0.9209   -5.2407 C   0  0  0  0  0  0  0  0  0  0  0  0
    1.4474   -1.1870   -6.2314 H   0  0  0  0  0  0  0  0  0  0  0  0
    0.2130   -1.7682   -4.5602 C   0  0  0  0  0  0  0  0  0  0  0  0
   -0.1132   -2.6947   -5.0238 H   0  0  0  0  0  0  0  0  0  0  0  0
   -0.2436   -1.4257   -3.2828 C   0  0  0  0  0  0  0  0  0  0  0  0
   -0.9228   -2.1045   -2.7806 H   0  0  0  0  0  0  0  0  0  0  0  0
    0.0943   -0.3769    1.1344 C   0  0  0  0  0  0  0  0  0  0  0  0
    1.2674   -0.2703    1.4663 O   0  0  0  0  0  0  0  0  0  0  0  0
   -0.8744    0.2753    1.8767 N   0  0  0  0  0  0  0  0  0  0  0  0
   -1.8371    0.0872    1.6184 H   0  0  0  0  0  0  0  0  0  0  0  0
   -0.6022    0.8718    3.1782 C   0  0  0  0  0  0  0  0  0  0  0  0
    0.1814    1.6324    3.0960 H   0  0  0  0  0  0  0  0  0  0  0  0
   -1.5045    1.3496    3.5712 H   0  0  0  0  0  0  0  0  0  0  0  0
   -0.2757    0.1050    3.8884 H   0  0  0  0  0  0  0  0  0  0  0  0
  1  2  1  0  0  0  0
  2  3  1  0  0  0  0
  2  4  1  0  0  0  0
  2  5  1  0  0  0  0
  5  6  2  0  0  0  0
  5  7  1  0  0  0  0
  7  8  1  0  0  0  0
  7  9  1  0  0  0  0
  9 10  1  0  0  0  0
  9 11  1  0  0  0  0
  9 25  1  0  0  0  0
 11 12  1  0  0  0  0
 11 13  1  0  0  0  0
 11 14  1  0  0  0  0
 14 15  1  0  0  0  0
 14 23  2  0  0  0  0
 15 16  1  0  0  0  0
 15 17  2  0  0  0  0
 17 18  1  0  0  0  0
 17 19  1  0  0  0  0
 19 20  1  0  0  0  0
 19 21  2  0  0  0  0
 21 22  1  0  0  0  0
 21 23  1  0  0  0  0
 23 24  1  0  0  0  0
 25 26  2  0  0  0  0
 25 27  1  0  0  0  0
 27 28  1  0  0  0  0
 27 29  1  0  0  0  0
 29 30  1  0  0  0  0
 29 31  1  0  0  0  0
 29 32  1  0  0  0  0
M  END
$$$$

  -OEChem-03222214073D

 32 32  0     1  0  0  0  0  0999 V2000
   -3.1341   -4.4455    0.9261 H   0  0  0  0  0  0  0  0  0  0  0  0
   -3.1082   -3.5652    0.2772 C   0  0  0  0  0  0  0  0  0  0  0  0
   -3.9583   -2.9238    0.5215 H   0  0  0  0  0  0  0  0  0  0  0  0
   -3.1925   -3.8934   -0.7615 H   0  0  0  0  0  0  0  0  0  0  0  0
   -1.8098   -2.8061    0.4784 C   0  0  0  0  0  0  0  0  0  0  0  0
   -1.0096   -3.1869    1.3132 O   0  0  0  0  0  0  0  0  0  0  0  0
   -1.5502   -1.6830   -0.2831 N   0  0  0  0  0  0  0  0  0  0  0  0
   -2.2218   -1.4597   -1.0109 H   0  0  0  0  0  0  0  0  0  0  0  0
   -0.2738   -0.9395   -0.2647 C   0  0  1  0  0  0  0  0  0  0  0  0
    0.5384   -1.6231   -0.5387 H   0  0  0  0  0  0  0  0  0  0  0  0
   -0.3288    0.2099   -1.2919 C   0  0  0  0  0  0  0  0  0  0  0  0
   -1.3475    0.6022   -1.3699 H   0  0  0  0  0  0  0  0  0  0  0  0
    0.3006    1.0353   -0.9404 H   0  0  0  0  0  0  0  0  0  0  0  0
    0.1617   -0.2202   -2.6582 C   0  0  0  0  0  0  0  0  0  0  0  0
    1.2664    0.4235   -3.2383 C   0  0  0  0  0  0  0  0  0  0  0  0
    1.7838    1.2131   -2.7010 H   0  0  0  0  0  0  0  0  0  0  0  0
    1.7246    0.0535   -4.5070 C   0  0  0  0  0  0  0  0  0  0  0  0
    2.5856    0.5552   -4.9392 H   0  0  0  0  0  0  0  0  0  0  0  0
    1.0778   -0.9623   -5.2155 C   0  0  0  0  0  0  0  0  0  0  0  0
    1.4348   -1.2507   -6.2000 H   0  0  0  0  0  0  0  0  0  0  0  0
   -0.0283   -1.6056   -4.6538 C   0  0  0  0  0  0  0  0  0  0  0  0
   -0.5319   -2.3950   -5.2040 H   0  0  0  0  0  0  0  0  0  0  0  0
   -0.4854   -1.2341   -3.3846 C   0  0  0  0  0  0  0  0  0  0  0  0
   -1.3471   -1.7454   -2.9718 H   0  0  0  0  0  0  0  0  0  0  0  0
    0.0937   -0.3677    1.1222 C   0  0  0  0  0  0  0  0  0  0  0  0
    1.2698   -0.2556    1.4416 O   0  0  0  0  0  0  0  0  0  0  0  0
   -0.8703    0.2726    1.8807 N   0  0  0  0  0  0  0  0  0  0  0  0
   -1.8347    0.0806    1.6315 H   0  0  0  0  0  0  0  0  0  0  0  0
   -0.5878    0.8555    3.1863 C   0  0  0  0  0  0  0  0  0  0  0  0
    0.1915    1.6207    3.1052 H   0  0  0  0  0  0  0  0  0  0  0  0
   -1.4884    1.3243    3.5939 H   0  0  0  0  0  0  0  0  0  0  0  0
   -0.2506    0.0820    3.8844 H   0  0  0  0  0  0  0  0  0  0  0  0
  1  2  1  0  0  0  0
  2  3  1  0  0  0  0
  2  4  1  0  0  0  0
  2  5  1  0  0  0  0
  5  6  2  0  0  0  0
  5  7  1  0  0  0  0
  7  8  1  0  0  0  0
  7  9  1  0  0  0  0
  9 10  1  0  0  0  0
  9 11  1  0  0  0  0
  9 25  1  0  0  0  0
 11 12  1  0  0  0  0
 11 13  1  0  0  0  0
 11 14  1  0  0  0  0
 14 15  1  0  0  0  0
 14 23  2  0  0  0  0
 15 16  1  0  0  0  0
 15 17  2  0  0  0  0
 17 18  1  0  0  0  0
 17 19  1  0  0  0  0
 19 20  1  0  0  0  0
 19 21  2  0  0  0  0
 21 22  1  0  0  0  0
 21 23  1  0  0  0  0
 23 24  1  0  0  0  0
 25 26  2  0  0  0  0
 25 27  1  0  0  0  0
 27 28  1  0  0  0  0
 27 29  1  0  0  0  0
 29 30  1  0  0  0  0
 29 31  1  0  0  0  0
 29 32  1  0  0  0  0
M  END
$$$$

  -OEChem-03222214073D

 32 32  0     1  0  0  0  0  0999 V2000
   -3.1078   -4.4701    0.8659 H   0  0  0  0  0  0  0  0  0  0  0  0
   -3.0927   -3.5822    0.2271 C   0  0  0  0  0  0  0  0  0  0  0  0
   -3.9666   -2.9683    0.4580 H   0  0  0  0  0  0  0  0  0  0  0  0
   -3.1430   -3.9014   -0.8168 H   0  0  0  0  0  0  0  0  0  0  0  0
   -1.8218   -2.7889    0.4677 C   0  0  0  0  0  0  0  0  0  0  0  0
   -1.0420   -3.1454    1.3322 O   0  0  0  0  0  0  0  0  0  0  0  0
   -1.5660   -1.6620   -0.2894 N   0  0  0  0  0  0  0  0  0  0  0  0
   -2.2032   -1.4823   -1.0586 H   0  0  0  0  0  0  0  0  0  0  0  0
   -0.2873   -0.9235   -0.2700 C   0  0  1  0  0  0  0  0  0  0  0  0
    0.5198   -1.6097   -0.5523 H   0  0  0  0  0  0  0  0  0  0  0  0
   -0.3447    0.2333   -1.2869 C   0  0  0  0  0  0  0  0  0  0  0  0
   -1.3627    0.6286   -1.3586 H   0  0  0  0  0  0  0  0  0  0  0  0
    0.2899    1.0573   -0.9416 H   0  0  0  0  0  0  0  0  0  0  0  0
    0.1405   -0.2102   -2.6477 C   0  0  0  0  0  0  0  0  0  0  0  0
    1.4093    0.1800   -3.1027 C   0  0  0  0  0  0  0  0  0  0  0  0
    2.0532    0.7854   -2.4709 H   0  0  0  0  0  0  0  0  0  0  0  0
    1.8663   -0.2146   -4.3644 C   0  0  0  0  0  0  0  0  0  0  0  0
    2.8538    0.0869   -4.7013 H   0  0  0  0  0  0  0  0  0  0  0  0
    1.0546   -0.9989   -5.1884 C   0  0  0  0  0  0  0  0  0  0  0  0
    1.4113   -1.3076   -6.1668 H   0  0  0  0  0  0  0  0  0  0  0  0
   -0.2158   -1.3841   -4.7506 C   0  0  0  0  0  0  0  0  0  0  0  0
   -0.8479   -1.9897   -5.3931 H   0  0  0  0  0  0  0  0  0  0  0  0
   -0.6713   -0.9892   -3.4875 C   0  0  0  0  0  0  0  0  0  0  0  0
   -1.6620   -1.2913   -3.1670 H   0  0  0  0  0  0  0  0  0  0  0  0
    0.0940   -0.3593    1.1165 C   0  0  0  0  0  0  0  0  0  0  0  0
    1.2747   -0.2464    1.4195 O   0  0  0  0  0  0  0  0  0  0  0  0
   -0.8592    0.2825    1.8872 N   0  0  0  0  0  0  0  0  0  0  0  0
   -1.8264    0.0817    1.6557 H   0  0  0  0  0  0  0  0  0  0  0  0
   -0.5575    0.8582    3.1919 C   0  0  0  0  0  0  0  0  0  0  0  0
    0.2237    1.6208    3.1040 H   0  0  0  0  0  0  0  0  0  0  0  0
   -1.4509    1.3285    3.6136 H   0  0  0  0  0  0  0  0  0  0  0  0
   -0.2140    0.0804    3.8820 H   0  0  0  0  0  0  0  0  0  0  0  0
  1  2  1  0  0  0  0
  2  3  1  0  0  0  0
  2  4  1  0  0  0  0
  2  5  1  0  0  0  0
  5  6  2  0  0  0  0
  5  7  1  0  0  0  0
  7  8  1  0  0  0  0
  7  9  1  0  0  0  0
  9 10  1  0  0  0  0
  9 11  1  0  0  0  0
  9 25  1  0  0  0  0
 11 12  1  0  0  0  0
 11 13  1  0  0  0  0
 11 14  1  0  0  0  0
 14 15  1  0  0  0  0
 14 23  2  0  0  0  0
 15 16  1  0  0  0  0
 15 17  2  0  0  0  0
 17 18  1  0  0  0  0
 17 19  1  0  0  0  0
 19 20  1  0  0  0  0
 19 21  2  0  0  0  0
 21 22  1  0  0  0  0
 21 23  1  0  0  0  0
 23 24  1  0  0  0  0
 25 26  2  0  0  0  0
 25 27  1  0  0  0  0
 27 28  1  0  0  0  0
 27 29  1  0  0  0  0
 29 30  1  0  0  0  0
 29 31  1  0  0  0  0
 29 32  1  0  0  0  0
M  END
$$$$

  -OEChem-03222214073D

 32 32  0     1  0  0  0  0  0999 V2000
   -3.1017   -4.4769    0.8208 H   0  0  0  0  0  0  0  0  0  0  0  0
   -3.0828   -3.5875    0.1844 C   0  0  0  0  0  0  0  0  0  0  0  0
   -3.9730   -2.9884    0.3903 H   0  0  0  0  0  0  0  0  0  0  0  0
   -3.0979   -3.9052   -0.8609 H   0  0  0  0  0  0  0  0  0  0  0  0
   -1.8325   -2.7737    0.4619 C   0  0  0  0  0  0  0  0  0  0  0  0
   -1.0759   -3.1140    1.3534 O   0  0  0  0  0  0  0  0  0  0  0  0
   -1.5715   -1.6467   -0.2934 N   0  0  0  0  0  0  0  0  0  0  0  0
   -2.1732   -1.5051   -1.0985 H   0  0  0  0  0  0  0  0  0  0  0  0
   -0.2879   -0.9171   -0.2709 C   0  0  1  0  0  0  0  0  0  0  0  0
    0.5150   -1.6055   -0.5593 H   0  0  0  0  0  0  0  0  0  0  0  0
   -0.3518    0.2464   -1.2791 C   0  0  0  0  0  0  0  0  0  0  0  0
   -1.3674    0.6503   -1.3370 H   0  0  0  0  0  0  0  0  0  0  0  0
    0.2950    1.0647   -0.9426 H   0  0  0  0  0  0  0  0  0  0  0  0
    0.1227   -0.2013   -2.6395 C   0  0  0  0  0  0  0  0  0  0  0  0
    1.4791   -0.0954   -2.9808 C   0  0  0  0  0  0  0  0  0  0  0  0
    2.1917    0.2999   -2.2616 H   0  0  0  0  0  0  0  0  0  0  0  0
    1.9282   -0.5053   -4.2405 C   0  0  0  0  0  0  0  0  0  0  0  0
    2.9816   -0.4230   -4.4925 H   0  0  0  0  0  0  0  0  0  0  0  0
    1.0226   -1.0213   -5.1721 C   0  0  0  0  0  0  0  0  0  0  0  0
    1.3725   -1.3399   -6.1498 H   0  0  0  0  0  0  0  0  0  0  0  0
   -0.3325   -1.1249   -4.8433 C   0  0  0  0  0  0  0  0  0  0  0  0
   -1.0357   -1.5218   -5.5695 H   0  0  0  0  0  0  0  0  0  0  0  0
   -0.7806   -0.7154   -3.5824 C   0  0  0  0  0  0  0  0  0  0  0  0
   -1.8360   -0.7947   -3.3439 H   0  0  0  0  0  0  0  0  0  0  0  0
    0.1005   -0.3573    1.1151 C   0  0  0  0  0  0  0  0  0  0  0  0
    1.2833   -0.2548    1.4141 O   0  0  0  0  0  0  0  0  0  0  0  0
   -0.8459    0.2910    1.8885 N   0  0  0  0  0  0  0  0  0  0  0  0
   -1.8147    0.0925    1.6614 H   0  0  0  0  0  0  0  0  0  0  0  0
   -0.5375    0.8610    3.1938 C   0  0  0  0  0  0  0  0  0  0  0  0
    0.2478    1.6193    3.1063 H   0  0  0  0  0  0  0  0  0  0  0  0
   -1.4267    1.3355    3.6193 H   0  0  0  0  0  0  0  0  0  0  0  0
   -0.1975    0.0789    3.8807 H   0  0  0  0  0  0  0  0  0  0  0  0
  1  2  1  0  0  0  0
  2  3  1  0  0  0  0
  2  4  1  0  0  0  0
  2  5  1  0  0  0  0
  5  6  2  0  0  0  0
  5  7  1  0  0  0  0
  7  8  1  0  0  0  0
  7  9  1  0  0  0  0
  9 10  1  0  0  0  0
  9 11  1  0  0  0  0
  9 25  1  0  0  0  0
 11 12  1  0  0  0  0
 11 13  1  0  0  0  0
 11 14  1  0  0  0  0
 14 15  1  0  0  0  0
 14 23  2  0  0  0  0
 15 16  1  0  0  0  0
 15 17  2  0  0  0  0
 17 18  1  0  0  0  0
 17 19  1  0  0  0  0
 19 20  1  0  0  0  0
 19 21  2  0  0  0  0
 21 22  1  0  0  0  0
 21 23  1  0  0  0  0
 23 24  1  0  0  0  0
 25 26  2  0  0  0  0
 25 27  1  0  0  0  0
 27 28  1  0  0  0  0
 27 29  1  0  0  0  0
 29 30  1  0  0  0  0
 29 31  1  0  0  0  0
 29 32  1  0  0  0  0
M  END
$$$$

  -OEChem-03222214073D

 32 32  0     1  0  0  0  0  0999 V2000
   -3.1044   -4.4792    0.8038 H   0  0  0  0  0  0  0  0  0  0  0  0
   -3.0831   -3.5902    0.1670 C   0  0  0  0  0  0  0  0  0  0  0  0
   -3.9792   -2.9962    0.3614 H   0  0  0  0  0  0  0  0  0  0  0  0
   -3.0830   -3.9085   -0.8784 H   0  0  0  0  0  0  0  0  0  0  0  0
   -1.8417   -2.7684    0.4604 C   0  0  0  0  0  0  0  0  0  0  0  0
   -1.0946   -3.1035    1.3618 O   0  0  0  0  0  0  0  0  0  0  0  0
   -1.5756   -1.6422   -0.2943 N   0  0  0  0  0  0  0  0  0  0  0  0
   -2.1615   -1.5132   -1.1136 H   0  0  0  0  0  0  0  0  0  0  0  0
   -0.2885   -0.9195   -0.2680 C   0  0  1  0  0  0  0  0  0  0  0  0
    0.5104   -1.6124   -0.5556 H   0  0  0  0  0  0  0  0  0  0  0  0
   -0.3555    0.2462   -1.2741 C   0  0  0  0  0  0  0  0  0  0  0  0
   -1.3696    0.6556   -1.3200 H   0  0  0  0  0  0  0  0  0  0  0  0
    0.2999    1.0599   -0.9426 H   0  0  0  0  0  0  0  0  0  0  0  0
    0.1128   -0.1935   -2.6391 C   0  0  0  0  0  0  0  0  0  0  0  0
    1.4804   -0.3845   -2.8869 C   0  0  0  0  0  0  0  0  0  0  0  0
    2.2048   -0.2135   -2.0947 H   0  0  0  0  0  0  0  0  0  0  0  0
    1.9224   -0.7991   -4.1475 C   0  0  0  0  0  0  0  0  0  0  0  0
    2.9834   -0.9456   -4.3279 H   0  0  0  0  0  0  0  0  0  0  0  0
    0.9993   -1.0249   -5.1727 C   0  0  0  0  0  0  0  0  0  0  0  0
    1.3431   -1.3473   -6.1513 H   0  0  0  0  0  0  0  0  0  0  0  0
   -0.3655   -0.8337   -4.9362 C   0  0  0  0  0  0  0  0  0  0  0  0
   -1.0815   -1.0051   -5.7345 H   0  0  0  0  0  0  0  0  0  0  0  0
   -0.8067   -0.4192   -3.6745 C   0  0  0  0  0  0  0  0  0  0  0  0
   -1.8685   -0.2690   -3.5073 H   0  0  0  0  0  0  0  0  0  0  0  0
    0.1037   -0.3613    1.1173 C   0  0  0  0  0  0  0  0  0  0  0  0
    1.2876   -0.2688    1.4154 O   0  0  0  0  0  0  0  0  0  0  0  0
   -0.8380    0.2931    1.8913 N   0  0  0  0  0  0  0  0  0  0  0  0
   -1.8084    0.1014    1.6645 H   0  0  0  0  0  0  0  0  0  0  0  0
   -0.5246    0.8640    3.1951 C   0  0  0  0  0  0  0  0  0  0  0  0
    0.2662    1.6163    3.1051 H   0  0  0  0  0  0  0  0  0  0  0  0
   -1.4102    1.3461    3.6199 H   0  0  0  0  0  0  0  0  0  0  0  0
   -0.1893    0.0813    3.8837 H   0  0  0  0  0  0  0  0  0  0  0  0
  1  2  1  0  0  0  0
  2  3  1  0  0  0  0
  2  4  1  0  0  0  0
  2  5  1  0  0  0  0
  5  6  2  0  0  0  0
  5  7  1  0  0  0  0
  7  8  1  0  0  0  0
  7  9  1  0  0  0  0
  9 10  1  0  0  0  0
  9 11  1  0  0  0  0
  9 25  1  0  0  0  0
 11 12  1  0  0  0  0
 11 13  1  0  0  0  0
 11 14  1  0  0  0  0
 14 15  1  0  0  0  0
 14 23  2  0  0  0  0
 15 16  1  0  0  0  0
 15 17  2  0  0  0  0
 17 18  1  0  0  0  0
 17 19  1  0  0  0  0
 19 20  1  0  0  0  0
 19 21  2  0  0  0  0
 21 22  1  0  0  0  0
 21 23  1  0  0  0  0
 23 24  1  0  0  0  0
 25 26  2  0  0  0  0
 25 27  1  0  0  0  0
 27 28  1  0  0  0  0
 27 29  1  0  0  0  0
 29 30  1  0  0  0  0
 29 31  1  0  0  0  0
 29 32  1  0  0  0  0
M  END
$$$$

  -OEChem-03222214073D

 32 32  0     1  0  0  0  0  0999 V2000
   -3.1256   -4.4680    0.8233 H   0  0  0  0  0  0  0  0  0  0  0  0
   -3.0910   -3.5850    0.1785 C   0  0  0  0  0  0  0  0  0  0  0  0
   -3.9816   -2.9794    0.3623 H   0  0  0  0  0  0  0  0  0  0  0  0
   -3.0887   -3.9124   -0.8640 H   0  0  0  0  0  0  0  0  0  0  0  0
   -1.8425   -2.7740    0.4705 C   0  0  0  0  0  0  0  0  0  0  0  0
   -1.0997   -3.1126    1.3742 O   0  0  0  0  0  0  0  0  0  0  0  0
   -1.5648   -1.6538   -0.2889 N   0  0  0  0  0  0  0  0  0  0  0  0
   -2.1446   -1.5255   -1.1131 H   0  0  0  0  0  0  0  0  0  0  0  0
   -0.2755   -0.9363   -0.2563 C   0  0  1  0  0  0  0  0  0  0  0  0
    0.5210   -1.6367   -0.5280 H   0  0  0  0  0  0  0  0  0  0  0  0
   -0.3403    0.2268   -1.2691 C   0  0  0  0  0  0  0  0  0  0  0  0
   -1.3527    0.6412   -1.3062 H   0  0  0  0  0  0  0  0  0  0  0  0
    0.3200    1.0360   -0.9371 H   0  0  0  0  0  0  0  0  0  0  0  0
    0.1268   -0.1918   -2.6437 C   0  0  0  0  0  0  0  0  0  0  0  0
    1.4299   -0.6755   -2.8437 C   0  0  0  0  0  0  0  0  0  0  0  0
    2.1247   -0.7326   -2.0097 H   0  0  0  0  0  0  0  0  0  0  0  0
    1.8506   -1.0822   -4.1140 C   0  0  0  0  0  0  0  0  0  0  0  0
    2.8607   -1.4556   -4.2553 H   0  0  0  0  0  0  0  0  0  0  0  0
    0.9728   -1.0055   -5.1993 C   0  0  0  0  0  0  0  0  0  0  0  0
    1.3007   -1.3199   -6.1860 H   0  0  0  0  0  0  0  0  0  0  0  0
   -0.3247   -0.5197   -5.0128 C   0  0  0  0  0  0  0  0  0  0  0  0
   -1.0054   -0.4555   -5.8566 H   0  0  0  0  0  0  0  0  0  0  0  0
   -0.7450   -0.1155   -3.7409 C   0  0  0  0  0  0  0  0  0  0  0  0
   -1.7549    0.2617   -3.6135 H   0  0  0  0  0  0  0  0  0  0  0  0
    0.1044   -0.3720    1.1298 C   0  0  0  0  0  0  0  0  0  0  0  0
    1.2852   -0.2845    1.4409 O   0  0  0  0  0  0  0  0  0  0  0  0
   -0.8435    0.2899    1.8897 N   0  0  0  0  0  0  0  0  0  0  0  0
   -1.8121    0.1044    1.6508 H   0  0  0  0  0  0  0  0  0  0  0  0
   -0.5436    0.8691    3.1928 C   0  0  0  0  0  0  0  0  0  0  0  0
    0.2534    1.6152    3.1068 H   0  0  0  0  0  0  0  0  0  0  0  0
   -1.4313    1.3609    3.6016 H   0  0  0  0  0  0  0  0  0  0  0  0
   -0.2234    0.0899    3.8926 H   0  0  0  0  0  0  0  0  0  0  0  0
  1  2  1  0  0  0  0
  2  3  1  0  0  0  0
  2  4  1  0  0  0  0
  2  5  1  0  0  0  0
  5  6  2  0  0  0  0
  5  7  1  0  0  0  0
  7  8  1  0  0  0  0
  7  9  1  0  0  0  0
  9 10  1  0  0  0  0
  9 11  1  0  0  0  0
  9 25  1  0  0  0  0
 11 12  1  0  0  0  0
 11 13  1  0  0  0  0
 11 14  1  0  0  0  0
 14 15  1  0  0  0  0
 14 23  2  0  0  0  0
 15 16  1  0  0  0  0
 15 17  2  0  0  0  0
 17 18  1  0  0  0  0
 17 19  1  0  0  0  0
 19 20  1  0  0  0  0
 19 21  2  0  0  0  0
 21 22  1  0  0  0  0
 21 23  1  0  0  0  0
 23 24  1  0  0  0  0
 25 26  2  0  0  0  0
 25 27  1  0  0  0  0
 27 28  1  0  0  0  0
 27 29  1  0  0  0  0
 29 30  1  0  0  0  0
 29 31  1  0  0  0  0
 29 32  1  0  0  0  0
M  END
$$$$

  -OEChem-03222214073D

 32 32  0     1  0  0  0  0  0999 V2000
   -3.1540   -4.4605    0.8663 H   0  0  0  0  0  0  0  0  0  0  0  0
   -3.1073   -3.5846    0.2125 C   0  0  0  0  0  0  0  0  0  0  0  0
   -3.9935   -2.9694    0.3847 H   0  0  0  0  0  0  0  0  0  0  0  0
   -3.1017   -3.9231   -0.8264 H   0  0  0  0  0  0  0  0  0  0  0  0
   -1.8533   -2.7816    0.5043 C   0  0  0  0  0  0  0  0  0  0  0  0
   -1.1234   -3.1133    1.4209 O   0  0  0  0  0  0  0  0  0  0  0  0
   -1.5536   -1.6778   -0.2707 N   0  0  0  0  0  0  0  0  0  0  0  0
   -2.1238   -1.5540   -1.1025 H   0  0  0  0  0  0  0  0  0  0  0  0
   -0.2598   -0.9685   -0.2306 C   0  0  1  0  0  0  0  0  0  0  0  0
    0.5337   -1.6817   -0.4677 H   0  0  0  0  0  0  0  0  0  0  0  0
   -0.3106    0.1796   -1.2648 C   0  0  0  0  0  0  0  0  0  0  0  0
   -1.3221    0.5965   -1.3026 H   0  0  0  0  0  0  0  0  0  0  0  0
    0.3497    0.9877   -0.9304 H   0  0  0  0  0  0  0  0  0  0  0  0
    0.1615   -0.2131   -2.6510 C   0  0  0  0  0  0  0  0  0  0  0  0
    1.3304   -0.9676   -2.8607 C   0  0  0  0  0  0  0  0  0  0  0  0
    1.9619   -1.2595   -2.0267 H   0  0  0  0  0  0  0  0  0  0  0  0
    1.7210   -1.3366   -4.1524 C   0  0  0  0  0  0  0  0  0  0  0  0
    2.6279   -1.9164   -4.2989 H   0  0  0  0  0  0  0  0  0  0  0  0
    0.9507   -0.9542   -5.2534 C   0  0  0  0  0  0  0  0  0  0  0  0
    1.2568   -1.2387   -6.2561 H   0  0  0  0  0  0  0  0  0  0  0  0
   -0.2083   -0.1984   -5.0611 C   0  0  0  0  0  0  0  0  0  0  0  0
   -0.8043    0.1060   -5.9166 H   0  0  0  0  0  0  0  0  0  0  0  0
   -0.5985    0.1689   -3.7686 C   0  0  0  0  0  0  0  0  0  0  0  0
   -1.5009    0.7588   -3.6402 H   0  0  0  0  0  0  0  0  0  0  0  0
    0.0977   -0.3819    1.1527 C   0  0  0  0  0  0  0  0  0  0  0  0
    1.2725   -0.3007    1.4872 O   0  0  0  0  0  0  0  0  0  0  0  0
   -0.8596    0.2992    1.8832 N   0  0  0  0  0  0  0  0  0  0  0  0
   -1.8245    0.1180    1.6270 H   0  0  0  0  0  0  0  0  0  0  0  0
   -0.5816    0.8918    3.1852 C   0  0  0  0  0  0  0  0  0  0  0  0
    0.2239    1.6295    3.1075 H   0  0  0  0  0  0  0  0  0  0  0  0
   -1.4733    1.3962    3.5688 H   0  0  0  0  0  0  0  0  0  0  0  0
   -0.2831    0.1186    3.9008 H   0  0  0  0  0  0  0  0  0  0  0  0
  1  2  1  0  0  0  0
  2  3  1  0  0  0  0
  2  4  1  0  0  0  0
  2  5  1  0  0  0  0
  5  6  2  0  0  0  0
  5  7  1  0  0  0  0
  7  8  1  0  0  0  0
  7  9  1  0  0  0  0
  9 10  1  0  0  0  0
  9 11  1  0  0  0  0
  9 25  1  0  0  0  0
 11 12  1  0  0  0  0
 11 13  1  0  0  0  0
 11 14  1  0  0  0  0
 14 15  1  0  0  0  0
 14 23  2  0  0  0  0
 15 16  1  0  0  0  0
 15 17  2  0  0  0  0
 17 18  1  0  0  0  0
 17 19  1  0  0  0  0
 19 20  1  0  0  0  0
 19 21  2  0  0  0  0
 21 22  1  0  0  0  0
 21 23  1  0  0  0  0
 23 24  1  0  0  0  0
 25 26  2  0  0  0  0
 25 27  1  0  0  0  0
 27 28  1  0  0  0  0
 27 29  1  0  0  0  0
 29 30  1  0  0  0  0
 29 31  1  0  0  0  0
 29 32  1  0  0  0  0
M  END
$$$$

  -OEChem-03222214073D

 32 32  0     1  0  0  0  0  0999 V2000
   -3.1983   -4.4411    0.9384 H   0  0  0  0  0  0  0  0  0  0  0  0
   -3.1309   -3.5795    0.2681 C   0  0  0  0  0  0  0  0  0  0  0  0
   -4.0058   -2.9436    0.4225 H   0  0  0  0  0  0  0  0  0  0  0  0
   -3.1261   -3.9383   -0.7640 H   0  0  0  0  0  0  0  0  0  0  0  0
   -1.8633   -2.7953    0.5511 C   0  0  0  0  0  0  0  0  0  0  0  0
   -1.1446   -3.1208    1.4787 O   0  0  0  0  0  0  0  0  0  0  0  0
   -1.5394   -1.7147   -0.2461 N   0  0  0  0  0  0  0  0  0  0  0  0
   -2.1051   -1.5946   -1.0818 H   0  0  0  0  0  0  0  0  0  0  0  0
   -0.2414   -1.0135   -0.2045 C   0  0  1  0  0  0  0  0  0  0  0  0
    0.5558   -1.7315   -0.4026 H   0  0  0  0  0  0  0  0  0  0  0  0
   -0.2797    0.1147   -1.2631 C   0  0  0  0  0  0  0  0  0  0  0  0
   -1.2911    0.5311   -1.3070 H   0  0  0  0  0  0  0  0  0  0  0  0
    0.3779    0.9252   -0.9294 H   0  0  0  0  0  0  0  0  0  0  0  0
    0.1928   -0.2564   -2.6597 C   0  0  0  0  0  0  0  0  0  0  0  0
    1.1681   -1.2384   -2.9248 C   0  0  0  0  0  0  0  0  0  0  0  0
    1.6802   -1.7660   -2.1280 H   0  0  0  0  0  0  0  0  0  0  0  0
    1.5366   -1.5453   -4.2391 C   0  0  0  0  0  0  0  0  0  0  0  0
    2.2940   -2.3013   -4.4255 H   0  0  0  0  0  0  0  0  0  0  0  0
    0.9420   -0.8762   -5.3106 C   0  0  0  0  0  0  0  0  0  0  0  0
    1.2327   -1.1135   -6.3299 H   0  0  0  0  0  0  0  0  0  0  0  0
   -0.0199    0.1055   -5.0657 C   0  0  0  0  0  0  0  0  0  0  0  0
   -0.4788    0.6339   -5.8963 H   0  0  0  0  0  0  0  0  0  0  0  0
   -0.3891    0.4105   -3.7513 C   0  0  0  0  0  0  0  0  0  0  0  0
   -1.1374    1.1793   -3.5837 H   0  0  0  0  0  0  0  0  0  0  0  0
    0.0907   -0.3955    1.1720 C   0  0  0  0  0  0  0  0  0  0  0  0
    1.2576   -0.3184    1.5335 O   0  0  0  0  0  0  0  0  0  0  0  0
   -0.8774    0.3082    1.8663 N   0  0  0  0  0  0  0  0  0  0  0  0
   -1.8379    0.1280    1.5937 H   0  0  0  0  0  0  0  0  0  0  0  0
   -0.6228    0.9301    3.1596 C   0  0  0  0  0  0  0  0  0  0  0  0
    0.1894    1.6606    3.0809 H   0  0  0  0  0  0  0  0  0  0  0  0
   -1.5189    1.4494    3.5126 H   0  0  0  0  0  0  0  0  0  0  0  0
   -0.3443    0.1723    3.8995 H   0  0  0  0  0  0  0  0  0  0  0  0
  1  2  1  0  0  0  0
  2  3  1  0  0  0  0
  2  4  1  0  0  0  0
  2  5  1  0  0  0  0
  5  6  2  0  0  0  0
  5  7  1  0  0  0  0
  7  8  1  0  0  0  0
  7  9  1  0  0  0  0
  9 10  1  0  0  0  0
  9 11  1  0  0  0  0
  9 25  1  0  0  0  0
 11 12  1  0  0  0  0
 11 13  1  0  0  0  0
 11 14  1  0  0  0  0
 14 15  1  0  0  0  0
 14 23  2  0  0  0  0
 15 16  1  0  0  0  0
 15 17  2  0  0  0  0
 17 18  1  0  0  0  0
 17 19  1  0  0  0  0
 19 20  1  0  0  0  0
 19 21  2  0  0  0  0
 21 22  1  0  0  0  0
 21 23  1  0  0  0  0
 23 24  1  0  0  0  0
 25 26  2  0  0  0  0
 25 27  1  0  0  0  0
 27 28  1  0  0  0  0
 27 29  1  0  0  0  0
 29 30  1  0  0  0  0
 29 31  1  0  0  0  0
 29 32  1  0  0  0  0
M  END
$$$$

  -OEChem-03222214073D

 32 32  0     1  0  0  0  0  0999 V2000
   -3.2212   -4.4270    1.0181 H   0  0  0  0  0  0  0  0  0  0  0  0
   -3.1499   -3.5775    0.3326 C   0  0  0  0  0  0  0  0  0  0  0  0
   -4.0141   -2.9270    0.4869 H   0  0  0  0  0  0  0  0  0  0  0  0
   -3.1627   -3.9534   -0.6934 H   0  0  0  0  0  0  0  0  0  0  0  0
   -1.8681   -2.8067    0.5885 C   0  0  0  0  0  0  0  0  0  0  0  0
   -1.1400   -3.1317    1.5088 O   0  0  0  0  0  0  0  0  0  0  0  0
   -1.5383   -1.7421   -0.2276 N   0  0  0  0  0  0  0  0  0  0  0  0
   -2.1156   -1.6190   -1.0549 H   0  0  0  0  0  0  0  0  0  0  0  0
   -0.2379   -1.0439   -0.1995 C   0  0  1  0  0  0  0  0  0  0  0  0
    0.5677   -1.7569   -0.3799 H   0  0  0  0  0  0  0  0  0  0  0  0
   -0.2729    0.0715   -1.2705 C   0  0  0  0  0  0  0  0  0  0  0  0
   -1.2836    0.4899   -1.3172 H   0  0  0  0  0  0  0  0  0  0  0  0
    0.3873    0.8819   -0.9408 H   0  0  0  0  0  0  0  0  0  0  0  0
    0.1893   -0.2932   -2.6733 C   0  0  0  0  0  0  0  0  0  0  0  0
    0.9186   -1.4537   -3.0065 C   0  0  0  0  0  0  0  0  0  0  0  0
    1.2184   -2.1839   -2.2650 H   0  0  0  0  0  0  0  0  0  0  0  0
    1.2986   -1.7052   -4.3297 C   0  0  0  0  0  0  0  0  0  0  0  0
    1.8639   -2.6014   -4.5690 H   0  0  0  0  0  0  0  0  0  0  0  0
    0.9607   -0.8056   -5.3424 C   0  0  0  0  0  0  0  0  0  0  0  0
    1.2601   -1.0016   -6.3679 H   0  0  0  0  0  0  0  0  0  0  0  0
    0.2427    0.3496   -5.0298 C   0  0  0  0  0  0  0  0  0  0  0  0
   -0.0168    1.0554   -5.8134 H   0  0  0  0  0  0  0  0  0  0  0  0
   -0.1362    0.6007   -3.7073 C   0  0  0  0  0  0  0  0  0  0  0  0
   -0.6885    1.5087   -3.4841 H   0  0  0  0  0  0  0  0  0  0  0  0
    0.0873   -0.4042    1.1695 C   0  0  0  0  0  0  0  0  0  0  0  0
    1.2516   -0.3227    1.5383 O   0  0  0  0  0  0  0  0  0  0  0  0
   -0.8844    0.3115    1.8468 N   0  0  0  0  0  0  0  0  0  0  0  0
   -1.8436    0.1331    1.5679 H   0  0  0  0  0  0  0  0  0  0  0  0
   -0.6377    0.9567    3.1300 C   0  0  0  0  0  0  0  0  0  0  0  0
    0.1769    1.6834    3.0437 H   0  0  0  0  0  0  0  0  0  0  0  0
   -1.5346    1.4850    3.4667 H   0  0  0  0  0  0  0  0  0  0  0  0
   -0.3672    0.2121    3.8860 H   0  0  0  0  0  0  0  0  0  0  0  0
  1  2  1  0  0  0  0
  2  3  1  0  0  0  0
  2  4  1  0  0  0  0
  2  5  1  0  0  0  0
  5  6  2  0  0  0  0
  5  7  1  0  0  0  0
  7  8  1  0  0  0  0
  7  9  1  0  0  0  0
  9 10  1  0  0  0  0
  9 11  1  0  0  0  0
  9 25  1  0  0  0  0
 11 12  1  0  0  0  0
 11 13  1  0  0  0  0
 11 14  1  0  0  0  0
 14 15  1  0  0  0  0
 14 23  2  0  0  0  0
 15 16  1  0  0  0  0
 15 17  2  0  0  0  0
 17 18  1  0  0  0  0
 17 19  1  0  0  0  0
 19 20  1  0  0  0  0
 19 21  2  0  0  0  0
 21 22  1  0  0  0  0
 21 23  1  0  0  0  0
 23 24  1  0  0  0  0
 25 26  2  0  0  0  0
 25 27  1  0  0  0  0
 27 28  1  0  0  0  0
 27 29  1  0  0  0  0
 29 30  1  0  0  0  0
 29 31  1  0  0  0  0
 29 32  1  0  0  0  0
M  END
$$$$

  -OEChem-03222214073D

 32 32  0     1  0  0  0  0  0999 V2000
   -3.2203   -4.4179    1.0395 H   0  0  0  0  0  0  0  0  0  0  0  0
   -3.1542   -3.5692    0.3527 C   0  0  0  0  0  0  0  0  0  0  0  0
   -4.0090   -2.9103    0.5233 H   0  0  0  0  0  0  0  0  0  0  0  0
   -3.1900   -3.9450   -0.6726 H   0  0  0  0  0  0  0  0  0  0  0  0
   -1.8602   -2.8111    0.5838 C   0  0  0  0  0  0  0  0  0  0  0  0
   -1.1107   -3.1522    1.4805 O   0  0  0  0  0  0  0  0  0  0  0  0
   -1.5419   -1.7416   -0.2303 N   0  0  0  0  0  0  0  0  0  0  0  0
   -2.1428   -1.5979   -1.0372 H   0  0  0  0  0  0  0  0  0  0  0  0
   -0.2436   -1.0386   -0.2145 C   0  0  1  0  0  0  0  0  0  0  0  0
    0.5705   -1.7402   -0.4113 H   0  0  0  0  0  0  0  0  0  0  0  0
   -0.2905    0.0811   -1.2788 C   0  0  0  0  0  0  0  0  0  0  0  0
   -1.3016    0.4984   -1.3233 H   0  0  0  0  0  0  0  0  0  0  0  0
    0.3707    0.8910   -0.9502 H   0  0  0  0  0  0  0  0  0  0  0  0
    0.1605   -0.2877   -2.6830 C   0  0  0  0  0  0  0  0  0  0  0  0
    0.6103   -1.5667   -3.0712 C   0  0  0  0  0  0  0  0  0  0  0  0
    0.6518   -2.3985   -2.3778 H   0  0  0  0  0  0  0  0  0  0  0  0
    1.0159   -1.8131   -4.3875 C   0  0  0  0  0  0  0  0  0  0  0  0
    1.3619   -2.8030   -4.6705 H   0  0  0  0  0  0  0  0  0  0  0  0
    0.9809   -0.7906   -5.3376 C   0  0  0  0  0  0  0  0  0  0  0  0
    1.3000   -0.9832   -6.3578 H   0  0  0  0  0  0  0  0  0  0  0  0
    0.5380    0.4810   -4.9698 C   0  0  0  0  0  0  0  0  0  0  0  0
    0.5130    1.2805   -5.7043 H   0  0  0  0  0  0  0  0  0  0  0  0
    0.1329    0.7267   -3.6540 C   0  0  0  0  0  0  0  0  0  0  0  0
   -0.2017    1.7240   -3.3842 H   0  0  0  0  0  0  0  0  0  0  0  0
    0.0913   -0.4051    1.1553 C   0  0  0  0  0  0  0  0  0  0  0  0
    1.2581   -0.3199    1.5151 O   0  0  0  0  0  0  0  0  0  0  0  0
   -0.8775    0.3023    1.8453 N   0  0  0  0  0  0  0  0  0  0  0  0
   -1.8385    0.1246    1.5726 H   0  0  0  0  0  0  0  0  0  0  0  0
   -0.6206    0.9465    3.1272 C   0  0  0  0  0  0  0  0  0  0  0  0
    0.1889    1.6781    3.0340 H   0  0  0  0  0  0  0  0  0  0  0  0
   -1.5169    1.4690    3.4745 H   0  0  0  0  0  0  0  0  0  0  0  0
   -0.3375    0.2021    3.8787 H   0  0  0  0  0  0  0  0  0  0  0  0
  1  2  1  0  0  0  0
  2  3  1  0  0  0  0
  2  4  1  0  0  0  0
  2  5  1  0  0  0  0
  5  6  2  0  0  0  0
  5  7  1  0  0  0  0
  7  8  1  0  0  0  0
  7  9  1  0  0  0  0
  9 10  1  0  0  0  0
  9 11  1  0  0  0  0
  9 25  1  0  0  0  0
 11 12  1  0  0  0  0
 11 13  1  0  0  0  0
 11 14  1  0  0  0  0
 14 15  1  0  0  0  0
 14 23  2  0  0  0  0
 15 16  1  0  0  0  0
 15 17  2  0  0  0  0
 17 18  1  0  0  0  0
 17 19  1  0  0  0  0
 19 20  1  0  0  0  0
 19 21  2  0  0  0  0
 21 22  1  0  0  0  0
 21 23  1  0  0  0  0
 23 24  1  0  0  0  0
 25 26  2  0  0  0  0
 25 27  1  0  0  0  0
 27 28  1  0  0  0  0
 27 29  1  0  0  0  0
 29 30  1  0  0  0  0
 29 31  1  0  0  0  0
 29 32  1  0  0  0  0
M  END
$$$$

  -OEChem-03222214073D

 32 32  0     1  0  0  0  0  0999 V2000
   -3.1984   -4.4144    1.0079 H   0  0  0  0  0  0  0  0  0  0  0  0
   -3.1467   -3.5508    0.3386 C   0  0  0  0  0  0  0  0  0  0  0  0
   -3.9925   -2.8917    0.5487 H   0  0  0  0  0  0  0  0  0  0  0  0
   -3.2143   -3.9026   -0.6937 H   0  0  0  0  0  0  0  0  0  0  0  0
   -1.8427   -2.8046    0.5491 C   0  0  0  0  0  0  0  0  0  0  0  0
   -1.0707   -3.1673    1.4178 O   0  0  0  0  0  0  0  0  0  0  0  0
   -1.5430   -1.7175   -0.2485 N   0  0  0  0  0  0  0  0  0  0  0  0
   -2.1717   -1.5414   -1.0274 H   0  0  0  0  0  0  0  0  0  0  0  0
   -0.2503   -1.0032   -0.2366 C   0  0  1  0  0  0  0  0  0  0  0  0
    0.5656   -1.6965   -0.4656 H   0  0  0  0  0  0  0  0  0  0  0  0
   -0.3100    0.1260   -1.2884 C   0  0  0  0  0  0  0  0  0  0  0  0
   -1.3234    0.5367   -1.3343 H   0  0  0  0  0  0  0  0  0  0  0  0
    0.3468    0.9380   -0.9550 H   0  0  0  0  0  0  0  0  0  0  0  0
    0.1420   -0.2541   -2.6876 C   0  0  0  0  0  0  0  0  0  0  0  0
    0.3003   -1.5842   -3.1261 C   0  0  0  0  0  0  0  0  0  0  0  0
    0.0984   -2.4255   -2.4717 H   0  0  0  0  0  0  0  0  0  0  0  0
    0.7214   -1.8612   -4.4313 C   0  0  0  0  0  0  0  0  0  0  0  0
    0.8427   -2.8909   -4.7549 H   0  0  0  0  0  0  0  0  0  0  0  0
    0.9897   -0.8168   -5.3191 C   0  0  0  0  0  0  0  0  0  0  0  0
    1.3206   -1.0327   -6.3309 H   0  0  0  0  0  0  0  0  0  0  0  0
    0.8334    0.5063   -4.9005 C   0  0  0  0  0  0  0  0  0  0  0  0
    1.0427    1.3215   -5.5870 H   0  0  0  0  0  0  0  0  0  0  0  0
    0.4117    0.7819   -3.5959 C   0  0  0  0  0  0  0  0  0  0  0  0
    0.2983    1.8168   -3.2866 H   0  0  0  0  0  0  0  0  0  0  0  0
    0.0978   -0.3920    1.1396 C   0  0  0  0  0  0  0  0  0  0  0  0
    1.2677   -0.3053    1.4882 O   0  0  0  0  0  0  0  0  0  0  0  0
   -0.8682    0.2939    1.8548 N   0  0  0  0  0  0  0  0  0  0  0  0
   -1.8305    0.1165    1.5867 H   0  0  0  0  0  0  0  0  0  0  0  0
   -0.6046    0.8967    3.1553 C   0  0  0  0  0  0  0  0  0  0  0  0
    0.2021    1.6338    3.0813 H   0  0  0  0  0  0  0  0  0  0  0  0
   -1.5004    1.4044    3.5251 H   0  0  0  0  0  0  0  0  0  0  0  0
   -0.3143    0.1288    3.8802 H   0  0  0  0  0  0  0  0  0  0  0  0
  1  2  1  0  0  0  0
  2  3  1  0  0  0  0
  2  4  1  0  0  0  0
  2  5  1  0  0  0  0
  5  6  2  0  0  0  0
  5  7  1  0  0  0  0
  7  8  1  0  0  0  0
  7  9  1  0  0  0  0
  9 10  1  0  0  0  0
  9 11  1  0  0  0  0
  9 25  1  0  0  0  0
 11 12  1  0  0  0  0
 11 13  1  0  0  0  0
 11 14  1  0  0  0  0
 14 15  1  0  0  0  0
 14 23  2  0  0  0  0
 15 16  1  0  0  0  0
 15 17  2  0  0  0  0
 17 18  1  0  0  0  0
 17 19  1  0  0  0  0
 19 20  1  0  0  0  0
 19 21  2  0  0  0  0
 21 22  1  0  0  0  0
 21 23  1  0  0  0  0
 23 24  1  0  0  0  0
 25 26  2  0  0  0  0
 25 27  1  0  0  0  0
 27 28  1  0  0  0  0
 27 29  1  0  0  0  0
 29 30  1  0  0  0  0
 29 31  1  0  0  0  0
 29 32  1  0  0  0  0
M  END
$$$$

  -OEChem-03222214073D

 32 32  0     1  0  0  0  0  0999 V2000
   -3.1869   -4.4195    0.9670 H   0  0  0  0  0  0  0  0  0  0  0  0
   -3.1410   -3.5503    0.3045 C   0  0  0  0  0  0  0  0  0  0  0  0
   -3.9864   -2.8944    0.5262 H   0  0  0  0  0  0  0  0  0  0  0  0
   -3.2147   -3.8938   -0.7302 H   0  0  0  0  0  0  0  0  0  0  0  0
   -1.8365   -2.8041    0.5124 C   0  0  0  0  0  0  0  0  0  0  0  0
   -1.0497   -3.1834    1.3603 O   0  0  0  0  0  0  0  0  0  0  0  0
   -1.5527   -1.6980   -0.2645 N   0  0  0  0  0  0  0  0  0  0  0  0
   -2.2027   -1.4932   -1.0182 H   0  0  0  0  0  0  0  0  0  0  0  0
   -0.2648   -0.9742   -0.2508 C   0  0  1  0  0  0  0  0  0  0  0  0
    0.5468   -1.6635   -0.5095 H   0  0  0  0  0  0  0  0  0  0  0  0
   -0.3272    0.1660   -1.2893 C   0  0  0  0  0  0  0  0  0  0  0  0
   -1.3430    0.5697   -1.3418 H   0  0  0  0  0  0  0  0  0  0  0  0
    0.3206    0.9804   -0.9447 H   0  0  0  0  0  0  0  0  0  0  0  0
    0.1342   -0.2229   -2.6822 C   0  0  0  0  0  0  0  0  0  0  0  0
    0.0021   -1.5268   -3.1970 C   0  0  0  0  0  0  0  0  0  0  0  0
   -0.4279   -2.3246   -2.6015 H   0  0  0  0  0  0  0  0  0  0  0  0
    0.4315   -1.8308   -4.4935 C   0  0  0  0  0  0  0  0  0  0  0  0
    0.3291   -2.8422   -4.8761 H   0  0  0  0  0  0  0  0  0  0  0  0
    0.9959   -0.8369   -5.2963 C   0  0  0  0  0  0  0  0  0  0  0  0
    1.3325   -1.0737   -6.3015 H   0  0  0  0  0  0  0  0  0  0  0  0
    1.1294    0.4623   -4.8010 C   0  0  0  0  0  0  0  0  0  0  0  0
    1.5697    1.2376   -5.4212 H   0  0  0  0  0  0  0  0  0  0  0  0
    0.6995    0.7647   -3.5048 C   0  0  0  0  0  0  0  0  0  0  0  0
    0.8122    1.7804   -3.1368 H   0  0  0  0  0  0  0  0  0  0  0  0
    0.0989   -0.3877    1.1317 C   0  0  0  0  0  0  0  0  0  0  0  0
    1.2735   -0.2917    1.4616 O   0  0  0  0  0  0  0  0  0  0  0  0
   -0.8618    0.2776    1.8729 N   0  0  0  0  0  0  0  0  0  0  0  0
   -1.8267    0.0905    1.6215 H   0  0  0  0  0  0  0  0  0  0  0  0
   -0.5807    0.8727    3.1732 C   0  0  0  0  0  0  0  0  0  0  0  0
    0.2094    1.6263    3.0882 H   0  0  0  0  0  0  0  0  0  0  0  0
   -1.4777    1.3586    3.5686 H   0  0  0  0  0  0  0  0  0  0  0  0
   -0.2588    0.1037    3.8832 H   0  0  0  0  0  0  0  0  0  0  0  0
  1  2  1  0  0  0  0
  2  3  1  0  0  0  0
  2  4  1  0  0  0  0
  2  5  1  0  0  0  0
  5  6  2  0  0  0  0
  5  7  1  0  0  0  0
  7  8  1  0  0  0  0
  7  9  1  0  0  0  0
  9 10  1  0  0  0  0
  9 11  1  0  0  0  0
  9 25  1  0  0  0  0
 11 12  1  0  0  0  0
 11 13  1  0  0  0  0
 11 14  1  0  0  0  0
 14 15  1  0  0  0  0
 14 23  2  0  0  0  0
 15 16  1  0  0  0  0
 15 17  2  0  0  0  0
 17 18  1  0  0  0  0
 17 19  1  0  0  0  0
 19 20  1  0  0  0  0
 19 21  2  0  0  0  0
 21 22  1  0  0  0  0
 21 23  1  0  0  0  0
 23 24  1  0  0  0  0
 25 26  2  0  0  0  0
 25 27  1  0  0  0  0
 27 28  1  0  0  0  0
 27 29  1  0  0  0  0
 29 30  1  0  0  0  0
 29 31  1  0  0  0  0
 29 32  1  0  0  0  0
M  END
$$$$

  -OEChem-03222214073D

 32 32  0     1  0  0  0  0  0999 V2000
   -3.1587   -4.4289    0.9452 H   0  0  0  0  0  0  0  0  0  0  0  0
   -3.1276   -3.5546    0.2885 C   0  0  0  0  0  0  0  0  0  0  0  0
   -3.9733   -2.9053    0.5273 H   0  0  0  0  0  0  0  0  0  0  0  0
   -3.2148   -3.8912   -0.7474 H   0  0  0  0  0  0  0  0  0  0  0  0
   -1.8238   -2.8036    0.4826 C   0  0  0  0  0  0  0  0  0  0  0  0
   -1.0186   -3.1917    1.3089 O   0  0  0  0  0  0  0  0  0  0  0  0
   -1.5624   -1.6818   -0.2797 N   0  0  0  0  0  0  0  0  0  0  0  0
   -2.2371   -1.4547   -1.0043 H   0  0  0  0  0  0  0  0  0  0  0  0
   -0.2817   -0.9453   -0.2700 C   0  0  1  0  0  0  0  0  0  0  0  0
    0.5278   -1.6295   -0.5500 H   0  0  0  0  0  0  0  0  0  0  0  0
   -0.3479    0.2059   -1.2953 C   0  0  0  0  0  0  0  0  0  0  0  0
   -1.3661    0.6027   -1.3523 H   0  0  0  0  0  0  0  0  0  0  0  0
    0.2906    1.0237   -0.9426 H   0  0  0  0  0  0  0  0  0  0  0  0
    0.1195   -0.1912   -2.6825 C   0  0  0  0  0  0  0  0  0  0  0  0
   -0.2823   -1.3917   -3.2967 C   0  0  0  0  0  0  0  0  0  0  0  0
   -0.9387   -2.0872   -2.7870 H   0  0  0  0  0  0  0  0  0  0  0  0
    0.1642   -1.7220   -4.5810 C   0  0  0  0  0  0  0  0  0  0  0  0
   -0.1477   -2.6543   -5.0426 H   0  0  0  0  0  0  0  0  0  0  0  0
    1.0159   -0.8559   -5.2709 C   0  0  0  0  0  0  0  0  0  0  0  0
    1.3645   -1.1125   -6.2669 H   0  0  0  0  0  0  0  0  0  0  0  0
    1.4211    0.3402   -4.6744 C   0  0  0  0  0  0  0  0  0  0  0  0
    2.0859    1.0146   -5.2062 H   0  0  0  0  0  0  0  0  0  0  0  0
    0.9745    0.6690   -3.3905 C   0  0  0  0  0  0  0  0  0  0  0  0
    1.3026    1.6028   -2.9432 H   0  0  0  0  0  0  0  0  0  0  0  0
    0.0958   -0.3775    1.1164 C   0  0  0  0  0  0  0  0  0  0  0  0
    1.2738   -0.2733    1.4309 O   0  0  0  0  0  0  0  0  0  0  0  0
   -0.8608    0.2665    1.8814 N   0  0  0  0  0  0  0  0  0  0  0  0
   -1.8276    0.0797    1.6374 H   0  0  0  0  0  0  0  0  0  0  0  0
   -0.5672    0.8461    3.1860 C   0  0  0  0  0  0  0  0  0  0  0  0
    0.2091    1.6135    3.0988 H   0  0  0  0  0  0  0  0  0  0  0  0
   -1.4648    1.3113    3.6042 H   0  0  0  0  0  0  0  0  0  0  0  0
   -0.2214    0.0718    3.8789 H   0  0  0  0  0  0  0  0  0  0  0  0
  1  2  1  0  0  0  0
  2  3  1  0  0  0  0
  2  4  1  0  0  0  0
  2  5  1  0  0  0  0
  5  6  2  0  0  0  0
  5  7  1  0  0  0  0
  7  8  1  0  0  0  0
  7  9  1  0  0  0  0
  9 10  1  0  0  0  0
  9 11  1  0  0  0  0
  9 25  1  0  0  0  0
 11 12  1  0  0  0  0
 11 13  1  0  0  0  0
 11 14  1  0  0  0  0
 14 15  1  0  0  0  0
 14 23  2  0  0  0  0
 15 16  1  0  0  0  0
 15 17  2  0  0  0  0
 17 18  1  0  0  0  0
 17 19  1  0  0  0  0
 19 20  1  0  0  0  0
 19 21  2  0  0  0  0
 21 22  1  0  0  0  0
 21 23  1  0  0  0  0
 23 24  1  0  0  0  0
 25 26  2  0  0  0  0
 25 27  1  0  0  0  0
 27 28  1  0  0  0  0
 27 29  1  0  0  0  0
 29 30  1  0  0  0  0
 29 31  1  0  0  0  0
 29 32  1  0  0  0  0
M  END
$$$$

  -OEChem-03222214073D

 32 32  0     1  0  0  0  0  0999 V2000
   -3.1195   -4.4469    0.8940 H   0  0  0  0  0  0  0  0  0  0  0  0
   -3.1010   -3.5659    0.2458 C   0  0  0  0  0  0  0  0  0  0  0  0
   -3.9570   -2.9322    0.4896 H   0  0  0  0  0  0  0  0  0  0  0  0
   -3.1818   -3.8941   -0.7934 H   0  0  0  0  0  0  0  0  0  0  0  0
   -1.8090   -2.7966    0.4492 C   0  0  0  0  0  0  0  0  0  0  0  0
   -0.9994   -3.1812    1.2731 O   0  0  0  0  0  0  0  0  0  0  0  0
   -1.5661   -1.6603   -0.2979 N   0  0  0  0  0  0  0  0  0  0  0  0
   -2.2455   -1.4344   -1.0176 H   0  0  0  0  0  0  0  0  0  0  0  0
   -0.2929   -0.9116   -0.2875 C   0  0  1  0  0  0  0  0  0  0  0  0
    0.5175   -1.5872   -0.5854 H   0  0  0  0  0  0  0  0  0  0  0  0
   -0.3691    0.2532   -1.2957 C   0  0  0  0  0  0  0  0  0  0  0  0
   -1.3911    0.6398   -1.3522 H   0  0  0  0  0  0  0  0  0  0  0  0
    0.2605    1.0768   -0.9405 H   0  0  0  0  0  0  0  0  0  0  0  0
    0.1016   -0.1514   -2.6768 C   0  0  0  0  0  0  0  0  0  0  0  0
   -0.5303   -1.1795   -3.3971 C   0  0  0  0  0  0  0  0  0  0  0  0
   -1.3817   -1.7043   -2.9799 H   0  0  0  0  0  0  0  0  0  0  0  0
   -0.0720   -1.5468   -4.6671 C   0  0  0  0  0  0  0  0  0  0  0  0
   -0.5662   -2.3437   -5.2150 H   0  0  0  0  0  0  0  0  0  0  0  0
    1.0251   -0.8914   -5.2318 C   0  0  0  0  0  0  0  0  0  0  0  0
    1.3833   -1.1771   -6.2165 H   0  0  0  0  0  0  0  0  0  0  0  0
    1.6651    0.1292   -4.5240 C   0  0  0  0  0  0  0  0  0  0  0  0
    2.5220    0.6367   -4.9574 H   0  0  0  0  0  0  0  0  0  0  0  0
    1.2061    0.4951   -3.2544 C   0  0  0  0  0  0  0  0  0  0  0  0
    1.7217    1.2845   -2.7151 H   0  0  0  0  0  0  0  0  0  0  0  0
    0.0951   -0.3602    1.1023 C   0  0  0  0  0  0  0  0  0  0  0  0
    1.2764   -0.2469    1.4019 O   0  0  0  0  0  0  0  0  0  0  0  0
   -0.8579    0.2640    1.8879 N   0  0  0  0  0  0  0  0  0  0  0  0
   -1.8256    0.0687    1.6548 H   0  0  0  0  0  0  0  0  0  0  0  0
   -0.5539    0.8273    3.1974 C   0  0  0  0  0  0  0  0  0  0  0  0
    0.2118    1.6057    3.1125 H   0  0  0  0  0  0  0  0  0  0  0  0
   -1.4515    1.2749    3.6344 H   0  0  0  0  0  0  0  0  0  0  0  0
   -0.1893    0.0466    3.8732 H   0  0  0  0  0  0  0  0  0  0  0  0
  1  2  1  0  0  0  0
  2  3  1  0  0  0  0
  2  4  1  0  0  0  0
  2  5  1  0  0  0  0
  5  6  2  0  0  0  0
  5  7  1  0  0  0  0
  7  8  1  0  0  0  0
  7  9  1  0  0  0  0
  9 10  1  0  0  0  0
  9 11  1  0  0  0  0
  9 25  1  0  0  0  0
 11 12  1  0  0  0  0
 11 13  1  0  0  0  0
 11 14  1  0  0  0  0
 14 15  1  0  0  0  0
 14 23  2  0  0  0  0
 15 16  1  0  0  0  0
 15 17  2  0  0  0  0
 17 18  1  0  0  0  0
 17 19  1  0  0  0  0
 19 20  1  0  0  0  0
 19 21  2  0  0  0  0
 21 22  1  0  0  0  0
 21 23  1  0  0  0  0
 23 24  1  0  0  0  0
 25 26  2  0  0  0  0
 25 27  1  0  0  0  0
 27 28  1  0  0  0  0
 27 29  1  0  0  0  0
 29 30  1  0  0  0  0
 29 31  1  0  0  0  0
 29 32  1  0  0  0  0
M  END
$$$$

  -OEChem-03222214073D

 32 32  0     1  0  0  0  0  0999 V2000
   -3.0819   -4.4646    0.8221 H   0  0  0  0  0  0  0  0  0  0  0  0
   -3.0686   -3.5777    0.1821 C   0  0  0  0  0  0  0  0  0  0  0  0
   -3.9457   -2.9673    0.4090 H   0  0  0  0  0  0  0  0  0  0  0  0
   -3.1142   -3.8983   -0.8615 H   0  0  0  0  0  0  0  0  0  0  0  0
   -1.8018   -2.7788    0.4251 C   0  0  0  0  0  0  0  0  0  0  0  0
   -1.0101   -3.1456    1.2743 O   0  0  0  0  0  0  0  0  0  0  0  0
   -1.5642   -1.6349   -0.3122 N   0  0  0  0  0  0  0  0  0  0  0  0
   -2.2125   -1.4460   -1.0698 H   0  0  0  0  0  0  0  0  0  0  0  0
   -0.2919   -0.8853   -0.2938 C   0  0  1  0  0  0  0  0  0  0  0  0
    0.5187   -1.5570   -0.6007 H   0  0  0  0  0  0  0  0  0  0  0  0
   -0.3755    0.2909   -1.2864 C   0  0  0  0  0  0  0  0  0  0  0  0
   -1.3981    0.6779   -1.3369 H   0  0  0  0  0  0  0  0  0  0  0  0
    0.2563    1.1142   -0.9347 H   0  0  0  0  0  0  0  0  0  0  0  0
    0.0948   -0.1218   -2.6614 C   0  0  0  0  0  0  0  0  0  0  0  0
   -0.7101   -0.9171   -3.4924 C   0  0  0  0  0  0  0  0  0  0  0  0
   -1.6970   -1.2270   -3.1676 H   0  0  0  0  0  0  0  0  0  0  0  0
   -0.2540   -1.3166   -4.7535 C   0  0  0  0  0  0  0  0  0  0  0  0
   -0.8828   -1.9305   -5.3918 H   0  0  0  0  0  0  0  0  0  0  0  0
    1.0148   -0.9286   -5.1935 C   0  0  0  0  0  0  0  0  0  0  0  0
    1.3712   -1.2391   -6.1715 H   0  0  0  0  0  0  0  0  0  0  0  0
    1.8274   -0.1439   -4.3703 C   0  0  0  0  0  0  0  0  0  0  0  0
    2.8169    0.1527   -4.7060 H   0  0  0  0  0  0  0  0  0  0  0  0
    1.3699    0.2545   -3.1100 C   0  0  0  0  0  0  0  0  0  0  0  0
    2.0171    0.8532   -2.4750 H   0  0  0  0  0  0  0  0  0  0  0  0
    0.0994   -0.3461    1.0998 C   0  0  0  0  0  0  0  0  0  0  0  0
    1.2820   -0.2308    1.3942 O   0  0  0  0  0  0  0  0  0  0  0  0
   -0.8518    0.2707    1.8932 N   0  0  0  0  0  0  0  0  0  0  0  0
   -1.8196    0.0701    1.6642 H   0  0  0  0  0  0  0  0  0  0  0  0
   -0.5443    0.8233    3.2065 C   0  0  0  0  0  0  0  0  0  0  0  0
    0.2226    1.6010    3.1259 H   0  0  0  0  0  0  0  0  0  0  0  0
   -1.4403    1.2693    3.6487 H   0  0  0  0  0  0  0  0  0  0  0  0
   -0.1799    0.0371    3.8762 H   0  0  0  0  0  0  0  0  0  0  0  0
  1  2  1  0  0  0  0
  2  3  1  0  0  0  0
  2  4  1  0  0  0  0
  2  5  1  0  0  0  0
  5  6  2  0  0  0  0
  5  7  1  0  0  0  0
  7  8  1  0  0  0  0
  7  9  1  0  0  0  0
  9 10  1  0  0  0  0
  9 11  1  0  0  0  0
  9 25  1  0  0  0  0
 11 12  1  0  0  0  0
 11 13  1  0  0  0  0
 11 14  1  0  0  0  0
 14 15  1  0  0  0  0
 14 23  2  0  0  0  0
 15 16  1  0  0  0  0
 15 17  2  0  0  0  0
 17 18  1  0  0  0  0
 17 19  1  0  0  0  0
 19 20  1  0  0  0  0
 19 21  2  0  0  0  0
 21 22  1  0  0  0  0
 21 23  1  0  0  0  0
 23 24  1  0  0  0  0
 25 26  2  0  0  0  0
 25 27  1  0  0  0  0
 27 28  1  0  0  0  0
 27 29  1  0  0  0  0
 29 30  1  0  0  0  0
 29 31  1  0  0  0  0
 29 32  1  0  0  0  0
M  END
$$$$

  -OEChem-03222214073D

 32 32  0     1  0  0  0  0  0999 V2000
   -3.0616   -4.4813    0.7627 H   0  0  0  0  0  0  0  0  0  0  0  0
   -3.0509   -3.5858    0.1344 C   0  0  0  0  0  0  0  0  0  0  0  0
   -3.9451   -2.9954    0.3480 H   0  0  0  0  0  0  0  0  0  0  0  0
   -3.0661   -3.8935   -0.9139 H   0  0  0  0  0  0  0  0  0  0  0  0
   -1.8063   -2.7652    0.4167 C   0  0  0  0  0  0  0  0  0  0  0  0
   -1.0369   -3.1169    1.2925 O   0  0  0  0  0  0  0  0  0  0  0  0
   -1.5641   -1.6206   -0.3179 N   0  0  0  0  0  0  0  0  0  0  0  0
   -2.1760   -1.4673   -1.1132 H   0  0  0  0  0  0  0  0  0  0  0  0
   -0.2894   -0.8762   -0.2897 C   0  0  1  0  0  0  0  0  0  0  0  0
    0.5196   -1.5495   -0.5963 H   0  0  0  0  0  0  0  0  0  0  0  0
   -0.3728    0.3045   -1.2759 C   0  0  0  0  0  0  0  0  0  0  0  0
   -1.3934    0.6976   -1.3212 H   0  0  0  0  0  0  0  0  0  0  0  0
    0.2670    1.1241   -0.9292 H   0  0  0  0  0  0  0  0  0  0  0  0
    0.0993   -0.1149   -2.6460 C   0  0  0  0  0  0  0  0  0  0  0  0
   -0.8008   -0.6348   -3.5887 C   0  0  0  0  0  0  0  0  0  0  0  0
   -1.8564   -0.7155   -3.3519 H   0  0  0  0  0  0  0  0  0  0  0  0
   -0.3492   -1.0470   -4.8475 C   0  0  0  0  0  0  0  0  0  0  0  0
   -1.0509   -1.4443   -5.5749 H   0  0  0  0  0  0  0  0  0  0  0  0
    1.0075   -0.9487   -5.1707 C   0  0  0  0  0  0  0  0  0  0  0  0
    1.3600   -1.2701   -6.1464 H   0  0  0  0  0  0  0  0  0  0  0  0
    1.9119   -0.4377   -4.2352 C   0  0  0  0  0  0  0  0  0  0  0  0
    2.9673   -0.3644   -4.4812 H   0  0  0  0  0  0  0  0  0  0  0  0
    1.4591   -0.0245   -2.9781 C   0  0  0  0  0  0  0  0  0  0  0  0
    2.1716    0.3610   -2.2536 H   0  0  0  0  0  0  0  0  0  0  0  0
    0.1027   -0.3387    1.1040 C   0  0  0  0  0  0  0  0  0  0  0  0
    1.2865   -0.2269    1.3957 O   0  0  0  0  0  0  0  0  0  0  0  0
   -0.8454    0.2832    1.8969 N   0  0  0  0  0  0  0  0  0  0  0  0
   -1.8136    0.0779    1.6736 H   0  0  0  0  0  0  0  0  0  0  0  0
   -0.5336    0.8322    3.2106 C   0  0  0  0  0  0  0  0  0  0  0  0
    0.2446    1.5987    3.1319 H   0  0  0  0  0  0  0  0  0  0  0  0
   -1.4239    1.2914    3.6503 H   0  0  0  0  0  0  0  0  0  0  0  0
   -0.1826    0.0406    3.8809 H   0  0  0  0  0  0  0  0  0  0  0  0
  1  2  1  0  0  0  0
  2  3  1  0  0  0  0
  2  4  1  0  0  0  0
  2  5  1  0  0  0  0
  5  6  2  0  0  0  0
  5  7  1  0  0  0  0
  7  8  1  0  0  0  0
  7  9  1  0  0  0  0
  9 10  1  0  0  0  0
  9 11  1  0  0  0  0
  9 25  1  0  0  0  0
 11 12  1  0  0  0  0
 11 13  1  0  0  0  0
 11 14  1  0  0  0  0
 14 15  1  0  0  0  0
 14 23  2  0  0  0  0
 15 16  1  0  0  0  0
 15 17  2  0  0  0  0
 17 18  1  0  0  0  0
 17 19  1  0  0  0  0
 19 20  1  0  0  0  0
 19 21  2  0  0  0  0
 21 22  1  0  0  0  0
 21 23  1  0  0  0  0
 23 24  1  0  0  0  0
 25 26  2  0  0  0  0
 25 27  1  0  0  0  0
 27 28  1  0  0  0  0
 27 29  1  0  0  0  0
 29 30  1  0  0  0  0
 29 31  1  0  0  0  0
 29 32  1  0  0  0  0
M  END
$$$$

  -OEChem-03222214073D

 32 32  0     1  0  0  0  0  0999 V2000
   -3.0777   -4.4772    0.7561 H   0  0  0  0  0  0  0  0  0  0  0  0
   -3.0572   -3.5839    0.1251 C   0  0  0  0  0  0  0  0  0  0  0  0
   -3.9561   -2.9944    0.3205 H   0  0  0  0  0  0  0  0  0  0  0  0
   -3.0523   -3.8949   -0.9223 H   0  0  0  0  0  0  0  0  0  0  0  0
   -1.8201   -2.7592    0.4275 C   0  0  0  0  0  0  0  0  0  0  0  0
   -1.0692   -3.1022    1.3226 O   0  0  0  0  0  0  0  0  0  0  0  0
   -1.5631   -1.6210   -0.3120 N   0  0  0  0  0  0  0  0  0  0  0  0
   -2.1503   -1.4851   -1.1291 H   0  0  0  0  0  0  0  0  0  0  0  0
   -0.2820   -0.8889   -0.2763 C   0  0  1  0  0  0  0  0  0  0  0  0
    0.5218   -1.5725   -0.5715 H   0  0  0  0  0  0  0  0  0  0  0  0
   -0.3576    0.2877   -1.2688 C   0  0  0  0  0  0  0  0  0  0  0  0
   -1.3744    0.6905   -1.3110 H   0  0  0  0  0  0  0  0  0  0  0  0
    0.2913    1.1025   -0.9278 H   0  0  0  0  0  0  0  0  0  0  0  0
    0.1155   -0.1355   -2.6374 C   0  0  0  0  0  0  0  0  0  0  0  0
   -0.8008   -0.3557   -3.6770 C   0  0  0  0  0  0  0  0  0  0  0  0
   -1.8636   -0.2135   -3.5100 H   0  0  0  0  0  0  0  0  0  0  0  0
   -0.3550   -0.7545   -4.9422 C   0  0  0  0  0  0  0  0  0  0  0  0
   -1.0687   -0.9207   -5.7438 H   0  0  0  0  0  0  0  0  0  0  0  0
    1.0113   -0.9358   -5.1780 C   0  0  0  0  0  0  0  0  0  0  0  0
    1.3593   -1.2443   -6.1596 H   0  0  0  0  0  0  0  0  0  0  0  0
    1.9311   -0.7169   -4.1482 C   0  0  0  0  0  0  0  0  0  0  0  0
    2.9932   -0.8567   -4.3273 H   0  0  0  0  0  0  0  0  0  0  0  0
    1.4846   -0.3173   -2.8844 C   0  0  0  0  0  0  0  0  0  0  0  0
    2.2067   -0.1512   -2.0888 H   0  0  0  0  0  0  0  0  0  0  0  0
    0.1059   -0.3466    1.1164 C   0  0  0  0  0  0  0  0  0  0  0  0
    1.2890   -0.2453    1.4146 O   0  0  0  0  0  0  0  0  0  0  0  0
   -0.8413    0.2894    1.8985 N   0  0  0  0  0  0  0  0  0  0  0  0
   -1.8097    0.0937    1.6675 H   0  0  0  0  0  0  0  0  0  0  0  0
   -0.5340    0.8410    3.2119 C   0  0  0  0  0  0  0  0  0  0  0  0
    0.2526    1.5991    3.1353 H   0  0  0  0  0  0  0  0  0  0  0  0
   -1.4234    1.3109    3.6420 H   0  0  0  0  0  0  0  0  0  0  0  0
   -0.1952    0.0497    3.8889 H   0  0  0  0  0  0  0  0  0  0  0  0
  1  2  1  0  0  0  0
  2  3  1  0  0  0  0
  2  4  1  0  0  0  0
  2  5  1  0  0  0  0
  5  6  2  0  0  0  0
  5  7  1  0  0  0  0
  7  8  1  0  0  0  0
  7  9  1  0  0  0  0
  9 10  1  0  0  0  0
  9 11  1  0  0  0  0
  9 25  1  0  0  0  0
 11 12  1  0  0  0  0
 11 13  1  0  0  0  0
 11 14  1  0  0  0  0
 14 15  1  0  0  0  0
 14 23  2  0  0  0  0
 15 16  1  0  0  0  0
 15 17  2  0  0  0  0
 17 18  1  0  0  0  0
 17 19  1  0  0  0  0
 19 20  1  0  0  0  0
 19 21  2  0  0  0  0
 21 22  1  0  0  0  0
 21 23  1  0  0  0  0
 23 24  1  0  0  0  0
 25 26  2  0  0  0  0
 25 27  1  0  0  0  0
 27 28  1  0  0  0  0
 27 29  1  0  0  0  0
 29 30  1  0  0  0  0
 29 31  1  0  0  0  0
 29 32  1  0  0  0  0
M  END
$$$$

  -OEChem-03222214073D

 32 32  0     1  0  0  0  0  0999 V2000
   -3.1178   -4.4693    0.7857 H   0  0  0  0  0  0  0  0  0  0  0  0
   -3.0879   -3.5776    0.1528 C   0  0  0  0  0  0  0  0  0  0  0  0
   -3.9803   -2.9779    0.3471 H   0  0  0  0  0  0  0  0  0  0  0  0
   -3.0874   -3.8910   -0.8940 H   0  0  0  0  0  0  0  0  0  0  0  0
   -1.8412   -2.7662    0.4528 C   0  0  0  0  0  0  0  0  0  0  0  0
   -1.1008   -3.1085    1.3570 O   0  0  0  0  0  0  0  0  0  0  0  0
   -1.5636   -1.6405   -0.2984 N   0  0  0  0  0  0  0  0  0  0  0  0
   -2.1426   -1.5073   -1.1224 H   0  0  0  0  0  0  0  0  0  0  0  0
   -0.2752   -0.9213   -0.2587 C   0  0  1  0  0  0  0  0  0  0  0  0
    0.5223   -1.6191   -0.5343 H   0  0  0  0  0  0  0  0  0  0  0  0
   -0.3384    0.2451   -1.2669 C   0  0  0  0  0  0  0  0  0  0  0  0
   -1.3521    0.6559   -1.3085 H   0  0  0  0  0  0  0  0  0  0  0  0
    0.3183    1.0556   -0.9303 H   0  0  0  0  0  0  0  0  0  0  0  0
    0.1353   -0.1735   -2.6390 C   0  0  0  0  0  0  0  0  0  0  0  0
   -0.7237   -0.0857   -3.7455 C   0  0  0  0  0  0  0  0  0  0  0  0
   -1.7424    0.2686   -3.6224 H   0  0  0  0  0  0  0  0  0  0  0  0
   -0.2794   -0.4522   -5.0209 C   0  0  0  0  0  0  0  0  0  0  0  0
   -0.9518   -0.3862   -5.8712 H   0  0  0  0  0  0  0  0  0  0  0  0
    1.0329   -0.8983   -5.2037 C   0  0  0  0  0  0  0  0  0  0  0  0
    1.3795   -1.1817   -6.1933 H   0  0  0  0  0  0  0  0  0  0  0  0
    1.9024   -0.9707   -4.1118 C   0  0  0  0  0  0  0  0  0  0  0  0
    2.9257   -1.3068   -4.2514 H   0  0  0  0  0  0  0  0  0  0  0  0
    1.4571   -0.6040   -2.8377 C   0  0  0  0  0  0  0  0  0  0  0  0
    2.1471   -0.6515   -1.9987 H   0  0  0  0  0  0  0  0  0  0  0  0
    0.1045   -0.3645    1.1304 C   0  0  0  0  0  0  0  0  0  0  0  0
    1.2854   -0.2811    1.4426 O   0  0  0  0  0  0  0  0  0  0  0  0
   -0.8426    0.2924    1.8955 N   0  0  0  0  0  0  0  0  0  0  0  0
   -1.8112    0.1069    1.6567 H   0  0  0  0  0  0  0  0  0  0  0  0
   -0.5419    0.8552    3.2058 C   0  0  0  0  0  0  0  0  0  0  0  0
    0.2576    1.5998    3.1299 H   0  0  0  0  0  0  0  0  0  0  0  0
   -1.4282    1.3448    3.6201 H   0  0  0  0  0  0  0  0  0  0  0  0
   -0.2244    0.0664    3.8960 H   0  0  0  0  0  0  0  0  0  0  0  0
  1  2  1  0  0  0  0
  2  3  1  0  0  0  0
  2  4  1  0  0  0  0
  2  5  1  0  0  0  0
  5  6  2  0  0  0  0
  5  7  1  0  0  0  0
  7  8  1  0  0  0  0
  7  9  1  0  0  0  0
  9 10  1  0  0  0  0
  9 11  1  0  0  0  0
  9 25  1  0  0  0  0
 11 12  1  0  0  0  0
 11 13  1  0  0  0  0
 11 14  1  0  0  0  0
 14 15  1  0  0  0  0
 14 23  2  0  0  0  0
 15 16  1  0  0  0  0
 15 17  2  0  0  0  0
 17 18  1  0  0  0  0
 17 19  1  0  0  0  0
 19 20  1  0  0  0  0
 19 21  2  0  0  0  0
 21 22  1  0  0  0  0
 21 23  1  0  0  0  0
 23 24  1  0  0  0  0
 25 26  2  0  0  0  0
 25 27  1  0  0  0  0
 27 28  1  0  0  0  0
 27 29  1  0  0  0  0
 29 30  1  0  0  0  0
 29 31  1  0  0  0  0
 29 32  1  0  0  0  0
M  END
$$$$

  -OEChem-03222214073D

 32 32  0     1  0  0  0  0  0999 V2000
   -3.1714   -4.4582    0.8398 H   0  0  0  0  0  0  0  0  0  0  0  0
   -3.1259   -3.5745    0.1966 C   0  0  0  0  0  0  0  0  0  0  0  0
   -4.0093   -2.9588    0.3816 H   0  0  0  0  0  0  0  0  0  0  0  0
   -3.1281   -3.9007   -0.8463 H   0  0  0  0  0  0  0  0  0  0  0  0
   -1.8674   -2.7790    0.4907 C   0  0  0  0  0  0  0  0  0  0  0  0
   -1.1380   -3.1188    1.4047 O   0  0  0  0  0  0  0  0  0  0  0  0
   -1.5646   -1.6713   -0.2774 N   0  0  0  0  0  0  0  0  0  0  0  0
   -2.1348   -1.5406   -1.1081 H   0  0  0  0  0  0  0  0  0  0  0  0
   -0.2679   -0.9674   -0.2348 C   0  0  1  0  0  0  0  0  0  0  0  0
    0.5217   -1.6826   -0.4809 H   0  0  0  0  0  0  0  0  0  0  0  0
   -0.3144    0.1844   -1.2641 C   0  0  0  0  0  0  0  0  0  0  0  0
   -1.3249    0.6035   -1.3060 H   0  0  0  0  0  0  0  0  0  0  0  0
    0.3474    0.9911   -0.9291 H   0  0  0  0  0  0  0  0  0  0  0  0
    0.1588   -0.2198   -2.6449 C   0  0  0  0  0  0  0  0  0  0  0  0
   -0.5789    0.1724   -3.7735 C   0  0  0  0  0  0  0  0  0  0  0  0
   -1.5029    0.7301   -3.6562 H   0  0  0  0  0  0  0  0  0  0  0  0
   -0.1404   -0.1496   -5.0628 C   0  0  0  0  0  0  0  0  0  0  0  0
   -0.7259    0.1491   -5.9274 H   0  0  0  0  0  0  0  0  0  0  0  0
    1.0568   -0.8478   -5.2405 C   0  0  0  0  0  0  0  0  0  0  0  0
    1.4010   -1.0959   -6.2404 H   0  0  0  0  0  0  0  0  0  0  0  0
    1.8203   -1.2113   -4.1286 C   0  0  0  0  0  0  0  0  0  0  0  0
    2.7623   -1.7351   -4.2631 H   0  0  0  0  0  0  0  0  0  0  0  0
    1.3799   -0.8893   -2.8406 C   0  0  0  0  0  0  0  0  0  0  0  0
    2.0082   -1.1535   -1.9947 H   0  0  0  0  0  0  0  0  0  0  0  0
    0.0994   -0.3894    1.1495 C   0  0  0  0  0  0  0  0  0  0  0  0
    1.2765   -0.3162    1.4778 O   0  0  0  0  0  0  0  0  0  0  0  0
   -0.8505    0.2928    1.8883 N   0  0  0  0  0  0  0  0  0  0  0  0
   -1.8179    0.1176    1.6371 H   0  0  0  0  0  0  0  0  0  0  0  0
   -0.5614    0.8845    3.1882 C   0  0  0  0  0  0  0  0  0  0  0  0
    0.2494    1.6161    3.1058 H   0  0  0  0  0  0  0  0  0  0  0  0
   -1.4473    1.3962    3.5755 H   0  0  0  0  0  0  0  0  0  0  0  0
   -0.2654    0.1097    3.9032 H   0  0  0  0  0  0  0  0  0  0  0  0
  1  2  1  0  0  0  0
  2  3  1  0  0  0  0
  2  4  1  0  0  0  0
  2  5  1  0  0  0  0
  5  6  2  0  0  0  0
  5  7  1  0  0  0  0
  7  8  1  0  0  0  0
  7  9  1  0  0  0  0
  9 10  1  0  0  0  0
  9 11  1  0  0  0  0
  9 25  1  0  0  0  0
 11 12  1  0  0  0  0
 11 13  1  0  0  0  0
 11 14  1  0  0  0  0
 14 15  1  0  0  0  0
 14 23  2  0  0  0  0
 15 16  1  0  0  0  0
 15 17  2  0  0  0  0
 17 18  1  0  0  0  0
 17 19  1  0  0  0  0
 19 20  1  0  0  0  0
 19 21  2  0  0  0  0
 21 22  1  0  0  0  0
 21 23  1  0  0  0  0
 23 24  1  0  0  0  0
 25 26  2  0  0  0  0
 25 27  1  0  0  0  0
 27 28  1  0  0  0  0
 27 29  1  0  0  0  0
 29 30  1  0  0  0  0
 29 31  1  0  0  0  0
 29 32  1  0  0  0  0
M  END
$$$$

  -OEChem-03222214073D

 32 32  0     1  0  0  0  0  0999 V2000
   -3.2168   -4.4345    0.9214 H   0  0  0  0  0  0  0  0  0  0  0  0
   -3.1506   -3.5669    0.2586 C   0  0  0  0  0  0  0  0  0  0  0  0
   -4.0219   -2.9291    0.4252 H   0  0  0  0  0  0  0  0  0  0  0  0
   -3.1546   -3.9163   -0.7768 H   0  0  0  0  0  0  0  0  0  0  0  0
   -1.8780   -2.7899    0.5400 C   0  0  0  0  0  0  0  0  0  0  0  0
   -1.1561   -3.1248    1.4617 O   0  0  0  0  0  0  0  0  0  0  0  0
   -1.5509   -1.7066   -0.2526 N   0  0  0  0  0  0  0  0  0  0  0  0
   -2.1182   -1.5786   -1.0859 H   0  0  0  0  0  0  0  0  0  0  0  0
   -0.2488   -1.0125   -0.2094 C   0  0  1  0  0  0  0  0  0  0  0  0
    0.5409   -1.7370   -0.4147 H   0  0  0  0  0  0  0  0  0  0  0  0
   -0.2780    0.1188   -1.2641 C   0  0  0  0  0  0  0  0  0  0  0  0
   -1.2865    0.5418   -1.3120 H   0  0  0  0  0  0  0  0  0  0  0  0
    0.3845    0.9248   -0.9291 H   0  0  0  0  0  0  0  0  0  0  0  0
    0.1958   -0.2628   -2.6558 C   0  0  0  0  0  0  0  0  0  0  0  0
   -0.3629    0.4117   -3.7546 C   0  0  0  0  0  0  0  0  0  0  0  0
   -1.1382    1.1559   -3.5994 H   0  0  0  0  0  0  0  0  0  0  0  0
    0.0592    0.1401   -5.0600 C   0  0  0  0  0  0  0  0  0  0  0  0
   -0.3917    0.6638   -5.8978 H   0  0  0  0  0  0  0  0  0  0  0  0
    1.0685   -0.7976   -5.2864 C   0  0  0  0  0  0  0  0  0  0  0  0
    1.4009   -1.0084   -6.2987 H   0  0  0  0  0  0  0  0  0  0  0  0
    1.6634   -1.4494   -4.2042 C   0  0  0  0  0  0  0  0  0  0  0  0
    2.4655   -2.1616   -4.3750 H   0  0  0  0  0  0  0  0  0  0  0  0
    1.2407   -1.1761   -2.8988 C   0  0  0  0  0  0  0  0  0  0  0  0
    1.7611   -1.6754   -2.0888 H   0  0  0  0  0  0  0  0  0  0  0  0
    0.0913   -0.4028    1.1690 C   0  0  0  0  0  0  0  0  0  0  0  0
    1.2595   -0.3344    1.5279 O   0  0  0  0  0  0  0  0  0  0  0  0
   -0.8710    0.3031    1.8689 N   0  0  0  0  0  0  0  0  0  0  0  0
   -1.8331    0.1341    1.5943 H   0  0  0  0  0  0  0  0  0  0  0  0
   -0.6107    0.9186    3.1642 C   0  0  0  0  0  0  0  0  0  0  0  0
    0.2060    1.6441    3.0876 H   0  0  0  0  0  0  0  0  0  0  0  0
   -1.5029    1.4427    3.5196 H   0  0  0  0  0  0  0  0  0  0  0  0
   -0.3367    0.1565    3.9014 H   0  0  0  0  0  0  0  0  0  0  0  0
  1  2  1  0  0  0  0
  2  3  1  0  0  0  0
  2  4  1  0  0  0  0
  2  5  1  0  0  0  0
  5  6  2  0  0  0  0
  5  7  1  0  0  0  0
  7  8  1  0  0  0  0
  7  9  1  0  0  0  0
  9 10  1  0  0  0  0
  9 11  1  0  0  0  0
  9 25  1  0  0  0  0
 11 12  1  0  0  0  0
 11 13  1  0  0  0  0
 11 14  1  0  0  0  0
 14 15  1  0  0  0  0
 14 23  2  0  0  0  0
 15 16  1  0  0  0  0
 15 17  2  0  0  0  0
 17 18  1  0  0  0  0
 17 19  1  0  0  0  0
 19 20  1  0  0  0  0
 19 21  2  0  0  0  0
 21 22  1  0  0  0  0
 21 23  1  0  0  0  0
 23 24  1  0  0  0  0
 25 26  2  0  0  0  0
 25 27  1  0  0  0  0
 27 28  1  0  0  0  0
 27 29  1  0  0  0  0
 29 30  1  0  0  0  0
 29 31  1  0  0  0  0
 29 32  1  0  0  0  0
M  END
$$$$

  -OEChem-03222214073D

 32 32  0     1  0  0  0  0  0999 V2000
   -3.2291   -4.4061    0.9919 H   0  0  0  0  0  0  0  0  0  0  0  0
   -3.1399   -3.5667    0.2963 C   0  0  0  0  0  0  0  0  0  0  0  0
   -4.0055   -2.9119    0.4215 H   0  0  0  0  0  0  0  0  0  0  0  0
   -3.1301   -3.9569   -0.7243 H   0  0  0  0  0  0  0  0  0  0  0  0
   -1.8622   -2.7959    0.5705 C   0  0  0  0  0  0  0  0  0  0  0  0
   -1.1462   -3.1229    1.4994 O   0  0  0  0  0  0  0  0  0  0  0  0
   -1.5227   -1.7283   -0.2378 N   0  0  0  0  0  0  0  0  0  0  0  0
   -2.0885   -1.6044   -1.0730 H   0  0  0  0  0  0  0  0  0  0  0  0
   -0.2219   -1.0318   -0.1918 C   0  0  1  0  0  0  0  0  0  0  0  0
    0.5842   -1.7458   -0.3647 H   0  0  0  0  0  0  0  0  0  0  0  0
   -0.2425    0.0866   -1.2601 C   0  0  0  0  0  0  0  0  0  0  0  0
   -1.2517    0.5076   -1.3188 H   0  0  0  0  0  0  0  0  0  0  0  0
    0.4157    0.8948   -0.9212 H   0  0  0  0  0  0  0  0  0  0  0  0
    0.2370   -0.2775   -2.6572 C   0  0  0  0  0  0  0  0  0  0  0  0
   -0.0773    0.6156   -3.6953 C   0  0  0  0  0  0  0  0  0  0  0  0
   -0.6398    1.5194   -3.4804 H   0  0  0  0  0  0  0  0  0  0  0  0
    0.3235    0.3678   -5.0120 C   0  0  0  0  0  0  0  0  0  0  0  0
    0.0693    1.0715   -5.7991 H   0  0  0  0  0  0  0  0  0  0  0  0
    1.0562   -0.7812   -5.3136 C   0  0  0  0  0  0  0  0  0  0  0  0
    1.3714   -0.9758   -6.3346 H   0  0  0  0  0  0  0  0  0  0  0  0
    1.3913   -1.6751   -4.2948 C   0  0  0  0  0  0  0  0  0  0  0  0
    1.9717   -2.5642   -4.5238 H   0  0  0  0  0  0  0  0  0  0  0  0
    0.9901   -1.4265   -2.9775 C   0  0  0  0  0  0  0  0  0  0  0  0
    1.2937   -2.1496   -2.2302 H   0  0  0  0  0  0  0  0  0  0  0  0
    0.0875   -0.3982    1.1834 C   0  0  0  0  0  0  0  0  0  0  0  0
    1.2472   -0.3211    1.5671 O   0  0  0  0  0  0  0  0  0  0  0  0
   -0.8909    0.3157    1.8528 N   0  0  0  0  0  0  0  0  0  0  0  0
   -1.8469    0.1433    1.5596 H   0  0  0  0  0  0  0  0  0  0  0  0
   -0.6588    0.9478    3.1454 C   0  0  0  0  0  0  0  0  0  0  0  0
    0.1489    1.6836    3.0727 H   0  0  0  0  0  0  0  0  0  0  0  0
   -1.5631    1.4629    3.4826 H   0  0  0  0  0  0  0  0  0  0  0  0
   -0.3855    0.1970    3.8945 H   0  0  0  0  0  0  0  0  0  0  0  0
  1  2  1  0  0  0  0
  2  3  1  0  0  0  0
  2  4  1  0  0  0  0
  2  5  1  0  0  0  0
  5  6  2  0  0  0  0
  5  7  1  0  0  0  0
  7  8  1  0  0  0  0
  7  9  1  0  0  0  0
  9 10  1  0  0  0  0
  9 11  1  0  0  0  0
  9 25  1  0  0  0  0
 11 12  1  0  0  0  0
 11 13  1  0  0  0  0
 11 14  1  0  0  0  0
 14 15  1  0  0  0  0
 14 23  2  0  0  0  0
 15 16  1  0  0  0  0
 15 17  2  0  0  0  0
 17 18  1  0  0  0  0
 17 19  1  0  0  0  0
 19 20  1  0  0  0  0
 19 21  2  0  0  0  0
 21 22  1  0  0  0  0
 21 23  1  0  0  0  0
 23 24  1  0  0  0  0
 25 26  2  0  0  0  0
 25 27  1  0  0  0  0
 27 28  1  0  0  0  0
 27 29  1  0  0  0  0
 29 30  1  0  0  0  0
 29 31  1  0  0  0  0
 29 32  1  0  0  0  0
M  END
$$$$

  -OEChem-03222214073D

 32 32  0     1  0  0  0  0  0999 V2000
   -3.1623   -4.4568    0.9863 H   0  0  0  0  0  0  0  0  0  0  0  0
   -3.1199   -3.5862    0.3251 C   0  0  0  0  0  0  0  0  0  0  0  0
   -3.9826   -2.9473    0.5285 H   0  0  0  0  0  0  0  0  0  0  0  0
   -3.1656   -3.9303   -0.7110 H   0  0  0  0  0  0  0  0  0  0  0  0
   -1.8351   -2.8142    0.5620 C   0  0  0  0  0  0  0  0  0  0  0  0
   -1.0826   -3.1525    1.4573 O   0  0  0  0  0  0  0  0  0  0  0  0
   -1.5272   -1.7334   -0.2409 N   0  0  0  0  0  0  0  0  0  0  0  0
   -2.1295   -1.5814   -1.0457 H   0  0  0  0  0  0  0  0  0  0  0  0
   -0.2387   -1.0130   -0.2101 C   0  0  1  0  0  0  0  0  0  0  0  0
    0.5807   -1.7059   -0.4271 H   0  0  0  0  0  0  0  0  0  0  0  0
   -0.2791    0.1031   -1.2712 C   0  0  0  0  0  0  0  0  0  0  0  0
   -1.2077    0.6722   -1.1589 H   0  0  0  0  0  0  0  0  0  0  0  0
    0.5484    0.7933   -1.0703 H   0  0  0  0  0  0  0  0  0  0  0  0
   -0.1408   -0.3457   -2.7163 C   0  0  0  0  0  0  0  0  0  0  0  0
   -0.1731    0.6447   -3.7107 C   0  0  0  0  0  0  0  0  0  0  0  0
   -0.2822    1.6885   -3.4309 H   0  0  0  0  0  0  0  0  0  0  0  0
   -0.0607    0.3127   -5.0648 C   0  0  0  0  0  0  0  0  0  0  0  0
   -0.0840    1.0936   -5.8196 H   0  0  0  0  0  0  0  0  0  0  0  0
    0.0860   -1.0226   -5.4462 C   0  0  0  0  0  0  0  0  0  0  0  0
    0.1772   -1.2824   -6.4970 H   0  0  0  0  0  0  0  0  0  0  0  0
    0.1200   -2.0224   -4.4714 C   0  0  0  0  0  0  0  0  0  0  0  0
    0.2385   -3.0611   -4.7659 H   0  0  0  0  0  0  0  0  0  0  0  0
    0.0078   -1.6892   -3.1171 C   0  0  0  0  0  0  0  0  0  0  0  0
    0.0439   -2.4986   -2.3958 H   0  0  0  0  0  0  0  0  0  0  0  0
    0.0903   -0.3831    1.1611 C   0  0  0  0  0  0  0  0  0  0  0  0
    1.2566   -0.2839    1.5179 O   0  0  0  0  0  0  0  0  0  0  0  0
   -0.8864    0.3096    1.8545 N   0  0  0  0  0  0  0  0  0  0  0  0
   -1.8451    0.1175    1.5832 H   0  0  0  0  0  0  0  0  0  0  0  0
   -0.6380    0.9456    3.1422 C   0  0  0  0  0  0  0  0  0  0  0  0
    0.1673    1.6831    3.0575 H   0  0  0  0  0  0  0  0  0  0  0  0
   -1.5388    1.4601    3.4903 H   0  0  0  0  0  0  0  0  0  0  0  0
   -0.3532    0.1966    3.8886 H   0  0  0  0  0  0  0  0  0  0  0  0
  1  2  1  0  0  0  0
  2  3  1  0  0  0  0
  2  4  1  0  0  0  0
  2  5  1  0  0  0  0
  5  6  2  0  0  0  0
  5  7  1  0  0  0  0
  7  8  1  0  0  0  0
  7  9  1  0  0  0  0
  9 10  1  0  0  0  0
  9 11  1  0  0  0  0
  9 25  1  0  0  0  0
 11 12  1  0  0  0  0
 11 13  1  0  0  0  0
 11 14  1  0  0  0  0
 14 15  1  0  0  0  0
 14 23  2  0  0  0  0
 15 16  1  0  0  0  0
 15 17  2  0  0  0  0
 17 18  1  0  0  0  0
 17 19  1  0  0  0  0
 19 20  1  0  0  0  0
 19 21  2  0  0  0  0
 21 22  1  0  0  0  0
 21 23  1  0  0  0  0
 23 24  1  0  0  0  0
 25 26  2  0  0  0  0
 25 27  1  0  0  0  0
 27 28  1  0  0  0  0
 27 29  1  0  0  0  0
 29 30  1  0  0  0  0
 29 31  1  0  0  0  0
 29 32  1  0  0  0  0
M  END
$$$$

  -OEChem-03222214073D

 32 32  0     1  0  0  0  0  0999 V2000
   -3.1925   -4.4345    1.0305 H   0  0  0  0  0  0  0  0  0  0  0  0
   -3.1468   -3.5707    0.3610 C   0  0  0  0  0  0  0  0  0  0  0  0
   -3.9942   -2.9146    0.5740 H   0  0  0  0  0  0  0  0  0  0  0  0
   -3.2171   -3.9231   -0.6708 H   0  0  0  0  0  0  0  0  0  0  0  0
   -1.8445   -2.8200    0.5665 C   0  0  0  0  0  0  0  0  0  0  0  0
   -1.0676   -3.1786    1.4325 O   0  0  0  0  0  0  0  0  0  0  0  0
   -1.5499   -1.7333   -0.2329 N   0  0  0  0  0  0  0  0  0  0  0  0
   -2.1887   -1.5454   -1.0010 H   0  0  0  0  0  0  0  0  0  0  0  0
   -0.2623   -1.0092   -0.2200 C   0  0  1  0  0  0  0  0  0  0  0  0
    0.5487   -1.7061   -0.4592 H   0  0  0  0  0  0  0  0  0  0  0  0
   -0.3058    0.1037   -1.2848 C   0  0  0  0  0  0  0  0  0  0  0  0
   -1.2331    0.6747   -1.1736 H   0  0  0  0  0  0  0  0  0  0  0  0
    0.5227    0.7925   -1.0837 H   0  0  0  0  0  0  0  0  0  0  0  0
   -0.1731   -0.3492   -2.7300 C   0  0  0  0  0  0  0  0  0  0  0  0
    0.1131    0.6290   -3.6960 C   0  0  0  0  0  0  0  0  0  0  0  0
    0.2258    1.6672   -3.3975 H   0  0  0  0  0  0  0  0  0  0  0  0
    0.2564    0.2920   -5.0458 C   0  0  0  0  0  0  0  0  0  0  0  0
    0.4771    1.0635   -5.7778 H   0  0  0  0  0  0  0  0  0  0  0  0
    0.1214   -1.0373   -5.4514 C   0  0  0  0  0  0  0  0  0  0  0  0
    0.2367   -1.3019   -6.4986 H   0  0  0  0  0  0  0  0  0  0  0  0
   -0.1522   -2.0266   -4.5042 C   0  0  0  0  0  0  0  0  0  0  0  0
   -0.2446   -3.0629   -4.8160 H   0  0  0  0  0  0  0  0  0  0  0  0
   -0.2960   -1.6880   -3.1543 C   0  0  0  0  0  0  0  0  0  0  0  0
   -0.4878   -2.4926   -2.4534 H   0  0  0  0  0  0  0  0  0  0  0  0
    0.0904   -0.3863    1.1484 C   0  0  0  0  0  0  0  0  0  0  0  0
    1.2626   -0.2850    1.4853 O   0  0  0  0  0  0  0  0  0  0  0  0
   -0.8759    0.2998    1.8626 N   0  0  0  0  0  0  0  0  0  0  0  0
   -1.8385    0.1122    1.6030 H   0  0  0  0  0  0  0  0  0  0  0  0
   -0.6082    0.9283    3.1501 C   0  0  0  0  0  0  0  0  0  0  0  0
    0.1886    1.6737    3.0560 H   0  0  0  0  0  0  0  0  0  0  0  0
   -1.5068    1.4315    3.5194 H   0  0  0  0  0  0  0  0  0  0  0  0
   -0.3026    0.1770    3.8859 H   0  0  0  0  0  0  0  0  0  0  0  0
  1  2  1  0  0  0  0
  2  3  1  0  0  0  0
  2  4  1  0  0  0  0
  2  5  1  0  0  0  0
  5  6  2  0  0  0  0
  5  7  1  0  0  0  0
  7  8  1  0  0  0  0
  7  9  1  0  0  0  0
  9 10  1  0  0  0  0
  9 11  1  0  0  0  0
  9 25  1  0  0  0  0
 11 12  1  0  0  0  0
 11 13  1  0  0  0  0
 11 14  1  0  0  0  0
 14 15  1  0  0  0  0
 14 23  2  0  0  0  0
 15 16  1  0  0  0  0
 15 17  2  0  0  0  0
 17 18  1  0  0  0  0
 17 19  1  0  0  0  0
 19 20  1  0  0  0  0
 19 21  2  0  0  0  0
 21 22  1  0  0  0  0
 21 23  1  0  0  0  0
 23 24  1  0  0  0  0
 25 26  2  0  0  0  0
 25 27  1  0  0  0  0
 27 28  1  0  0  0  0
 27 29  1  0  0  0  0
 29 30  1  0  0  0  0
 29 31  1  0  0  0  0
 29 32  1  0  0  0  0
M  END
$$$$

  -OEChem-03222214073D

 32 32  0     1  0  0  0  0  0999 V2000
   -3.1946   -4.4278    1.0853 H   0  0  0  0  0  0  0  0  0  0  0  0
   -3.1583   -3.5673    0.4113 C   0  0  0  0  0  0  0  0  0  0  0  0
   -3.9904   -2.9000    0.6476 H   0  0  0  0  0  0  0  0  0  0  0  0
   -3.2644   -3.9222   -0.6167 H   0  0  0  0  0  0  0  0  0  0  0  0
   -1.8413   -2.8319    0.5740 C   0  0  0  0  0  0  0  0  0  0  0  0
   -1.0357   -3.2067    1.4061 O   0  0  0  0  0  0  0  0  0  0  0  0
   -1.5667   -1.7394   -0.2251 N   0  0  0  0  0  0  0  0  0  0  0  0
   -2.2461   -1.5146   -0.9466 H   0  0  0  0  0  0  0  0  0  0  0  0
   -0.2844   -1.0064   -0.2317 C   0  0  1  0  0  0  0  0  0  0  0  0
    0.5211   -1.7055   -0.4845 H   0  0  0  0  0  0  0  0  0  0  0  0
   -0.3219    0.1060   -1.2986 C   0  0  0  0  0  0  0  0  0  0  0  0
   -1.2489    0.6775   -1.1906 H   0  0  0  0  0  0  0  0  0  0  0  0
    0.5049    0.7942   -1.0885 H   0  0  0  0  0  0  0  0  0  0  0  0
   -0.1882   -0.3453   -2.7459 C   0  0  0  0  0  0  0  0  0  0  0  0
    0.4098    0.5432   -3.6557 C   0  0  0  0  0  0  0  0  0  0  0  0
    0.7529    1.5171   -3.3183 H   0  0  0  0  0  0  0  0  0  0  0  0
    0.5744    0.2004   -5.0013 C   0  0  0  0  0  0  0  0  0  0  0  0
    1.0390    0.9029   -5.6869 H   0  0  0  0  0  0  0  0  0  0  0  0
    0.1464   -1.0459   -5.4615 C   0  0  0  0  0  0  0  0  0  0  0  0
    0.2773   -1.3157   -6.5054 H   0  0  0  0  0  0  0  0  0  0  0  0
   -0.4419   -1.9474   -4.5724 C   0  0  0  0  0  0  0  0  0  0  0  0
   -0.7643   -2.9222   -4.9264 H   0  0  0  0  0  0  0  0  0  0  0  0
   -0.6067   -1.6025   -3.2265 C   0  0  0  0  0  0  0  0  0  0  0  0
   -1.0488   -2.3459   -2.5760 H   0  0  0  0  0  0  0  0  0  0  0  0
    0.0850   -0.3881    1.1343 C   0  0  0  0  0  0  0  0  0  0  0  0
    1.2610   -0.2782    1.4541 O   0  0  0  0  0  0  0  0  0  0  0  0
   -0.8756    0.2868    1.8668 N   0  0  0  0  0  0  0  0  0  0  0  0
   -1.8408    0.0986    1.6179 H   0  0  0  0  0  0  0  0  0  0  0  0
   -0.5937    0.9127    3.1525 C   0  0  0  0  0  0  0  0  0  0  0  0
    0.1963    1.6641    3.0499 H   0  0  0  0  0  0  0  0  0  0  0  0
   -1.4907    1.4081    3.5362 H   0  0  0  0  0  0  0  0  0  0  0  0
   -0.2723    0.1607    3.8808 H   0  0  0  0  0  0  0  0  0  0  0  0
  1  2  1  0  0  0  0
  2  3  1  0  0  0  0
  2  4  1  0  0  0  0
  2  5  1  0  0  0  0
  5  6  2  0  0  0  0
  5  7  1  0  0  0  0
  7  8  1  0  0  0  0
  7  9  1  0  0  0  0
  9 10  1  0  0  0  0
  9 11  1  0  0  0  0
  9 25  1  0  0  0  0
 11 12  1  0  0  0  0
 11 13  1  0  0  0  0
 11 14  1  0  0  0  0
 14 15  1  0  0  0  0
 14 23  2  0  0  0  0
 15 16  1  0  0  0  0
 15 17  2  0  0  0  0
 17 18  1  0  0  0  0
 17 19  1  0  0  0  0
 19 20  1  0  0  0  0
 19 21  2  0  0  0  0
 21 22  1  0  0  0  0
 21 23  1  0  0  0  0
 23 24  1  0  0  0  0
 25 26  2  0  0  0  0
 25 27  1  0  0  0  0
 27 28  1  0  0  0  0
 27 29  1  0  0  0  0
 29 30  1  0  0  0  0
 29 31  1  0  0  0  0
 29 32  1  0  0  0  0
M  END
$$$$

  -OEChem-03222214073D

 32 32  0     1  0  0  0  0  0999 V2000
   -3.1658   -4.4414    1.0995 H   0  0  0  0  0  0  0  0  0  0  0  0
   -3.1431   -3.5795    0.4265 C   0  0  0  0  0  0  0  0  0  0  0  0
   -3.9704   -2.9128    0.6813 H   0  0  0  0  0  0  0  0  0  0  0  0
   -3.2695   -3.9329   -0.5996 H   0  0  0  0  0  0  0  0  0  0  0  0
   -1.8224   -2.8455    0.5630 C   0  0  0  0  0  0  0  0  0  0  0  0
   -0.9975   -3.2264    1.3733 O   0  0  0  0  0  0  0  0  0  0  0  0
   -1.5703   -1.7425   -0.2290 N   0  0  0  0  0  0  0  0  0  0  0  0
   -2.2797   -1.4928   -0.9111 H   0  0  0  0  0  0  0  0  0  0  0  0
   -0.2982   -0.9939   -0.2435 C   0  0  1  0  0  0  0  0  0  0  0  0
    0.5085   -1.6891   -0.5032 H   0  0  0  0  0  0  0  0  0  0  0  0
   -0.3279    0.1251   -1.3056 C   0  0  0  0  0  0  0  0  0  0  0  0
   -1.2596    0.6909   -1.2089 H   0  0  0  0  0  0  0  0  0  0  0  0
    0.4898    0.8202   -1.0848 H   0  0  0  0  0  0  0  0  0  0  0  0
   -0.1825   -0.3382   -2.7475 C   0  0  0  0  0  0  0  0  0  0  0  0
    0.6927    0.3696   -3.5897 C   0  0  0  0  0  0  0  0  0  0  0  0
    1.2602    1.2116   -3.2039 H   0  0  0  0  0  0  0  0  0  0  0  0
    0.8585    0.0079   -4.9303 C   0  0  0  0  0  0  0  0  0  0  0  0
    1.5453    0.5651   -5.5606 H   0  0  0  0  0  0  0  0  0  0  0  0
    0.1434   -1.0691   -5.4565 C   0  0  0  0  0  0  0  0  0  0  0  0
    0.2733   -1.3531   -6.4968 H   0  0  0  0  0  0  0  0  0  0  0  0
   -0.7392   -1.7786   -4.6398 C   0  0  0  0  0  0  0  0  0  0  0  0
   -1.2979   -2.6155   -5.0485 H   0  0  0  0  0  0  0  0  0  0  0  0
   -0.9046   -1.4145   -3.2987 C   0  0  0  0  0  0  0  0  0  0  0  0
   -1.6027   -1.9928   -2.7090 H   0  0  0  0  0  0  0  0  0  0  0  0
    0.0780   -0.3838    1.1245 C   0  0  0  0  0  0  0  0  0  0  0  0
    1.2561   -0.2583    1.4309 O   0  0  0  0  0  0  0  0  0  0  0  0
   -0.8826    0.2721    1.8743 N   0  0  0  0  0  0  0  0  0  0  0  0
   -1.8485    0.0731    1.6374 H   0  0  0  0  0  0  0  0  0  0  0  0
   -0.5916    0.8971    3.1582 C   0  0  0  0  0  0  0  0  0  0  0  0
    0.1885    1.6576    3.0468 H   0  0  0  0  0  0  0  0  0  0  0  0
   -1.4890    1.3812    3.5552 H   0  0  0  0  0  0  0  0  0  0  0  0
   -0.2521    0.1469    3.8800 H   0  0  0  0  0  0  0  0  0  0  0  0
  1  2  1  0  0  0  0
  2  3  1  0  0  0  0
  2  4  1  0  0  0  0
  2  5  1  0  0  0  0
  5  6  2  0  0  0  0
  5  7  1  0  0  0  0
  7  8  1  0  0  0  0
  7  9  1  0  0  0  0
  9 10  1  0  0  0  0
  9 11  1  0  0  0  0
  9 25  1  0  0  0  0
 11 12  1  0  0  0  0
 11 13  1  0  0  0  0
 11 14  1  0  0  0  0
 14 15  1  0  0  0  0
 14 23  2  0  0  0  0
 15 16  1  0  0  0  0
 15 17  2  0  0  0  0
 17 18  1  0  0  0  0
 17 19  1  0  0  0  0
 19 20  1  0  0  0  0
 19 21  2  0  0  0  0
 21 22  1  0  0  0  0
 21 23  1  0  0  0  0
 23 24  1  0  0  0  0
 25 26  2  0  0  0  0
 25 27  1  0  0  0  0
 27 28  1  0  0  0  0
 27 29  1  0  0  0  0
 29 30  1  0  0  0  0
 29 31  1  0  0  0  0
 29 32  1  0  0  0  0
M  END
$$$$

  -OEChem-03222214073D

 32 32  0     1  0  0  0  0  0999 V2000
   -3.1331   -4.4658    1.0261 H   0  0  0  0  0  0  0  0  0  0  0  0
   -3.1167   -3.5947    0.3645 C   0  0  0  0  0  0  0  0  0  0  0  0
   -3.9635   -2.9499    0.6115 H   0  0  0  0  0  0  0  0  0  0  0  0
   -3.2158   -3.9375   -0.6683 H   0  0  0  0  0  0  0  0  0  0  0  0
   -1.8158   -2.8330    0.5363 C   0  0  0  0  0  0  0  0  0  0  0  0
   -1.0041   -3.2003    1.3660 O   0  0  0  0  0  0  0  0  0  0  0  0
   -1.5686   -1.7211   -0.2448 N   0  0  0  0  0  0  0  0  0  0  0  0
   -2.2559   -1.5011   -0.9575 H   0  0  0  0  0  0  0  0  0  0  0  0
   -0.2979   -0.9703   -0.2520 C   0  0  1  0  0  0  0  0  0  0  0  0
    0.5097   -1.6609   -0.5207 H   0  0  0  0  0  0  0  0  0  0  0  0
   -0.3310    0.1629   -1.2981 C   0  0  0  0  0  0  0  0  0  0  0  0
   -1.2641    0.7264   -1.2002 H   0  0  0  0  0  0  0  0  0  0  0  0
    0.4848    0.8614   -1.0807 H   0  0  0  0  0  0  0  0  0  0  0  0
   -0.1871   -0.3238   -2.7285 C   0  0  0  0  0  0  0  0  0  0  0  0
    0.8949    0.1314   -3.5005 C   0  0  0  0  0  0  0  0  0  0  0  0
    1.6366    0.7951   -3.0651 H   0  0  0  0  0  0  0  0  0  0  0  0
    1.0460   -0.2673   -4.8327 C   0  0  0  0  0  0  0  0  0  0  0  0
    1.8948    0.0860   -5.4111 H   0  0  0  0  0  0  0  0  0  0  0  0
    0.1060   -1.1181   -5.4186 C   0  0  0  0  0  0  0  0  0  0  0  0
    0.2238   -1.4290   -6.4527 H   0  0  0  0  0  0  0  0  0  0  0  0
   -0.9887   -1.5609   -4.6726 C   0  0  0  0  0  0  0  0  0  0  0  0
   -1.7260   -2.2133   -5.1311 H   0  0  0  0  0  0  0  0  0  0  0  0
   -1.1385   -1.1597   -3.3405 C   0  0  0  0  0  0  0  0  0  0  0  0
   -2.0105   -1.5038   -2.8000 H   0  0  0  0  0  0  0  0  0  0  0  0
    0.0803   -0.3735    1.1213 C   0  0  0  0  0  0  0  0  0  0  0  0
    1.2595   -0.2509    1.4260 O   0  0  0  0  0  0  0  0  0  0  0  0
   -0.8790    0.2735    1.8801 N   0  0  0  0  0  0  0  0  0  0  0  0
   -1.8452    0.0739    1.6442 H   0  0  0  0  0  0  0  0  0  0  0  0
   -0.5845    0.8815    3.1714 C   0  0  0  0  0  0  0  0  0  0  0  0
    0.1893    1.6494    3.0667 H   0  0  0  0  0  0  0  0  0  0  0  0
   -1.4825    1.3530    3.5813 H   0  0  0  0  0  0  0  0  0  0  0  0
   -0.2345    0.1230    3.8795 H   0  0  0  0  0  0  0  0  0  0  0  0
  1  2  1  0  0  0  0
  2  3  1  0  0  0  0
  2  4  1  0  0  0  0
  2  5  1  0  0  0  0
  5  6  2  0  0  0  0
  5  7  1  0  0  0  0
  7  8  1  0  0  0  0
  7  9  1  0  0  0  0
  9 10  1  0  0  0  0
  9 11  1  0  0  0  0
  9 25  1  0  0  0  0
 11 12  1  0  0  0  0
 11 13  1  0  0  0  0
 11 14  1  0  0  0  0
 14 15  1  0  0  0  0
 14 23  2  0  0  0  0
 15 16  1  0  0  0  0
 15 17  2  0  0  0  0
 17 18  1  0  0  0  0
 17 19  1  0  0  0  0
 19 20  1  0  0  0  0
 19 21  2  0  0  0  0
 21 22  1  0  0  0  0
 21 23  1  0  0  0  0
 23 24  1  0  0  0  0
 25 26  2  0  0  0  0
 25 27  1  0  0  0  0
 27 28  1  0  0  0  0
 27 29  1  0  0  0  0
 29 30  1  0  0  0  0
 29 31  1  0  0  0  0
 29 32  1  0  0  0  0
M  END
$$$$

  -OEChem-03222214073D

 32 32  0     1  0  0  0  0  0999 V2000
   -3.1013   -4.4980    0.9017 H   0  0  0  0  0  0  0  0  0  0  0  0
   -3.0860   -3.6180    0.2518 C   0  0  0  0  0  0  0  0  0  0  0  0
   -3.9771   -3.0179    0.4509 H   0  0  0  0  0  0  0  0  0  0  0  0
   -3.1029   -3.9511   -0.7888 H   0  0  0  0  0  0  0  0  0  0  0  0
   -1.8374   -2.7967    0.5146 C   0  0  0  0  0  0  0  0  0  0  0  0
   -1.0782   -3.1215    1.4095 O   0  0  0  0  0  0  0  0  0  0  0  0
   -1.5790   -1.6828   -0.2607 N   0  0  0  0  0  0  0  0  0  0  0  0
   -2.1798   -1.5572   -1.0682 H   0  0  0  0  0  0  0  0  0  0  0  0
   -0.2980   -0.9493   -0.2519 C   0  0  1  0  0  0  0  0  0  0  0  0
    0.5039   -1.6427   -0.5298 H   0  0  0  0  0  0  0  0  0  0  0  0
   -0.3347    0.1989   -1.2781 C   0  0  0  0  0  0  0  0  0  0  0  0
   -1.2632    0.7681   -1.1688 H   0  0  0  0  0  0  0  0  0  0  0  0
    0.4893    0.8918   -1.0731 H   0  0  0  0  0  0  0  0  0  0  0  0
   -0.2046   -0.3083   -2.6970 C   0  0  0  0  0  0  0  0  0  0  0  0
    1.0069   -0.1487   -3.3870 C   0  0  0  0  0  0  0  0  0  0  0  0
    1.8612    0.3047   -2.8919 H   0  0  0  0  0  0  0  0  0  0  0  0
    1.1372   -0.5836   -4.7100 C   0  0  0  0  0  0  0  0  0  0  0  0
    2.0850   -0.4656   -5.2273 H   0  0  0  0  0  0  0  0  0  0  0  0
    0.0496   -1.1679   -5.3646 C   0  0  0  0  0  0  0  0  0  0  0  0
    0.1513   -1.5045   -6.3922 H   0  0  0  0  0  0  0  0  0  0  0  0
   -1.1701   -1.3088   -4.6970 C   0  0  0  0  0  0  0  0  0  0  0  0
   -2.0194   -1.7495   -5.2107 H   0  0  0  0  0  0  0  0  0  0  0  0
   -1.2985   -0.8741   -3.3733 C   0  0  0  0  0  0  0  0  0  0  0  0
   -2.2612   -0.9674   -2.8841 H   0  0  0  0  0  0  0  0  0  0  0  0
    0.0870   -0.3640    1.1241 C   0  0  0  0  0  0  0  0  0  0  0  0
    1.2686   -0.2549    1.4251 O   0  0  0  0  0  0  0  0  0  0  0  0
   -0.8628    0.2945    1.8845 N   0  0  0  0  0  0  0  0  0  0  0  0
   -1.8310    0.0963    1.6545 H   0  0  0  0  0  0  0  0  0  0  0  0
   -0.5594    0.8869    3.1810 C   0  0  0  0  0  0  0  0  0  0  0  0
    0.2200    1.6496    3.0814 H   0  0  0  0  0  0  0  0  0  0  0  0
   -1.4524    1.3612    3.5989 H   0  0  0  0  0  0  0  0  0  0  0  0
   -0.2130    0.1184    3.8800 H   0  0  0  0  0  0  0  0  0  0  0  0
  1  2  1  0  0  0  0
  2  3  1  0  0  0  0
  2  4  1  0  0  0  0
  2  5  1  0  0  0  0
  5  6  2  0  0  0  0
  5  7  1  0  0  0  0
  7  8  1  0  0  0  0
  7  9  1  0  0  0  0
  9 10  1  0  0  0  0
  9 11  1  0  0  0  0
  9 25  1  0  0  0  0
 11 12  1  0  0  0  0
 11 13  1  0  0  0  0
 11 14  1  0  0  0  0
 14 15  1  0  0  0  0
 14 23  2  0  0  0  0
 15 16  1  0  0  0  0
 15 17  2  0  0  0  0
 17 18  1  0  0  0  0
 17 19  1  0  0  0  0
 19 20  1  0  0  0  0
 19 21  2  0  0  0  0
 21 22  1  0  0  0  0
 21 23  1  0  0  0  0
 23 24  1  0  0  0  0
 25 26  2  0  0  0  0
 25 27  1  0  0  0  0
 27 28  1  0  0  0  0
 27 29  1  0  0  0  0
 29 30  1  0  0  0  0
 29 31  1  0  0  0  0
 29 32  1  0  0  0  0
M  END
$$$$

  -OEChem-03222214073D

 32 32  0     1  0  0  0  0  0999 V2000
   -3.1021   -4.4877    0.8248 H   0  0  0  0  0  0  0  0  0  0  0  0
   -3.0821   -3.5987    0.1878 C   0  0  0  0  0  0  0  0  0  0  0  0
   -3.9794   -3.0065    0.3816 H   0  0  0  0  0  0  0  0  0  0  0  0
   -3.0808   -3.9167   -0.8576 H   0  0  0  0  0  0  0  0  0  0  0  0
   -1.8433   -2.7740    0.4820 C   0  0  0  0  0  0  0  0  0  0  0  0
   -1.1034   -3.0989    1.3930 O   0  0  0  0  0  0  0  0  0  0  0  0
   -1.5745   -1.6553   -0.2822 N   0  0  0  0  0  0  0  0  0  0  0  0
   -2.1465   -1.5462   -1.1139 H   0  0  0  0  0  0  0  0  0  0  0  0
   -0.2879   -0.9322   -0.2585 C   0  0  1  0  0  0  0  0  0  0  0  0
    0.5123   -1.6241   -0.5457 H   0  0  0  0  0  0  0  0  0  0  0  0
   -0.3403    0.2264   -1.2693 C   0  0  0  0  0  0  0  0  0  0  0  0
   -1.2669    0.7957   -1.1436 H   0  0  0  0  0  0  0  0  0  0  0  0
    0.4885    0.9171   -1.0766 H   0  0  0  0  0  0  0  0  0  0  0  0
   -0.2217   -0.2848   -2.6848 C   0  0  0  0  0  0  0  0  0  0  0  0
    1.0402   -0.4164   -3.2827 C   0  0  0  0  0  0  0  0  0  0  0  0
    1.9365   -0.1646   -2.7224 H   0  0  0  0  0  0  0  0  0  0  0  0
    1.1587   -0.8809   -4.5968 C   0  0  0  0  0  0  0  0  0  0  0  0
    2.1410   -0.9856   -5.0483 H   0  0  0  0  0  0  0  0  0  0  0  0
    0.0137   -1.2099   -5.3283 C   0  0  0  0  0  0  0  0  0  0  0  0
    0.1063   -1.5700   -6.3488 H   0  0  0  0  0  0  0  0  0  0  0  0
   -1.2495   -1.0679   -4.7467 C   0  0  0  0  0  0  0  0  0  0  0  0
   -2.1387   -1.3132   -5.3199 H   0  0  0  0  0  0  0  0  0  0  0  0
   -1.3668   -0.6035   -3.4320 C   0  0  0  0  0  0  0  0  0  0  0  0
   -2.3548   -0.4816   -3.0004 H   0  0  0  0  0  0  0  0  0  0  0  0
    0.0979   -0.3617    1.1235 C   0  0  0  0  0  0  0  0  0  0  0  0
    1.2797   -0.2683    1.4295 O   0  0  0  0  0  0  0  0  0  0  0  0
   -0.8492    0.2987    1.8858 N   0  0  0  0  0  0  0  0  0  0  0  0
   -1.8173    0.1034    1.6531 H   0  0  0  0  0  0  0  0  0  0  0  0
   -0.5475    0.8706    3.1919 C   0  0  0  0  0  0  0  0  0  0  0  0
    0.2470    1.6198    3.1093 H   0  0  0  0  0  0  0  0  0  0  0  0
   -1.4358    1.3567    3.6065 H   0  0  0  0  0  0  0  0  0  0  0  0
   -0.2227    0.0878    3.8854 H   0  0  0  0  0  0  0  0  0  0  0  0
  1  2  1  0  0  0  0
  2  3  1  0  0  0  0
  2  4  1  0  0  0  0
  2  5  1  0  0  0  0
  5  6  2  0  0  0  0
  5  7  1  0  0  0  0
  7  8  1  0  0  0  0
  7  9  1  0  0  0  0
  9 10  1  0  0  0  0
  9 11  1  0  0  0  0
  9 25  1  0  0  0  0
 11 12  1  0  0  0  0
 11 13  1  0  0  0  0
 11 14  1  0  0  0  0
 14 15  1  0  0  0  0
 14 23  2  0  0  0  0
 15 16  1  0  0  0  0
 15 17  2  0  0  0  0
 17 18  1  0  0  0  0
 17 19  1  0  0  0  0
 19 20  1  0  0  0  0
 19 21  2  0  0  0  0
 21 22  1  0  0  0  0
 21 23  1  0  0  0  0
 23 24  1  0  0  0  0
 25 26  2  0  0  0  0
 25 27  1  0  0  0  0
 27 28  1  0  0  0  0
 27 29  1  0  0  0  0
 29 30  1  0  0  0  0
 29 31  1  0  0  0  0
 29 32  1  0  0  0  0
M  END
$$$$

  -OEChem-03222214073D

 32 32  0     1  0  0  0  0  0999 V2000
   -3.1128   -4.4821    0.7875 H   0  0  0  0  0  0  0  0  0  0  0  0
   -3.0842   -3.5936    0.1503 C   0  0  0  0  0  0  0  0  0  0  0  0
   -3.9866   -3.0039    0.3276 H   0  0  0  0  0  0  0  0  0  0  0  0
   -3.0645   -3.9128   -0.8945 H   0  0  0  0  0  0  0  0  0  0  0  0
   -1.8520   -2.7653    0.4638 C   0  0  0  0  0  0  0  0  0  0  0  0
   -1.1208   -3.0932    1.3809 O   0  0  0  0  0  0  0  0  0  0  0  0
   -1.5760   -1.6429   -0.2925 N   0  0  0  0  0  0  0  0  0  0  0  0
   -2.1374   -1.5331   -1.1322 H   0  0  0  0  0  0  0  0  0  0  0  0
   -0.2861   -0.9267   -0.2590 C   0  0  1  0  0  0  0  0  0  0  0  0
    0.5114   -1.6204   -0.5480 H   0  0  0  0  0  0  0  0  0  0  0  0
   -0.3449    0.2376   -1.2622 C   0  0  0  0  0  0  0  0  0  0  0  0
   -1.2687    0.8087   -1.1249 H   0  0  0  0  0  0  0  0  0  0  0  0
    0.4885    0.9241   -1.0746 H   0  0  0  0  0  0  0  0  0  0  0  0
   -0.2311   -0.2679   -2.6796 C   0  0  0  0  0  0  0  0  0  0  0  0
    1.0080   -0.6927   -3.1815 C   0  0  0  0  0  0  0  0  0  0  0  0
    1.8920   -0.6546   -2.5502 H   0  0  0  0  0  0  0  0  0  0  0  0
    1.1162   -1.1731   -4.4906 C   0  0  0  0  0  0  0  0  0  0  0  0
    2.0798   -1.5033   -4.8678 H   0  0  0  0  0  0  0  0  0  0  0  0
   -0.0138   -1.2260   -5.3119 C   0  0  0  0  0  0  0  0  0  0  0  0
    0.0717   -1.5969   -6.3291 H   0  0  0  0  0  0  0  0  0  0  0  0
   -1.2513   -0.7952   -4.8239 C   0  0  0  0  0  0  0  0  0  0  0  0
   -2.1271   -0.8279   -5.4655 H   0  0  0  0  0  0  0  0  0  0  0  0
   -1.3591   -0.3174   -3.5132 C   0  0  0  0  0  0  0  0  0  0  0  0
   -2.3242    0.0228   -3.1506 H   0  0  0  0  0  0  0  0  0  0  0  0
    0.1022   -0.3654    1.1255 C   0  0  0  0  0  0  0  0  0  0  0  0
    1.2849   -0.2799    1.4298 O   0  0  0  0  0  0  0  0  0  0  0  0
   -0.8401    0.2972    1.8919 N   0  0  0  0  0  0  0  0  0  0  0  0
   -1.8101    0.1083    1.6610 H   0  0  0  0  0  0  0  0  0  0  0  0
   -0.5316    0.8687    3.1966 C   0  0  0  0  0  0  0  0  0  0  0  0
    0.2660    1.6139    3.1105 H   0  0  0  0  0  0  0  0  0  0  0  0
   -1.4160    1.3595    3.6133 H   0  0  0  0  0  0  0  0  0  0  0  0
   -0.2088    0.0848    3.8897 H   0  0  0  0  0  0  0  0  0  0  0  0
  1  2  1  0  0  0  0
  2  3  1  0  0  0  0
  2  4  1  0  0  0  0
  2  5  1  0  0  0  0
  5  6  2  0  0  0  0
  5  7  1  0  0  0  0
  7  8  1  0  0  0  0
  7  9  1  0  0  0  0
  9 10  1  0  0  0  0
  9 11  1  0  0  0  0
  9 25  1  0  0  0  0
 11 12  1  0  0  0  0
 11 13  1  0  0  0  0
 11 14  1  0  0  0  0
 14 15  1  0  0  0  0
 14 23  2  0  0  0  0
 15 16  1  0  0  0  0
 15 17  2  0  0  0  0
 17 18  1  0  0  0  0
 17 19  1  0  0  0  0
 19 20  1  0  0  0  0
 19 21  2  0  0  0  0
 21 22  1  0  0  0  0
 21 23  1  0  0  0  0
 23 24  1  0  0  0  0
 25 26  2  0  0  0  0
 25 27  1  0  0  0  0
 27 28  1  0  0  0  0
 27 29  1  0  0  0  0
 29 30  1  0  0  0  0
 29 31  1  0  0  0  0
 29 32  1  0  0  0  0
M  END
$$$$

  -OEChem-03222214073D

 32 32  0     1  0  0  0  0  0999 V2000
   -3.1332   -4.4676    0.8079 H   0  0  0  0  0  0  0  0  0  0  0  0
   -3.0932   -3.5843    0.1641 C   0  0  0  0  0  0  0  0  0  0  0  0
   -3.9875   -2.9813    0.3374 H   0  0  0  0  0  0  0  0  0  0  0  0
   -3.0777   -3.9112   -0.8784 H   0  0  0  0  0  0  0  0  0  0  0  0
   -1.8508   -2.7698    0.4716 C   0  0  0  0  0  0  0  0  0  0  0  0
   -1.1220   -3.1023    1.3889 O   0  0  0  0  0  0  0  0  0  0  0  0
   -1.5631   -1.6530   -0.2885 N   0  0  0  0  0  0  0  0  0  0  0  0
   -2.1254   -1.5350   -1.1270 H   0  0  0  0  0  0  0  0  0  0  0  0
   -0.2716   -0.9405   -0.2487 C   0  0  1  0  0  0  0  0  0  0  0  0
    0.5260   -1.6389   -0.5212 H   0  0  0  0  0  0  0  0  0  0  0  0
   -0.3327    0.2194   -1.2594 C   0  0  0  0  0  0  0  0  0  0  0  0
   -1.2544    0.7919   -1.1140 H   0  0  0  0  0  0  0  0  0  0  0  0
    0.5031    0.9032   -1.0727 H   0  0  0  0  0  0  0  0  0  0  0  0
   -0.2176   -0.2682   -2.6864 C   0  0  0  0  0  0  0  0  0  0  0  0
    0.9191   -0.9689   -3.1213 C   0  0  0  0  0  0  0  0  0  0  0  0
    1.7450   -1.1504   -2.4390 H   0  0  0  0  0  0  0  0  0  0  0  0
    1.0080   -1.4349   -4.4371 C   0  0  0  0  0  0  0  0  0  0  0  0
    1.8927   -1.9751   -4.7619 H   0  0  0  0  0  0  0  0  0  0  0  0
   -0.0384   -1.2027   -5.3338 C   0  0  0  0  0  0  0  0  0  0  0  0
    0.0328   -1.5621   -6.3564 H   0  0  0  0  0  0  0  0  0  0  0  0
   -1.1727   -0.5022   -4.9136 C   0  0  0  0  0  0  0  0  0  0  0  0
   -1.9831   -0.3159   -5.6122 H   0  0  0  0  0  0  0  0  0  0  0  0
   -1.2614   -0.0380   -3.5965 C   0  0  0  0  0  0  0  0  0  0  0  0
   -2.1475    0.5084   -3.2877 H   0  0  0  0  0  0  0  0  0  0  0  0
    0.1042   -0.3722    1.1366 C   0  0  0  0  0  0  0  0  0  0  0  0
    1.2836   -0.2898    1.4541 O   0  0  0  0  0  0  0  0  0  0  0  0
   -0.8446    0.2969    1.8890 N   0  0  0  0  0  0  0  0  0  0  0  0
   -1.8123    0.1103    1.6469 H   0  0  0  0  0  0  0  0  0  0  0  0
   -0.5503    0.8718    3.1955 C   0  0  0  0  0  0  0  0  0  0  0  0
    0.2505    1.6146    3.1168 H   0  0  0  0  0  0  0  0  0  0  0  0
   -1.4384    1.3665    3.5995 H   0  0  0  0  0  0  0  0  0  0  0  0
   -0.2379    0.0897    3.8955 H   0  0  0  0  0  0  0  0  0  0  0  0
  1  2  1  0  0  0  0
  2  3  1  0  0  0  0
  2  4  1  0  0  0  0
  2  5  1  0  0  0  0
  5  6  2  0  0  0  0
  5  7  1  0  0  0  0
  7  8  1  0  0  0  0
  7  9  1  0  0  0  0
  9 10  1  0  0  0  0
  9 11  1  0  0  0  0
  9 25  1  0  0  0  0
 11 12  1  0  0  0  0
 11 13  1  0  0  0  0
 11 14  1  0  0  0  0
 14 15  1  0  0  0  0
 14 23  2  0  0  0  0
 15 16  1  0  0  0  0
 15 17  2  0  0  0  0
 17 18  1  0  0  0  0
 17 19  1  0  0  0  0
 19 20  1  0  0  0  0
 19 21  2  0  0  0  0
 21 22  1  0  0  0  0
 21 23  1  0  0  0  0
 23 24  1  0  0  0  0
 25 26  2  0  0  0  0
 25 27  1  0  0  0  0
 27 28  1  0  0  0  0
 27 29  1  0  0  0  0
 29 30  1  0  0  0  0
 29 31  1  0  0  0  0
 29 32  1  0  0  0  0
M  END
$$$$

  -OEChem-03222214073D

 32 32  0     1  0  0  0  0  0999 V2000
   -3.1651   -4.4531    0.8679 H   0  0  0  0  0  0  0  0  0  0  0  0
   -3.1050   -3.5856    0.2044 C   0  0  0  0  0  0  0  0  0  0  0  0
   -3.9912   -2.9647    0.3553 H   0  0  0  0  0  0  0  0  0  0  0  0
   -3.0848   -3.9364   -0.8303 H   0  0  0  0  0  0  0  0  0  0  0  0
   -1.8526   -2.7838    0.5048 C   0  0  0  0  0  0  0  0  0  0  0  0
   -1.1309   -3.1123    1.4293 O   0  0  0  0  0  0  0  0  0  0  0  0
   -1.5463   -1.6834   -0.2716 N   0  0  0  0  0  0  0  0  0  0  0  0
   -2.1069   -1.5646   -1.1114 H   0  0  0  0  0  0  0  0  0  0  0  0
   -0.2533   -0.9745   -0.2267 C   0  0  1  0  0  0  0  0  0  0  0  0
    0.5483   -1.6780   -0.4667 H   0  0  0  0  0  0  0  0  0  0  0  0
   -0.3102    0.1713   -1.2562 C   0  0  0  0  0  0  0  0  0  0  0  0
   -1.2332    0.7424   -1.1123 H   0  0  0  0  0  0  0  0  0  0  0  0
    0.5234    0.8566   -1.0663 H   0  0  0  0  0  0  0  0  0  0  0  0
   -0.1889   -0.2905   -2.6956 C   0  0  0  0  0  0  0  0  0  0  0  0
    0.7722   -1.2326   -3.1046 C   0  0  0  0  0  0  0  0  0  0  0  0
    1.4957   -1.6328   -2.4012 H   0  0  0  0  0  0  0  0  0  0  0  0
    0.8354   -1.6565   -4.4362 C   0  0  0  0  0  0  0  0  0  0  0  0
    1.5875   -2.3796   -4.7383 H   0  0  0  0  0  0  0  0  0  0  0  0
   -0.0607   -1.1452   -5.3781 C   0  0  0  0  0  0  0  0  0  0  0  0
   -0.0082   -1.4727   -6.4125 H   0  0  0  0  0  0  0  0  0  0  0  0
   -1.0179   -0.2059   -4.9870 C   0  0  0  0  0  0  0  0  0  0  0  0
   -1.7119    0.1978   -5.7184 H   0  0  0  0  0  0  0  0  0  0  0  0
   -1.0799    0.2176   -3.6551 C   0  0  0  0  0  0  0  0  0  0  0  0
   -1.8287    0.9510   -3.3714 H   0  0  0  0  0  0  0  0  0  0  0  0
    0.0997   -0.3813    1.1543 C   0  0  0  0  0  0  0  0  0  0  0  0
    1.2729   -0.3021    1.4944 O   0  0  0  0  0  0  0  0  0  0  0  0
   -0.8593    0.3044    1.8784 N   0  0  0  0  0  0  0  0  0  0  0  0
   -1.8236    0.1208    1.6212 H   0  0  0  0  0  0  0  0  0  0  0  0
   -0.5851    0.8994    3.1801 C   0  0  0  0  0  0  0  0  0  0  0  0
    0.2170    1.6411    3.1022 H   0  0  0  0  0  0  0  0  0  0  0  0
   -1.4797    1.3996    3.5624 H   0  0  0  0  0  0  0  0  0  0  0  0
   -0.2836    0.1281    3.8967 H   0  0  0  0  0  0  0  0  0  0  0  0
  1  2  1  0  0  0  0
  2  3  1  0  0  0  0
  2  4  1  0  0  0  0
  2  5  1  0  0  0  0
  5  6  2  0  0  0  0
  5  7  1  0  0  0  0
  7  8  1  0  0  0  0
  7  9  1  0  0  0  0
  9 10  1  0  0  0  0
  9 11  1  0  0  0  0
  9 25  1  0  0  0  0
 11 12  1  0  0  0  0
 11 13  1  0  0  0  0
 11 14  1  0  0  0  0
 14 15  1  0  0  0  0
 14 23  2  0  0  0  0
 15 16  1  0  0  0  0
 15 17  2  0  0  0  0
 17 18  1  0  0  0  0
 17 19  1  0  0  0  0
 19 20  1  0  0  0  0
 19 21  2  0  0  0  0
 21 22  1  0  0  0  0
 21 23  1  0  0  0  0
 23 24  1  0  0  0  0
 25 26  2  0  0  0  0
 25 27  1  0  0  0  0
 27 28  1  0  0  0  0
 27 29  1  0  0  0  0
 29 30  1  0  0  0  0
 29 31  1  0  0  0  0
 29 32  1  0  0  0  0
M  END
$$$$

  -OEChem-03222214073D

 32 32  0     1  0  0  0  0  0999 V2000
   -3.1743   -4.4565    0.9444 H   0  0  0  0  0  0  0  0  0  0  0  0
   -3.1152   -3.5951    0.2729 C   0  0  0  0  0  0  0  0  0  0  0  0
   -3.9941   -2.9652    0.4300 H   0  0  0  0  0  0  0  0  0  0  0  0
   -3.1119   -3.9547   -0.7590 H   0  0  0  0  0  0  0  0  0  0  0  0
   -1.8519   -2.8019    0.5506 C   0  0  0  0  0  0  0  0  0  0  0  0
   -1.1237   -3.1256    1.4715 O   0  0  0  0  0  0  0  0  0  0  0  0
   -1.5388   -1.7185   -0.2466 N   0  0  0  0  0  0  0  0  0  0  0  0
   -2.1085   -1.5996   -1.0803 H   0  0  0  0  0  0  0  0  0  0  0  0
   -0.2463   -1.0082   -0.2104 C   0  0  1  0  0  0  0  0  0  0  0  0
    0.5635   -1.7099   -0.4230 H   0  0  0  0  0  0  0  0  0  0  0  0
   -0.2998    0.1196   -1.2608 C   0  0  0  0  0  0  0  0  0  0  0  0
   -1.2252    0.6889   -1.1237 H   0  0  0  0  0  0  0  0  0  0  0  0
    0.5312    0.8082   -1.0717 H   0  0  0  0  0  0  0  0  0  0  0  0
   -0.1776   -0.3282   -2.7079 C   0  0  0  0  0  0  0  0  0  0  0  0
    0.5472   -1.4656   -3.1151 C   0  0  0  0  0  0  0  0  0  0  0  0
    1.0921   -2.0791   -2.4063 H   0  0  0  0  0  0  0  0  0  0  0  0
    0.6050   -1.8317   -4.4643 C   0  0  0  0  0  0  0  0  0  0  0  0
    1.1726   -2.7086   -4.7625 H   0  0  0  0  0  0  0  0  0  0  0  0
   -0.0578   -1.0692   -5.4284 C   0  0  0  0  0  0  0  0  0  0  0  0
   -0.0091   -1.3532   -6.4756 H   0  0  0  0  0  0  0  0  0  0  0  0
   -0.7754    0.0644   -5.0416 C   0  0  0  0  0  0  0  0  0  0  0  0
   -1.2865    0.6639   -5.7895 H   0  0  0  0  0  0  0  0  0  0  0  0
   -0.8316    0.4303   -3.6928 C   0  0  0  0  0  0  0  0  0  0  0  0
   -1.3904    1.3187   -3.4138 H   0  0  0  0  0  0  0  0  0  0  0  0
    0.0919   -0.3870    1.1628 C   0  0  0  0  0  0  0  0  0  0  0  0
    1.2612   -0.2994    1.5141 O   0  0  0  0  0  0  0  0  0  0  0  0
   -0.8755    0.3111    1.8637 N   0  0  0  0  0  0  0  0  0  0  0  0
   -1.8370    0.1229    1.5992 H   0  0  0  0  0  0  0  0  0  0  0  0
   -0.6158    0.9349    3.1551 C   0  0  0  0  0  0  0  0  0  0  0  0
    0.1906    1.6709    3.0708 H   0  0  0  0  0  0  0  0  0  0  0  0
   -1.5126    1.4484    3.5143 H   0  0  0  0  0  0  0  0  0  0  0  0
   -0.3275    0.1793    3.8933 H   0  0  0  0  0  0  0  0  0  0  0  0
  1  2  1  0  0  0  0
  2  3  1  0  0  0  0
  2  4  1  0  0  0  0
  2  5  1  0  0  0  0
  5  6  2  0  0  0  0
  5  7  1  0  0  0  0
  7  8  1  0  0  0  0
  7  9  1  0  0  0  0
  9 10  1  0  0  0  0
  9 11  1  0  0  0  0
  9 25  1  0  0  0  0
 11 12  1  0  0  0  0
 11 13  1  0  0  0  0
 11 14  1  0  0  0  0
 14 15  1  0  0  0  0
 14 23  2  0  0  0  0
 15 16  1  0  0  0  0
 15 17  2  0  0  0  0
 17 18  1  0  0  0  0
 17 19  1  0  0  0  0
 19 20  1  0  0  0  0
 19 21  2  0  0  0  0
 21 22  1  0  0  0  0
 21 23  1  0  0  0  0
 23 24  1  0  0  0  0
 25 26  2  0  0  0  0
 25 27  1  0  0  0  0
 27 28  1  0  0  0  0
 27 29  1  0  0  0  0
 29 30  1  0  0  0  0
 29 31  1  0  0  0  0
 29 32  1  0  0  0  0
M  END
$$$$

  -OEChem-03222214073D

 32 32  0     1  0  0  0  0  0999 V2000
   -3.1801   -4.4516    1.0047 H   0  0  0  0  0  0  0  0  0  0  0  0
   -3.1258   -3.5943    0.3273 C   0  0  0  0  0  0  0  0  0  0  0  0
   -3.9951   -2.9550    0.4985 H   0  0  0  0  0  0  0  0  0  0  0  0
   -3.1470   -3.9594   -0.7024 H   0  0  0  0  0  0  0  0  0  0  0  0
   -1.8490   -2.8129    0.5754 C   0  0  0  0  0  0  0  0  0  0  0  0
   -1.1047   -3.1408    1.4815 O   0  0  0  0  0  0  0  0  0  0  0  0
   -1.5403   -1.7363   -0.2326 N   0  0  0  0  0  0  0  0  0  0  0  0
   -2.1302   -1.6053   -1.0502 H   0  0  0  0  0  0  0  0  0  0  0  0
   -0.2493   -1.0218   -0.2107 C   0  0  1  0  0  0  0  0  0  0  0  0
    0.5679   -1.7166   -0.4225 H   0  0  0  0  0  0  0  0  0  0  0  0
   -0.3078    0.0960   -1.2701 C   0  0  0  0  0  0  0  0  0  0  0  0
   -1.2348    0.6634   -1.1365 H   0  0  0  0  0  0  0  0  0  0  0  0
    0.5222    0.7872   -1.0843 H   0  0  0  0  0  0  0  0  0  0  0  0
   -0.1923   -0.3483   -2.7193 C   0  0  0  0  0  0  0  0  0  0  0  0
    0.2572   -1.6210   -3.1266 C   0  0  0  0  0  0  0  0  0  0  0  0
    0.5589   -2.3785   -2.4123 H   0  0  0  0  0  0  0  0  0  0  0  0
    0.3336   -1.9518   -4.4841 C   0  0  0  0  0  0  0  0  0  0  0  0
    0.6854   -2.9349   -4.7829 H   0  0  0  0  0  0  0  0  0  0  0  0
   -0.0349   -1.0200   -5.4566 C   0  0  0  0  0  0  0  0  0  0  0  0
    0.0290   -1.2772   -6.5099 H   0  0  0  0  0  0  0  0  0  0  0  0
   -0.4789    0.2457   -5.0698 C   0  0  0  0  0  0  0  0  0  0  0  0
   -0.7610    0.9753   -5.8232 H   0  0  0  0  0  0  0  0  0  0  0  0
   -0.5544    0.5757   -3.7128 C   0  0  0  0  0  0  0  0  0  0  0  0
   -0.8953    1.5677   -3.4312 H   0  0  0  0  0  0  0  0  0  0  0  0
    0.0900   -0.3881    1.1567 C   0  0  0  0  0  0  0  0  0  0  0  0
    1.2591   -0.2938    1.5064 O   0  0  0  0  0  0  0  0  0  0  0  0
   -0.8786    0.3120    1.8542 N   0  0  0  0  0  0  0  0  0  0  0  0
   -1.8398    0.1241    1.5893 H   0  0  0  0  0  0  0  0  0  0  0  0
   -0.6192    0.9470    3.1401 C   0  0  0  0  0  0  0  0  0  0  0  0
    0.1861    1.6835    3.0489 H   0  0  0  0  0  0  0  0  0  0  0  0
   -1.5167    1.4620    3.4957 H   0  0  0  0  0  0  0  0  0  0  0  0
   -0.3291    0.1978    3.8843 H   0  0  0  0  0  0  0  0  0  0  0  0
  1  2  1  0  0  0  0
  2  3  1  0  0  0  0
  2  4  1  0  0  0  0
  2  5  1  0  0  0  0
  5  6  2  0  0  0  0
  5  7  1  0  0  0  0
  7  8  1  0  0  0  0
  7  9  1  0  0  0  0
  9 10  1  0  0  0  0
  9 11  1  0  0  0  0
  9 25  1  0  0  0  0
 11 12  1  0  0  0  0
 11 13  1  0  0  0  0
 11 14  1  0  0  0  0
 14 15  1  0  0  0  0
 14 23  2  0  0  0  0
 15 16  1  0  0  0  0
 15 17  2  0  0  0  0
 17 18  1  0  0  0  0
 17 19  1  0  0  0  0
 19 20  1  0  0  0  0
 19 21  2  0  0  0  0
 21 22  1  0  0  0  0
 21 23  1  0  0  0  0
 23 24  1  0  0  0  0
 25 26  2  0  0  0  0
 25 27  1  0  0  0  0
 27 28  1  0  0  0  0
 27 29  1  0  0  0  0
 29 30  1  0  0  0  0
 29 31  1  0  0  0  0
 29 32  1  0  0  0  0
M  END
$$$$

  -OEChem-03222214073D

 32 32  0     1  0  0  0  0  0999 V2000
   -3.1832   -4.4416    1.0182 H   0  0  0  0  0  0  0  0  0  0  0  0
   -3.1361   -3.5809    0.3450 C   0  0  0  0  0  0  0  0  0  0  0  0
   -3.9942   -2.9335    0.5409 H   0  0  0  0  0  0  0  0  0  0  0  0
   -3.1853   -3.9397   -0.6860 H   0  0  0  0  0  0  0  0  0  0  0  0
   -1.8462   -2.8140    0.5682 C   0  0  0  0  0  0  0  0  0  0  0  0
   -1.0815   -3.1586    1.4506 O   0  0  0  0  0  0  0  0  0  0  0  0
   -1.5479   -1.7307   -0.2346 N   0  0  0  0  0  0  0  0  0  0  0  0
   -2.1644   -1.5725   -1.0275 H   0  0  0  0  0  0  0  0  0  0  0  0
   -0.2588   -1.0109   -0.2211 C   0  0  1  0  0  0  0  0  0  0  0  0
    0.5576   -1.7026   -0.4530 H   0  0  0  0  0  0  0  0  0  0  0  0
   -0.3194    0.1064   -1.2799 C   0  0  0  0  0  0  0  0  0  0  0  0
   -1.2471    0.6733   -1.1512 H   0  0  0  0  0  0  0  0  0  0  0  0
    0.5097    0.7981   -1.0915 H   0  0  0  0  0  0  0  0  0  0  0  0
   -0.2045   -0.3404   -2.7280 C   0  0  0  0  0  0  0  0  0  0  0  0
   -0.0505   -1.6819   -3.1336 C   0  0  0  0  0  0  0  0  0  0  0  0
    0.0051   -2.4920   -2.4148 H   0  0  0  0  0  0  0  0  0  0  0  0
    0.0430   -2.0125   -4.4900 C   0  0  0  0  0  0  0  0  0  0  0  0
    0.1674   -3.0496   -4.7878 H   0  0  0  0  0  0  0  0  0  0  0  0
   -0.0171   -1.0119   -5.4625 C   0  0  0  0  0  0  0  0  0  0  0  0
    0.0590   -1.2692   -6.5150 H   0  0  0  0  0  0  0  0  0  0  0  0
   -0.1695    0.3214   -5.0766 C   0  0  0  0  0  0  0  0  0  0  0  0
   -0.2123    1.1030   -5.8295 H   0  0  0  0  0  0  0  0  0  0  0  0
   -0.2620    0.6506   -3.7205 C   0  0  0  0  0  0  0  0  0  0  0  0
   -0.3759    1.6929   -3.4374 H   0  0  0  0  0  0  0  0  0  0  0  0
    0.0920   -0.3853    1.1468 C   0  0  0  0  0  0  0  0  0  0  0  0
    1.2637   -0.2913    1.4874 O   0  0  0  0  0  0  0  0  0  0  0  0
   -0.8726    0.3061    1.8587 N   0  0  0  0  0  0  0  0  0  0  0  0
   -1.8357    0.1235    1.5964 H   0  0  0  0  0  0  0  0  0  0  0  0
   -0.6050    0.9287    3.1493 C   0  0  0  0  0  0  0  0  0  0  0  0
    0.1973    1.6686    3.0597 H   0  0  0  0  0  0  0  0  0  0  0  0
   -1.5013    1.4366    3.5175 H   0  0  0  0  0  0  0  0  0  0  0  0
   -0.3067    0.1727    3.8831 H   0  0  0  0  0  0  0  0  0  0  0  0
  1  2  1  0  0  0  0
  2  3  1  0  0  0  0
  2  4  1  0  0  0  0
  2  5  1  0  0  0  0
  5  6  2  0  0  0  0
  5  7  1  0  0  0  0
  7  8  1  0  0  0  0
  7  9  1  0  0  0  0
  9 10  1  0  0  0  0
  9 11  1  0  0  0  0
  9 25  1  0  0  0  0
 11 12  1  0  0  0  0
 11 13  1  0  0  0  0
 11 14  1  0  0  0  0
 14 15  1  0  0  0  0
 14 23  2  0  0  0  0
 15 16  1  0  0  0  0
 15 17  2  0  0  0  0
 17 18  1  0  0  0  0
 17 19  1  0  0  0  0
 19 20  1  0  0  0  0
 19 21  2  0  0  0  0
 21 22  1  0  0  0  0
 21 23  1  0  0  0  0
 23 24  1  0  0  0  0
 25 26  2  0  0  0  0
 25 27  1  0  0  0  0
 27 28  1  0  0  0  0
 27 29  1  0  0  0  0
 29 30  1  0  0  0  0
 29 31  1  0  0  0  0
 29 32  1  0  0  0  0
M  END
$$$$

  -OEChem-03222214073D

 32 32  0     1  0  0  0  0  0999 V2000
   -3.1988   -4.4297    1.0325 H   0  0  0  0  0  0  0  0  0  0  0  0
   -3.1512   -3.5696    0.3585 C   0  0  0  0  0  0  0  0  0  0  0  0
   -3.9975   -2.9111    0.5686 H   0  0  0  0  0  0  0  0  0  0  0  0
   -3.2222   -3.9270   -0.6717 H   0  0  0  0  0  0  0  0  0  0  0  0
   -1.8475   -2.8201    0.5599 C   0  0  0  0  0  0  0  0  0  0  0  0
   -1.0641   -3.1843    1.4175 O   0  0  0  0  0  0  0  0  0  0  0  0
   -1.5588   -1.7286   -0.2349 N   0  0  0  0  0  0  0  0  0  0  0  0
   -2.2035   -1.5359   -0.9969 H   0  0  0  0  0  0  0  0  0  0  0  0
   -0.2717   -1.0039   -0.2270 C   0  0  1  0  0  0  0  0  0  0  0  0
    0.5377   -1.6991   -0.4763 H   0  0  0  0  0  0  0  0  0  0  0  0
   -0.3240    0.1136   -1.2864 C   0  0  0  0  0  0  0  0  0  0  0  0
   -1.2517    0.6822   -1.1658 H   0  0  0  0  0  0  0  0  0  0  0  0
    0.5040    0.8038   -1.0884 H   0  0  0  0  0  0  0  0  0  0  0  0
   -0.2010   -0.3336   -2.7342 C   0  0  0  0  0  0  0  0  0  0  0  0
   -0.3485   -1.6675   -3.1661 C   0  0  0  0  0  0  0  0  0  0  0  0
   -0.5245   -2.4766   -2.4662 H   0  0  0  0  0  0  0  0  0  0  0  0
   -0.2473   -1.9959   -4.5226 C   0  0  0  0  0  0  0  0  0  0  0  0
   -0.3531   -3.0292   -4.8404 H   0  0  0  0  0  0  0  0  0  0  0  0
   -0.0018   -0.9995   -5.4698 C   0  0  0  0  0  0  0  0  0  0  0  0
    0.0806   -1.2558   -6.5221 H   0  0  0  0  0  0  0  0  0  0  0  0
    0.1434    0.3269   -5.0586 C   0  0  0  0  0  0  0  0  0  0  0  0
    0.3374    1.1044   -5.7920 H   0  0  0  0  0  0  0  0  0  0  0  0
    0.0421    0.6538   -3.7024 C   0  0  0  0  0  0  0  0  0  0  0  0
    0.1558    1.6909   -3.4004 H   0  0  0  0  0  0  0  0  0  0  0  0
    0.0919   -0.3885    1.1419 C   0  0  0  0  0  0  0  0  0  0  0  0
    1.2666   -0.2888    1.4700 O   0  0  0  0  0  0  0  0  0  0  0  0
   -0.8686    0.2935    1.8678 N   0  0  0  0  0  0  0  0  0  0  0  0
   -1.8334    0.1084    1.6149 H   0  0  0  0  0  0  0  0  0  0  0  0
   -0.5894    0.9170    3.1552 C   0  0  0  0  0  0  0  0  0  0  0  0
    0.2034    1.6661    3.0552 H   0  0  0  0  0  0  0  0  0  0  0  0
   -1.4856    1.4148    3.5372 H   0  0  0  0  0  0  0  0  0  0  0  0
   -0.2724    0.1632    3.8836 H   0  0  0  0  0  0  0  0  0  0  0  0
  1  2  1  0  0  0  0
  2  3  1  0  0  0  0
  2  4  1  0  0  0  0
  2  5  1  0  0  0  0
  5  6  2  0  0  0  0
  5  7  1  0  0  0  0
  7  8  1  0  0  0  0
  7  9  1  0  0  0  0
  9 10  1  0  0  0  0
  9 11  1  0  0  0  0
  9 25  1  0  0  0  0
 11 12  1  0  0  0  0
 11 13  1  0  0  0  0
 11 14  1  0  0  0  0
 14 15  1  0  0  0  0
 14 23  2  0  0  0  0
 15 16  1  0  0  0  0
 15 17  2  0  0  0  0
 17 18  1  0  0  0  0
 17 19  1  0  0  0  0
 19 20  1  0  0  0  0
 19 21  2  0  0  0  0
 21 22  1  0  0  0  0
 21 23  1  0  0  0  0
 23 24  1  0  0  0  0
 25 26  2  0  0  0  0
 25 27  1  0  0  0  0
 27 28  1  0  0  0  0
 27 29  1  0  0  0  0
 29 30  1  0  0  0  0
 29 31  1  0  0  0  0
 29 32  1  0  0  0  0
M  END
$$$$

  -OEChem-03222214073D

 32 32  0     1  0  0  0  0  0999 V2000
   -3.1968   -4.4308    1.0784 H   0  0  0  0  0  0  0  0  0  0  0  0
   -3.1612   -3.5721    0.4017 C   0  0  0  0  0  0  0  0  0  0  0  0
   -3.9958   -2.9065    0.6338 H   0  0  0  0  0  0  0  0  0  0  0  0
   -3.2637   -3.9305   -0.6253 H   0  0  0  0  0  0  0  0  0  0  0  0
   -1.8462   -2.8333    0.5652 C   0  0  0  0  0  0  0  0  0  0  0  0
   -1.0370   -3.2103    1.3929 O   0  0  0  0  0  0  0  0  0  0  0  0
   -1.5780   -1.7351   -0.2281 N   0  0  0  0  0  0  0  0  0  0  0  0
   -2.2612   -1.5076   -0.9451 H   0  0  0  0  0  0  0  0  0  0  0  0
   -0.2961   -1.0018   -0.2382 C   0  0  1  0  0  0  0  0  0  0  0  0
    0.5072   -1.6997   -0.5003 H   0  0  0  0  0  0  0  0  0  0  0  0
   -0.3379    0.1174   -1.2982 C   0  0  0  0  0  0  0  0  0  0  0  0
   -1.2646    0.6882   -1.1827 H   0  0  0  0  0  0  0  0  0  0  0  0
    0.4897    0.8047   -1.0884 H   0  0  0  0  0  0  0  0  0  0  0  0
   -0.2116   -0.3246   -2.7488 C   0  0  0  0  0  0  0  0  0  0  0  0
   -0.6518   -1.5703   -3.2400 C   0  0  0  0  0  0  0  0  0  0  0  0
   -1.0808   -2.3221   -2.5902 H   0  0  0  0  0  0  0  0  0  0  0  0
   -0.5253   -1.8919   -4.5960 C   0  0  0  0  0  0  0  0  0  0  0  0
   -0.8599   -2.8596   -4.9580 H   0  0  0  0  0  0  0  0  0  0  0  0
    0.0379   -0.9756   -5.4863 C   0  0  0  0  0  0  0  0  0  0  0  0
    0.1391   -1.2274   -6.5380 H   0  0  0  0  0  0  0  0  0  0  0  0
    0.4752    0.2644   -5.0180 C   0  0  0  0  0  0  0  0  0  0  0  0
    0.9156    0.9805   -5.7057 H   0  0  0  0  0  0  0  0  0  0  0  0
    0.3477    0.5847   -3.6626 C   0  0  0  0  0  0  0  0  0  0  0  0
    0.6917    1.5564   -3.3199 H   0  0  0  0  0  0  0  0  0  0  0  0
    0.0841   -0.3925    1.1291 C   0  0  0  0  0  0  0  0  0  0  0  0
    1.2630   -0.2846    1.4394 O   0  0  0  0  0  0  0  0  0  0  0  0
   -0.8699    0.2778    1.8744 N   0  0  0  0  0  0  0  0  0  0  0  0
   -1.8380    0.0909    1.6350 H   0  0  0  0  0  0  0  0  0  0  0  0
   -0.5733    0.9068    3.1553 C   0  0  0  0  0  0  0  0  0  0  0  0
    0.2099    1.6635    3.0395 H   0  0  0  0  0  0  0  0  0  0  0  0
   -1.4674    1.3968    3.5520 H   0  0  0  0  0  0  0  0  0  0  0  0
   -0.2352    0.1583    3.8795 H   0  0  0  0  0  0  0  0  0  0  0  0
  1  2  1  0  0  0  0
  2  3  1  0  0  0  0
  2  4  1  0  0  0  0
  2  5  1  0  0  0  0
  5  6  2  0  0  0  0
  5  7  1  0  0  0  0
  7  8  1  0  0  0  0
  7  9  1  0  0  0  0
  9 10  1  0  0  0  0
  9 11  1  0  0  0  0
  9 25  1  0  0  0  0
 11 12  1  0  0  0  0
 11 13  1  0  0  0  0
 11 14  1  0  0  0  0
 14 15  1  0  0  0  0
 14 23  2  0  0  0  0
 15 16  1  0  0  0  0
 15 17  2  0  0  0  0
 17 18  1  0  0  0  0
 17 19  1  0  0  0  0
 19 20  1  0  0  0  0
 19 21  2  0  0  0  0
 21 22  1  0  0  0  0
 21 23  1  0  0  0  0
 23 24  1  0  0  0  0
 25 26  2  0  0  0  0
 25 27  1  0  0  0  0
 27 28  1  0  0  0  0
 27 29  1  0  0  0  0
 29 30  1  0  0  0  0
 29 31  1  0  0  0  0
 29 32  1  0  0  0  0
M  END
$$$$

  -OEChem-03222214073D

 32 32  0     1  0  0  0  0  0999 V2000
   -3.1690   -4.4365    1.0851 H   0  0  0  0  0  0  0  0  0  0  0  0
   -3.1518   -3.5738    0.4128 C   0  0  0  0  0  0  0  0  0  0  0  0
   -3.9785   -2.9087    0.6730 H   0  0  0  0  0  0  0  0  0  0  0  0
   -3.2838   -3.9265   -0.6129 H   0  0  0  0  0  0  0  0  0  0  0  0
   -1.8322   -2.8366    0.5429 C   0  0  0  0  0  0  0  0  0  0  0  0
   -0.9978   -3.2246    1.3398 O   0  0  0  0  0  0  0  0  0  0  0  0
   -1.5917   -1.7238   -0.2392 N   0  0  0  0  0  0  0  0  0  0  0  0
   -2.3076   -1.4701   -0.9132 H   0  0  0  0  0  0  0  0  0  0  0  0
   -0.3189   -0.9761   -0.2618 C   0  0  1  0  0  0  0  0  0  0  0  0
    0.4835   -1.6681   -0.5421 H   0  0  0  0  0  0  0  0  0  0  0  0
   -0.3625    0.1567   -1.3087 C   0  0  0  0  0  0  0  0  0  0  0  0
   -1.2921    0.7219   -1.1903 H   0  0  0  0  0  0  0  0  0  0  0  0
    0.4595    0.8479   -1.0898 H   0  0  0  0  0  0  0  0  0  0  0  0
   -0.2381   -0.2848   -2.7596 C   0  0  0  0  0  0  0  0  0  0  0  0
   -0.9389   -1.3759   -3.3098 C   0  0  0  0  0  0  0  0  0  0  0  0
   -1.6142   -1.9767   -2.7159 H   0  0  0  0  0  0  0  0  0  0  0  0
   -0.7801   -1.7267   -4.6552 C   0  0  0  0  0  0  0  0  0  0  0  0
   -1.3231   -2.5738   -5.0637 H   0  0  0  0  0  0  0  0  0  0  0  0
    0.0786   -0.9930   -5.4756 C   0  0  0  0  0  0  0  0  0  0  0  0
    0.2037   -1.2671   -6.5192 H   0  0  0  0  0  0  0  0  0  0  0  0
    0.7787    0.0932   -4.9483 C   0  0  0  0  0  0  0  0  0  0  0  0
    1.4499    0.6664   -5.5814 H   0  0  0  0  0  0  0  0  0  0  0  0
    0.6194    0.4422   -3.6037 C   0  0  0  0  0  0  0  0  0  0  0  0
    1.1771    1.2903   -3.2169 H   0  0  0  0  0  0  0  0  0  0  0  0
    0.0774   -0.3837    1.1082 C   0  0  0  0  0  0  0  0  0  0  0  0
    1.2600   -0.2692    1.4012 O   0  0  0  0  0  0  0  0  0  0  0  0
   -0.8702    0.2641    1.8811 N   0  0  0  0  0  0  0  0  0  0  0  0
   -1.8405    0.0769    1.6522 H   0  0  0  0  0  0  0  0  0  0  0  0
   -0.5583    0.8684    3.1701 C   0  0  0  0  0  0  0  0  0  0  0  0
    0.2192    1.6314    3.0581 H   0  0  0  0  0  0  0  0  0  0  0  0
   -1.4490    1.3450    3.5903 H   0  0  0  0  0  0  0  0  0  0  0  0
   -0.2057    0.1067    3.8734 H   0  0  0  0  0  0  0  0  0  0  0  0
  1  2  1  0  0  0  0
  2  3  1  0  0  0  0
  2  4  1  0  0  0  0
  2  5  1  0  0  0  0
  5  6  2  0  0  0  0
  5  7  1  0  0  0  0
  7  8  1  0  0  0  0
  7  9  1  0  0  0  0
  9 10  1  0  0  0  0
  9 11  1  0  0  0  0
  9 25  1  0  0  0  0
 11 12  1  0  0  0  0
 11 13  1  0  0  0  0
 11 14  1  0  0  0  0
 14 15  1  0  0  0  0
 14 23  2  0  0  0  0
 15 16  1  0  0  0  0
 15 17  2  0  0  0  0
 17 18  1  0  0  0  0
 17 19  1  0  0  0  0
 19 20  1  0  0  0  0
 19 21  2  0  0  0  0
 21 22  1  0  0  0  0
 21 23  1  0  0  0  0
 23 24  1  0  0  0  0
 25 26  2  0  0  0  0
 25 27  1  0  0  0  0
 27 28  1  0  0  0  0
 27 29  1  0  0  0  0
 29 30  1  0  0  0  0
 29 31  1  0  0  0  0
 29 32  1  0  0  0  0
M  END
$$$$

  -OEChem-03222214073D

 32 32  0     1  0  0  0  0  0999 V2000
   -3.1320   -4.4575    0.9842 H   0  0  0  0  0  0  0  0  0  0  0  0
   -3.1227   -3.5830    0.3271 C   0  0  0  0  0  0  0  0  0  0  0  0
   -3.9680   -2.9406    0.5851 H   0  0  0  0  0  0  0  0  0  0  0  0
   -3.2307   -3.9200   -0.7066 H   0  0  0  0  0  0  0  0  0  0  0  0
   -1.8208   -2.8212    0.4909 C   0  0  0  0  0  0  0  0  0  0  0  0
   -0.9895   -3.2076    1.2921 O   0  0  0  0  0  0  0  0  0  0  0  0
   -1.5926   -1.6891   -0.2668 N   0  0  0  0  0  0  0  0  0  0  0  0
   -2.2976   -1.4493   -0.9556 H   0  0  0  0  0  0  0  0  0  0  0  0
   -0.3243   -0.9343   -0.2800 C   0  0  1  0  0  0  0  0  0  0  0  0
    0.4783   -1.6175   -0.5807 H   0  0  0  0  0  0  0  0  0  0  0  0
   -0.3769    0.2221   -1.2991 C   0  0  0  0  0  0  0  0  0  0  0  0
   -1.3099    0.7797   -1.1719 H   0  0  0  0  0  0  0  0  0  0  0  0
    0.4400    0.9182   -1.0782 H   0  0  0  0  0  0  0  0  0  0  0  0
   -0.2563   -0.2272   -2.7442 C   0  0  0  0  0  0  0  0  0  0  0  0
   -1.1736   -1.1082   -3.3460 C   0  0  0  0  0  0  0  0  0  0  0  0
   -2.0329   -1.4801   -2.8036 H   0  0  0  0  0  0  0  0  0  0  0  0
   -1.0083   -1.5168   -4.6741 C   0  0  0  0  0  0  0  0  0  0  0  0
   -1.7239   -2.1956   -5.1285 H   0  0  0  0  0  0  0  0  0  0  0  0
    0.0779   -1.0536   -5.4201 C   0  0  0  0  0  0  0  0  0  0  0  0
    0.2085   -1.3720   -6.4503 H   0  0  0  0  0  0  0  0  0  0  0  0
    0.9988   -0.1816   -4.8359 C   0  0  0  0  0  0  0  0  0  0  0  0
    1.8480    0.1774   -5.4101 H   0  0  0  0  0  0  0  0  0  0  0  0
    0.8322    0.2258   -3.5084 C   0  0  0  0  0  0  0  0  0  0  0  0
    1.5661    0.8968   -3.0707 H   0  0  0  0  0  0  0  0  0  0  0  0
    0.0818   -0.3699    1.0989 C   0  0  0  0  0  0  0  0  0  0  0  0
    1.2669   -0.2462    1.3788 O   0  0  0  0  0  0  0  0  0  0  0  0
   -0.8627    0.2558    1.8932 N   0  0  0  0  0  0  0  0  0  0  0  0
   -1.8332    0.0591    1.6733 H   0  0  0  0  0  0  0  0  0  0  0  0
   -0.5422    0.8411    3.1890 C   0  0  0  0  0  0  0  0  0  0  0  0
    0.2228    1.6173    3.0811 H   0  0  0  0  0  0  0  0  0  0  0  0
   -1.4342    1.2971    3.6289 H   0  0  0  0  0  0  0  0  0  0  0  0
   -0.1698    0.0720    3.8739 H   0  0  0  0  0  0  0  0  0  0  0  0
  1  2  1  0  0  0  0
  2  3  1  0  0  0  0
  2  4  1  0  0  0  0
  2  5  1  0  0  0  0
  5  6  2  0  0  0  0
  5  7  1  0  0  0  0
  7  8  1  0  0  0  0
  7  9  1  0  0  0  0
  9 10  1  0  0  0  0
  9 11  1  0  0  0  0
  9 25  1  0  0  0  0
 11 12  1  0  0  0  0
 11 13  1  0  0  0  0
 11 14  1  0  0  0  0
 14 15  1  0  0  0  0
 14 23  2  0  0  0  0
 15 16  1  0  0  0  0
 15 17  2  0  0  0  0
 17 18  1  0  0  0  0
 17 19  1  0  0  0  0
 19 20  1  0  0  0  0
 19 21  2  0  0  0  0
 21 22  1  0  0  0  0
 21 23  1  0  0  0  0
 23 24  1  0  0  0  0
 25 26  2  0  0  0  0
 25 27  1  0  0  0  0
 27 28  1  0  0  0  0
 27 29  1  0  0  0  0
 29 30  1  0  0  0  0
 29 31  1  0  0  0  0
 29 32  1  0  0  0  0
M  END
$$$$

  -OEChem-03222214073D

 32 32  0     1  0  0  0  0  0999 V2000
   -3.0906   -4.4804    0.8372 H   0  0  0  0  0  0  0  0  0  0  0  0
   -3.0759   -3.5983    0.1903 C   0  0  0  0  0  0  0  0  0  0  0  0
   -3.9678   -3.0003    0.3909 H   0  0  0  0  0  0  0  0  0  0  0  0
   -3.0912   -3.9273   -0.8516 H   0  0  0  0  0  0  0  0  0  0  0  0
   -1.8284   -2.7772    0.4576 C   0  0  0  0  0  0  0  0  0  0  0  0
   -1.0554   -3.1210    1.3331 O   0  0  0  0  0  0  0  0  0  0  0  0
   -1.5866   -1.6419   -0.2911 N   0  0  0  0  0  0  0  0  0  0  0  0
   -2.1998   -1.4973   -1.0857 H   0  0  0  0  0  0  0  0  0  0  0  0
   -0.3094   -0.9022   -0.2808 C   0  0  1  0  0  0  0  0  0  0  0  0
    0.4915   -1.5843   -0.5884 H   0  0  0  0  0  0  0  0  0  0  0  0
   -0.3639    0.2725   -1.2762 C   0  0  0  0  0  0  0  0  0  0  0  0
   -1.2940    0.8331   -1.1394 H   0  0  0  0  0  0  0  0  0  0  0  0
    0.4589    0.9639   -1.0620 H   0  0  0  0  0  0  0  0  0  0  0  0
   -0.2502   -0.1891   -2.7124 C   0  0  0  0  0  0  0  0  0  0  0  0
   -1.3254   -0.8069   -3.3731 C   0  0  0  0  0  0  0  0  0  0  0  0
   -2.2844   -0.9192   -2.8809 H   0  0  0  0  0  0  0  0  0  0  0  0
   -1.1859   -1.2649   -4.6878 C   0  0  0  0  0  0  0  0  0  0  0  0
   -2.0240   -1.7352   -5.1936 H   0  0  0  0  0  0  0  0  0  0  0  0
    0.0329   -1.1154   -5.3549 C   0  0  0  0  0  0  0  0  0  0  0  0
    0.1433   -1.4702   -6.3756 H   0  0  0  0  0  0  0  0  0  0  0  0
    1.1114   -0.5088   -4.7056 C   0  0  0  0  0  0  0  0  0  0  0  0
    2.0618   -0.3955   -5.2191 H   0  0  0  0  0  0  0  0  0  0  0  0
    0.9704   -0.0518   -3.3912 C   0  0  0  0  0  0  0  0  0  0  0  0
    1.8220    0.4052   -2.8949 H   0  0  0  0  0  0  0  0  0  0  0  0
    0.0914   -0.3524    1.1054 C   0  0  0  0  0  0  0  0  0  0  0  0
    1.2764   -0.2470    1.3942 O   0  0  0  0  0  0  0  0  0  0  0  0
   -0.8518    0.2800    1.8959 N   0  0  0  0  0  0  0  0  0  0  0  0
   -1.8217    0.0827    1.6721 H   0  0  0  0  0  0  0  0  0  0  0  0
   -0.5359    0.8362    3.2054 C   0  0  0  0  0  0  0  0  0  0  0  0
    0.2334    1.6105    3.1185 H   0  0  0  0  0  0  0  0  0  0  0  0
   -1.4283    1.2870    3.6499 H   0  0  0  0  0  0  0  0  0  0  0  0
   -0.1708    0.0509    3.8755 H   0  0  0  0  0  0  0  0  0  0  0  0
  1  2  1  0  0  0  0
  2  3  1  0  0  0  0
  2  4  1  0  0  0  0
  2  5  1  0  0  0  0
  5  6  2  0  0  0  0
  5  7  1  0  0  0  0
  7  8  1  0  0  0  0
  7  9  1  0  0  0  0
  9 10  1  0  0  0  0
  9 11  1  0  0  0  0
  9 25  1  0  0  0  0
 11 12  1  0  0  0  0
 11 13  1  0  0  0  0
 11 14  1  0  0  0  0
 14 15  1  0  0  0  0
 14 23  2  0  0  0  0
 15 16  1  0  0  0  0
 15 17  2  0  0  0  0
 17 18  1  0  0  0  0
 17 19  1  0  0  0  0
 19 20  1  0  0  0  0
 19 21  2  0  0  0  0
 21 22  1  0  0  0  0
 21 23  1  0  0  0  0
 23 24  1  0  0  0  0
 25 26  2  0  0  0  0
 25 27  1  0  0  0  0
 27 28  1  0  0  0  0
 27 29  1  0  0  0  0
 29 30  1  0  0  0  0
 29 31  1  0  0  0  0
 29 32  1  0  0  0  0
M  END
$$$$

  -OEChem-03222214073D

 32 32  0     1  0  0  0  0  0999 V2000
   -3.0776   -4.4870    0.7384 H   0  0  0  0  0  0  0  0  0  0  0  0
   -3.0588   -3.5911    0.1110 C   0  0  0  0  0  0  0  0  0  0  0  0
   -3.9644   -3.0100    0.3002 H   0  0  0  0  0  0  0  0  0  0  0  0
   -3.0415   -3.8983   -0.9375 H   0  0  0  0  0  0  0  0  0  0  0  0
   -1.8317   -2.7569    0.4279 C   0  0  0  0  0  0  0  0  0  0  0  0
   -1.0918   -3.0911    1.3355 O   0  0  0  0  0  0  0  0  0  0  0  0
   -1.5735   -1.6193   -0.3117 N   0  0  0  0  0  0  0  0  0  0  0  0
   -2.1428   -1.5015   -1.1441 H   0  0  0  0  0  0  0  0  0  0  0  0
   -0.2912   -0.8898   -0.2761 C   0  0  1  0  0  0  0  0  0  0  0  0
    0.5107   -1.5717   -0.5816 H   0  0  0  0  0  0  0  0  0  0  0  0
   -0.3517    0.2901   -1.2619 C   0  0  0  0  0  0  0  0  0  0  0  0
   -1.2804    0.8528   -1.1222 H   0  0  0  0  0  0  0  0  0  0  0  0
    0.4747    0.9801   -1.0566 H   0  0  0  0  0  0  0  0  0  0  0  0
   -0.2338   -0.1900   -2.6882 C   0  0  0  0  0  0  0  0  0  0  0  0
   -1.3759   -0.5299   -3.4306 C   0  0  0  0  0  0  0  0  0  0  0  0
   -2.3646   -0.4141   -2.9988 H   0  0  0  0  0  0  0  0  0  0  0  0
   -1.2547   -1.0038   -4.7417 C   0  0  0  0  0  0  0  0  0  0  0  0
   -2.1423   -1.2573   -5.3140 H   0  0  0  0  0  0  0  0  0  0  0  0
    0.0102   -1.1473   -5.3196 C   0  0  0  0  0  0  0  0  0  0  0  0
    0.1066   -1.5145   -6.3372 H   0  0  0  0  0  0  0  0  0  0  0  0
    1.1530   -0.8168   -4.5854 C   0  0  0  0  0  0  0  0  0  0  0  0
    2.1374   -0.9297   -5.0303 H   0  0  0  0  0  0  0  0  0  0  0  0
    1.0307   -0.3422   -3.2753 C   0  0  0  0  0  0  0  0  0  0  0  0
    1.9261   -0.0968   -2.7105 H   0  0  0  0  0  0  0  0  0  0  0  0
    0.0997   -0.3479    1.1157 C   0  0  0  0  0  0  0  0  0  0  0  0
    1.2831   -0.2518    1.4141 O   0  0  0  0  0  0  0  0  0  0  0  0
   -0.8454    0.2906    1.8986 N   0  0  0  0  0  0  0  0  0  0  0  0
   -1.8142    0.0919    1.6713 H   0  0  0  0  0  0  0  0  0  0  0  0
   -0.5355    0.8410    3.2121 C   0  0  0  0  0  0  0  0  0  0  0  0
    0.2506    1.5996    3.1353 H   0  0  0  0  0  0  0  0  0  0  0  0
   -1.4241    1.3101    3.6448 H   0  0  0  0  0  0  0  0  0  0  0  0
   -0.1954    0.0488    3.8874 H   0  0  0  0  0  0  0  0  0  0  0  0
  1  2  1  0  0  0  0
  2  3  1  0  0  0  0
  2  4  1  0  0  0  0
  2  5  1  0  0  0  0
  5  6  2  0  0  0  0
  5  7  1  0  0  0  0
  7  8  1  0  0  0  0
  7  9  1  0  0  0  0
  9 10  1  0  0  0  0
  9 11  1  0  0  0  0
  9 25  1  0  0  0  0
 11 12  1  0  0  0  0
 11 13  1  0  0  0  0
 11 14  1  0  0  0  0
 14 15  1  0  0  0  0
 14 23  2  0  0  0  0
 15 16  1  0  0  0  0
 15 17  2  0  0  0  0
 17 18  1  0  0  0  0
 17 19  1  0  0  0  0
 19 20  1  0  0  0  0
 19 21  2  0  0  0  0
 21 22  1  0  0  0  0
 21 23  1  0  0  0  0
 23 24  1  0  0  0  0
 25 26  2  0  0  0  0
 25 27  1  0  0  0  0
 27 28  1  0  0  0  0
 27 29  1  0  0  0  0
 29 30  1  0  0  0  0
 29 31  1  0  0  0  0
 29 32  1  0  0  0  0
M  END
$$$$

  -OEChem-03222214073D

 32 32  0     1  0  0  0  0  0999 V2000
   -3.0952   -4.4787    0.7248 H   0  0  0  0  0  0  0  0  0  0  0  0
   -3.0684   -3.5802    0.1015 C   0  0  0  0  0  0  0  0  0  0  0  0
   -3.9717   -2.9948    0.2885 H   0  0  0  0  0  0  0  0  0  0  0  0
   -3.0485   -3.8828   -0.9483 H   0  0  0  0  0  0  0  0  0  0  0  0
   -1.8378   -2.7546    0.4279 C   0  0  0  0  0  0  0  0  0  0  0  0
   -1.1100   -3.0905    1.3447 O   0  0  0  0  0  0  0  0  0  0  0  0
   -1.5620   -1.6223   -0.3135 N   0  0  0  0  0  0  0  0  0  0  0  0
   -2.1203   -1.5036   -1.1539 H   0  0  0  0  0  0  0  0  0  0  0  0
   -0.2755   -0.9011   -0.2662 C   0  0  1  0  0  0  0  0  0  0  0  0
    0.5263   -1.5875   -0.5603 H   0  0  0  0  0  0  0  0  0  0  0  0
   -0.3382    0.2742   -1.2566 C   0  0  0  0  0  0  0  0  0  0  0  0
   -1.2656    0.8385   -1.1150 H   0  0  0  0  0  0  0  0  0  0  0  0
    0.4905    0.9634   -1.0581 H   0  0  0  0  0  0  0  0  0  0  0  0
   -0.2173   -0.2127   -2.6802 C   0  0  0  0  0  0  0  0  0  0  0  0
   -1.3427   -0.2615   -3.5175 C   0  0  0  0  0  0  0  0  0  0  0  0
   -2.3113    0.0673   -3.1539 H   0  0  0  0  0  0  0  0  0  0  0  0
   -1.2279   -0.7249   -4.8329 C   0  0  0  0  0  0  0  0  0  0  0  0
   -2.1017   -0.7581   -5.4771 H   0  0  0  0  0  0  0  0  0  0  0  0
    0.0137   -1.1421   -5.3220 C   0  0  0  0  0  0  0  0  0  0  0  0
    0.1048   -1.5008   -6.3433 H   0  0  0  0  0  0  0  0  0  0  0  0
    1.1406   -1.0926   -4.4961 C   0  0  0  0  0  0  0  0  0  0  0  0
    2.1071   -1.4133   -4.8740 H   0  0  0  0  0  0  0  0  0  0  0  0
    1.0250   -0.6285   -3.1817 C   0  0  0  0  0  0  0  0  0  0  0  0
    1.9066   -0.5940   -2.5470 H   0  0  0  0  0  0  0  0  0  0  0  0
    0.1052   -0.3537    1.1260 C   0  0  0  0  0  0  0  0  0  0  0  0
    1.2865   -0.2672    1.4357 O   0  0  0  0  0  0  0  0  0  0  0  0
   -0.8423    0.2962    1.8966 N   0  0  0  0  0  0  0  0  0  0  0  0
   -1.8105    0.1048    1.6603 H   0  0  0  0  0  0  0  0  0  0  0  0
   -0.5407    0.8469    3.2118 C   0  0  0  0  0  0  0  0  0  0  0  0
    0.2550    1.5960    3.1418 H   0  0  0  0  0  0  0  0  0  0  0  0
   -1.4284    1.3277    3.6335 H   0  0  0  0  0  0  0  0  0  0  0  0
   -0.2174    0.0526    3.8928 H   0  0  0  0  0  0  0  0  0  0  0  0
  1  2  1  0  0  0  0
  2  3  1  0  0  0  0
  2  4  1  0  0  0  0
  2  5  1  0  0  0  0
  5  6  2  0  0  0  0
  5  7  1  0  0  0  0
  7  8  1  0  0  0  0
  7  9  1  0  0  0  0
  9 10  1  0  0  0  0
  9 11  1  0  0  0  0
  9 25  1  0  0  0  0
 11 12  1  0  0  0  0
 11 13  1  0  0  0  0
 11 14  1  0  0  0  0
 14 15  1  0  0  0  0
 14 23  2  0  0  0  0
 15 16  1  0  0  0  0
 15 17  2  0  0  0  0
 17 18  1  0  0  0  0
 17 19  1  0  0  0  0
 19 20  1  0  0  0  0
 19 21  2  0  0  0  0
 21 22  1  0  0  0  0
 21 23  1  0  0  0  0
 23 24  1  0  0  0  0
 25 26  2  0  0  0  0
 25 27  1  0  0  0  0
 27 28  1  0  0  0  0
 27 29  1  0  0  0  0
 29 30  1  0  0  0  0
 29 31  1  0  0  0  0
 29 32  1  0  0  0  0
M  END
$$$$

  -OEChem-03222214073D

 32 32  0     1  0  0  0  0  0999 V2000
   -3.1292   -4.4658    0.7661 H   0  0  0  0  0  0  0  0  0  0  0  0
   -3.0892   -3.5757    0.1316 C   0  0  0  0  0  0  0  0  0  0  0  0
   -3.9850   -2.9760    0.3092 H   0  0  0  0  0  0  0  0  0  0  0  0
   -3.0706   -3.8915   -0.9144 H   0  0  0  0  0  0  0  0  0  0  0  0
   -1.8483   -2.7631    0.4508 C   0  0  0  0  0  0  0  0  0  0  0  0
   -1.1231   -3.1016    1.3687 O   0  0  0  0  0  0  0  0  0  0  0  0
   -1.5572   -1.6414   -0.3004 N   0  0  0  0  0  0  0  0  0  0  0  0
   -2.1153   -1.5183   -1.1408 H   0  0  0  0  0  0  0  0  0  0  0  0
   -0.2666   -0.9285   -0.2504 C   0  0  1  0  0  0  0  0  0  0  0  0
    0.5327   -1.6242   -0.5250 H   0  0  0  0  0  0  0  0  0  0  0  0
   -0.3237    0.2360   -1.2549 C   0  0  0  0  0  0  0  0  0  0  0  0
   -1.2476    0.8061   -1.1135 H   0  0  0  0  0  0  0  0  0  0  0  0
    0.5092    0.9209   -1.0609 H   0  0  0  0  0  0  0  0  0  0  0  0
   -0.2007   -0.2484   -2.6816 C   0  0  0  0  0  0  0  0  0  0  0  0
   -1.2319   -0.0043   -3.6023 C   0  0  0  0  0  0  0  0  0  0  0  0
   -2.1272    0.5271   -3.2944 H   0  0  0  0  0  0  0  0  0  0  0  0
   -1.1194   -0.4378   -4.9278 C   0  0  0  0  0  0  0  0  0  0  0  0
   -1.9226   -0.2456   -5.6332 H   0  0  0  0  0  0  0  0  0  0  0  0
    0.0309   -1.1117   -5.3481 C   0  0  0  0  0  0  0  0  0  0  0  0
    0.1210   -1.4463   -6.3776 H   0  0  0  0  0  0  0  0  0  0  0  0
    1.0711   -1.3446   -4.4440 C   0  0  0  0  0  0  0  0  0  0  0  0
    1.9709   -1.8585   -4.7697 H   0  0  0  0  0  0  0  0  0  0  0  0
    0.9579   -0.9097   -3.1197 C   0  0  0  0  0  0  0  0  0  0  0  0
    1.7806   -1.0854   -2.4322 H   0  0  0  0  0  0  0  0  0  0  0  0
    0.1045   -0.3683    1.1391 C   0  0  0  0  0  0  0  0  0  0  0  0
    1.2833   -0.2861    1.4590 O   0  0  0  0  0  0  0  0  0  0  0  0
   -0.8462    0.2961    1.8931 N   0  0  0  0  0  0  0  0  0  0  0  0
   -1.8133    0.1095    1.6490 H   0  0  0  0  0  0  0  0  0  0  0  0
   -0.5540    0.8633    3.2033 C   0  0  0  0  0  0  0  0  0  0  0  0
    0.2473    1.6061    3.1298 H   0  0  0  0  0  0  0  0  0  0  0  0
   -1.4428    1.3558    3.6090 H   0  0  0  0  0  0  0  0  0  0  0  0
   -0.2428    0.0766    3.8988 H   0  0  0  0  0  0  0  0  0  0  0  0
  1  2  1  0  0  0  0
  2  3  1  0  0  0  0
  2  4  1  0  0  0  0
  2  5  1  0  0  0  0
  5  6  2  0  0  0  0
  5  7  1  0  0  0  0
  7  8  1  0  0  0  0
  7  9  1  0  0  0  0
  9 10  1  0  0  0  0
  9 11  1  0  0  0  0
  9 25  1  0  0  0  0
 11 12  1  0  0  0  0
 11 13  1  0  0  0  0
 11 14  1  0  0  0  0
 14 15  1  0  0  0  0
 14 23  2  0  0  0  0
 15 16  1  0  0  0  0
 15 17  2  0  0  0  0
 17 18  1  0  0  0  0
 17 19  1  0  0  0  0
 19 20  1  0  0  0  0
 19 21  2  0  0  0  0
 21 22  1  0  0  0  0
 21 23  1  0  0  0  0
 23 24  1  0  0  0  0
 25 26  2  0  0  0  0
 25 27  1  0  0  0  0
 27 28  1  0  0  0  0
 27 29  1  0  0  0  0
 29 30  1  0  0  0  0
 29 31  1  0  0  0  0
 29 32  1  0  0  0  0
M  END
$$$$

  -OEChem-03222214073D

 32 32  0     1  0  0  0  0  0999 V2000
   -3.1575   -4.4715    0.8289 H   0  0  0  0  0  0  0  0  0  0  0  0
   -3.1144   -3.5859    0.1884 C   0  0  0  0  0  0  0  0  0  0  0  0
   -4.0049   -2.9787    0.3670 H   0  0  0  0  0  0  0  0  0  0  0  0
   -3.1036   -3.9093   -0.8553 H   0  0  0  0  0  0  0  0  0  0  0  0
   -1.8659   -2.7798    0.4956 C   0  0  0  0  0  0  0  0  0  0  0  0
   -1.1462   -3.1098    1.4209 O   0  0  0  0  0  0  0  0  0  0  0  0
   -1.5584   -1.6764   -0.2764 N   0  0  0  0  0  0  0  0  0  0  0  0
   -2.1161   -1.5564   -1.1179 H   0  0  0  0  0  0  0  0  0  0  0  0
   -0.2629   -0.9713   -0.2281 C   0  0  1  0  0  0  0  0  0  0  0  0
    0.5343   -1.6788   -0.4715 H   0  0  0  0  0  0  0  0  0  0  0  0
   -0.3090    0.1777   -1.2548 C   0  0  0  0  0  0  0  0  0  0  0  0
   -1.2305    0.7525   -1.1168 H   0  0  0  0  0  0  0  0  0  0  0  0
    0.5264    0.8599   -1.0612 H   0  0  0  0  0  0  0  0  0  0  0  0
   -0.1833   -0.2907   -2.6905 C   0  0  0  0  0  0  0  0  0  0  0  0
   -1.0468    0.2341   -3.6657 C   0  0  0  0  0  0  0  0  0  0  0  0
   -1.8135    0.9512   -3.3882 H   0  0  0  0  0  0  0  0  0  0  0  0
   -0.9351   -0.1548   -5.0051 C   0  0  0  0  0  0  0  0  0  0  0  0
   -1.6136    0.2535   -5.7485 H   0  0  0  0  0  0  0  0  0  0  0  0
    0.0558   -1.0614   -5.3900 C   0  0  0  0  0  0  0  0  0  0  0  0
    0.1464   -1.3619   -6.4298 H   0  0  0  0  0  0  0  0  0  0  0  0
    0.9412   -1.5683   -4.4361 C   0  0  0  0  0  0  0  0  0  0  0  0
    1.7248   -2.2586   -4.7348 H   0  0  0  0  0  0  0  0  0  0  0  0
    0.8292   -1.1779   -3.0976 C   0  0  0  0  0  0  0  0  0  0  0  0
    1.5502   -1.5646   -2.3839 H   0  0  0  0  0  0  0  0  0  0  0  0
    0.0966   -0.3842    1.1538 C   0  0  0  0  0  0  0  0  0  0  0  0
    1.2715   -0.3095    1.4891 O   0  0  0  0  0  0  0  0  0  0  0  0
   -0.8569    0.3028    1.8835 N   0  0  0  0  0  0  0  0  0  0  0  0
   -1.8229    0.1255    1.6285 H   0  0  0  0  0  0  0  0  0  0  0  0
   -0.5737    0.8997    3.1826 C   0  0  0  0  0  0  0  0  0  0  0  0
    0.2367    1.6317    3.1008 H   0  0  0  0  0  0  0  0  0  0  0  0
   -1.4617    1.4117    3.5648 H   0  0  0  0  0  0  0  0  0  0  0  0
   -0.2794    0.1279    3.9014 H   0  0  0  0  0  0  0  0  0  0  0  0
  1  2  1  0  0  0  0
  2  3  1  0  0  0  0
  2  4  1  0  0  0  0
  2  5  1  0  0  0  0
  5  6  2  0  0  0  0
  5  7  1  0  0  0  0
  7  8  1  0  0  0  0
  7  9  1  0  0  0  0
  9 10  1  0  0  0  0
  9 11  1  0  0  0  0
  9 25  1  0  0  0  0
 11 12  1  0  0  0  0
 11 13  1  0  0  0  0
 11 14  1  0  0  0  0
 14 15  1  0  0  0  0
 14 23  2  0  0  0  0
 15 16  1  0  0  0  0
 15 17  2  0  0  0  0
 17 18  1  0  0  0  0
 17 19  1  0  0  0  0
 19 20  1  0  0  0  0
 19 21  2  0  0  0  0
 21 22  1  0  0  0  0
 21 23  1  0  0  0  0
 23 24  1  0  0  0  0
 25 26  2  0  0  0  0
 25 27  1  0  0  0  0
 27 28  1  0  0  0  0
 27 29  1  0  0  0  0
 29 30  1  0  0  0  0
 29 31  1  0  0  0  0
 29 32  1  0  0  0  0
M  END
$$$$

  -OEChem-03222214073D

 32 32  0     1  0  0  0  0  0999 V2000
   -3.1753   -4.4558    0.9153 H   0  0  0  0  0  0  0  0  0  0  0  0
   -3.1212   -3.5830    0.2584 C   0  0  0  0  0  0  0  0  0  0  0  0
   -3.9985   -2.9556    0.4334 H   0  0  0  0  0  0  0  0  0  0  0  0
   -3.1262   -3.9248   -0.7796 H   0  0  0  0  0  0  0  0  0  0  0  0
   -1.8553   -2.7956    0.5401 C   0  0  0  0  0  0  0  0  0  0  0  0
   -1.1323   -3.1222    1.4641 O   0  0  0  0  0  0  0  0  0  0  0  0
   -1.5360   -1.7119   -0.2543 N   0  0  0  0  0  0  0  0  0  0  0  0
   -2.1017   -1.5900   -1.0902 H   0  0  0  0  0  0  0  0  0  0  0  0
   -0.2415   -1.0058   -0.2105 C   0  0  1  0  0  0  0  0  0  0  0  0
    0.5657   -1.7111   -0.4202 H   0  0  0  0  0  0  0  0  0  0  0  0
   -0.2832    0.1243   -1.2587 C   0  0  0  0  0  0  0  0  0  0  0  0
   -1.2067    0.6976   -1.1274 H   0  0  0  0  0  0  0  0  0  0  0  0
    0.5498    0.8089   -1.0630 H   0  0  0  0  0  0  0  0  0  0  0  0
   -0.1533   -0.3251   -2.7039 C   0  0  0  0  0  0  0  0  0  0  0  0
   -0.7886    0.4393   -3.6966 C   0  0  0  0  0  0  0  0  0  0  0  0
   -1.3693    1.3147   -3.4213 H   0  0  0  0  0  0  0  0  0  0  0  0
   -0.6881    0.0936   -5.0481 C   0  0  0  0  0  0  0  0  0  0  0  0
   -1.1892    0.6943   -5.8015 H   0  0  0  0  0  0  0  0  0  0  0  0
    0.0640   -1.0191   -5.4301 C   0  0  0  0  0  0  0  0  0  0  0  0
    0.1464   -1.2879   -6.4793 H   0  0  0  0  0  0  0  0  0  0  0  0
    0.7229   -1.7766   -4.4593 C   0  0  0  0  0  0  0  0  0  0  0  0
    1.3227   -2.6330   -4.7543 H   0  0  0  0  0  0  0  0  0  0  0  0
    0.6233   -1.4285   -3.1080 C   0  0  0  0  0  0  0  0  0  0  0  0
    1.1749   -2.0291   -2.3935 H   0  0  0  0  0  0  0  0  0  0  0  0
    0.0913   -0.3885    1.1652 C   0  0  0  0  0  0  0  0  0  0  0  0
    1.2591   -0.3032    1.5217 O   0  0  0  0  0  0  0  0  0  0  0  0
   -0.8781    0.3110    1.8620 N   0  0  0  0  0  0  0  0  0  0  0  0
   -1.8385    0.1250    1.5925 H   0  0  0  0  0  0  0  0  0  0  0  0
   -0.6241    0.9295    3.1568 C   0  0  0  0  0  0  0  0  0  0  0  0
    0.1882    1.6602    3.0809 H   0  0  0  0  0  0  0  0  0  0  0  0
   -1.5208    1.4478    3.5095 H   0  0  0  0  0  0  0  0  0  0  0  0
   -0.3470    0.1696    3.8951 H   0  0  0  0  0  0  0  0  0  0  0  0
  1  2  1  0  0  0  0
  2  3  1  0  0  0  0
  2  4  1  0  0  0  0
  2  5  1  0  0  0  0
  5  6  2  0  0  0  0
  5  7  1  0  0  0  0
  7  8  1  0  0  0  0
  7  9  1  0  0  0  0
  9 10  1  0  0  0  0
  9 11  1  0  0  0  0
  9 25  1  0  0  0  0
 11 12  1  0  0  0  0
 11 13  1  0  0  0  0
 11 14  1  0  0  0  0
 14 15  1  0  0  0  0
 14 23  2  0  0  0  0
 15 16  1  0  0  0  0
 15 17  2  0  0  0  0
 17 18  1  0  0  0  0
 17 19  1  0  0  0  0
 19 20  1  0  0  0  0
 19 21  2  0  0  0  0
 21 22  1  0  0  0  0
 21 23  1  0  0  0  0
 23 24  1  0  0  0  0
 25 26  2  0  0  0  0
 25 27  1  0  0  0  0
 27 28  1  0  0  0  0
 27 29  1  0  0  0  0
 29 30  1  0  0  0  0
 29 31  1  0  0  0  0
 29 32  1  0  0  0  0
M  END
$$$$

  -OEChem-03222214073D

 32 32  0     1  0  0  0  0  0999 V2000
   -3.1574   -4.4638    0.9592 H   0  0  0  0  0  0  0  0  0  0  0  0
   -3.1113   -3.5915    0.3006 C   0  0  0  0  0  0  0  0  0  0  0  0
   -3.9834   -2.9610    0.4896 H   0  0  0  0  0  0  0  0  0  0  0  0
   -3.1344   -3.9345   -0.7367 H   0  0  0  0  0  0  0  0  0  0  0  0
   -1.8388   -2.8074    0.5615 C   0  0  0  0  0  0  0  0  0  0  0  0
   -1.1071   -3.1317    1.4790 O   0  0  0  0  0  0  0  0  0  0  0  0
   -1.5196   -1.7321   -0.2447 N   0  0  0  0  0  0  0  0  0  0  0  0
   -2.0963   -1.6042   -1.0724 H   0  0  0  0  0  0  0  0  0  0  0  0
   -0.2280   -1.0191   -0.2041 C   0  0  1  0  0  0  0  0  0  0  0  0
    0.5911   -1.7153   -0.4033 H   0  0  0  0  0  0  0  0  0  0  0  0
   -0.2661    0.1016   -1.2616 C   0  0  0  0  0  0  0  0  0  0  0  0
   -1.1925    0.6728   -1.1409 H   0  0  0  0  0  0  0  0  0  0  0  0
    0.5638    0.7891   -1.0621 H   0  0  0  0  0  0  0  0  0  0  0  0
   -0.1294   -0.3392   -2.7096 C   0  0  0  0  0  0  0  0  0  0  0  0
   -0.4772    0.5870   -3.7063 C   0  0  0  0  0  0  0  0  0  0  0  0
   -0.8209    1.5790   -3.4275 H   0  0  0  0  0  0  0  0  0  0  0  0
   -0.3831    0.2591   -5.0626 C   0  0  0  0  0  0  0  0  0  0  0  0
   -0.6541    0.9900   -5.8191 H   0  0  0  0  0  0  0  0  0  0  0  0
    0.0648   -1.0068   -5.4448 C   0  0  0  0  0  0  0  0  0  0  0  0
    0.1425   -1.2629   -6.4976 H   0  0  0  0  0  0  0  0  0  0  0  0
    0.4196   -1.9401   -4.4685 C   0  0  0  0  0  0  0  0  0  0  0  0
    0.7746   -2.9231   -4.7639 H   0  0  0  0  0  0  0  0  0  0  0  0
    0.3255   -1.6113   -3.1118 C   0  0  0  0  0  0  0  0  0  0  0  0
    0.6183   -2.3695   -2.3945 H   0  0  0  0  0  0  0  0  0  0  0  0
    0.0892   -0.3851    1.1681 C   0  0  0  0  0  0  0  0  0  0  0  0
    1.2521   -0.2932    1.5383 O   0  0  0  0  0  0  0  0  0  0  0  0
   -0.8908    0.3158    1.8482 N   0  0  0  0  0  0  0  0  0  0  0  0
   -1.8475    0.1285    1.5668 H   0  0  0  0  0  0  0  0  0  0  0  0
   -0.6523    0.9523    3.1373 C   0  0  0  0  0  0  0  0  0  0  0  0
    0.1581    1.6849    3.0597 H   0  0  0  0  0  0  0  0  0  0  0  0
   -1.5537    1.4721    3.4752 H   0  0  0  0  0  0  0  0  0  0  0  0
   -0.3793    0.2030    3.8879 H   0  0  0  0  0  0  0  0  0  0  0  0
  1  2  1  0  0  0  0
  2  3  1  0  0  0  0
  2  4  1  0  0  0  0
  2  5  1  0  0  0  0
  5  6  2  0  0  0  0
  5  7  1  0  0  0  0
  7  8  1  0  0  0  0
  7  9  1  0  0  0  0
  9 10  1  0  0  0  0
  9 11  1  0  0  0  0
  9 25  1  0  0  0  0
 11 12  1  0  0  0  0
 11 13  1  0  0  0  0
 11 14  1  0  0  0  0
 14 15  1  0  0  0  0
 14 23  2  0  0  0  0
 15 16  1  0  0  0  0
 15 17  2  0  0  0  0
 17 18  1  0  0  0  0
 17 19  1  0  0  0  0
 19 20  1  0  0  0  0
 19 21  2  0  0  0  0
 21 22  1  0  0  0  0
 21 23  1  0  0  0  0
 23 24  1  0  0  0  0
 25 26  2  0  0  0  0
 25 27  1  0  0  0  0
 27 28  1  0  0  0  0
 27 29  1  0  0  0  0
 29 30  1  0  0  0  0
 29 31  1  0  0  0  0
 29 32  1  0  0  0  0
M  END
$$$$

  -OEChem-03222214073D

 32 32  0     1  0  0  0  0  0999 V2000
   -3.1853   -4.4653    1.0767 H   0  0  0  0  0  0  0  0  0  0  0  0
   -3.1529   -3.6053    0.4014 C   0  0  0  0  0  0  0  0  0  0  0  0
   -4.0085   -2.9592    0.6122 H   0  0  0  0  0  0  0  0  0  0  0  0
   -3.2206   -3.9652   -0.6281 H   0  0  0  0  0  0  0  0  0  0  0  0
   -1.8607   -2.8351    0.5988 C   0  0  0  0  0  0  0  0  0  0  0  0
   -1.0735   -3.1804    1.4610 O   0  0  0  0  0  0  0  0  0  0  0  0
   -1.5840   -1.7472   -0.2049 N   0  0  0  0  0  0  0  0  0  0  0  0
   -2.2265   -1.5730   -0.9739 H   0  0  0  0  0  0  0  0  0  0  0  0
   -0.3020   -1.0137   -0.2100 C   0  0  1  0  0  0  0  0  0  0  0  0
    0.5016   -1.7154   -0.4593 H   0  0  0  0  0  0  0  0  0  0  0  0
   -0.3472    0.0878   -1.2860 C   0  0  0  0  0  0  0  0  0  0  0  0
   -1.1367    0.7996   -1.0233 H   0  0  0  0  0  0  0  0  0  0  0  0
    0.6034    0.6316   -1.2508 H   0  0  0  0  0  0  0  0  0  0  0  0
   -0.5666   -0.3632   -2.7221 C   0  0  0  0  0  0  0  0  0  0  0  0
   -0.6134    0.6306   -3.7126 C   0  0  0  0  0  0  0  0  0  0  0  0
   -0.5296    1.6766   -3.4320 H   0  0  0  0  0  0  0  0  0  0  0  0
   -0.7726    0.3004   -5.0623 C   0  0  0  0  0  0  0  0  0  0  0  0
   -0.8165    1.0853   -5.8119 H   0  0  0  0  0  0  0  0  0  0  0  0
   -0.8665   -1.0385   -5.4467 C   0  0  0  0  0  0  0  0  0  0  0  0
   -0.9852   -1.2973   -6.4950 H   0  0  0  0  0  0  0  0  0  0  0  0
   -0.7869   -2.0438   -4.4806 C   0  0  0  0  0  0  0  0  0  0  0  0
   -0.8344   -3.0866   -4.7805 H   0  0  0  0  0  0  0  0  0  0  0  0
   -0.6276   -1.7112   -3.1309 C   0  0  0  0  0  0  0  0  0  0  0  0
   -0.5315   -2.5259   -2.4213 H   0  0  0  0  0  0  0  0  0  0  0  0
    0.0779   -0.3814    1.1459 C   0  0  0  0  0  0  0  0  0  0  0  0
    1.2575   -0.2674    1.4510 O   0  0  0  0  0  0  0  0  0  0  0  0
   -0.8753    0.3043    1.8776 N   0  0  0  0  0  0  0  0  0  0  0  0
   -1.8427    0.1069    1.6439 H   0  0  0  0  0  0  0  0  0  0  0  0
   -0.5807    0.9512    3.1500 C   0  0  0  0  0  0  0  0  0  0  0  0
    0.2094    1.6997    3.0274 H   0  0  0  0  0  0  0  0  0  0  0  0
   -1.4732    1.4544    3.5336 H   0  0  0  0  0  0  0  0  0  0  0  0
   -0.2536    0.2113    3.8881 H   0  0  0  0  0  0  0  0  0  0  0  0
  1  2  1  0  0  0  0
  2  3  1  0  0  0  0
  2  4  1  0  0  0  0
  2  5  1  0  0  0  0
  5  6  2  0  0  0  0
  5  7  1  0  0  0  0
  7  8  1  0  0  0  0
  7  9  1  0  0  0  0
  9 10  1  0  0  0  0
  9 11  1  0  0  0  0
  9 25  1  0  0  0  0
 11 12  1  0  0  0  0
 11 13  1  0  0  0  0
 11 14  1  0  0  0  0
 14 15  1  0  0  0  0
 14 23  2  0  0  0  0
 15 16  1  0  0  0  0
 15 17  2  0  0  0  0
 17 18  1  0  0  0  0
 17 19  1  0  0  0  0
 19 20  1  0  0  0  0
 19 21  2  0  0  0  0
 21 22  1  0  0  0  0
 21 23  1  0  0  0  0
 23 24  1  0  0  0  0
 25 26  2  0  0  0  0
 25 27  1  0  0  0  0
 27 28  1  0  0  0  0
 27 29  1  0  0  0  0
 29 30  1  0  0  0  0
 29 31  1  0  0  0  0
 29 32  1  0  0  0  0
M  END
$$$$

  -OEChem-03222214073D

 32 32  0     1  0  0  0  0  0999 V2000
   -3.1898   -4.4557    1.2035 H   0  0  0  0  0  0  0  0  0  0  0  0
   -3.1717   -3.6070    0.5136 C   0  0  0  0  0  0  0  0  0  0  0  0
   -4.0072   -2.9437    0.7499 H   0  0  0  0  0  0  0  0  0  0  0  0
   -3.2885   -3.9819   -0.5061 H   0  0  0  0  0  0  0  0  0  0  0  0
   -1.8601   -2.8558    0.6440 C   0  0  0  0  0  0  0  0  0  0  0  0
   -1.0376   -3.2089    1.4692 O   0  0  0  0  0  0  0  0  0  0  0  0
   -1.6084   -1.7729   -0.1749 N   0  0  0  0  0  0  0  0  0  0  0  0
   -2.2994   -1.5656   -0.8914 H   0  0  0  0  0  0  0  0  0  0  0  0
   -0.3331   -1.0296   -0.2143 C   0  0  1  0  0  0  0  0  0  0  0  0
    0.4646   -1.7365   -0.4690 H   0  0  0  0  0  0  0  0  0  0  0  0
   -0.3725    0.0596   -1.3054 C   0  0  0  0  0  0  0  0  0  0  0  0
   -1.1582    0.7770   -1.0474 H   0  0  0  0  0  0  0  0  0  0  0  0
    0.5812    0.5980   -1.2631 H   0  0  0  0  0  0  0  0  0  0  0  0
   -0.5914   -0.3730   -2.7500 C   0  0  0  0  0  0  0  0  0  0  0  0
   -0.3075    0.5771   -3.7453 C   0  0  0  0  0  0  0  0  0  0  0  0
    0.0091    1.5768   -3.4620 H   0  0  0  0  0  0  0  0  0  0  0  0
   -0.4331    0.2688   -5.1035 C   0  0  0  0  0  0  0  0  0  0  0  0
   -0.2205    1.0249   -5.8540 H   0  0  0  0  0  0  0  0  0  0  0  0
   -0.8231   -1.0128   -5.4944 C   0  0  0  0  0  0  0  0  0  0  0  0
   -0.9164   -1.2562   -6.5489 H   0  0  0  0  0  0  0  0  0  0  0  0
   -1.0709   -1.9855   -4.5243 C   0  0  0  0  0  0  0  0  0  0  0  0
   -1.3453   -2.9917   -4.8277 H   0  0  0  0  0  0  0  0  0  0  0  0
   -0.9449   -1.6742   -3.1656 C   0  0  0  0  0  0  0  0  0  0  0  0
   -1.0985   -2.4829   -2.4625 H   0  0  0  0  0  0  0  0  0  0  0  0
    0.0670   -0.3838    1.1292 C   0  0  0  0  0  0  0  0  0  0  0  0
    1.2508   -0.2588    1.4132 O   0  0  0  0  0  0  0  0  0  0  0  0
   -0.8779    0.2994    1.8740 N   0  0  0  0  0  0  0  0  0  0  0  0
   -1.8483    0.0976    1.6575 H   0  0  0  0  0  0  0  0  0  0  0  0
   -0.5639    0.9550    3.1372 C   0  0  0  0  0  0  0  0  0  0  0  0
    0.2216    1.7049    2.9967 H   0  0  0  0  0  0  0  0  0  0  0  0
   -1.4512    1.4580    3.5330 H   0  0  0  0  0  0  0  0  0  0  0  0
   -0.2218    0.2204    3.8735 H   0  0  0  0  0  0  0  0  0  0  0  0
  1  2  1  0  0  0  0
  2  3  1  0  0  0  0
  2  4  1  0  0  0  0
  2  5  1  0  0  0  0
  5  6  2  0  0  0  0
  5  7  1  0  0  0  0
  7  8  1  0  0  0  0
  7  9  1  0  0  0  0
  9 10  1  0  0  0  0
  9 11  1  0  0  0  0
  9 25  1  0  0  0  0
 11 12  1  0  0  0  0
 11 13  1  0  0  0  0
 11 14  1  0  0  0  0
 14 15  1  0  0  0  0
 14 23  2  0  0  0  0
 15 16  1  0  0  0  0
 15 17  2  0  0  0  0
 17 18  1  0  0  0  0
 17 19  1  0  0  0  0
 19 20  1  0  0  0  0
 19 21  2  0  0  0  0
 21 22  1  0  0  0  0
 21 23  1  0  0  0  0
 23 24  1  0  0  0  0
 25 26  2  0  0  0  0
 25 27  1  0  0  0  0
 27 28  1  0  0  0  0
 27 29  1  0  0  0  0
 29 30  1  0  0  0  0
 29 31  1  0  0  0  0
 29 32  1  0  0  0  0
M  END
$$$$

  -OEChem-03222214073D

 32 32  0     1  0  0  0  0  0999 V2000
   -3.1526   -4.4601    1.3082 H   0  0  0  0  0  0  0  0  0  0  0  0
   -3.1549   -3.6217    0.6054 C   0  0  0  0  0  0  0  0  0  0  0  0
   -3.9741   -2.9471    0.8658 H   0  0  0  0  0  0  0  0  0  0  0  0
   -3.3166   -4.0103   -0.4030 H   0  0  0  0  0  0  0  0  0  0  0  0
   -1.8314   -2.8826    0.6714 C   0  0  0  0  0  0  0  0  0  0  0  0
   -0.9747   -3.2423    1.4580 O   0  0  0  0  0  0  0  0  0  0  0  0
   -1.6101   -1.7995   -0.1567 N   0  0  0  0  0  0  0  0  0  0  0  0
   -2.3485   -1.5566   -0.8108 H   0  0  0  0  0  0  0  0  0  0  0  0
   -0.3487   -1.0372   -0.2221 C   0  0  1  0  0  0  0  0  0  0  0  0
    0.4507   -1.7431   -0.4747 H   0  0  0  0  0  0  0  0  0  0  0  0
   -0.3759    0.0451   -1.3240 C   0  0  0  0  0  0  0  0  0  0  0  0
   -1.1648    0.7624   -1.0775 H   0  0  0  0  0  0  0  0  0  0  0  0
    0.5761    0.5849   -1.2627 H   0  0  0  0  0  0  0  0  0  0  0  0
   -0.5813   -0.3790   -2.7763 C   0  0  0  0  0  0  0  0  0  0  0  0
    0.0139    0.4315   -3.7601 C   0  0  0  0  0  0  0  0  0  0  0  0
    0.5765    1.3140   -3.4693 H   0  0  0  0  0  0  0  0  0  0  0  0
   -0.1023    0.1338   -5.1212 C   0  0  0  0  0  0  0  0  0  0  0  0
    0.3639    0.7792   -5.8599 H   0  0  0  0  0  0  0  0  0  0  0  0
   -0.8131   -0.9944   -5.5296 C   0  0  0  0  0  0  0  0  0  0  0  0
   -0.9010   -1.2308   -6.5860 H   0  0  0  0  0  0  0  0  0  0  0  0
   -1.4021   -1.8222   -4.5731 C   0  0  0  0  0  0  0  0  0  0  0  0
   -1.9454   -2.7077   -4.8896 H   0  0  0  0  0  0  0  0  0  0  0  0
   -1.2868   -1.5214   -3.2109 C   0  0  0  0  0  0  0  0  0  0  0  0
   -1.7487   -2.2185   -2.5273 H   0  0  0  0  0  0  0  0  0  0  0  0
    0.0577   -0.3812    1.1155 C   0  0  0  0  0  0  0  0  0  0  0  0
    1.2427   -0.2405    1.3873 O   0  0  0  0  0  0  0  0  0  0  0  0
   -0.8876    0.2883    1.8728 N   0  0  0  0  0  0  0  0  0  0  0  0
   -1.8585    0.0823    1.6631 H   0  0  0  0  0  0  0  0  0  0  0  0
   -0.5674    0.9471    3.1330 C   0  0  0  0  0  0  0  0  0  0  0  0
    0.2019    1.7119    2.9828 H   0  0  0  0  0  0  0  0  0  0  0  0
   -1.4582    1.4321    3.5432 H   0  0  0  0  0  0  0  0  0  0  0  0
   -0.2007    0.2171    3.8624 H   0  0  0  0  0  0  0  0  0  0  0  0
  1  2  1  0  0  0  0
  2  3  1  0  0  0  0
  2  4  1  0  0  0  0
  2  5  1  0  0  0  0
  5  6  2  0  0  0  0
  5  7  1  0  0  0  0
  7  8  1  0  0  0  0
  7  9  1  0  0  0  0
  9 10  1  0  0  0  0
  9 11  1  0  0  0  0
  9 25  1  0  0  0  0
 11 12  1  0  0  0  0
 11 13  1  0  0  0  0
 11 14  1  0  0  0  0
 14 15  1  0  0  0  0
 14 23  2  0  0  0  0
 15 16  1  0  0  0  0
 15 17  2  0  0  0  0
 17 18  1  0  0  0  0
 17 19  1  0  0  0  0
 19 20  1  0  0  0  0
 19 21  2  0  0  0  0
 21 22  1  0  0  0  0
 21 23  1  0  0  0  0
 23 24  1  0  0  0  0
 25 26  2  0  0  0  0
 25 27  1  0  0  0  0
 27 28  1  0  0  0  0
 27 29  1  0  0  0  0
 29 30  1  0  0  0  0
 29 31  1  0  0  0  0
 29 32  1  0  0  0  0
M  END
$$$$

  -OEChem-03222214073D

 32 32  0     1  0  0  0  0  0999 V2000
   -3.1052   -4.4892    1.2893 H   0  0  0  0  0  0  0  0  0  0  0  0
   -3.1217   -3.6440    0.5952 C   0  0  0  0  0  0  0  0  0  0  0  0
   -3.9391   -2.9754    0.8750 H   0  0  0  0  0  0  0  0  0  0  0  0
   -3.2975   -4.0231   -0.4143 H   0  0  0  0  0  0  0  0  0  0  0  0
   -1.8003   -2.9000    0.6472 C   0  0  0  0  0  0  0  0  0  0  0  0
   -0.9287   -3.2648    1.4152 O   0  0  0  0  0  0  0  0  0  0  0  0
   -1.6002   -1.8040   -0.1693 N   0  0  0  0  0  0  0  0  0  0  0  0
   -2.3617   -1.5401   -0.7849 H   0  0  0  0  0  0  0  0  0  0  0  0
   -0.3497   -1.0260   -0.2337 C   0  0  1  0  0  0  0  0  0  0  0  0
    0.4534   -1.7256   -0.4922 H   0  0  0  0  0  0  0  0  0  0  0  0
   -0.3662    0.0691   -1.3245 C   0  0  0  0  0  0  0  0  0  0  0  0
   -1.1611    0.7827   -1.0860 H   0  0  0  0  0  0  0  0  0  0  0  0
    0.5811    0.6152   -1.2517 H   0  0  0  0  0  0  0  0  0  0  0  0
   -0.5605   -0.3761   -2.7700 C   0  0  0  0  0  0  0  0  0  0  0  0
    0.2807    0.1933   -3.7432 C   0  0  0  0  0  0  0  0  0  0  0  0
    1.0593    0.8918   -3.4503 H   0  0  0  0  0  0  0  0  0  0  0  0
    0.1495   -0.1276   -5.0977 C   0  0  0  0  0  0  0  0  0  0  0  0
    0.8203    0.3162   -5.8278 H   0  0  0  0  0  0  0  0  0  0  0  0
   -0.8427   -1.0168   -5.5108 C   0  0  0  0  0  0  0  0  0  0  0  0
   -0.9447   -1.2693   -6.5622 H   0  0  0  0  0  0  0  0  0  0  0  0
   -1.7069   -1.5738   -4.5670 C   0  0  0  0  0  0  0  0  0  0  0  0
   -2.4862   -2.2581   -4.8894 H   0  0  0  0  0  0  0  0  0  0  0  0
   -1.5749   -1.2497   -3.2117 C   0  0  0  0  0  0  0  0  0  0  0  0
   -2.2895   -1.6933   -2.5343 H   0  0  0  0  0  0  0  0  0  0  0  0
    0.0551   -0.3833    1.1104 C   0  0  0  0  0  0  0  0  0  0  0  0
    1.2392   -0.2227    1.3745 O   0  0  0  0  0  0  0  0  0  0  0  0
   -0.8959    0.2630    1.8804 N   0  0  0  0  0  0  0  0  0  0  0  0
   -1.8650    0.0441    1.6763 H   0  0  0  0  0  0  0  0  0  0  0  0
   -0.5774    0.9280    3.1377 C   0  0  0  0  0  0  0  0  0  0  0  0
    0.1758    1.7072    2.9804 H   0  0  0  0  0  0  0  0  0  0  0  0
   -1.4735    1.3966    3.5553 H   0  0  0  0  0  0  0  0  0  0  0  0
   -0.1907    0.2058    3.8643 H   0  0  0  0  0  0  0  0  0  0  0  0
  1  2  1  0  0  0  0
  2  3  1  0  0  0  0
  2  4  1  0  0  0  0
  2  5  1  0  0  0  0
  5  6  2  0  0  0  0
  5  7  1  0  0  0  0
  7  8  1  0  0  0  0
  7  9  1  0  0  0  0
  9 10  1  0  0  0  0
  9 11  1  0  0  0  0
  9 25  1  0  0  0  0
 11 12  1  0  0  0  0
 11 13  1  0  0  0  0
 11 14  1  0  0  0  0
 14 15  1  0  0  0  0
 14 23  2  0  0  0  0
 15 16  1  0  0  0  0
 15 17  2  0  0  0  0
 17 18  1  0  0  0  0
 17 19  1  0  0  0  0
 19 20  1  0  0  0  0
 19 21  2  0  0  0  0
 21 22  1  0  0  0  0
 21 23  1  0  0  0  0
 23 24  1  0  0  0  0
 25 26  2  0  0  0  0
 25 27  1  0  0  0  0
 27 28  1  0  0  0  0
 27 29  1  0  0  0  0
 29 30  1  0  0  0  0
 29 31  1  0  0  0  0
 29 32  1  0  0  0  0
M  END
$$$$

  -OEChem-03222214073D

 32 32  0     1  0  0  0  0  0999 V2000
   -3.0510   -4.5610    1.1064 H   0  0  0  0  0  0  0  0  0  0  0  0
   -3.0638   -3.7089    0.4208 C   0  0  0  0  0  0  0  0  0  0  0  0
   -3.9693   -3.1251    0.6025 H   0  0  0  0  0  0  0  0  0  0  0  0
   -3.0789   -4.0857   -0.6047 H   0  0  0  0  0  0  0  0  0  0  0  0
   -1.8355   -2.8454    0.6397 C   0  0  0  0  0  0  0  0  0  0  0  0
   -1.0623   -3.1147    1.5409 O   0  0  0  0  0  0  0  0  0  0  0  0
   -1.6118   -1.7565   -0.1809 N   0  0  0  0  0  0  0  0  0  0  0  0
   -2.2096   -1.6954   -0.9966 H   0  0  0  0  0  0  0  0  0  0  0  0
   -0.3415   -1.0067   -0.2225 C   0  0  1  0  0  0  0  0  0  0  0  0
    0.4529   -1.7162   -0.4796 H   0  0  0  0  0  0  0  0  0  0  0  0
   -0.3405    0.1070   -1.2936 C   0  0  0  0  0  0  0  0  0  0  0  0
   -1.1247    0.8320   -1.0536 H   0  0  0  0  0  0  0  0  0  0  0  0
    0.6144    0.6413   -1.2328 H   0  0  0  0  0  0  0  0  0  0  0  0
   -0.5528   -0.3739   -2.7181 C   0  0  0  0  0  0  0  0  0  0  0  0
    0.4473   -0.1299   -3.6743 C   0  0  0  0  0  0  0  0  0  0  0  0
    1.3867    0.3274   -3.3768 H   0  0  0  0  0  0  0  0  0  0  0  0
    0.2677   -0.4889   -5.0139 C   0  0  0  0  0  0  0  0  0  0  0  0
    1.0633   -0.3146   -5.7326 H   0  0  0  0  0  0  0  0  0  0  0  0
   -0.9351   -1.0647   -5.4276 C   0  0  0  0  0  0  0  0  0  0  0  0
   -1.0764   -1.3411   -6.4685 H   0  0  0  0  0  0  0  0  0  0  0  0
   -1.9631   -1.2607   -4.5029 C   0  0  0  0  0  0  0  0  0  0  0  0
   -2.9108   -1.6771   -4.8317 H   0  0  0  0  0  0  0  0  0  0  0  0
   -1.7797   -0.9021   -3.1626 C   0  0  0  0  0  0  0  0  0  0  0  0
   -2.6206   -1.0114   -2.4891 H   0  0  0  0  0  0  0  0  0  0  0  0
    0.0604   -0.3692    1.1255 C   0  0  0  0  0  0  0  0  0  0  0  0
    1.2457   -0.2341    1.4003 O   0  0  0  0  0  0  0  0  0  0  0  0
   -0.8848    0.3023    1.8803 N   0  0  0  0  0  0  0  0  0  0  0  0
   -1.8538    0.0796    1.6772 H   0  0  0  0  0  0  0  0  0  0  0  0
   -0.5661    0.9454    3.1486 C   0  0  0  0  0  0  0  0  0  0  0  0
    0.1854    1.7281    3.0024 H   0  0  0  0  0  0  0  0  0  0  0  0
   -1.4627    1.4045    3.5755 H   0  0  0  0  0  0  0  0  0  0  0  0
   -0.1769    0.2117    3.8624 H   0  0  0  0  0  0  0  0  0  0  0  0
  1  2  1  0  0  0  0
  2  3  1  0  0  0  0
  2  4  1  0  0  0  0
  2  5  1  0  0  0  0
  5  6  2  0  0  0  0
  5  7  1  0  0  0  0
  7  8  1  0  0  0  0
  7  9  1  0  0  0  0
  9 10  1  0  0  0  0
  9 11  1  0  0  0  0
  9 25  1  0  0  0  0
 11 12  1  0  0  0  0
 11 13  1  0  0  0  0
 11 14  1  0  0  0  0
 14 15  1  0  0  0  0
 14 23  2  0  0  0  0
 15 16  1  0  0  0  0
 15 17  2  0  0  0  0
 17 18  1  0  0  0  0
 17 19  1  0  0  0  0
 19 20  1  0  0  0  0
 19 21  2  0  0  0  0
 21 22  1  0  0  0  0
 21 23  1  0  0  0  0
 23 24  1  0  0  0  0
 25 26  2  0  0  0  0
 25 27  1  0  0  0  0
 27 28  1  0  0  0  0
 27 29  1  0  0  0  0
 29 30  1  0  0  0  0
 29 31  1  0  0  0  0
 29 32  1  0  0  0  0
M  END
$$$$

  -OEChem-03222214073D

 32 32  0     1  0  0  0  0  0999 V2000
   -3.0614   -4.5495    0.9341 H   0  0  0  0  0  0  0  0  0  0  0  0
   -3.0652   -3.6706    0.2832 C   0  0  0  0  0  0  0  0  0  0  0  0
   -3.9799   -3.1014    0.4653 H   0  0  0  0  0  0  0  0  0  0  0  0
   -3.0518   -4.0054   -0.7567 H   0  0  0  0  0  0  0  0  0  0  0  0
   -1.8508   -2.8061    0.5660 C   0  0  0  0  0  0  0  0  0  0  0  0
   -1.1104   -3.0883    1.4907 O   0  0  0  0  0  0  0  0  0  0  0  0
   -1.6036   -1.7020   -0.2266 N   0  0  0  0  0  0  0  0  0  0  0  0
   -2.1620   -1.6443   -1.0722 H   0  0  0  0  0  0  0  0  0  0  0  0
   -0.3237   -0.9672   -0.2331 C   0  0  1  0  0  0  0  0  0  0  0  0
    0.4694   -1.6717   -0.5079 H   0  0  0  0  0  0  0  0  0  0  0  0
   -0.3427    0.1673   -1.2764 C   0  0  0  0  0  0  0  0  0  0  0  0
   -1.1275    0.8863   -1.0200 H   0  0  0  0  0  0  0  0  0  0  0  0
    0.6106    0.7060   -1.2331 H   0  0  0  0  0  0  0  0  0  0  0  0
   -0.5704   -0.3360   -2.6857 C   0  0  0  0  0  0  0  0  0  0  0  0
    0.5014   -0.3924   -3.5895 C   0  0  0  0  0  0  0  0  0  0  0  0
    1.5029   -0.1237   -3.2649 H   0  0  0  0  0  0  0  0  0  0  0  0
    0.3007   -0.8095   -4.9095 C   0  0  0  0  0  0  0  0  0  0  0  0
    1.1421   -0.8637   -5.5943 H   0  0  0  0  0  0  0  0  0  0  0  0
   -0.9814   -1.1511   -5.3481 C   0  0  0  0  0  0  0  0  0  0  0  0
   -1.1367   -1.4725   -6.3740 H   0  0  0  0  0  0  0  0  0  0  0  0
   -2.0643   -1.0611   -4.4693 C   0  0  0  0  0  0  0  0  0  0  0  0
   -3.0642   -1.3037   -4.8175 H   0  0  0  0  0  0  0  0  0  0  0  0
   -1.8614   -0.6433   -3.1496 C   0  0  0  0  0  0  0  0  0  0  0  0
   -2.7204   -0.5380   -2.4954 H   0  0  0  0  0  0  0  0  0  0  0  0
    0.0760   -0.3616    1.1296 C   0  0  0  0  0  0  0  0  0  0  0  0
    1.2611   -0.2501    1.4159 O   0  0  0  0  0  0  0  0  0  0  0  0
   -0.8661    0.3084    1.8893 N   0  0  0  0  0  0  0  0  0  0  0  0
   -1.8355    0.0970    1.6758 H   0  0  0  0  0  0  0  0  0  0  0  0
   -0.5519    0.9117    3.1782 C   0  0  0  0  0  0  0  0  0  0  0  0
    0.2366    1.6635    3.0686 H   0  0  0  0  0  0  0  0  0  0  0  0
   -1.4381    1.4018    3.5921 H   0  0  0  0  0  0  0  0  0  0  0  0
   -0.2141    0.1469    3.8854 H   0  0  0  0  0  0  0  0  0  0  0  0
  1  2  1  0  0  0  0
  2  3  1  0  0  0  0
  2  4  1  0  0  0  0
  2  5  1  0  0  0  0
  5  6  2  0  0  0  0
  5  7  1  0  0  0  0
  7  8  1  0  0  0  0
  7  9  1  0  0  0  0
  9 10  1  0  0  0  0
  9 11  1  0  0  0  0
  9 25  1  0  0  0  0
 11 12  1  0  0  0  0
 11 13  1  0  0  0  0
 11 14  1  0  0  0  0
 14 15  1  0  0  0  0
 14 23  2  0  0  0  0
 15 16  1  0  0  0  0
 15 17  2  0  0  0  0
 17 18  1  0  0  0  0
 17 19  1  0  0  0  0
 19 20  1  0  0  0  0
 19 21  2  0  0  0  0
 21 22  1  0  0  0  0
 21 23  1  0  0  0  0
 23 24  1  0  0  0  0
 25 26  2  0  0  0  0
 25 27  1  0  0  0  0
 27 28  1  0  0  0  0
 27 29  1  0  0  0  0
 29 30  1  0  0  0  0
 29 31  1  0  0  0  0
 29 32  1  0  0  0  0
M  END
$$$$

  -OEChem-03222214073D

 32 32  0     1  0  0  0  0  0999 V2000
   -3.1006   -4.5068    0.8433 H   0  0  0  0  0  0  0  0  0  0  0  0
   -3.0839   -3.6215    0.2011 C   0  0  0  0  0  0  0  0  0  0  0  0
   -3.9902   -3.0383    0.3813 H   0  0  0  0  0  0  0  0  0  0  0  0
   -3.0670   -3.9457   -0.8423 H   0  0  0  0  0  0  0  0  0  0  0  0
   -1.8577   -2.7806    0.5028 C   0  0  0  0  0  0  0  0  0  0  0  0
   -1.1215   -3.0922    1.4216 O   0  0  0  0  0  0  0  0  0  0  0  0
   -1.5949   -1.6627   -0.2642 N   0  0  0  0  0  0  0  0  0  0  0  0
   -2.1517   -1.5740   -1.1097 H   0  0  0  0  0  0  0  0  0  0  0  0
   -0.3096   -0.9379   -0.2465 C   0  0  1  0  0  0  0  0  0  0  0  0
    0.4822   -1.6375   -0.5366 H   0  0  0  0  0  0  0  0  0  0  0  0
   -0.3455    0.2120   -1.2676 C   0  0  0  0  0  0  0  0  0  0  0  0
   -1.1299    0.9257   -0.9951 H   0  0  0  0  0  0  0  0  0  0  0  0
    0.6066    0.7533   -1.2365 H   0  0  0  0  0  0  0  0  0  0  0  0
   -0.5829   -0.2990   -2.6694 C   0  0  0  0  0  0  0  0  0  0  0  0
    0.5026   -0.6472   -3.4860 C   0  0  0  0  0  0  0  0  0  0  0  0
    1.5175   -0.5667   -3.1063 H   0  0  0  0  0  0  0  0  0  0  0  0
    0.2911   -1.1096   -4.7892 C   0  0  0  0  0  0  0  0  0  0  0  0
    1.1387   -1.3834   -5.4108 H   0  0  0  0  0  0  0  0  0  0  0  0
   -1.0094   -1.2156   -5.2916 C   0  0  0  0  0  0  0  0  0  0  0  0
   -1.1723   -1.5723   -6.3047 H   0  0  0  0  0  0  0  0  0  0  0  0
   -2.0975   -0.8533   -4.4919 C   0  0  0  0  0  0  0  0  0  0  0  0
   -3.1067   -0.9236   -4.8873 H   0  0  0  0  0  0  0  0  0  0  0  0
   -1.8845   -0.3915   -3.1887 C   0  0  0  0  0  0  0  0  0  0  0  0
   -2.7365   -0.0932   -2.5855 H   0  0  0  0  0  0  0  0  0  0  0  0
    0.0893   -0.3616    1.1283 C   0  0  0  0  0  0  0  0  0  0  0  0
    1.2742   -0.2645    1.4202 O   0  0  0  0  0  0  0  0  0  0  0  0
   -0.8509    0.3019    1.8964 N   0  0  0  0  0  0  0  0  0  0  0  0
   -1.8211    0.1012    1.6757 H   0  0  0  0  0  0  0  0  0  0  0  0
   -0.5371    0.8793    3.1970 C   0  0  0  0  0  0  0  0  0  0  0  0
    0.2604    1.6241    3.1043 H   0  0  0  0  0  0  0  0  0  0  0  0
   -1.4202    1.3720    3.6147 H   0  0  0  0  0  0  0  0  0  0  0  0
   -0.2118    0.0985    3.8926 H   0  0  0  0  0  0  0  0  0  0  0  0
  1  2  1  0  0  0  0
  2  3  1  0  0  0  0
  2  4  1  0  0  0  0
  2  5  1  0  0  0  0
  5  6  2  0  0  0  0
  5  7  1  0  0  0  0
  7  8  1  0  0  0  0
  7  9  1  0  0  0  0
  9 10  1  0  0  0  0
  9 11  1  0  0  0  0
  9 25  1  0  0  0  0
 11 12  1  0  0  0  0
 11 13  1  0  0  0  0
 11 14  1  0  0  0  0
 14 15  1  0  0  0  0
 14 23  2  0  0  0  0
 15 16  1  0  0  0  0
 15 17  2  0  0  0  0
 17 18  1  0  0  0  0
 17 19  1  0  0  0  0
 19 20  1  0  0  0  0
 19 21  2  0  0  0  0
 21 22  1  0  0  0  0
 21 23  1  0  0  0  0
 23 24  1  0  0  0  0
 25 26  2  0  0  0  0
 25 27  1  0  0  0  0
 27 28  1  0  0  0  0
 27 29  1  0  0  0  0
 29 30  1  0  0  0  0
 29 31  1  0  0  0  0
 29 32  1  0  0  0  0
M  END
$$$$

  -OEChem-03222214073D

 32 32  0     1  0  0  0  0  0999 V2000
   -3.1189   -4.4915    0.7854 H   0  0  0  0  0  0  0  0  0  0  0  0
   -3.0955   -3.5997    0.1526 C   0  0  0  0  0  0  0  0  0  0  0  0
   -4.0019   -3.0168    0.3317 H   0  0  0  0  0  0  0  0  0  0  0  0
   -3.0723   -3.9131   -0.8939 H   0  0  0  0  0  0  0  0  0  0  0  0
   -1.8687   -2.7658    0.4715 C   0  0  0  0  0  0  0  0  0  0  0  0
   -1.1375   -3.0913    1.3895 O   0  0  0  0  0  0  0  0  0  0  0  0
   -1.5952   -1.6414   -0.2820 N   0  0  0  0  0  0  0  0  0  0  0  0
   -2.1515   -1.5343   -1.1264 H   0  0  0  0  0  0  0  0  0  0  0  0
   -0.3054   -0.9247   -0.2498 C   0  0  1  0  0  0  0  0  0  0  0  0
    0.4840   -1.6252   -0.5433 H   0  0  0  0  0  0  0  0  0  0  0  0
   -0.3472    0.2321   -1.2618 C   0  0  0  0  0  0  0  0  0  0  0  0
   -1.1284    0.9449   -0.9788 H   0  0  0  0  0  0  0  0  0  0  0  0
    0.6069    0.7703   -1.2369 H   0  0  0  0  0  0  0  0  0  0  0  0
   -0.5878   -0.2762   -2.6634 C   0  0  0  0  0  0  0  0  0  0  0  0
    0.4438   -0.9084   -3.3723 C   0  0  0  0  0  0  0  0  0  0  0  0
    1.4233   -1.0268   -2.9169 H   0  0  0  0  0  0  0  0  0  0  0  0
    0.2219   -1.3940   -4.6651 C   0  0  0  0  0  0  0  0  0  0  0  0
    1.0267   -1.8846   -5.2051 H   0  0  0  0  0  0  0  0  0  0  0  0
   -1.0335   -1.2454   -5.2623 C   0  0  0  0  0  0  0  0  0  0  0  0
   -1.2042   -1.6192   -6.2677 H   0  0  0  0  0  0  0  0  0  0  0  0
   -2.0656   -0.6081   -4.5669 C   0  0  0  0  0  0  0  0  0  0  0  0
   -3.0378   -0.4833   -5.0351 H   0  0  0  0  0  0  0  0  0  0  0  0
   -1.8431   -0.1243   -3.2731 C   0  0  0  0  0  0  0  0  0  0  0  0
   -2.6501    0.3776   -2.7476 H   0  0  0  0  0  0  0  0  0  0  0  0
    0.0954   -0.3633    1.1304 C   0  0  0  0  0  0  0  0  0  0  0  0
    1.2809   -0.2761    1.4229 O   0  0  0  0  0  0  0  0  0  0  0  0
   -0.8401    0.3001    1.9039 N   0  0  0  0  0  0  0  0  0  0  0  0
   -1.8116    0.1059    1.6833 H   0  0  0  0  0  0  0  0  0  0  0  0
   -0.5209    0.8677    3.2076 C   0  0  0  0  0  0  0  0  0  0  0  0
    0.2786    1.6106    3.1178 H   0  0  0  0  0  0  0  0  0  0  0  0
   -1.4010    1.3603    3.6311 H   0  0  0  0  0  0  0  0  0  0  0  0
   -0.1955    0.0814    3.8968 H   0  0  0  0  0  0  0  0  0  0  0  0
  1  2  1  0  0  0  0
  2  3  1  0  0  0  0
  2  4  1  0  0  0  0
  2  5  1  0  0  0  0
  5  6  2  0  0  0  0
  5  7  1  0  0  0  0
  7  8  1  0  0  0  0
  7  9  1  0  0  0  0
  9 10  1  0  0  0  0
  9 11  1  0  0  0  0
  9 25  1  0  0  0  0
 11 12  1  0  0  0  0
 11 13  1  0  0  0  0
 11 14  1  0  0  0  0
 14 15  1  0  0  0  0
 14 23  2  0  0  0  0
 15 16  1  0  0  0  0
 15 17  2  0  0  0  0
 17 18  1  0  0  0  0
 17 19  1  0  0  0  0
 19 20  1  0  0  0  0
 19 21  2  0  0  0  0
 21 22  1  0  0  0  0
 21 23  1  0  0  0  0
 23 24  1  0  0  0  0
 25 26  2  0  0  0  0
 25 27  1  0  0  0  0
 27 28  1  0  0  0  0
 27 29  1  0  0  0  0
 29 30  1  0  0  0  0
 29 31  1  0  0  0  0
 29 32  1  0  0  0  0
M  END
$$$$

  -OEChem-03222214073D

 32 32  0     1  0  0  0  0  0999 V2000
   -3.1390   -4.4744    0.7956 H   0  0  0  0  0  0  0  0  0  0  0  0
   -3.1030   -3.5874    0.1568 C   0  0  0  0  0  0  0  0  0  0  0  0
   -4.0008   -2.9899    0.3319 H   0  0  0  0  0  0  0  0  0  0  0  0
   -3.0836   -3.9078   -0.8877 H   0  0  0  0  0  0  0  0  0  0  0  0
   -1.8651   -2.7688    0.4713 C   0  0  0  0  0  0  0  0  0  0  0  0
   -1.1347   -3.1031    1.3868 O   0  0  0  0  0  0  0  0  0  0  0  0
   -1.5804   -1.6478   -0.2828 N   0  0  0  0  0  0  0  0  0  0  0  0
   -2.1434   -1.5250   -1.1209 H   0  0  0  0  0  0  0  0  0  0  0  0
   -0.2901   -0.9333   -0.2431 C   0  0  1  0  0  0  0  0  0  0  0  0
    0.5030   -1.6338   -0.5243 H   0  0  0  0  0  0  0  0  0  0  0  0
   -0.3385    0.2207   -1.2594 C   0  0  0  0  0  0  0  0  0  0  0  0
   -1.1192    0.9316   -0.9697 H   0  0  0  0  0  0  0  0  0  0  0  0
    0.6151    0.7596   -1.2361 H   0  0  0  0  0  0  0  0  0  0  0  0
   -0.5769   -0.2754   -2.6689 C   0  0  0  0  0  0  0  0  0  0  0  0
    0.3228   -1.1621   -3.2816 C   0  0  0  0  0  0  0  0  0  0  0  0
    1.2171   -1.4844   -2.7557 H   0  0  0  0  0  0  0  0  0  0  0  0
    0.0839   -1.6363   -4.5758 C   0  0  0  0  0  0  0  0  0  0  0  0
    0.7880   -2.3202   -5.0414 H   0  0  0  0  0  0  0  0  0  0  0  0
   -1.0573   -1.2272   -5.2714 C   0  0  0  0  0  0  0  0  0  0  0  0
   -1.2406   -1.5928   -6.2778 H   0  0  0  0  0  0  0  0  0  0  0  0
   -1.9581   -0.3422   -4.6723 C   0  0  0  0  0  0  0  0  0  0  0  0
   -2.8418   -0.0193   -5.2150 H   0  0  0  0  0  0  0  0  0  0  0  0
   -1.7186    0.1310   -3.3776 C   0  0  0  0  0  0  0  0  0  0  0  0
   -2.4261    0.8216   -2.9280 H   0  0  0  0  0  0  0  0  0  0  0  0
    0.0983   -0.3680    1.1392 C   0  0  0  0  0  0  0  0  0  0  0  0
    1.2808   -0.2863    1.4450 O   0  0  0  0  0  0  0  0  0  0  0  0
   -0.8429    0.2993    1.9025 N   0  0  0  0  0  0  0  0  0  0  0  0
   -1.8127    0.1101    1.6711 H   0  0  0  0  0  0  0  0  0  0  0  0
   -0.5351    0.8690    3.2084 C   0  0  0  0  0  0  0  0  0  0  0  0
    0.2640    1.6132    3.1241 H   0  0  0  0  0  0  0  0  0  0  0  0
   -1.4193    1.3608    3.6249 H   0  0  0  0  0  0  0  0  0  0  0  0
   -0.2142    0.0841    3.9016 H   0  0  0  0  0  0  0  0  0  0  0  0
  1  2  1  0  0  0  0
  2  3  1  0  0  0  0
  2  4  1  0  0  0  0
  2  5  1  0  0  0  0
  5  6  2  0  0  0  0
  5  7  1  0  0  0  0
  7  8  1  0  0  0  0
  7  9  1  0  0  0  0
  9 10  1  0  0  0  0
  9 11  1  0  0  0  0
  9 25  1  0  0  0  0
 11 12  1  0  0  0  0
 11 13  1  0  0  0  0
 11 14  1  0  0  0  0
 14 15  1  0  0  0  0
 14 23  2  0  0  0  0
 15 16  1  0  0  0  0
 15 17  2  0  0  0  0
 17 18  1  0  0  0  0
 17 19  1  0  0  0  0
 19 20  1  0  0  0  0
 19 21  2  0  0  0  0
 21 22  1  0  0  0  0
 21 23  1  0  0  0  0
 23 24  1  0  0  0  0
 25 26  2  0  0  0  0
 25 27  1  0  0  0  0
 27 28  1  0  0  0  0
 27 29  1  0  0  0  0
 29 30  1  0  0  0  0
 29 31  1  0  0  0  0
 29 32  1  0  0  0  0
M  END
$$$$

  -OEChem-03222214073D

 32 32  0     1  0  0  0  0  0999 V2000
   -3.1561   -4.4676    0.8544 H   0  0  0  0  0  0  0  0  0  0  0  0
   -3.1075   -3.5906    0.2024 C   0  0  0  0  0  0  0  0  0  0  0  0
   -3.9945   -2.9756    0.3721 H   0  0  0  0  0  0  0  0  0  0  0  0
   -3.0988   -3.9268   -0.8373 H   0  0  0  0  0  0  0  0  0  0  0  0
   -1.8547   -2.7877    0.4988 C   0  0  0  0  0  0  0  0  0  0  0  0
   -1.1198   -3.1241    1.4099 O   0  0  0  0  0  0  0  0  0  0  0  0
   -1.5605   -1.6780   -0.2679 N   0  0  0  0  0  0  0  0  0  0  0  0
   -2.1311   -1.5491   -1.1002 H   0  0  0  0  0  0  0  0  0  0  0  0
   -0.2724   -0.9600   -0.2284 C   0  0  1  0  0  0  0  0  0  0  0  0
    0.5289   -1.6589   -0.4864 H   0  0  0  0  0  0  0  0  0  0  0  0
   -0.3259    0.1832   -1.2583 C   0  0  0  0  0  0  0  0  0  0  0  0
   -1.1111    0.8891   -0.9683 H   0  0  0  0  0  0  0  0  0  0  0  0
    0.6246    0.7273   -1.2328 H   0  0  0  0  0  0  0  0  0  0  0  0
   -0.5588   -0.2954   -2.6787 C   0  0  0  0  0  0  0  0  0  0  0  0
    0.1368   -1.3916   -3.2197 C   0  0  0  0  0  0  0  0  0  0  0  0
    0.8934   -1.9112   -2.6400 H   0  0  0  0  0  0  0  0  0  0  0  0
   -0.1206   -1.8265   -4.5242 C   0  0  0  0  0  0  0  0  0  0  0  0
    0.4269   -2.6716   -4.9319 H   0  0  0  0  0  0  0  0  0  0  0  0
   -1.0752   -1.1709   -5.3058 C   0  0  0  0  0  0  0  0  0  0  0  0
   -1.2718   -1.5069   -6.3199 H   0  0  0  0  0  0  0  0  0  0  0  0
   -1.7697   -0.0775   -4.7825 C   0  0  0  0  0  0  0  0  0  0  0  0
   -2.5076    0.4375   -5.3909 H   0  0  0  0  0  0  0  0  0  0  0  0
   -1.5120    0.3563   -3.4777 C   0  0  0  0  0  0  0  0  0  0  0  0
   -2.0597    1.2097   -3.0892 H   0  0  0  0  0  0  0  0  0  0  0  0
    0.0970   -0.3742    1.1509 C   0  0  0  0  0  0  0  0  0  0  0  0
    1.2750   -0.2831    1.4707 O   0  0  0  0  0  0  0  0  0  0  0  0
   -0.8567    0.3002    1.8921 N   0  0  0  0  0  0  0  0  0  0  0  0
   -1.8227    0.1049    1.6504 H   0  0  0  0  0  0  0  0  0  0  0  0
   -0.5689    0.8924    3.1922 C   0  0  0  0  0  0  0  0  0  0  0  0
    0.2278    1.6389    3.1062 H   0  0  0  0  0  0  0  0  0  0  0  0
   -1.4608    1.3868    3.5887 H   0  0  0  0  0  0  0  0  0  0  0  0
   -0.2543    0.1201    3.9020 H   0  0  0  0  0  0  0  0  0  0  0  0
  1  2  1  0  0  0  0
  2  3  1  0  0  0  0
  2  4  1  0  0  0  0
  2  5  1  0  0  0  0
  5  6  2  0  0  0  0
  5  7  1  0  0  0  0
  7  8  1  0  0  0  0
  7  9  1  0  0  0  0
  9 10  1  0  0  0  0
  9 11  1  0  0  0  0
  9 25  1  0  0  0  0
 11 12  1  0  0  0  0
 11 13  1  0  0  0  0
 11 14  1  0  0  0  0
 14 15  1  0  0  0  0
 14 23  2  0  0  0  0
 15 16  1  0  0  0  0
 15 17  2  0  0  0  0
 17 18  1  0  0  0  0
 17 19  1  0  0  0  0
 19 20  1  0  0  0  0
 19 21  2  0  0  0  0
 21 22  1  0  0  0  0
 21 23  1  0  0  0  0
 23 24  1  0  0  0  0
 25 26  2  0  0  0  0
 25 27  1  0  0  0  0
 27 28  1  0  0  0  0
 27 29  1  0  0  0  0
 29 30  1  0  0  0  0
 29 31  1  0  0  0  0
 29 32  1  0  0  0  0
M  END
$$$$

  -OEChem-03222214073D

 32 32  0     1  0  0  0  0  0999 V2000
   -3.1578   -4.4781    0.9289 H   0  0  0  0  0  0  0  0  0  0  0  0
   -3.1097   -3.6113    0.2636 C   0  0  0  0  0  0  0  0  0  0  0  0
   -3.9923   -2.9895    0.4309 H   0  0  0  0  0  0  0  0  0  0  0  0
   -3.1101   -3.9633   -0.7708 H   0  0  0  0  0  0  0  0  0  0  0  0
   -1.8509   -2.8101    0.5389 C   0  0  0  0  0  0  0  0  0  0  0  0
   -1.1062   -3.1414    1.4438 O   0  0  0  0  0  0  0  0  0  0  0  0
   -1.5592   -1.7107   -0.2434 N   0  0  0  0  0  0  0  0  0  0  0  0
   -2.1443   -1.5782   -1.0649 H   0  0  0  0  0  0  0  0  0  0  0  0
   -0.2743   -0.9858   -0.2144 C   0  0  1  0  0  0  0  0  0  0  0  0
    0.5350   -1.6803   -0.4593 H   0  0  0  0  0  0  0  0  0  0  0  0
   -0.3322    0.1417   -1.2613 C   0  0  0  0  0  0  0  0  0  0  0  0
   -1.1228    0.8440   -0.9772 H   0  0  0  0  0  0  0  0  0  0  0  0
    0.6150    0.6917   -1.2344 H   0  0  0  0  0  0  0  0  0  0  0  0
   -0.5613   -0.3233   -2.6896 C   0  0  0  0  0  0  0  0  0  0  0  0
   -0.1219   -1.5718   -3.1715 C   0  0  0  0  0  0  0  0  0  0  0  0
    0.4292   -2.2583   -2.5372 H   0  0  0  0  0  0  0  0  0  0  0  0
   -0.3740   -1.9569   -4.4927 C   0  0  0  0  0  0  0  0  0  0  0  0
   -0.0253   -2.9210   -4.8524 H   0  0  0  0  0  0  0  0  0  0  0  0
   -1.0655   -1.1006   -5.3528 C   0  0  0  0  0  0  0  0  0  0  0  0
   -1.2567   -1.3985   -6.3798 H   0  0  0  0  0  0  0  0  0  0  0  0
   -1.5017    0.1433   -4.8910 C   0  0  0  0  0  0  0  0  0  0  0  0
   -2.0332    0.8141   -5.5599 H   0  0  0  0  0  0  0  0  0  0  0  0
   -1.2494    0.5273   -3.5698 C   0  0  0  0  0  0  0  0  0  0  0  0
   -1.5917    1.5004   -3.2299 H   0  0  0  0  0  0  0  0  0  0  0  0
    0.0899   -0.3776    1.1568 C   0  0  0  0  0  0  0  0  0  0  0  0
    1.2667   -0.2748    1.4774 O   0  0  0  0  0  0  0  0  0  0  0  0
   -0.8681    0.3031    1.8869 N   0  0  0  0  0  0  0  0  0  0  0  0
   -1.8337    0.1058    1.6444 H   0  0  0  0  0  0  0  0  0  0  0  0
   -0.5836    0.9268    3.1730 C   0  0  0  0  0  0  0  0  0  0  0  0
    0.2078    1.6765    3.0690 H   0  0  0  0  0  0  0  0  0  0  0  0
   -1.4787    1.4237    3.5588 H   0  0  0  0  0  0  0  0  0  0  0  0
   -0.2628    0.1734    3.9001 H   0  0  0  0  0  0  0  0  0  0  0  0
  1  2  1  0  0  0  0
  2  3  1  0  0  0  0
  2  4  1  0  0  0  0
  2  5  1  0  0  0  0
  5  6  2  0  0  0  0
  5  7  1  0  0  0  0
  7  8  1  0  0  0  0
  7  9  1  0  0  0  0
  9 10  1  0  0  0  0
  9 11  1  0  0  0  0
  9 25  1  0  0  0  0
 11 12  1  0  0  0  0
 11 13  1  0  0  0  0
 11 14  1  0  0  0  0
 14 15  1  0  0  0  0
 14 23  2  0  0  0  0
 15 16  1  0  0  0  0
 15 17  2  0  0  0  0
 17 18  1  0  0  0  0
 17 19  1  0  0  0  0
 19 20  1  0  0  0  0
 19 21  2  0  0  0  0
 21 22  1  0  0  0  0
 21 23  1  0  0  0  0
 23 24  1  0  0  0  0
 25 26  2  0  0  0  0
 25 27  1  0  0  0  0
 27 28  1  0  0  0  0
 27 29  1  0  0  0  0
 29 30  1  0  0  0  0
 29 31  1  0  0  0  0
 29 32  1  0  0  0  0
M  END
$$$$

  -OEChem-03222214073D

 32 32  0     1  0  0  0  0  0999 V2000
   -3.1532   -4.4790    0.9989 H   0  0  0  0  0  0  0  0  0  0  0  0
   -3.1187   -3.6130    0.3315 C   0  0  0  0  0  0  0  0  0  0  0  0
   -3.9892   -2.9824    0.5277 H   0  0  0  0  0  0  0  0  0  0  0  0
   -3.1571   -3.9649   -0.7022 H   0  0  0  0  0  0  0  0  0  0  0  0
   -1.8438   -2.8245    0.5651 C   0  0  0  0  0  0  0  0  0  0  0  0
   -1.0754   -3.1607    1.4479 O   0  0  0  0  0  0  0  0  0  0  0  0
   -1.5645   -1.7286   -0.2267 N   0  0  0  0  0  0  0  0  0  0  0  0
   -2.1797   -1.5767   -1.0226 H   0  0  0  0  0  0  0  0  0  0  0  0
   -0.2842   -0.9934   -0.2139 C   0  0  1  0  0  0  0  0  0  0  0  0
    0.5275   -1.6855   -0.4617 H   0  0  0  0  0  0  0  0  0  0  0  0
   -0.3419    0.1217   -1.2744 C   0  0  0  0  0  0  0  0  0  0  0  0
   -1.1368    0.8232   -1.0000 H   0  0  0  0  0  0  0  0  0  0  0  0
    0.6037    0.6740   -1.2442 H   0  0  0  0  0  0  0  0  0  0  0  0
   -0.5654   -0.3361   -2.7071 C   0  0  0  0  0  0  0  0  0  0  0  0
   -0.4126   -1.6701   -3.1359 C   0  0  0  0  0  0  0  0  0  0  0  0
   -0.0952   -2.4510   -2.4526 H   0  0  0  0  0  0  0  0  0  0  0  0
   -0.6511   -2.0250   -4.4679 C   0  0  0  0  0  0  0  0  0  0  0  0
   -0.5242   -3.0559   -4.7859 H   0  0  0  0  0  0  0  0  0  0  0  0
   -1.0431   -1.0550   -5.3930 C   0  0  0  0  0  0  0  0  0  0  0  0
   -1.2238   -1.3307   -6.4281 H   0  0  0  0  0  0  0  0  0  0  0  0
   -1.1932    0.2720   -4.9847 C   0  0  0  0  0  0  0  0  0  0  0  0
   -1.4912    1.0302   -5.7030 H   0  0  0  0  0  0  0  0  0  0  0  0
   -0.9554    0.6256   -3.6525 C   0  0  0  0  0  0  0  0  0  0  0  0
   -1.0741    1.6630   -3.3531 H   0  0  0  0  0  0  0  0  0  0  0  0
    0.0836   -0.3736    1.1511 C   0  0  0  0  0  0  0  0  0  0  0  0
    1.2609   -0.2622    1.4663 O   0  0  0  0  0  0  0  0  0  0  0  0
   -0.8752    0.3040    1.8830 N   0  0  0  0  0  0  0  0  0  0  0  0
   -1.8407    0.1036    1.6434 H   0  0  0  0  0  0  0  0  0  0  0  0
   -0.5892    0.9315    3.1670 C   0  0  0  0  0  0  0  0  0  0  0  0
    0.2043    1.6788    3.0611 H   0  0  0  0  0  0  0  0  0  0  0  0
   -1.4832    1.4322    3.5502 H   0  0  0  0  0  0  0  0  0  0  0  0
   -0.2704    0.1800    3.8970 H   0  0  0  0  0  0  0  0  0  0  0  0
  1  2  1  0  0  0  0
  2  3  1  0  0  0  0
  2  4  1  0  0  0  0
  2  5  1  0  0  0  0
  5  6  2  0  0  0  0
  5  7  1  0  0  0  0
  7  8  1  0  0  0  0
  7  9  1  0  0  0  0
  9 10  1  0  0  0  0
  9 11  1  0  0  0  0
  9 25  1  0  0  0  0
 11 12  1  0  0  0  0
 11 13  1  0  0  0  0
 11 14  1  0  0  0  0
 14 15  1  0  0  0  0
 14 23  2  0  0  0  0
 15 16  1  0  0  0  0
 15 17  2  0  0  0  0
 17 18  1  0  0  0  0
 17 19  1  0  0  0  0
 19 20  1  0  0  0  0
 19 21  2  0  0  0  0
 21 22  1  0  0  0  0
 21 23  1  0  0  0  0
 23 24  1  0  0  0  0
 25 26  2  0  0  0  0
 25 27  1  0  0  0  0
 27 28  1  0  0  0  0
 27 29  1  0  0  0  0
 29 30  1  0  0  0  0
 29 31  1  0  0  0  0
 29 32  1  0  0  0  0
M  END
$$$$

  -OEChem-03222214073D

 32 32  0     1  0  0  0  0  0999 V2000
   -3.1688   -4.4715    1.0857 H   0  0  0  0  0  0  0  0  0  0  0  0
   -3.1358   -3.6169    0.4038 C   0  0  0  0  0  0  0  0  0  0  0  0
   -3.9934   -2.9713    0.6070 H   0  0  0  0  0  0  0  0  0  0  0  0
   -3.2001   -3.9846   -0.6232 H   0  0  0  0  0  0  0  0  0  0  0  0
   -1.8456   -2.8427    0.5985 C   0  0  0  0  0  0  0  0  0  0  0  0
   -1.0536   -3.1878    1.4564 O   0  0  0  0  0  0  0  0  0  0  0  0
   -1.5762   -1.7524   -0.2046 N   0  0  0  0  0  0  0  0  0  0  0  0
   -2.2241   -1.5758   -0.9684 H   0  0  0  0  0  0  0  0  0  0  0  0
   -0.2991   -1.0102   -0.2098 C   0  0  1  0  0  0  0  0  0  0  0  0
    0.5077   -1.7082   -0.4600 H   0  0  0  0  0  0  0  0  0  0  0  0
   -0.3447    0.0910   -1.2867 C   0  0  0  0  0  0  0  0  0  0  0  0
   -1.1392    0.7978   -1.0257 H   0  0  0  0  0  0  0  0  0  0  0  0
    0.6031    0.6395   -1.2469 H   0  0  0  0  0  0  0  0  0  0  0  0
   -0.5559   -0.3542   -2.7263 C   0  0  0  0  0  0  0  0  0  0  0  0
   -0.7075   -1.6954   -3.1348 C   0  0  0  0  0  0  0  0  0  0  0  0
   -0.6204   -2.5169   -2.4322 H   0  0  0  0  0  0  0  0  0  0  0  0
   -0.9360   -2.0139   -4.4779 C   0  0  0  0  0  0  0  0  0  0  0  0
   -1.0374   -3.0524   -4.7799 H   0  0  0  0  0  0  0  0  0  0  0  0
   -1.0210   -1.0005   -5.4349 C   0  0  0  0  0  0  0  0  0  0  0  0
   -1.1938   -1.2485   -6.4783 H   0  0  0  0  0  0  0  0  0  0  0  0
   -0.8735    0.3326   -5.0471 C   0  0  0  0  0  0  0  0  0  0  0  0
   -0.9351    1.1240   -5.7885 H   0  0  0  0  0  0  0  0  0  0  0  0
   -0.6437    0.6492   -3.7044 C   0  0  0  0  0  0  0  0  0  0  0  0
   -0.5332    1.6920   -3.4207 H   0  0  0  0  0  0  0  0  0  0  0  0
    0.0767   -0.3765    1.1465 C   0  0  0  0  0  0  0  0  0  0  0  0
    1.2554   -0.2588    1.4535 O   0  0  0  0  0  0  0  0  0  0  0  0
   -0.8799    0.3025    1.8800 N   0  0  0  0  0  0  0  0  0  0  0  0
   -1.8469    0.1052    1.6443 H   0  0  0  0  0  0  0  0  0  0  0  0
   -0.5869    0.9492    3.1528 C   0  0  0  0  0  0  0  0  0  0  0  0
    0.1933    1.7074    3.0272 H   0  0  0  0  0  0  0  0  0  0  0  0
   -1.4834    1.4404    3.5425 H   0  0  0  0  0  0  0  0  0  0  0  0
   -0.2466    0.2113    3.8868 H   0  0  0  0  0  0  0  0  0  0  0  0
  1  2  1  0  0  0  0
  2  3  1  0  0  0  0
  2  4  1  0  0  0  0
  2  5  1  0  0  0  0
  5  6  2  0  0  0  0
  5  7  1  0  0  0  0
  7  8  1  0  0  0  0
  7  9  1  0  0  0  0
  9 10  1  0  0  0  0
  9 11  1  0  0  0  0
  9 25  1  0  0  0  0
 11 12  1  0  0  0  0
 11 13  1  0  0  0  0
 11 14  1  0  0  0  0
 14 15  1  0  0  0  0
 14 23  2  0  0  0  0
 15 16  1  0  0  0  0
 15 17  2  0  0  0  0
 17 18  1  0  0  0  0
 17 19  1  0  0  0  0
 19 20  1  0  0  0  0
 19 21  2  0  0  0  0
 21 22  1  0  0  0  0
 21 23  1  0  0  0  0
 23 24  1  0  0  0  0
 25 26  2  0  0  0  0
 25 27  1  0  0  0  0
 27 28  1  0  0  0  0
 27 29  1  0  0  0  0
 29 30  1  0  0  0  0
 29 31  1  0  0  0  0
 29 32  1  0  0  0  0
M  END
$$$$

  -OEChem-03222214073D

 32 32  0     1  0  0  0  0  0999 V2000
   -3.1679   -4.4637    1.2105 H   0  0  0  0  0  0  0  0  0  0  0  0
   -3.1500   -3.6209    0.5133 C   0  0  0  0  0  0  0  0  0  0  0  0
   -3.9891   -2.9587    0.7398 H   0  0  0  0  0  0  0  0  0  0  0  0
   -3.2601   -4.0051   -0.5038 H   0  0  0  0  0  0  0  0  0  0  0  0
   -1.8417   -2.8640    0.6440 C   0  0  0  0  0  0  0  0  0  0  0  0
   -1.0203   -3.2111    1.4728 O   0  0  0  0  0  0  0  0  0  0  0  0
   -1.5926   -1.7815   -0.1765 N   0  0  0  0  0  0  0  0  0  0  0  0
   -2.2837   -1.5771   -0.8936 H   0  0  0  0  0  0  0  0  0  0  0  0
   -0.3221   -1.0302   -0.2122 C   0  0  1  0  0  0  0  0  0  0  0  0
    0.4802   -1.7346   -0.4596 H   0  0  0  0  0  0  0  0  0  0  0  0
   -0.3545    0.0564   -1.3070 C   0  0  0  0  0  0  0  0  0  0  0  0
   -1.1448    0.7716   -1.0575 H   0  0  0  0  0  0  0  0  0  0  0  0
    0.5969    0.5982   -1.2564 H   0  0  0  0  0  0  0  0  0  0  0  0
   -0.5578   -0.3747   -2.7544 C   0  0  0  0  0  0  0  0  0  0  0  0
   -1.0115   -1.6423   -3.1755 C   0  0  0  0  0  0  0  0  0  0  0  0
   -1.1771   -2.4558   -2.4815 H   0  0  0  0  0  0  0  0  0  0  0  0
   -1.2159   -1.9183   -4.5321 C   0  0  0  0  0  0  0  0  0  0  0  0
   -1.5504   -2.9045   -4.8405 H   0  0  0  0  0  0  0  0  0  0  0  0
   -0.9801   -0.9339   -5.4933 C   0  0  0  0  0  0  0  0  0  0  0  0
   -1.1364   -1.1499   -6.5464 H   0  0  0  0  0  0  0  0  0  0  0  0
   -0.5356    0.3278   -5.0957 C   0  0  0  0  0  0  0  0  0  0  0  0
   -0.3495    1.0978   -5.8390 H   0  0  0  0  0  0  0  0  0  0  0  0
   -0.3294    0.6005   -3.7398 C   0  0  0  0  0  0  0  0  0  0  0  0
    0.0107    1.5908   -3.4503 H   0  0  0  0  0  0  0  0  0  0  0  0
    0.0660   -0.3790    1.1324 C   0  0  0  0  0  0  0  0  0  0  0  0
    1.2474   -0.2502    1.4247 O   0  0  0  0  0  0  0  0  0  0  0  0
   -0.8861    0.2997    1.8722 N   0  0  0  0  0  0  0  0  0  0  0  0
   -1.8548    0.0996    1.6468 H   0  0  0  0  0  0  0  0  0  0  0  0
   -0.5815    0.9556    3.1377 C   0  0  0  0  0  0  0  0  0  0  0  0
    0.1903    1.7199    2.9982 H   0  0  0  0  0  0  0  0  0  0  0  0
   -1.4770    1.4408    3.5375 H   0  0  0  0  0  0  0  0  0  0  0  0
   -0.2248    0.2242    3.8705 H   0  0  0  0  0  0  0  0  0  0  0  0
  1  2  1  0  0  0  0
  2  3  1  0  0  0  0
  2  4  1  0  0  0  0
  2  5  1  0  0  0  0
  5  6  2  0  0  0  0
  5  7  1  0  0  0  0
  7  8  1  0  0  0  0
  7  9  1  0  0  0  0
  9 10  1  0  0  0  0
  9 11  1  0  0  0  0
  9 25  1  0  0  0  0
 11 12  1  0  0  0  0
 11 13  1  0  0  0  0
 11 14  1  0  0  0  0
 14 15  1  0  0  0  0
 14 23  2  0  0  0  0
 15 16  1  0  0  0  0
 15 17  2  0  0  0  0
 17 18  1  0  0  0  0
 17 19  1  0  0  0  0
 19 20  1  0  0  0  0
 19 21  2  0  0  0  0
 21 22  1  0  0  0  0
 21 23  1  0  0  0  0
 23 24  1  0  0  0  0
 25 26  2  0  0  0  0
 25 27  1  0  0  0  0
 27 28  1  0  0  0  0
 27 29  1  0  0  0  0
 29 30  1  0  0  0  0
 29 31  1  0  0  0  0
 29 32  1  0  0  0  0
M  END
$$$$

  -OEChem-03222214073D

 32 32  0     1  0  0  0  0  0999 V2000
   -3.1520   -4.4587    1.2934 H   0  0  0  0  0  0  0  0  0  0  0  0
   -3.1535   -3.6189    0.5926 C   0  0  0  0  0  0  0  0  0  0  0  0
   -3.9720   -2.9441    0.8541 H   0  0  0  0  0  0  0  0  0  0  0  0
   -3.3157   -4.0050   -0.4167 H   0  0  0  0  0  0  0  0  0  0  0  0
   -1.8290   -2.8816    0.6601 C   0  0  0  0  0  0  0  0  0  0  0  0
   -0.9683   -3.2493    1.4387 O   0  0  0  0  0  0  0  0  0  0  0  0
   -1.6109   -1.7930   -0.1613 N   0  0  0  0  0  0  0  0  0  0  0  0
   -2.3538   -1.5425   -0.8071 H   0  0  0  0  0  0  0  0  0  0  0  0
   -0.3507   -1.0300   -0.2275 C   0  0  1  0  0  0  0  0  0  0  0  0
    0.4479   -1.7337   -0.4877 H   0  0  0  0  0  0  0  0  0  0  0  0
   -0.3823    0.0584   -1.3233 C   0  0  0  0  0  0  0  0  0  0  0  0
   -1.1692    0.7753   -1.0691 H   0  0  0  0  0  0  0  0  0  0  0  0
    0.5709    0.5964   -1.2650 H   0  0  0  0  0  0  0  0  0  0  0  0
   -0.5933   -0.3595   -2.7766 C   0  0  0  0  0  0  0  0  0  0  0  0
   -1.3249   -1.4842   -3.2144 C   0  0  0  0  0  0  0  0  0  0  0  0
   -1.7722   -2.1920   -2.5322 H   0  0  0  0  0  0  0  0  0  0  0  0
   -1.4828   -1.7551   -4.5785 C   0  0  0  0  0  0  0  0  0  0  0  0
   -2.0393   -2.6318   -4.8968 H   0  0  0  0  0  0  0  0  0  0  0  0
   -0.9218   -0.9076   -5.5346 C   0  0  0  0  0  0  0  0  0  0  0  0
   -1.0429   -1.1202   -6.5930 H   0  0  0  0  0  0  0  0  0  0  0  0
   -0.2004    0.2133   -5.1236 C   0  0  0  0  0  0  0  0  0  0  0  0
    0.2392    0.8773   -5.8621 H   0  0  0  0  0  0  0  0  0  0  0  0
   -0.0425    0.4816   -3.7604 C   0  0  0  0  0  0  0  0  0  0  0  0
    0.5199    1.3636   -3.4674 H   0  0  0  0  0  0  0  0  0  0  0  0
    0.0600   -0.3833    1.1132 C   0  0  0  0  0  0  0  0  0  0  0  0
    1.2457   -0.2396    1.3800 O   0  0  0  0  0  0  0  0  0  0  0  0
   -0.8839    0.2796    1.8779 N   0  0  0  0  0  0  0  0  0  0  0  0
   -1.8552    0.0733    1.6703 H   0  0  0  0  0  0  0  0  0  0  0  0
   -0.5606    0.9326    3.1403 C   0  0  0  0  0  0  0  0  0  0  0  0
    0.2049    1.7013    2.9906 H   0  0  0  0  0  0  0  0  0  0  0  0
   -1.4515    1.4120    3.5571 H   0  0  0  0  0  0  0  0  0  0  0  0
   -0.1877    0.2005    3.8643 H   0  0  0  0  0  0  0  0  0  0  0  0
  1  2  1  0  0  0  0
  2  3  1  0  0  0  0
  2  4  1  0  0  0  0
  2  5  1  0  0  0  0
  5  6  2  0  0  0  0
  5  7  1  0  0  0  0
  7  8  1  0  0  0  0
  7  9  1  0  0  0  0
  9 10  1  0  0  0  0
  9 11  1  0  0  0  0
  9 25  1  0  0  0  0
 11 12  1  0  0  0  0
 11 13  1  0  0  0  0
 11 14  1  0  0  0  0
 14 15  1  0  0  0  0
 14 23  2  0  0  0  0
 15 16  1  0  0  0  0
 15 17  2  0  0  0  0
 17 18  1  0  0  0  0
 17 19  1  0  0  0  0
 19 20  1  0  0  0  0
 19 21  2  0  0  0  0
 21 22  1  0  0  0  0
 21 23  1  0  0  0  0
 23 24  1  0  0  0  0
 25 26  2  0  0  0  0
 25 27  1  0  0  0  0
 27 28  1  0  0  0  0
 27 29  1  0  0  0  0
 29 30  1  0  0  0  0
 29 31  1  0  0  0  0
 29 32  1  0  0  0  0
M  END
$$$$

  -OEChem-03222214073D

 32 32  0     1  0  0  0  0  0999 V2000
   -3.1273   -4.4688    1.2572 H   0  0  0  0  0  0  0  0  0  0  0  0
   -3.1449   -3.6191    0.5685 C   0  0  0  0  0  0  0  0  0  0  0  0
   -3.9565   -2.9480    0.8594 H   0  0  0  0  0  0  0  0  0  0  0  0
   -3.3303   -3.9905   -0.4422 H   0  0  0  0  0  0  0  0  0  0  0  0
   -1.8190   -2.8837    0.6148 C   0  0  0  0  0  0  0  0  0  0  0  0
   -0.9364   -3.2708    1.3586 O   0  0  0  0  0  0  0  0  0  0  0  0
   -1.6267   -1.7726   -0.1823 N   0  0  0  0  0  0  0  0  0  0  0  0
   -2.3973   -1.4917   -0.7792 H   0  0  0  0  0  0  0  0  0  0  0  0
   -0.3738   -0.9993   -0.2530 C   0  0  1  0  0  0  0  0  0  0  0  0
    0.4217   -1.6967   -0.5392 H   0  0  0  0  0  0  0  0  0  0  0  0
   -0.4067    0.1162   -1.3226 C   0  0  0  0  0  0  0  0  0  0  0  0
   -1.1954    0.8260   -1.0547 H   0  0  0  0  0  0  0  0  0  0  0  0
    0.5432    0.6580   -1.2545 H   0  0  0  0  0  0  0  0  0  0  0  0
   -0.6288   -0.2936   -2.7756 C   0  0  0  0  0  0  0  0  0  0  0  0
   -1.5982   -1.2183   -3.2158 C   0  0  0  0  0  0  0  0  0  0  0  0
   -2.2864   -1.7015   -2.5386 H   0  0  0  0  0  0  0  0  0  0  0  0
   -1.7218   -1.5436   -4.5713 C   0  0  0  0  0  0  0  0  0  0  0  0
   -2.4730   -2.2593   -4.8920 H   0  0  0  0  0  0  0  0  0  0  0  0
   -0.8825   -0.9515   -5.5160 C   0  0  0  0  0  0  0  0  0  0  0  0
   -0.9773   -1.2054   -6.5679 H   0  0  0  0  0  0  0  0  0  0  0  0
    0.0803   -0.0306   -5.1021 C   0  0  0  0  0  0  0  0  0  0  0  0
    0.7372    0.4334   -5.8320 H   0  0  0  0  0  0  0  0  0  0  0  0
    0.2027    0.2926   -3.7471 C   0  0  0  0  0  0  0  0  0  0  0  0
    0.9638    1.0099   -3.4533 H   0  0  0  0  0  0  0  0  0  0  0  0
    0.0578   -0.3854    1.0966 C   0  0  0  0  0  0  0  0  0  0  0  0
    1.2470   -0.2338    1.3425 O   0  0  0  0  0  0  0  0  0  0  0  0
   -0.8766    0.2496    1.8957 N   0  0  0  0  0  0  0  0  0  0  0  0
   -1.8500    0.0392    1.7034 H   0  0  0  0  0  0  0  0  0  0  0  0
   -0.5333    0.8883    3.1600 C   0  0  0  0  0  0  0  0  0  0  0  0
    0.2136    1.6737    3.0027 H   0  0  0  0  0  0  0  0  0  0  0  0
   -1.4220    1.3436    3.6071 H   0  0  0  0  0  0  0  0  0  0  0  0
   -0.1285    0.1520    3.8625 H   0  0  0  0  0  0  0  0  0  0  0  0
  1  2  1  0  0  0  0
  2  3  1  0  0  0  0
  2  4  1  0  0  0  0
  2  5  1  0  0  0  0
  5  6  2  0  0  0  0
  5  7  1  0  0  0  0
  7  8  1  0  0  0  0
  7  9  1  0  0  0  0
  9 10  1  0  0  0  0
  9 11  1  0  0  0  0
  9 25  1  0  0  0  0
 11 12  1  0  0  0  0
 11 13  1  0  0  0  0
 11 14  1  0  0  0  0
 14 15  1  0  0  0  0
 14 23  2  0  0  0  0
 15 16  1  0  0  0  0
 15 17  2  0  0  0  0
 17 18  1  0  0  0  0
 17 19  1  0  0  0  0
 19 20  1  0  0  0  0
 19 21  2  0  0  0  0
 21 22  1  0  0  0  0
 21 23  1  0  0  0  0
 23 24  1  0  0  0  0
 25 26  2  0  0  0  0
 25 27  1  0  0  0  0
 27 28  1  0  0  0  0
 27 29  1  0  0  0  0
 29 30  1  0  0  0  0
 29 31  1  0  0  0  0
 29 32  1  0  0  0  0
M  END
$$$$

  -OEChem-03222214073D

 32 32  0     1  0  0  0  0  0999 V2000
   -3.0920   -4.5156    1.0526 H   0  0  0  0  0  0  0  0  0  0  0  0
   -3.1069   -3.6457    0.3897 C   0  0  0  0  0  0  0  0  0  0  0  0
   -3.9826   -3.0374    0.6277 H   0  0  0  0  0  0  0  0  0  0  0  0
   -3.1820   -3.9939   -0.6433 H   0  0  0  0  0  0  0  0  0  0  0  0
   -1.8413   -2.8289    0.5716 C   0  0  0  0  0  0  0  0  0  0  0  0
   -1.0217   -3.1613    1.4084 O   0  0  0  0  0  0  0  0  0  0  0  0
   -1.6365   -1.7083   -0.2096 N   0  0  0  0  0  0  0  0  0  0  0  0
   -2.3017   -1.5602   -0.9587 H   0  0  0  0  0  0  0  0  0  0  0  0
   -0.3710   -0.9523   -0.2613 C   0  0  1  0  0  0  0  0  0  0  0  0
    0.4164   -1.6516   -0.5638 H   0  0  0  0  0  0  0  0  0  0  0  0
   -0.3943    0.1951   -1.2967 C   0  0  0  0  0  0  0  0  0  0  0  0
   -1.1753    0.9073   -1.0124 H   0  0  0  0  0  0  0  0  0  0  0  0
    0.5595    0.7308   -1.2317 H   0  0  0  0  0  0  0  0  0  0  0  0
   -0.6356   -0.2165   -2.7409 C   0  0  0  0  0  0  0  0  0  0  0  0
   -1.7990   -0.8799   -3.1760 C   0  0  0  0  0  0  0  0  0  0  0  0
   -2.6309   -1.0568   -2.5076 H   0  0  0  0  0  0  0  0  0  0  0  0
   -1.9393   -1.2859   -4.5079 C   0  0  0  0  0  0  0  0  0  0  0  0
   -2.8465   -1.7874   -4.8321 H   0  0  0  0  0  0  0  0  0  0  0  0
   -0.9173   -1.0408   -5.4273 C   0  0  0  0  0  0  0  0  0  0  0  0
   -1.0241   -1.3568   -6.4611 H   0  0  0  0  0  0  0  0  0  0  0  0
    0.2429   -0.3842   -5.0132 C   0  0  0  0  0  0  0  0  0  0  0  0
    1.0418   -0.1911   -5.7233 H   0  0  0  0  0  0  0  0  0  0  0  0
    0.3811    0.0206   -3.6816 C   0  0  0  0  0  0  0  0  0  0  0  0
    1.2989    0.5177   -3.3804 H   0  0  0  0  0  0  0  0  0  0  0  0
    0.0666   -0.3658    1.0985 C   0  0  0  0  0  0  0  0  0  0  0  0
    1.2584   -0.2373    1.3470 O   0  0  0  0  0  0  0  0  0  0  0  0
   -0.8599    0.2712    1.9047 N   0  0  0  0  0  0  0  0  0  0  0  0
   -1.8340    0.0615    1.7141 H   0  0  0  0  0  0  0  0  0  0  0  0
   -0.5109    0.8643    3.1891 C   0  0  0  0  0  0  0  0  0  0  0  0
    0.2371    1.6531    3.0567 H   0  0  0  0  0  0  0  0  0  0  0  0
   -1.3970    1.3053    3.6552 H   0  0  0  0  0  0  0  0  0  0  0  0
   -0.1052    0.1028    3.8634 H   0  0  0  0  0  0  0  0  0  0  0  0
  1  2  1  0  0  0  0
  2  3  1  0  0  0  0
  2  4  1  0  0  0  0
  2  5  1  0  0  0  0
  5  6  2  0  0  0  0
  5  7  1  0  0  0  0
  7  8  1  0  0  0  0
  7  9  1  0  0  0  0
  9 10  1  0  0  0  0
  9 11  1  0  0  0  0
  9 25  1  0  0  0  0
 11 12  1  0  0  0  0
 11 13  1  0  0  0  0
 11 14  1  0  0  0  0
 14 15  1  0  0  0  0
 14 23  2  0  0  0  0
 15 16  1  0  0  0  0
 15 17  2  0  0  0  0
 17 18  1  0  0  0  0
 17 19  1  0  0  0  0
 19 20  1  0  0  0  0
 19 21  2  0  0  0  0
 21 22  1  0  0  0  0
 21 23  1  0  0  0  0
 23 24  1  0  0  0  0
 25 26  2  0  0  0  0
 25 27  1  0  0  0  0
 27 28  1  0  0  0  0
 27 29  1  0  0  0  0
 29 30  1  0  0  0  0
 29 31  1  0  0  0  0
 29 32  1  0  0  0  0
M  END
$$$$

  -OEChem-03222214073D

 32 32  0     1  0  0  0  0  0999 V2000
   -3.0821   -4.5141    0.8549 H   0  0  0  0  0  0  0  0  0  0  0  0
   -3.0747   -3.6333    0.2066 C   0  0  0  0  0  0  0  0  0  0  0  0
   -3.9847   -3.0561    0.3864 H   0  0  0  0  0  0  0  0  0  0  0  0
   -3.0595   -3.9650   -0.8343 H   0  0  0  0  0  0  0  0  0  0  0  0
   -1.8535   -2.7813    0.4976 C   0  0  0  0  0  0  0  0  0  0  0  0
   -1.1003   -3.0934    1.4022 O   0  0  0  0  0  0  0  0  0  0  0  0
   -1.6163   -1.6529   -0.2631 N   0  0  0  0  0  0  0  0  0  0  0  0
   -2.1864   -1.5690   -1.0985 H   0  0  0  0  0  0  0  0  0  0  0  0
   -0.3365   -0.9180   -0.2641 C   0  0  1  0  0  0  0  0  0  0  0  0
    0.4520   -1.6149   -0.5693 H   0  0  0  0  0  0  0  0  0  0  0  0
   -0.3591    0.2512   -1.2703 C   0  0  0  0  0  0  0  0  0  0  0  0
   -1.1394    0.9623   -0.9805 H   0  0  0  0  0  0  0  0  0  0  0  0
    0.5959    0.7852   -1.2136 H   0  0  0  0  0  0  0  0  0  0  0  0
   -0.6008   -0.1882   -2.6998 C   0  0  0  0  0  0  0  0  0  0  0  0
   -1.8759   -0.5787   -3.1456 C   0  0  0  0  0  0  0  0  0  0  0  0
   -2.7365   -0.4983   -2.4900 H   0  0  0  0  0  0  0  0  0  0  0  0
   -2.0653   -1.0375   -4.4537 C   0  0  0  0  0  0  0  0  0  0  0  0
   -3.0560   -1.3256   -4.7932 H   0  0  0  0  0  0  0  0  0  0  0  0
   -0.9798   -1.1190   -5.3300 C   0  0  0  0  0  0  0  0  0  0  0  0
   -1.1240   -1.4761   -6.3458 H   0  0  0  0  0  0  0  0  0  0  0  0
    0.2931   -0.7371   -4.8978 C   0  0  0  0  0  0  0  0  0  0  0  0
    1.1393   -0.8004   -5.5760 H   0  0  0  0  0  0  0  0  0  0  0  0
    0.4804   -0.2774   -3.5900 C   0  0  0  0  0  0  0  0  0  0  0  0
    1.4785    0.0037   -3.2657 H   0  0  0  0  0  0  0  0  0  0  0  0
    0.0792   -0.3566    1.1130 C   0  0  0  0  0  0  0  0  0  0  0  0
    1.2676   -0.2537    1.3888 O   0  0  0  0  0  0  0  0  0  0  0  0
   -0.8540    0.2878    1.9053 N   0  0  0  0  0  0  0  0  0  0  0  0
   -1.8260    0.0835    1.6967 H   0  0  0  0  0  0  0  0  0  0  0  0
   -0.5238    0.8543    3.2070 C   0  0  0  0  0  0  0  0  0  0  0  0
    0.2587    1.6141    3.1084 H   0  0  0  0  0  0  0  0  0  0  0  0
   -1.4065    1.3261    3.6485 H   0  0  0  0  0  0  0  0  0  0  0  0
   -0.1711    0.0709    3.8858 H   0  0  0  0  0  0  0  0  0  0  0  0
  1  2  1  0  0  0  0
  2  3  1  0  0  0  0
  2  4  1  0  0  0  0
  2  5  1  0  0  0  0
  5  6  2  0  0  0  0
  5  7  1  0  0  0  0
  7  8  1  0  0  0  0
  7  9  1  0  0  0  0
  9 10  1  0  0  0  0
  9 11  1  0  0  0  0
  9 25  1  0  0  0  0
 11 12  1  0  0  0  0
 11 13  1  0  0  0  0
 11 14  1  0  0  0  0
 14 15  1  0  0  0  0
 14 23  2  0  0  0  0
 15 16  1  0  0  0  0
 15 17  2  0  0  0  0
 17 18  1  0  0  0  0
 17 19  1  0  0  0  0
 19 20  1  0  0  0  0
 19 21  2  0  0  0  0
 21 22  1  0  0  0  0
 21 23  1  0  0  0  0
 23 24  1  0  0  0  0
 25 26  2  0  0  0  0
 25 27  1  0  0  0  0
 27 28  1  0  0  0  0
 27 29  1  0  0  0  0
 29 30  1  0  0  0  0
 29 31  1  0  0  0  0
 29 32  1  0  0  0  0
M  END
$$$$

  -OEChem-03222214073D

 32 32  0     1  0  0  0  0  0999 V2000
   -3.0852   -4.5047    0.7379 H   0  0  0  0  0  0  0  0  0  0  0  0
   -3.0733   -3.6045    0.1168 C   0  0  0  0  0  0  0  0  0  0  0  0
   -3.9875   -3.0355    0.3025 H   0  0  0  0  0  0  0  0  0  0  0  0
   -3.0449   -3.9044   -0.9336 H   0  0  0  0  0  0  0  0  0  0  0  0
   -1.8585   -2.7578    0.4481 C   0  0  0  0  0  0  0  0  0  0  0  0
   -1.1298   -3.0795    1.3694 O   0  0  0  0  0  0  0  0  0  0  0  0
   -1.5975   -1.6240   -0.2960 N   0  0  0  0  0  0  0  0  0  0  0  0
   -2.1470   -1.5273   -1.1454 H   0  0  0  0  0  0  0  0  0  0  0  0
   -0.3123   -0.8993   -0.2625 C   0  0  1  0  0  0  0  0  0  0  0  0
    0.4784   -1.5946   -0.5654 H   0  0  0  0  0  0  0  0  0  0  0  0
   -0.3450    0.2717   -1.2605 C   0  0  0  0  0  0  0  0  0  0  0  0
   -1.1303    0.9787   -0.9738 H   0  0  0  0  0  0  0  0  0  0  0  0
    0.6073    0.8122   -1.2147 H   0  0  0  0  0  0  0  0  0  0  0  0
   -0.5792   -0.2024   -2.6760 C   0  0  0  0  0  0  0  0  0  0  0  0
   -1.8806   -0.3218   -3.1908 C   0  0  0  0  0  0  0  0  0  0  0  0
   -2.7361   -0.0303   -2.5889 H   0  0  0  0  0  0  0  0  0  0  0  0
   -2.0885   -0.7958   -4.4906 C   0  0  0  0  0  0  0  0  0  0  0  0
   -3.0964   -0.8768   -4.8872 H   0  0  0  0  0  0  0  0  0  0  0  0
   -0.9973   -1.1605   -5.2847 C   0  0  0  0  0  0  0  0  0  0  0  0
   -1.1562   -1.5279   -6.2945 H   0  0  0  0  0  0  0  0  0  0  0  0
    0.3012   -1.0499   -4.7785 C   0  0  0  0  0  0  0  0  0  0  0  0
    1.1511   -1.3342   -5.3927 H   0  0  0  0  0  0  0  0  0  0  0  0
    0.5080   -0.5749   -3.4792 C   0  0  0  0  0  0  0  0  0  0  0  0
    1.5205   -0.5000   -3.0921 H   0  0  0  0  0  0  0  0  0  0  0  0
    0.0904   -0.3498    1.1224 C   0  0  0  0  0  0  0  0  0  0  0  0
    1.2764   -0.2596    1.4122 O   0  0  0  0  0  0  0  0  0  0  0  0
   -0.8457    0.2994    1.9071 N   0  0  0  0  0  0  0  0  0  0  0  0
   -1.8168    0.1011    1.6887 H   0  0  0  0  0  0  0  0  0  0  0  0
   -0.5250    0.8491    3.2182 C   0  0  0  0  0  0  0  0  0  0  0  0
    0.2710    1.5970    3.1377 H   0  0  0  0  0  0  0  0  0  0  0  0
   -1.4061    1.3313    3.6522 H   0  0  0  0  0  0  0  0  0  0  0  0
   -0.1943    0.0537    3.8944 H   0  0  0  0  0  0  0  0  0  0  0  0
  1  2  1  0  0  0  0
  2  3  1  0  0  0  0
  2  4  1  0  0  0  0
  2  5  1  0  0  0  0
  5  6  2  0  0  0  0
  5  7  1  0  0  0  0
  7  8  1  0  0  0  0
  7  9  1  0  0  0  0
  9 10  1  0  0  0  0
  9 11  1  0  0  0  0
  9 25  1  0  0  0  0
 11 12  1  0  0  0  0
 11 13  1  0  0  0  0
 11 14  1  0  0  0  0
 14 15  1  0  0  0  0
 14 23  2  0  0  0  0
 15 16  1  0  0  0  0
 15 17  2  0  0  0  0
 17 18  1  0  0  0  0
 17 19  1  0  0  0  0
 19 20  1  0  0  0  0
 19 21  2  0  0  0  0
 21 22  1  0  0  0  0
 21 23  1  0  0  0  0
 23 24  1  0  0  0  0
 25 26  2  0  0  0  0
 25 27  1  0  0  0  0
 27 28  1  0  0  0  0
 27 29  1  0  0  0  0
 29 30  1  0  0  0  0
 29 31  1  0  0  0  0
 29 32  1  0  0  0  0
M  END
$$$$

  -OEChem-03222214073D

 32 32  0     1  0  0  0  0  0999 V2000
   -3.1102   -4.4853    0.7092 H   0  0  0  0  0  0  0  0  0  0  0  0
   -3.0828   -3.5841    0.0898 C   0  0  0  0  0  0  0  0  0  0  0  0
   -3.9904   -3.0038    0.2716 H   0  0  0  0  0  0  0  0  0  0  0  0
   -3.0523   -3.8818   -0.9612 H   0  0  0  0  0  0  0  0  0  0  0  0
   -1.8590   -2.7539    0.4296 C   0  0  0  0  0  0  0  0  0  0  0  0
   -1.1375   -3.0887    1.3519 O   0  0  0  0  0  0  0  0  0  0  0  0
   -1.5800   -1.6206   -0.3081 N   0  0  0  0  0  0  0  0  0  0  0  0
   -2.1294   -1.5047   -1.1559 H   0  0  0  0  0  0  0  0  0  0  0  0
   -0.2918   -0.9021   -0.2572 C   0  0  1  0  0  0  0  0  0  0  0  0
    0.5016   -1.5967   -0.5544 H   0  0  0  0  0  0  0  0  0  0  0  0
   -0.3336    0.2673   -1.2550 C   0  0  0  0  0  0  0  0  0  0  0  0
   -1.1192    0.9728   -0.9659 H   0  0  0  0  0  0  0  0  0  0  0  0
    0.6177    0.8098   -1.2185 H   0  0  0  0  0  0  0  0  0  0  0  0
   -0.5649   -0.2233   -2.6648 C   0  0  0  0  0  0  0  0  0  0  0  0
   -1.8174   -0.0682   -3.2798 C   0  0  0  0  0  0  0  0  0  0  0  0
   -2.6285    0.4273   -2.7546 H   0  0  0  0  0  0  0  0  0  0  0  0
   -2.0327   -0.5424   -4.5784 C   0  0  0  0  0  0  0  0  0  0  0  0
   -3.0027   -0.4159   -5.0505 H   0  0  0  0  0  0  0  0  0  0  0  0
   -0.9968   -1.1744   -5.2730 C   0  0  0  0  0  0  0  0  0  0  0  0
   -1.1621   -1.5408   -6.2820 H   0  0  0  0  0  0  0  0  0  0  0  0
    0.2547   -1.3295   -4.6695 C   0  0  0  0  0  0  0  0  0  0  0  0
    1.0622   -1.8169   -5.2085 H   0  0  0  0  0  0  0  0  0  0  0  0
    0.4689   -0.8552   -3.3712 C   0  0  0  0  0  0  0  0  0  0  0  0
    1.4449   -0.9805   -2.9100 H   0  0  0  0  0  0  0  0  0  0  0  0
    0.0989   -0.3551    1.1318 C   0  0  0  0  0  0  0  0  0  0  0  0
    1.2823   -0.2731    1.4346 O   0  0  0  0  0  0  0  0  0  0  0  0
   -0.8415    0.2991    1.9072 N   0  0  0  0  0  0  0  0  0  0  0  0
   -1.8118    0.1117    1.6762 H   0  0  0  0  0  0  0  0  0  0  0  0
   -0.5307    0.8508    3.2200 C   0  0  0  0  0  0  0  0  0  0  0  0
    0.2666    1.5977    3.1439 H   0  0  0  0  0  0  0  0  0  0  0  0
   -1.4145    1.3347    3.6464 H   0  0  0  0  0  0  0  0  0  0  0  0
   -0.2057    0.0567    3.9004 H   0  0  0  0  0  0  0  0  0  0  0  0
  1  2  1  0  0  0  0
  2  3  1  0  0  0  0
  2  4  1  0  0  0  0
  2  5  1  0  0  0  0
  5  6  2  0  0  0  0
  5  7  1  0  0  0  0
  7  8  1  0  0  0  0
  7  9  1  0  0  0  0
  9 10  1  0  0  0  0
  9 11  1  0  0  0  0
  9 25  1  0  0  0  0
 11 12  1  0  0  0  0
 11 13  1  0  0  0  0
 11 14  1  0  0  0  0
 14 15  1  0  0  0  0
 14 23  2  0  0  0  0
 15 16  1  0  0  0  0
 15 17  2  0  0  0  0
 17 18  1  0  0  0  0
 17 19  1  0  0  0  0
 19 20  1  0  0  0  0
 19 21  2  0  0  0  0
 21 22  1  0  0  0  0
 21 23  1  0  0  0  0
 23 24  1  0  0  0  0
 25 26  2  0  0  0  0
 25 27  1  0  0  0  0
 27 28  1  0  0  0  0
 27 29  1  0  0  0  0
 29 30  1  0  0  0  0
 29 31  1  0  0  0  0
 29 32  1  0  0  0  0
M  END
$$$$

  -OEChem-03222214073D

 32 32  0     1  0  0  0  0  0999 V2000
   -3.1337   -4.4737    0.7519 H   0  0  0  0  0  0  0  0  0  0  0  0
   -3.0962   -3.5806    0.1214 C   0  0  0  0  0  0  0  0  0  0  0  0
   -3.9956   -2.9860    0.2987 H   0  0  0  0  0  0  0  0  0  0  0  0
   -3.0731   -3.8917   -0.9259 H   0  0  0  0  0  0  0  0  0  0  0  0
   -1.8603   -2.7632    0.4475 C   0  0  0  0  0  0  0  0  0  0  0  0
   -1.1346   -3.1029    1.3647 O   0  0  0  0  0  0  0  0  0  0  0  0
   -1.5717   -1.6373   -0.2976 N   0  0  0  0  0  0  0  0  0  0  0  0
   -2.1293   -1.5103   -1.1387 H   0  0  0  0  0  0  0  0  0  0  0  0
   -0.2823   -0.9216   -0.2452 C   0  0  1  0  0  0  0  0  0  0  0  0
    0.5129   -1.6204   -0.5253 H   0  0  0  0  0  0  0  0  0  0  0  0
   -0.3249    0.2371   -1.2558 C   0  0  0  0  0  0  0  0  0  0  0  0
   -1.1095    0.9448   -0.9687 H   0  0  0  0  0  0  0  0  0  0  0  0
    0.6273    0.7781   -1.2234 H   0  0  0  0  0  0  0  0  0  0  0  0
   -0.5527   -0.2546   -2.6683 C   0  0  0  0  0  0  0  0  0  0  0  0
   -1.6787    0.1687   -3.3917 C   0  0  0  0  0  0  0  0  0  0  0  0
   -2.3927    0.8528   -2.9430 H   0  0  0  0  0  0  0  0  0  0  0  0
   -1.8949   -0.2812   -4.6988 C   0  0  0  0  0  0  0  0  0  0  0  0
   -2.7690    0.0515   -5.2511 H   0  0  0  0  0  0  0  0  0  0  0  0
   -0.9816   -1.1529   -5.2988 C   0  0  0  0  0  0  0  0  0  0  0  0
   -1.1463   -1.5001   -6.3148 H   0  0  0  0  0  0  0  0  0  0  0  0
    0.1503   -1.5694   -4.5925 C   0  0  0  0  0  0  0  0  0  0  0  0
    0.8668   -2.2389   -5.0600 H   0  0  0  0  0  0  0  0  0  0  0  0
    0.3654   -1.1188   -3.2858 C   0  0  0  0  0  0  0  0  0  0  0  0
    1.2558   -1.4421   -2.7539 H   0  0  0  0  0  0  0  0  0  0  0  0
    0.0987   -0.3637    1.1424 C   0  0  0  0  0  0  0  0  0  0  0  0
    1.2798   -0.2804    1.4534 O   0  0  0  0  0  0  0  0  0  0  0  0
   -0.8465    0.2988    1.9049 N   0  0  0  0  0  0  0  0  0  0  0  0
   -1.8153    0.1112    1.6675 H   0  0  0  0  0  0  0  0  0  0  0  0
   -0.5452    0.8631    3.2147 C   0  0  0  0  0  0  0  0  0  0  0  0
    0.2542    1.6075    3.1377 H   0  0  0  0  0  0  0  0  0  0  0  0
   -1.4315    1.3531    3.6284 H   0  0  0  0  0  0  0  0  0  0  0  0
   -0.2275    0.0758    3.9063 H   0  0  0  0  0  0  0  0  0  0  0  0
  1  2  1  0  0  0  0
  2  3  1  0  0  0  0
  2  4  1  0  0  0  0
  2  5  1  0  0  0  0
  5  6  2  0  0  0  0
  5  7  1  0  0  0  0
  7  8  1  0  0  0  0
  7  9  1  0  0  0  0
  9 10  1  0  0  0  0
  9 11  1  0  0  0  0
  9 25  1  0  0  0  0
 11 12  1  0  0  0  0
 11 13  1  0  0  0  0
 11 14  1  0  0  0  0
 14 15  1  0  0  0  0
 14 23  2  0  0  0  0
 15 16  1  0  0  0  0
 15 17  2  0  0  0  0
 17 18  1  0  0  0  0
 17 19  1  0  0  0  0
 19 20  1  0  0  0  0
 19 21  2  0  0  0  0
 21 22  1  0  0  0  0
 21 23  1  0  0  0  0
 23 24  1  0  0  0  0
 25 26  2  0  0  0  0
 25 27  1  0  0  0  0
 27 28  1  0  0  0  0
 27 29  1  0  0  0  0
 29 30  1  0  0  0  0
 29 31  1  0  0  0  0
 29 32  1  0  0  0  0
M  END
$$$$

  -OEChem-03222214073D

 32 32  0     1  0  0  0  0  0999 V2000
   -3.1543   -4.4690    0.8246 H   0  0  0  0  0  0  0  0  0  0  0  0
   -3.1091   -3.5845    0.1826 C   0  0  0  0  0  0  0  0  0  0  0  0
   -3.9965   -2.9729    0.3619 H   0  0  0  0  0  0  0  0  0  0  0  0
   -3.1024   -3.9085   -0.8611 H   0  0  0  0  0  0  0  0  0  0  0  0
   -1.8571   -2.7828    0.4852 C   0  0  0  0  0  0  0  0  0  0  0  0
   -1.1253   -3.1229    1.3973 O   0  0  0  0  0  0  0  0  0  0  0  0
   -1.5595   -1.6704   -0.2766 N   0  0  0  0  0  0  0  0  0  0  0  0
   -2.1279   -1.5364   -1.1094 H   0  0  0  0  0  0  0  0  0  0  0  0
   -0.2708   -0.9538   -0.2291 C   0  0  1  0  0  0  0  0  0  0  0  0
    0.5298   -1.6539   -0.4861 H   0  0  0  0  0  0  0  0  0  0  0  0
   -0.3159    0.1909   -1.2578 C   0  0  0  0  0  0  0  0  0  0  0  0
   -1.1021    0.8977   -0.9728 H   0  0  0  0  0  0  0  0  0  0  0  0
    0.6351    0.7338   -1.2264 H   0  0  0  0  0  0  0  0  0  0  0  0
   -0.5406   -0.2898   -2.6781 C   0  0  0  0  0  0  0  0  0  0  0  0
   -1.4708    0.3728   -3.4950 C   0  0  0  0  0  0  0  0  0  0  0  0
   -2.0341    1.2171   -3.1084 H   0  0  0  0  0  0  0  0  0  0  0  0
   -1.6866   -0.0400   -4.8144 C   0  0  0  0  0  0  0  0  0  0  0  0
   -2.4117    0.4788   -5.4346 H   0  0  0  0  0  0  0  0  0  0  0  0
   -0.9633   -1.1144   -5.3383 C   0  0  0  0  0  0  0  0  0  0  0  0
   -1.1269   -1.4340   -6.3634 H   0  0  0  0  0  0  0  0  0  0  0  0
   -0.0175   -1.7679   -4.5443 C   0  0  0  0  0  0  0  0  0  0  0  0
    0.5579   -2.5934   -4.9536 H   0  0  0  0  0  0  0  0  0  0  0  0
    0.1982   -1.3534   -3.2256 C   0  0  0  0  0  0  0  0  0  0  0  0
    0.9545   -1.8649   -2.6383 H   0  0  0  0  0  0  0  0  0  0  0  0
    0.0950   -0.3730    1.1532 C   0  0  0  0  0  0  0  0  0  0  0  0
    1.2722   -0.2847    1.4770 O   0  0  0  0  0  0  0  0  0  0  0  0
   -0.8596    0.3004    1.8941 N   0  0  0  0  0  0  0  0  0  0  0  0
   -1.8257    0.1090    1.6488 H   0  0  0  0  0  0  0  0  0  0  0  0
   -0.5733    0.8884    3.1965 C   0  0  0  0  0  0  0  0  0  0  0  0
    0.2294    1.6290    3.1156 H   0  0  0  0  0  0  0  0  0  0  0  0
   -1.4633    1.3889    3.5892 H   0  0  0  0  0  0  0  0  0  0  0  0
   -0.2669    0.1131    3.9067 H   0  0  0  0  0  0  0  0  0  0  0  0
  1  2  1  0  0  0  0
  2  3  1  0  0  0  0
  2  4  1  0  0  0  0
  2  5  1  0  0  0  0
  5  6  2  0  0  0  0
  5  7  1  0  0  0  0
  7  8  1  0  0  0  0
  7  9  1  0  0  0  0
  9 10  1  0  0  0  0
  9 11  1  0  0  0  0
  9 25  1  0  0  0  0
 11 12  1  0  0  0  0
 11 13  1  0  0  0  0
 11 14  1  0  0  0  0
 14 15  1  0  0  0  0
 14 23  2  0  0  0  0
 15 16  1  0  0  0  0
 15 17  2  0  0  0  0
 17 18  1  0  0  0  0
 17 19  1  0  0  0  0
 19 20  1  0  0  0  0
 19 21  2  0  0  0  0
 21 22  1  0  0  0  0
 21 23  1  0  0  0  0
 23 24  1  0  0  0  0
 25 26  2  0  0  0  0
 25 27  1  0  0  0  0
 27 28  1  0  0  0  0
 27 29  1  0  0  0  0
 29 30  1  0  0  0  0
 29 31  1  0  0  0  0
 29 32  1  0  0  0  0
M  END
$$$$

  -OEChem-03222214073D

 32 32  0     1  0  0  0  0  0999 V2000
   -3.1584   -4.4763    0.8959 H   0  0  0  0  0  0  0  0  0  0  0  0
   -3.1111   -3.6018    0.2408 C   0  0  0  0  0  0  0  0  0  0  0  0
   -3.9941   -2.9824    0.4148 H   0  0  0  0  0  0  0  0  0  0  0  0
   -3.1109   -3.9416   -0.7977 H   0  0  0  0  0  0  0  0  0  0  0  0
   -1.8531   -2.8031    0.5263 C   0  0  0  0  0  0  0  0  0  0  0  0
   -1.1152   -3.1373    1.4357 O   0  0  0  0  0  0  0  0  0  0  0  0
   -1.5532   -1.7040   -0.2533 N   0  0  0  0  0  0  0  0  0  0  0  0
   -2.1325   -1.5685   -1.0785 H   0  0  0  0  0  0  0  0  0  0  0  0
   -0.2666   -0.9830   -0.2135 C   0  0  1  0  0  0  0  0  0  0  0  0
    0.5419   -1.6807   -0.4517 H   0  0  0  0  0  0  0  0  0  0  0  0
   -0.3115    0.1451   -1.2605 C   0  0  0  0  0  0  0  0  0  0  0  0
   -1.1023    0.8503   -0.9836 H   0  0  0  0  0  0  0  0  0  0  0  0
    0.6375    0.6914   -1.2263 H   0  0  0  0  0  0  0  0  0  0  0  0
   -0.5299   -0.3221   -2.6892 C   0  0  0  0  0  0  0  0  0  0  0  0
   -1.2010    0.5304   -3.5807 C   0  0  0  0  0  0  0  0  0  0  0  0
   -1.5621    1.4971   -3.2418 H   0  0  0  0  0  0  0  0  0  0  0  0
   -1.4137    0.1561   -4.9117 C   0  0  0  0  0  0  0  0  0  0  0  0
   -1.9368    0.8261   -5.5881 H   0  0  0  0  0  0  0  0  0  0  0  0
   -0.9462   -1.0761   -5.3745 C   0  0  0  0  0  0  0  0  0  0  0  0
   -1.1068   -1.3671   -6.4087 H   0  0  0  0  0  0  0  0  0  0  0  0
   -0.2584   -1.9272   -4.5064 C   0  0  0  0  0  0  0  0  0  0  0  0
    0.1196   -2.8794   -4.8677 H   0  0  0  0  0  0  0  0  0  0  0  0
   -0.0447   -1.5512   -3.1759 C   0  0  0  0  0  0  0  0  0  0  0  0
    0.5115   -2.2299   -2.5379 H   0  0  0  0  0  0  0  0  0  0  0  0
    0.0886   -0.3769    1.1612 C   0  0  0  0  0  0  0  0  0  0  0  0
    1.2630   -0.2814    1.4923 O   0  0  0  0  0  0  0  0  0  0  0  0
   -0.8724    0.3064    1.8852 N   0  0  0  0  0  0  0  0  0  0  0  0
   -1.8369    0.1145    1.6343 H   0  0  0  0  0  0  0  0  0  0  0  0
   -0.5955    0.9272    3.1746 C   0  0  0  0  0  0  0  0  0  0  0  0
    0.2025    1.6711    3.0796 H   0  0  0  0  0  0  0  0  0  0  0  0
   -1.4903    1.4309    3.5522 H   0  0  0  0  0  0  0  0  0  0  0  0
   -0.2873    0.1710    3.9042 H   0  0  0  0  0  0  0  0  0  0  0  0
  1  2  1  0  0  0  0
  2  3  1  0  0  0  0
  2  4  1  0  0  0  0
  2  5  1  0  0  0  0
  5  6  2  0  0  0  0
  5  7  1  0  0  0  0
  7  8  1  0  0  0  0
  7  9  1  0  0  0  0
  9 10  1  0  0  0  0
  9 11  1  0  0  0  0
  9 25  1  0  0  0  0
 11 12  1  0  0  0  0
 11 13  1  0  0  0  0
 11 14  1  0  0  0  0
 14 15  1  0  0  0  0
 14 23  2  0  0  0  0
 15 16  1  0  0  0  0
 15 17  2  0  0  0  0
 17 18  1  0  0  0  0
 17 19  1  0  0  0  0
 19 20  1  0  0  0  0
 19 21  2  0  0  0  0
 21 22  1  0  0  0  0
 21 23  1  0  0  0  0
 23 24  1  0  0  0  0
 25 26  2  0  0  0  0
 25 27  1  0  0  0  0
 27 28  1  0  0  0  0
 27 29  1  0  0  0  0
 29 30  1  0  0  0  0
 29 31  1  0  0  0  0
 29 32  1  0  0  0  0
M  END
$$$$

  -OEChem-03222214073D

 32 32  0     1  0  0  0  0  0999 V2000
   -3.1564   -4.4762    0.9798 H   0  0  0  0  0  0  0  0  0  0  0  0
   -3.1228   -3.6033    0.3216 C   0  0  0  0  0  0  0  0  0  0  0  0
   -3.9940   -2.9757    0.5240 H   0  0  0  0  0  0  0  0  0  0  0  0
   -3.1598   -3.9447   -0.7158 H   0  0  0  0  0  0  0  0  0  0  0  0
   -1.8485   -2.8162    0.5634 C   0  0  0  0  0  0  0  0  0  0  0  0
   -1.0868   -3.1528    1.4519 O   0  0  0  0  0  0  0  0  0  0  0  0
   -1.5593   -1.7248   -0.2312 N   0  0  0  0  0  0  0  0  0  0  0  0
   -2.1670   -1.5750   -1.0332 H   0  0  0  0  0  0  0  0  0  0  0  0
   -0.2759   -0.9955   -0.2117 C   0  0  1  0  0  0  0  0  0  0  0  0
    0.5349   -1.6915   -0.4507 H   0  0  0  0  0  0  0  0  0  0  0  0
   -0.3216    0.1174   -1.2750 C   0  0  0  0  0  0  0  0  0  0  0  0
   -1.1146    0.8238   -1.0081 H   0  0  0  0  0  0  0  0  0  0  0  0
    0.6268    0.6650   -1.2408 H   0  0  0  0  0  0  0  0  0  0  0  0
   -0.5382   -0.3449   -2.7065 C   0  0  0  0  0  0  0  0  0  0  0  0
   -0.9082    0.6159   -3.6606 C   0  0  0  0  0  0  0  0  0  0  0  0
   -1.0499    1.6504   -3.3613 H   0  0  0  0  0  0  0  0  0  0  0  0
   -1.0979    0.2652   -5.0012 C   0  0  0  0  0  0  0  0  0  0  0  0
   -1.3854    1.0224   -5.7248 H   0  0  0  0  0  0  0  0  0  0  0  0
   -0.9099   -1.0566   -5.4108 C   0  0  0  0  0  0  0  0  0  0  0  0
   -1.0521   -1.3297   -6.4526 H   0  0  0  0  0  0  0  0  0  0  0  0
   -0.5244   -2.0232   -4.4791 C   0  0  0  0  0  0  0  0  0  0  0  0
   -0.3634   -3.0492   -4.7979 H   0  0  0  0  0  0  0  0  0  0  0  0
   -0.3323   -1.6702   -3.1390 C   0  0  0  0  0  0  0  0  0  0  0  0
   -0.0121   -2.4460   -2.4515 H   0  0  0  0  0  0  0  0  0  0  0  0
    0.0834   -0.3725    1.1538 C   0  0  0  0  0  0  0  0  0  0  0  0
    1.2584   -0.2671    1.4797 O   0  0  0  0  0  0  0  0  0  0  0  0
   -0.8789    0.3117    1.8748 N   0  0  0  0  0  0  0  0  0  0  0  0
   -1.8428    0.1136    1.6273 H   0  0  0  0  0  0  0  0  0  0  0  0
   -0.6024    0.9337    3.1634 C   0  0  0  0  0  0  0  0  0  0  0  0
    0.1993    1.6739    3.0685 H   0  0  0  0  0  0  0  0  0  0  0  0
   -1.4964    1.4416    3.5374 H   0  0  0  0  0  0  0  0  0  0  0  0
   -0.2990    0.1772    3.8951 H   0  0  0  0  0  0  0  0  0  0  0  0
  1  2  1  0  0  0  0
  2  3  1  0  0  0  0
  2  4  1  0  0  0  0
  2  5  1  0  0  0  0
  5  6  2  0  0  0  0
  5  7  1  0  0  0  0
  7  8  1  0  0  0  0
  7  9  1  0  0  0  0
  9 10  1  0  0  0  0
  9 11  1  0  0  0  0
  9 25  1  0  0  0  0
 11 12  1  0  0  0  0
 11 13  1  0  0  0  0
 11 14  1  0  0  0  0
 14 15  1  0  0  0  0
 14 23  2  0  0  0  0
 15 16  1  0  0  0  0
 15 17  2  0  0  0  0
 17 18  1  0  0  0  0
 17 19  1  0  0  0  0
 19 20  1  0  0  0  0
 19 21  2  0  0  0  0
 21 22  1  0  0  0  0
 21 23  1  0  0  0  0
 23 24  1  0  0  0  0
 25 26  2  0  0  0  0
 25 27  1  0  0  0  0
 27 28  1  0  0  0  0
 27 29  1  0  0  0  0
 29 30  1  0  0  0  0
 29 31  1  0  0  0  0
 29 32  1  0  0  0  0
M  END
$$$$

  -OEChem-03222214073D

 32 32  0     1  0  0  0  0  0999 V2000
   -3.1430   -4.4980    1.2743 H   0  0  0  0  0  0  0  0  0  0  0  0
   -3.1516   -3.6521    0.5808 C   0  0  0  0  0  0  0  0  0  0  0  0
   -3.9950   -3.0031    0.8284 H   0  0  0  0  0  0  0  0  0  0  0  0
   -3.2793   -4.0325   -0.4356 H   0  0  0  0  0  0  0  0  0  0  0  0
   -1.8507   -2.8783    0.6858 C   0  0  0  0  0  0  0  0  0  0  0  0
   -1.0009   -3.2237    1.4864 O   0  0  0  0  0  0  0  0  0  0  0  0
   -1.6370   -1.7873   -0.1328 N   0  0  0  0  0  0  0  0  0  0  0  0
   -2.3470   -1.5891   -0.8337 H   0  0  0  0  0  0  0  0  0  0  0  0
   -0.3771   -1.0207   -0.1999 C   0  0  1  0  0  0  0  0  0  0  0  0
    0.4172   -1.7258   -0.4690 H   0  0  0  0  0  0  0  0  0  0  0  0
   -0.4302    0.0605   -1.3018 C   0  0  0  0  0  0  0  0  0  0  0  0
   -1.0354    0.8920   -0.9257 H   0  0  0  0  0  0  0  0  0  0  0  0
    0.5880    0.4409   -1.4396 H   0  0  0  0  0  0  0  0  0  0  0  0
   -0.9811   -0.3089   -2.6736 C   0  0  0  0  0  0  0  0  0  0  0  0
   -1.0153    0.7101   -3.6401 C   0  0  0  0  0  0  0  0  0  0  0  0
   -0.7291    1.7219   -3.3669 H   0  0  0  0  0  0  0  0  0  0  0  0
   -1.4293    0.4565   -4.9514 C   0  0  0  0  0  0  0  0  0  0  0  0
   -1.4683    1.2664   -5.6740 H   0  0  0  0  0  0  0  0  0  0  0  0
   -1.7794   -0.8390   -5.3342 C   0  0  0  0  0  0  0  0  0  0  0  0
   -2.0965   -1.0393   -6.3536 H   0  0  0  0  0  0  0  0  0  0  0  0
   -1.6884   -1.8805   -4.4093 C   0  0  0  0  0  0  0  0  0  0  0  0
   -1.9184   -2.8967   -4.7166 H   0  0  0  0  0  0  0  0  0  0  0  0
   -1.2730   -1.6228   -3.0982 C   0  0  0  0  0  0  0  0  0  0  0  0
   -1.1489   -2.4770   -2.4428 H   0  0  0  0  0  0  0  0  0  0  0  0
    0.0517   -0.3698    1.1320 C   0  0  0  0  0  0  0  0  0  0  0  0
    1.2416   -0.2246    1.3789 O   0  0  0  0  0  0  0  0  0  0  0  0
   -0.8814    0.2967    1.9062 N   0  0  0  0  0  0  0  0  0  0  0  0
   -1.8551    0.0844    1.7153 H   0  0  0  0  0  0  0  0  0  0  0  0
   -0.5407    0.9609    3.1580 C   0  0  0  0  0  0  0  0  0  0  0  0
    0.2248    1.7261    2.9909 H   0  0  0  0  0  0  0  0  0  0  0  0
   -1.4250    1.4466    3.5812 H   0  0  0  0  0  0  0  0  0  0  0  0
   -0.1603    0.2347    3.8842 H   0  0  0  0  0  0  0  0  0  0  0  0
  1  2  1  0  0  0  0
  2  3  1  0  0  0  0
  2  4  1  0  0  0  0
  2  5  1  0  0  0  0
  5  6  2  0  0  0  0
  5  7  1  0  0  0  0
  7  8  1  0  0  0  0
  7  9  1  0  0  0  0
  9 10  1  0  0  0  0
  9 11  1  0  0  0  0
  9 25  1  0  0  0  0
 11 12  1  0  0  0  0
 11 13  1  0  0  0  0
 11 14  1  0  0  0  0
 14 15  1  0  0  0  0
 14 23  2  0  0  0  0
 15 16  1  0  0  0  0
 15 17  2  0  0  0  0
 17 18  1  0  0  0  0
 17 19  1  0  0  0  0
 19 20  1  0  0  0  0
 19 21  2  0  0  0  0
 21 22  1  0  0  0  0
 21 23  1  0  0  0  0
 23 24  1  0  0  0  0
 25 26  2  0  0  0  0
 25 27  1  0  0  0  0
 27 28  1  0  0  0  0
 27 29  1  0  0  0  0
 29 30  1  0  0  0  0
 29 31  1  0  0  0  0
 29 32  1  0  0  0  0
M  END
$$$$

  -OEChem-03222214073D

 32 32  0     1  0  0  0  0  0999 V2000
   -3.0897   -4.5010    1.4426 H   0  0  0  0  0  0  0  0  0  0  0  0
   -3.1256   -3.6721    0.7298 C   0  0  0  0  0  0  0  0  0  0  0  0
   -3.9469   -3.0063    1.0056 H   0  0  0  0  0  0  0  0  0  0  0  0
   -3.3115   -4.0761   -0.2682 H   0  0  0  0  0  0  0  0  0  0  0  0
   -1.8124   -2.9121    0.7465 C   0  0  0  0  0  0  0  0  0  0  0  0
   -0.9215   -3.2544    1.5025 O   0  0  0  0  0  0  0  0  0  0  0  0
   -1.6393   -1.8295   -0.0931 N   0  0  0  0  0  0  0  0  0  0  0  0
   -2.4049   -1.6001   -0.7211 H   0  0  0  0  0  0  0  0  0  0  0  0
   -0.3993   -1.0399   -0.2029 C   0  0  1  0  0  0  0  0  0  0  0  0
    0.3990   -1.7428   -0.4672 H   0  0  0  0  0  0  0  0  0  0  0  0
   -0.4541    0.0213   -1.3272 C   0  0  0  0  0  0  0  0  0  0  0  0
   -1.0613    0.8553   -0.9605 H   0  0  0  0  0  0  0  0  0  0  0  0
    0.5664    0.4014   -1.4504 H   0  0  0  0  0  0  0  0  0  0  0  0
   -0.9919   -0.3239   -2.7157 C   0  0  0  0  0  0  0  0  0  0  0  0
   -0.7010    0.6033   -3.7324 C   0  0  0  0  0  0  0  0  0  0  0  0
   -0.1719    1.5208   -3.4903 H   0  0  0  0  0  0  0  0  0  0  0  0
   -1.0923    0.3872   -5.0571 C   0  0  0  0  0  0  0  0  0  0  0  0
   -0.8713    1.1310   -5.8172 H   0  0  0  0  0  0  0  0  0  0  0  0
   -1.7594   -0.7874   -5.4034 C   0  0  0  0  0  0  0  0  0  0  0  0
   -2.0618   -0.9609   -6.4322 H   0  0  0  0  0  0  0  0  0  0  0  0
   -2.0134   -1.7489   -4.4251 C   0  0  0  0  0  0  0  0  0  0  0  0
   -2.5008   -2.6798   -4.6997 H   0  0  0  0  0  0  0  0  0  0  0  0
   -1.6215   -1.5291   -3.0996 C   0  0  0  0  0  0  0  0  0  0  0  0
   -1.7962   -2.3467   -2.4153 H   0  0  0  0  0  0  0  0  0  0  0  0
    0.0403   -0.3636    1.1132 C   0  0  0  0  0  0  0  0  0  0  0  0
    1.2310   -0.1945    1.3393 O   0  0  0  0  0  0  0  0  0  0  0  0
   -0.8917    0.2920    1.8983 N   0  0  0  0  0  0  0  0  0  0  0  0
   -1.8654    0.0690    1.7208 H   0  0  0  0  0  0  0  0  0  0  0  0
   -0.5419    0.9673    3.1419 C   0  0  0  0  0  0  0  0  0  0  0  0
    0.2100    1.7426    2.9605 H   0  0  0  0  0  0  0  0  0  0  0  0
   -1.4267    1.4423    3.5762 H   0  0  0  0  0  0  0  0  0  0  0  0
   -0.1404    0.2501    3.8655 H   0  0  0  0  0  0  0  0  0  0  0  0
  1  2  1  0  0  0  0
  2  3  1  0  0  0  0
  2  4  1  0  0  0  0
  2  5  1  0  0  0  0
  5  6  2  0  0  0  0
  5  7  1  0  0  0  0
  7  8  1  0  0  0  0
  7  9  1  0  0  0  0
  9 10  1  0  0  0  0
  9 11  1  0  0  0  0
  9 25  1  0  0  0  0
 11 12  1  0  0  0  0
 11 13  1  0  0  0  0
 11 14  1  0  0  0  0
 14 15  1  0  0  0  0
 14 23  2  0  0  0  0
 15 16  1  0  0  0  0
 15 17  2  0  0  0  0
 17 18  1  0  0  0  0
 17 19  1  0  0  0  0
 19 20  1  0  0  0  0
 19 21  2  0  0  0  0
 21 22  1  0  0  0  0
 21 23  1  0  0  0  0
 23 24  1  0  0  0  0
 25 26  2  0  0  0  0
 25 27  1  0  0  0  0
 27 28  1  0  0  0  0
 27 29  1  0  0  0  0
 29 30  1  0  0  0  0
 29 31  1  0  0  0  0
 29 32  1  0  0  0  0
M  END
$$$$

  -OEChem-03222214073D

 32 32  0     1  0  0  0  0  0999 V2000
   -3.0073   -4.5271    1.5275 H   0  0  0  0  0  0  0  0  0  0  0  0
   -3.0738   -3.7051    0.8089 C   0  0  0  0  0  0  0  0  0  0  0  0
   -3.8763   -3.0317    1.1187 H   0  0  0  0  0  0  0  0  0  0  0  0
   -3.3106   -4.1175   -0.1749 H   0  0  0  0  0  0  0  0  0  0  0  0
   -1.7568   -2.9539    0.7533 C   0  0  0  0  0  0  0  0  0  0  0  0
   -0.8287   -3.3026    1.4600 O   0  0  0  0  0  0  0  0  0  0  0  0
   -1.6249   -1.8670   -0.0885 N   0  0  0  0  0  0  0  0  0  0  0  0
   -2.4415   -1.5934   -0.6249 H   0  0  0  0  0  0  0  0  0  0  0  0
   -0.4065   -1.0506   -0.2157 C   0  0  1  0  0  0  0  0  0  0  0  0
    0.3997   -1.7452   -0.4777 H   0  0  0  0  0  0  0  0  0  0  0  0
   -0.4489    0.0097   -1.3443 C   0  0  0  0  0  0  0  0  0  0  0  0
   -1.0655    0.8416   -0.9888 H   0  0  0  0  0  0  0  0  0  0  0  0
    0.5723    0.3944   -1.4438 H   0  0  0  0  0  0  0  0  0  0  0  0
   -0.9662   -0.3361   -2.7424 C   0  0  0  0  0  0  0  0  0  0  0  0
   -0.3982    0.3904   -3.8059 C   0  0  0  0  0  0  0  0  0  0  0  0
    0.3672    1.1351   -3.6068 H   0  0  0  0  0  0  0  0  0  0  0  0
   -0.7906    0.1820   -5.1313 C   0  0  0  0  0  0  0  0  0  0  0  0
   -0.3296    0.7545   -5.9308 H   0  0  0  0  0  0  0  0  0  0  0  0
   -1.7735   -0.7615   -5.4265 C   0  0  0  0  0  0  0  0  0  0  0  0
   -2.0801   -0.9269   -6.4555 H   0  0  0  0  0  0  0  0  0  0  0  0
   -2.3597   -1.4910   -4.3923 C   0  0  0  0  0  0  0  0  0  0  0  0
   -3.1247   -2.2270   -4.6218 H   0  0  0  0  0  0  0  0  0  0  0  0
   -1.9648   -1.2813   -3.0657 C   0  0  0  0  0  0  0  0  0  0  0  0
   -2.4673   -1.8875   -2.3291 H   0  0  0  0  0  0  0  0  0  0  0  0
    0.0316   -0.3687    1.0986 C   0  0  0  0  0  0  0  0  0  0  0  0
    1.2200   -0.1696    1.3123 O   0  0  0  0  0  0  0  0  0  0  0  0
   -0.9062    0.2621    1.8974 N   0  0  0  0  0  0  0  0  0  0  0  0
   -1.8778    0.0258    1.7276 H   0  0  0  0  0  0  0  0  0  0  0  0
   -0.5571    0.9556    3.1311 C   0  0  0  0  0  0  0  0  0  0  0  0
    0.1615    1.7572    2.9304 H   0  0  0  0  0  0  0  0  0  0  0  0
   -1.4498    1.3998    3.5816 H   0  0  0  0  0  0  0  0  0  0  0  0
   -0.1149    0.2574    3.8496 H   0  0  0  0  0  0  0  0  0  0  0  0
  1  2  1  0  0  0  0
  2  3  1  0  0  0  0
  2  4  1  0  0  0  0
  2  5  1  0  0  0  0
  5  6  2  0  0  0  0
  5  7  1  0  0  0  0
  7  8  1  0  0  0  0
  7  9  1  0  0  0  0
  9 10  1  0  0  0  0
  9 11  1  0  0  0  0
  9 25  1  0  0  0  0
 11 12  1  0  0  0  0
 11 13  1  0  0  0  0
 11 14  1  0  0  0  0
 14 15  1  0  0  0  0
 14 23  2  0  0  0  0
 15 16  1  0  0  0  0
 15 17  2  0  0  0  0
 17 18  1  0  0  0  0
 17 19  1  0  0  0  0
 19 20  1  0  0  0  0
 19 21  2  0  0  0  0
 21 22  1  0  0  0  0
 21 23  1  0  0  0  0
 23 24  1  0  0  0  0
 25 26  2  0  0  0  0
 25 27  1  0  0  0  0
 27 28  1  0  0  0  0
 27 29  1  0  0  0  0
 29 30  1  0  0  0  0
 29 31  1  0  0  0  0
 29 32  1  0  0  0  0
M  END
$$$$

  -OEChem-03222214073D

 32 32  0     1  0  0  0  0  0999 V2000
   -2.9496   -4.6361    1.3311 H   0  0  0  0  0  0  0  0  0  0  0  0
   -2.9821   -3.8367    0.5853 C   0  0  0  0  0  0  0  0  0  0  0  0
   -3.9226   -3.2917    0.6952 H   0  0  0  0  0  0  0  0  0  0  0  0
   -2.9414   -4.2845   -0.4107 H   0  0  0  0  0  0  0  0  0  0  0  0
   -1.8090   -2.8944    0.7792 C   0  0  0  0  0  0  0  0  0  0  0  0
   -1.0304   -3.0821    1.6964 O   0  0  0  0  0  0  0  0  0  0  0  0
   -1.6399   -1.8326   -0.0892 N   0  0  0  0  0  0  0  0  0  0  0  0
   -2.2132   -1.8759   -0.9232 H   0  0  0  0  0  0  0  0  0  0  0  0
   -0.3894   -1.0578   -0.1936 C   0  0  1  0  0  0  0  0  0  0  0  0
    0.4032   -1.7748   -0.4350 H   0  0  0  0  0  0  0  0  0  0  0  0
   -0.3814    0.0184   -1.3104 C   0  0  0  0  0  0  0  0  0  0  0  0
   -0.9766    0.8711   -0.9668 H   0  0  0  0  0  0  0  0  0  0  0  0
    0.6494    0.3754   -1.4120 H   0  0  0  0  0  0  0  0  0  0  0  0
   -0.9169   -0.3633   -2.6844 C   0  0  0  0  0  0  0  0  0  0  0  0
   -0.1686    0.0171   -3.8127 C   0  0  0  0  0  0  0  0  0  0  0  0
    0.8087    0.4746   -3.6885 H   0  0  0  0  0  0  0  0  0  0  0  0
   -0.6398   -0.2089   -5.1099 C   0  0  0  0  0  0  0  0  0  0  0  0
   -0.0264    0.0613   -5.9646 H   0  0  0  0  0  0  0  0  0  0  0  0
   -1.9013   -0.7719   -5.3057 C   0  0  0  0  0  0  0  0  0  0  0  0
   -2.2695   -0.9471   -6.3126 H   0  0  0  0  0  0  0  0  0  0  0  0
   -2.7004   -1.0732   -4.2021 C   0  0  0  0  0  0  0  0  0  0  0  0
   -3.7035   -1.4609   -4.3540 H   0  0  0  0  0  0  0  0  0  0  0  0
   -2.2240   -0.8449   -2.9063 C   0  0  0  0  0  0  0  0  0  0  0  0
   -2.9193   -1.0030   -2.0926 H   0  0  0  0  0  0  0  0  0  0  0  0
    0.0362   -0.3621    1.1183 C   0  0  0  0  0  0  0  0  0  0  0  0
    1.2259   -0.1929    1.3527 O   0  0  0  0  0  0  0  0  0  0  0  0
   -0.9024    0.3162    1.8749 N   0  0  0  0  0  0  0  0  0  0  0  0
   -1.8711    0.0642    1.7069 H   0  0  0  0  0  0  0  0  0  0  0  0
   -0.5643    1.0031    3.1147 C   0  0  0  0  0  0  0  0  0  0  0  0
    0.1659    1.7971    2.9266 H   0  0  0  0  0  0  0  0  0  0  0  0
   -1.4592    1.4551    3.5525 H   0  0  0  0  0  0  0  0  0  0  0  0
   -0.1408    0.2985    3.8382 H   0  0  0  0  0  0  0  0  0  0  0  0
  1  2  1  0  0  0  0
  2  3  1  0  0  0  0
  2  4  1  0  0  0  0
  2  5  1  0  0  0  0
  5  6  2  0  0  0  0
  5  7  1  0  0  0  0
  7  8  1  0  0  0  0
  7  9  1  0  0  0  0
  9 10  1  0  0  0  0
  9 11  1  0  0  0  0
  9 25  1  0  0  0  0
 11 12  1  0  0  0  0
 11 13  1  0  0  0  0
 11 14  1  0  0  0  0
 14 15  1  0  0  0  0
 14 23  2  0  0  0  0
 15 16  1  0  0  0  0
 15 17  2  0  0  0  0
 17 18  1  0  0  0  0
 17 19  1  0  0  0  0
 19 20  1  0  0  0  0
 19 21  2  0  0  0  0
 21 22  1  0  0  0  0
 21 23  1  0  0  0  0
 23 24  1  0  0  0  0
 25 26  2  0  0  0  0
 25 27  1  0  0  0  0
 27 28  1  0  0  0  0
 27 29  1  0  0  0  0
 29 30  1  0  0  0  0
 29 31  1  0  0  0  0
 29 32  1  0  0  0  0
M  END
$$$$

  -OEChem-03222214073D

 32 32  0     1  0  0  0  0  0999 V2000
   -2.9705   -4.6403    1.1136 H   0  0  0  0  0  0  0  0  0  0  0  0
   -3.0116   -3.7838    0.4348 C   0  0  0  0  0  0  0  0  0  0  0  0
   -3.9446   -3.2421    0.6076 H   0  0  0  0  0  0  0  0  0  0  0  0
   -2.9958   -4.1521   -0.5940 H   0  0  0  0  0  0  0  0  0  0  0  0
   -1.8267   -2.8676    0.6781 C   0  0  0  0  0  0  0  0  0  0  0  0
   -1.0658   -3.0969    1.6007 O   0  0  0  0  0  0  0  0  0  0  0  0
   -1.6281   -1.7792   -0.1492 N   0  0  0  0  0  0  0  0  0  0  0  0
   -2.1889   -1.7797   -0.9956 H   0  0  0  0  0  0  0  0  0  0  0  0
   -0.3676   -1.0145   -0.2050 C   0  0  1  0  0  0  0  0  0  0  0  0
    0.4247   -1.7246   -0.4665 H   0  0  0  0  0  0  0  0  0  0  0  0
   -0.3739    0.0894   -1.2888 C   0  0  0  0  0  0  0  0  0  0  0  0
   -0.9766    0.9305   -0.9307 H   0  0  0  0  0  0  0  0  0  0  0  0
    0.6500    0.4618   -1.4041 H   0  0  0  0  0  0  0  0  0  0  0  0
   -0.9242   -0.3256   -2.6413 C   0  0  0  0  0  0  0  0  0  0  0  0
   -0.0963   -0.2508   -3.7729 C   0  0  0  0  0  0  0  0  0  0  0  0
    0.9514    0.0156   -3.6646 H   0  0  0  0  0  0  0  0  0  0  0  0
   -0.5927   -0.5412   -5.0480 C   0  0  0  0  0  0  0  0  0  0  0  0
    0.0697   -0.5070   -5.9082 H   0  0  0  0  0  0  0  0  0  0  0  0
   -1.9407   -0.8652   -5.2168 C   0  0  0  0  0  0  0  0  0  0  0  0
   -2.3264   -1.0878   -6.2076 H   0  0  0  0  0  0  0  0  0  0  0  0
   -2.7951   -0.8730   -4.1119 C   0  0  0  0  0  0  0  0  0  0  0  0
   -3.8522   -1.0826   -4.2481 H   0  0  0  0  0  0  0  0  0  0  0  0
   -2.2942   -0.5844   -2.8380 C   0  0  0  0  0  0  0  0  0  0  0  0
   -2.9927   -0.5288   -2.0097 H   0  0  0  0  0  0  0  0  0  0  0  0
    0.0513   -0.3632    1.1307 C   0  0  0  0  0  0  0  0  0  0  0  0
    1.2403   -0.2127    1.3802 O   0  0  0  0  0  0  0  0  0  0  0  0
   -0.8868    0.3048    1.8971 N   0  0  0  0  0  0  0  0  0  0  0  0
   -1.8565    0.0671    1.7150 H   0  0  0  0  0  0  0  0  0  0  0  0
   -0.5525    0.9606    3.1547 C   0  0  0  0  0  0  0  0  0  0  0  0
    0.2109    1.7294    2.9954 H   0  0  0  0  0  0  0  0  0  0  0  0
   -1.4397    1.4404    3.5790 H   0  0  0  0  0  0  0  0  0  0  0  0
   -0.1723    0.2299    3.8762 H   0  0  0  0  0  0  0  0  0  0  0  0
  1  2  1  0  0  0  0
  2  3  1  0  0  0  0
  2  4  1  0  0  0  0
  2  5  1  0  0  0  0
  5  6  2  0  0  0  0
  5  7  1  0  0  0  0
  7  8  1  0  0  0  0
  7  9  1  0  0  0  0
  9 10  1  0  0  0  0
  9 11  1  0  0  0  0
  9 25  1  0  0  0  0
 11 12  1  0  0  0  0
 11 13  1  0  0  0  0
 11 14  1  0  0  0  0
 14 15  1  0  0  0  0
 14 23  2  0  0  0  0
 15 16  1  0  0  0  0
 15 17  2  0  0  0  0
 17 18  1  0  0  0  0
 17 19  1  0  0  0  0
 19 20  1  0  0  0  0
 19 21  2  0  0  0  0
 21 22  1  0  0  0  0
 21 23  1  0  0  0  0
 23 24  1  0  0  0  0
 25 26  2  0  0  0  0
 25 27  1  0  0  0  0
 27 28  1  0  0  0  0
 27 29  1  0  0  0  0
 29 30  1  0  0  0  0
 29 31  1  0  0  0  0
 29 32  1  0  0  0  0
M  END
$$$$

  -OEChem-03222214073D

 32 32  0     1  0  0  0  0  0999 V2000
   -3.0348   -4.5848    0.9792 H   0  0  0  0  0  0  0  0  0  0  0  0
   -3.0531   -3.7099    0.3228 C   0  0  0  0  0  0  0  0  0  0  0  0
   -3.9738   -3.1509    0.5060 H   0  0  0  0  0  0  0  0  0  0  0  0
   -3.0412   -4.0508   -0.7153 H   0  0  0  0  0  0  0  0  0  0  0  0
   -1.8485   -2.8281    0.5943 C   0  0  0  0  0  0  0  0  0  0  0  0
   -1.0946   -3.0995    1.5114 O   0  0  0  0  0  0  0  0  0  0  0  0
   -1.6255   -1.7191   -0.1978 N   0  0  0  0  0  0  0  0  0  0  0  0
   -2.1919   -1.6687   -1.0404 H   0  0  0  0  0  0  0  0  0  0  0  0
   -0.3547   -0.9684   -0.2201 C   0  0  1  0  0  0  0  0  0  0  0  0
    0.4333   -1.6762   -0.4999 H   0  0  0  0  0  0  0  0  0  0  0  0
   -0.3713    0.1551   -1.2788 C   0  0  0  0  0  0  0  0  0  0  0  0
   -0.9738    0.9904   -0.9069 H   0  0  0  0  0  0  0  0  0  0  0  0
    0.6487    0.5328   -1.4094 H   0  0  0  0  0  0  0  0  0  0  0  0
   -0.9341   -0.2792   -2.6161 C   0  0  0  0  0  0  0  0  0  0  0  0
   -0.0714   -0.5097   -3.6979 C   0  0  0  0  0  0  0  0  0  0  0  0
    1.0037   -0.4285   -3.5643 H   0  0  0  0  0  0  0  0  0  0  0  0
   -0.5793   -0.8628   -4.9526 C   0  0  0  0  0  0  0  0  0  0  0  0
    0.1008   -1.0559   -5.7772 H   0  0  0  0  0  0  0  0  0  0  0  0
   -1.9599   -0.9615   -5.1465 C   0  0  0  0  0  0  0  0  0  0  0  0
   -2.3534   -1.2325   -6.1222 H   0  0  0  0  0  0  0  0  0  0  0  0
   -2.8320   -0.6933   -4.0877 C   0  0  0  0  0  0  0  0  0  0  0  0
   -3.9054   -0.7455   -4.2453 H   0  0  0  0  0  0  0  0  0  0  0  0
   -2.3219   -0.3414   -2.8334 C   0  0  0  0  0  0  0  0  0  0  0  0
   -3.0124   -0.0987   -2.0309 H   0  0  0  0  0  0  0  0  0  0  0  0
    0.0651   -0.3581    1.1342 C   0  0  0  0  0  0  0  0  0  0  0  0
    1.2546   -0.2324    1.3943 O   0  0  0  0  0  0  0  0  0  0  0  0
   -0.8678    0.3021    1.9136 N   0  0  0  0  0  0  0  0  0  0  0  0
   -1.8392    0.0793    1.7217 H   0  0  0  0  0  0  0  0  0  0  0  0
   -0.5316    0.9110    3.1945 C   0  0  0  0  0  0  0  0  0  0  0  0
    0.2514    1.6660    3.0671 H   0  0  0  0  0  0  0  0  0  0  0  0
   -1.4117    1.3988    3.6241 H   0  0  0  0  0  0  0  0  0  0  0  0
   -0.1767    0.1500    3.8975 H   0  0  0  0  0  0  0  0  0  0  0  0
  1  2  1  0  0  0  0
  2  3  1  0  0  0  0
  2  4  1  0  0  0  0
  2  5  1  0  0  0  0
  5  6  2  0  0  0  0
  5  7  1  0  0  0  0
  7  8  1  0  0  0  0
  7  9  1  0  0  0  0
  9 10  1  0  0  0  0
  9 11  1  0  0  0  0
  9 25  1  0  0  0  0
 11 12  1  0  0  0  0
 11 13  1  0  0  0  0
 11 14  1  0  0  0  0
 14 15  1  0  0  0  0
 14 23  2  0  0  0  0
 15 16  1  0  0  0  0
 15 17  2  0  0  0  0
 17 18  1  0  0  0  0
 17 19  1  0  0  0  0
 19 20  1  0  0  0  0
 19 21  2  0  0  0  0
 21 22  1  0  0  0  0
 21 23  1  0  0  0  0
 23 24  1  0  0  0  0
 25 26  2  0  0  0  0
 25 27  1  0  0  0  0
 27 28  1  0  0  0  0
 27 29  1  0  0  0  0
 29 30  1  0  0  0  0
 29 31  1  0  0  0  0
 29 32  1  0  0  0  0
M  END
$$$$

  -OEChem-03222214073D

 32 32  0     1  0  0  0  0  0999 V2000
   -3.0918   -4.5357    0.8700 H   0  0  0  0  0  0  0  0  0  0  0  0
   -3.0897   -3.6480    0.2311 C   0  0  0  0  0  0  0  0  0  0  0  0
   -4.0009   -3.0753    0.4195 H   0  0  0  0  0  0  0  0  0  0  0  0
   -3.0778   -3.9683   -0.8137 H   0  0  0  0  0  0  0  0  0  0  0  0
   -1.8704   -2.7952    0.5275 C   0  0  0  0  0  0  0  0  0  0  0  0
   -1.1231   -3.1023    1.4389 O   0  0  0  0  0  0  0  0  0  0  0  0
   -1.6240   -1.6721   -0.2365 N   0  0  0  0  0  0  0  0  0  0  0  0
   -2.1948   -1.5780   -1.0734 H   0  0  0  0  0  0  0  0  0  0  0  0
   -0.3438   -0.9371   -0.2314 C   0  0  1  0  0  0  0  0  0  0  0  0
    0.4386   -1.6454   -0.5250 H   0  0  0  0  0  0  0  0  0  0  0  0
   -0.3647    0.2018   -1.2692 C   0  0  0  0  0  0  0  0  0  0  0  0
   -0.9626    1.0345   -0.8842 H   0  0  0  0  0  0  0  0  0  0  0  0
    0.6545    0.5779   -1.4099 H   0  0  0  0  0  0  0  0  0  0  0  0
   -0.9359   -0.2394   -2.5980 C   0  0  0  0  0  0  0  0  0  0  0  0
   -0.0922   -0.7648   -3.5868 C   0  0  0  0  0  0  0  0  0  0  0  0
    0.9725   -0.8665   -3.3956 H   0  0  0  0  0  0  0  0  0  0  0  0
   -0.6118   -1.1692   -4.8210 C   0  0  0  0  0  0  0  0  0  0  0  0
    0.0490   -1.5806   -5.5784 H   0  0  0  0  0  0  0  0  0  0  0  0
   -1.9794   -1.0401   -5.0810 C   0  0  0  0  0  0  0  0  0  0  0  0
   -2.3812   -1.3513   -6.0412 H   0  0  0  0  0  0  0  0  0  0  0  0
   -2.8260   -0.4991   -4.1088 C   0  0  0  0  0  0  0  0  0  0  0  0
   -3.8858   -0.3850   -4.3169 H   0  0  0  0  0  0  0  0  0  0  0  0
   -2.3054   -0.0951   -2.8749 C   0  0  0  0  0  0  0  0  0  0  0  0
   -2.9692    0.3406   -2.1337 H   0  0  0  0  0  0  0  0  0  0  0  0
    0.0780   -0.3595    1.1355 C   0  0  0  0  0  0  0  0  0  0  0  0
    1.2682   -0.2513    1.4005 O   0  0  0  0  0  0  0  0  0  0  0  0
   -0.8503    0.2976    1.9228 N   0  0  0  0  0  0  0  0  0  0  0  0
   -1.8229    0.0845    1.7265 H   0  0  0  0  0  0  0  0  0  0  0  0
   -0.5116    0.8820    3.2140 C   0  0  0  0  0  0  0  0  0  0  0  0
    0.2795    1.6310    3.1018 H   0  0  0  0  0  0  0  0  0  0  0  0
   -1.3881    1.3716    3.6490 H   0  0  0  0  0  0  0  0  0  0  0  0
   -0.1664    0.1057    3.9050 H   0  0  0  0  0  0  0  0  0  0  0  0
  1  2  1  0  0  0  0
  2  3  1  0  0  0  0
  2  4  1  0  0  0  0
  2  5  1  0  0  0  0
  5  6  2  0  0  0  0
  5  7  1  0  0  0  0
  7  8  1  0  0  0  0
  7  9  1  0  0  0  0
  9 10  1  0  0  0  0
  9 11  1  0  0  0  0
  9 25  1  0  0  0  0
 11 12  1  0  0  0  0
 11 13  1  0  0  0  0
 11 14  1  0  0  0  0
 14 15  1  0  0  0  0
 14 23  2  0  0  0  0
 15 16  1  0  0  0  0
 15 17  2  0  0  0  0
 17 18  1  0  0  0  0
 17 19  1  0  0  0  0
 19 20  1  0  0  0  0
 19 21  2  0  0  0  0
 21 22  1  0  0  0  0
 21 23  1  0  0  0  0
 23 24  1  0  0  0  0
 25 26  2  0  0  0  0
 25 27  1  0  0  0  0
 27 28  1  0  0  0  0
 27 29  1  0  0  0  0
 29 30  1  0  0  0  0
 29 31  1  0  0  0  0
 29 32  1  0  0  0  0
M  END
$$$$

  -OEChem-03222214073D

 32 32  0     1  0  0  0  0  0999 V2000
   -3.1320   -4.4943    0.8210 H   0  0  0  0  0  0  0  0  0  0  0  0
   -3.1115   -3.6026    0.1879 C   0  0  0  0  0  0  0  0  0  0  0  0
   -4.0104   -3.0123    0.3810 H   0  0  0  0  0  0  0  0  0  0  0  0
   -3.1066   -3.9156   -0.8591 H   0  0  0  0  0  0  0  0  0  0  0  0
   -1.8745   -2.7775    0.4876 C   0  0  0  0  0  0  0  0  0  0  0  0
   -1.1234   -3.1143    1.3853 O   0  0  0  0  0  0  0  0  0  0  0  0
   -1.6126   -1.6482   -0.2615 N   0  0  0  0  0  0  0  0  0  0  0  0
   -2.1946   -1.5185   -1.0863 H   0  0  0  0  0  0  0  0  0  0  0  0
   -0.3274   -0.9221   -0.2403 C   0  0  1  0  0  0  0  0  0  0  0  0
    0.4541   -1.6296   -0.5382 H   0  0  0  0  0  0  0  0  0  0  0  0
   -0.3520    0.2262   -1.2664 C   0  0  0  0  0  0  0  0  0  0  0  0
   -0.9448    1.0575   -0.8707 H   0  0  0  0  0  0  0  0  0  0  0  0
    0.6672    0.5994   -1.4145 H   0  0  0  0  0  0  0  0  0  0  0  0
   -0.9276   -0.2149   -2.5930 C   0  0  0  0  0  0  0  0  0  0  0  0
   -0.1681   -1.0124   -3.4611 C   0  0  0  0  0  0  0  0  0  0  0  0
    0.8428   -1.3025   -3.1880 H   0  0  0  0  0  0  0  0  0  0  0  0
   -0.7037   -1.4434   -4.6793 C   0  0  0  0  0  0  0  0  0  0  0  0
   -0.1076   -2.0611   -5.3450 H   0  0  0  0  0  0  0  0  0  0  0  0
   -2.0037   -1.0772   -5.0406 C   0  0  0  0  0  0  0  0  0  0  0  0
   -2.4178   -1.4097   -5.9882 H   0  0  0  0  0  0  0  0  0  0  0  0
   -2.7661   -0.2770   -4.1845 C   0  0  0  0  0  0  0  0  0  0  0  0
   -3.7730    0.0145   -4.4693 H   0  0  0  0  0  0  0  0  0  0  0  0
   -2.2298    0.1533   -2.9663 C   0  0  0  0  0  0  0  0  0  0  0  0
   -2.8300    0.7798   -2.3129 H   0  0  0  0  0  0  0  0  0  0  0  0
    0.0880   -0.3622    1.1355 C   0  0  0  0  0  0  0  0  0  0  0  0
    1.2763   -0.2667    1.4131 O   0  0  0  0  0  0  0  0  0  0  0  0
   -0.8431    0.2925    1.9215 N   0  0  0  0  0  0  0  0  0  0  0  0
   -1.8154    0.0902    1.7125 H   0  0  0  0  0  0  0  0  0  0  0  0
   -0.5132    0.8595    3.2226 C   0  0  0  0  0  0  0  0  0  0  0  0
    0.2790    1.6094    3.1258 H   0  0  0  0  0  0  0  0  0  0  0  0
   -1.3923    1.3437    3.6581 H   0  0  0  0  0  0  0  0  0  0  0  0
   -0.1734    0.0741    3.9057 H   0  0  0  0  0  0  0  0  0  0  0  0
  1  2  1  0  0  0  0
  2  3  1  0  0  0  0
  2  4  1  0  0  0  0
  2  5  1  0  0  0  0
  5  6  2  0  0  0  0
  5  7  1  0  0  0  0
  7  8  1  0  0  0  0
  7  9  1  0  0  0  0
  9 10  1  0  0  0  0
  9 11  1  0  0  0  0
  9 25  1  0  0  0  0
 11 12  1  0  0  0  0
 11 13  1  0  0  0  0
 11 14  1  0  0  0  0
 14 15  1  0  0  0  0
 14 23  2  0  0  0  0
 15 16  1  0  0  0  0
 15 17  2  0  0  0  0
 17 18  1  0  0  0  0
 17 19  1  0  0  0  0
 19 20  1  0  0  0  0
 19 21  2  0  0  0  0
 21 22  1  0  0  0  0
 21 23  1  0  0  0  0
 23 24  1  0  0  0  0
 25 26  2  0  0  0  0
 25 27  1  0  0  0  0
 27 28  1  0  0  0  0
 27 29  1  0  0  0  0
 29 30  1  0  0  0  0
 29 31  1  0  0  0  0
 29 32  1  0  0  0  0
M  END
$$$$

  -OEChem-03222214073D

 32 32  0     1  0  0  0  0  0999 V2000
   -3.1452   -4.4799    0.8293 H   0  0  0  0  0  0  0  0  0  0  0  0
   -3.1182   -3.5894    0.1950 C   0  0  0  0  0  0  0  0  0  0  0  0
   -4.0076   -2.9871    0.3946 H   0  0  0  0  0  0  0  0  0  0  0  0
   -3.1254   -3.9033   -0.8518 H   0  0  0  0  0  0  0  0  0  0  0  0
   -1.8686   -2.7799    0.4852 C   0  0  0  0  0  0  0  0  0  0  0  0
   -1.1139   -3.1268    1.3761 O   0  0  0  0  0  0  0  0  0  0  0  0
   -1.6005   -1.6516   -0.2630 N   0  0  0  0  0  0  0  0  0  0  0  0
   -2.1887   -1.5095   -1.0813 H   0  0  0  0  0  0  0  0  0  0  0  0
   -0.3164   -0.9242   -0.2369 C   0  0  1  0  0  0  0  0  0  0  0  0
    0.4701   -1.6290   -0.5275 H   0  0  0  0  0  0  0  0  0  0  0  0
   -0.3496    0.2211   -1.2670 C   0  0  0  0  0  0  0  0  0  0  0  0
   -0.9437    1.0491   -0.8663 H   0  0  0  0  0  0  0  0  0  0  0  0
    0.6678    0.5978   -1.4184 H   0  0  0  0  0  0  0  0  0  0  0  0
   -0.9223   -0.2150   -2.5992 C   0  0  0  0  0  0  0  0  0  0  0  0
   -0.3136   -1.2430   -3.3360 C   0  0  0  0  0  0  0  0  0  0  0  0
    0.5903   -1.7185   -2.9657 H   0  0  0  0  0  0  0  0  0  0  0  0
   -0.8593   -1.6650   -4.5527 C   0  0  0  0  0  0  0  0  0  0  0  0
   -0.3788   -2.4602   -5.1157 H   0  0  0  0  0  0  0  0  0  0  0  0
   -2.0194   -1.0611   -5.0461 C   0  0  0  0  0  0  0  0  0  0  0  0
   -2.4402   -1.3855   -5.9937 H   0  0  0  0  0  0  0  0  0  0  0  0
   -2.6325   -0.0349   -4.3213 C   0  0  0  0  0  0  0  0  0  0  0  0
   -3.5306    0.4393   -4.7069 H   0  0  0  0  0  0  0  0  0  0  0  0
   -2.0868    0.3848   -3.1032 C   0  0  0  0  0  0  0  0  0  0  0  0
   -2.5733    1.1843   -2.5522 H   0  0  0  0  0  0  0  0  0  0  0  0
    0.0903   -0.3620    1.1410 C   0  0  0  0  0  0  0  0  0  0  0  0
    1.2769   -0.2680    1.4263 O   0  0  0  0  0  0  0  0  0  0  0  0
   -0.8451    0.2927    1.9222 N   0  0  0  0  0  0  0  0  0  0  0  0
   -1.8166    0.0970    1.7034 H   0  0  0  0  0  0  0  0  0  0  0  0
   -0.5233    0.8546    3.2279 C   0  0  0  0  0  0  0  0  0  0  0  0
    0.2717    1.6026    3.1391 H   0  0  0  0  0  0  0  0  0  0  0  0
   -1.4043    1.3395    3.6590 H   0  0  0  0  0  0  0  0  0  0  0  0
   -0.1900    0.0663    3.9111 H   0  0  0  0  0  0  0  0  0  0  0  0
  1  2  1  0  0  0  0
  2  3  1  0  0  0  0
  2  4  1  0  0  0  0
  2  5  1  0  0  0  0
  5  6  2  0  0  0  0
  5  7  1  0  0  0  0
  7  8  1  0  0  0  0
  7  9  1  0  0  0  0
  9 10  1  0  0  0  0
  9 11  1  0  0  0  0
  9 25  1  0  0  0  0
 11 12  1  0  0  0  0
 11 13  1  0  0  0  0
 11 14  1  0  0  0  0
 14 15  1  0  0  0  0
 14 23  2  0  0  0  0
 15 16  1  0  0  0  0
 15 17  2  0  0  0  0
 17 18  1  0  0  0  0
 17 19  1  0  0  0  0
 19 20  1  0  0  0  0
 19 21  2  0  0  0  0
 21 22  1  0  0  0  0
 21 23  1  0  0  0  0
 23 24  1  0  0  0  0
 25 26  2  0  0  0  0
 25 27  1  0  0  0  0
 27 28  1  0  0  0  0
 27 29  1  0  0  0  0
 29 30  1  0  0  0  0
 29 31  1  0  0  0  0
 29 32  1  0  0  0  0
M  END
$$$$

  -OEChem-03222214073D

 32 32  0     1  0  0  0  0  0999 V2000
   -3.1389   -4.4895    0.8847 H   0  0  0  0  0  0  0  0  0  0  0  0
   -3.1139   -3.6039    0.2435 C   0  0  0  0  0  0  0  0  0  0  0  0
   -3.9979   -2.9951    0.4482 H   0  0  0  0  0  0  0  0  0  0  0  0
   -3.1344   -3.9261   -0.8004 H   0  0  0  0  0  0  0  0  0  0  0  0
   -1.8565   -2.7993    0.5132 C   0  0  0  0  0  0  0  0  0  0  0  0
   -1.0886   -3.1475    1.3920 O   0  0  0  0  0  0  0  0  0  0  0  0
   -1.5903   -1.6779   -0.2458 N   0  0  0  0  0  0  0  0  0  0  0  0
   -2.1955   -1.5248   -1.0497 H   0  0  0  0  0  0  0  0  0  0  0  0
   -0.3105   -0.9426   -0.2257 C   0  0  1  0  0  0  0  0  0  0  0  0
    0.4838   -1.6430   -0.5042 H   0  0  0  0  0  0  0  0  0  0  0  0
   -0.3512    0.1924   -1.2681 C   0  0  0  0  0  0  0  0  0  0  0  0
   -0.9508    1.0165   -0.8682 H   0  0  0  0  0  0  0  0  0  0  0  0
    0.6646    0.5743   -1.4162 H   0  0  0  0  0  0  0  0  0  0  0  0
   -0.9169   -0.2298   -2.6112 C   0  0  0  0  0  0  0  0  0  0  0  0
   -0.5255   -1.4316   -3.2270 C   0  0  0  0  0  0  0  0  0  0  0  0
    0.2174   -2.0723   -2.7614 H   0  0  0  0  0  0  0  0  0  0  0  0
   -1.0786   -1.8185   -4.4520 C   0  0  0  0  0  0  0  0  0  0  0  0
   -0.7652   -2.7480   -4.9188 H   0  0  0  0  0  0  0  0  0  0  0  0
   -2.0263   -1.0059   -5.0796 C   0  0  0  0  0  0  0  0  0  0  0  0
   -2.4513   -1.3032   -6.0341 H   0  0  0  0  0  0  0  0  0  0  0  0
   -2.4194    0.1941   -4.4809 C   0  0  0  0  0  0  0  0  0  0  0  0
   -3.1511    0.8303   -4.9707 H   0  0  0  0  0  0  0  0  0  0  0  0
   -1.8681    0.5783   -3.2537 C   0  0  0  0  0  0  0  0  0  0  0  0
   -2.1839    1.5150   -2.8034 H   0  0  0  0  0  0  0  0  0  0  0  0
    0.0868   -0.3635    1.1480 C   0  0  0  0  0  0  0  0  0  0  0  0
    1.2712   -0.2592    1.4388 O   0  0  0  0  0  0  0  0  0  0  0  0
   -0.8567    0.2930    1.9176 N   0  0  0  0  0  0  0  0  0  0  0  0
   -1.8261    0.0926    1.6936 H   0  0  0  0  0  0  0  0  0  0  0  0
   -0.5464    0.8726    3.2180 C   0  0  0  0  0  0  0  0  0  0  0  0
    0.2447    1.6242    3.1245 H   0  0  0  0  0  0  0  0  0  0  0  0
   -1.4332    1.3574    3.6368 H   0  0  0  0  0  0  0  0  0  0  0  0
   -0.2137    0.0946    3.9132 H   0  0  0  0  0  0  0  0  0  0  0  0
  1  2  1  0  0  0  0
  2  3  1  0  0  0  0
  2  4  1  0  0  0  0
  2  5  1  0  0  0  0
  5  6  2  0  0  0  0
  5  7  1  0  0  0  0
  7  8  1  0  0  0  0
  7  9  1  0  0  0  0
  9 10  1  0  0  0  0
  9 11  1  0  0  0  0
  9 25  1  0  0  0  0
 11 12  1  0  0  0  0
 11 13  1  0  0  0  0
 11 14  1  0  0  0  0
 14 15  1  0  0  0  0
 14 23  2  0  0  0  0
 15 16  1  0  0  0  0
 15 17  2  0  0  0  0
 17 18  1  0  0  0  0
 17 19  1  0  0  0  0
 19 20  1  0  0  0  0
 19 21  2  0  0  0  0
 21 22  1  0  0  0  0
 21 23  1  0  0  0  0
 23 24  1  0  0  0  0
 25 26  2  0  0  0  0
 25 27  1  0  0  0  0
 27 28  1  0  0  0  0
 27 29  1  0  0  0  0
 29 30  1  0  0  0  0
 29 31  1  0  0  0  0
 29 32  1  0  0  0  0
M  END
$$$$

  -OEChem-03222214073D

 32 32  0     1  0  0  0  0  0999 V2000
   -3.1295   -4.5059    0.9854 H   0  0  0  0  0  0  0  0  0  0  0  0
   -3.1099   -3.6328    0.3268 C   0  0  0  0  0  0  0  0  0  0  0  0
   -3.9869   -3.0153    0.5345 H   0  0  0  0  0  0  0  0  0  0  0  0
   -3.1500   -3.9745   -0.7103 H   0  0  0  0  0  0  0  0  0  0  0  0
   -1.8437   -2.8303    0.5603 C   0  0  0  0  0  0  0  0  0  0  0  0
   -1.0592   -3.1707    1.4274 O   0  0  0  0  0  0  0  0  0  0  0  0
   -1.5897   -1.7177   -0.2158 N   0  0  0  0  0  0  0  0  0  0  0  0
   -2.2167   -1.5609   -1.0020 H   0  0  0  0  0  0  0  0  0  0  0  0
   -0.3182   -0.9671   -0.2117 C   0  0  1  0  0  0  0  0  0  0  0  0
    0.4830   -1.6639   -0.4808 H   0  0  0  0  0  0  0  0  0  0  0  0
   -0.3649    0.1511   -1.2736 C   0  0  0  0  0  0  0  0  0  0  0  0
   -0.9746    0.9722   -0.8816 H   0  0  0  0  0  0  0  0  0  0  0  0
    0.6492    0.5404   -1.4136 H   0  0  0  0  0  0  0  0  0  0  0  0
   -0.9168   -0.2536   -2.6311 C   0  0  0  0  0  0  0  0  0  0  0  0
   -0.7887   -1.5579   -3.1461 C   0  0  0  0  0  0  0  0  0  0  0  0
   -0.2516   -2.3226   -2.5930 H   0  0  0  0  0  0  0  0  0  0  0  0
   -1.3333   -1.8926   -4.3903 C   0  0  0  0  0  0  0  0  0  0  0  0
   -1.2205   -2.9006   -4.7792 H   0  0  0  0  0  0  0  0  0  0  0  0
   -2.0127   -0.9289   -5.1391 C   0  0  0  0  0  0  0  0  0  0  0  0
   -2.4315   -1.1877   -6.1074 H   0  0  0  0  0  0  0  0  0  0  0  0
   -2.1430    0.3708   -4.6436 C   0  0  0  0  0  0  0  0  0  0  0  0
   -2.6648    1.1240   -5.2269 H   0  0  0  0  0  0  0  0  0  0  0  0
   -1.5976    0.7041   -3.3993 C   0  0  0  0  0  0  0  0  0  0  0  0
   -1.7056    1.7202   -3.0312 H   0  0  0  0  0  0  0  0  0  0  0  0
    0.0761   -0.3622    1.1519 C   0  0  0  0  0  0  0  0  0  0  0  0
    1.2598   -0.2406    1.4383 O   0  0  0  0  0  0  0  0  0  0  0  0
   -0.8719    0.2953    1.9153 N   0  0  0  0  0  0  0  0  0  0  0  0
   -1.8403    0.0849    1.6966 H   0  0  0  0  0  0  0  0  0  0  0  0
   -0.5627    0.9060    3.2021 C   0  0  0  0  0  0  0  0  0  0  0  0
    0.2147    1.6691    3.0890 H   0  0  0  0  0  0  0  0  0  0  0  0
   -1.4546    1.3841    3.6182 H   0  0  0  0  0  0  0  0  0  0  0  0
   -0.2116    0.1477    3.9099 H   0  0  0  0  0  0  0  0  0  0  0  0
  1  2  1  0  0  0  0
  2  3  1  0  0  0  0
  2  4  1  0  0  0  0
  2  5  1  0  0  0  0
  5  6  2  0  0  0  0
  5  7  1  0  0  0  0
  7  8  1  0  0  0  0
  7  9  1  0  0  0  0
  9 10  1  0  0  0  0
  9 11  1  0  0  0  0
  9 25  1  0  0  0  0
 11 12  1  0  0  0  0
 11 13  1  0  0  0  0
 11 14  1  0  0  0  0
 14 15  1  0  0  0  0
 14 23  2  0  0  0  0
 15 16  1  0  0  0  0
 15 17  2  0  0  0  0
 17 18  1  0  0  0  0
 17 19  1  0  0  0  0
 19 20  1  0  0  0  0
 19 21  2  0  0  0  0
 21 22  1  0  0  0  0
 21 23  1  0  0  0  0
 23 24  1  0  0  0  0
 25 26  2  0  0  0  0
 25 27  1  0  0  0  0
 27 28  1  0  0  0  0
 27 29  1  0  0  0  0
 29 30  1  0  0  0  0
 29 31  1  0  0  0  0
 29 32  1  0  0  0  0
M  END
$$$$

  -OEChem-03222214073D

 32 32  0     1  0  0  0  0  0999 V2000
   -3.1138   -4.5172    1.1209 H   0  0  0  0  0  0  0  0  0  0  0  0
   -3.1079   -3.6577    0.4446 C   0  0  0  0  0  0  0  0  0  0  0  0
   -3.9705   -3.0263    0.6704 H   0  0  0  0  0  0  0  0  0  0  0  0
   -3.1881   -4.0192   -0.5833 H   0  0  0  0  0  0  0  0  0  0  0  0
   -1.8259   -2.8653    0.6178 C   0  0  0  0  0  0  0  0  0  0  0  0
   -1.0113   -3.2021    1.4579 O   0  0  0  0  0  0  0  0  0  0  0  0
   -1.5924   -1.7627   -0.1793 N   0  0  0  0  0  0  0  0  0  0  0  0
   -2.2608   -1.5862   -0.9260 H   0  0  0  0  0  0  0  0  0  0  0  0
   -0.3323   -0.9932   -0.2016 C   0  0  1  0  0  0  0  0  0  0  0  0
    0.4727   -1.6894   -0.4619 H   0  0  0  0  0  0  0  0  0  0  0  0
   -0.3778    0.1030   -1.2887 C   0  0  0  0  0  0  0  0  0  0  0  0
   -0.9967    0.9238   -0.9111 H   0  0  0  0  0  0  0  0  0  0  0  0
    0.6366    0.4970   -1.4150 H   0  0  0  0  0  0  0  0  0  0  0  0
   -0.9094   -0.2821   -2.6631 C   0  0  0  0  0  0  0  0  0  0  0  0
   -1.0705   -1.6113   -3.1038 C   0  0  0  0  0  0  0  0  0  0  0  0
   -0.7493   -2.4480   -2.4917 H   0  0  0  0  0  0  0  0  0  0  0  0
   -1.6058   -1.8891   -4.3660 C   0  0  0  0  0  0  0  0  0  0  0  0
   -1.7113   -2.9186   -4.6963 H   0  0  0  0  0  0  0  0  0  0  0  0
   -1.9916   -0.8447   -5.2093 C   0  0  0  0  0  0  0  0  0  0  0  0
   -2.4036   -1.0600   -6.1914 H   0  0  0  0  0  0  0  0  0  0  0  0
   -1.8357    0.4781   -4.7898 C   0  0  0  0  0  0  0  0  0  0  0  0
   -2.1298    1.2935   -5.4444 H   0  0  0  0  0  0  0  0  0  0  0  0
   -1.2986    0.7535   -3.5279 C   0  0  0  0  0  0  0  0  0  0  0  0
   -1.1861    1.7884   -3.2177 H   0  0  0  0  0  0  0  0  0  0  0  0
    0.0624   -0.3595    1.1488 C   0  0  0  0  0  0  0  0  0  0  0  0
    1.2460   -0.2161    1.4251 O   0  0  0  0  0  0  0  0  0  0  0  0
   -0.8900    0.2958    1.9088 N   0  0  0  0  0  0  0  0  0  0  0  0
   -1.8578    0.0761    1.6969 H   0  0  0  0  0  0  0  0  0  0  0  0
   -0.5797    0.9376    3.1801 C   0  0  0  0  0  0  0  0  0  0  0  0
    0.1880    1.7071    3.0453 H   0  0  0  0  0  0  0  0  0  0  0  0
   -1.4744    1.4143    3.5915 H   0  0  0  0  0  0  0  0  0  0  0  0
   -0.2151    0.1989    3.9017 H   0  0  0  0  0  0  0  0  0  0  0  0
  1  2  1  0  0  0  0
  2  3  1  0  0  0  0
  2  4  1  0  0  0  0
  2  5  1  0  0  0  0
  5  6  2  0  0  0  0
  5  7  1  0  0  0  0
  7  8  1  0  0  0  0
  7  9  1  0  0  0  0
  9 10  1  0  0  0  0
  9 11  1  0  0  0  0
  9 25  1  0  0  0  0
 11 12  1  0  0  0  0
 11 13  1  0  0  0  0
 11 14  1  0  0  0  0
 14 15  1  0  0  0  0
 14 23  2  0  0  0  0
 15 16  1  0  0  0  0
 15 17  2  0  0  0  0
 17 18  1  0  0  0  0
 17 19  1  0  0  0  0
 19 20  1  0  0  0  0
 19 21  2  0  0  0  0
 21 22  1  0  0  0  0
 21 23  1  0  0  0  0
 23 24  1  0  0  0  0
 25 26  2  0  0  0  0
 25 27  1  0  0  0  0
 27 28  1  0  0  0  0
 27 29  1  0  0  0  0
 29 30  1  0  0  0  0
 29 31  1  0  0  0  0
 29 32  1  0  0  0  0
M  END
$$$$

  -OEChem-03222214073D

 32 32  0     1  0  0  0  0  0999 V2000
   -3.0850   -4.5278    1.2961 H   0  0  0  0  0  0  0  0  0  0  0  0
   -3.1001   -3.6884    0.5946 C   0  0  0  0  0  0  0  0  0  0  0  0
   -3.9475   -3.0427    0.8371 H   0  0  0  0  0  0  0  0  0  0  0  0
   -3.2260   -4.0798   -0.4178 H   0  0  0  0  0  0  0  0  0  0  0  0
   -1.8049   -2.9036    0.6907 C   0  0  0  0  0  0  0  0  0  0  0  0
   -0.9516   -3.2346    1.4937 O   0  0  0  0  0  0  0  0  0  0  0  0
   -1.6020   -1.8151   -0.1343 N   0  0  0  0  0  0  0  0  0  0  0  0
   -2.3219   -1.6148   -0.8242 H   0  0  0  0  0  0  0  0  0  0  0  0
   -0.3559   -1.0270   -0.1958 C   0  0  1  0  0  0  0  0  0  0  0  0
    0.4513   -1.7240   -0.4470 H   0  0  0  0  0  0  0  0  0  0  0  0
   -0.3989    0.0443   -1.3090 C   0  0  0  0  0  0  0  0  0  0  0  0
   -1.0206    0.8697   -0.9465 H   0  0  0  0  0  0  0  0  0  0  0  0
    0.6176    0.4368   -1.4245 H   0  0  0  0  0  0  0  0  0  0  0  0
   -0.9144   -0.3207   -2.6974 C   0  0  0  0  0  0  0  0  0  0  0  0
   -1.3737   -1.5930   -3.0990 C   0  0  0  0  0  0  0  0  0  0  0  0
   -1.2952   -2.4610   -2.4562 H   0  0  0  0  0  0  0  0  0  0  0  0
   -1.8869   -1.8002   -4.3842 C   0  0  0  0  0  0  0  0  0  0  0  0
   -2.2200   -2.7899   -4.6832 H   0  0  0  0  0  0  0  0  0  0  0  0
   -1.9572   -0.7420   -5.2917 C   0  0  0  0  0  0  0  0  0  0  0  0
   -2.3527   -0.9044   -6.2902 H   0  0  0  0  0  0  0  0  0  0  0  0
   -1.5065    0.5235   -4.9139 C   0  0  0  0  0  0  0  0  0  0  0  0
   -1.5544    1.3501   -5.6171 H   0  0  0  0  0  0  0  0  0  0  0  0
   -0.9932    0.7275   -3.6294 C   0  0  0  0  0  0  0  0  0  0  0  0
   -0.6539    1.7217   -3.3530 H   0  0  0  0  0  0  0  0  0  0  0  0
    0.0467   -0.3593    1.1361 C   0  0  0  0  0  0  0  0  0  0  0  0
    1.2311   -0.1903    1.3933 O   0  0  0  0  0  0  0  0  0  0  0  0
   -0.9055    0.2957    1.8968 N   0  0  0  0  0  0  0  0  0  0  0  0
   -1.8739    0.0689    1.6960 H   0  0  0  0  0  0  0  0  0  0  0  0
   -0.5872    0.9732    3.1474 C   0  0  0  0  0  0  0  0  0  0  0  0
    0.1611    1.7554    2.9806 H   0  0  0  0  0  0  0  0  0  0  0  0
   -1.4846    1.4399    3.5640 H   0  0  0  0  0  0  0  0  0  0  0  0
   -0.1938    0.2591    3.8786 H   0  0  0  0  0  0  0  0  0  0  0  0
  1  2  1  0  0  0  0
  2  3  1  0  0  0  0
  2  4  1  0  0  0  0
  2  5  1  0  0  0  0
  5  6  2  0  0  0  0
  5  7  1  0  0  0  0
  7  8  1  0  0  0  0
  7  9  1  0  0  0  0
  9 10  1  0  0  0  0
  9 11  1  0  0  0  0
  9 25  1  0  0  0  0
 11 12  1  0  0  0  0
 11 13  1  0  0  0  0
 11 14  1  0  0  0  0
 14 15  1  0  0  0  0
 14 23  2  0  0  0  0
 15 16  1  0  0  0  0
 15 17  2  0  0  0  0
 17 18  1  0  0  0  0
 17 19  1  0  0  0  0
 19 20  1  0  0  0  0
 19 21  2  0  0  0  0
 21 22  1  0  0  0  0
 21 23  1  0  0  0  0
 23 24  1  0  0  0  0
 25 26  2  0  0  0  0
 25 27  1  0  0  0  0
 27 28  1  0  0  0  0
 27 29  1  0  0  0  0
 29 30  1  0  0  0  0
 29 31  1  0  0  0  0
 29 32  1  0  0  0  0
M  END
$$$$

  -OEChem-03222214073D

 32 32  0     1  0  0  0  0  0999 V2000
   -3.0522   -4.5196    1.4488 H   0  0  0  0  0  0  0  0  0  0  0  0
   -3.0918   -3.6952    0.7312 C   0  0  0  0  0  0  0  0  0  0  0  0
   -3.9157   -3.0315    1.0042 H   0  0  0  0  0  0  0  0  0  0  0  0
   -3.2758   -4.1053   -0.2649 H   0  0  0  0  0  0  0  0  0  0  0  0
   -1.7823   -2.9291    0.7436 C   0  0  0  0  0  0  0  0  0  0  0  0
   -0.8890   -3.2650    1.4994 O   0  0  0  0  0  0  0  0  0  0  0  0
   -1.6165   -1.8472   -0.0982 N   0  0  0  0  0  0  0  0  0  0  0  0
   -2.3898   -1.6142   -0.7150 H   0  0  0  0  0  0  0  0  0  0  0  0
   -0.3851   -1.0448   -0.2026 C   0  0  1  0  0  0  0  0  0  0  0  0
    0.4213   -1.7420   -0.4565 H   0  0  0  0  0  0  0  0  0  0  0  0
   -0.4327    0.0121   -1.3317 C   0  0  0  0  0  0  0  0  0  0  0  0
   -1.0500    0.8429   -0.9742 H   0  0  0  0  0  0  0  0  0  0  0  0
    0.5866    0.3989   -1.4433 H   0  0  0  0  0  0  0  0  0  0  0  0
   -0.9492   -0.3368   -2.7272 C   0  0  0  0  0  0  0  0  0  0  0  0
   -1.6884   -1.4821   -3.0977 C   0  0  0  0  0  0  0  0  0  0  0  0
   -1.8878   -2.2990   -2.4200 H   0  0  0  0  0  0  0  0  0  0  0  0
   -2.1558   -1.6472   -4.4066 C   0  0  0  0  0  0  0  0  0  0  0  0
   -2.7092   -2.5419   -4.6768 H   0  0  0  0  0  0  0  0  0  0  0  0
   -1.9041   -0.6726   -5.3726 C   0  0  0  0  0  0  0  0  0  0  0  0
   -2.2660   -0.8033   -6.3883 H   0  0  0  0  0  0  0  0  0  0  0  0
   -1.1791    0.4675   -5.0282 C   0  0  0  0  0  0  0  0  0  0  0  0
   -0.9781    1.2299   -5.7750 H   0  0  0  0  0  0  0  0  0  0  0  0
   -0.7119    0.6296   -3.7206 C   0  0  0  0  0  0  0  0  0  0  0  0
   -0.1570    1.5305   -3.4745 H   0  0  0  0  0  0  0  0  0  0  0  0
    0.0383   -0.3603    1.1145 C   0  0  0  0  0  0  0  0  0  0  0  0
    1.2253   -0.1768    1.3483 O   0  0  0  0  0  0  0  0  0  0  0  0
   -0.9060    0.2870    1.8915 N   0  0  0  0  0  0  0  0  0  0  0  0
   -1.8758    0.0511    1.7098 H   0  0  0  0  0  0  0  0  0  0  0  0
   -0.5713    0.9714    3.1341 C   0  0  0  0  0  0  0  0  0  0  0  0
    0.1662    1.7601    2.9519 H   0  0  0  0  0  0  0  0  0  0  0  0
   -1.4654    1.4308    3.5662 H   0  0  0  0  0  0  0  0  0  0  0  0
   -0.1580    0.2636    3.8603 H   0  0  0  0  0  0  0  0  0  0  0  0
  1  2  1  0  0  0  0
  2  3  1  0  0  0  0
  2  4  1  0  0  0  0
  2  5  1  0  0  0  0
  5  6  2  0  0  0  0
  5  7  1  0  0  0  0
  7  8  1  0  0  0  0
  7  9  1  0  0  0  0
  9 10  1  0  0  0  0
  9 11  1  0  0  0  0
  9 25  1  0  0  0  0
 11 12  1  0  0  0  0
 11 13  1  0  0  0  0
 11 14  1  0  0  0  0
 14 15  1  0  0  0  0
 14 23  2  0  0  0  0
 15 16  1  0  0  0  0
 15 17  2  0  0  0  0
 17 18  1  0  0  0  0
 17 19  1  0  0  0  0
 19 20  1  0  0  0  0
 19 21  2  0  0  0  0
 21 22  1  0  0  0  0
 21 23  1  0  0  0  0
 23 24  1  0  0  0  0
 25 26  2  0  0  0  0
 25 27  1  0  0  0  0
 27 28  1  0  0  0  0
 27 29  1  0  0  0  0
 29 30  1  0  0  0  0
 29 31  1  0  0  0  0
 29 32  1  0  0  0  0
M  END
$$$$

  -OEChem-03222214073D

 32 32  0     1  0  0  0  0  0999 V2000
   -3.0237   -4.5197    1.5096 H   0  0  0  0  0  0  0  0  0  0  0  0
   -3.0902   -3.6950    0.7942 C   0  0  0  0  0  0  0  0  0  0  0  0
   -3.8919   -3.0220    1.1075 H   0  0  0  0  0  0  0  0  0  0  0  0
   -3.3286   -4.1035   -0.1910 H   0  0  0  0  0  0  0  0  0  0  0  0
   -1.7723   -2.9453    0.7391 C   0  0  0  0  0  0  0  0  0  0  0  0
   -0.8394   -3.3052    1.4340 O   0  0  0  0  0  0  0  0  0  0  0  0
   -1.6429   -1.8505   -0.0927 N   0  0  0  0  0  0  0  0  0  0  0  0
   -2.4638   -1.5659   -0.6170 H   0  0  0  0  0  0  0  0  0  0  0  0
   -0.4218   -1.0380   -0.2225 C   0  0  1  0  0  0  0  0  0  0  0  0
    0.3785   -1.7341   -0.4989 H   0  0  0  0  0  0  0  0  0  0  0  0
   -0.4704    0.0324   -1.3410 C   0  0  0  0  0  0  0  0  0  0  0  0
   -1.0816    0.8622   -0.9722 H   0  0  0  0  0  0  0  0  0  0  0  0
    0.5512    0.4148   -1.4455 H   0  0  0  0  0  0  0  0  0  0  0  0
   -1.0005   -0.2958   -2.7384 C   0  0  0  0  0  0  0  0  0  0  0  0
   -1.9859   -1.2526   -3.0685 C   0  0  0  0  0  0  0  0  0  0  0  0
   -2.4619   -1.8887   -2.3393 H   0  0  0  0  0  0  0  0  0  0  0  0
   -2.3979   -1.4383   -4.3935 C   0  0  0  0  0  0  0  0  0  0  0  0
   -3.1512   -2.1844   -4.6283 H   0  0  0  0  0  0  0  0  0  0  0  0
   -1.8444   -0.6711   -5.4185 C   0  0  0  0  0  0  0  0  0  0  0  0
   -2.1645   -0.8173   -6.4460 H   0  0  0  0  0  0  0  0  0  0  0  0
   -0.8759    0.2849   -5.1161 C   0  0  0  0  0  0  0  0  0  0  0  0
   -0.4405    0.8874   -5.9082 H   0  0  0  0  0  0  0  0  0  0  0  0
   -0.4642    0.4671   -3.7927 C   0  0  0  0  0  0  0  0  0  0  0  0
    0.2895    1.2220   -3.5875 H   0  0  0  0  0  0  0  0  0  0  0  0
    0.0330   -0.3704    1.0933 C   0  0  0  0  0  0  0  0  0  0  0  0
    1.2245   -0.1774    1.2949 O   0  0  0  0  0  0  0  0  0  0  0  0
   -0.8931    0.2576    1.9077 N   0  0  0  0  0  0  0  0  0  0  0  0
   -1.8671    0.0238    1.7486 H   0  0  0  0  0  0  0  0  0  0  0  0
   -0.5273    0.9355    3.1452 C   0  0  0  0  0  0  0  0  0  0  0  0
    0.1918    1.7373    2.9461 H   0  0  0  0  0  0  0  0  0  0  0  0
   -1.4132    1.3770    3.6115 H   0  0  0  0  0  0  0  0  0  0  0  0
   -0.0793    0.2270    3.8499 H   0  0  0  0  0  0  0  0  0  0  0  0
  1  2  1  0  0  0  0
  2  3  1  0  0  0  0
  2  4  1  0  0  0  0
  2  5  1  0  0  0  0
  5  6  2  0  0  0  0
  5  7  1  0  0  0  0
  7  8  1  0  0  0  0
  7  9  1  0  0  0  0
  9 10  1  0  0  0  0
  9 11  1  0  0  0  0
  9 25  1  0  0  0  0
 11 12  1  0  0  0  0
 11 13  1  0  0  0  0
 11 14  1  0  0  0  0
 14 15  1  0  0  0  0
 14 23  2  0  0  0  0
 15 16  1  0  0  0  0
 15 17  2  0  0  0  0
 17 18  1  0  0  0  0
 17 19  1  0  0  0  0
 19 20  1  0  0  0  0
 19 21  2  0  0  0  0
 21 22  1  0  0  0  0
 21 23  1  0  0  0  0
 23 24  1  0  0  0  0
 25 26  2  0  0  0  0
 25 27  1  0  0  0  0
 27 28  1  0  0  0  0
 27 29  1  0  0  0  0
 29 30  1  0  0  0  0
 29 31  1  0  0  0  0
 29 32  1  0  0  0  0
M  END
$$$$

  -OEChem-03222214073D

 32 32  0     1  0  0  0  0  0999 V2000
   -3.0215   -4.5504    1.3641 H   0  0  0  0  0  0  0  0  0  0  0  0
   -3.0909   -3.6996    0.6803 C   0  0  0  0  0  0  0  0  0  0  0  0
   -3.9149   -3.0578    1.0006 H   0  0  0  0  0  0  0  0  0  0  0  0
   -3.2971   -4.0743   -0.3252 H   0  0  0  0  0  0  0  0  0  0  0  0
   -1.7901   -2.9187    0.6846 C   0  0  0  0  0  0  0  0  0  0  0  0
   -0.8704   -3.2760    1.3982 O   0  0  0  0  0  0  0  0  0  0  0  0
   -1.6632   -1.8014   -0.1174 N   0  0  0  0  0  0  0  0  0  0  0  0
   -2.4602   -1.5544   -0.6898 H   0  0  0  0  0  0  0  0  0  0  0  0
   -0.4369   -0.9945   -0.2412 C   0  0  1  0  0  0  0  0  0  0  0  0
    0.3527   -1.6909   -0.5454 H   0  0  0  0  0  0  0  0  0  0  0  0
   -0.4737    0.1138   -1.3245 C   0  0  0  0  0  0  0  0  0  0  0  0
   -1.0753    0.9403   -0.9332 H   0  0  0  0  0  0  0  0  0  0  0  0
    0.5495    0.4928   -1.4254 H   0  0  0  0  0  0  0  0  0  0  0  0
   -1.0264   -0.1990   -2.7142 C   0  0  0  0  0  0  0  0  0  0  0  0
   -2.2144   -0.9107   -2.9837 C   0  0  0  0  0  0  0  0  0  0  0  0
   -2.8840   -1.2376   -2.2034 H   0  0  0  0  0  0  0  0  0  0  0  0
   -2.6107   -1.1857   -4.2977 C   0  0  0  0  0  0  0  0  0  0  0  0
   -3.5317   -1.7296   -4.4863 H   0  0  0  0  0  0  0  0  0  0  0  0
   -1.8307   -0.7567   -5.3721 C   0  0  0  0  0  0  0  0  0  0  0  0
   -2.1376   -0.9708   -6.3919 H   0  0  0  0  0  0  0  0  0  0  0  0
   -0.6556   -0.0459   -5.1295 C   0  0  0  0  0  0  0  0  0  0  0  0
   -0.0432    0.2924   -5.9604 H   0  0  0  0  0  0  0  0  0  0  0  0
   -0.2618    0.2272   -3.8160 C   0  0  0  0  0  0  0  0  0  0  0  0
    0.6627    0.7757   -3.6595 H   0  0  0  0  0  0  0  0  0  0  0  0
    0.0400   -0.3691    1.0877 C   0  0  0  0  0  0  0  0  0  0  0  0
    1.2353   -0.1871    1.2778 O   0  0  0  0  0  0  0  0  0  0  0  0
   -0.8720    0.2411    1.9307 N   0  0  0  0  0  0  0  0  0  0  0  0
   -1.8482    0.0110    1.7801 H   0  0  0  0  0  0  0  0  0  0  0  0
   -0.4867    0.8821    3.1817 C   0  0  0  0  0  0  0  0  0  0  0  0
    0.2380    1.6818    2.9959 H   0  0  0  0  0  0  0  0  0  0  0  0
   -1.3634    1.3191    3.6685 H   0  0  0  0  0  0  0  0  0  0  0  0
   -0.0379    0.1514    3.8628 H   0  0  0  0  0  0  0  0  0  0  0  0
  1  2  1  0  0  0  0
  2  3  1  0  0  0  0
  2  4  1  0  0  0  0
  2  5  1  0  0  0  0
  5  6  2  0  0  0  0
  5  7  1  0  0  0  0
  7  8  1  0  0  0  0
  7  9  1  0  0  0  0
  9 10  1  0  0  0  0
  9 11  1  0  0  0  0
  9 25  1  0  0  0  0
 11 12  1  0  0  0  0
 11 13  1  0  0  0  0
 11 14  1  0  0  0  0
 14 15  1  0  0  0  0
 14 23  2  0  0  0  0
 15 16  1  0  0  0  0
 15 17  2  0  0  0  0
 17 18  1  0  0  0  0
 17 19  1  0  0  0  0
 19 20  1  0  0  0  0
 19 21  2  0  0  0  0
 21 22  1  0  0  0  0
 21 23  1  0  0  0  0
 23 24  1  0  0  0  0
 25 26  2  0  0  0  0
 25 27  1  0  0  0  0
 27 28  1  0  0  0  0
 27 29  1  0  0  0  0
 29 30  1  0  0  0  0
 29 31  1  0  0  0  0
 29 32  1  0  0  0  0
M  END
$$$$

  -OEChem-03222214073D

 32 32  0     1  0  0  0  0  0999 V2000
   -3.0312   -4.5866    1.0503 H   0  0  0  0  0  0  0  0  0  0  0  0
   -3.0600   -3.7267    0.3749 C   0  0  0  0  0  0  0  0  0  0  0  0
   -3.9863   -3.1738    0.5481 H   0  0  0  0  0  0  0  0  0  0  0  0
   -3.0465   -4.0900   -0.6557 H   0  0  0  0  0  0  0  0  0  0  0  0
   -1.8638   -2.8272    0.6238 C   0  0  0  0  0  0  0  0  0  0  0  0
   -1.0834   -3.0941    1.5196 O   0  0  0  0  0  0  0  0  0  0  0  0
   -1.6772   -1.7122   -0.1704 N   0  0  0  0  0  0  0  0  0  0  0  0
   -2.2562   -1.6858   -1.0032 H   0  0  0  0  0  0  0  0  0  0  0  0
   -0.4096   -0.9608   -0.2370 C   0  0  1  0  0  0  0  0  0  0  0  0
    0.3639   -1.6745   -0.5417 H   0  0  0  0  0  0  0  0  0  0  0  0
   -0.4092    0.1854   -1.2802 C   0  0  0  0  0  0  0  0  0  0  0  0
   -0.9895    1.0201   -0.8736 H   0  0  0  0  0  0  0  0  0  0  0  0
    0.6205    0.5433   -1.3890 H   0  0  0  0  0  0  0  0  0  0  0  0
   -0.9851   -0.1286   -2.6522 C   0  0  0  0  0  0  0  0  0  0  0  0
   -2.3178   -0.5384   -2.8477 C   0  0  0  0  0  0  0  0  0  0  0  0
   -3.0255   -0.5321   -2.0263 H   0  0  0  0  0  0  0  0  0  0  0  0
   -2.7818   -0.8943   -4.1184 C   0  0  0  0  0  0  0  0  0  0  0  0
   -3.8170   -1.1919   -4.2569 H   0  0  0  0  0  0  0  0  0  0  0  0
   -1.9176   -0.8548   -5.2148 C   0  0  0  0  0  0  0  0  0  0  0  0
   -2.2753   -1.1301   -6.2028 H   0  0  0  0  0  0  0  0  0  0  0  0
   -0.5917   -0.4535   -5.0385 C   0  0  0  0  0  0  0  0  0  0  0  0
    0.0845   -0.4224   -5.8880 H   0  0  0  0  0  0  0  0  0  0  0  0
   -0.1308   -0.0967   -3.7669 C   0  0  0  0  0  0  0  0  0  0  0  0
    0.9084    0.1972   -3.6496 H   0  0  0  0  0  0  0  0  0  0  0  0
    0.0525   -0.3649    1.1110 C   0  0  0  0  0  0  0  0  0  0  0  0
    1.2496   -0.2346    1.3321 O   0  0  0  0  0  0  0  0  0  0  0  0
   -0.8568    0.2837    1.9273 N   0  0  0  0  0  0  0  0  0  0  0  0
   -1.8331    0.0577    1.7666 H   0  0  0  0  0  0  0  0  0  0  0  0
   -0.4808    0.8893    3.1984 C   0  0  0  0  0  0  0  0  0  0  0  0
    0.2796    1.6624    3.0454 H   0  0  0  0  0  0  0  0  0  0  0  0
   -1.3527    1.3538    3.6687 H   0  0  0  0  0  0  0  0  0  0  0  0
   -0.0801    0.1307    3.8791 H   0  0  0  0  0  0  0  0  0  0  0  0
  1  2  1  0  0  0  0
  2  3  1  0  0  0  0
  2  4  1  0  0  0  0
  2  5  1  0  0  0  0
  5  6  2  0  0  0  0
  5  7  1  0  0  0  0
  7  8  1  0  0  0  0
  7  9  1  0  0  0  0
  9 10  1  0  0  0  0
  9 11  1  0  0  0  0
  9 25  1  0  0  0  0
 11 12  1  0  0  0  0
 11 13  1  0  0  0  0
 11 14  1  0  0  0  0
 14 15  1  0  0  0  0
 14 23  2  0  0  0  0
 15 16  1  0  0  0  0
 15 17  2  0  0  0  0
 17 18  1  0  0  0  0
 17 19  1  0  0  0  0
 19 20  1  0  0  0  0
 19 21  2  0  0  0  0
 21 22  1  0  0  0  0
 21 23  1  0  0  0  0
 23 24  1  0  0  0  0
 25 26  2  0  0  0  0
 25 27  1  0  0  0  0
 27 28  1  0  0  0  0
 27 29  1  0  0  0  0
 29 30  1  0  0  0  0
 29 31  1  0  0  0  0
 29 32  1  0  0  0  0
M  END
$$$$

  -OEChem-03222214073D

 32 32  0     1  0  0  0  0  0999 V2000
   -3.0710   -4.5458    0.8770 H   0  0  0  0  0  0  0  0  0  0  0  0
   -3.0786   -3.6607    0.2344 C   0  0  0  0  0  0  0  0  0  0  0  0
   -3.9961   -3.0977    0.4210 H   0  0  0  0  0  0  0  0  0  0  0  0
   -3.0629   -3.9852   -0.8089 H   0  0  0  0  0  0  0  0  0  0  0  0
   -1.8685   -2.7935    0.5265 C   0  0  0  0  0  0  0  0  0  0  0  0
   -1.1123   -3.0957    1.4321 O   0  0  0  0  0  0  0  0  0  0  0  0
   -1.6423   -1.6640   -0.2352 N   0  0  0  0  0  0  0  0  0  0  0  0
   -2.2089   -1.5916   -1.0757 H   0  0  0  0  0  0  0  0  0  0  0  0
   -0.3661   -0.9233   -0.2451 C   0  0  1  0  0  0  0  0  0  0  0  0
    0.4132   -1.6309   -0.5486 H   0  0  0  0  0  0  0  0  0  0  0  0
   -0.3703    0.2328   -1.2705 C   0  0  0  0  0  0  0  0  0  0  0  0
   -0.9628    1.0617   -0.8694 H   0  0  0  0  0  0  0  0  0  0  0  0
    0.6544    0.6030   -1.3866 H   0  0  0  0  0  0  0  0  0  0  0  0
   -0.9385   -0.1345   -2.6270 C   0  0  0  0  0  0  0  0  0  0  0  0
   -2.3224   -0.2832   -2.8284 C   0  0  0  0  0  0  0  0  0  0  0  0
   -3.0175   -0.0648   -2.0232 H   0  0  0  0  0  0  0  0  0  0  0  0
   -2.8246   -0.6776   -4.0729 C   0  0  0  0  0  0  0  0  0  0  0  0
   -3.8959   -0.7764   -4.2234 H   0  0  0  0  0  0  0  0  0  0  0  0
   -1.9470   -0.9363   -5.1294 C   0  0  0  0  0  0  0  0  0  0  0  0
   -2.3339   -1.2405   -6.0978 H   0  0  0  0  0  0  0  0  0  0  0  0
   -0.5691   -0.7986   -4.9401 C   0  0  0  0  0  0  0  0  0  0  0  0
    0.1148   -1.0011   -5.7595 H   0  0  0  0  0  0  0  0  0  0  0  0
   -0.0691   -0.4025   -3.6951 C   0  0  0  0  0  0  0  0  0  0  0  0
    1.0048   -0.3103   -3.5598 H   0  0  0  0  0  0  0  0  0  0  0  0
    0.0672   -0.3560    1.1240 C   0  0  0  0  0  0  0  0  0  0  0  0
    1.2595   -0.2464    1.3791 O   0  0  0  0  0  0  0  0  0  0  0  0
   -0.8545    0.2888    1.9295 N   0  0  0  0  0  0  0  0  0  0  0  0
   -1.8294    0.0807    1.7385 H   0  0  0  0  0  0  0  0  0  0  0  0
   -0.5034    0.8608    3.2235 C   0  0  0  0  0  0  0  0  0  0  0  0
    0.2816    1.6159    3.1099 H   0  0  0  0  0  0  0  0  0  0  0  0
   -1.3772    1.3396    3.6754 H   0  0  0  0  0  0  0  0  0  0  0  0
   -0.1444    0.0795    3.9017 H   0  0  0  0  0  0  0  0  0  0  0  0
  1  2  1  0  0  0  0
  2  3  1  0  0  0  0
  2  4  1  0  0  0  0
  2  5  1  0  0  0  0
  5  6  2  0  0  0  0
  5  7  1  0  0  0  0
  7  8  1  0  0  0  0
  7  9  1  0  0  0  0
  9 10  1  0  0  0  0
  9 11  1  0  0  0  0
  9 25  1  0  0  0  0
 11 12  1  0  0  0  0
 11 13  1  0  0  0  0
 11 14  1  0  0  0  0
 14 15  1  0  0  0  0
 14 23  2  0  0  0  0
 15 16  1  0  0  0  0
 15 17  2  0  0  0  0
 17 18  1  0  0  0  0
 17 19  1  0  0  0  0
 19 20  1  0  0  0  0
 19 21  2  0  0  0  0
 21 22  1  0  0  0  0
 21 23  1  0  0  0  0
 23 24  1  0  0  0  0
 25 26  2  0  0  0  0
 25 27  1  0  0  0  0
 27 28  1  0  0  0  0
 27 29  1  0  0  0  0
 29 30  1  0  0  0  0
 29 31  1  0  0  0  0
 29 32  1  0  0  0  0
M  END
$$$$

  -OEChem-03222214073D

 32 32  0     1  0  0  0  0  0999 V2000
   -3.1065   -4.5058    0.7765 H   0  0  0  0  0  0  0  0  0  0  0  0
   -3.0933   -3.6079    0.1521 C   0  0  0  0  0  0  0  0  0  0  0  0
   -4.0000   -3.0299    0.3468 H   0  0  0  0  0  0  0  0  0  0  0  0
   -3.0799   -3.9106   -0.8978 H   0  0  0  0  0  0  0  0  0  0  0  0
   -1.8672   -2.7710    0.4659 C   0  0  0  0  0  0  0  0  0  0  0  0
   -1.1244   -3.0999    1.3734 O   0  0  0  0  0  0  0  0  0  0  0  0
   -1.6125   -1.6344   -0.2751 N   0  0  0  0  0  0  0  0  0  0  0  0
   -2.1783   -1.5225   -1.1129 H   0  0  0  0  0  0  0  0  0  0  0  0
   -0.3312   -0.9022   -0.2497 C   0  0  1  0  0  0  0  0  0  0  0  0
    0.4521   -1.6056   -0.5529 H   0  0  0  0  0  0  0  0  0  0  0  0
   -0.3458    0.2573   -1.2656 C   0  0  0  0  0  0  0  0  0  0  0  0
   -0.9441    1.0831   -0.8665 H   0  0  0  0  0  0  0  0  0  0  0  0
    0.6745    0.6347   -1.3940 H   0  0  0  0  0  0  0  0  0  0  0  0
   -0.9111   -0.1520   -2.6074 C   0  0  0  0  0  0  0  0  0  0  0  0
   -2.2848   -0.0337   -2.8759 C   0  0  0  0  0  0  0  0  0  0  0  0
   -2.9507    0.3940   -2.1322 H   0  0  0  0  0  0  0  0  0  0  0  0
   -2.8064   -0.4510   -4.1050 C   0  0  0  0  0  0  0  0  0  0  0  0
   -3.8683   -0.3489   -4.3095 H   0  0  0  0  0  0  0  0  0  0  0  0
   -1.9591   -0.9931   -5.0758 C   0  0  0  0  0  0  0  0  0  0  0  0
   -2.3612   -1.3133   -6.0328 H   0  0  0  0  0  0  0  0  0  0  0  0
   -0.5911   -1.1184   -4.8157 C   0  0  0  0  0  0  0  0  0  0  0  0
    0.0692   -1.5385   -5.5690 H   0  0  0  0  0  0  0  0  0  0  0  0
   -0.0708   -0.7020   -3.5857 C   0  0  0  0  0  0  0  0  0  0  0  0
    0.9926   -0.8108   -3.3914 H   0  0  0  0  0  0  0  0  0  0  0  0
    0.0827   -0.3515    1.1307 C   0  0  0  0  0  0  0  0  0  0  0  0
    1.2712   -0.2511    1.4061 O   0  0  0  0  0  0  0  0  0  0  0  0
   -0.8498    0.2920    1.9243 N   0  0  0  0  0  0  0  0  0  0  0  0
   -1.8215    0.0873    1.7145 H   0  0  0  0  0  0  0  0  0  0  0  0
   -0.5203    0.8442    3.2323 C   0  0  0  0  0  0  0  0  0  0  0  0
    0.2737    1.5934    3.1448 H   0  0  0  0  0  0  0  0  0  0  0  0
   -1.3991    1.3254    3.6716 H   0  0  0  0  0  0  0  0  0  0  0  0
   -0.1829    0.0508    3.9077 H   0  0  0  0  0  0  0  0  0  0  0  0
  1  2  1  0  0  0  0
  2  3  1  0  0  0  0
  2  4  1  0  0  0  0
  2  5  1  0  0  0  0
  5  6  2  0  0  0  0
  5  7  1  0  0  0  0
  7  8  1  0  0  0  0
  7  9  1  0  0  0  0
  9 10  1  0  0  0  0
  9 11  1  0  0  0  0
  9 25  1  0  0  0  0
 11 12  1  0  0  0  0
 11 13  1  0  0  0  0
 11 14  1  0  0  0  0
 14 15  1  0  0  0  0
 14 23  2  0  0  0  0
 15 16  1  0  0  0  0
 15 17  2  0  0  0  0
 17 18  1  0  0  0  0
 17 19  1  0  0  0  0
 19 20  1  0  0  0  0
 19 21  2  0  0  0  0
 21 22  1  0  0  0  0
 21 23  1  0  0  0  0
 23 24  1  0  0  0  0
 25 26  2  0  0  0  0
 25 27  1  0  0  0  0
 27 28  1  0  0  0  0
 27 29  1  0  0  0  0
 29 30  1  0  0  0  0
 29 31  1  0  0  0  0
 29 32  1  0  0  0  0
M  END
$$$$

  -OEChem-03222214073D

 32 32  0     1  0  0  0  0  0999 V2000
   -3.1243   -4.4858    0.7564 H   0  0  0  0  0  0  0  0  0  0  0  0
   -3.1025   -3.5856    0.1354 C   0  0  0  0  0  0  0  0  0  0  0  0
   -4.0005   -2.9968    0.3363 H   0  0  0  0  0  0  0  0  0  0  0  0
   -3.0975   -3.8839   -0.9158 H   0  0  0  0  0  0  0  0  0  0  0  0
   -1.8647   -2.7657    0.4471 C   0  0  0  0  0  0  0  0  0  0  0  0
   -1.1199   -3.1098    1.3474 O   0  0  0  0  0  0  0  0  0  0  0  0
   -1.5988   -1.6280   -0.2878 N   0  0  0  0  0  0  0  0  0  0  0  0
   -2.1734   -1.4914   -1.1165 H   0  0  0  0  0  0  0  0  0  0  0  0
   -0.3157   -0.8994   -0.2491 C   0  0  1  0  0  0  0  0  0  0  0  0
    0.4702   -1.6015   -0.5484 H   0  0  0  0  0  0  0  0  0  0  0  0
   -0.3361    0.2577   -1.2654 C   0  0  0  0  0  0  0  0  0  0  0  0
   -0.9343    1.0837   -0.8666 H   0  0  0  0  0  0  0  0  0  0  0  0
    0.6830    0.6351   -1.4024 H   0  0  0  0  0  0  0  0  0  0  0  0
   -0.8996   -0.1711   -2.6016 C   0  0  0  0  0  0  0  0  0  0  0  0
   -2.1943    0.2096   -2.9888 C   0  0  0  0  0  0  0  0  0  0  0  0
   -2.7968    0.8380   -2.3392 H   0  0  0  0  0  0  0  0  0  0  0  0
   -2.7189   -0.2089   -4.2165 C   0  0  0  0  0  0  0  0  0  0  0  0
   -3.7191    0.0943   -4.5132 H   0  0  0  0  0  0  0  0  0  0  0  0
   -1.9532   -1.0121   -5.0670 C   0  0  0  0  0  0  0  0  0  0  0  0
   -2.3573   -1.3345   -6.0224 H   0  0  0  0  0  0  0  0  0  0  0  0
   -0.6627   -1.3954   -4.6893 C   0  0  0  0  0  0  0  0  0  0  0  0
   -0.0644   -2.0166   -5.3498 H   0  0  0  0  0  0  0  0  0  0  0  0
   -0.1391   -0.9764   -3.4617 C   0  0  0  0  0  0  0  0  0  0  0  0
    0.8642   -1.2806   -3.1765 H   0  0  0  0  0  0  0  0  0  0  0  0
    0.0882   -0.3531    1.1358 C   0  0  0  0  0  0  0  0  0  0  0  0
    1.2747   -0.2597    1.4224 O   0  0  0  0  0  0  0  0  0  0  0  0
   -0.8488    0.2915    1.9234 N   0  0  0  0  0  0  0  0  0  0  0  0
   -1.8197    0.0922    1.7051 H   0  0  0  0  0  0  0  0  0  0  0  0
   -0.5278    0.8395    3.2351 C   0  0  0  0  0  0  0  0  0  0  0  0
    0.2687    1.5868    3.1554 H   0  0  0  0  0  0  0  0  0  0  0  0
   -1.4085    1.3223    3.6689 H   0  0  0  0  0  0  0  0  0  0  0  0
   -0.1977    0.0439    3.9113 H   0  0  0  0  0  0  0  0  0  0  0  0
  1  2  1  0  0  0  0
  2  3  1  0  0  0  0
  2  4  1  0  0  0  0
  2  5  1  0  0  0  0
  5  6  2  0  0  0  0
  5  7  1  0  0  0  0
  7  8  1  0  0  0  0
  7  9  1  0  0  0  0
  9 10  1  0  0  0  0
  9 11  1  0  0  0  0
  9 25  1  0  0  0  0
 11 12  1  0  0  0  0
 11 13  1  0  0  0  0
 11 14  1  0  0  0  0
 14 15  1  0  0  0  0
 14 23  2  0  0  0  0
 15 16  1  0  0  0  0
 15 17  2  0  0  0  0
 17 18  1  0  0  0  0
 17 19  1  0  0  0  0
 19 20  1  0  0  0  0
 19 21  2  0  0  0  0
 21 22  1  0  0  0  0
 21 23  1  0  0  0  0
 23 24  1  0  0  0  0
 25 26  2  0  0  0  0
 25 27  1  0  0  0  0
 27 28  1  0  0  0  0
 27 29  1  0  0  0  0
 29 30  1  0  0  0  0
 29 31  1  0  0  0  0
 29 32  1  0  0  0  0
M  END
$$$$

  -OEChem-03222214073D

 32 32  0     1  0  0  0  0  0999 V2000
   -3.1421   -4.4817    0.7792 H   0  0  0  0  0  0  0  0  0  0  0  0
   -3.1135   -3.5834    0.1560 C   0  0  0  0  0  0  0  0  0  0  0  0
   -4.0053   -2.9855    0.3583 H   0  0  0  0  0  0  0  0  0  0  0  0
   -3.1150   -3.8847   -0.8945 H   0  0  0  0  0  0  0  0  0  0  0  0
   -1.8669   -2.7749    0.4620 C   0  0  0  0  0  0  0  0  0  0  0  0
   -1.1205   -3.1245    1.3588 O   0  0  0  0  0  0  0  0  0  0  0  0
   -1.5914   -1.6439   -0.2792 N   0  0  0  0  0  0  0  0  0  0  0  0
   -2.1735   -1.4970   -1.1013 H   0  0  0  0  0  0  0  0  0  0  0  0
   -0.3073   -0.9167   -0.2390 C   0  0  1  0  0  0  0  0  0  0  0  0
    0.4812   -1.6203   -0.5268 H   0  0  0  0  0  0  0  0  0  0  0  0
   -0.3338    0.2333   -1.2640 C   0  0  0  0  0  0  0  0  0  0  0  0
   -0.9332    1.0581   -0.8652 H   0  0  0  0  0  0  0  0  0  0  0  0
    0.6839    0.6122   -1.4055 H   0  0  0  0  0  0  0  0  0  0  0  0
   -0.8959   -0.1985   -2.6014 C   0  0  0  0  0  0  0  0  0  0  0  0
   -2.0419    0.4189   -3.1262 C   0  0  0  0  0  0  0  0  0  0  0  0
   -2.5351    1.2164   -2.5780 H   0  0  0  0  0  0  0  0  0  0  0  0
   -2.5629    0.0164   -4.3607 C   0  0  0  0  0  0  0  0  0  0  0  0
   -3.4502    0.4996   -4.7592 H   0  0  0  0  0  0  0  0  0  0  0  0
   -1.9376   -1.0018   -5.0861 C   0  0  0  0  0  0  0  0  0  0  0  0
   -2.3390   -1.3113   -6.0469 H   0  0  0  0  0  0  0  0  0  0  0  0
   -0.7885   -1.6141   -4.5778 C   0  0  0  0  0  0  0  0  0  0  0  0
   -0.2951   -2.3990   -5.1436 H   0  0  0  0  0  0  0  0  0  0  0  0
   -0.2688   -1.2115   -3.3433 C   0  0  0  0  0  0  0  0  0  0  0  0
    0.6295   -1.6893   -2.9628 H   0  0  0  0  0  0  0  0  0  0  0  0
    0.0902   -0.3584    1.1429 C   0  0  0  0  0  0  0  0  0  0  0  0
    1.2749   -0.2683    1.4374 O   0  0  0  0  0  0  0  0  0  0  0  0
   -0.8496    0.2949    1.9196 N   0  0  0  0  0  0  0  0  0  0  0  0
   -1.8200    0.1017    1.6935 H   0  0  0  0  0  0  0  0  0  0  0  0
   -0.5353    0.8531    3.2286 C   0  0  0  0  0  0  0  0  0  0  0  0
    0.2606    1.6010    3.1470 H   0  0  0  0  0  0  0  0  0  0  0  0
   -1.4188    1.3370    3.6557 H   0  0  0  0  0  0  0  0  0  0  0  0
   -0.2064    0.0623    3.9110 H   0  0  0  0  0  0  0  0  0  0  0  0
  1  2  1  0  0  0  0
  2  3  1  0  0  0  0
  2  4  1  0  0  0  0
  2  5  1  0  0  0  0
  5  6  2  0  0  0  0
  5  7  1  0  0  0  0
  7  8  1  0  0  0  0
  7  9  1  0  0  0  0
  9 10  1  0  0  0  0
  9 11  1  0  0  0  0
  9 25  1  0  0  0  0
 11 12  1  0  0  0  0
 11 13  1  0  0  0  0
 11 14  1  0  0  0  0
 14 15  1  0  0  0  0
 14 23  2  0  0  0  0
 15 16  1  0  0  0  0
 15 17  2  0  0  0  0
 17 18  1  0  0  0  0
 17 19  1  0  0  0  0
 19 20  1  0  0  0  0
 19 21  2  0  0  0  0
 21 22  1  0  0  0  0
 21 23  1  0  0  0  0
 23 24  1  0  0  0  0
 25 26  2  0  0  0  0
 25 27  1  0  0  0  0
 27 28  1  0  0  0  0
 27 29  1  0  0  0  0
 29 30  1  0  0  0  0
 29 31  1  0  0  0  0
 29 32  1  0  0  0  0
M  END
$$$$

  -OEChem-03222214073D

 32 32  0     1  0  0  0  0  0999 V2000
   -3.1430   -4.4866    0.8631 H   0  0  0  0  0  0  0  0  0  0  0  0
   -3.1198   -3.5956    0.2292 C   0  0  0  0  0  0  0  0  0  0  0  0
   -4.0021   -2.9881    0.4432 H   0  0  0  0  0  0  0  0  0  0  0  0
   -3.1462   -3.9086   -0.8174 H   0  0  0  0  0  0  0  0  0  0  0  0
   -1.8602   -2.7947    0.5009 C   0  0  0  0  0  0  0  0  0  0  0  0
   -1.0968   -3.1438    1.3835 O   0  0  0  0  0  0  0  0  0  0  0  0
   -1.5891   -1.6729   -0.2559 N   0  0  0  0  0  0  0  0  0  0  0  0
   -2.1892   -1.5192   -1.0635 H   0  0  0  0  0  0  0  0  0  0  0  0
   -0.3085   -0.9391   -0.2274 C   0  0  1  0  0  0  0  0  0  0  0  0
    0.4854   -1.6418   -0.5014 H   0  0  0  0  0  0  0  0  0  0  0  0
   -0.3401    0.1962   -1.2697 C   0  0  0  0  0  0  0  0  0  0  0  0
   -0.9431    1.0208   -0.8754 H   0  0  0  0  0  0  0  0  0  0  0  0
    0.6770    0.5772   -1.4112 H   0  0  0  0  0  0  0  0  0  0  0  0
   -0.8974   -0.2296   -2.6143 C   0  0  0  0  0  0  0  0  0  0  0  0
   -1.8285    0.5852   -3.2772 C   0  0  0  0  0  0  0  0  0  0  0  0
   -2.1633    1.5138   -2.8241 H   0  0  0  0  0  0  0  0  0  0  0  0
   -2.3378    0.2157   -4.5267 C   0  0  0  0  0  0  0  0  0  0  0  0
   -3.0604    0.8526   -5.0286 H   0  0  0  0  0  0  0  0  0  0  0  0
   -1.9107   -0.9680   -5.1345 C   0  0  0  0  0  0  0  0  0  0  0  0
   -2.3025   -1.2533   -6.1067 H   0  0  0  0  0  0  0  0  0  0  0  0
   -0.9672   -1.7763   -4.4953 C   0  0  0  0  0  0  0  0  0  0  0  0
   -0.6221   -2.6892   -4.9721 H   0  0  0  0  0  0  0  0  0  0  0  0
   -0.4580   -1.4053   -3.2468 C   0  0  0  0  0  0  0  0  0  0  0  0
    0.2879   -2.0381   -2.7750 H   0  0  0  0  0  0  0  0  0  0  0  0
    0.0834   -0.3610    1.1481 C   0  0  0  0  0  0  0  0  0  0  0  0
    1.2668   -0.2637    1.4452 O   0  0  0  0  0  0  0  0  0  0  0  0
   -0.8610    0.2974    1.9153 N   0  0  0  0  0  0  0  0  0  0  0  0
   -1.8305    0.1025    1.6870 H   0  0  0  0  0  0  0  0  0  0  0  0
   -0.5528    0.8708    3.2193 C   0  0  0  0  0  0  0  0  0  0  0  0
    0.2471    1.6138    3.1336 H   0  0  0  0  0  0  0  0  0  0  0  0
   -1.4366    1.3646    3.6342 H   0  0  0  0  0  0  0  0  0  0  0  0
   -0.2326    0.0870    3.9138 H   0  0  0  0  0  0  0  0  0  0  0  0
  1  2  1  0  0  0  0
  2  3  1  0  0  0  0
  2  4  1  0  0  0  0
  2  5  1  0  0  0  0
  5  6  2  0  0  0  0
  5  7  1  0  0  0  0
  7  8  1  0  0  0  0
  7  9  1  0  0  0  0
  9 10  1  0  0  0  0
  9 11  1  0  0  0  0
  9 25  1  0  0  0  0
 11 12  1  0  0  0  0
 11 13  1  0  0  0  0
 11 14  1  0  0  0  0
 14 15  1  0  0  0  0
 14 23  2  0  0  0  0
 15 16  1  0  0  0  0
 15 17  2  0  0  0  0
 17 18  1  0  0  0  0
 17 19  1  0  0  0  0
 19 20  1  0  0  0  0
 19 21  2  0  0  0  0
 21 22  1  0  0  0  0
 21 23  1  0  0  0  0
 23 24  1  0  0  0  0
 25 26  2  0  0  0  0
 25 27  1  0  0  0  0
 27 28  1  0  0  0  0
 27 29  1  0  0  0  0
 29 30  1  0  0  0  0
 29 31  1  0  0  0  0
 29 32  1  0  0  0  0
M  END
$$$$

  -OEChem-03222214073D

 32 32  0     1  0  0  0  0  0999 V2000
   -3.1478   -4.4936    0.9668 H   0  0  0  0  0  0  0  0  0  0  0  0
   -3.1260   -3.6155    0.3152 C   0  0  0  0  0  0  0  0  0  0  0  0
   -4.0001   -2.9963    0.5293 H   0  0  0  0  0  0  0  0  0  0  0  0
   -3.1687   -3.9483   -0.7247 H   0  0  0  0  0  0  0  0  0  0  0  0
   -1.8566   -2.8199    0.5532 C   0  0  0  0  0  0  0  0  0  0  0  0
   -1.0754   -3.1659    1.4211 O   0  0  0  0  0  0  0  0  0  0  0  0
   -1.5949   -1.7084   -0.2218 N   0  0  0  0  0  0  0  0  0  0  0  0
   -2.2202   -1.5462   -1.0084 H   0  0  0  0  0  0  0  0  0  0  0  0
   -0.3189   -0.9663   -0.2132 C   0  0  1  0  0  0  0  0  0  0  0  0
    0.4786   -1.6684   -0.4796 H   0  0  0  0  0  0  0  0  0  0  0  0
   -0.3580    0.1510   -1.2753 C   0  0  0  0  0  0  0  0  0  0  0  0
   -0.9663    0.9748   -0.8875 H   0  0  0  0  0  0  0  0  0  0  0  0
    0.6575    0.5362   -1.4161 H   0  0  0  0  0  0  0  0  0  0  0  0
   -0.9114   -0.2635   -2.6279 C   0  0  0  0  0  0  0  0  0  0  0  0
   -1.5750    0.6906   -3.4148 C   0  0  0  0  0  0  0  0  0  0  0  0
   -1.7172    1.7006   -3.0414 H   0  0  0  0  0  0  0  0  0  0  0  0
   -2.0632    0.3601   -4.6834 C   0  0  0  0  0  0  0  0  0  0  0  0
   -2.5809    1.1075   -5.2775 H   0  0  0  0  0  0  0  0  0  0  0  0
   -1.8756   -0.9276   -5.1917 C   0  0  0  0  0  0  0  0  0  0  0  0
   -2.2505   -1.1837   -6.1785 H   0  0  0  0  0  0  0  0  0  0  0  0
   -1.1881   -1.8794   -4.4348 C   0  0  0  0  0  0  0  0  0  0  0  0
   -1.0224   -2.8751   -4.8366 H   0  0  0  0  0  0  0  0  0  0  0  0
   -0.6993   -1.5465   -3.1671 C   0  0  0  0  0  0  0  0  0  0  0  0
   -0.1442   -2.2967   -2.6120 H   0  0  0  0  0  0  0  0  0  0  0  0
    0.0752   -0.3652    1.1521 C   0  0  0  0  0  0  0  0  0  0  0  0
    1.2588   -0.2548    1.4436 O   0  0  0  0  0  0  0  0  0  0  0  0
   -0.8704    0.2980    1.9137 N   0  0  0  0  0  0  0  0  0  0  0  0
   -1.8403    0.1004    1.6892 H   0  0  0  0  0  0  0  0  0  0  0  0
   -0.5605    0.9036    3.2027 C   0  0  0  0  0  0  0  0  0  0  0  0
    0.2301    1.6538    3.0954 H   0  0  0  0  0  0  0  0  0  0  0  0
   -1.4477    1.3963    3.6117 H   0  0  0  0  0  0  0  0  0  0  0  0
   -0.2267    0.1400    3.9132 H   0  0  0  0  0  0  0  0  0  0  0  0
  1  2  1  0  0  0  0
  2  3  1  0  0  0  0
  2  4  1  0  0  0  0
  2  5  1  0  0  0  0
  5  6  2  0  0  0  0
  5  7  1  0  0  0  0
  7  8  1  0  0  0  0
  7  9  1  0  0  0  0
  9 10  1  0  0  0  0
  9 11  1  0  0  0  0
  9 25  1  0  0  0  0
 11 12  1  0  0  0  0
 11 13  1  0  0  0  0
 11 14  1  0  0  0  0
 14 15  1  0  0  0  0
 14 23  2  0  0  0  0
 15 16  1  0  0  0  0
 15 17  2  0  0  0  0
 17 18  1  0  0  0  0
 17 19  1  0  0  0  0
 19 20  1  0  0  0  0
 19 21  2  0  0  0  0
 21 22  1  0  0  0  0
 21 23  1  0  0  0  0
 23 24  1  0  0  0  0
 25 26  2  0  0  0  0
 25 27  1  0  0  0  0
 27 28  1  0  0  0  0
 27 29  1  0  0  0  0
 29 30  1  0  0  0  0
 29 31  1  0  0  0  0
 29 32  1  0  0  0  0
M  END
$$$$

  -OEChem-03222214073D

 32 32  0     1  0  0  0  0  0999 V2000
   -3.1537   -4.4928    1.1062 H   0  0  0  0  0  0  0  0  0  0  0  0
   -3.1418   -3.6296    0.4345 C   0  0  0  0  0  0  0  0  0  0  0  0
   -4.0018   -2.9950    0.6618 H   0  0  0  0  0  0  0  0  0  0  0  0
   -3.2218   -3.9852   -0.5956 H   0  0  0  0  0  0  0  0  0  0  0  0
   -1.8557   -2.8452    0.6148 C   0  0  0  0  0  0  0  0  0  0  0  0
   -1.0477   -3.1880    1.4588 O   0  0  0  0  0  0  0  0  0  0  0  0
   -1.6106   -1.7450   -0.1817 N   0  0  0  0  0  0  0  0  0  0  0  0
   -2.2677   -1.5742   -0.9396 H   0  0  0  0  0  0  0  0  0  0  0  0
   -0.3401   -0.9925   -0.2051 C   0  0  1  0  0  0  0  0  0  0  0  0
    0.4576   -1.6946   -0.4713 H   0  0  0  0  0  0  0  0  0  0  0  0
   -0.3883    0.1076   -1.2868 C   0  0  0  0  0  0  0  0  0  0  0  0
   -0.9976    0.9335   -0.9048 H   0  0  0  0  0  0  0  0  0  0  0  0
    0.6272    0.4937   -1.4278 H   0  0  0  0  0  0  0  0  0  0  0  0
   -0.9420   -0.2900   -2.6468 C   0  0  0  0  0  0  0  0  0  0  0  0
   -1.3035    0.7324   -3.5385 C   0  0  0  0  0  0  0  0  0  0  0  0
   -1.2377    1.7711   -3.2273 H   0  0  0  0  0  0  0  0  0  0  0  0
   -1.7601    0.4378   -4.8276 C   0  0  0  0  0  0  0  0  0  0  0  0
   -2.0514    1.2420   -5.4971 H   0  0  0  0  0  0  0  0  0  0  0  0
   -1.8301   -0.8890   -5.2581 C   0  0  0  0  0  0  0  0  0  0  0  0
   -2.1796   -1.1190   -6.2606 H   0  0  0  0  0  0  0  0  0  0  0  0
   -1.4250   -1.9168   -4.4037 C   0  0  0  0  0  0  0  0  0  0  0  0
   -1.4473   -2.9473   -4.7467 H   0  0  0  0  0  0  0  0  0  0  0  0
   -0.9696   -1.6191   -3.1150 C   0  0  0  0  0  0  0  0  0  0  0  0
   -0.6186   -2.4391   -2.4963 H   0  0  0  0  0  0  0  0  0  0  0  0
    0.0664   -0.3660    1.1453 C   0  0  0  0  0  0  0  0  0  0  0  0
    1.2522   -0.2424    1.4217 O   0  0  0  0  0  0  0  0  0  0  0  0
   -0.8755    0.3013    1.9079 N   0  0  0  0  0  0  0  0  0  0  0  0
   -1.8464    0.0993    1.6930 H   0  0  0  0  0  0  0  0  0  0  0  0
   -0.5568    0.9285    3.1843 C   0  0  0  0  0  0  0  0  0  0  0  0
    0.2236    1.6862    3.0562 H   0  0  0  0  0  0  0  0  0  0  0  0
   -1.4444    1.4166    3.5976 H   0  0  0  0  0  0  0  0  0  0  0  0
   -0.2056    0.1786    3.9009 H   0  0  0  0  0  0  0  0  0  0  0  0
  1  2  1  0  0  0  0
  2  3  1  0  0  0  0
  2  4  1  0  0  0  0
  2  5  1  0  0  0  0
  5  6  2  0  0  0  0
  5  7  1  0  0  0  0
  7  8  1  0  0  0  0
  7  9  1  0  0  0  0
  9 10  1  0  0  0  0
  9 11  1  0  0  0  0
  9 25  1  0  0  0  0
 11 12  1  0  0  0  0
 11 13  1  0  0  0  0
 11 14  1  0  0  0  0
 14 15  1  0  0  0  0
 14 23  2  0  0  0  0
 15 16  1  0  0  0  0
 15 17  2  0  0  0  0
 17 18  1  0  0  0  0
 17 19  1  0  0  0  0
 19 20  1  0  0  0  0
 19 21  2  0  0  0  0
 21 22  1  0  0  0  0
 21 23  1  0  0  0  0
 23 24  1  0  0  0  0
 25 26  2  0  0  0  0
 25 27  1  0  0  0  0
 27 28  1  0  0  0  0
 27 29  1  0  0  0  0
 29 30  1  0  0  0  0
 29 31  1  0  0  0  0
 29 32  1  0  0  0  0
M  END
$$$$

  -OEChem-03222214073D

 32 32  0     1  0  0  0  0  0999 V2000
   -2.9942   -4.5570    1.4971 H   0  0  0  0  0  0  0  0  0  0  0  0
   -3.0691   -3.7254    0.7904 C   0  0  0  0  0  0  0  0  0  0  0  0
   -3.8967   -3.0797    1.0938 H   0  0  0  0  0  0  0  0  0  0  0  0
   -3.2744   -4.1275   -0.2047 H   0  0  0  0  0  0  0  0  0  0  0  0
   -1.7730   -2.9370    0.7737 C   0  0  0  0  0  0  0  0  0  0  0  0
   -0.8473   -3.2733    1.4897 O   0  0  0  0  0  0  0  0  0  0  0  0
   -1.6527   -1.8377   -0.0528 N   0  0  0  0  0  0  0  0  0  0  0  0
   -2.4476   -1.6095   -0.6445 H   0  0  0  0  0  0  0  0  0  0  0  0
   -0.4375   -1.0144   -0.1877 C   0  0  1  0  0  0  0  0  0  0  0  0
    0.3640   -1.7044   -0.4751 H   0  0  0  0  0  0  0  0  0  0  0  0
   -0.5239    0.0504   -1.3117 C   0  0  0  0  0  0  0  0  0  0  0  0
   -0.9142    0.9675   -0.8572 H   0  0  0  0  0  0  0  0  0  0  0  0
    0.5025    0.2678   -1.6271 H   0  0  0  0  0  0  0  0  0  0  0  0
   -1.3590   -0.1797   -2.5698 C   0  0  0  0  0  0  0  0  0  0  0  0
   -1.3607    0.8673   -3.5084 C   0  0  0  0  0  0  0  0  0  0  0  0
   -0.8628    1.8032   -3.2705 H   0  0  0  0  0  0  0  0  0  0  0  0
   -2.0121    0.7488   -4.7400 C   0  0  0  0  0  0  0  0  0  0  0  0
   -2.0227    1.5862   -5.4317 H   0  0  0  0  0  0  0  0  0  0  0  0
   -2.6370   -0.4495   -5.0847 C   0  0  0  0  0  0  0  0  0  0  0  0
   -3.1399   -0.5471   -6.0425 H   0  0  0  0  0  0  0  0  0  0  0  0
   -2.5784   -1.5331   -4.2078 C   0  0  0  0  0  0  0  0  0  0  0  0
   -3.0197   -2.4829   -4.4959 H   0  0  0  0  0  0  0  0  0  0  0  0
   -1.9235   -1.4094   -2.9772 C   0  0  0  0  0  0  0  0  0  0  0  0
   -1.8317   -2.3147   -2.3917 H   0  0  0  0  0  0  0  0  0  0  0  0
    0.0287   -0.3450    1.1225 C   0  0  0  0  0  0  0  0  0  0  0  0
    1.2217   -0.1481    1.3107 O   0  0  0  0  0  0  0  0  0  0  0  0
   -0.8931    0.2759    1.9466 N   0  0  0  0  0  0  0  0  0  0  0  0
   -1.8670    0.0363    1.7934 H   0  0  0  0  0  0  0  0  0  0  0  0
   -0.5211    0.9438    3.1874 C   0  0  0  0  0  0  0  0  0  0  0  0
    0.2083    1.7373    2.9930 H   0  0  0  0  0  0  0  0  0  0  0  0
   -1.4024    1.3946    3.6536 H   0  0  0  0  0  0  0  0  0  0  0  0
   -0.0833    0.2268    3.8899 H   0  0  0  0  0  0  0  0  0  0  0  0
  1  2  1  0  0  0  0
  2  3  1  0  0  0  0
  2  4  1  0  0  0  0
  2  5  1  0  0  0  0
  5  6  2  0  0  0  0
  5  7  1  0  0  0  0
  7  8  1  0  0  0  0
  7  9  1  0  0  0  0
  9 10  1  0  0  0  0
  9 11  1  0  0  0  0
  9 25  1  0  0  0  0
 11 12  1  0  0  0  0
 11 13  1  0  0  0  0
 11 14  1  0  0  0  0
 14 15  1  0  0  0  0
 14 23  2  0  0  0  0
 15 16  1  0  0  0  0
 15 17  2  0  0  0  0
 17 18  1  0  0  0  0
 17 19  1  0  0  0  0
 19 20  1  0  0  0  0
 19 21  2  0  0  0  0
 21 22  1  0  0  0  0
 21 23  1  0  0  0  0
 23 24  1  0  0  0  0
 25 26  2  0  0  0  0
 25 27  1  0  0  0  0
 27 28  1  0  0  0  0
 27 29  1  0  0  0  0
 29 30  1  0  0  0  0
 29 31  1  0  0  0  0
 29 32  1  0  0  0  0
M  END
$$$$

  -OEChem-03222214073D

 32 32  0     1  0  0  0  0  0999 V2000
   -2.8744   -4.5804    1.6696 H   0  0  0  0  0  0  0  0  0  0  0  0
   -2.9905   -3.7747    0.9389 C   0  0  0  0  0  0  0  0  0  0  0  0
   -3.7989   -3.1171    1.2670 H   0  0  0  0  0  0  0  0  0  0  0  0
   -3.2543   -4.2126   -0.0268 H   0  0  0  0  0  0  0  0  0  0  0  0
   -1.6973   -2.9906    0.8166 C   0  0  0  0  0  0  0  0  0  0  0  0
   -0.7228   -3.3210    1.4675 O   0  0  0  0  0  0  0  0  0  0  0  0
   -1.6375   -1.8969   -0.0248 N   0  0  0  0  0  0  0  0  0  0  0  0
   -2.4930   -1.6305   -0.5020 H   0  0  0  0  0  0  0  0  0  0  0  0
   -0.4556   -1.0375   -0.1981 C   0  0  1  0  0  0  0  0  0  0  0  0
    0.3574   -1.7152   -0.4829 H   0  0  0  0  0  0  0  0  0  0  0  0
   -0.5495    0.0121   -1.3382 C   0  0  0  0  0  0  0  0  0  0  0  0
   -0.9527    0.9277   -0.8924 H   0  0  0  0  0  0  0  0  0  0  0  0
    0.4825    0.2358   -1.6310 H   0  0  0  0  0  0  0  0  0  0  0  0
   -1.3610   -0.1972   -2.6201 C   0  0  0  0  0  0  0  0  0  0  0  0
   -1.0689    0.7037   -3.6612 C   0  0  0  0  0  0  0  0  0  0  0  0
   -0.3401    1.4935   -3.5020 H   0  0  0  0  0  0  0  0  0  0  0  0
   -1.7023    0.6256   -4.9046 C   0  0  0  0  0  0  0  0  0  0  0  0
   -1.4637    1.3458   -5.6818 H   0  0  0  0  0  0  0  0  0  0  0  0
   -2.6361   -0.3801   -5.1472 C   0  0  0  0  0  0  0  0  0  0  0  0
   -3.1278   -0.4478   -6.1133 H   0  0  0  0  0  0  0  0  0  0  0  0
   -2.9208   -1.3096   -4.1476 C   0  0  0  0  0  0  0  0  0  0  0  0
   -3.6296   -2.1084   -4.3452 H   0  0  0  0  0  0  0  0  0  0  0  0
   -2.2860   -1.2286   -2.9025 C   0  0  0  0  0  0  0  0  0  0  0  0
   -2.5345   -2.0170   -2.2102 H   0  0  0  0  0  0  0  0  0  0  0  0
    0.0146   -0.3426    1.0980 C   0  0  0  0  0  0  0  0  0  0  0  0
    1.2037   -0.1038    1.2612 O   0  0  0  0  0  0  0  0  0  0  0  0
   -0.9100    0.2535    1.9376 N   0  0  0  0  0  0  0  0  0  0  0  0
   -1.8800   -0.0107    1.8036 H   0  0  0  0  0  0  0  0  0  0  0  0
   -0.5345    0.9505    3.1612 C   0  0  0  0  0  0  0  0  0  0  0  0
    0.1588    1.7691    2.9407 H   0  0  0  0  0  0  0  0  0  0  0  0
   -1.4212    1.3727    3.6435 H   0  0  0  0  0  0  0  0  0  0  0  0
   -0.0527    0.2596    3.8610 H   0  0  0  0  0  0  0  0  0  0  0  0
  1  2  1  0  0  0  0
  2  3  1  0  0  0  0
  2  4  1  0  0  0  0
  2  5  1  0  0  0  0
  5  6  2  0  0  0  0
  5  7  1  0  0  0  0
  7  8  1  0  0  0  0
  7  9  1  0  0  0  0
  9 10  1  0  0  0  0
  9 11  1  0  0  0  0
  9 25  1  0  0  0  0
 11 12  1  0  0  0  0
 11 13  1  0  0  0  0
 11 14  1  0  0  0  0
 14 15  1  0  0  0  0
 14 23  2  0  0  0  0
 15 16  1  0  0  0  0
 15 17  2  0  0  0  0
 17 18  1  0  0  0  0
 17 19  1  0  0  0  0
 19 20  1  0  0  0  0
 19 21  2  0  0  0  0
 21 22  1  0  0  0  0
 21 23  1  0  0  0  0
 23 24  1  0  0  0  0
 25 26  2  0  0  0  0
 25 27  1  0  0  0  0
 27 28  1  0  0  0  0
 27 29  1  0  0  0  0
 29 30  1  0  0  0  0
 29 31  1  0  0  0  0
 29 32  1  0  0  0  0
M  END
$$$$

  -OEChem-03222214073D

 32 32  0     1  0  0  0  0  0999 V2000
   -2.6578   -4.7625    1.4994 H   0  0  0  0  0  0  0  0  0  0  0  0
   -2.8062   -3.9484    0.7840 C   0  0  0  0  0  0  0  0  0  0  0  0
   -3.7506   -3.4480    1.0112 H   0  0  0  0  0  0  0  0  0  0  0  0
   -2.8575   -4.3712   -0.2224 H   0  0  0  0  0  0  0  0  0  0  0  0
   -1.6602   -2.9579    0.8753 C   0  0  0  0  0  0  0  0  0  0  0  0
   -0.8049   -3.1019    1.7298 O   0  0  0  0  0  0  0  0  0  0  0  0
   -1.6069   -1.9001   -0.0124 N   0  0  0  0  0  0  0  0  0  0  0  0
   -2.2249   -1.9958   -0.8094 H   0  0  0  0  0  0  0  0  0  0  0  0
   -0.4059   -1.0726   -0.2218 C   0  0  1  0  0  0  0  0  0  0  0  0
    0.3913   -1.7702   -0.5018 H   0  0  0  0  0  0  0  0  0  0  0  0
   -0.4902   -0.0209   -1.3664 C   0  0  0  0  0  0  0  0  0  0  0  0
   -0.8569    0.9148   -0.9307 H   0  0  0  0  0  0  0  0  0  0  0  0
    0.5388    0.1697   -1.6906 H   0  0  0  0  0  0  0  0  0  0  0  0
   -1.3578   -0.2557   -2.6020 C   0  0  0  0  0  0  0  0  0  0  0  0
   -0.9162    0.3280   -3.8042 C   0  0  0  0  0  0  0  0  0  0  0  0
    0.0525    0.8179   -3.8439 H   0  0  0  0  0  0  0  0  0  0  0  0
   -1.6778    0.2677   -4.9753 C   0  0  0  0  0  0  0  0  0  0  0  0
   -1.2915    0.6934   -5.8970 H   0  0  0  0  0  0  0  0  0  0  0  0
   -2.9376   -0.3292   -4.9565 C   0  0  0  0  0  0  0  0  0  0  0  0
   -3.5328   -0.3766   -5.8640 H   0  0  0  0  0  0  0  0  0  0  0  0
   -3.4448   -0.8245   -3.7555 C   0  0  0  0  0  0  0  0  0  0  0  0
   -4.4506   -1.2335   -3.7255 H   0  0  0  0  0  0  0  0  0  0  0  0
   -2.6783   -0.7581   -2.5863 C   0  0  0  0  0  0  0  0  0  0  0  0
   -3.1791   -1.0532   -1.6755 H   0  0  0  0  0  0  0  0  0  0  0  0
    0.0896   -0.3429    1.0471 C   0  0  0  0  0  0  0  0  0  0  0  0
    1.2860   -0.1247    1.1876 O   0  0  0  0  0  0  0  0  0  0  0  0
   -0.8142    0.3028    1.8717 N   0  0  0  0  0  0  0  0  0  0  0  0
   -1.7829    0.0156    1.7761 H   0  0  0  0  0  0  0  0  0  0  0  0
   -0.4108    1.0081    3.0816 C   0  0  0  0  0  0  0  0  0  0  0  0
    0.2894    1.8149    2.8407 H   0  0  0  0  0  0  0  0  0  0  0  0
   -1.2846    1.4467    3.5728 H   0  0  0  0  0  0  0  0  0  0  0  0
    0.0726    0.3185    3.7817 H   0  0  0  0  0  0  0  0  0  0  0  0
  1  2  1  0  0  0  0
  2  3  1  0  0  0  0
  2  4  1  0  0  0  0
  2  5  1  0  0  0  0
  5  6  2  0  0  0  0
  5  7  1  0  0  0  0
  7  8  1  0  0  0  0
  7  9  1  0  0  0  0
  9 10  1  0  0  0  0
  9 11  1  0  0  0  0
  9 25  1  0  0  0  0
 11 12  1  0  0  0  0
 11 13  1  0  0  0  0
 11 14  1  0  0  0  0
 14 15  1  0  0  0  0
 14 23  2  0  0  0  0
 15 16  1  0  0  0  0
 15 17  2  0  0  0  0
 17 18  1  0  0  0  0
 17 19  1  0  0  0  0
 19 20  1  0  0  0  0
 19 21  2  0  0  0  0
 21 22  1  0  0  0  0
 21 23  1  0  0  0  0
 23 24  1  0  0  0  0
 25 26  2  0  0  0  0
 25 27  1  0  0  0  0
 27 28  1  0  0  0  0
 27 29  1  0  0  0  0
 29 30  1  0  0  0  0
 29 31  1  0  0  0  0
 29 32  1  0  0  0  0
M  END
$$$$

  -OEChem-03222214073D

 32 32  0     1  0  0  0  0  0999 V2000
   -2.8052   -4.7377    1.2854 H   0  0  0  0  0  0  0  0  0  0  0  0
   -2.8973   -3.9020    0.5857 C   0  0  0  0  0  0  0  0  0  0  0  0
   -3.8487   -3.3958    0.7650 H   0  0  0  0  0  0  0  0  0  0  0  0
   -2.8864   -4.2959   -0.4336 H   0  0  0  0  0  0  0  0  0  0  0  0
   -1.7486   -2.9300    0.7785 C   0  0  0  0  0  0  0  0  0  0  0  0
   -0.9499   -3.1089    1.6802 O   0  0  0  0  0  0  0  0  0  0  0  0
   -1.6248   -1.8490   -0.0726 N   0  0  0  0  0  0  0  0  0  0  0  0
   -2.2092   -1.8910   -0.9023 H   0  0  0  0  0  0  0  0  0  0  0  0
   -0.4066   -1.0244   -0.1781 C   0  0  1  0  0  0  0  0  0  0  0  0
    0.4053   -1.7154   -0.4305 H   0  0  0  0  0  0  0  0  0  0  0  0
   -0.4436    0.0477   -1.3019 C   0  0  0  0  0  0  0  0  0  0  0  0
   -0.8474    0.9740   -0.8790 H   0  0  0  0  0  0  0  0  0  0  0  0
    0.5925    0.2617   -1.5857 H   0  0  0  0  0  0  0  0  0  0  0  0
   -1.2669   -0.2412   -2.5498 C   0  0  0  0  0  0  0  0  0  0  0  0
   -0.6960    0.0292   -3.8054 C   0  0  0  0  0  0  0  0  0  0  0  0
    0.3462    0.3277   -3.8761 H   0  0  0  0  0  0  0  0  0  0  0  0
   -1.4363   -0.1056   -4.9844 C   0  0  0  0  0  0  0  0  0  0  0  0
   -0.9629    0.0749   -5.9453 H   0  0  0  0  0  0  0  0  0  0  0  0
   -2.7852   -0.4590   -4.9259 C   0  0  0  0  0  0  0  0  0  0  0  0
   -3.3619   -0.5598   -5.8409 H   0  0  0  0  0  0  0  0  0  0  0  0
   -3.3971   -0.6429   -3.6849 C   0  0  0  0  0  0  0  0  0  0  0  0
   -4.4591   -0.8658   -3.6355 H   0  0  0  0  0  0  0  0  0  0  0  0
   -2.6517   -0.5051   -2.5088 C   0  0  0  0  0  0  0  0  0  0  0  0
   -3.1839   -0.5616   -1.5658 H   0  0  0  0  0  0  0  0  0  0  0  0
    0.0163   -0.3270    1.1336 C   0  0  0  0  0  0  0  0  0  0  0  0
    1.2030   -0.1127    1.3451 O   0  0  0  0  0  0  0  0  0  0  0  0
   -0.9319    0.3089    1.9147 N   0  0  0  0  0  0  0  0  0  0  0  0
   -1.8941    0.0246    1.7619 H   0  0  0  0  0  0  0  0  0  0  0  0
   -0.5965    1.0087    3.1485 C   0  0  0  0  0  0  0  0  0  0  0  0
    0.1323    1.8027    2.9543 H   0  0  0  0  0  0  0  0  0  0  0  0
   -1.4926    1.4641    3.5803 H   0  0  0  0  0  0  0  0  0  0  0  0
   -0.1720    0.3121    3.8791 H   0  0  0  0  0  0  0  0  0  0  0  0
  1  2  1  0  0  0  0
  2  3  1  0  0  0  0
  2  4  1  0  0  0  0
  2  5  1  0  0  0  0
  5  6  2  0  0  0  0
  5  7  1  0  0  0  0
  7  8  1  0  0  0  0
  7  9  1  0  0  0  0
  9 10  1  0  0  0  0
  9 11  1  0  0  0  0
  9 25  1  0  0  0  0
 11 12  1  0  0  0  0
 11 13  1  0  0  0  0
 11 14  1  0  0  0  0
 14 15  1  0  0  0  0
 14 23  2  0  0  0  0
 15 16  1  0  0  0  0
 15 17  2  0  0  0  0
 17 18  1  0  0  0  0
 17 19  1  0  0  0  0
 19 20  1  0  0  0  0
 19 21  2  0  0  0  0
 21 22  1  0  0  0  0
 21 23  1  0  0  0  0
 23 24  1  0  0  0  0
 25 26  2  0  0  0  0
 25 27  1  0  0  0  0
 27 28  1  0  0  0  0
 27 29  1  0  0  0  0
 29 30  1  0  0  0  0
 29 31  1  0  0  0  0
 29 32  1  0  0  0  0
M  END
$$$$

  -OEChem-03222214073D

 32 32  0     1  0  0  0  0  0999 V2000
   -2.9277   -4.6712    1.1283 H   0  0  0  0  0  0  0  0  0  0  0  0
   -2.9852   -3.8111    0.4549 C   0  0  0  0  0  0  0  0  0  0  0  0
   -3.9145   -3.2713    0.6515 H   0  0  0  0  0  0  0  0  0  0  0  0
   -2.9922   -4.1730   -0.5761 H   0  0  0  0  0  0  0  0  0  0  0  0
   -1.7961   -2.8952    0.6759 C   0  0  0  0  0  0  0  0  0  0  0  0
   -1.0030   -3.1377    1.5675 O   0  0  0  0  0  0  0  0  0  0  0  0
   -1.6301   -1.7883   -0.1327 N   0  0  0  0  0  0  0  0  0  0  0  0
   -2.2273   -1.7583   -0.9550 H   0  0  0  0  0  0  0  0  0  0  0  0
   -0.3871   -0.9958   -0.1992 C   0  0  1  0  0  0  0  0  0  0  0  0
    0.4081   -1.6965   -0.4770 H   0  0  0  0  0  0  0  0  0  0  0  0
   -0.4175    0.1067   -1.2882 C   0  0  0  0  0  0  0  0  0  0  0  0
   -0.8075    1.0285   -0.8438 H   0  0  0  0  0  0  0  0  0  0  0  0
    0.6141    0.3181   -1.5896 H   0  0  0  0  0  0  0  0  0  0  0  0
   -1.2679   -0.1884   -2.5110 C   0  0  0  0  0  0  0  0  0  0  0  0
   -0.6673   -0.2330   -3.7790 C   0  0  0  0  0  0  0  0  0  0  0  0
    0.4108   -0.1396   -3.8752 H   0  0  0  0  0  0  0  0  0  0  0  0
   -1.4375   -0.4198   -4.9319 C   0  0  0  0  0  0  0  0  0  0  0  0
   -0.9545   -0.4787   -5.9030 H   0  0  0  0  0  0  0  0  0  0  0  0
   -2.8276   -0.5203   -4.8361 C   0  0  0  0  0  0  0  0  0  0  0  0
   -3.4254   -0.6611   -5.7321 H   0  0  0  0  0  0  0  0  0  0  0  0
   -3.4468   -0.4116   -3.5887 C   0  0  0  0  0  0  0  0  0  0  0  0
   -4.5300   -0.4517   -3.5175 H   0  0  0  0  0  0  0  0  0  0  0  0
   -2.6733   -0.2275   -2.4380 C   0  0  0  0  0  0  0  0  0  0  0  0
   -3.1762   -0.0903   -1.4854 H   0  0  0  0  0  0  0  0  0  0  0  0
    0.0494   -0.3562    1.1362 C   0  0  0  0  0  0  0  0  0  0  0  0
    1.2408   -0.1841    1.3587 O   0  0  0  0  0  0  0  0  0  0  0  0
   -0.8834    0.2811    1.9345 N   0  0  0  0  0  0  0  0  0  0  0  0
   -1.8520    0.0256    1.7720 H   0  0  0  0  0  0  0  0  0  0  0  0
   -0.5330    0.9224    3.1955 C   0  0  0  0  0  0  0  0  0  0  0  0
    0.2217    1.6996    3.0353 H   0  0  0  0  0  0  0  0  0  0  0  0
   -1.4165    1.3893    3.6410 H   0  0  0  0  0  0  0  0  0  0  0  0
   -0.1352    0.1851    3.9006 H   0  0  0  0  0  0  0  0  0  0  0  0
  1  2  1  0  0  0  0
  2  3  1  0  0  0  0
  2  4  1  0  0  0  0
  2  5  1  0  0  0  0
  5  6  2  0  0  0  0
  5  7  1  0  0  0  0
  7  8  1  0  0  0  0
  7  9  1  0  0  0  0
  9 10  1  0  0  0  0
  9 11  1  0  0  0  0
  9 25  1  0  0  0  0
 11 12  1  0  0  0  0
 11 13  1  0  0  0  0
 11 14  1  0  0  0  0
 14 15  1  0  0  0  0
 14 23  2  0  0  0  0
 15 16  1  0  0  0  0
 15 17  2  0  0  0  0
 17 18  1  0  0  0  0
 17 19  1  0  0  0  0
 19 20  1  0  0  0  0
 19 21  2  0  0  0  0
 21 22  1  0  0  0  0
 21 23  1  0  0  0  0
 23 24  1  0  0  0  0
 25 26  2  0  0  0  0
 25 27  1  0  0  0  0
 27 28  1  0  0  0  0
 27 29  1  0  0  0  0
 29 30  1  0  0  0  0
 29 31  1  0  0  0  0
 29 32  1  0  0  0  0
M  END
$$$$

  -OEChem-03222214073D

 32 32  0     1  0  0  0  0  0999 V2000
   -3.0214   -4.6027    1.0061 H   0  0  0  0  0  0  0  0  0  0  0  0
   -3.0497   -3.7242    0.3553 C   0  0  0  0  0  0  0  0  0  0  0  0
   -3.9623   -3.1607    0.5636 H   0  0  0  0  0  0  0  0  0  0  0  0
   -3.0649   -4.0592   -0.6846 H   0  0  0  0  0  0  0  0  0  0  0  0
   -1.8331   -2.8517    0.6014 C   0  0  0  0  0  0  0  0  0  0  0  0
   -1.0477   -3.1414    1.4860 O   0  0  0  0  0  0  0  0  0  0  0  0
   -1.6324   -1.7295   -0.1771 N   0  0  0  0  0  0  0  0  0  0  0  0
   -2.2384   -1.6428   -0.9898 H   0  0  0  0  0  0  0  0  0  0  0  0
   -0.3738   -0.9585   -0.2104 C   0  0  1  0  0  0  0  0  0  0  0  0
    0.4133   -1.6631   -0.5006 H   0  0  0  0  0  0  0  0  0  0  0  0
   -0.3985    0.1615   -1.2775 C   0  0  0  0  0  0  0  0  0  0  0  0
   -0.7824    1.0811   -0.8230 H   0  0  0  0  0  0  0  0  0  0  0  0
    0.6296    0.3721   -1.5907 H   0  0  0  0  0  0  0  0  0  0  0  0
   -1.2600   -0.1463   -2.4851 C   0  0  0  0  0  0  0  0  0  0  0  0
   -0.6626   -0.5027   -3.7029 C   0  0  0  0  0  0  0  0  0  0  0  0
    0.4173   -0.5993   -3.7727 H   0  0  0  0  0  0  0  0  0  0  0  0
   -1.4466   -0.7497   -4.8347 C   0  0  0  0  0  0  0  0  0  0  0  0
   -0.9733   -1.0372   -5.7692 H   0  0  0  0  0  0  0  0  0  0  0  0
   -2.8368   -0.6206   -4.7654 C   0  0  0  0  0  0  0  0  0  0  0  0
   -3.4443   -0.8088   -5.6461 H   0  0  0  0  0  0  0  0  0  0  0  0
   -3.4415   -0.2329   -3.5663 C   0  0  0  0  0  0  0  0  0  0  0  0
   -4.5199   -0.1125   -3.5177 H   0  0  0  0  0  0  0  0  0  0  0  0
   -2.6557    0.0145   -2.4360 C   0  0  0  0  0  0  0  0  0  0  0  0
   -3.1330    0.3431   -1.5173 H   0  0  0  0  0  0  0  0  0  0  0  0
    0.0626   -0.3562    1.1414 C   0  0  0  0  0  0  0  0  0  0  0  0
    1.2551   -0.2113    1.3771 O   0  0  0  0  0  0  0  0  0  0  0  0
   -0.8653    0.2818    1.9449 N   0  0  0  0  0  0  0  0  0  0  0  0
   -1.8368    0.0461    1.7702 H   0  0  0  0  0  0  0  0  0  0  0  0
   -0.5128    0.8884    3.2223 C   0  0  0  0  0  0  0  0  0  0  0  0
    0.2596    1.6527    3.0852 H   0  0  0  0  0  0  0  0  0  0  0  0
   -1.3903    1.3637    3.6706 H   0  0  0  0  0  0  0  0  0  0  0  0
   -0.1363    0.1277    3.9143 H   0  0  0  0  0  0  0  0  0  0  0  0
  1  2  1  0  0  0  0
  2  3  1  0  0  0  0
  2  4  1  0  0  0  0
  2  5  1  0  0  0  0
  5  6  2  0  0  0  0
  5  7  1  0  0  0  0
  7  8  1  0  0  0  0
  7  9  1  0  0  0  0
  9 10  1  0  0  0  0
  9 11  1  0  0  0  0
  9 25  1  0  0  0  0
 11 12  1  0  0  0  0
 11 13  1  0  0  0  0
 11 14  1  0  0  0  0
 14 15  1  0  0  0  0
 14 23  2  0  0  0  0
 15 16  1  0  0  0  0
 15 17  2  0  0  0  0
 17 18  1  0  0  0  0
 17 19  1  0  0  0  0
 19 20  1  0  0  0  0
 19 21  2  0  0  0  0
 21 22  1  0  0  0  0
 21 23  1  0  0  0  0
 23 24  1  0  0  0  0
 25 26  2  0  0  0  0
 25 27  1  0  0  0  0
 27 28  1  0  0  0  0
 27 29  1  0  0  0  0
 29 30  1  0  0  0  0
 29 31  1  0  0  0  0
 29 32  1  0  0  0  0
M  END
$$$$

  -OEChem-03222214073D

 32 32  0     1  0  0  0  0  0999 V2000
   -3.0931   -4.5389    0.9202 H   0  0  0  0  0  0  0  0  0  0  0  0
   -3.0961   -3.6506    0.2820 C   0  0  0  0  0  0  0  0  0  0  0  0
   -3.9924   -3.0640    0.4976 H   0  0  0  0  0  0  0  0  0  0  0  0
   -3.1191   -3.9690   -0.7632 H   0  0  0  0  0  0  0  0  0  0  0  0
   -1.8561   -2.8166    0.5423 C   0  0  0  0  0  0  0  0  0  0  0  0
   -1.0746   -3.1453    1.4168 O   0  0  0  0  0  0  0  0  0  0  0  0
   -1.6276   -1.6847   -0.2133 N   0  0  0  0  0  0  0  0  0  0  0  0
   -2.2428   -1.5502   -1.0131 H   0  0  0  0  0  0  0  0  0  0  0  0
   -0.3571   -0.9324   -0.2219 C   0  0  1  0  0  0  0  0  0  0  0  0
    0.4239   -1.6405   -0.5200 H   0  0  0  0  0  0  0  0  0  0  0  0
   -0.3778    0.2008   -1.2726 C   0  0  0  0  0  0  0  0  0  0  0  0
   -0.7518    1.1189   -0.8074 H   0  0  0  0  0  0  0  0  0  0  0  0
    0.6478    0.4068   -1.5967 H   0  0  0  0  0  0  0  0  0  0  0  0
   -1.2477   -0.1114   -2.4710 C   0  0  0  0  0  0  0  0  0  0  0  0
   -0.7019   -0.7598   -3.5876 C   0  0  0  0  0  0  0  0  0  0  0  0
    0.3473   -1.0418   -3.5935 H   0  0  0  0  0  0  0  0  0  0  0  0
   -1.5009   -1.0563   -4.6970 C   0  0  0  0  0  0  0  0  0  0  0  0
   -1.0690   -1.5622   -5.5557 H   0  0  0  0  0  0  0  0  0  0  0  0
   -2.8523   -0.6984   -4.7022 C   0  0  0  0  0  0  0  0  0  0  0  0
   -3.4709   -0.9267   -5.5655 H   0  0  0  0  0  0  0  0  0  0  0  0
   -3.4024   -0.0374   -3.6000 C   0  0  0  0  0  0  0  0  0  0  0  0
   -4.4495    0.2519   -3.6093 H   0  0  0  0  0  0  0  0  0  0  0  0
   -2.6025    0.2586   -2.4909 C   0  0  0  0  0  0  0  0  0  0  0  0
   -3.0369    0.7820   -1.6438 H   0  0  0  0  0  0  0  0  0  0  0  0
    0.0758   -0.3593    1.1432 C   0  0  0  0  0  0  0  0  0  0  0  0
    1.2675   -0.2388    1.3951 O   0  0  0  0  0  0  0  0  0  0  0  0
   -0.8512    0.2789    1.9472 N   0  0  0  0  0  0  0  0  0  0  0  0
   -1.8241    0.0632    1.7555 H   0  0  0  0  0  0  0  0  0  0  0  0
   -0.5052    0.8610    3.2376 C   0  0  0  0  0  0  0  0  0  0  0  0
    0.2750    1.6205    3.1196 H   0  0  0  0  0  0  0  0  0  0  0  0
   -1.3826    1.3371    3.6853 H   0  0  0  0  0  0  0  0  0  0  0  0
   -0.1420    0.0860    3.9207 H   0  0  0  0  0  0  0  0  0  0  0  0
  1  2  1  0  0  0  0
  2  3  1  0  0  0  0
  2  4  1  0  0  0  0
  2  5  1  0  0  0  0
  5  6  2  0  0  0  0
  5  7  1  0  0  0  0
  7  8  1  0  0  0  0
  7  9  1  0  0  0  0
  9 10  1  0  0  0  0
  9 11  1  0  0  0  0
  9 25  1  0  0  0  0
 11 12  1  0  0  0  0
 11 13  1  0  0  0  0
 11 14  1  0  0  0  0
 14 15  1  0  0  0  0
 14 23  2  0  0  0  0
 15 16  1  0  0  0  0
 15 17  2  0  0  0  0
 17 18  1  0  0  0  0
 17 19  1  0  0  0  0
 19 20  1  0  0  0  0
 19 21  2  0  0  0  0
 21 22  1  0  0  0  0
 21 23  1  0  0  0  0
 23 24  1  0  0  0  0
 25 26  2  0  0  0  0
 25 27  1  0  0  0  0
 27 28  1  0  0  0  0
 27 29  1  0  0  0  0
 29 30  1  0  0  0  0
 29 31  1  0  0  0  0
 29 32  1  0  0  0  0
M  END
$$$$

  -OEChem-03222214073D

 32 32  0     1  0  0  0  0  0999 V2000
   -3.1291   -4.5058    0.8819 H   0  0  0  0  0  0  0  0  0  0  0  0
   -3.1186   -3.6148    0.2476 C   0  0  0  0  0  0  0  0  0  0  0  0
   -4.0072   -3.0172    0.4642 H   0  0  0  0  0  0  0  0  0  0  0  0
   -3.1441   -3.9282   -0.7990 H   0  0  0  0  0  0  0  0  0  0  0  0
   -1.8676   -2.7988    0.5135 C   0  0  0  0  0  0  0  0  0  0  0  0
   -1.0858   -3.1492    1.3794 O   0  0  0  0  0  0  0  0  0  0  0  0
   -1.6257   -1.6628   -0.2317 N   0  0  0  0  0  0  0  0  0  0  0  0
   -2.2475   -1.5023   -1.0219 H   0  0  0  0  0  0  0  0  0  0  0  0
   -0.3492   -0.9196   -0.2283 C   0  0  1  0  0  0  0  0  0  0  0  0
    0.4291   -1.6299   -0.5283 H   0  0  0  0  0  0  0  0  0  0  0  0
   -0.3641    0.2194   -1.2718 C   0  0  0  0  0  0  0  0  0  0  0  0
   -0.7294    1.1382   -0.8009 H   0  0  0  0  0  0  0  0  0  0  0  0
    0.6616    0.4177   -1.6006 H   0  0  0  0  0  0  0  0  0  0  0  0
   -1.2355   -0.0920   -2.4691 C   0  0  0  0  0  0  0  0  0  0  0  0
   -0.7950   -1.0005   -3.4423 C   0  0  0  0  0  0  0  0  0  0  0  0
    0.1818   -1.4668   -3.3473 H   0  0  0  0  0  0  0  0  0  0  0  0
   -1.6078   -1.3182   -4.5354 C   0  0  0  0  0  0  0  0  0  0  0  0
   -1.2582   -2.0229   -5.2845 H   0  0  0  0  0  0  0  0  0  0  0  0
   -2.8678   -0.7266   -4.6657 C   0  0  0  0  0  0  0  0  0  0  0  0
   -3.4971   -0.9706   -5.5170 H   0  0  0  0  0  0  0  0  0  0  0  0
   -3.3131    0.1844   -3.7032 C   0  0  0  0  0  0  0  0  0  0  0  0
   -4.2886    0.6504   -3.8086 H   0  0  0  0  0  0  0  0  0  0  0  0
   -2.5003    0.5002   -2.6092 C   0  0  0  0  0  0  0  0  0  0  0  0
   -2.8565    1.2115   -1.8695 H   0  0  0  0  0  0  0  0  0  0  0  0
    0.0809   -0.3603    1.1433 C   0  0  0  0  0  0  0  0  0  0  0  0
    1.2720   -0.2502    1.4030 O   0  0  0  0  0  0  0  0  0  0  0  0
   -0.8466    0.2785    1.9466 N   0  0  0  0  0  0  0  0  0  0  0  0
   -1.8201    0.0718    1.7472 H   0  0  0  0  0  0  0  0  0  0  0  0
   -0.5047    0.8467    3.2442 C   0  0  0  0  0  0  0  0  0  0  0  0
    0.2749    1.6085    3.1367 H   0  0  0  0  0  0  0  0  0  0  0  0
   -1.3844    1.3163    3.6946 H   0  0  0  0  0  0  0  0  0  0  0  0
   -0.1423    0.0645    3.9196 H   0  0  0  0  0  0  0  0  0  0  0  0
  1  2  1  0  0  0  0
  2  3  1  0  0  0  0
  2  4  1  0  0  0  0
  2  5  1  0  0  0  0
  5  6  2  0  0  0  0
  5  7  1  0  0  0  0
  7  8  1  0  0  0  0
  7  9  1  0  0  0  0
  9 10  1  0  0  0  0
  9 11  1  0  0  0  0
  9 25  1  0  0  0  0
 11 12  1  0  0  0  0
 11 13  1  0  0  0  0
 11 14  1  0  0  0  0
 14 15  1  0  0  0  0
 14 23  2  0  0  0  0
 15 16  1  0  0  0  0
 15 17  2  0  0  0  0
 17 18  1  0  0  0  0
 17 19  1  0  0  0  0
 19 20  1  0  0  0  0
 19 21  2  0  0  0  0
 21 22  1  0  0  0  0
 21 23  1  0  0  0  0
 23 24  1  0  0  0  0
 25 26  2  0  0  0  0
 25 27  1  0  0  0  0
 27 28  1  0  0  0  0
 27 29  1  0  0  0  0
 29 30  1  0  0  0  0
 29 31  1  0  0  0  0
 29 32  1  0  0  0  0
M  END
$$$$

  -OEChem-03222214073D

 32 32  0     1  0  0  0  0  0999 V2000
   -3.1323   -4.5008    0.9045 H   0  0  0  0  0  0  0  0  0  0  0  0
   -3.1219   -3.6111    0.2682 C   0  0  0  0  0  0  0  0  0  0  0  0
   -4.0024   -3.0049    0.4944 H   0  0  0  0  0  0  0  0  0  0  0  0
   -3.1636   -3.9263   -0.7773 H   0  0  0  0  0  0  0  0  0  0  0  0
   -1.8603   -2.8063    0.5173 C   0  0  0  0  0  0  0  0  0  0  0  0
   -1.0692   -3.1649    1.3712 O   0  0  0  0  0  0  0  0  0  0  0  0
   -1.6185   -1.6710   -0.2285 N   0  0  0  0  0  0  0  0  0  0  0  0
   -2.2500   -1.4996   -1.0088 H   0  0  0  0  0  0  0  0  0  0  0  0
   -0.3452   -0.9229   -0.2242 C   0  0  1  0  0  0  0  0  0  0  0  0
    0.4380   -1.6294   -0.5202 H   0  0  0  0  0  0  0  0  0  0  0  0
   -0.3683    0.2131   -1.2721 C   0  0  0  0  0  0  0  0  0  0  0  0
   -0.7353    1.1291   -0.7971 H   0  0  0  0  0  0  0  0  0  0  0  0
    0.6562    0.4146   -1.6022 H   0  0  0  0  0  0  0  0  0  0  0  0
   -1.2343   -0.0920   -2.4776 C   0  0  0  0  0  0  0  0  0  0  0  0
   -0.9547   -1.2029   -3.2893 C   0  0  0  0  0  0  0  0  0  0  0  0
   -0.0977   -1.8339   -3.0699 H   0  0  0  0  0  0  0  0  0  0  0  0
   -1.7704   -1.5078   -4.3837 C   0  0  0  0  0  0  0  0  0  0  0  0
   -1.5423   -2.3674   -5.0077 H   0  0  0  0  0  0  0  0  0  0  0  0
   -2.8743   -0.7025   -4.6783 C   0  0  0  0  0  0  0  0  0  0  0  0
   -3.5053   -0.9359   -5.5312 H   0  0  0  0  0  0  0  0  0  0  0  0
   -3.1600    0.4078   -3.8782 C   0  0  0  0  0  0  0  0  0  0  0  0
   -4.0141    1.0376   -4.1102 H   0  0  0  0  0  0  0  0  0  0  0  0
   -2.3441    0.7108   -2.7827 C   0  0  0  0  0  0  0  0  0  0  0  0
   -2.5783    1.5774   -2.1712 H   0  0  0  0  0  0  0  0  0  0  0  0
    0.0796   -0.3589    1.1475 C   0  0  0  0  0  0  0  0  0  0  0  0
    1.2697   -0.2488    1.4112 O   0  0  0  0  0  0  0  0  0  0  0  0
   -0.8501    0.2784    1.9495 N   0  0  0  0  0  0  0  0  0  0  0  0
   -1.8237    0.0792    1.7431 H   0  0  0  0  0  0  0  0  0  0  0  0
   -0.5123    0.8440    3.2496 C   0  0  0  0  0  0  0  0  0  0  0  0
    0.2702    1.6032    3.1467 H   0  0  0  0  0  0  0  0  0  0  0  0
   -1.3920    1.3167    3.6966 H   0  0  0  0  0  0  0  0  0  0  0  0
   -0.1565    0.0600    3.9265 H   0  0  0  0  0  0  0  0  0  0  0  0
  1  2  1  0  0  0  0
  2  3  1  0  0  0  0
  2  4  1  0  0  0  0
  2  5  1  0  0  0  0
  5  6  2  0  0  0  0
  5  7  1  0  0  0  0
  7  8  1  0  0  0  0
  7  9  1  0  0  0  0
  9 10  1  0  0  0  0
  9 11  1  0  0  0  0
  9 25  1  0  0  0  0
 11 12  1  0  0  0  0
 11 13  1  0  0  0  0
 11 14  1  0  0  0  0
 14 15  1  0  0  0  0
 14 23  2  0  0  0  0
 15 16  1  0  0  0  0
 15 17  2  0  0  0  0
 17 18  1  0  0  0  0
 17 19  1  0  0  0  0
 19 20  1  0  0  0  0
 19 21  2  0  0  0  0
 21 22  1  0  0  0  0
 21 23  1  0  0  0  0
 23 24  1  0  0  0  0
 25 26  2  0  0  0  0
 25 27  1  0  0  0  0
 27 28  1  0  0  0  0
 27 29  1  0  0  0  0
 29 30  1  0  0  0  0
 29 31  1  0  0  0  0
 29 32  1  0  0  0  0
M  END
$$$$

  -OEChem-03222214073D

 32 32  0     1  0  0  0  0  0999 V2000
   -3.1115   -4.5136    0.9966 H   0  0  0  0  0  0  0  0  0  0  0  0
   -3.1083   -3.6338    0.3468 C   0  0  0  0  0  0  0  0  0  0  0  0
   -3.9781   -3.0172    0.5855 H   0  0  0  0  0  0  0  0  0  0  0  0
   -3.1777   -3.9640   -0.6926 H   0  0  0  0  0  0  0  0  0  0  0  0
   -1.8343   -2.8365    0.5538 C   0  0  0  0  0  0  0  0  0  0  0  0
   -1.0215   -3.1936    1.3877 O   0  0  0  0  0  0  0  0  0  0  0  0
   -1.6058   -1.7076   -0.2061 N   0  0  0  0  0  0  0  0  0  0  0  0
   -2.2644   -1.5243   -0.9606 H   0  0  0  0  0  0  0  0  0  0  0  0
   -0.3426   -0.9426   -0.2160 C   0  0  1  0  0  0  0  0  0  0  0  0
    0.4496   -1.6430   -0.5026 H   0  0  0  0  0  0  0  0  0  0  0  0
   -0.3751    0.1827   -1.2771 C   0  0  0  0  0  0  0  0  0  0  0  0
   -0.7496    1.0958   -0.8027 H   0  0  0  0  0  0  0  0  0  0  0  0
    0.6506    0.3902   -1.5996 H   0  0  0  0  0  0  0  0  0  0  0  0
   -1.2277   -0.1050   -2.5005 C   0  0  0  0  0  0  0  0  0  0  0  0
   -1.1697   -1.3467   -3.1586 C   0  0  0  0  0  0  0  0  0  0  0  0
   -0.4781   -2.1125   -2.8185 H   0  0  0  0  0  0  0  0  0  0  0  0
   -1.9888   -1.6100   -4.2611 C   0  0  0  0  0  0  0  0  0  0  0  0
   -1.9315   -2.5718   -4.7630 H   0  0  0  0  0  0  0  0  0  0  0  0
   -2.8750   -0.6329   -4.7221 C   0  0  0  0  0  0  0  0  0  0  0  0
   -3.5089   -0.8349   -5.5807 H   0  0  0  0  0  0  0  0  0  0  0  0
   -2.9385    0.6075   -4.0811 C   0  0  0  0  0  0  0  0  0  0  0  0
   -3.6230    1.3703   -4.4412 H   0  0  0  0  0  0  0  0  0  0  0  0
   -2.1192    0.8687   -2.9775 C   0  0  0  0  0  0  0  0  0  0  0  0
   -2.1806    1.8384   -2.4919 H   0  0  0  0  0  0  0  0  0  0  0  0
    0.0723   -0.3582    1.1500 C   0  0  0  0  0  0  0  0  0  0  0  0
    1.2600   -0.2236    1.4131 O   0  0  0  0  0  0  0  0  0  0  0  0
   -0.8693    0.2736    1.9425 N   0  0  0  0  0  0  0  0  0  0  0  0
   -1.8393    0.0590    1.7348 H   0  0  0  0  0  0  0  0  0  0  0  0
   -0.5447    0.8592    3.2370 C   0  0  0  0  0  0  0  0  0  0  0  0
    0.2238    1.6315    3.1281 H   0  0  0  0  0  0  0  0  0  0  0  0
   -1.4341    1.3196    3.6777 H   0  0  0  0  0  0  0  0  0  0  0  0
   -0.1750    0.0892    3.9220 H   0  0  0  0  0  0  0  0  0  0  0  0
  1  2  1  0  0  0  0
  2  3  1  0  0  0  0
  2  4  1  0  0  0  0
  2  5  1  0  0  0  0
  5  6  2  0  0  0  0
  5  7  1  0  0  0  0
  7  8  1  0  0  0  0
  7  9  1  0  0  0  0
  9 10  1  0  0  0  0
  9 11  1  0  0  0  0
  9 25  1  0  0  0  0
 11 12  1  0  0  0  0
 11 13  1  0  0  0  0
 11 14  1  0  0  0  0
 14 15  1  0  0  0  0
 14 23  2  0  0  0  0
 15 16  1  0  0  0  0
 15 17  2  0  0  0  0
 17 18  1  0  0  0  0
 17 19  1  0  0  0  0
 19 20  1  0  0  0  0
 19 21  2  0  0  0  0
 21 22  1  0  0  0  0
 21 23  1  0  0  0  0
 23 24  1  0  0  0  0
 25 26  2  0  0  0  0
 25 27  1  0  0  0  0
 27 28  1  0  0  0  0
 27 29  1  0  0  0  0
 29 30  1  0  0  0  0
 29 31  1  0  0  0  0
 29 32  1  0  0  0  0
M  END
$$$$

  -OEChem-03222214073D

 32 32  0     1  0  0  0  0  0999 V2000
   -3.0370   -4.5580    1.1430 H   0  0  0  0  0  0  0  0  0  0  0  0
   -3.0710   -3.6857    0.4841 C   0  0  0  0  0  0  0  0  0  0  0  0
   -3.9337   -3.0726    0.7557 H   0  0  0  0  0  0  0  0  0  0  0  0
   -3.1850   -4.0289   -0.5470 H   0  0  0  0  0  0  0  0  0  0  0  0
   -1.7954   -2.8767    0.6239 C   0  0  0  0  0  0  0  0  0  0  0  0
   -0.9436   -3.2186    1.4241 O   0  0  0  0  0  0  0  0  0  0  0  0
   -1.6076   -1.7555   -0.1588 N   0  0  0  0  0  0  0  0  0  0  0  0
   -2.3126   -1.5628   -0.8672 H   0  0  0  0  0  0  0  0  0  0  0  0
   -0.3649   -0.9597   -0.2027 C   0  0  1  0  0  0  0  0  0  0  0  0
    0.4369   -1.6524   -0.4813 H   0  0  0  0  0  0  0  0  0  0  0  0
   -0.4094    0.1415   -1.2913 C   0  0  0  0  0  0  0  0  0  0  0  0
   -0.7997    1.0535   -0.8269 H   0  0  0  0  0  0  0  0  0  0  0  0
    0.6188    0.3586   -1.5994 H   0  0  0  0  0  0  0  0  0  0  0  0
   -1.2383   -0.1287   -2.5403 C   0  0  0  0  0  0  0  0  0  0  0  0
   -1.4395   -1.4205   -3.0647 C   0  0  0  0  0  0  0  0  0  0  0  0
   -0.9472   -2.2798   -2.6187 H   0  0  0  0  0  0  0  0  0  0  0  0
   -2.2432   -1.6220   -4.1914 C   0  0  0  0  0  0  0  0  0  0  0  0
   -2.3809   -2.6238   -4.5884 H   0  0  0  0  0  0  0  0  0  0  0  0
   -2.8576   -0.5343   -4.8156 C   0  0  0  0  0  0  0  0  0  0  0  0
   -3.4794   -0.6889   -5.6929 H   0  0  0  0  0  0  0  0  0  0  0  0
   -2.6608    0.7548   -4.3150 C   0  0  0  0  0  0  0  0  0  0  0  0
   -3.1308    1.6041   -4.8027 H   0  0  0  0  0  0  0  0  0  0  0  0
   -1.8572    0.9535   -3.1872 C   0  0  0  0  0  0  0  0  0  0  0  0
   -1.7159    1.9638   -2.8138 H   0  0  0  0  0  0  0  0  0  0  0  0
    0.0528   -0.3436    1.1489 C   0  0  0  0  0  0  0  0  0  0  0  0
    1.2401   -0.1843    1.3986 O   0  0  0  0  0  0  0  0  0  0  0  0
   -0.8933    0.2763    1.9457 N   0  0  0  0  0  0  0  0  0  0  0  0
   -1.8612    0.0431    1.7487 H   0  0  0  0  0  0  0  0  0  0  0  0
   -0.5684    0.8801    3.2318 C   0  0  0  0  0  0  0  0  0  0  0  0
    0.2239    1.6276    3.1183 H   0  0  0  0  0  0  0  0  0  0  0  0
   -1.4497    1.3760    3.6494 H   0  0  0  0  0  0  0  0  0  0  0  0
   -0.2311    0.1142    3.9379 H   0  0  0  0  0  0  0  0  0  0  0  0
  1  2  1  0  0  0  0
  2  3  1  0  0  0  0
  2  4  1  0  0  0  0
  2  5  1  0  0  0  0
  5  6  2  0  0  0  0
  5  7  1  0  0  0  0
  7  8  1  0  0  0  0
  7  9  1  0  0  0  0
  9 10  1  0  0  0  0
  9 11  1  0  0  0  0
  9 25  1  0  0  0  0
 11 12  1  0  0  0  0
 11 13  1  0  0  0  0
 11 14  1  0  0  0  0
 14 15  1  0  0  0  0
 14 23  2  0  0  0  0
 15 16  1  0  0  0  0
 15 17  2  0  0  0  0
 17 18  1  0  0  0  0
 17 19  1  0  0  0  0
 19 20  1  0  0  0  0
 19 21  2  0  0  0  0
 21 22  1  0  0  0  0
 21 23  1  0  0  0  0
 23 24  1  0  0  0  0
 25 26  2  0  0  0  0
 25 27  1  0  0  0  0
 27 28  1  0  0  0  0
 27 29  1  0  0  0  0
 29 30  1  0  0  0  0
 29 31  1  0  0  0  0
 29 32  1  0  0  0  0
M  END
$$$$

  -OEChem-03222214073D

 32 32  0     1  0  0  0  0  0999 V2000
   -2.9876   -4.5848    1.3303 H   0  0  0  0  0  0  0  0  0  0  0  0
   -3.0399   -3.7408    0.6365 C   0  0  0  0  0  0  0  0  0  0  0  0
   -3.8919   -3.1138    0.9094 H   0  0  0  0  0  0  0  0  0  0  0  0
   -3.1878   -4.1265   -0.3751 H   0  0  0  0  0  0  0  0  0  0  0  0
   -1.7577   -2.9322    0.7019 C   0  0  0  0  0  0  0  0  0  0  0  0
   -0.8708   -3.2599    1.4691 O   0  0  0  0  0  0  0  0  0  0  0  0
   -1.6046   -1.8252   -0.1087 N   0  0  0  0  0  0  0  0  0  0  0  0
   -2.3564   -1.6193   -0.7627 H   0  0  0  0  0  0  0  0  0  0  0  0
   -0.3831   -1.0018   -0.1890 C   0  0  1  0  0  0  0  0  0  0  0  0
    0.4293   -1.6874   -0.4552 H   0  0  0  0  0  0  0  0  0  0  0  0
   -0.4390    0.0743   -1.3042 C   0  0  0  0  0  0  0  0  0  0  0  0
   -0.8429    0.9864   -0.8516 H   0  0  0  0  0  0  0  0  0  0  0  0
    0.5923    0.2985   -1.5970 H   0  0  0  0  0  0  0  0  0  0  0  0
   -1.2429   -0.1722   -2.5785 C   0  0  0  0  0  0  0  0  0  0  0  0
   -1.7227   -1.4276   -3.0073 C   0  0  0  0  0  0  0  0  0  0  0  0
   -1.4479   -2.3429   -2.4952 H   0  0  0  0  0  0  0  0  0  0  0  0
   -2.5104   -1.5449   -4.1576 C   0  0  0  0  0  0  0  0  0  0  0  0
   -2.8573   -2.5217   -4.4819 H   0  0  0  0  0  0  0  0  0  0  0  0
   -2.8369   -0.4104   -4.9025 C   0  0  0  0  0  0  0  0  0  0  0  0
   -3.4459   -0.5006   -5.7976 H   0  0  0  0  0  0  0  0  0  0  0  0
   -2.3657    0.8401   -4.4996 C   0  0  0  0  0  0  0  0  0  0  0  0
   -2.6109    1.7250   -5.0799 H   0  0  0  0  0  0  0  0  0  0  0  0
   -1.5775    0.9538   -3.3498 C   0  0  0  0  0  0  0  0  0  0  0  0
   -1.2262    1.9375   -3.0512 H   0  0  0  0  0  0  0  0  0  0  0  0
    0.0343   -0.3451    1.1441 C   0  0  0  0  0  0  0  0  0  0  0  0
    1.2194   -0.1439    1.3738 O   0  0  0  0  0  0  0  0  0  0  0  0
   -0.9172    0.2695    1.9387 N   0  0  0  0  0  0  0  0  0  0  0  0
   -1.8836    0.0194    1.7565 H   0  0  0  0  0  0  0  0  0  0  0  0
   -0.5895    0.9383    3.1916 C   0  0  0  0  0  0  0  0  0  0  0  0
    0.1243    1.7505    3.0179 H   0  0  0  0  0  0  0  0  0  0  0  0
   -1.4918    1.3642    3.6404 H   0  0  0  0  0  0  0  0  0  0  0  0
   -0.1499    0.2284    3.9001 H   0  0  0  0  0  0  0  0  0  0  0  0
  1  2  1  0  0  0  0
  2  3  1  0  0  0  0
  2  4  1  0  0  0  0
  2  5  1  0  0  0  0
  5  6  2  0  0  0  0
  5  7  1  0  0  0  0
  7  8  1  0  0  0  0
  7  9  1  0  0  0  0
  9 10  1  0  0  0  0
  9 11  1  0  0  0  0
  9 25  1  0  0  0  0
 11 12  1  0  0  0  0
 11 13  1  0  0  0  0
 11 14  1  0  0  0  0
 14 15  1  0  0  0  0
 14 23  2  0  0  0  0
 15 16  1  0  0  0  0
 15 17  2  0  0  0  0
 17 18  1  0  0  0  0
 17 19  1  0  0  0  0
 19 20  1  0  0  0  0
 19 21  2  0  0  0  0
 21 22  1  0  0  0  0
 21 23  1  0  0  0  0
 23 24  1  0  0  0  0
 25 26  2  0  0  0  0
 25 27  1  0  0  0  0
 27 28  1  0  0  0  0
 27 29  1  0  0  0  0
 29 30  1  0  0  0  0
 29 31  1  0  0  0  0
 29 32  1  0  0  0  0
M  END
$$$$

  -OEChem-03222214073D

 32 32  0     1  0  0  0  0  0999 V2000
   -2.9079   -4.6040    1.5238 H   0  0  0  0  0  0  0  0  0  0  0  0
   -2.9976   -3.7812    0.8088 C   0  0  0  0  0  0  0  0  0  0  0  0
   -3.8288   -3.1407    1.1130 H   0  0  0  0  0  0  0  0  0  0  0  0
   -3.2083   -4.1965   -0.1796 H   0  0  0  0  0  0  0  0  0  0  0  0
   -1.7097   -2.9798    0.7718 C   0  0  0  0  0  0  0  0  0  0  0  0
   -0.7727   -3.3021    1.4796 O   0  0  0  0  0  0  0  0  0  0  0  0
   -1.6107   -1.8825   -0.0606 N   0  0  0  0  0  0  0  0  0  0  0  0
   -2.4233   -1.6495   -0.6250 H   0  0  0  0  0  0  0  0  0  0  0  0
   -0.4168   -1.0292   -0.1881 C   0  0  1  0  0  0  0  0  0  0  0  0
    0.4032   -1.7054   -0.4557 H   0  0  0  0  0  0  0  0  0  0  0  0
   -0.4935    0.0249   -1.3242 C   0  0  0  0  0  0  0  0  0  0  0  0
   -0.9108    0.9356   -0.8807 H   0  0  0  0  0  0  0  0  0  0  0  0
    0.5380    0.2590   -1.6091 H   0  0  0  0  0  0  0  0  0  0  0  0
   -1.2854   -0.2049   -2.6121 C   0  0  0  0  0  0  0  0  0  0  0  0
   -2.0293   -1.3537   -2.9612 C   0  0  0  0  0  0  0  0  0  0  0  0
   -2.0101   -2.2621   -2.3756 H   0  0  0  0  0  0  0  0  0  0  0  0
   -2.7700   -1.4017   -4.1476 C   0  0  0  0  0  0  0  0  0  0  0  0
   -3.3185   -2.3019   -4.4090 H   0  0  0  0  0  0  0  0  0  0  0  0
   -2.7926   -0.3042   -5.0086 C   0  0  0  0  0  0  0  0  0  0  0  0
   -3.3664   -0.3436   -5.9300 H   0  0  0  0  0  0  0  0  0  0  0  0
   -2.0643    0.8402   -4.6852 C   0  0  0  0  0  0  0  0  0  0  0  0
   -2.0734    1.6974   -5.3522 H   0  0  0  0  0  0  0  0  0  0  0  0
   -1.3229    0.8842   -3.5009 C   0  0  0  0  0  0  0  0  0  0  0  0
   -0.7698    1.7895   -3.2667 H   0  0  0  0  0  0  0  0  0  0  0  0
    0.0182   -0.3403    1.1232 C   0  0  0  0  0  0  0  0  0  0  0  0
    1.2031   -0.1054    1.3188 O   0  0  0  0  0  0  0  0  0  0  0  0
   -0.9267    0.2614    1.9355 N   0  0  0  0  0  0  0  0  0  0  0  0
   -1.8935   -0.0009    1.7755 H   0  0  0  0  0  0  0  0  0  0  0  0
   -0.5824    0.9630    3.1660 C   0  0  0  0  0  0  0  0  0  0  0  0
    0.1205    1.7775    2.9603 H   0  0  0  0  0  0  0  0  0  0  0  0
   -1.4805    1.3914    3.6210 H   0  0  0  0  0  0  0  0  0  0  0  0
   -0.1228    0.2740    3.8826 H   0  0  0  0  0  0  0  0  0  0  0  0
  1  2  1  0  0  0  0
  2  3  1  0  0  0  0
  2  4  1  0  0  0  0
  2  5  1  0  0  0  0
  5  6  2  0  0  0  0
  5  7  1  0  0  0  0
  7  8  1  0  0  0  0
  7  9  1  0  0  0  0
  9 10  1  0  0  0  0
  9 11  1  0  0  0  0
  9 25  1  0  0  0  0
 11 12  1  0  0  0  0
 11 13  1  0  0  0  0
 11 14  1  0  0  0  0
 14 15  1  0  0  0  0
 14 23  2  0  0  0  0
 15 16  1  0  0  0  0
 15 17  2  0  0  0  0
 17 18  1  0  0  0  0
 17 19  1  0  0  0  0
 19 20  1  0  0  0  0
 19 21  2  0  0  0  0
 21 22  1  0  0  0  0
 21 23  1  0  0  0  0
 23 24  1  0  0  0  0
 25 26  2  0  0  0  0
 25 27  1  0  0  0  0
 27 28  1  0  0  0  0
 27 29  1  0  0  0  0
 29 30  1  0  0  0  0
 29 31  1  0  0  0  0
 29 32  1  0  0  0  0
M  END
$$$$

  -OEChem-03222214073D

 32 32  0     1  0  0  0  0  0999 V2000
   -2.8497   -4.6081    1.6453 H   0  0  0  0  0  0  0  0  0  0  0  0
   -2.9730   -3.7953    0.9236 C   0  0  0  0  0  0  0  0  0  0  0  0
   -3.7800   -3.1425    1.2646 H   0  0  0  0  0  0  0  0  0  0  0  0
   -3.2430   -4.2239   -0.0447 H   0  0  0  0  0  0  0  0  0  0  0  0
   -1.6821   -3.0078    0.7997 C   0  0  0  0  0  0  0  0  0  0  0  0
   -0.7032   -3.3409    1.4426 O   0  0  0  0  0  0  0  0  0  0  0  0
   -1.6293   -1.9081   -0.0339 N   0  0  0  0  0  0  0  0  0  0  0  0
   -2.4901   -1.6356   -0.4972 H   0  0  0  0  0  0  0  0  0  0  0  0
   -0.4532   -1.0395   -0.1992 C   0  0  1  0  0  0  0  0  0  0  0  0
    0.3638   -1.7119   -0.4852 H   0  0  0  0  0  0  0  0  0  0  0  0
   -0.5442    0.0147   -1.3359 C   0  0  0  0  0  0  0  0  0  0  0  0
   -0.9551    0.9261   -0.8885 H   0  0  0  0  0  0  0  0  0  0  0  0
    0.4884    0.2451   -1.6219 H   0  0  0  0  0  0  0  0  0  0  0  0
   -1.3457   -0.1941   -2.6239 C   0  0  0  0  0  0  0  0  0  0  0  0
   -2.3300   -1.1744   -2.8855 C   0  0  0  0  0  0  0  0  0  0  0  0
   -2.5874   -1.9631   -2.1973 H   0  0  0  0  0  0  0  0  0  0  0  0
   -3.0130   -1.2062   -4.1071 C   0  0  0  0  0  0  0  0  0  0  0  0
   -3.7563   -1.9759   -4.2936 H   0  0  0  0  0  0  0  0  0  0  0  0
   -2.7391   -0.2599   -5.0941 C   0  0  0  0  0  0  0  0  0  0  0  0
   -3.2690   -0.2880   -6.0418 H   0  0  0  0  0  0  0  0  0  0  0  0
   -1.7765    0.7199   -4.8576 C   0  0  0  0  0  0  0  0  0  0  0  0
   -1.5564    1.4609   -5.6204 H   0  0  0  0  0  0  0  0  0  0  0  0
   -1.0947    0.7491   -3.6377 C   0  0  0  0  0  0  0  0  0  0  0  0
   -0.3550    1.5286   -3.4778 H   0  0  0  0  0  0  0  0  0  0  0  0
    0.0122   -0.3495    1.1013 C   0  0  0  0  0  0  0  0  0  0  0  0
    1.1990   -0.0987    1.2627 O   0  0  0  0  0  0  0  0  0  0  0  0
   -0.9153    0.2360    1.9452 N   0  0  0  0  0  0  0  0  0  0  0  0
   -1.8846   -0.0307    1.8115 H   0  0  0  0  0  0  0  0  0  0  0  0
   -0.5425    0.9546    3.1573 C   0  0  0  0  0  0  0  0  0  0  0  0
    0.1054    1.8039    2.9154 H   0  0  0  0  0  0  0  0  0  0  0  0
   -1.4355    1.3361    3.6613 H   0  0  0  0  0  0  0  0  0  0  0  0
   -0.0110    0.2906    3.8471 H   0  0  0  0  0  0  0  0  0  0  0  0
  1  2  1  0  0  0  0
  2  3  1  0  0  0  0
  2  4  1  0  0  0  0
  2  5  1  0  0  0  0
  5  6  2  0  0  0  0
  5  7  1  0  0  0  0
  7  8  1  0  0  0  0
  7  9  1  0  0  0  0
  9 10  1  0  0  0  0
  9 11  1  0  0  0  0
  9 25  1  0  0  0  0
 11 12  1  0  0  0  0
 11 13  1  0  0  0  0
 11 14  1  0  0  0  0
 14 15  1  0  0  0  0
 14 23  2  0  0  0  0
 15 16  1  0  0  0  0
 15 17  2  0  0  0  0
 17 18  1  0  0  0  0
 17 19  1  0  0  0  0
 19 20  1  0  0  0  0
 19 21  2  0  0  0  0
 21 22  1  0  0  0  0
 21 23  1  0  0  0  0
 23 24  1  0  0  0  0
 25 26  2  0  0  0  0
 25 27  1  0  0  0  0
 27 28  1  0  0  0  0
 27 29  1  0  0  0  0
 29 30  1  0  0  0  0
 29 31  1  0  0  0  0
 29 32  1  0  0  0  0
M  END
$$$$

  -OEChem-03222214073D

 32 32  0     1  0  0  0  0  0999 V2000
   -2.7956   -4.6294    1.6117 H   0  0  0  0  0  0  0  0  0  0  0  0
   -2.9512   -3.7940    0.9230 C   0  0  0  0  0  0  0  0  0  0  0  0
   -3.7348   -3.1484    1.3261 H   0  0  0  0  0  0  0  0  0  0  0  0
   -3.2743   -4.1908   -0.0426 H   0  0  0  0  0  0  0  0  0  0  0  0
   -1.6634   -3.0093    0.7554 C   0  0  0  0  0  0  0  0  0  0  0  0
   -0.6554   -3.3660    1.3379 O   0  0  0  0  0  0  0  0  0  0  0  0
   -1.6472   -1.8850   -0.0470 N   0  0  0  0  0  0  0  0  0  0  0  0
   -2.5328   -1.5872   -0.4364 H   0  0  0  0  0  0  0  0  0  0  0  0
   -0.4739   -1.0182   -0.2439 C   0  0  1  0  0  0  0  0  0  0  0  0
    0.3214   -1.6929   -0.5813 H   0  0  0  0  0  0  0  0  0  0  0  0
   -0.5801    0.0708   -1.3477 C   0  0  0  0  0  0  0  0  0  0  0  0
   -0.9645    0.9767   -0.8672 H   0  0  0  0  0  0  0  0  0  0  0  0
    0.4484    0.2940   -1.6528 H   0  0  0  0  0  0  0  0  0  0  0  0
   -1.4311   -0.1012   -2.6093 C   0  0  0  0  0  0  0  0  0  0  0  0
   -2.6196   -0.8532   -2.7421 C   0  0  0  0  0  0  0  0  0  0  0  0
   -3.0838   -1.3801   -1.9253 H   0  0  0  0  0  0  0  0  0  0  0  0
   -3.2900   -0.9372   -3.9680 C   0  0  0  0  0  0  0  0  0  0  0  0
   -4.2019   -1.5213   -4.0494 H   0  0  0  0  0  0  0  0  0  0  0  0
   -2.7955   -0.2723   -5.0896 C   0  0  0  0  0  0  0  0  0  0  0  0
   -3.3158   -0.3406   -6.0405 H   0  0  0  0  0  0  0  0  0  0  0  0
   -1.6293    0.4834   -4.9820 C   0  0  0  0  0  0  0  0  0  0  0  0
   -1.2379    1.0067   -5.8496 H   0  0  0  0  0  0  0  0  0  0  0  0
   -0.9615    0.5659   -3.7569 C   0  0  0  0  0  0  0  0  0  0  0  0
   -0.0547    1.1619   -3.7059 H   0  0  0  0  0  0  0  0  0  0  0  0
    0.0571   -0.3726    1.0542 C   0  0  0  0  0  0  0  0  0  0  0  0
    1.2520   -0.1338    1.1673 O   0  0  0  0  0  0  0  0  0  0  0  0
   -0.8253    0.1906    1.9593 N   0  0  0  0  0  0  0  0  0  0  0  0
   -1.8006   -0.0710    1.8656 H   0  0  0  0  0  0  0  0  0  0  0  0
   -0.3897    0.8548    3.1817 C   0  0  0  0  0  0  0  0  0  0  0  0
    0.2598    1.7047    2.9466 H   0  0  0  0  0  0  0  0  0  0  0  0
   -1.2544    1.2269    3.7391 H   0  0  0  0  0  0  0  0  0  0  0  0
    0.1615    0.1566    3.8203 H   0  0  0  0  0  0  0  0  0  0  0  0
  1  2  1  0  0  0  0
  2  3  1  0  0  0  0
  2  4  1  0  0  0  0
  2  5  1  0  0  0  0
  5  6  2  0  0  0  0
  5  7  1  0  0  0  0
  7  8  1  0  0  0  0
  7  9  1  0  0  0  0
  9 10  1  0  0  0  0
  9 11  1  0  0  0  0
  9 25  1  0  0  0  0
 11 12  1  0  0  0  0
 11 13  1  0  0  0  0
 11 14  1  0  0  0  0
 14 15  1  0  0  0  0
 14 23  2  0  0  0  0
 15 16  1  0  0  0  0
 15 17  2  0  0  0  0
 17 18  1  0  0  0  0
 17 19  1  0  0  0  0
 19 20  1  0  0  0  0
 19 21  2  0  0  0  0
 21 22  1  0  0  0  0
 21 23  1  0  0  0  0
 23 24  1  0  0  0  0
 25 26  2  0  0  0  0
 25 27  1  0  0  0  0
 27 28  1  0  0  0  0
 27 29  1  0  0  0  0
 29 30  1  0  0  0  0
 29 31  1  0  0  0  0
 29 32  1  0  0  0  0
M  END
$$$$

  -OEChem-03222214073D

 32 32  0     1  0  0  0  0  0999 V2000
   -2.8782   -4.6719    1.2688 H   0  0  0  0  0  0  0  0  0  0  0  0
   -2.9707   -3.8302    0.5763 C   0  0  0  0  0  0  0  0  0  0  0  0
   -3.9112   -3.3114    0.7767 H   0  0  0  0  0  0  0  0  0  0  0  0
   -2.9849   -4.2172   -0.4457 H   0  0  0  0  0  0  0  0  0  0  0  0
   -1.8035   -2.8774    0.7546 C   0  0  0  0  0  0  0  0  0  0  0  0
   -0.9774   -3.0917    1.6233 O   0  0  0  0  0  0  0  0  0  0  0  0
   -1.6965   -1.7730   -0.0690 N   0  0  0  0  0  0  0  0  0  0  0  0
   -2.3019   -1.7960   -0.8830 H   0  0  0  0  0  0  0  0  0  0  0  0
   -0.4664   -0.9711   -0.2011 C   0  0  1  0  0  0  0  0  0  0  0  0
    0.3177   -1.6742   -0.5037 H   0  0  0  0  0  0  0  0  0  0  0  0
   -0.5001    0.1442   -1.2855 C   0  0  0  0  0  0  0  0  0  0  0  0
   -0.8615    1.0615   -0.8089 H   0  0  0  0  0  0  0  0  0  0  0  0
    0.5377    0.3379   -1.5777 H   0  0  0  0  0  0  0  0  0  0  0  0
   -1.3553   -0.0239   -2.5388 C   0  0  0  0  0  0  0  0  0  0  0  0
   -2.6882   -0.4835   -2.5423 C   0  0  0  0  0  0  0  0  0  0  0  0
   -3.2415   -0.6113   -1.6199 H   0  0  0  0  0  0  0  0  0  0  0  0
   -3.3765   -0.6982   -3.7414 C   0  0  0  0  0  0  0  0  0  0  0  0
   -4.4096   -1.0327   -3.7249 H   0  0  0  0  0  0  0  0  0  0  0  0
   -2.7439   -0.4660   -4.9636 C   0  0  0  0  0  0  0  0  0  0  0  0
   -3.2762   -0.6321   -5.8958 H   0  0  0  0  0  0  0  0  0  0  0  0
   -1.4258   -0.0077   -4.9829 C   0  0  0  0  0  0  0  0  0  0  0  0
   -0.9289    0.1782   -5.9308 H   0  0  0  0  0  0  0  0  0  0  0  0
   -0.7415    0.2084   -3.7825 C   0  0  0  0  0  0  0  0  0  0  0  0
    0.2882    0.5514   -3.8270 H   0  0  0  0  0  0  0  0  0  0  0  0
    0.0192   -0.3287    1.1175 C   0  0  0  0  0  0  0  0  0  0  0  0
    1.2171   -0.1445    1.2910 O   0  0  0  0  0  0  0  0  0  0  0  0
   -0.8860    0.2972    1.9557 N   0  0  0  0  0  0  0  0  0  0  0  0
   -1.8583    0.0342    1.8304 H   0  0  0  0  0  0  0  0  0  0  0  0
   -0.4911    0.9389    3.2033 C   0  0  0  0  0  0  0  0  0  0  0  0
    0.2432    1.7288    3.0134 H   0  0  0  0  0  0  0  0  0  0  0  0
   -1.3617    1.3894    3.6891 H   0  0  0  0  0  0  0  0  0  0  0  0
   -0.0509    0.2057    3.8873 H   0  0  0  0  0  0  0  0  0  0  0  0
  1  2  1  0  0  0  0
  2  3  1  0  0  0  0
  2  4  1  0  0  0  0
  2  5  1  0  0  0  0
  5  6  2  0  0  0  0
  5  7  1  0  0  0  0
  7  8  1  0  0  0  0
  7  9  1  0  0  0  0
  9 10  1  0  0  0  0
  9 11  1  0  0  0  0
  9 25  1  0  0  0  0
 11 12  1  0  0  0  0
 11 13  1  0  0  0  0
 11 14  1  0  0  0  0
 14 15  1  0  0  0  0
 14 23  2  0  0  0  0
 15 16  1  0  0  0  0
 15 17  2  0  0  0  0
 17 18  1  0  0  0  0
 17 19  1  0  0  0  0
 19 20  1  0  0  0  0
 19 21  2  0  0  0  0
 21 22  1  0  0  0  0
 21 23  1  0  0  0  0
 23 24  1  0  0  0  0
 25 26  2  0  0  0  0
 25 27  1  0  0  0  0
 27 28  1  0  0  0  0
 27 29  1  0  0  0  0
 29 30  1  0  0  0  0
 29 31  1  0  0  0  0
 29 32  1  0  0  0  0
M  END
$$$$

  -OEChem-03222214073D

 32 32  0     1  0  0  0  0  0999 V2000
   -3.0062   -4.6110    1.0534 H   0  0  0  0  0  0  0  0  0  0  0  0
   -3.0500   -3.7386    0.3950 C   0  0  0  0  0  0  0  0  0  0  0  0
   -3.9690   -3.1857    0.6032 H   0  0  0  0  0  0  0  0  0  0  0  0
   -3.0662   -4.0823   -0.6422 H   0  0  0  0  0  0  0  0  0  0  0  0
   -1.8444   -2.8472    0.6276 C   0  0  0  0  0  0  0  0  0  0  0  0
   -1.0440   -3.1268    1.5019 O   0  0  0  0  0  0  0  0  0  0  0  0
   -1.6745   -1.7200   -0.1520 N   0  0  0  0  0  0  0  0  0  0  0  0
   -2.2773   -1.6684   -0.9687 H   0  0  0  0  0  0  0  0  0  0  0  0
   -0.4183   -0.9498   -0.2209 C   0  0  1  0  0  0  0  0  0  0  0  0
    0.3564   -1.6596   -0.5313 H   0  0  0  0  0  0  0  0  0  0  0  0
   -0.4296    0.1896   -1.2751 C   0  0  0  0  0  0  0  0  0  0  0  0
   -0.7924    1.1023   -0.7909 H   0  0  0  0  0  0  0  0  0  0  0  0
    0.6063    0.3867   -1.5708 H   0  0  0  0  0  0  0  0  0  0  0  0
   -1.2915   -0.0072   -2.5127 C   0  0  0  0  0  0  0  0  0  0  0  0
   -2.6861   -0.1896   -2.4457 C   0  0  0  0  0  0  0  0  0  0  0  0
   -3.2059   -0.0989   -1.4969 H   0  0  0  0  0  0  0  0  0  0  0  0
   -3.4350   -0.4366   -3.6010 C   0  0  0  0  0  0  0  0  0  0  0  0
   -4.5123   -0.5603   -3.5370 H   0  0  0  0  0  0  0  0  0  0  0  0
   -2.7993   -0.5114   -4.8425 C   0  0  0  0  0  0  0  0  0  0  0  0
   -3.3782   -0.6999   -5.7421 H   0  0  0  0  0  0  0  0  0  0  0  0
   -1.4160   -0.3363   -4.9260 C   0  0  0  0  0  0  0  0  0  0  0  0
   -0.9183   -0.3951   -5.8898 H   0  0  0  0  0  0  0  0  0  0  0  0
   -0.6694   -0.0889   -3.7691 C   0  0  0  0  0  0  0  0  0  0  0  0
    0.4069    0.0318   -3.8545 H   0  0  0  0  0  0  0  0  0  0  0  0
    0.0538   -0.3605    1.1259 C   0  0  0  0  0  0  0  0  0  0  0  0
    1.2522   -0.2197    1.3328 O   0  0  0  0  0  0  0  0  0  0  0  0
   -0.8523    0.2685    1.9609 N   0  0  0  0  0  0  0  0  0  0  0  0
   -1.8283    0.0356    1.8088 H   0  0  0  0  0  0  0  0  0  0  0  0
   -0.4660    0.8630    3.2342 C   0  0  0  0  0  0  0  0  0  0  0  0
    0.2997    1.6312    3.0825 H   0  0  0  0  0  0  0  0  0  0  0  0
   -1.3321    1.3313    3.7112 H   0  0  0  0  0  0  0  0  0  0  0  0
   -0.0679    0.0969    3.9080 H   0  0  0  0  0  0  0  0  0  0  0  0
  1  2  1  0  0  0  0
  2  3  1  0  0  0  0
  2  4  1  0  0  0  0
  2  5  1  0  0  0  0
  5  6  2  0  0  0  0
  5  7  1  0  0  0  0
  7  8  1  0  0  0  0
  7  9  1  0  0  0  0
  9 10  1  0  0  0  0
  9 11  1  0  0  0  0
  9 25  1  0  0  0  0
 11 12  1  0  0  0  0
 11 13  1  0  0  0  0
 11 14  1  0  0  0  0
 14 15  1  0  0  0  0
 14 23  2  0  0  0  0
 15 16  1  0  0  0  0
 15 17  2  0  0  0  0
 17 18  1  0  0  0  0
 17 19  1  0  0  0  0
 19 20  1  0  0  0  0
 19 21  2  0  0  0  0
 21 22  1  0  0  0  0
 21 23  1  0  0  0  0
 23 24  1  0  0  0  0
 25 26  2  0  0  0  0
 25 27  1  0  0  0  0
 27 28  1  0  0  0  0
 27 29  1  0  0  0  0
 29 30  1  0  0  0  0
 29 31  1  0  0  0  0
 29 32  1  0  0  0  0
M  END
$$$$

  -OEChem-03222214073D

 32 32  0     1  0  0  0  0  0999 V2000
   -3.0757   -4.5509    0.9083 H   0  0  0  0  0  0  0  0  0  0  0  0
   -3.0861   -3.6641    0.2681 C   0  0  0  0  0  0  0  0  0  0  0  0
   -3.9925   -3.0903    0.4752 H   0  0  0  0  0  0  0  0  0  0  0  0
   -3.0963   -3.9855   -0.7764 H   0  0  0  0  0  0  0  0  0  0  0  0
   -1.8603   -2.8117    0.5367 C   0  0  0  0  0  0  0  0  0  0  0  0
   -1.0807   -3.1304    1.4165 O   0  0  0  0  0  0  0  0  0  0  0  0
   -1.6457   -1.6737   -0.2148 N   0  0  0  0  0  0  0  0  0  0  0  0
   -2.2457   -1.5666   -1.0296 H   0  0  0  0  0  0  0  0  0  0  0  0
   -0.3770   -0.9195   -0.2312 C   0  0  1  0  0  0  0  0  0  0  0  0
    0.3999   -1.6290   -0.5364 H   0  0  0  0  0  0  0  0  0  0  0  0
   -0.3785    0.2279   -1.2710 C   0  0  0  0  0  0  0  0  0  0  0  0
   -0.7474    1.1411   -0.7919 H   0  0  0  0  0  0  0  0  0  0  0  0
    0.6552    0.4284   -1.5724 H   0  0  0  0  0  0  0  0  0  0  0  0
   -1.2379   -0.0199   -2.4953 C   0  0  0  0  0  0  0  0  0  0  0  0
   -2.6395    0.0744   -2.4329 C   0  0  0  0  0  0  0  0  0  0  0  0
   -3.1219    0.3865   -1.5110 H   0  0  0  0  0  0  0  0  0  0  0  0
   -3.4244   -0.2086   -3.5555 C   0  0  0  0  0  0  0  0  0  0  0  0
   -4.5059   -0.1208   -3.5013 H   0  0  0  0  0  0  0  0  0  0  0  0
   -2.8157   -0.5968   -4.7523 C   0  0  0  0  0  0  0  0  0  0  0  0
   -3.4224   -0.8145   -5.6267 H   0  0  0  0  0  0  0  0  0  0  0  0
   -1.4236   -0.7001   -4.8247 C   0  0  0  0  0  0  0  0  0  0  0  0
   -0.9491   -1.0027   -5.7538 H   0  0  0  0  0  0  0  0  0  0  0  0
   -0.6403   -0.4151   -3.7011 C   0  0  0  0  0  0  0  0  0  0  0  0
    0.4399   -0.5083   -3.7690 H   0  0  0  0  0  0  0  0  0  0  0  0
    0.0661   -0.3574    1.1363 C   0  0  0  0  0  0  0  0  0  0  0  0
    1.2599   -0.2298    1.3754 O   0  0  0  0  0  0  0  0  0  0  0  0
   -0.8550    0.2717    1.9545 N   0  0  0  0  0  0  0  0  0  0  0  0
   -1.8285    0.0471    1.7757 H   0  0  0  0  0  0  0  0  0  0  0  0
   -0.4971    0.8453    3.2458 C   0  0  0  0  0  0  0  0  0  0  0  0
    0.2778    1.6098    3.1255 H   0  0  0  0  0  0  0  0  0  0  0  0
   -1.3719    1.3134    3.7070 H   0  0  0  0  0  0  0  0  0  0  0  0
   -0.1225    0.0670    3.9191 H   0  0  0  0  0  0  0  0  0  0  0  0
  1  2  1  0  0  0  0
  2  3  1  0  0  0  0
  2  4  1  0  0  0  0
  2  5  1  0  0  0  0
  5  6  2  0  0  0  0
  5  7  1  0  0  0  0
  7  8  1  0  0  0  0
  7  9  1  0  0  0  0
  9 10  1  0  0  0  0
  9 11  1  0  0  0  0
  9 25  1  0  0  0  0
 11 12  1  0  0  0  0
 11 13  1  0  0  0  0
 11 14  1  0  0  0  0
 14 15  1  0  0  0  0
 14 23  2  0  0  0  0
 15 16  1  0  0  0  0
 15 17  2  0  0  0  0
 17 18  1  0  0  0  0
 17 19  1  0  0  0  0
 19 20  1  0  0  0  0
 19 21  2  0  0  0  0
 21 22  1  0  0  0  0
 21 23  1  0  0  0  0
 23 24  1  0  0  0  0
 25 26  2  0  0  0  0
 25 27  1  0  0  0  0
 27 28  1  0  0  0  0
 27 29  1  0  0  0  0
 29 30  1  0  0  0  0
 29 31  1  0  0  0  0
 29 32  1  0  0  0  0
M  END
$$$$

  -OEChem-03222214073D

 32 32  0     1  0  0  0  0  0999 V2000
   -3.1223   -4.5061    0.8230 H   0  0  0  0  0  0  0  0  0  0  0  0
   -3.1070   -3.6130    0.1919 C   0  0  0  0  0  0  0  0  0  0  0  0
   -4.0023   -3.0211    0.3963 H   0  0  0  0  0  0  0  0  0  0  0  0
   -3.1149   -3.9229   -0.8560 H   0  0  0  0  0  0  0  0  0  0  0  0
   -1.8654   -2.7907    0.4802 C   0  0  0  0  0  0  0  0  0  0  0  0
   -1.0968   -3.1374    1.3590 O   0  0  0  0  0  0  0  0  0  0  0  0
   -1.6223   -1.6476   -0.2535 N   0  0  0  0  0  0  0  0  0  0  0  0
   -2.2256   -1.4987   -1.0599 H   0  0  0  0  0  0  0  0  0  0  0  0
   -0.3473   -0.9029   -0.2370 C   0  0  1  0  0  0  0  0  0  0  0  0
    0.4325   -1.6106   -0.5393 H   0  0  0  0  0  0  0  0  0  0  0  0
   -0.3502    0.2483   -1.2684 C   0  0  0  0  0  0  0  0  0  0  0  0
   -0.7217    1.1615   -0.7912 H   0  0  0  0  0  0  0  0  0  0  0  0
    0.6802    0.4514   -1.5793 H   0  0  0  0  0  0  0  0  0  0  0  0
   -1.2099   -0.0366   -2.4812 C   0  0  0  0  0  0  0  0  0  0  0  0
   -2.5666    0.3264   -2.4997 C   0  0  0  0  0  0  0  0  0  0  0  0
   -3.0005    0.8544   -1.6553 H   0  0  0  0  0  0  0  0  0  0  0  0
   -3.3683    0.0195   -3.6043 C   0  0  0  0  0  0  0  0  0  0  0  0
   -4.4148    0.3104   -3.6154 H   0  0  0  0  0  0  0  0  0  0  0  0
   -2.8211   -0.6574   -4.6982 C   0  0  0  0  0  0  0  0  0  0  0  0
   -3.4413   -0.8943   -5.5581 H   0  0  0  0  0  0  0  0  0  0  0  0
   -1.4724   -1.0256   -4.6868 C   0  0  0  0  0  0  0  0  0  0  0  0
   -1.0454   -1.5510   -5.5364 H   0  0  0  0  0  0  0  0  0  0  0  0
   -0.6714   -0.7175   -3.5820 C   0  0  0  0  0  0  0  0  0  0  0  0
    0.3738   -1.0142   -3.5797 H   0  0  0  0  0  0  0  0  0  0  0  0
    0.0762   -0.3555    1.1418 C   0  0  0  0  0  0  0  0  0  0  0  0
    1.2665   -0.2415    1.4037 O   0  0  0  0  0  0  0  0  0  0  0  0
   -0.8542    0.2748    1.9483 N   0  0  0  0  0  0  0  0  0  0  0  0
   -1.8263    0.0611    1.7499 H   0  0  0  0  0  0  0  0  0  0  0  0
   -0.5144    0.8371    3.2493 C   0  0  0  0  0  0  0  0  0  0  0  0
    0.2615    1.6031    3.1460 H   0  0  0  0  0  0  0  0  0  0  0  0
   -1.3956    1.3005    3.7030 H   0  0  0  0  0  0  0  0  0  0  0  0
   -0.1477    0.0530    3.9201 H   0  0  0  0  0  0  0  0  0  0  0  0
  1  2  1  0  0  0  0
  2  3  1  0  0  0  0
  2  4  1  0  0  0  0
  2  5  1  0  0  0  0
  5  6  2  0  0  0  0
  5  7  1  0  0  0  0
  7  8  1  0  0  0  0
  7  9  1  0  0  0  0
  9 10  1  0  0  0  0
  9 11  1  0  0  0  0
  9 25  1  0  0  0  0
 11 12  1  0  0  0  0
 11 13  1  0  0  0  0
 11 14  1  0  0  0  0
 14 15  1  0  0  0  0
 14 23  2  0  0  0  0
 15 16  1  0  0  0  0
 15 17  2  0  0  0  0
 17 18  1  0  0  0  0
 17 19  1  0  0  0  0
 19 20  1  0  0  0  0
 19 21  2  0  0  0  0
 21 22  1  0  0  0  0
 21 23  1  0  0  0  0
 23 24  1  0  0  0  0
 25 26  2  0  0  0  0
 25 27  1  0  0  0  0
 27 28  1  0  0  0  0
 27 29  1  0  0  0  0
 29 30  1  0  0  0  0
 29 31  1  0  0  0  0
 29 32  1  0  0  0  0
M  END
$$$$

  -OEChem-03222214073D

 32 32  0     1  0  0  0  0  0999 V2000
   -3.1374   -4.4924    0.8179 H   0  0  0  0  0  0  0  0  0  0  0  0
   -3.1163   -3.5979    0.1890 C   0  0  0  0  0  0  0  0  0  0  0  0
   -4.0037   -2.9970    0.4013 H   0  0  0  0  0  0  0  0  0  0  0  0
   -3.1345   -3.9053   -0.8595 H   0  0  0  0  0  0  0  0  0  0  0  0
   -1.8632   -2.7903    0.4711 C   0  0  0  0  0  0  0  0  0  0  0  0
   -1.0903   -3.1503    1.3410 O   0  0  0  0  0  0  0  0  0  0  0  0
   -1.6118   -1.6476   -0.2604 N   0  0  0  0  0  0  0  0  0  0  0  0
   -2.2258   -1.4776   -1.0548 H   0  0  0  0  0  0  0  0  0  0  0  0
   -0.3360   -0.9041   -0.2360 C   0  0  1  0  0  0  0  0  0  0  0  0
    0.4463   -1.6109   -0.5341 H   0  0  0  0  0  0  0  0  0  0  0  0
   -0.3428    0.2441   -1.2697 C   0  0  0  0  0  0  0  0  0  0  0  0
   -0.7140    1.1573   -0.7930 H   0  0  0  0  0  0  0  0  0  0  0  0
    0.6857    0.4472   -1.5866 H   0  0  0  0  0  0  0  0  0  0  0  0
   -1.2014   -0.0561   -2.4796 C   0  0  0  0  0  0  0  0  0  0  0  0
   -2.4547    0.5554   -2.6403 C   0  0  0  0  0  0  0  0  0  0  0  0
   -2.8108    1.2742   -1.9079 H   0  0  0  0  0  0  0  0  0  0  0  0
   -3.2563    0.2492   -3.7454 C   0  0  0  0  0  0  0  0  0  0  0  0
   -4.2231    0.7299   -3.8660 H   0  0  0  0  0  0  0  0  0  0  0  0
   -2.8113   -0.6716   -4.6987 C   0  0  0  0  0  0  0  0  0  0  0  0
   -3.4316   -0.9072   -5.5589 H   0  0  0  0  0  0  0  0  0  0  0  0
   -1.5635   -1.2839   -4.5476 C   0  0  0  0  0  0  0  0  0  0  0  0
   -1.2145   -1.9966   -5.2895 H   0  0  0  0  0  0  0  0  0  0  0  0
   -0.7625   -0.9762   -3.4429 C   0  0  0  0  0  0  0  0  0  0  0  0
    0.2050   -1.4583   -3.3323 H   0  0  0  0  0  0  0  0  0  0  0  0
    0.0797   -0.3563    1.1448 C   0  0  0  0  0  0  0  0  0  0  0  0
    1.2684   -0.2489    1.4165 O   0  0  0  0  0  0  0  0  0  0  0  0
   -0.8545    0.2761    1.9456 N   0  0  0  0  0  0  0  0  0  0  0  0
   -1.8269    0.0756    1.7344 H   0  0  0  0  0  0  0  0  0  0  0  0
   -0.5230    0.8361    3.2497 C   0  0  0  0  0  0  0  0  0  0  0  0
    0.2548    1.6010    3.1531 H   0  0  0  0  0  0  0  0  0  0  0  0
   -1.4068    1.2998    3.6982 H   0  0  0  0  0  0  0  0  0  0  0  0
   -0.1626    0.0503    3.9219 H   0  0  0  0  0  0  0  0  0  0  0  0
  1  2  1  0  0  0  0
  2  3  1  0  0  0  0
  2  4  1  0  0  0  0
  2  5  1  0  0  0  0
  5  6  2  0  0  0  0
  5  7  1  0  0  0  0
  7  8  1  0  0  0  0
  7  9  1  0  0  0  0
  9 10  1  0  0  0  0
  9 11  1  0  0  0  0
  9 25  1  0  0  0  0
 11 12  1  0  0  0  0
 11 13  1  0  0  0  0
 11 14  1  0  0  0  0
 14 15  1  0  0  0  0
 14 23  2  0  0  0  0
 15 16  1  0  0  0  0
 15 17  2  0  0  0  0
 17 18  1  0  0  0  0
 17 19  1  0  0  0  0
 19 20  1  0  0  0  0
 19 21  2  0  0  0  0
 21 22  1  0  0  0  0
 21 23  1  0  0  0  0
 23 24  1  0  0  0  0
 25 26  2  0  0  0  0
 25 27  1  0  0  0  0
 27 28  1  0  0  0  0
 27 29  1  0  0  0  0
 29 30  1  0  0  0  0
 29 31  1  0  0  0  0
 29 32  1  0  0  0  0
M  END
$$$$

  -OEChem-03222214073D

 32 32  0     1  0  0  0  0  0999 V2000
   -3.1291   -4.5005    0.8766 H   0  0  0  0  0  0  0  0  0  0  0  0
   -3.1213   -3.6035    0.2506 C   0  0  0  0  0  0  0  0  0  0  0  0
   -4.0012   -3.0008    0.4875 H   0  0  0  0  0  0  0  0  0  0  0  0
   -3.1670   -3.9071   -0.7982 H   0  0  0  0  0  0  0  0  0  0  0  0
   -1.8591   -2.8008    0.5037 C   0  0  0  0  0  0  0  0  0  0  0  0
   -1.0733   -3.1583    1.3631 O   0  0  0  0  0  0  0  0  0  0  0  0
   -1.6124   -1.6654   -0.2408 N   0  0  0  0  0  0  0  0  0  0  0  0
   -2.2416   -1.4908   -1.0222 H   0  0  0  0  0  0  0  0  0  0  0  0
   -0.3389   -0.9171   -0.2282 C   0  0  1  0  0  0  0  0  0  0  0  0
    0.4454   -1.6243   -0.5188 H   0  0  0  0  0  0  0  0  0  0  0  0
   -0.3538    0.2197   -1.2752 C   0  0  0  0  0  0  0  0  0  0  0  0
   -0.7242    1.1352   -0.8021 H   0  0  0  0  0  0  0  0  0  0  0  0
    0.6730    0.4218   -1.5982 H   0  0  0  0  0  0  0  0  0  0  0  0
   -1.2118   -0.0856   -2.4860 C   0  0  0  0  0  0  0  0  0  0  0  0
   -2.3017    0.7334   -2.8179 C   0  0  0  0  0  0  0  0  0  0  0  0
   -2.5452    1.5961   -2.2047 H   0  0  0  0  0  0  0  0  0  0  0  0
   -3.0875    0.4489   -3.9402 C   0  0  0  0  0  0  0  0  0  0  0  0
   -3.9306    1.0870   -4.1887 H   0  0  0  0  0  0  0  0  0  0  0  0
   -2.7839   -0.6516   -4.7472 C   0  0  0  0  0  0  0  0  0  0  0  0
   -3.3902   -0.8694   -5.6219 H   0  0  0  0  0  0  0  0  0  0  0  0
   -1.6912   -1.4646   -4.4335 C   0  0  0  0  0  0  0  0  0  0  0  0
   -1.4460   -2.3137   -5.0653 H   0  0  0  0  0  0  0  0  0  0  0  0
   -0.9073   -1.1798   -3.3109 C   0  0  0  0  0  0  0  0  0  0  0  0
   -0.0555   -1.8134   -3.0799 H   0  0  0  0  0  0  0  0  0  0  0  0
    0.0775   -0.3527    1.1454 C   0  0  0  0  0  0  0  0  0  0  0  0
    1.2661   -0.2424    1.4163 O   0  0  0  0  0  0  0  0  0  0  0  0
   -0.8576    0.2846    1.9406 N   0  0  0  0  0  0  0  0  0  0  0  0
   -1.8291    0.0818    1.7278 H   0  0  0  0  0  0  0  0  0  0  0  0
   -0.5292    0.8376    3.2484 C   0  0  0  0  0  0  0  0  0  0  0  0
    0.2651    1.5865    3.1614 H   0  0  0  0  0  0  0  0  0  0  0  0
   -1.4081    1.3192    3.6874 H   0  0  0  0  0  0  0  0  0  0  0  0
   -0.1924    0.0440    3.9236 H   0  0  0  0  0  0  0  0  0  0  0  0
  1  2  1  0  0  0  0
  2  3  1  0  0  0  0
  2  4  1  0  0  0  0
  2  5  1  0  0  0  0
  5  6  2  0  0  0  0
  5  7  1  0  0  0  0
  7  8  1  0  0  0  0
  7  9  1  0  0  0  0
  9 10  1  0  0  0  0
  9 11  1  0  0  0  0
  9 25  1  0  0  0  0
 11 12  1  0  0  0  0
 11 13  1  0  0  0  0
 11 14  1  0  0  0  0
 14 15  1  0  0  0  0
 14 23  2  0  0  0  0
 15 16  1  0  0  0  0
 15 17  2  0  0  0  0
 17 18  1  0  0  0  0
 17 19  1  0  0  0  0
 19 20  1  0  0  0  0
 19 21  2  0  0  0  0
 21 22  1  0  0  0  0
 21 23  1  0  0  0  0
 23 24  1  0  0  0  0
 25 26  2  0  0  0  0
 25 27  1  0  0  0  0
 27 28  1  0  0  0  0
 27 29  1  0  0  0  0
 29 30  1  0  0  0  0
 29 31  1  0  0  0  0
 29 32  1  0  0  0  0
M  END
$$$$

  -OEChem-03222214073D

 32 32  0     1  0  0  0  0  0999 V2000
   -3.1336   -4.5032    0.9778 H   0  0  0  0  0  0  0  0  0  0  0  0
   -3.1267   -3.6188    0.3343 C   0  0  0  0  0  0  0  0  0  0  0  0
   -3.9925   -2.9986    0.5788 H   0  0  0  0  0  0  0  0  0  0  0  0
   -3.1996   -3.9412   -0.7073 H   0  0  0  0  0  0  0  0  0  0  0  0
   -1.8482   -2.8299    0.5457 C   0  0  0  0  0  0  0  0  0  0  0  0
   -1.0404   -3.1927    1.3818 O   0  0  0  0  0  0  0  0  0  0  0  0
   -1.6110   -1.7011   -0.2115 N   0  0  0  0  0  0  0  0  0  0  0  0
   -2.2648   -1.5150   -0.9694 H   0  0  0  0  0  0  0  0  0  0  0  0
   -0.3443   -0.9419   -0.2156 C   0  0  1  0  0  0  0  0  0  0  0  0
    0.4457   -1.6449   -0.5018 H   0  0  0  0  0  0  0  0  0  0  0  0
   -0.3739    0.1836   -1.2759 C   0  0  0  0  0  0  0  0  0  0  0  0
   -0.7507    1.0976   -0.8050 H   0  0  0  0  0  0  0  0  0  0  0  0
    0.6513    0.3912   -1.5999 H   0  0  0  0  0  0  0  0  0  0  0  0
   -1.2293   -0.1160   -2.4929 C   0  0  0  0  0  0  0  0  0  0  0  0
   -2.1042    0.8582   -2.9978 C   0  0  0  0  0  0  0  0  0  0  0  0
   -2.1974    1.8198   -2.5015 H   0  0  0  0  0  0  0  0  0  0  0  0
   -2.8712    0.6043   -4.1399 C   0  0  0  0  0  0  0  0  0  0  0  0
   -3.5528    1.3621   -4.5151 H   0  0  0  0  0  0  0  0  0  0  0  0
   -2.7539   -0.6192   -4.8052 C   0  0  0  0  0  0  0  0  0  0  0  0
   -3.3463   -0.8143   -5.6946 H   0  0  0  0  0  0  0  0  0  0  0  0
   -1.8595   -1.5838   -4.3340 C   0  0  0  0  0  0  0  0  0  0  0  0
   -1.7496   -2.5270   -4.8619 H   0  0  0  0  0  0  0  0  0  0  0  0
   -1.0945   -1.3288   -3.1913 C   0  0  0  0  0  0  0  0  0  0  0  0
   -0.3873   -2.0794   -2.8491 H   0  0  0  0  0  0  0  0  0  0  0  0
    0.0720   -0.3595    1.1504 C   0  0  0  0  0  0  0  0  0  0  0  0
    1.2603   -0.2360    1.4164 O   0  0  0  0  0  0  0  0  0  0  0  0
   -0.8666    0.2776    1.9419 N   0  0  0  0  0  0  0  0  0  0  0  0
   -1.8382    0.0731    1.7308 H   0  0  0  0  0  0  0  0  0  0  0  0
   -0.5385    0.8618    3.2358 C   0  0  0  0  0  0  0  0  0  0  0  0
    0.2463    1.6180    3.1281 H   0  0  0  0  0  0  0  0  0  0  0  0
   -1.4210    1.3421    3.6688 H   0  0  0  0  0  0  0  0  0  0  0  0
   -0.1886    0.0869    3.9259 H   0  0  0  0  0  0  0  0  0  0  0  0
  1  2  1  0  0  0  0
  2  3  1  0  0  0  0
  2  4  1  0  0  0  0
  2  5  1  0  0  0  0
  5  6  2  0  0  0  0
  5  7  1  0  0  0  0
  7  8  1  0  0  0  0
  7  9  1  0  0  0  0
  9 10  1  0  0  0  0
  9 11  1  0  0  0  0
  9 25  1  0  0  0  0
 11 12  1  0  0  0  0
 11 13  1  0  0  0  0
 11 14  1  0  0  0  0
 14 15  1  0  0  0  0
 14 23  2  0  0  0  0
 15 16  1  0  0  0  0
 15 17  2  0  0  0  0
 17 18  1  0  0  0  0
 17 19  1  0  0  0  0
 19 20  1  0  0  0  0
 19 21  2  0  0  0  0
 21 22  1  0  0  0  0
 21 23  1  0  0  0  0
 23 24  1  0  0  0  0
 25 26  2  0  0  0  0
 25 27  1  0  0  0  0
 27 28  1  0  0  0  0
 27 29  1  0  0  0  0
 29 30  1  0  0  0  0
 29 31  1  0  0  0  0
 29 32  1  0  0  0  0
M  END
$$$$

  -OEChem-03222214073D

 32 32  0     1  0  0  0  0  0999 V2000
   -3.1131   -4.5289    1.1235 H   0  0  0  0  0  0  0  0  0  0  0  0
   -3.1234   -3.6594    0.4599 C   0  0  0  0  0  0  0  0  0  0  0  0
   -3.9850   -3.0356    0.7098 H   0  0  0  0  0  0  0  0  0  0  0  0
   -3.2200   -4.0065   -0.5718 H   0  0  0  0  0  0  0  0  0  0  0  0
   -1.8422   -2.8631    0.6215 C   0  0  0  0  0  0  0  0  0  0  0  0
   -1.0056   -3.2142    1.4337 O   0  0  0  0  0  0  0  0  0  0  0  0
   -1.6323   -1.7436   -0.1578 N   0  0  0  0  0  0  0  0  0  0  0  0
   -2.3201   -1.5538   -0.8839 H   0  0  0  0  0  0  0  0  0  0  0  0
   -0.3751   -0.9696   -0.1979 C   0  0  1  0  0  0  0  0  0  0  0  0
    0.4162   -1.6715   -0.4831 H   0  0  0  0  0  0  0  0  0  0  0  0
   -0.4203    0.1368   -1.2795 C   0  0  0  0  0  0  0  0  0  0  0  0
   -0.8005    1.0519   -0.8131 H   0  0  0  0  0  0  0  0  0  0  0  0
    0.6044    0.3465   -1.6041 H   0  0  0  0  0  0  0  0  0  0  0  0
   -1.2726   -0.1460   -2.5064 C   0  0  0  0  0  0  0  0  0  0  0  0
   -1.8816    0.9259   -3.1781 C   0  0  0  0  0  0  0  0  0  0  0  0
   -1.7988    1.9337   -2.7815 H   0  0  0  0  0  0  0  0  0  0  0  0
   -2.6081    0.7171   -4.3554 C   0  0  0  0  0  0  0  0  0  0  0  0
   -3.0887    1.5547   -4.8527 H   0  0  0  0  0  0  0  0  0  0  0  0
   -2.7041   -0.5658   -4.8998 C   0  0  0  0  0  0  0  0  0  0  0  0
   -3.2625   -0.7276   -5.8175 H   0  0  0  0  0  0  0  0  0  0  0  0
   -2.0574   -1.6348   -4.2751 C   0  0  0  0  0  0  0  0  0  0  0  0
   -2.1026   -2.6275   -4.7140 H   0  0  0  0  0  0  0  0  0  0  0  0
   -1.3333   -1.4227   -3.0976 C   0  0  0  0  0  0  0  0  0  0  0  0
   -0.8022   -2.2604   -2.6551 H   0  0  0  0  0  0  0  0  0  0  0  0
    0.0591   -0.3607    1.1512 C   0  0  0  0  0  0  0  0  0  0  0  0
    1.2501   -0.2157    1.3923 O   0  0  0  0  0  0  0  0  0  0  0  0
   -0.8725    0.2775    1.9502 N   0  0  0  0  0  0  0  0  0  0  0  0
   -1.8455    0.0603    1.7604 H   0  0  0  0  0  0  0  0  0  0  0  0
   -0.5276    0.8999    3.2219 C   0  0  0  0  0  0  0  0  0  0  0  0
    0.2329    1.6745    3.0770 H   0  0  0  0  0  0  0  0  0  0  0  0
   -1.4119    1.3660    3.6668 H   0  0  0  0  0  0  0  0  0  0  0  0
   -0.1395    0.1509    3.9202 H   0  0  0  0  0  0  0  0  0  0  0  0
  1  2  1  0  0  0  0
  2  3  1  0  0  0  0
  2  4  1  0  0  0  0
  2  5  1  0  0  0  0
  5  6  2  0  0  0  0
  5  7  1  0  0  0  0
  7  8  1  0  0  0  0
  7  9  1  0  0  0  0
  9 10  1  0  0  0  0
  9 11  1  0  0  0  0
  9 25  1  0  0  0  0
 11 12  1  0  0  0  0
 11 13  1  0  0  0  0
 11 14  1  0  0  0  0
 14 15  1  0  0  0  0
 14 23  2  0  0  0  0
 15 16  1  0  0  0  0
 15 17  2  0  0  0  0
 17 18  1  0  0  0  0
 17 19  1  0  0  0  0
 19 20  1  0  0  0  0
 19 21  2  0  0  0  0
 21 22  1  0  0  0  0
 21 23  1  0  0  0  0
 23 24  1  0  0  0  0
 25 26  2  0  0  0  0
 25 27  1  0  0  0  0
 27 28  1  0  0  0  0
 27 29  1  0  0  0  0
 29 30  1  0  0  0  0
 29 31  1  0  0  0  0
 29 32  1  0  0  0  0
M  END
$$$$

  -OEChem-03222214073D

 32 32  0     1  0  0  0  0  0999 V2000
   -3.0771   -4.5421    1.3001 H   0  0  0  0  0  0  0  0  0  0  0  0
   -3.1123   -3.6902    0.6149 C   0  0  0  0  0  0  0  0  0  0  0  0
   -3.9569   -3.0536    0.8888 H   0  0  0  0  0  0  0  0  0  0  0  0
   -3.2599   -4.0626   -0.4017 H   0  0  0  0  0  0  0  0  0  0  0  0
   -1.8190   -2.9007    0.6958 C   0  0  0  0  0  0  0  0  0  0  0  0
   -0.9403   -3.2478    1.4639 O   0  0  0  0  0  0  0  0  0  0  0  0
   -1.6456   -1.7906   -0.1058 N   0  0  0  0  0  0  0  0  0  0  0  0
   -2.3838   -1.5814   -0.7743 H   0  0  0  0  0  0  0  0  0  0  0  0
   -0.4046   -0.9957   -0.1892 C   0  0  1  0  0  0  0  0  0  0  0  0
    0.3904   -1.6927   -0.4770 H   0  0  0  0  0  0  0  0  0  0  0  0
   -0.4711    0.0924   -1.2898 C   0  0  0  0  0  0  0  0  0  0  0  0
   -0.8560    1.0078   -0.8275 H   0  0  0  0  0  0  0  0  0  0  0  0
    0.5532    0.3067   -1.6130 H   0  0  0  0  0  0  0  0  0  0  0  0
   -1.3189   -0.1663   -2.5286 C   0  0  0  0  0  0  0  0  0  0  0  0
   -1.6337    0.9324   -3.3453 C   0  0  0  0  0  0  0  0  0  0  0  0
   -1.3544    1.9350   -3.0341 H   0  0  0  0  0  0  0  0  0  0  0  0
   -2.3218    0.7670   -4.5516 C   0  0  0  0  0  0  0  0  0  0  0  0
   -2.5789    1.6344   -5.1528 H   0  0  0  0  0  0  0  0  0  0  0  0
   -2.6643   -0.5133   -4.9905 C   0  0  0  0  0  0  0  0  0  0  0  0
   -3.1930   -0.6445   -5.9304 H   0  0  0  0  0  0  0  0  0  0  0  0
   -2.2902   -1.6256   -4.2343 C   0  0  0  0  0  0  0  0  0  0  0  0
   -2.5112   -2.6254   -4.5974 H   0  0  0  0  0  0  0  0  0  0  0  0
   -1.6021   -1.4546   -3.0284 C   0  0  0  0  0  0  0  0  0  0  0  0
   -1.2613   -2.3458   -2.5116 H   0  0  0  0  0  0  0  0  0  0  0  0
    0.0449   -0.3590    1.1424 C   0  0  0  0  0  0  0  0  0  0  0  0
    1.2373   -0.1885    1.3588 O   0  0  0  0  0  0  0  0  0  0  0  0
   -0.8820    0.2736    1.9514 N   0  0  0  0  0  0  0  0  0  0  0  0
   -1.8562    0.0482    1.7787 H   0  0  0  0  0  0  0  0  0  0  0  0
   -0.5234    0.9295    3.2024 C   0  0  0  0  0  0  0  0  0  0  0  0
    0.2161    1.7176    3.0247 H   0  0  0  0  0  0  0  0  0  0  0  0
   -1.4081    1.3850    3.6573 H   0  0  0  0  0  0  0  0  0  0  0  0
   -0.1029    0.2042    3.9071 H   0  0  0  0  0  0  0  0  0  0  0  0
  1  2  1  0  0  0  0
  2  3  1  0  0  0  0
  2  4  1  0  0  0  0
  2  5  1  0  0  0  0
  5  6  2  0  0  0  0
  5  7  1  0  0  0  0
  7  8  1  0  0  0  0
  7  9  1  0  0  0  0
  9 10  1  0  0  0  0
  9 11  1  0  0  0  0
  9 25  1  0  0  0  0
 11 12  1  0  0  0  0
 11 13  1  0  0  0  0
 11 14  1  0  0  0  0
 14 15  1  0  0  0  0
 14 23  2  0  0  0  0
 15 16  1  0  0  0  0
 15 17  2  0  0  0  0
 17 18  1  0  0  0  0
 17 19  1  0  0  0  0
 19 20  1  0  0  0  0
 19 21  2  0  0  0  0
 21 22  1  0  0  0  0
 21 23  1  0  0  0  0
 23 24  1  0  0  0  0
 25 26  2  0  0  0  0
 25 27  1  0  0  0  0
 27 28  1  0  0  0  0
 27 29  1  0  0  0  0
 29 30  1  0  0  0  0
 29 31  1  0  0  0  0
 29 32  1  0  0  0  0
M  END
$$$$

  -OEChem-03222214073D

 32 32  0     1  0  0  0  0  0999 V2000
   -2.7430   -4.6575    1.6680 H   0  0  0  0  0  0  0  0  0  0  0  0
   -2.9078   -3.8337    0.9673 C   0  0  0  0  0  0  0  0  0  0  0  0
   -3.7163   -3.2057    1.3486 H   0  0  0  0  0  0  0  0  0  0  0  0
   -3.2015   -4.2494    0.0005 H   0  0  0  0  0  0  0  0  0  0  0  0
   -1.6381   -3.0166    0.8161 C   0  0  0  0  0  0  0  0  0  0  0  0
   -0.6311   -3.3454    1.4166 O   0  0  0  0  0  0  0  0  0  0  0  0
   -1.6319   -1.9019    0.0003 N   0  0  0  0  0  0  0  0  0  0  0  0
   -2.5135   -1.6329   -0.4266 H   0  0  0  0  0  0  0  0  0  0  0  0
   -0.4777   -1.0072   -0.1836 C   0  0  1  0  0  0  0  0  0  0  0  0
    0.3447   -1.6614   -0.4951 H   0  0  0  0  0  0  0  0  0  0  0  0
   -0.6105    0.0624   -1.3070 C   0  0  0  0  0  0  0  0  0  0  0  0
   -0.7567    1.0281   -0.8103 H   0  0  0  0  0  0  0  0  0  0  0  0
    0.3665    0.1151   -1.7995 H   0  0  0  0  0  0  0  0  0  0  0  0
   -1.6706    0.0172   -2.4101 C   0  0  0  0  0  0  0  0  0  0  0  0
   -1.6248    1.0850   -3.3254 C   0  0  0  0  0  0  0  0  0  0  0  0
   -0.9192    1.8960   -3.1691 H   0  0  0  0  0  0  0  0  0  0  0  0
   -2.4807    1.1502   -4.4285 C   0  0  0  0  0  0  0  0  0  0  0  0
   -2.4367    2.0022   -5.1006 H   0  0  0  0  0  0  0  0  0  0  0  0
   -3.3824    0.1153   -4.6707 C   0  0  0  0  0  0  0  0  0  0  0  0
   -4.0470    0.1588   -5.5289 H   0  0  0  0  0  0  0  0  0  0  0  0
   -3.4001   -0.9922   -3.8234 C   0  0  0  0  0  0  0  0  0  0  0  0
   -4.0686   -1.8208   -4.0384 H   0  0  0  0  0  0  0  0  0  0  0  0
   -2.5394   -1.0541   -2.7212 C   0  0  0  0  0  0  0  0  0  0  0  0
   -2.5554   -1.9844   -2.1738 H   0  0  0  0  0  0  0  0  0  0  0  0
    0.0063   -0.3336    1.1190 C   0  0  0  0  0  0  0  0  0  0  0  0
    1.1918   -0.0642    1.2586 O   0  0  0  0  0  0  0  0  0  0  0  0
   -0.9124    0.2150    1.9962 N   0  0  0  0  0  0  0  0  0  0  0  0
   -1.8810   -0.0587    1.8711 H   0  0  0  0  0  0  0  0  0  0  0  0
   -0.5273    0.9085    3.2188 C   0  0  0  0  0  0  0  0  0  0  0  0
    0.1091    1.7691    2.9876 H   0  0  0  0  0  0  0  0  0  0  0  0
   -1.4160    1.2696    3.7451 H   0  0  0  0  0  0  0  0  0  0  0  0
    0.0210    0.2333    3.8839 H   0  0  0  0  0  0  0  0  0  0  0  0
  1  2  1  0  0  0  0
  2  3  1  0  0  0  0
  2  4  1  0  0  0  0
  2  5  1  0  0  0  0
  5  6  2  0  0  0  0
  5  7  1  0  0  0  0
  7  8  1  0  0  0  0
  7  9  1  0  0  0  0
  9 10  1  0  0  0  0
  9 11  1  0  0  0  0
  9 25  1  0  0  0  0
 11 12  1  0  0  0  0
 11 13  1  0  0  0  0
 11 14  1  0  0  0  0
 14 15  1  0  0  0  0
 14 23  2  0  0  0  0
 15 16  1  0  0  0  0
 15 17  2  0  0  0  0
 17 18  1  0  0  0  0
 17 19  1  0  0  0  0
 19 20  1  0  0  0  0
 19 21  2  0  0  0  0
 21 22  1  0  0  0  0
 21 23  1  0  0  0  0
 23 24  1  0  0  0  0
 25 26  2  0  0  0  0
 25 27  1  0  0  0  0
 27 28  1  0  0  0  0
 27 29  1  0  0  0  0
 29 30  1  0  0  0  0
 29 31  1  0  0  0  0
 29 32  1  0  0  0  0
M  END
$$$$

  -OEChem-03222214073D

 32 32  0     1  0  0  0  0  0999 V2000
   -2.4519   -4.6682    1.8655 H   0  0  0  0  0  0  0  0  0  0  0  0
   -2.7015   -3.8606    1.1711 C   0  0  0  0  0  0  0  0  0  0  0  0
   -3.4716   -3.2328    1.6254 H   0  0  0  0  0  0  0  0  0  0  0  0
   -3.0934   -4.2987    0.2500 H   0  0  0  0  0  0  0  0  0  0  0  0
   -1.4657   -3.0344    0.8666 C   0  0  0  0  0  0  0  0  0  0  0  0
   -0.3990   -3.3291    1.3746 O   0  0  0  0  0  0  0  0  0  0  0  0
   -1.5630   -1.9426    0.0257 N   0  0  0  0  0  0  0  0  0  0  0  0
   -2.4949   -1.6760   -0.2657 H   0  0  0  0  0  0  0  0  0  0  0  0
   -0.4619   -1.0050   -0.2438 C   0  0  1  0  0  0  0  0  0  0  0  0
    0.3673   -1.6406   -0.5757 H   0  0  0  0  0  0  0  0  0  0  0  0
   -0.6632    0.0297   -1.3909 C   0  0  0  0  0  0  0  0  0  0  0  0
   -0.8224    1.0037   -0.9153 H   0  0  0  0  0  0  0  0  0  0  0  0
    0.3023    0.0946   -1.9047 H   0  0  0  0  0  0  0  0  0  0  0  0
   -1.7499   -0.0529   -2.4680 C   0  0  0  0  0  0  0  0  0  0  0  0
   -1.5430    0.7901   -3.5766 C   0  0  0  0  0  0  0  0  0  0  0  0
   -0.6621    1.4252   -3.6139 H   0  0  0  0  0  0  0  0  0  0  0  0
   -2.4438    0.8431   -4.6439 C   0  0  0  0  0  0  0  0  0  0  0  0
   -2.2527    1.5048   -5.4839 H   0  0  0  0  0  0  0  0  0  0  0  0
   -3.5867    0.0461   -4.6291 C   0  0  0  0  0  0  0  0  0  0  0  0
   -4.2885    0.0825   -5.4574 H   0  0  0  0  0  0  0  0  0  0  0  0
   -3.8220   -0.7973   -3.5436 C   0  0  0  0  0  0  0  0  0  0  0  0
   -4.7123   -1.4194   -3.5317 H   0  0  0  0  0  0  0  0  0  0  0  0
   -2.9195   -0.8469   -2.4743 C   0  0  0  0  0  0  0  0  0  0  0  0
   -3.1895   -1.5279   -1.6857 H   0  0  0  0  0  0  0  0  0  0  0  0
    0.0641   -0.2802    1.0142 C   0  0  0  0  0  0  0  0  0  0  0  0
    1.2420    0.0445    1.0796 O   0  0  0  0  0  0  0  0  0  0  0  0
   -0.8266    0.2504    1.9307 N   0  0  0  0  0  0  0  0  0  0  0  0
   -1.7920   -0.0517    1.8607 H   0  0  0  0  0  0  0  0  0  0  0  0
   -0.4080    1.0154    3.0986 C   0  0  0  0  0  0  0  0  0  0  0  0
    0.1543    1.9042    2.7935 H   0  0  0  0  0  0  0  0  0  0  0  0
   -1.2819    1.3405    3.6709 H   0  0  0  0  0  0  0  0  0  0  0  0
    0.2258    0.4039    3.7493 H   0  0  0  0  0  0  0  0  0  0  0  0
  1  2  1  0  0  0  0
  2  3  1  0  0  0  0
  2  4  1  0  0  0  0
  2  5  1  0  0  0  0
  5  6  2  0  0  0  0
  5  7  1  0  0  0  0
  7  8  1  0  0  0  0
  7  9  1  0  0  0  0
  9 10  1  0  0  0  0
  9 11  1  0  0  0  0
  9 25  1  0  0  0  0
 11 12  1  0  0  0  0
 11 13  1  0  0  0  0
 11 14  1  0  0  0  0
 14 15  1  0  0  0  0
 14 23  2  0  0  0  0
 15 16  1  0  0  0  0
 15 17  2  0  0  0  0
 17 18  1  0  0  0  0
 17 19  1  0  0  0  0
 19 20  1  0  0  0  0
 19 21  2  0  0  0  0
 21 22  1  0  0  0  0
 21 23  1  0  0  0  0
 23 24  1  0  0  0  0
 25 26  2  0  0  0  0
 25 27  1  0  0  0  0
 27 28  1  0  0  0  0
 27 29  1  0  0  0  0
 29 30  1  0  0  0  0
 29 31  1  0  0  0  0
 29 32  1  0  0  0  0
M  END
$$$$

  -OEChem-03222214073D

 32 32  0     1  0  0  0  0  0999 V2000
   -2.3442   -4.9054    1.3211 H   0  0  0  0  0  0  0  0  0  0  0  0
   -2.5381   -4.0865    0.6226 C   0  0  0  0  0  0  0  0  0  0  0  0
   -3.5214   -3.6635    0.8406 H   0  0  0  0  0  0  0  0  0  0  0  0
   -2.5377   -4.4861   -0.3944 H   0  0  0  0  0  0  0  0  0  0  0  0
   -1.4702   -3.0175    0.7611 C   0  0  0  0  0  0  0  0  0  0  0  0
   -0.5915   -3.1443    1.5946 O   0  0  0  0  0  0  0  0  0  0  0  0
   -1.5084   -1.9097   -0.0635 N   0  0  0  0  0  0  0  0  0  0  0  0
   -2.1502   -1.9804   -0.8483 H   0  0  0  0  0  0  0  0  0  0  0  0
   -0.3902   -0.9622   -0.2211 C   0  0  1  0  0  0  0  0  0  0  0  0
    0.4696   -1.5679   -0.5283 H   0  0  0  0  0  0  0  0  0  0  0  0
   -0.5806    0.1238   -1.3228 C   0  0  0  0  0  0  0  0  0  0  0  0
   -0.7763    1.0817   -0.8284 H   0  0  0  0  0  0  0  0  0  0  0  0
    0.3855    0.2316   -1.8271 H   0  0  0  0  0  0  0  0  0  0  0  0
   -1.6733   -0.0185   -2.3790 C   0  0  0  0  0  0  0  0  0  0  0  0
   -1.4247    0.5435   -3.6443 C   0  0  0  0  0  0  0  0  0  0  0  0
   -0.4426    0.9477   -3.8735 H   0  0  0  0  0  0  0  0  0  0  0  0
   -2.4053    0.5669   -4.6413 C   0  0  0  0  0  0  0  0  0  0  0  0
   -2.1710    0.9689   -5.6230 H   0  0  0  0  0  0  0  0  0  0  0  0
   -3.6866    0.0866   -4.3706 C   0  0  0  0  0  0  0  0  0  0  0  0
   -4.4506    0.1055   -5.1425 H   0  0  0  0  0  0  0  0  0  0  0  0
   -3.9909   -0.3762   -3.0901 C   0  0  0  0  0  0  0  0  0  0  0  0
   -5.0037   -0.6927   -2.8582 H   0  0  0  0  0  0  0  0  0  0  0  0
   -3.0049   -0.3961   -2.0976 C   0  0  0  0  0  0  0  0  0  0  0  0
   -3.3247   -0.6600   -1.0969 H   0  0  0  0  0  0  0  0  0  0  0  0
    0.0360   -0.2597    1.0871 C   0  0  0  0  0  0  0  0  0  0  0  0
    1.2055    0.0686    1.2401 O   0  0  0  0  0  0  0  0  0  0  0  0
   -0.9247    0.2520    1.9406 N   0  0  0  0  0  0  0  0  0  0  0  0
   -1.8620   -0.1201    1.8272 H   0  0  0  0  0  0  0  0  0  0  0  0
   -0.5915    0.9443    3.1789 C   0  0  0  0  0  0  0  0  0  0  0  0
    0.0499    1.8083    2.9758 H   0  0  0  0  0  0  0  0  0  0  0  0
   -1.5018    1.3012    3.6697 H   0  0  0  0  0  0  0  0  0  0  0  0
   -0.0672    0.2696    3.8636 H   0  0  0  0  0  0  0  0  0  0  0  0
  1  2  1  0  0  0  0
  2  3  1  0  0  0  0
  2  4  1  0  0  0  0
  2  5  1  0  0  0  0
  5  6  2  0  0  0  0
  5  7  1  0  0  0  0
  7  8  1  0  0  0  0
  7  9  1  0  0  0  0
  9 10  1  0  0  0  0
  9 11  1  0  0  0  0
  9 25  1  0  0  0  0
 11 12  1  0  0  0  0
 11 13  1  0  0  0  0
 11 14  1  0  0  0  0
 14 15  1  0  0  0  0
 14 23  2  0  0  0  0
 15 16  1  0  0  0  0
 15 17  2  0  0  0  0
 17 18  1  0  0  0  0
 17 19  1  0  0  0  0
 19 20  1  0  0  0  0
 19 21  2  0  0  0  0
 21 22  1  0  0  0  0
 21 23  1  0  0  0  0
 23 24  1  0  0  0  0
 25 26  2  0  0  0  0
 25 27  1  0  0  0  0
 27 28  1  0  0  0  0
 27 29  1  0  0  0  0
 29 30  1  0  0  0  0
 29 31  1  0  0  0  0
 29 32  1  0  0  0  0
M  END
$$$$

  -OEChem-03222214073D

 32 32  0     1  0  0  0  0  0999 V2000
   -2.7926   -4.7530    1.2272 H   0  0  0  0  0  0  0  0  0  0  0  0
   -2.8890   -3.9044    0.5439 C   0  0  0  0  0  0  0  0  0  0  0  0
   -3.8227   -3.3811    0.7628 H   0  0  0  0  0  0  0  0  0  0  0  0
   -2.9220   -4.2823   -0.4810 H   0  0  0  0  0  0  0  0  0  0  0  0
   -1.7123   -2.9615    0.7139 C   0  0  0  0  0  0  0  0  0  0  0  0
   -0.8743   -3.1881    1.5680 O   0  0  0  0  0  0  0  0  0  0  0  0
   -1.6077   -1.8477   -0.0959 N   0  0  0  0  0  0  0  0  0  0  0  0
   -2.2470   -1.8170   -0.8867 H   0  0  0  0  0  0  0  0  0  0  0  0
   -0.3992   -1.0067   -0.1952 C   0  0  1  0  0  0  0  0  0  0  0  0
    0.4143   -1.6831   -0.4801 H   0  0  0  0  0  0  0  0  0  0  0  0
   -0.4710    0.0904   -1.2957 C   0  0  0  0  0  0  0  0  0  0  0  0
   -0.6150    1.0633   -0.8129 H   0  0  0  0  0  0  0  0  0  0  0  0
    0.5085    0.1311   -1.7833 H   0  0  0  0  0  0  0  0  0  0  0  0
   -1.5618   -0.0243   -2.3503 C   0  0  0  0  0  0  0  0  0  0  0  0
   -1.2268    0.1779   -3.6995 C   0  0  0  0  0  0  0  0  0  0  0  0
   -0.1876    0.3072   -3.9883 H   0  0  0  0  0  0  0  0  0  0  0  0
   -2.2098    0.1923   -4.6945 C   0  0  0  0  0  0  0  0  0  0  0  0
   -1.9258    0.3177   -5.7354 H   0  0  0  0  0  0  0  0  0  0  0  0
   -3.5562    0.0597   -4.3489 C   0  0  0  0  0  0  0  0  0  0  0  0
   -4.3206    0.0762   -5.1206 H   0  0  0  0  0  0  0  0  0  0  0  0
   -3.9172   -0.0576   -3.0052 C   0  0  0  0  0  0  0  0  0  0  0  0
   -4.9667   -0.1116   -2.7305 H   0  0  0  0  0  0  0  0  0  0  0  0
   -2.9299   -0.0723   -2.0145 C   0  0  0  0  0  0  0  0  0  0  0  0
   -3.2428   -0.0885   -0.9752 H   0  0  0  0  0  0  0  0  0  0  0  0
    0.0413   -0.3547    1.1334 C   0  0  0  0  0  0  0  0  0  0  0  0
    1.2296   -0.1368    1.3306 O   0  0  0  0  0  0  0  0  0  0  0  0
   -0.8983    0.2412    1.9555 N   0  0  0  0  0  0  0  0  0  0  0  0
   -1.8602   -0.0477    1.8108 H   0  0  0  0  0  0  0  0  0  0  0  0
   -0.5457    0.8932    3.2103 C   0  0  0  0  0  0  0  0  0  0  0  0
    0.1790    1.6957    3.0366 H   0  0  0  0  0  0  0  0  0  0  0  0
   -1.4358    1.3297    3.6732 H   0  0  0  0  0  0  0  0  0  0  0  0
   -0.1093    0.1694    3.9064 H   0  0  0  0  0  0  0  0  0  0  0  0
  1  2  1  0  0  0  0
  2  3  1  0  0  0  0
  2  4  1  0  0  0  0
  2  5  1  0  0  0  0
  5  6  2  0  0  0  0
  5  7  1  0  0  0  0
  7  8  1  0  0  0  0
  7  9  1  0  0  0  0
  9 10  1  0  0  0  0
  9 11  1  0  0  0  0
  9 25  1  0  0  0  0
 11 12  1  0  0  0  0
 11 13  1  0  0  0  0
 11 14  1  0  0  0  0
 14 15  1  0  0  0  0
 14 23  2  0  0  0  0
 15 16  1  0  0  0  0
 15 17  2  0  0  0  0
 17 18  1  0  0  0  0
 17 19  1  0  0  0  0
 19 20  1  0  0  0  0
 19 21  2  0  0  0  0
 21 22  1  0  0  0  0
 21 23  1  0  0  0  0
 23 24  1  0  0  0  0
 25 26  2  0  0  0  0
 25 27  1  0  0  0  0
 27 28  1  0  0  0  0
 27 29  1  0  0  0  0
 29 30  1  0  0  0  0
 29 31  1  0  0  0  0
 29 32  1  0  0  0  0
M  END
$$$$

  -OEChem-03222214073D

 32 32  0     1  0  0  0  0  0999 V2000
   -2.9115   -4.6791    1.1144 H   0  0  0  0  0  0  0  0  0  0  0  0
   -2.9734   -3.8116    0.4509 C   0  0  0  0  0  0  0  0  0  0  0  0
   -3.8901   -3.2609    0.6746 H   0  0  0  0  0  0  0  0  0  0  0  0
   -3.0097   -4.1627   -0.5832 H   0  0  0  0  0  0  0  0  0  0  0  0
   -1.7673   -2.9136    0.6510 C   0  0  0  0  0  0  0  0  0  0  0  0
   -0.9419   -3.1872    1.5039 O   0  0  0  0  0  0  0  0  0  0  0  0
   -1.6202   -1.7873   -0.1336 N   0  0  0  0  0  0  0  0  0  0  0  0
   -2.2675   -1.6998   -0.9143 H   0  0  0  0  0  0  0  0  0  0  0  0
   -0.3890   -0.9755   -0.1989 C   0  0  1  0  0  0  0  0  0  0  0  0
    0.4120   -1.6642   -0.4901 H   0  0  0  0  0  0  0  0  0  0  0  0
   -0.4403    0.1359   -1.2819 C   0  0  0  0  0  0  0  0  0  0  0  0
   -0.5759    1.1061   -0.7915 H   0  0  0  0  0  0  0  0  0  0  0  0
    0.5361    0.1745   -1.7762 H   0  0  0  0  0  0  0  0  0  0  0  0
   -1.5417    0.0093   -2.3188 C   0  0  0  0  0  0  0  0  0  0  0  0
   -1.2138   -0.1119   -3.6781 C   0  0  0  0  0  0  0  0  0  0  0  0
   -0.1740   -0.1834   -3.9844 H   0  0  0  0  0  0  0  0  0  0  0  0
   -2.2153   -0.1568   -4.6541 C   0  0  0  0  0  0  0  0  0  0  0  0
   -1.9482   -0.2713   -5.7010 H   0  0  0  0  0  0  0  0  0  0  0  0
   -3.5583   -0.0435   -4.2850 C   0  0  0  0  0  0  0  0  0  0  0  0
   -4.3347   -0.0735   -5.0441 H   0  0  0  0  0  0  0  0  0  0  0  0
   -3.8972    0.1323   -2.9409 C   0  0  0  0  0  0  0  0  0  0  0  0
   -4.9387    0.2524   -2.6566 H   0  0  0  0  0  0  0  0  0  0  0  0
   -2.8937    0.1739   -1.9672 C   0  0  0  0  0  0  0  0  0  0  0  0
   -3.1675    0.3504   -0.9310 H   0  0  0  0  0  0  0  0  0  0  0  0
    0.0528   -0.3586    1.1455 C   0  0  0  0  0  0  0  0  0  0  0  0
    1.2439   -0.1723    1.3579 O   0  0  0  0  0  0  0  0  0  0  0  0
   -0.8798    0.2477    1.9681 N   0  0  0  0  0  0  0  0  0  0  0  0
   -1.8467   -0.0177    1.8122 H   0  0  0  0  0  0  0  0  0  0  0  0
   -0.5222    0.8726    3.2355 C   0  0  0  0  0  0  0  0  0  0  0  0
    0.2169    1.6652    3.0779 H   0  0  0  0  0  0  0  0  0  0  0  0
   -1.4070    1.3161    3.7018 H   0  0  0  0  0  0  0  0  0  0  0  0
   -0.1014    0.1306    3.9222 H   0  0  0  0  0  0  0  0  0  0  0  0
  1  2  1  0  0  0  0
  2  3  1  0  0  0  0
  2  4  1  0  0  0  0
  2  5  1  0  0  0  0
  5  6  2  0  0  0  0
  5  7  1  0  0  0  0
  7  8  1  0  0  0  0
  7  9  1  0  0  0  0
  9 10  1  0  0  0  0
  9 11  1  0  0  0  0
  9 25  1  0  0  0  0
 11 12  1  0  0  0  0
 11 13  1  0  0  0  0
 11 14  1  0  0  0  0
 14 15  1  0  0  0  0
 14 23  2  0  0  0  0
 15 16  1  0  0  0  0
 15 17  2  0  0  0  0
 17 18  1  0  0  0  0
 17 19  1  0  0  0  0
 19 20  1  0  0  0  0
 19 21  2  0  0  0  0
 21 22  1  0  0  0  0
 21 23  1  0  0  0  0
 23 24  1  0  0  0  0
 25 26  2  0  0  0  0
 25 27  1  0  0  0  0
 27 28  1  0  0  0  0
 27 29  1  0  0  0  0
 29 30  1  0  0  0  0
 29 31  1  0  0  0  0
 29 32  1  0  0  0  0
M  END
$$$$

  -OEChem-03222214073D

 32 32  0     1  0  0  0  0  0999 V2000
   -3.0243   -4.5886    1.0242 H   0  0  0  0  0  0  0  0  0  0  0  0
   -3.0512   -3.7080    0.3761 C   0  0  0  0  0  0  0  0  0  0  0  0
   -3.9428   -3.1228    0.6134 H   0  0  0  0  0  0  0  0  0  0  0  0
   -3.1059   -4.0386   -0.6639 H   0  0  0  0  0  0  0  0  0  0  0  0
   -1.8067   -2.8665    0.5869 C   0  0  0  0  0  0  0  0  0  0  0  0
   -0.9914   -3.1881    1.4326 O   0  0  0  0  0  0  0  0  0  0  0  0
   -1.6152   -1.7329   -0.1763 N   0  0  0  0  0  0  0  0  0  0  0  0
   -2.2700   -1.5893   -0.9427 H   0  0  0  0  0  0  0  0  0  0  0  0
   -0.3649   -0.9474   -0.2116 C   0  0  1  0  0  0  0  0  0  0  0  0
    0.4278   -1.6437   -0.5072 H   0  0  0  0  0  0  0  0  0  0  0  0
   -0.4023    0.1790   -1.2766 C   0  0  0  0  0  0  0  0  0  0  0  0
   -0.5270    1.1464   -0.7781 H   0  0  0  0  0  0  0  0  0  0  0  0
    0.5687    0.2150   -1.7816 H   0  0  0  0  0  0  0  0  0  0  0  0
   -1.5145    0.0464   -2.2972 C   0  0  0  0  0  0  0  0  0  0  0  0
   -1.2310   -0.3828   -3.6019 C   0  0  0  0  0  0  0  0  0  0  0  0
   -0.2140   -0.6442   -3.8811 H   0  0  0  0  0  0  0  0  0  0  0  0
   -2.2516   -0.4867   -4.5532 C   0  0  0  0  0  0  0  0  0  0  0  0
   -2.0222   -0.8254   -5.5595 H   0  0  0  0  0  0  0  0  0  0  0  0
   -3.5643   -0.1483   -4.2117 C   0  0  0  0  0  0  0  0  0  0  0  0
   -4.3556   -0.2268   -4.9518 H   0  0  0  0  0  0  0  0  0  0  0  0
   -3.8541    0.3045   -2.9213 C   0  0  0  0  0  0  0  0  0  0  0  0
   -4.8708    0.5843   -2.6604 H   0  0  0  0  0  0  0  0  0  0  0  0
   -2.8324    0.4095   -1.9718 C   0  0  0  0  0  0  0  0  0  0  0  0
   -3.0634    0.7789   -0.9766 H   0  0  0  0  0  0  0  0  0  0  0  0
    0.0694   -0.3592    1.1472 C   0  0  0  0  0  0  0  0  0  0  0  0
    1.2604   -0.2027    1.3831 O   0  0  0  0  0  0  0  0  0  0  0  0
   -0.8650    0.2554    1.9611 N   0  0  0  0  0  0  0  0  0  0  0  0
   -1.8336    0.0104    1.7837 H   0  0  0  0  0  0  0  0  0  0  0  0
   -0.5183    0.8466    3.2473 C   0  0  0  0  0  0  0  0  0  0  0  0
    0.2415    1.6250    3.1203 H   0  0  0  0  0  0  0  0  0  0  0  0
   -1.4018    1.3011    3.7053 H   0  0  0  0  0  0  0  0  0  0  0  0
   -0.1280    0.0811    3.9263 H   0  0  0  0  0  0  0  0  0  0  0  0
  1  2  1  0  0  0  0
  2  3  1  0  0  0  0
  2  4  1  0  0  0  0
  2  5  1  0  0  0  0
  5  6  2  0  0  0  0
  5  7  1  0  0  0  0
  7  8  1  0  0  0  0
  7  9  1  0  0  0  0
  9 10  1  0  0  0  0
  9 11  1  0  0  0  0
  9 25  1  0  0  0  0
 11 12  1  0  0  0  0
 11 13  1  0  0  0  0
 11 14  1  0  0  0  0
 14 15  1  0  0  0  0
 14 23  2  0  0  0  0
 15 16  1  0  0  0  0
 15 17  2  0  0  0  0
 17 18  1  0  0  0  0
 17 19  1  0  0  0  0
 19 20  1  0  0  0  0
 19 21  2  0  0  0  0
 21 22  1  0  0  0  0
 21 23  1  0  0  0  0
 23 24  1  0  0  0  0
 25 26  2  0  0  0  0
 25 27  1  0  0  0  0
 27 28  1  0  0  0  0
 27 29  1  0  0  0  0
 29 30  1  0  0  0  0
 29 31  1  0  0  0  0
 29 32  1  0  0  0  0
M  END
$$$$

  -OEChem-03222214073D

 32 32  0     1  0  0  0  0  0999 V2000
   -3.0855   -4.5358    0.9740 H   0  0  0  0  0  0  0  0  0  0  0  0
   -3.0935   -3.6505    0.3317 C   0  0  0  0  0  0  0  0  0  0  0  0
   -3.9734   -3.0490    0.5716 H   0  0  0  0  0  0  0  0  0  0  0  0
   -3.1539   -3.9731   -0.7105 H   0  0  0  0  0  0  0  0  0  0  0  0
   -1.8320   -2.8361    0.5486 C   0  0  0  0  0  0  0  0  0  0  0  0
   -1.0163   -3.1884    1.3817 O   0  0  0  0  0  0  0  0  0  0  0  0
   -1.6182   -1.6975   -0.2011 N   0  0  0  0  0  0  0  0  0  0  0  0
   -2.2811   -1.5158   -0.9526 H   0  0  0  0  0  0  0  0  0  0  0  0
   -0.3569   -0.9284   -0.2202 C   0  0  1  0  0  0  0  0  0  0  0  0
    0.4292   -1.6308   -0.5189 H   0  0  0  0  0  0  0  0  0  0  0  0
   -0.3804    0.2052   -1.2760 C   0  0  0  0  0  0  0  0  0  0  0  0
   -0.4916    1.1724   -0.7738 H   0  0  0  0  0  0  0  0  0  0  0  0
    0.5866    0.2304   -1.7890 H   0  0  0  0  0  0  0  0  0  0  0  0
   -1.4958    0.0714   -2.2899 C   0  0  0  0  0  0  0  0  0  0  0  0
   -1.2887   -0.6431   -3.4783 C   0  0  0  0  0  0  0  0  0  0  0  0
   -0.3220   -1.0966   -3.6793 H   0  0  0  0  0  0  0  0  0  0  0  0
   -2.3226   -0.7833   -4.4100 C   0  0  0  0  0  0  0  0  0  0  0  0
   -2.1533   -1.3389   -5.3279 H   0  0  0  0  0  0  0  0  0  0  0  0
   -3.5709   -0.2044   -4.1625 C   0  0  0  0  0  0  0  0  0  0  0  0
   -4.3714   -0.3084   -4.8894 H   0  0  0  0  0  0  0  0  0  0  0  0
   -3.7845    0.5158   -2.9834 C   0  0  0  0  0  0  0  0  0  0  0  0
   -4.7516    0.9734   -2.7949 H   0  0  0  0  0  0  0  0  0  0  0  0
   -2.7503    0.6546   -2.0518 C   0  0  0  0  0  0  0  0  0  0  0  0
   -2.9232    1.2204   -1.1407 H   0  0  0  0  0  0  0  0  0  0  0  0
    0.0754   -0.3596    1.1470 C   0  0  0  0  0  0  0  0  0  0  0  0
    1.2665   -0.2211    1.3927 O   0  0  0  0  0  0  0  0  0  0  0  0
   -0.8569    0.2594    1.9602 N   0  0  0  0  0  0  0  0  0  0  0  0
   -1.8279    0.0341    1.7695 H   0  0  0  0  0  0  0  0  0  0  0  0
   -0.5136    0.8324    3.2556 C   0  0  0  0  0  0  0  0  0  0  0  0
    0.2525    1.6068    3.1431 H   0  0  0  0  0  0  0  0  0  0  0  0
   -1.3968    1.2879    3.7133 H   0  0  0  0  0  0  0  0  0  0  0  0
   -0.1336    0.0558    3.9278 H   0  0  0  0  0  0  0  0  0  0  0  0
  1  2  1  0  0  0  0
  2  3  1  0  0  0  0
  2  4  1  0  0  0  0
  2  5  1  0  0  0  0
  5  6  2  0  0  0  0
  5  7  1  0  0  0  0
  7  8  1  0  0  0  0
  7  9  1  0  0  0  0
  9 10  1  0  0  0  0
  9 11  1  0  0  0  0
  9 25  1  0  0  0  0
 11 12  1  0  0  0  0
 11 13  1  0  0  0  0
 11 14  1  0  0  0  0
 14 15  1  0  0  0  0
 14 23  2  0  0  0  0
 15 16  1  0  0  0  0
 15 17  2  0  0  0  0
 17 18  1  0  0  0  0
 17 19  1  0  0  0  0
 19 20  1  0  0  0  0
 19 21  2  0  0  0  0
 21 22  1  0  0  0  0
 21 23  1  0  0  0  0
 23 24  1  0  0  0  0
 25 26  2  0  0  0  0
 25 27  1  0  0  0  0
 27 28  1  0  0  0  0
 27 29  1  0  0  0  0
 29 30  1  0  0  0  0
 29 31  1  0  0  0  0
 29 32  1  0  0  0  0
M  END
$$$$

  -OEChem-03222214073D

 32 32  0     1  0  0  0  0  0999 V2000
   -3.1129   -4.5082    0.9630 H   0  0  0  0  0  0  0  0  0  0  0  0
   -3.1121   -3.6200    0.3248 C   0  0  0  0  0  0  0  0  0  0  0  0
   -3.9795   -3.0048    0.5755 H   0  0  0  0  0  0  0  0  0  0  0  0
   -3.1876   -3.9366   -0.7183 H   0  0  0  0  0  0  0  0  0  0  0  0
   -1.8355   -2.8274    0.5329 C   0  0  0  0  0  0  0  0  0  0  0  0
   -1.0148   -3.1988    1.3528 O   0  0  0  0  0  0  0  0  0  0  0  0
   -1.6127   -1.6877   -0.2123 N   0  0  0  0  0  0  0  0  0  0  0  0
   -2.2858   -1.4835   -0.9489 H   0  0  0  0  0  0  0  0  0  0  0  0
   -0.3486   -0.9233   -0.2248 C   0  0  1  0  0  0  0  0  0  0  0  0
    0.4370   -1.6265   -0.5231 H   0  0  0  0  0  0  0  0  0  0  0  0
   -0.3696    0.2139   -1.2769 C   0  0  0  0  0  0  0  0  0  0  0  0
   -0.4719    1.1793   -0.7695 H   0  0  0  0  0  0  0  0  0  0  0  0
    0.5950    0.2355   -1.7944 H   0  0  0  0  0  0  0  0  0  0  0  0
   -1.4842    0.0849   -2.2930 C   0  0  0  0  0  0  0  0  0  0  0  0
   -1.3947   -0.8671   -3.3196 C   0  0  0  0  0  0  0  0  0  0  0  0
   -0.5112   -1.4941   -3.4023 H   0  0  0  0  0  0  0  0  0  0  0  0
   -2.4368   -1.0186   -4.2400 C   0  0  0  0  0  0  0  0  0  0  0  0
   -2.3568   -1.7557   -5.0341 H   0  0  0  0  0  0  0  0  0  0  0  0
   -3.5782   -0.2177   -4.1407 C   0  0  0  0  0  0  0  0  0  0  0  0
   -4.3852   -0.3300   -4.8592 H   0  0  0  0  0  0  0  0  0  0  0  0
   -3.6769    0.7333   -3.1205 C   0  0  0  0  0  0  0  0  0  0  0  0
   -4.5616    1.3596   -3.0458 H   0  0  0  0  0  0  0  0  0  0  0  0
   -2.6345    0.8829   -2.1996 C   0  0  0  0  0  0  0  0  0  0  0  0
   -2.7229    1.6243   -1.4105 H   0  0  0  0  0  0  0  0  0  0  0  0
    0.0782   -0.3606    1.1467 C   0  0  0  0  0  0  0  0  0  0  0  0
    1.2682   -0.2329    1.4031 O   0  0  0  0  0  0  0  0  0  0  0  0
   -0.8563    0.2588    1.9569 N   0  0  0  0  0  0  0  0  0  0  0  0
   -1.8281    0.0495    1.7522 H   0  0  0  0  0  0  0  0  0  0  0  0
   -0.5202    0.8225    3.2583 C   0  0  0  0  0  0  0  0  0  0  0  0
    0.2555    1.5890    3.1571 H   0  0  0  0  0  0  0  0  0  0  0  0
   -1.4029    1.2855    3.7093 H   0  0  0  0  0  0  0  0  0  0  0  0
   -0.1553    0.0389    3.9307 H   0  0  0  0  0  0  0  0  0  0  0  0
  1  2  1  0  0  0  0
  2  3  1  0  0  0  0
  2  4  1  0  0  0  0
  2  5  1  0  0  0  0
  5  6  2  0  0  0  0
  5  7  1  0  0  0  0
  7  8  1  0  0  0  0
  7  9  1  0  0  0  0
  9 10  1  0  0  0  0
  9 11  1  0  0  0  0
  9 25  1  0  0  0  0
 11 12  1  0  0  0  0
 11 13  1  0  0  0  0
 11 14  1  0  0  0  0
 14 15  1  0  0  0  0
 14 23  2  0  0  0  0
 15 16  1  0  0  0  0
 15 17  2  0  0  0  0
 17 18  1  0  0  0  0
 17 19  1  0  0  0  0
 19 20  1  0  0  0  0
 19 21  2  0  0  0  0
 21 22  1  0  0  0  0
 21 23  1  0  0  0  0
 23 24  1  0  0  0  0
 25 26  2  0  0  0  0
 25 27  1  0  0  0  0
 27 28  1  0  0  0  0
 27 29  1  0  0  0  0
 29 30  1  0  0  0  0
 29 31  1  0  0  0  0
 29 32  1  0  0  0  0
M  END
$$$$

  -OEChem-03222214073D

 32 32  0     1  0  0  0  0  0999 V2000
   -3.0917   -4.5185    1.0152 H   0  0  0  0  0  0  0  0  0  0  0  0
   -3.1014   -3.6316    0.3751 C   0  0  0  0  0  0  0  0  0  0  0  0
   -3.9559   -3.0083    0.6494 H   0  0  0  0  0  0  0  0  0  0  0  0
   -3.2088   -3.9493   -0.6649 H   0  0  0  0  0  0  0  0  0  0  0  0
   -1.8131   -2.8494    0.5467 C   0  0  0  0  0  0  0  0  0  0  0  0
   -0.9707   -3.2299    1.3399 O   0  0  0  0  0  0  0  0  0  0  0  0
   -1.6039   -1.7086   -0.2004 N   0  0  0  0  0  0  0  0  0  0  0  0
   -2.3016   -1.4869   -0.9084 H   0  0  0  0  0  0  0  0  0  0  0  0
   -0.3489   -0.9300   -0.2196 C   0  0  1  0  0  0  0  0  0  0  0  0
    0.4441   -1.6250   -0.5171 H   0  0  0  0  0  0  0  0  0  0  0  0
   -0.3814    0.2041   -1.2769 C   0  0  0  0  0  0  0  0  0  0  0  0
   -0.4865    1.1667   -0.7653 H   0  0  0  0  0  0  0  0  0  0  0  0
    0.5842    0.2301   -1.7923 H   0  0  0  0  0  0  0  0  0  0  0  0
   -1.4871    0.0854   -2.3087 C   0  0  0  0  0  0  0  0  0  0  0  0
   -1.5602   -1.0373   -3.1505 C   0  0  0  0  0  0  0  0  0  0  0  0
   -0.8009   -1.8121   -3.0869 H   0  0  0  0  0  0  0  0  0  0  0  0
   -2.5998   -1.1672   -4.0767 C   0  0  0  0  0  0  0  0  0  0  0  0
   -2.6431   -2.0365   -4.7266 H   0  0  0  0  0  0  0  0  0  0  0  0
   -3.5791   -0.1745   -4.1711 C   0  0  0  0  0  0  0  0  0  0  0  0
   -4.3845   -0.2715   -4.8940 H   0  0  0  0  0  0  0  0  0  0  0  0
   -3.5166    0.9472   -3.3391 C   0  0  0  0  0  0  0  0  0  0  0  0
   -4.2753    1.7211   -3.4145 H   0  0  0  0  0  0  0  0  0  0  0  0
   -2.4762    1.0756   -2.4123 C   0  0  0  0  0  0  0  0  0  0  0  0
   -2.4422    1.9527   -1.7725 H   0  0  0  0  0  0  0  0  0  0  0  0
    0.0749   -0.3606    1.1504 C   0  0  0  0  0  0  0  0  0  0  0  0
    1.2639   -0.2239    1.4068 O   0  0  0  0  0  0  0  0  0  0  0  0
   -0.8647    0.2490    1.9625 N   0  0  0  0  0  0  0  0  0  0  0  0
   -1.8356    0.0407    1.7525 H   0  0  0  0  0  0  0  0  0  0  0  0
   -0.5355    0.8211    3.2619 C   0  0  0  0  0  0  0  0  0  0  0  0
    0.2566    1.5709    3.1634 H   0  0  0  0  0  0  0  0  0  0  0  0
   -1.4152    1.3070    3.6941 H   0  0  0  0  0  0  0  0  0  0  0  0
   -0.1961    0.0386    3.9488 H   0  0  0  0  0  0  0  0  0  0  0  0
  1  2  1  0  0  0  0
  2  3  1  0  0  0  0
  2  4  1  0  0  0  0
  2  5  1  0  0  0  0
  5  6  2  0  0  0  0
  5  7  1  0  0  0  0
  7  8  1  0  0  0  0
  7  9  1  0  0  0  0
  9 10  1  0  0  0  0
  9 11  1  0  0  0  0
  9 25  1  0  0  0  0
 11 12  1  0  0  0  0
 11 13  1  0  0  0  0
 11 14  1  0  0  0  0
 14 15  1  0  0  0  0
 14 23  2  0  0  0  0
 15 16  1  0  0  0  0
 15 17  2  0  0  0  0
 17 18  1  0  0  0  0
 17 19  1  0  0  0  0
 19 20  1  0  0  0  0
 19 21  2  0  0  0  0
 21 22  1  0  0  0  0
 21 23  1  0  0  0  0
 23 24  1  0  0  0  0
 25 26  2  0  0  0  0
 25 27  1  0  0  0  0
 27 28  1  0  0  0  0
 27 29  1  0  0  0  0
 29 30  1  0  0  0  0
 29 31  1  0  0  0  0
 29 32  1  0  0  0  0
M  END
$$$$

  -OEChem-03222214073D

 32 32  0     1  0  0  0  0  0999 V2000
   -3.0315   -4.5585    1.1364 H   0  0  0  0  0  0  0  0  0  0  0  0
   -3.0626   -3.6850    0.4789 C   0  0  0  0  0  0  0  0  0  0  0  0
   -3.9142   -3.0617    0.7616 H   0  0  0  0  0  0  0  0  0  0  0  0
   -3.1937   -4.0250   -0.5513 H   0  0  0  0  0  0  0  0  0  0  0  0
   -1.7754   -2.8920    0.6026 C   0  0  0  0  0  0  0  0  0  0  0  0
   -0.9046   -3.2600    1.3703 O   0  0  0  0  0  0  0  0  0  0  0  0
   -1.5982   -1.7568   -0.1617 N   0  0  0  0  0  0  0  0  0  0  0  0
   -2.3322   -1.5276   -0.8290 H   0  0  0  0  0  0  0  0  0  0  0  0
   -0.3625   -0.9503   -0.2060 C   0  0  1  0  0  0  0  0  0  0  0  0
    0.4412   -1.6365   -0.4949 H   0  0  0  0  0  0  0  0  0  0  0  0
   -0.4071    0.1695   -1.2814 C   0  0  0  0  0  0  0  0  0  0  0  0
   -0.5213    1.1321   -0.7712 H   0  0  0  0  0  0  0  0  0  0  0  0
    0.5655    0.1993   -1.7836 H   0  0  0  0  0  0  0  0  0  0  0  0
   -1.4914    0.0704   -2.3443 C   0  0  0  0  0  0  0  0  0  0  0  0
   -1.7803   -1.1383   -3.0051 C   0  0  0  0  0  0  0  0  0  0  0  0
   -1.1852   -2.0249   -2.8030 H   0  0  0  0  0  0  0  0  0  0  0  0
   -2.8136   -1.2134   -3.9445 C   0  0  0  0  0  0  0  0  0  0  0  0
   -3.0203   -2.1513   -4.4521 H   0  0  0  0  0  0  0  0  0  0  0  0
   -3.5734   -0.0787   -4.2387 C   0  0  0  0  0  0  0  0  0  0  0  0
   -4.3742   -0.1336   -4.9705 H   0  0  0  0  0  0  0  0  0  0  0  0
   -3.2953    1.1300   -3.5957 C   0  0  0  0  0  0  0  0  0  0  0  0
   -3.8812    2.0151   -3.8269 H   0  0  0  0  0  0  0  0  0  0  0  0
   -2.2618    1.2023   -2.6555 C   0  0  0  0  0  0  0  0  0  0  0  0
   -2.0628    2.1506   -2.1647 H   0  0  0  0  0  0  0  0  0  0  0  0
    0.0579   -0.3548    1.1540 C   0  0  0  0  0  0  0  0  0  0  0  0
    1.2448   -0.1861    1.4002 O   0  0  0  0  0  0  0  0  0  0  0  0
   -0.8896    0.2416    1.9664 N   0  0  0  0  0  0  0  0  0  0  0  0
   -1.8583    0.0189    1.7615 H   0  0  0  0  0  0  0  0  0  0  0  0
   -0.5625    0.8397    3.2544 C   0  0  0  0  0  0  0  0  0  0  0  0
    0.1672    1.6466    3.1290 H   0  0  0  0  0  0  0  0  0  0  0  0
   -1.4615    1.2580    3.7166 H   0  0  0  0  0  0  0  0  0  0  0  0
   -0.1422    0.0863    3.9289 H   0  0  0  0  0  0  0  0  0  0  0  0
  1  2  1  0  0  0  0
  2  3  1  0  0  0  0
  2  4  1  0  0  0  0
  2  5  1  0  0  0  0
  5  6  2  0  0  0  0
  5  7  1  0  0  0  0
  7  8  1  0  0  0  0
  7  9  1  0  0  0  0
  9 10  1  0  0  0  0
  9 11  1  0  0  0  0
  9 25  1  0  0  0  0
 11 12  1  0  0  0  0
 11 13  1  0  0  0  0
 11 14  1  0  0  0  0
 14 15  1  0  0  0  0
 14 23  2  0  0  0  0
 15 16  1  0  0  0  0
 15 17  2  0  0  0  0
 17 18  1  0  0  0  0
 17 19  1  0  0  0  0
 19 20  1  0  0  0  0
 19 21  2  0  0  0  0
 21 22  1  0  0  0  0
 21 23  1  0  0  0  0
 23 24  1  0  0  0  0
 25 26  2  0  0  0  0
 25 27  1  0  0  0  0
 27 28  1  0  0  0  0
 27 29  1  0  0  0  0
 29 30  1  0  0  0  0
 29 31  1  0  0  0  0
 29 32  1  0  0  0  0
M  END
$$$$

  -OEChem-03222214073D

 32 32  0     1  0  0  0  0  0999 V2000
   -2.9258   -4.6163    1.3134 H   0  0  0  0  0  0  0  0  0  0  0  0
   -3.0003   -3.7602    0.6366 C   0  0  0  0  0  0  0  0  0  0  0  0
   -3.8430   -3.1382    0.9477 H   0  0  0  0  0  0  0  0  0  0  0  0
   -3.1807   -4.1277   -0.3765 H   0  0  0  0  0  0  0  0  0  0  0  0
   -1.7165   -2.9527    0.6738 C   0  0  0  0  0  0  0  0  0  0  0  0
   -0.7991   -3.3014    1.3946 O   0  0  0  0  0  0  0  0  0  0  0  0
   -1.5966   -1.8230   -0.1104 N   0  0  0  0  0  0  0  0  0  0  0  0
   -2.3846   -1.5835   -0.7080 H   0  0  0  0  0  0  0  0  0  0  0  0
   -0.3927   -0.9747   -0.1915 C   0  0  1  0  0  0  0  0  0  0  0  0
    0.4258   -1.6457   -0.4752 H   0  0  0  0  0  0  0  0  0  0  0  0
   -0.4579    0.1239   -1.2906 C   0  0  0  0  0  0  0  0  0  0  0  0
   -0.5962    1.0857   -0.7848 H   0  0  0  0  0  0  0  0  0  0  0  0
    0.5242    0.1678   -1.7726 H   0  0  0  0  0  0  0  0  0  0  0  0
   -1.5116    0.0438   -2.3916 C   0  0  0  0  0  0  0  0  0  0  0  0
   -2.0380   -1.1630   -2.8950 C   0  0  0  0  0  0  0  0  0  0  0  0
   -1.6311   -2.1196   -2.5831 H   0  0  0  0  0  0  0  0  0  0  0  0
   -3.0493   -1.1624   -3.8616 C   0  0  0  0  0  0  0  0  0  0  0  0
   -3.4314   -2.1021   -4.2505 H   0  0  0  0  0  0  0  0  0  0  0  0
   -3.5565    0.0462   -4.3424 C   0  0  0  0  0  0  0  0  0  0  0  0
   -4.3393    0.0493   -5.0953 H   0  0  0  0  0  0  0  0  0  0  0  0
   -3.0435    1.2525   -3.8618 C   0  0  0  0  0  0  0  0  0  0  0  0
   -3.4302    2.1952   -4.2382 H   0  0  0  0  0  0  0  0  0  0  0  0
   -2.0306    1.2481   -2.8970 C   0  0  0  0  0  0  0  0  0  0  0  0
   -1.6492    2.1990   -2.5355 H   0  0  0  0  0  0  0  0  0  0  0  0
    0.0321   -0.3456    1.1527 C   0  0  0  0  0  0  0  0  0  0  0  0
    1.2166   -0.1287    1.3710 O   0  0  0  0  0  0  0  0  0  0  0  0
   -0.9184    0.2287    1.9777 N   0  0  0  0  0  0  0  0  0  0  0  0
   -1.8841   -0.0253    1.7974 H   0  0  0  0  0  0  0  0  0  0  0  0
   -0.5836    0.8719    3.2420 C   0  0  0  0  0  0  0  0  0  0  0  0
    0.1090    1.7040    3.0774 H   0  0  0  0  0  0  0  0  0  0  0  0
   -1.4867    1.2656    3.7178 H   0  0  0  0  0  0  0  0  0  0  0  0
   -0.1156    0.1538    3.9237 H   0  0  0  0  0  0  0  0  0  0  0  0
  1  2  1  0  0  0  0
  2  3  1  0  0  0  0
  2  4  1  0  0  0  0
  2  5  1  0  0  0  0
  5  6  2  0  0  0  0
  5  7  1  0  0  0  0
  7  8  1  0  0  0  0
  7  9  1  0  0  0  0
  9 10  1  0  0  0  0
  9 11  1  0  0  0  0
  9 25  1  0  0  0  0
 11 12  1  0  0  0  0
 11 13  1  0  0  0  0
 11 14  1  0  0  0  0
 14 15  1  0  0  0  0
 14 23  2  0  0  0  0
 15 16  1  0  0  0  0
 15 17  2  0  0  0  0
 17 18  1  0  0  0  0
 17 19  1  0  0  0  0
 19 20  1  0  0  0  0
 19 21  2  0  0  0  0
 21 22  1  0  0  0  0
 21 23  1  0  0  0  0
 23 24  1  0  0  0  0
 25 26  2  0  0  0  0
 25 27  1  0  0  0  0
 27 28  1  0  0  0  0
 27 29  1  0  0  0  0
 29 30  1  0  0  0  0
 29 31  1  0  0  0  0
 29 32  1  0  0  0  0
M  END
$$$$

  -OEChem-03222214073D

 32 32  0     1  0  0  0  0  0999 V2000
   -2.7978   -4.6570    1.5049 H   0  0  0  0  0  0  0  0  0  0  0  0
   -2.9193   -3.8228    0.8081 C   0  0  0  0  0  0  0  0  0  0  0  0
   -3.7476   -3.1977    1.1498 H   0  0  0  0  0  0  0  0  0  0  0  0
   -3.1559   -4.2227   -0.1809 H   0  0  0  0  0  0  0  0  0  0  0  0
   -1.6421   -3.0064    0.7450 C   0  0  0  0  0  0  0  0  0  0  0  0
   -0.6753   -3.3374    1.4072 O   0  0  0  0  0  0  0  0  0  0  0  0
   -1.5856   -1.8874   -0.0617 N   0  0  0  0  0  0  0  0  0  0  0  0
   -2.4298   -1.6343   -0.5683 H   0  0  0  0  0  0  0  0  0  0  0  0
   -0.4175   -0.9994   -0.1880 C   0  0  1  0  0  0  0  0  0  0  0  0
    0.4149   -1.6528   -0.4725 H   0  0  0  0  0  0  0  0  0  0  0  0
   -0.5165    0.0767   -1.3085 C   0  0  0  0  0  0  0  0  0  0  0  0
   -0.6790    1.0385   -0.8094 H   0  0  0  0  0  0  0  0  0  0  0  0
    0.4698    0.1384   -1.7803 H   0  0  0  0  0  0  0  0  0  0  0  0
   -1.5524    0.0084   -2.4322 C   0  0  0  0  0  0  0  0  0  0  0  0
   -2.3200   -1.1190   -2.7967 C   0  0  0  0  0  0  0  0  0  0  0  0
   -2.1339   -2.1009   -2.3811 H   0  0  0  0  0  0  0  0  0  0  0  0
   -3.2994   -1.0370   -3.7928 C   0  0  0  0  0  0  0  0  0  0  0  0
   -3.8654   -1.9208   -4.0733 H   0  0  0  0  0  0  0  0  0  0  0  0
   -3.5384    0.1729   -4.4456 C   0  0  0  0  0  0  0  0  0  0  0  0
   -4.2971    0.2360   -5.2205 H   0  0  0  0  0  0  0  0  0  0  0  0
   -2.7865    1.2983   -4.1084 C   0  0  0  0  0  0  0  0  0  0  0  0
   -2.9614    2.2419   -4.6171 H   0  0  0  0  0  0  0  0  0  0  0  0
   -1.8072    1.2121   -3.1138 C   0  0  0  0  0  0  0  0  0  0  0  0
   -1.2405    2.1048   -2.8638 H   0  0  0  0  0  0  0  0  0  0  0  0
    0.0137   -0.3344    1.1372 C   0  0  0  0  0  0  0  0  0  0  0  0
    1.1945   -0.0784    1.3305 O   0  0  0  0  0  0  0  0  0  0  0  0
   -0.9381    0.2181    1.9759 N   0  0  0  0  0  0  0  0  0  0  0  0
   -1.9014   -0.0519    1.8087 H   0  0  0  0  0  0  0  0  0  0  0  0
   -0.6019    0.8945    3.2225 C   0  0  0  0  0  0  0  0  0  0  0  0
    0.0806    1.7301    3.0345 H   0  0  0  0  0  0  0  0  0  0  0  0
   -1.5066    1.2897    3.6945 H   0  0  0  0  0  0  0  0  0  0  0  0
   -0.1222    0.1971    3.9173 H   0  0  0  0  0  0  0  0  0  0  0  0
  1  2  1  0  0  0  0
  2  3  1  0  0  0  0
  2  4  1  0  0  0  0
  2  5  1  0  0  0  0
  5  6  2  0  0  0  0
  5  7  1  0  0  0  0
  7  8  1  0  0  0  0
  7  9  1  0  0  0  0
  9 10  1  0  0  0  0
  9 11  1  0  0  0  0
  9 25  1  0  0  0  0
 11 12  1  0  0  0  0
 11 13  1  0  0  0  0
 11 14  1  0  0  0  0
 14 15  1  0  0  0  0
 14 23  2  0  0  0  0
 15 16  1  0  0  0  0
 15 17  2  0  0  0  0
 17 18  1  0  0  0  0
 17 19  1  0  0  0  0
 19 20  1  0  0  0  0
 19 21  2  0  0  0  0
 21 22  1  0  0  0  0
 21 23  1  0  0  0  0
 23 24  1  0  0  0  0
 25 26  2  0  0  0  0
 25 27  1  0  0  0  0
 27 28  1  0  0  0  0
 27 29  1  0  0  0  0
 29 30  1  0  0  0  0
 29 31  1  0  0  0  0
 29 32  1  0  0  0  0
M  END
$$$$

  -OEChem-03222214073D

 32 32  0     1  0  0  0  0  0999 V2000
   -2.6789   -4.6900    1.6575 H   0  0  0  0  0  0  0  0  0  0  0  0
   -2.8513   -3.8708    0.9534 C   0  0  0  0  0  0  0  0  0  0  0  0
   -3.6612   -3.2446    1.3350 H   0  0  0  0  0  0  0  0  0  0  0  0
   -3.1476   -4.2926   -0.0102 H   0  0  0  0  0  0  0  0  0  0  0  0
   -1.5870   -3.0476    0.7917 C   0  0  0  0  0  0  0  0  0  0  0  0
   -0.5729   -3.3699    1.3837 O   0  0  0  0  0  0  0  0  0  0  0  0
   -1.5975   -1.9298   -0.0194 N   0  0  0  0  0  0  0  0  0  0  0  0
   -2.4898   -1.6583   -0.4203 H   0  0  0  0  0  0  0  0  0  0  0  0
   -0.4624   -1.0095   -0.1883 C   0  0  1  0  0  0  0  0  0  0  0  0
    0.3756   -1.6490   -0.4887 H   0  0  0  0  0  0  0  0  0  0  0  0
   -0.5929    0.0551   -1.3169 C   0  0  0  0  0  0  0  0  0  0  0  0
   -0.7697    1.0156   -0.8202 H   0  0  0  0  0  0  0  0  0  0  0  0
    0.3942    0.1291   -1.7863 H   0  0  0  0  0  0  0  0  0  0  0  0
   -1.6248   -0.0009   -2.4476 C   0  0  0  0  0  0  0  0  0  0  0  0
   -2.6107   -0.9871   -2.6797 C   0  0  0  0  0  0  0  0  0  0  0  0
   -2.6776   -1.9062   -2.1192 H   0  0  0  0  0  0  0  0  0  0  0  0
   -3.5293   -0.8602   -3.7282 C   0  0  0  0  0  0  0  0  0  0  0  0
   -4.2687   -1.6372   -3.8992 H   0  0  0  0  0  0  0  0  0  0  0  0
   -3.4922    0.2525   -4.5680 C   0  0  0  0  0  0  0  0  0  0  0  0
   -4.2043    0.3482   -5.3825 H   0  0  0  0  0  0  0  0  0  0  0  0
   -2.5275    1.2373   -4.3618 C   0  0  0  0  0  0  0  0  0  0  0  0
   -2.4880    2.1056   -5.0132 H   0  0  0  0  0  0  0  0  0  0  0  0
   -1.6108    1.1074   -3.3145 C   0  0  0  0  0  0  0  0  0  0  0  0
   -0.8752    1.8939   -3.1702 H   0  0  0  0  0  0  0  0  0  0  0  0
   -0.0032   -0.3287    1.1197 C   0  0  0  0  0  0  0  0  0  0  0  0
    1.1755   -0.0350    1.2673 O   0  0  0  0  0  0  0  0  0  0  0  0
   -0.9373    0.1992    1.9936 N   0  0  0  0  0  0  0  0  0  0  0  0
   -1.9008   -0.0883    1.8612 H   0  0  0  0  0  0  0  0  0  0  0  0
   -0.5722    0.9046    3.2160 C   0  0  0  0  0  0  0  0  0  0  0  0
    0.0370    1.7845    2.9838 H   0  0  0  0  0  0  0  0  0  0  0  0
   -1.4705    1.2382    3.7443 H   0  0  0  0  0  0  0  0  0  0  0  0
   -0.0017    0.2470    3.8804 H   0  0  0  0  0  0  0  0  0  0  0  0
  1  2  1  0  0  0  0
  2  3  1  0  0  0  0
  2  4  1  0  0  0  0
  2  5  1  0  0  0  0
  5  6  2  0  0  0  0
  5  7  1  0  0  0  0
  7  8  1  0  0  0  0
  7  9  1  0  0  0  0
  9 10  1  0  0  0  0
  9 11  1  0  0  0  0
  9 25  1  0  0  0  0
 11 12  1  0  0  0  0
 11 13  1  0  0  0  0
 11 14  1  0  0  0  0
 14 15  1  0  0  0  0
 14 23  2  0  0  0  0
 15 16  1  0  0  0  0
 15 17  2  0  0  0  0
 17 18  1  0  0  0  0
 17 19  1  0  0  0  0
 19 20  1  0  0  0  0
 19 21  2  0  0  0  0
 21 22  1  0  0  0  0
 21 23  1  0  0  0  0
 23 24  1  0  0  0  0
 25 26  2  0  0  0  0
 25 27  1  0  0  0  0
 27 28  1  0  0  0  0
 27 29  1  0  0  0  0
 29 30  1  0  0  0  0
 29 31  1  0  0  0  0
 29 32  1  0  0  0  0
M  END
$$$$

  -OEChem-03222214073D

 32 32  0     1  0  0  0  0  0999 V2000
   -2.4888   -4.6526    1.8329 H   0  0  0  0  0  0  0  0  0  0  0  0
   -2.7311   -3.8409    1.1409 C   0  0  0  0  0  0  0  0  0  0  0  0
   -3.4977   -3.2087    1.5951 H   0  0  0  0  0  0  0  0  0  0  0  0
   -3.1236   -4.2725    0.2168 H   0  0  0  0  0  0  0  0  0  0  0  0
   -1.4891   -3.0224    0.8420 C   0  0  0  0  0  0  0  0  0  0  0  0
   -0.4215   -3.3361    1.3365 O   0  0  0  0  0  0  0  0  0  0  0  0
   -1.5826   -1.9172    0.0188 N   0  0  0  0  0  0  0  0  0  0  0  0
   -2.5147   -1.6354   -0.2584 H   0  0  0  0  0  0  0  0  0  0  0  0
   -0.4727   -0.9926   -0.2577 C   0  0  1  0  0  0  0  0  0  0  0  0
    0.3412   -1.6361   -0.6119 H   0  0  0  0  0  0  0  0  0  0  0  0
   -0.6797    0.0567   -1.3904 C   0  0  0  0  0  0  0  0  0  0  0  0
   -0.8191    1.0266   -0.9005 H   0  0  0  0  0  0  0  0  0  0  0  0
    0.2776    0.1158   -1.9200 H   0  0  0  0  0  0  0  0  0  0  0  0
   -1.7858   -0.0007   -2.4500 C   0  0  0  0  0  0  0  0  0  0  0  0
   -2.9586   -0.7905   -2.4532 C   0  0  0  0  0  0  0  0  0  0  0  0
   -3.2112   -1.4983   -1.6825 H   0  0  0  0  0  0  0  0  0  0  0  0
   -3.8853   -0.7065   -3.4994 C   0  0  0  0  0  0  0  0  0  0  0  0
   -4.7766   -1.3270   -3.4862 H   0  0  0  0  0  0  0  0  0  0  0  0
   -3.6721    0.1682   -4.5644 C   0  0  0  0  0  0  0  0  0  0  0  0
   -4.3924    0.2314   -5.3750 H   0  0  0  0  0  0  0  0  0  0  0  0
   -2.5268    0.9618   -4.5815 C   0  0  0  0  0  0  0  0  0  0  0  0
   -2.3522    1.6479   -5.4054 H   0  0  0  0  0  0  0  0  0  0  0  0
   -1.6025    0.8754   -3.5367 C   0  0  0  0  0  0  0  0  0  0  0  0
   -0.7213    1.5097   -3.5751 H   0  0  0  0  0  0  0  0  0  0  0  0
    0.0875   -0.2933    1.0004 C   0  0  0  0  0  0  0  0  0  0  0  0
    1.2730    0.0060    1.0507 O   0  0  0  0  0  0  0  0  0  0  0  0
   -0.7764    0.2383    1.9418 N   0  0  0  0  0  0  0  0  0  0  0  0
   -1.7459   -0.0535    1.8890 H   0  0  0  0  0  0  0  0  0  0  0  0
   -0.3173    0.9480    3.1292 C   0  0  0  0  0  0  0  0  0  0  0  0
    0.2620    1.8335    2.8470 H   0  0  0  0  0  0  0  0  0  0  0  0
   -1.1716    1.2728    3.7307 H   0  0  0  0  0  0  0  0  0  0  0  0
    0.3126    0.2963    3.7438 H   0  0  0  0  0  0  0  0  0  0  0  0
  1  2  1  0  0  0  0
  2  3  1  0  0  0  0
  2  4  1  0  0  0  0
  2  5  1  0  0  0  0
  5  6  2  0  0  0  0
  5  7  1  0  0  0  0
  7  8  1  0  0  0  0
  7  9  1  0  0  0  0
  9 10  1  0  0  0  0
  9 11  1  0  0  0  0
  9 25  1  0  0  0  0
 11 12  1  0  0  0  0
 11 13  1  0  0  0  0
 11 14  1  0  0  0  0
 14 15  1  0  0  0  0
 14 23  2  0  0  0  0
 15 16  1  0  0  0  0
 15 17  2  0  0  0  0
 17 18  1  0  0  0  0
 17 19  1  0  0  0  0
 19 20  1  0  0  0  0
 19 21  2  0  0  0  0
 21 22  1  0  0  0  0
 21 23  1  0  0  0  0
 23 24  1  0  0  0  0
 25 26  2  0  0  0  0
 25 27  1  0  0  0  0
 27 28  1  0  0  0  0
 27 29  1  0  0  0  0
 29 30  1  0  0  0  0
 29 31  1  0  0  0  0
 29 32  1  0  0  0  0
M  END
$$$$

  -OEChem-03222214073D

 32 32  0     1  0  0  0  0  0999 V2000
   -2.4434   -4.8478    1.3330 H   0  0  0  0  0  0  0  0  0  0  0  0
   -2.6439   -4.0149    0.6528 C   0  0  0  0  0  0  0  0  0  0  0  0
   -3.6148   -3.5812    0.9046 H   0  0  0  0  0  0  0  0  0  0  0  0
   -2.6766   -4.3979   -0.3702 H   0  0  0  0  0  0  0  0  0  0  0  0
   -1.5561   -2.9644    0.7795 C   0  0  0  0  0  0  0  0  0  0  0  0
   -0.6534   -3.1249    1.5807 O   0  0  0  0  0  0  0  0  0  0  0  0
   -1.6017   -1.8395   -0.0220 N   0  0  0  0  0  0  0  0  0  0  0  0
   -2.2581   -1.8984   -0.7938 H   0  0  0  0  0  0  0  0  0  0  0  0
   -0.4623   -0.9253   -0.2128 C   0  0  1  0  0  0  0  0  0  0  0  0
    0.3622   -1.5535   -0.5686 H   0  0  0  0  0  0  0  0  0  0  0  0
   -0.6487    0.1981   -1.2802 C   0  0  0  0  0  0  0  0  0  0  0  0
   -0.7851    1.1451   -0.7468 H   0  0  0  0  0  0  0  0  0  0  0  0
    0.3100    0.2806   -1.8029 H   0  0  0  0  0  0  0  0  0  0  0  0
   -1.7706    0.1769   -2.3212 C   0  0  0  0  0  0  0  0  0  0  0  0
   -3.0503   -0.3962   -2.1565 C   0  0  0  0  0  0  0  0  0  0  0  0
   -3.4040   -0.7484   -1.1970 H   0  0  0  0  0  0  0  0  0  0  0  0
   -3.9676   -0.4388   -3.2124 C   0  0  0  0  0  0  0  0  0  0  0  0
   -4.9538   -0.8679   -3.0604 H   0  0  0  0  0  0  0  0  0  0  0  0
   -3.6290    0.0884   -4.4587 C   0  0  0  0  0  0  0  0  0  0  0  0
   -4.3411    0.0569   -5.2785 H   0  0  0  0  0  0  0  0  0  0  0  0
   -2.3746    0.6690   -4.6431 C   0  0  0  0  0  0  0  0  0  0  0  0
   -2.1058    1.0870   -5.6090 H   0  0  0  0  0  0  0  0  0  0  0  0
   -1.4604    0.7097   -3.5861 C   0  0  0  0  0  0  0  0  0  0  0  0
   -0.4870    1.1583   -3.7634 H   0  0  0  0  0  0  0  0  0  0  0  0
    0.0443   -0.2660    1.0900 C   0  0  0  0  0  0  0  0  0  0  0  0
    1.2299    0.0199    1.1968 O   0  0  0  0  0  0  0  0  0  0  0  0
   -0.8592    0.2565    1.9975 N   0  0  0  0  0  0  0  0  0  0  0  0
   -1.8140   -0.0777    1.9170 H   0  0  0  0  0  0  0  0  0  0  0  0
   -0.4471    0.9113    3.2322 C   0  0  0  0  0  0  0  0  0  0  0  0
    0.1994    1.7681    3.0150 H   0  0  0  0  0  0  0  0  0  0  0  0
   -1.3226    1.2722    3.7797 H   0  0  0  0  0  0  0  0  0  0  0  0
    0.0996    0.2102    3.8716 H   0  0  0  0  0  0  0  0  0  0  0  0
  1  2  1  0  0  0  0
  2  3  1  0  0  0  0
  2  4  1  0  0  0  0
  2  5  1  0  0  0  0
  5  6  2  0  0  0  0
  5  7  1  0  0  0  0
  7  8  1  0  0  0  0
  7  9  1  0  0  0  0
  9 10  1  0  0  0  0
  9 11  1  0  0  0  0
  9 25  1  0  0  0  0
 11 12  1  0  0  0  0
 11 13  1  0  0  0  0
 11 14  1  0  0  0  0
 14 15  1  0  0  0  0
 14 23  2  0  0  0  0
 15 16  1  0  0  0  0
 15 17  2  0  0  0  0
 17 18  1  0  0  0  0
 17 19  1  0  0  0  0
 19 20  1  0  0  0  0
 19 21  2  0  0  0  0
 21 22  1  0  0  0  0
 21 23  1  0  0  0  0
 23 24  1  0  0  0  0
 25 26  2  0  0  0  0
 25 27  1  0  0  0  0
 27 28  1  0  0  0  0
 27 29  1  0  0  0  0
 29 30  1  0  0  0  0
 29 31  1  0  0  0  0
 29 32  1  0  0  0  0
M  END
$$$$

  -OEChem-03222214073D

 32 32  0     1  0  0  0  0  0999 V2000
   -2.8921   -4.6861    1.1948 H   0  0  0  0  0  0  0  0  0  0  0  0
   -2.9770   -3.8261    0.5242 C   0  0  0  0  0  0  0  0  0  0  0  0
   -3.8995   -3.2886    0.7566 H   0  0  0  0  0  0  0  0  0  0  0  0
   -3.0232   -4.1875   -0.5059 H   0  0  0  0  0  0  0  0  0  0  0  0
   -1.7821   -2.9074    0.6987 C   0  0  0  0  0  0  0  0  0  0  0  0
   -0.9299   -3.1732    1.5271 O   0  0  0  0  0  0  0  0  0  0  0  0
   -1.6774   -1.7735   -0.0834 N   0  0  0  0  0  0  0  0  0  0  0  0
   -2.3261   -1.7250   -0.8647 H   0  0  0  0  0  0  0  0  0  0  0  0
   -0.4501   -0.9645   -0.2026 C   0  0  1  0  0  0  0  0  0  0  0  0
    0.3311   -1.6597   -0.5297 H   0  0  0  0  0  0  0  0  0  0  0  0
   -0.5021    0.1711   -1.2685 C   0  0  0  0  0  0  0  0  0  0  0  0
   -0.5976    1.1275   -0.7431 H   0  0  0  0  0  0  0  0  0  0  0  0
    0.4753    0.1924   -1.7620 H   0  0  0  0  0  0  0  0  0  0  0  0
   -1.6027    0.1792   -2.3255 C   0  0  0  0  0  0  0  0  0  0  0  0
   -2.9643   -0.0521   -2.0447 C   0  0  0  0  0  0  0  0  0  0  0  0
   -3.3131   -0.1331   -1.0207 H   0  0  0  0  0  0  0  0  0  0  0  0
   -3.9145   -0.1066   -3.0700 C   0  0  0  0  0  0  0  0  0  0  0  0
   -4.9625   -0.2672   -2.8341 H   0  0  0  0  0  0  0  0  0  0  0  0
   -3.5204    0.0630   -4.3987 C   0  0  0  0  0  0  0  0  0  0  0  0
   -4.2558    0.0220   -5.1971 H   0  0  0  0  0  0  0  0  0  0  0  0
   -2.1769    0.2965   -4.6975 C   0  0  0  0  0  0  0  0  0  0  0  0
   -1.8658    0.4323   -5.7293 H   0  0  0  0  0  0  0  0  0  0  0  0
   -1.2299    0.3525   -3.6696 C   0  0  0  0  0  0  0  0  0  0  0  0
   -0.1894    0.5251   -3.9293 H   0  0  0  0  0  0  0  0  0  0  0  0
    0.0528   -0.3664    1.1302 C   0  0  0  0  0  0  0  0  0  0  0  0
    1.2524   -0.1834    1.2916 O   0  0  0  0  0  0  0  0  0  0  0  0
   -0.8415    0.2288    2.0016 N   0  0  0  0  0  0  0  0  0  0  0  0
   -1.8152   -0.0309    1.8819 H   0  0  0  0  0  0  0  0  0  0  0  0
   -0.4298    0.8377    3.2603 C   0  0  0  0  0  0  0  0  0  0  0  0
    0.3058    1.6293    3.0822 H   0  0  0  0  0  0  0  0  0  0  0  0
   -1.2931    1.2797    3.7667 H   0  0  0  0  0  0  0  0  0  0  0  0
    0.0153    0.0861    3.9208 H   0  0  0  0  0  0  0  0  0  0  0  0
  1  2  1  0  0  0  0
  2  3  1  0  0  0  0
  2  4  1  0  0  0  0
  2  5  1  0  0  0  0
  5  6  2  0  0  0  0
  5  7  1  0  0  0  0
  7  8  1  0  0  0  0
  7  9  1  0  0  0  0
  9 10  1  0  0  0  0
  9 11  1  0  0  0  0
  9 25  1  0  0  0  0
 11 12  1  0  0  0  0
 11 13  1  0  0  0  0
 11 14  1  0  0  0  0
 14 15  1  0  0  0  0
 14 23  2  0  0  0  0
 15 16  1  0  0  0  0
 15 17  2  0  0  0  0
 17 18  1  0  0  0  0
 17 19  1  0  0  0  0
 19 20  1  0  0  0  0
 19 21  2  0  0  0  0
 21 22  1  0  0  0  0
 21 23  1  0  0  0  0
 23 24  1  0  0  0  0
 25 26  2  0  0  0  0
 25 27  1  0  0  0  0
 27 28  1  0  0  0  0
 27 29  1  0  0  0  0
 29 30  1  0  0  0  0
 29 31  1  0  0  0  0
 29 32  1  0  0  0  0
M  END
$$$$

  -OEChem-03222214073D

 32 32  0     1  0  0  0  0  0999 V2000
   -3.0077   -4.6050    1.0423 H   0  0  0  0  0  0  0  0  0  0  0  0
   -3.0490   -3.7277    0.3906 C   0  0  0  0  0  0  0  0  0  0  0  0
   -3.9534   -3.1596    0.6209 H   0  0  0  0  0  0  0  0  0  0  0  0
   -3.0925   -4.0641   -0.6481 H   0  0  0  0  0  0  0  0  0  0  0  0
   -1.8227   -2.8603    0.6048 C   0  0  0  0  0  0  0  0  0  0  0  0
   -1.0023   -3.1679    1.4507 O   0  0  0  0  0  0  0  0  0  0  0  0
   -1.6547   -1.7200   -0.1550 N   0  0  0  0  0  0  0  0  0  0  0  0
   -2.2966   -1.6111   -0.9371 H   0  0  0  0  0  0  0  0  0  0  0  0
   -0.4051   -0.9369   -0.2136 C   0  0  1  0  0  0  0  0  0  0  0  0
    0.3759   -1.6387   -0.5267 H   0  0  0  0  0  0  0  0  0  0  0  0
   -0.4286    0.2041   -1.2688 C   0  0  0  0  0  0  0  0  0  0  0  0
   -0.5355    1.1621   -0.7480 H   0  0  0  0  0  0  0  0  0  0  0  0
    0.5502    0.2300   -1.7590 H   0  0  0  0  0  0  0  0  0  0  0  0
   -1.5291    0.1620   -2.3169 C   0  0  0  0  0  0  0  0  0  0  0  0
   -2.8926    0.2059   -1.9702 C   0  0  0  0  0  0  0  0  0  0  0  0
   -3.1861    0.3408   -0.9332 H   0  0  0  0  0  0  0  0  0  0  0  0
   -3.8856    0.1109   -2.9507 C   0  0  0  0  0  0  0  0  0  0  0  0
   -4.9345    0.1584   -2.6721 H   0  0  0  0  0  0  0  0  0  0  0  0
   -3.5285   -0.0350   -4.2934 C   0  0  0  0  0  0  0  0  0  0  0  0
   -4.2967   -0.1062   -5.0582 H   0  0  0  0  0  0  0  0  0  0  0  0
   -2.1791   -0.0834   -4.6527 C   0  0  0  0  0  0  0  0  0  0  0  0
   -1.8986   -0.1962   -5.6960 H   0  0  0  0  0  0  0  0  0  0  0  0
   -1.1879    0.0125   -3.6701 C   0  0  0  0  0  0  0  0  0  0  0  0
   -0.1442   -0.0357   -3.9675 H   0  0  0  0  0  0  0  0  0  0  0  0
    0.0620   -0.3628    1.1415 C   0  0  0  0  0  0  0  0  0  0  0  0
    1.2589   -0.2108    1.3486 O   0  0  0  0  0  0  0  0  0  0  0  0
   -0.8492    0.2454    1.9861 N   0  0  0  0  0  0  0  0  0  0  0  0
   -1.8227    0.0035    1.8334 H   0  0  0  0  0  0  0  0  0  0  0  0
   -0.4668    0.8271    3.2667 C   0  0  0  0  0  0  0  0  0  0  0  0
    0.2891    1.6068    3.1246 H   0  0  0  0  0  0  0  0  0  0  0  0
   -1.3370    1.2778    3.7526 H   0  0  0  0  0  0  0  0  0  0  0  0
   -0.0577    0.0568    3.9287 H   0  0  0  0  0  0  0  0  0  0  0  0
  1  2  1  0  0  0  0
  2  3  1  0  0  0  0
  2  4  1  0  0  0  0
  2  5  1  0  0  0  0
  5  6  2  0  0  0  0
  5  7  1  0  0  0  0
  7  8  1  0  0  0  0
  7  9  1  0  0  0  0
  9 10  1  0  0  0  0
  9 11  1  0  0  0  0
  9 25  1  0  0  0  0
 11 12  1  0  0  0  0
 11 13  1  0  0  0  0
 11 14  1  0  0  0  0
 14 15  1  0  0  0  0
 14 23  2  0  0  0  0
 15 16  1  0  0  0  0
 15 17  2  0  0  0  0
 17 18  1  0  0  0  0
 17 19  1  0  0  0  0
 19 20  1  0  0  0  0
 19 21  2  0  0  0  0
 21 22  1  0  0  0  0
 21 23  1  0  0  0  0
 23 24  1  0  0  0  0
 25 26  2  0  0  0  0
 25 27  1  0  0  0  0
 27 28  1  0  0  0  0
 27 29  1  0  0  0  0
 29 30  1  0  0  0  0
 29 31  1  0  0  0  0
 29 32  1  0  0  0  0
M  END
$$$$

  -OEChem-03222214073D

 32 32  0     1  0  0  0  0  0999 V2000
   -3.0841   -4.5347    0.9313 H   0  0  0  0  0  0  0  0  0  0  0  0
   -3.0922   -3.6449    0.2955 C   0  0  0  0  0  0  0  0  0  0  0  0
   -3.9764   -3.0493    0.5338 H   0  0  0  0  0  0  0  0  0  0  0  0
   -3.1441   -3.9605   -0.7494 H   0  0  0  0  0  0  0  0  0  0  0  0
   -1.8370   -2.8258    0.5284 C   0  0  0  0  0  0  0  0  0  0  0  0
   -1.0301   -3.1752    1.3711 O   0  0  0  0  0  0  0  0  0  0  0  0
   -1.6253   -1.6809   -0.2122 N   0  0  0  0  0  0  0  0  0  0  0  0
   -2.2721   -1.5153   -0.9811 H   0  0  0  0  0  0  0  0  0  0  0  0
   -0.3635   -0.9137   -0.2269 C   0  0  1  0  0  0  0  0  0  0  0  0
    0.4198   -1.6172   -0.5297 H   0  0  0  0  0  0  0  0  0  0  0  0
   -0.3731    0.2317   -1.2730 C   0  0  0  0  0  0  0  0  0  0  0  0
   -0.4849    1.1915   -0.7570 H   0  0  0  0  0  0  0  0  0  0  0  0
    0.6028    0.2603   -1.7689 H   0  0  0  0  0  0  0  0  0  0  0  0
   -1.4765    0.1429   -2.3085 C   0  0  0  0  0  0  0  0  0  0  0  0
   -2.8030    0.4672   -1.9761 C   0  0  0  0  0  0  0  0  0  0  0  0
   -3.0379    0.8300   -0.9795 H   0  0  0  0  0  0  0  0  0  0  0  0
   -3.8258    0.3386   -2.9218 C   0  0  0  0  0  0  0  0  0  0  0  0
   -4.8470    0.6003   -2.6591 H   0  0  0  0  0  0  0  0  0  0  0  0
   -3.5330   -0.1206   -4.2091 C   0  0  0  0  0  0  0  0  0  0  0  0
   -4.3248   -0.2170   -4.9469 H   0  0  0  0  0  0  0  0  0  0  0  0
   -2.2176   -0.4513   -4.5482 C   0  0  0  0  0  0  0  0  0  0  0  0
   -1.9885   -0.8088   -5.5480 H   0  0  0  0  0  0  0  0  0  0  0  0
   -1.1956   -0.3222   -3.6014 C   0  0  0  0  0  0  0  0  0  0  0  0
   -0.1791   -0.5903   -3.8756 H   0  0  0  0  0  0  0  0  0  0  0  0
    0.0716   -0.3585    1.1458 C   0  0  0  0  0  0  0  0  0  0  0  0
    1.2633   -0.2250    1.3914 O   0  0  0  0  0  0  0  0  0  0  0  0
   -0.8582    0.2538    1.9668 N   0  0  0  0  0  0  0  0  0  0  0  0
   -1.8295    0.0291    1.7777 H   0  0  0  0  0  0  0  0  0  0  0  0
   -0.5110    0.8148    3.2665 C   0  0  0  0  0  0  0  0  0  0  0  0
    0.2620    1.5831    3.1597 H   0  0  0  0  0  0  0  0  0  0  0  0
   -1.3903    1.2750    3.7272 H   0  0  0  0  0  0  0  0  0  0  0  0
   -0.1384    0.0301    3.9334 H   0  0  0  0  0  0  0  0  0  0  0  0
  1  2  1  0  0  0  0
  2  3  1  0  0  0  0
  2  4  1  0  0  0  0
  2  5  1  0  0  0  0
  5  6  2  0  0  0  0
  5  7  1  0  0  0  0
  7  8  1  0  0  0  0
  7  9  1  0  0  0  0
  9 10  1  0  0  0  0
  9 11  1  0  0  0  0
  9 25  1  0  0  0  0
 11 12  1  0  0  0  0
 11 13  1  0  0  0  0
 11 14  1  0  0  0  0
 14 15  1  0  0  0  0
 14 23  2  0  0  0  0
 15 16  1  0  0  0  0
 15 17  2  0  0  0  0
 17 18  1  0  0  0  0
 17 19  1  0  0  0  0
 19 20  1  0  0  0  0
 19 21  2  0  0  0  0
 21 22  1  0  0  0  0
 21 23  1  0  0  0  0
 23 24  1  0  0  0  0
 25 26  2  0  0  0  0
 25 27  1  0  0  0  0
 27 28  1  0  0  0  0
 27 29  1  0  0  0  0
 29 30  1  0  0  0  0
 29 31  1  0  0  0  0
 29 32  1  0  0  0  0
M  END
$$$$

  -OEChem-03222214073D

 32 32  0     1  0  0  0  0  0999 V2000
   -3.1219   -4.4994    0.8874 H   0  0  0  0  0  0  0  0  0  0  0  0
   -3.1125   -3.6065    0.2559 C   0  0  0  0  0  0  0  0  0  0  0  0
   -3.9852   -2.9949    0.4971 H   0  0  0  0  0  0  0  0  0  0  0  0
   -3.1704   -3.9155   -0.7907 H   0  0  0  0  0  0  0  0  0  0  0  0
   -1.8414   -2.8133    0.4928 C   0  0  0  0  0  0  0  0  0  0  0  0
   -1.0391   -3.1851    1.3304 O   0  0  0  0  0  0  0  0  0  0  0  0
   -1.6084   -1.6677   -0.2397 N   0  0  0  0  0  0  0  0  0  0  0  0
   -2.2609   -1.4716   -0.9969 H   0  0  0  0  0  0  0  0  0  0  0  0
   -0.3417   -0.9072   -0.2331 C   0  0  1  0  0  0  0  0  0  0  0  0
    0.4443   -1.6101   -0.5301 H   0  0  0  0  0  0  0  0  0  0  0  0
   -0.3479    0.2397   -1.2752 C   0  0  0  0  0  0  0  0  0  0  0  0
   -0.4588    1.2011   -0.7618 H   0  0  0  0  0  0  0  0  0  0  0  0
    0.6245    0.2672   -1.7778 H   0  0  0  0  0  0  0  0  0  0  0  0
   -1.4531    0.1242   -2.3031 C   0  0  0  0  0  0  0  0  0  0  0  0
   -2.7050    0.7155   -2.0733 C   0  0  0  0  0  0  0  0  0  0  0  0
   -2.8768    1.2906   -1.1679 H   0  0  0  0  0  0  0  0  0  0  0  0
   -3.7384    0.5727   -3.0052 C   0  0  0  0  0  0  0  0  0  0  0  0
   -4.7029    1.0386   -2.8235 H   0  0  0  0  0  0  0  0  0  0  0  0
   -3.5284   -0.1644   -4.1745 C   0  0  0  0  0  0  0  0  0  0  0  0
   -4.3284   -0.2709   -4.9017 H   0  0  0  0  0  0  0  0  0  0  0  0
   -2.2855   -0.7595   -4.4097 C   0  0  0  0  0  0  0  0  0  0  0  0
   -2.1204   -1.3315   -5.3184 H   0  0  0  0  0  0  0  0  0  0  0  0
   -1.2531   -0.6169   -3.4765 C   0  0  0  0  0  0  0  0  0  0  0  0
   -0.2925   -1.0880   -3.6652 H   0  0  0  0  0  0  0  0  0  0  0  0
    0.0760   -0.3577    1.1470 C   0  0  0  0  0  0  0  0  0  0  0  0
    1.2644   -0.2308    1.4112 O   0  0  0  0  0  0  0  0  0  0  0  0
   -0.8628    0.2579    1.9553 N   0  0  0  0  0  0  0  0  0  0  0  0
   -1.8329    0.0439    1.7479 H   0  0  0  0  0  0  0  0  0  0  0  0
   -0.5330    0.8145    3.2615 C   0  0  0  0  0  0  0  0  0  0  0  0
    0.2398    1.5848    3.1671 H   0  0  0  0  0  0  0  0  0  0  0  0
   -1.4190    1.2711    3.7128 H   0  0  0  0  0  0  0  0  0  0  0  0
   -0.1670    0.0285    3.9305 H   0  0  0  0  0  0  0  0  0  0  0  0
  1  2  1  0  0  0  0
  2  3  1  0  0  0  0
  2  4  1  0  0  0  0
  2  5  1  0  0  0  0
  5  6  2  0  0  0  0
  5  7  1  0  0  0  0
  7  8  1  0  0  0  0
  7  9  1  0  0  0  0
  9 10  1  0  0  0  0
  9 11  1  0  0  0  0
  9 25  1  0  0  0  0
 11 12  1  0  0  0  0
 11 13  1  0  0  0  0
 11 14  1  0  0  0  0
 14 15  1  0  0  0  0
 14 23  2  0  0  0  0
 15 16  1  0  0  0  0
 15 17  2  0  0  0  0
 17 18  1  0  0  0  0
 17 19  1  0  0  0  0
 19 20  1  0  0  0  0
 19 21  2  0  0  0  0
 21 22  1  0  0  0  0
 21 23  1  0  0  0  0
 23 24  1  0  0  0  0
 25 26  2  0  0  0  0
 25 27  1  0  0  0  0
 27 28  1  0  0  0  0
 27 29  1  0  0  0  0
 29 30  1  0  0  0  0
 29 31  1  0  0  0  0
 29 32  1  0  0  0  0
M  END
$$$$

  -OEChem-03222214073D

 32 32  0     1  0  0  0  0  0999 V2000
   -3.1129   -4.5047    0.9181 H   0  0  0  0  0  0  0  0  0  0  0  0
   -3.1119   -3.6090    0.2901 C   0  0  0  0  0  0  0  0  0  0  0  0
   -3.9784   -2.9958    0.5485 H   0  0  0  0  0  0  0  0  0  0  0  0
   -3.1887   -3.9135   -0.7565 H   0  0  0  0  0  0  0  0  0  0  0  0
   -1.8350   -2.8192    0.5083 C   0  0  0  0  0  0  0  0  0  0  0  0
   -1.0233   -3.1922    1.3362 O   0  0  0  0  0  0  0  0  0  0  0  0
   -1.6048   -1.6776   -0.2317 N   0  0  0  0  0  0  0  0  0  0  0  0
   -2.2722   -1.4699   -0.9724 H   0  0  0  0  0  0  0  0  0  0  0  0
   -0.3400   -0.9136   -0.2305 C   0  0  1  0  0  0  0  0  0  0  0  0
    0.4480   -1.6160   -0.5231 H   0  0  0  0  0  0  0  0  0  0  0  0
   -0.3513    0.2270   -1.2792 C   0  0  0  0  0  0  0  0  0  0  0  0
   -0.4567    1.1908   -0.7698 H   0  0  0  0  0  0  0  0  0  0  0  0
    0.6180    0.2490   -1.7885 H   0  0  0  0  0  0  0  0  0  0  0  0
   -1.4568    0.1026   -2.3062 C   0  0  0  0  0  0  0  0  0  0  0  0
   -2.5895    0.9283   -2.2449 C   0  0  0  0  0  0  0  0  0  0  0  0
   -2.6781    1.6770   -1.4628 H   0  0  0  0  0  0  0  0  0  0  0  0
   -3.6143    0.7965   -3.1882 C   0  0  0  0  0  0  0  0  0  0  0  0
   -4.4868    1.4415   -3.1356 H   0  0  0  0  0  0  0  0  0  0  0  0
   -3.5129   -0.1601   -4.2030 C   0  0  0  0  0  0  0  0  0  0  0  0
   -4.3064   -0.2589   -4.9385 H   0  0  0  0  0  0  0  0  0  0  0  0
   -2.3848   -0.9827   -4.2752 C   0  0  0  0  0  0  0  0  0  0  0  0
   -2.3008   -1.7213   -5.0674 H   0  0  0  0  0  0  0  0  0  0  0  0
   -1.3610   -0.8500   -3.3315 C   0  0  0  0  0  0  0  0  0  0  0  0
   -0.4865   -1.4916   -3.3953 H   0  0  0  0  0  0  0  0  0  0  0  0
    0.0755   -0.3544    1.1457 C   0  0  0  0  0  0  0  0  0  0  0  0
    1.2633   -0.2293    1.4134 O   0  0  0  0  0  0  0  0  0  0  0  0
   -0.8661    0.2636    1.9486 N   0  0  0  0  0  0  0  0  0  0  0  0
   -1.8354    0.0512    1.7354 H   0  0  0  0  0  0  0  0  0  0  0  0
   -0.5424    0.8131    3.2590 C   0  0  0  0  0  0  0  0  0  0  0  0
    0.2435    1.5713    3.1755 H   0  0  0  0  0  0  0  0  0  0  0  0
   -1.4261    1.2828    3.7012 H   0  0  0  0  0  0  0  0  0  0  0  0
   -0.1960    0.0195    3.9293 H   0  0  0  0  0  0  0  0  0  0  0  0
  1  2  1  0  0  0  0
  2  3  1  0  0  0  0
  2  4  1  0  0  0  0
  2  5  1  0  0  0  0
  5  6  2  0  0  0  0
  5  7  1  0  0  0  0
  7  8  1  0  0  0  0
  7  9  1  0  0  0  0
  9 10  1  0  0  0  0
  9 11  1  0  0  0  0
  9 25  1  0  0  0  0
 11 12  1  0  0  0  0
 11 13  1  0  0  0  0
 11 14  1  0  0  0  0
 14 15  1  0  0  0  0
 14 23  2  0  0  0  0
 15 16  1  0  0  0  0
 15 17  2  0  0  0  0
 17 18  1  0  0  0  0
 17 19  1  0  0  0  0
 19 20  1  0  0  0  0
 19 21  2  0  0  0  0
 21 22  1  0  0  0  0
 21 23  1  0  0  0  0
 23 24  1  0  0  0  0
 25 26  2  0  0  0  0
 25 27  1  0  0  0  0
 27 28  1  0  0  0  0
 27 29  1  0  0  0  0
 29 30  1  0  0  0  0
 29 31  1  0  0  0  0
 29 32  1  0  0  0  0
M  END
$$$$

  -OEChem-03222214073D

 32 32  0     1  0  0  0  0  0999 V2000
   -3.1098   -4.5098    1.0015 H   0  0  0  0  0  0  0  0  0  0  0  0
   -3.1102   -3.6255    0.3579 C   0  0  0  0  0  0  0  0  0  0  0  0
   -3.9664   -2.9993    0.6194 H   0  0  0  0  0  0  0  0  0  0  0  0
   -3.2065   -3.9473   -0.6820 H   0  0  0  0  0  0  0  0  0  0  0  0
   -1.8223   -2.8457    0.5417 C   0  0  0  0  0  0  0  0  0  0  0  0
   -0.9905   -3.2242    1.3469 O   0  0  0  0  0  0  0  0  0  0  0  0
   -1.6042   -1.7073   -0.2061 N   0  0  0  0  0  0  0  0  0  0  0  0
   -2.2930   -1.4892   -0.9237 H   0  0  0  0  0  0  0  0  0  0  0  0
   -0.3466   -0.9334   -0.2187 C   0  0  1  0  0  0  0  0  0  0  0  0
    0.4457   -1.6312   -0.5110 H   0  0  0  0  0  0  0  0  0  0  0  0
   -0.3729    0.1996   -1.2768 C   0  0  0  0  0  0  0  0  0  0  0  0
   -0.4793    1.1634   -0.7676 H   0  0  0  0  0  0  0  0  0  0  0  0
    0.5942    0.2241   -1.7898 H   0  0  0  0  0  0  0  0  0  0  0  0
   -1.4779    0.0750   -2.3081 C   0  0  0  0  0  0  0  0  0  0  0  0
   -2.4465    1.0810   -2.4443 C   0  0  0  0  0  0  0  0  0  0  0  0
   -2.4262    1.9516   -1.7952 H   0  0  0  0  0  0  0  0  0  0  0  0
   -3.4522    0.9734   -3.4110 C   0  0  0  0  0  0  0  0  0  0  0  0
   -4.2017    1.7541   -3.5040 H   0  0  0  0  0  0  0  0  0  0  0  0
   -3.4886   -0.1338   -4.2637 C   0  0  0  0  0  0  0  0  0  0  0  0
   -4.2666   -0.2146   -5.0178 H   0  0  0  0  0  0  0  0  0  0  0  0
   -2.5135   -1.1291   -4.1543 C   0  0  0  0  0  0  0  0  0  0  0  0
   -2.5304   -1.9820   -4.8268 H   0  0  0  0  0  0  0  0  0  0  0  0
   -1.5092   -1.0205   -3.1869 C   0  0  0  0  0  0  0  0  0  0  0  0
   -0.7473   -1.7924   -3.1182 H   0  0  0  0  0  0  0  0  0  0  0  0
    0.0712   -0.3628    1.1525 C   0  0  0  0  0  0  0  0  0  0  0  0
    1.2592   -0.2275    1.4138 O   0  0  0  0  0  0  0  0  0  0  0  0
   -0.8702    0.2520    1.9584 N   0  0  0  0  0  0  0  0  0  0  0  0
   -1.8411    0.0465    1.7459 H   0  0  0  0  0  0  0  0  0  0  0  0
   -0.5426    0.8315    3.2550 C   0  0  0  0  0  0  0  0  0  0  0  0
    0.2226    1.6073    3.1471 H   0  0  0  0  0  0  0  0  0  0  0  0
   -1.4315    1.2863    3.7019 H   0  0  0  0  0  0  0  0  0  0  0  0
   -0.1673    0.0588    3.9341 H   0  0  0  0  0  0  0  0  0  0  0  0
  1  2  1  0  0  0  0
  2  3  1  0  0  0  0
  2  4  1  0  0  0  0
  2  5  1  0  0  0  0
  5  6  2  0  0  0  0
  5  7  1  0  0  0  0
  7  8  1  0  0  0  0
  7  9  1  0  0  0  0
  9 10  1  0  0  0  0
  9 11  1  0  0  0  0
  9 25  1  0  0  0  0
 11 12  1  0  0  0  0
 11 13  1  0  0  0  0
 11 14  1  0  0  0  0
 14 15  1  0  0  0  0
 14 23  2  0  0  0  0
 15 16  1  0  0  0  0
 15 17  2  0  0  0  0
 17 18  1  0  0  0  0
 17 19  1  0  0  0  0
 19 20  1  0  0  0  0
 19 21  2  0  0  0  0
 21 22  1  0  0  0  0
 21 23  1  0  0  0  0
 23 24  1  0  0  0  0
 25 26  2  0  0  0  0
 25 27  1  0  0  0  0
 27 28  1  0  0  0  0
 27 29  1  0  0  0  0
 29 30  1  0  0  0  0
 29 31  1  0  0  0  0
 29 32  1  0  0  0  0
M  END
$$$$

  -OEChem-03222214073D

 32 32  0     1  0  0  0  0  0999 V2000
   -3.0668   -4.5384    1.1398 H   0  0  0  0  0  0  0  0  0  0  0  0
   -3.0939   -3.6643    0.4828 C   0  0  0  0  0  0  0  0  0  0  0  0
   -3.9411   -3.0358    0.7677 H   0  0  0  0  0  0  0  0  0  0  0  0
   -3.2294   -4.0027   -0.5473 H   0  0  0  0  0  0  0  0  0  0  0  0
   -1.8012   -2.8797    0.6046 C   0  0  0  0  0  0  0  0  0  0  0  0
   -0.9338   -3.2523    1.3741 O   0  0  0  0  0  0  0  0  0  0  0  0
   -1.6167   -1.7452   -0.1590 N   0  0  0  0  0  0  0  0  0  0  0  0
   -2.3437   -1.5178   -0.8344 H   0  0  0  0  0  0  0  0  0  0  0  0
   -0.3729   -0.9505   -0.2051 C   0  0  1  0  0  0  0  0  0  0  0  0
    0.4242   -1.6415   -0.5006 H   0  0  0  0  0  0  0  0  0  0  0  0
   -0.4206    0.1697   -1.2779 C   0  0  0  0  0  0  0  0  0  0  0  0
   -0.5311    1.1340   -0.7703 H   0  0  0  0  0  0  0  0  0  0  0  0
    0.5454    0.1978   -1.7928 H   0  0  0  0  0  0  0  0  0  0  0  0
   -1.5221    0.0536   -2.3172 C   0  0  0  0  0  0  0  0  0  0  0  0
   -2.2824    1.1813   -2.6653 C   0  0  0  0  0  0  0  0  0  0  0  0
   -2.1281    2.1250   -2.1501 H   0  0  0  0  0  0  0  0  0  0  0  0
   -3.2523    1.1073   -3.6708 C   0  0  0  0  0  0  0  0  0  0  0  0
   -3.8436    1.9839   -3.9196 H   0  0  0  0  0  0  0  0  0  0  0  0
   -3.4511   -0.0893   -4.3649 C   0  0  0  0  0  0  0  0  0  0  0  0
   -4.1993   -0.1448   -5.1506 H   0  0  0  0  0  0  0  0  0  0  0  0
   -2.6679   -1.2063   -4.0631 C   0  0  0  0  0  0  0  0  0  0  0  0
   -2.8009   -2.1294   -4.6202 H   0  0  0  0  0  0  0  0  0  0  0  0
   -1.6991   -1.1291   -3.0579 C   0  0  0  0  0  0  0  0  0  0  0  0
   -1.0722   -1.9942   -2.8595 H   0  0  0  0  0  0  0  0  0  0  0  0
    0.0604   -0.3597    1.1526 C   0  0  0  0  0  0  0  0  0  0  0  0
    1.2504   -0.2024    1.3912 O   0  0  0  0  0  0  0  0  0  0  0  0
   -0.8763    0.2467    1.9700 N   0  0  0  0  0  0  0  0  0  0  0  0
   -1.8478    0.0272    1.7753 H   0  0  0  0  0  0  0  0  0  0  0  0
   -0.5353    0.8442    3.2546 C   0  0  0  0  0  0  0  0  0  0  0  0
    0.2292    1.6181    3.1284 H   0  0  0  0  0  0  0  0  0  0  0  0
   -1.4199    1.3060    3.7030 H   0  0  0  0  0  0  0  0  0  0  0  0
   -0.1538    0.0809    3.9409 H   0  0  0  0  0  0  0  0  0  0  0  0
  1  2  1  0  0  0  0
  2  3  1  0  0  0  0
  2  4  1  0  0  0  0
  2  5  1  0  0  0  0
  5  6  2  0  0  0  0
  5  7  1  0  0  0  0
  7  8  1  0  0  0  0
  7  9  1  0  0  0  0
  9 10  1  0  0  0  0
  9 11  1  0  0  0  0
  9 25  1  0  0  0  0
 11 12  1  0  0  0  0
 11 13  1  0  0  0  0
 11 14  1  0  0  0  0
 14 15  1  0  0  0  0
 14 23  2  0  0  0  0
 15 16  1  0  0  0  0
 15 17  2  0  0  0  0
 17 18  1  0  0  0  0
 17 19  1  0  0  0  0
 19 20  1  0  0  0  0
 19 21  2  0  0  0  0
 21 22  1  0  0  0  0
 21 23  1  0  0  0  0
 23 24  1  0  0  0  0
 25 26  2  0  0  0  0
 25 27  1  0  0  0  0
 27 28  1  0  0  0  0
 27 29  1  0  0  0  0
 29 30  1  0  0  0  0
 29 31  1  0  0  0  0
 29 32  1  0  0  0  0
M  END
$$$$

  -OEChem-03222214073D

 32 32  0     1  0  0  0  0  0999 V2000
   -3.0121   -4.5713    1.2951 H   0  0  0  0  0  0  0  0  0  0  0  0
   -3.0677   -3.7100    0.6231 C   0  0  0  0  0  0  0  0  0  0  0  0
   -3.9057   -3.0786    0.9279 H   0  0  0  0  0  0  0  0  0  0  0  0
   -3.2413   -4.0693   -0.3942 H   0  0  0  0  0  0  0  0  0  0  0  0
   -1.7745   -2.9189    0.6796 C   0  0  0  0  0  0  0  0  0  0  0  0
   -0.8690   -3.2821    1.4084 O   0  0  0  0  0  0  0  0  0  0  0  0
   -1.6313   -1.7898   -0.1010 N   0  0  0  0  0  0  0  0  0  0  0  0
   -2.4029   -1.5507   -0.7201 H   0  0  0  0  0  0  0  0  0  0  0  0
   -0.4061   -0.9713   -0.1884 C   0  0  1  0  0  0  0  0  0  0  0  0
    0.3951   -1.6552   -0.4902 H   0  0  0  0  0  0  0  0  0  0  0  0
   -0.4822    0.1345   -1.2771 C   0  0  0  0  0  0  0  0  0  0  0  0
   -0.6008    1.0989   -0.7713 H   0  0  0  0  0  0  0  0  0  0  0  0
    0.4836    0.1699   -1.7920 H   0  0  0  0  0  0  0  0  0  0  0  0
   -1.5795    0.0357   -2.3278 C   0  0  0  0  0  0  0  0  0  0  0  0
   -2.0940    1.2197   -2.8817 C   0  0  0  0  0  0  0  0  0  0  0  0
   -1.7813    2.1833   -2.4896 H   0  0  0  0  0  0  0  0  0  0  0  0
   -3.0229    1.1852   -3.9272 C   0  0  0  0  0  0  0  0  0  0  0  0
   -3.4292    2.1116   -4.3229 H   0  0  0  0  0  0  0  0  0  0  0  0
   -3.4156   -0.0384   -4.4737 C   0  0  0  0  0  0  0  0  0  0  0  0
   -4.1324   -0.0657   -5.2895 H   0  0  0  0  0  0  0  0  0  0  0  0
   -2.8562   -1.2230   -3.9905 C   0  0  0  0  0  0  0  0  0  0  0  0
   -3.1242   -2.1729   -4.4442 H   0  0  0  0  0  0  0  0  0  0  0  0
   -1.9287   -1.1829   -2.9441 C   0  0  0  0  0  0  0  0  0  0  0  0
   -1.4594   -2.1124   -2.6357 H   0  0  0  0  0  0  0  0  0  0  0  0
    0.0481   -0.3566    1.1522 C   0  0  0  0  0  0  0  0  0  0  0  0
    1.2399   -0.1718    1.3601 O   0  0  0  0  0  0  0  0  0  0  0  0
   -0.8801    0.2398    1.9866 N   0  0  0  0  0  0  0  0  0  0  0  0
   -1.8533    0.0112    1.8124 H   0  0  0  0  0  0  0  0  0  0  0  0
   -0.5204    0.8714    3.2497 C   0  0  0  0  0  0  0  0  0  0  0  0
    0.2001    1.6792    3.0839 H   0  0  0  0  0  0  0  0  0  0  0  0
   -1.4088    1.2960    3.7266 H   0  0  0  0  0  0  0  0  0  0  0  0
   -0.0765    0.1376    3.9306 H   0  0  0  0  0  0  0  0  0  0  0  0
  1  2  1  0  0  0  0
  2  3  1  0  0  0  0
  2  4  1  0  0  0  0
  2  5  1  0  0  0  0
  5  6  2  0  0  0  0
  5  7  1  0  0  0  0
  7  8  1  0  0  0  0
  7  9  1  0  0  0  0
  9 10  1  0  0  0  0
  9 11  1  0  0  0  0
  9 25  1  0  0  0  0
 11 12  1  0  0  0  0
 11 13  1  0  0  0  0
 11 14  1  0  0  0  0
 14 15  1  0  0  0  0
 14 23  2  0  0  0  0
 15 16  1  0  0  0  0
 15 17  2  0  0  0  0
 17 18  1  0  0  0  0
 17 19  1  0  0  0  0
 19 20  1  0  0  0  0
 19 21  2  0  0  0  0
 21 22  1  0  0  0  0
 21 23  1  0  0  0  0
 23 24  1  0  0  0  0
 25 26  2  0  0  0  0
 25 27  1  0  0  0  0
 27 28  1  0  0  0  0
 27 29  1  0  0  0  0
 29 30  1  0  0  0  0
 29 31  1  0  0  0  0
 29 32  1  0  0  0  0
M  END
$$$$

  -OEChem-03222214073D

 32 32  0     1  0  0  0  0  0999 V2000
   -2.9151   -4.6019    1.4765 H   0  0  0  0  0  0  0  0  0  0  0  0
   -3.0131   -3.7574    0.7885 C   0  0  0  0  0  0  0  0  0  0  0  0
   -3.8359   -3.1232    1.1266 H   0  0  0  0  0  0  0  0  0  0  0  0
   -3.2429   -4.1411   -0.2085 H   0  0  0  0  0  0  0  0  0  0  0  0
   -1.7224   -2.9603    0.7530 C   0  0  0  0  0  0  0  0  0  0  0  0
   -0.7716   -3.3112    1.4280 O   0  0  0  0  0  0  0  0  0  0  0  0
   -1.6345   -1.8383   -0.0462 N   0  0  0  0  0  0  0  0  0  0  0  0
   -2.4557   -1.5889   -0.5921 H   0  0  0  0  0  0  0  0  0  0  0  0
   -0.4380   -0.9876   -0.1814 C   0  0  1  0  0  0  0  0  0  0  0  0
    0.3717   -1.6590   -0.4894 H   0  0  0  0  0  0  0  0  0  0  0  0
   -0.5468    0.1013   -1.2866 C   0  0  0  0  0  0  0  0  0  0  0  0
   -0.6766    1.0661   -0.7840 H   0  0  0  0  0  0  0  0  0  0  0  0
    0.4210    0.1463   -1.7973 H   0  0  0  0  0  0  0  0  0  0  0  0
   -1.6334    0.0271   -2.3560 C   0  0  0  0  0  0  0  0  0  0  0  0
   -1.8753    1.1948   -3.1011 C   0  0  0  0  0  0  0  0  0  0  0  0
   -1.3777    2.1213   -2.8289 H   0  0  0  0  0  0  0  0  0  0  0  0
   -2.7701    1.2054   -4.1758 C   0  0  0  0  0  0  0  0  0  0  0  0
   -2.9670    2.1307   -4.7096 H   0  0  0  0  0  0  0  0  0  0  0  0
   -3.3974    0.0241   -4.5723 C   0  0  0  0  0  0  0  0  0  0  0  0
   -4.0882    0.0278   -5.4106 H   0  0  0  0  0  0  0  0  0  0  0  0
   -3.0973   -1.1688   -3.9141 C   0  0  0  0  0  0  0  0  0  0  0  0
   -3.5376   -2.1001   -4.2585 H   0  0  0  0  0  0  0  0  0  0  0  0
   -2.2013   -1.1721   -2.8396 C   0  0  0  0  0  0  0  0  0  0  0  0
   -1.9257   -2.1386   -2.4343 H   0  0  0  0  0  0  0  0  0  0  0  0
    0.0333   -0.3442    1.1404 C   0  0  0  0  0  0  0  0  0  0  0  0
    1.2241   -0.1235    1.3165 O   0  0  0  0  0  0  0  0  0  0  0  0
   -0.8902    0.2343    1.9929 N   0  0  0  0  0  0  0  0  0  0  0  0
   -1.8620   -0.0149    1.8417 H   0  0  0  0  0  0  0  0  0  0  0  0
   -0.5172    0.8892    3.2402 C   0  0  0  0  0  0  0  0  0  0  0  0
    0.1724    1.7178    3.0479 H   0  0  0  0  0  0  0  0  0  0  0  0
   -1.4057    1.2898    3.7372 H   0  0  0  0  0  0  0  0  0  0  0  0
   -0.0322    0.1764    3.9153 H   0  0  0  0  0  0  0  0  0  0  0  0
  1  2  1  0  0  0  0
  2  3  1  0  0  0  0
  2  4  1  0  0  0  0
  2  5  1  0  0  0  0
  5  6  2  0  0  0  0
  5  7  1  0  0  0  0
  7  8  1  0  0  0  0
  7  9  1  0  0  0  0
  9 10  1  0  0  0  0
  9 11  1  0  0  0  0
  9 25  1  0  0  0  0
 11 12  1  0  0  0  0
 11 13  1  0  0  0  0
 11 14  1  0  0  0  0
 14 15  1  0  0  0  0
 14 23  2  0  0  0  0
 15 16  1  0  0  0  0
 15 17  2  0  0  0  0
 17 18  1  0  0  0  0
 17 19  1  0  0  0  0
 19 20  1  0  0  0  0
 19 21  2  0  0  0  0
 21 22  1  0  0  0  0
 21 23  1  0  0  0  0
 23 24  1  0  0  0  0
 25 26  2  0  0  0  0
 25 27  1  0  0  0  0
 27 28  1  0  0  0  0
 27 29  1  0  0  0  0
 29 30  1  0  0  0  0
 29 31  1  0  0  0  0
 29 32  1  0  0  0  0
M  END
$$$$

  -OEChem-03222214073D

 32 32  0     1  0  0  0  0  0999 V2000
   -2.4663   -4.7189    1.7584 H   0  0  0  0  0  0  0  0  0  0  0  0
   -2.7105   -3.8958    1.0808 C   0  0  0  0  0  0  0  0  0  0  0  0
   -3.4729   -3.2695    1.5499 H   0  0  0  0  0  0  0  0  0  0  0  0
   -3.1089   -4.3117    0.1523 H   0  0  0  0  0  0  0  0  0  0  0  0
   -1.4684   -3.0751    0.7885 C   0  0  0  0  0  0  0  0  0  0  0  0
   -0.3966   -3.4075    1.2615 O   0  0  0  0  0  0  0  0  0  0  0  0
   -1.5661   -1.9491   -0.0062 N   0  0  0  0  0  0  0  0  0  0  0  0
   -2.5020   -1.6520   -0.2543 H   0  0  0  0  0  0  0  0  0  0  0  0
   -0.4664   -0.9990   -0.2302 C   0  0  1  0  0  0  0  0  0  0  0  0
    0.3734   -1.6092   -0.5825 H   0  0  0  0  0  0  0  0  0  0  0  0
   -0.6766    0.0918   -1.3268 C   0  0  0  0  0  0  0  0  0  0  0  0
   -0.5327    1.0655   -0.8449 H   0  0  0  0  0  0  0  0  0  0  0  0
    0.1606   -0.0256   -2.0234 H   0  0  0  0  0  0  0  0  0  0  0  0
   -1.9317    0.2519   -2.1924 C   0  0  0  0  0  0  0  0  0  0  0  0
   -1.8749    1.3202   -3.1077 C   0  0  0  0  0  0  0  0  0  0  0  0
   -1.0044    1.9702   -3.1221 H   0  0  0  0  0  0  0  0  0  0  0  0
   -2.9174    1.5892   -3.9987 C   0  0  0  0  0  0  0  0  0  0  0  0
   -2.8465    2.4329   -4.6792 H   0  0  0  0  0  0  0  0  0  0  0  0
   -4.0446    0.7704   -4.0165 C   0  0  0  0  0  0  0  0  0  0  0  0
   -4.8570    0.9739   -4.7084 H   0  0  0  0  0  0  0  0  0  0  0  0
   -4.1114   -0.3244   -3.1556 C   0  0  0  0  0  0  0  0  0  0  0  0
   -4.9760   -0.9810   -3.1906 H   0  0  0  0  0  0  0  0  0  0  0  0
   -3.0640   -0.5926   -2.2660 C   0  0  0  0  0  0  0  0  0  0  0  0
   -3.1841   -1.4942   -1.6896 H   0  0  0  0  0  0  0  0  0  0  0  0
    0.0392   -0.3365    1.0713 C   0  0  0  0  0  0  0  0  0  0  0  0
    1.2188   -0.0295    1.1786 O   0  0  0  0  0  0  0  0  0  0  0  0
   -0.8638    0.1453    2.0030 N   0  0  0  0  0  0  0  0  0  0  0  0
   -1.8349   -0.1210    1.8855 H   0  0  0  0  0  0  0  0  0  0  0  0
   -0.4614    0.8374    3.2208 C   0  0  0  0  0  0  0  0  0  0  0  0
    0.0857    1.7544    2.9779 H   0  0  0  0  0  0  0  0  0  0  0  0
   -1.3419    1.1072    3.8116 H   0  0  0  0  0  0  0  0  0  0  0  0
    0.1817    0.1940    3.8307 H   0  0  0  0  0  0  0  0  0  0  0  0
  1  2  1  0  0  0  0
  2  3  1  0  0  0  0
  2  4  1  0  0  0  0
  2  5  1  0  0  0  0
  5  6  2  0  0  0  0
  5  7  1  0  0  0  0
  7  8  1  0  0  0  0
  7  9  1  0  0  0  0
  9 10  1  0  0  0  0
  9 11  1  0  0  0  0
  9 25  1  0  0  0  0
 11 12  1  0  0  0  0
 11 13  1  0  0  0  0
 11 14  1  0  0  0  0
 14 15  1  0  0  0  0
 14 23  2  0  0  0  0
 15 16  1  0  0  0  0
 15 17  2  0  0  0  0
 17 18  1  0  0  0  0
 17 19  1  0  0  0  0
 19 20  1  0  0  0  0
 19 21  2  0  0  0  0
 21 22  1  0  0  0  0
 21 23  1  0  0  0  0
 23 24  1  0  0  0  0
 25 26  2  0  0  0  0
 25 27  1  0  0  0  0
 27 28  1  0  0  0  0
 27 29  1  0  0  0  0
 29 30  1  0  0  0  0
 29 31  1  0  0  0  0
 29 32  1  0  0  0  0
M  END
$$$$

  -OEChem-03222214073D

 32 32  0     1  0  0  0  0  0999 V2000
   -2.2055   -5.0095    1.1805 H   0  0  0  0  0  0  0  0  0  0  0  0
   -2.4384   -4.1680    0.5215 C   0  0  0  0  0  0  0  0  0  0  0  0
   -3.4180   -3.7682    0.7939 H   0  0  0  0  0  0  0  0  0  0  0  0
   -2.4724   -4.5294   -0.5092 H   0  0  0  0  0  0  0  0  0  0  0  0
   -1.3804   -3.0894    0.6594 C   0  0  0  0  0  0  0  0  0  0  0  0
   -0.4663   -3.2374    1.4499 O   0  0  0  0  0  0  0  0  0  0  0  0
   -1.4672   -1.9490   -0.1158 N   0  0  0  0  0  0  0  0  0  0  0  0
   -2.1487   -1.9854   -0.8690 H   0  0  0  0  0  0  0  0  0  0  0  0
   -0.3811   -0.9640   -0.2625 C   0  0  1  0  0  0  0  0  0  0  0  0
    0.4939   -1.5230   -0.6126 H   0  0  0  0  0  0  0  0  0  0  0  0
   -0.6384    0.1692   -1.3052 C   0  0  0  0  0  0  0  0  0  0  0  0
   -0.5362    1.1342   -0.7965 H   0  0  0  0  0  0  0  0  0  0  0  0
    0.1923    0.1137   -2.0166 H   0  0  0  0  0  0  0  0  0  0  0  0
   -1.9265    0.2700   -2.1232 C   0  0  0  0  0  0  0  0  0  0  0  0
   -1.8799    1.1227   -3.2418 C   0  0  0  0  0  0  0  0  0  0  0  0
   -0.9364    1.5741   -3.5359 H   0  0  0  0  0  0  0  0  0  0  0  0
   -3.0140    1.3873   -4.0157 C   0  0  0  0  0  0  0  0  0  0  0  0
   -2.9363    2.0202   -4.8952 H   0  0  0  0  0  0  0  0  0  0  0  0
   -4.2466    0.8486   -3.6498 C   0  0  0  0  0  0  0  0  0  0  0  0
   -5.1307    1.0539   -4.2467 H   0  0  0  0  0  0  0  0  0  0  0  0
   -4.3438    0.0818   -2.4889 C   0  0  0  0  0  0  0  0  0  0  0  0
   -5.3136   -0.2891   -2.1699 H   0  0  0  0  0  0  0  0  0  0  0  0
   -3.2052   -0.1760   -1.7168 C   0  0  0  0  0  0  0  0  0  0  0  0
   -3.3769   -0.6801   -0.7757 H   0  0  0  0  0  0  0  0  0  0  0  0
    0.0493   -0.3117    1.0714 C   0  0  0  0  0  0  0  0  0  0  0  0
    1.2137    0.0347    1.2229 O   0  0  0  0  0  0  0  0  0  0  0  0
   -0.9069    0.1303    1.9681 N   0  0  0  0  0  0  0  0  0  0  0  0
   -1.8414   -0.2455    1.8457 H   0  0  0  0  0  0  0  0  0  0  0  0
   -0.5693    0.7769    3.2296 C   0  0  0  0  0  0  0  0  0  0  0  0
    0.0505    1.6624    3.0538 H   0  0  0  0  0  0  0  0  0  0  0  0
   -1.4794    1.0931    3.7480 H   0  0  0  0  0  0  0  0  0  0  0  0
   -0.0205    0.0853    3.8773 H   0  0  0  0  0  0  0  0  0  0  0  0
  1  2  1  0  0  0  0
  2  3  1  0  0  0  0
  2  4  1  0  0  0  0
  2  5  1  0  0  0  0
  5  6  2  0  0  0  0
  5  7  1  0  0  0  0
  7  8  1  0  0  0  0
  7  9  1  0  0  0  0
  9 10  1  0  0  0  0
  9 11  1  0  0  0  0
  9 25  1  0  0  0  0
 11 12  1  0  0  0  0
 11 13  1  0  0  0  0
 11 14  1  0  0  0  0
 14 15  1  0  0  0  0
 14 23  2  0  0  0  0
 15 16  1  0  0  0  0
 15 17  2  0  0  0  0
 17 18  1  0  0  0  0
 17 19  1  0  0  0  0
 19 20  1  0  0  0  0
 19 21  2  0  0  0  0
 21 22  1  0  0  0  0
 21 23  1  0  0  0  0
 23 24  1  0  0  0  0
 25 26  2  0  0  0  0
 25 27  1  0  0  0  0
 27 28  1  0  0  0  0
 27 29  1  0  0  0  0
 29 30  1  0  0  0  0
 29 31  1  0  0  0  0
 29 32  1  0  0  0  0
M  END
$$$$

  -OEChem-03222214073D

 32 32  0     1  0  0  0  0  0999 V2000
   -2.6746   -4.8140    1.2494 H   0  0  0  0  0  0  0  0  0  0  0  0
   -2.7996   -3.9647    0.5717 C   0  0  0  0  0  0  0  0  0  0  0  0
   -3.7297   -3.4492    0.8226 H   0  0  0  0  0  0  0  0  0  0  0  0
   -2.8624   -4.3403   -0.4525 H   0  0  0  0  0  0  0  0  0  0  0  0
   -1.6252   -3.0132    0.7048 C   0  0  0  0  0  0  0  0  0  0  0  0
   -0.7515   -3.2413    1.5217 O   0  0  0  0  0  0  0  0  0  0  0  0
   -1.5619   -1.8913   -0.0982 N   0  0  0  0  0  0  0  0  0  0  0  0
   -2.2432   -1.8425   -0.8524 H   0  0  0  0  0  0  0  0  0  0  0  0
   -0.3834   -1.0111   -0.2110 C   0  0  1  0  0  0  0  0  0  0  0  0
    0.4544   -1.6527   -0.5061 H   0  0  0  0  0  0  0  0  0  0  0  0
   -0.5110    0.0982   -1.2989 C   0  0  0  0  0  0  0  0  0  0  0  0
   -0.3694    1.0772   -0.8271 H   0  0  0  0  0  0  0  0  0  0  0  0
    0.3348   -0.0361   -1.9810 H   0  0  0  0  0  0  0  0  0  0  0  0
   -1.7841    0.2020   -2.1320 C   0  0  0  0  0  0  0  0  0  0  0  0
   -1.6743    0.6936   -3.4444 C   0  0  0  0  0  0  0  0  0  0  0  0
   -0.6938    0.8783   -3.8739 H   0  0  0  0  0  0  0  0  0  0  0  0
   -2.8065    0.9296   -4.2314 C   0  0  0  0  0  0  0  0  0  0  0  0
   -2.6934    1.2759   -5.2548 H   0  0  0  0  0  0  0  0  0  0  0  0
   -4.0812    0.7357   -3.6970 C   0  0  0  0  0  0  0  0  0  0  0  0
   -4.9617    0.9238   -4.3050 H   0  0  0  0  0  0  0  0  0  0  0  0
   -4.2175    0.3397   -2.3657 C   0  0  0  0  0  0  0  0  0  0  0  0
   -5.2081    0.2408   -1.9313 H   0  0  0  0  0  0  0  0  0  0  0  0
   -3.0809    0.1060   -1.5840 C   0  0  0  0  0  0  0  0  0  0  0  0
   -3.2303   -0.1110   -0.5321 H   0  0  0  0  0  0  0  0  0  0  0  0
    0.0409   -0.3600    1.1242 C   0  0  0  0  0  0  0  0  0  0  0  0
    1.2229   -0.1130    1.3252 O   0  0  0  0  0  0  0  0  0  0  0  0
   -0.9146    0.1928    1.9581 N   0  0  0  0  0  0  0  0  0  0  0  0
   -1.8687   -0.1154    1.8051 H   0  0  0  0  0  0  0  0  0  0  0  0
   -0.5817    0.8351    3.2231 C   0  0  0  0  0  0  0  0  0  0  0  0
    0.1255    1.6559    3.0637 H   0  0  0  0  0  0  0  0  0  0  0  0
   -1.4833    1.2451    3.6880 H   0  0  0  0  0  0  0  0  0  0  0  0
   -0.1319    0.1115    3.9109 H   0  0  0  0  0  0  0  0  0  0  0  0
  1  2  1  0  0  0  0
  2  3  1  0  0  0  0
  2  4  1  0  0  0  0
  2  5  1  0  0  0  0
  5  6  2  0  0  0  0
  5  7  1  0  0  0  0
  7  8  1  0  0  0  0
  7  9  1  0  0  0  0
  9 10  1  0  0  0  0
  9 11  1  0  0  0  0
  9 25  1  0  0  0  0
 11 12  1  0  0  0  0
 11 13  1  0  0  0  0
 11 14  1  0  0  0  0
 14 15  1  0  0  0  0
 14 23  2  0  0  0  0
 15 16  1  0  0  0  0
 15 17  2  0  0  0  0
 17 18  1  0  0  0  0
 17 19  1  0  0  0  0
 19 20  1  0  0  0  0
 19 21  2  0  0  0  0
 21 22  1  0  0  0  0
 21 23  1  0  0  0  0
 23 24  1  0  0  0  0
 25 26  2  0  0  0  0
 25 27  1  0  0  0  0
 27 28  1  0  0  0  0
 27 29  1  0  0  0  0
 29 30  1  0  0  0  0
 29 31  1  0  0  0  0
 29 32  1  0  0  0  0
M  END
$$$$

  -OEChem-03222214073D

 32 32  0     1  0  0  0  0  0999 V2000
   -2.8240   -4.7275    1.1486 H   0  0  0  0  0  0  0  0  0  0  0  0
   -2.9063   -3.8609    0.4864 C   0  0  0  0  0  0  0  0  0  0  0  0
   -3.8158   -3.3101    0.7384 H   0  0  0  0  0  0  0  0  0  0  0  0
   -2.9751   -4.2138   -0.5454 H   0  0  0  0  0  0  0  0  0  0  0  0
   -1.6937   -2.9632    0.6473 C   0  0  0  0  0  0  0  0  0  0  0  0
   -0.8366   -3.2414    1.4665 O   0  0  0  0  0  0  0  0  0  0  0  0
   -1.5769   -1.8302   -0.1327 N   0  0  0  0  0  0  0  0  0  0  0  0
   -2.2673   -1.7162   -0.8720 H   0  0  0  0  0  0  0  0  0  0  0  0
   -0.3694   -0.9840   -0.2090 C   0  0  1  0  0  0  0  0  0  0  0  0
    0.4542   -1.6433   -0.5049 H   0  0  0  0  0  0  0  0  0  0  0  0
   -0.4642    0.1367   -1.2845 C   0  0  0  0  0  0  0  0  0  0  0  0
   -0.3213    1.1118   -0.8059 H   0  0  0  0  0  0  0  0  0  0  0  0
    0.3820    0.0057   -1.9666 H   0  0  0  0  0  0  0  0  0  0  0  0
   -1.7470    0.2232   -2.0965 C   0  0  0  0  0  0  0  0  0  0  0  0
   -1.6722    0.3957   -3.4882 C   0  0  0  0  0  0  0  0  0  0  0  0
   -0.7082    0.3807   -3.9886 H   0  0  0  0  0  0  0  0  0  0  0  0
   -2.8292    0.5703   -4.2548 C   0  0  0  0  0  0  0  0  0  0  0  0
   -2.7549    0.6762   -5.3334 H   0  0  0  0  0  0  0  0  0  0  0  0
   -4.0791    0.6199   -3.6335 C   0  0  0  0  0  0  0  0  0  0  0  0
   -4.9771    0.7598   -4.2284 H   0  0  0  0  0  0  0  0  0  0  0  0
   -4.1667    0.5196   -2.2432 C   0  0  0  0  0  0  0  0  0  0  0  0
   -5.1344    0.5966   -1.7557 H   0  0  0  0  0  0  0  0  0  0  0  0
   -3.0073    0.3452   -1.4803 C   0  0  0  0  0  0  0  0  0  0  0  0
   -3.0916    0.3237   -0.3981 H   0  0  0  0  0  0  0  0  0  0  0  0
    0.0549   -0.3656    1.1408 C   0  0  0  0  0  0  0  0  0  0  0  0
    1.2401   -0.1499    1.3575 O   0  0  0  0  0  0  0  0  0  0  0  0
   -0.8955    0.2047    1.9685 N   0  0  0  0  0  0  0  0  0  0  0  0
   -1.8545   -0.0825    1.8058 H   0  0  0  0  0  0  0  0  0  0  0  0
   -0.5585    0.8255    3.2432 C   0  0  0  0  0  0  0  0  0  0  0  0
    0.1588    1.6398    3.0963 H   0  0  0  0  0  0  0  0  0  0  0  0
   -1.4564    1.2402    3.7108 H   0  0  0  0  0  0  0  0  0  0  0  0
   -0.1197    0.0876    3.9232 H   0  0  0  0  0  0  0  0  0  0  0  0
  1  2  1  0  0  0  0
  2  3  1  0  0  0  0
  2  4  1  0  0  0  0
  2  5  1  0  0  0  0
  5  6  2  0  0  0  0
  5  7  1  0  0  0  0
  7  8  1  0  0  0  0
  7  9  1  0  0  0  0
  9 10  1  0  0  0  0
  9 11  1  0  0  0  0
  9 25  1  0  0  0  0
 11 12  1  0  0  0  0
 11 13  1  0  0  0  0
 11 14  1  0  0  0  0
 14 15  1  0  0  0  0
 14 23  2  0  0  0  0
 15 16  1  0  0  0  0
 15 17  2  0  0  0  0
 17 18  1  0  0  0  0
 17 19  1  0  0  0  0
 19 20  1  0  0  0  0
 19 21  2  0  0  0  0
 21 22  1  0  0  0  0
 21 23  1  0  0  0  0
 23 24  1  0  0  0  0
 25 26  2  0  0  0  0
 25 27  1  0  0  0  0
 27 28  1  0  0  0  0
 27 29  1  0  0  0  0
 29 30  1  0  0  0  0
 29 31  1  0  0  0  0
 29 32  1  0  0  0  0
M  END
$$$$

  -OEChem-03222214073D

 32 32  0     1  0  0  0  0  0999 V2000
   -2.9556   -4.6256    1.0805 H   0  0  0  0  0  0  0  0  0  0  0  0
   -2.9958   -3.7533    0.4220 C   0  0  0  0  0  0  0  0  0  0  0  0
   -3.8796   -3.1622    0.6738 H   0  0  0  0  0  0  0  0  0  0  0  0
   -3.0782   -4.0971   -0.6119 H   0  0  0  0  0  0  0  0  0  0  0  0
   -1.7434   -2.9135    0.5909 C   0  0  0  0  0  0  0  0  0  0  0  0
   -0.8949   -3.2414    1.4010 O   0  0  0  0  0  0  0  0  0  0  0  0
   -1.5790   -1.7744   -0.1705 N   0  0  0  0  0  0  0  0  0  0  0  0
   -2.2768   -1.6012   -0.8918 H   0  0  0  0  0  0  0  0  0  0  0  0
   -0.3483   -0.9590   -0.2159 C   0  0  1  0  0  0  0  0  0  0  0  0
    0.4647   -1.6315   -0.5112 H   0  0  0  0  0  0  0  0  0  0  0  0
   -0.4173    0.1721   -1.2792 C   0  0  0  0  0  0  0  0  0  0  0  0
   -0.2688    1.1436   -0.7948 H   0  0  0  0  0  0  0  0  0  0  0  0
    0.4250    0.0410   -1.9659 H   0  0  0  0  0  0  0  0  0  0  0  0
   -1.7088    0.2479   -2.0723 C   0  0  0  0  0  0  0  0  0  0  0  0
   -1.6938    0.1032   -3.4680 C   0  0  0  0  0  0  0  0  0  0  0  0
   -0.7636   -0.1118   -3.9860 H   0  0  0  0  0  0  0  0  0  0  0  0
   -2.8744    0.2204   -4.2094 C   0  0  0  0  0  0  0  0  0  0  0  0
   -2.8516    0.0919   -5.2878 H   0  0  0  0  0  0  0  0  0  0  0  0
   -4.0802    0.5115   -3.5654 C   0  0  0  0  0  0  0  0  0  0  0  0
   -4.9955    0.6065   -4.1427 H   0  0  0  0  0  0  0  0  0  0  0  0
   -4.1014    0.7006   -2.1810 C   0  0  0  0  0  0  0  0  0  0  0  0
   -5.0332    0.9523   -1.6827 H   0  0  0  0  0  0  0  0  0  0  0  0
   -2.9199    0.5827   -1.4418 C   0  0  0  0  0  0  0  0  0  0  0  0
   -2.9421    0.7596   -0.3704 H   0  0  0  0  0  0  0  0  0  0  0  0
    0.0685   -0.3687    1.1484 C   0  0  0  0  0  0  0  0  0  0  0  0
    1.2544   -0.1837    1.3886 O   0  0  0  0  0  0  0  0  0  0  0  0
   -0.8828    0.2156    1.9655 N   0  0  0  0  0  0  0  0  0  0  0  0
   -1.8436   -0.0578    1.7883 H   0  0  0  0  0  0  0  0  0  0  0  0
   -0.5537    0.8146    3.2530 C   0  0  0  0  0  0  0  0  0  0  0  0
    0.1734    1.6237    3.1261 H   0  0  0  0  0  0  0  0  0  0  0  0
   -1.4528    1.2312    3.7168 H   0  0  0  0  0  0  0  0  0  0  0  0
   -0.1300    0.0624    3.9268 H   0  0  0  0  0  0  0  0  0  0  0  0
  1  2  1  0  0  0  0
  2  3  1  0  0  0  0
  2  4  1  0  0  0  0
  2  5  1  0  0  0  0
  5  6  2  0  0  0  0
  5  7  1  0  0  0  0
  7  8  1  0  0  0  0
  7  9  1  0  0  0  0
  9 10  1  0  0  0  0
  9 11  1  0  0  0  0
  9 25  1  0  0  0  0
 11 12  1  0  0  0  0
 11 13  1  0  0  0  0
 11 14  1  0  0  0  0
 14 15  1  0  0  0  0
 14 23  2  0  0  0  0
 15 16  1  0  0  0  0
 15 17  2  0  0  0  0
 17 18  1  0  0  0  0
 17 19  1  0  0  0  0
 19 20  1  0  0  0  0
 19 21  2  0  0  0  0
 21 22  1  0  0  0  0
 21 23  1  0  0  0  0
 23 24  1  0  0  0  0
 25 26  2  0  0  0  0
 25 27  1  0  0  0  0
 27 28  1  0  0  0  0
 27 29  1  0  0  0  0
 29 30  1  0  0  0  0
 29 31  1  0  0  0  0
 29 32  1  0  0  0  0
M  END
$$$$

  -OEChem-03222214073D

 32 32  0     1  0  0  0  0  0999 V2000
   -3.0353   -4.5567    1.0345 H   0  0  0  0  0  0  0  0  0  0  0  0
   -3.0535   -3.6770    0.3848 C   0  0  0  0  0  0  0  0  0  0  0  0
   -3.9191   -3.0638    0.6460 H   0  0  0  0  0  0  0  0  0  0  0  0
   -3.1497   -4.0081   -0.6522 H   0  0  0  0  0  0  0  0  0  0  0  0
   -1.7772   -2.8745    0.5562 C   0  0  0  0  0  0  0  0  0  0  0  0
   -0.9348   -3.2350    1.3587 O   0  0  0  0  0  0  0  0  0  0  0  0
   -1.5819   -1.7354   -0.1977 N   0  0  0  0  0  0  0  0  0  0  0  0
   -2.2855   -1.5231   -0.9028 H   0  0  0  0  0  0  0  0  0  0  0  0
   -0.3351   -0.9428   -0.2260 C   0  0  1  0  0  0  0  0  0  0  0  0
    0.4700   -1.6256   -0.5193 H   0  0  0  0  0  0  0  0  0  0  0  0
   -0.3829    0.1962   -1.2796 C   0  0  0  0  0  0  0  0  0  0  0  0
   -0.2205    1.1638   -0.7914 H   0  0  0  0  0  0  0  0  0  0  0  0
    0.4530    0.0586   -1.9731 H   0  0  0  0  0  0  0  0  0  0  0  0
   -1.6783    0.2728   -2.0603 C   0  0  0  0  0  0  0  0  0  0  0  0
   -1.7384   -0.1715   -3.3891 C   0  0  0  0  0  0  0  0  0  0  0  0
   -0.8546   -0.5832   -3.8680 H   0  0  0  0  0  0  0  0  0  0  0  0
   -2.9360   -0.0956   -4.1081 C   0  0  0  0  0  0  0  0  0  0  0  0
   -2.9750   -0.4467   -5.1353 H   0  0  0  0  0  0  0  0  0  0  0  0
   -4.0808    0.4372   -3.5079 C   0  0  0  0  0  0  0  0  0  0  0  0
   -5.0091    0.5008   -4.0689 H   0  0  0  0  0  0  0  0  0  0  0  0
   -4.0257    0.8997   -2.1898 C   0  0  0  0  0  0  0  0  0  0  0  0
   -4.9111    1.3268   -1.7276 H   0  0  0  0  0  0  0  0  0  0  0  0
   -2.8280    0.8228   -1.4716 C   0  0  0  0  0  0  0  0  0  0  0  0
   -2.7888    1.1965   -0.4523 H   0  0  0  0  0  0  0  0  0  0  0  0
    0.0755   -0.3674    1.1459 C   0  0  0  0  0  0  0  0  0  0  0  0
    1.2610   -0.2045    1.4026 O   0  0  0  0  0  0  0  0  0  0  0  0
   -0.8764    0.2298    1.9528 N   0  0  0  0  0  0  0  0  0  0  0  0
   -1.8400   -0.0188    1.7551 H   0  0  0  0  0  0  0  0  0  0  0  0
   -0.5564    0.8071    3.2522 C   0  0  0  0  0  0  0  0  0  0  0  0
    0.1912    1.6005    3.1472 H   0  0  0  0  0  0  0  0  0  0  0  0
   -1.4537    1.2390    3.7056 H   0  0  0  0  0  0  0  0  0  0  0  0
   -0.1614    0.0379    3.9244 H   0  0  0  0  0  0  0  0  0  0  0  0
  1  2  1  0  0  0  0
  2  3  1  0  0  0  0
  2  4  1  0  0  0  0
  2  5  1  0  0  0  0
  5  6  2  0  0  0  0
  5  7  1  0  0  0  0
  7  8  1  0  0  0  0
  7  9  1  0  0  0  0
  9 10  1  0  0  0  0
  9 11  1  0  0  0  0
  9 25  1  0  0  0  0
 11 12  1  0  0  0  0
 11 13  1  0  0  0  0
 11 14  1  0  0  0  0
 14 15  1  0  0  0  0
 14 23  2  0  0  0  0
 15 16  1  0  0  0  0
 15 17  2  0  0  0  0
 17 18  1  0  0  0  0
 17 19  1  0  0  0  0
 19 20  1  0  0  0  0
 19 21  2  0  0  0  0
 21 22  1  0  0  0  0
 21 23  1  0  0  0  0
 23 24  1  0  0  0  0
 25 26  2  0  0  0  0
 25 27  1  0  0  0  0
 27 28  1  0  0  0  0
 27 29  1  0  0  0  0
 29 30  1  0  0  0  0
 29 31  1  0  0  0  0
 29 32  1  0  0  0  0
M  END
$$$$

  -OEChem-03222214073D

 32 32  0     1  0  0  0  0  0999 V2000
   -3.0863   -4.5078    1.0148 H   0  0  0  0  0  0  0  0  0  0  0  0
   -3.0876   -3.6258    0.3681 C   0  0  0  0  0  0  0  0  0  0  0  0
   -3.9366   -2.9929    0.6372 H   0  0  0  0  0  0  0  0  0  0  0  0
   -3.1977   -3.9510   -0.6693 H   0  0  0  0  0  0  0  0  0  0  0  0
   -1.7919   -2.8541    0.5327 C   0  0  0  0  0  0  0  0  0  0  0  0
   -0.9497   -3.2395    1.3237 O   0  0  0  0  0  0  0  0  0  0  0  0
   -1.5774   -1.7158   -0.2169 N   0  0  0  0  0  0  0  0  0  0  0  0
   -2.2889   -1.4725   -0.9040 H   0  0  0  0  0  0  0  0  0  0  0  0
   -0.3223   -0.9361   -0.2350 C   0  0  1  0  0  0  0  0  0  0  0  0
    0.4792   -1.6237   -0.5267 H   0  0  0  0  0  0  0  0  0  0  0  0
   -0.3589    0.2090   -1.2816 C   0  0  0  0  0  0  0  0  0  0  0  0
   -0.1843    1.1727   -0.7900 H   0  0  0  0  0  0  0  0  0  0  0  0
    0.4710    0.0670   -1.9815 H   0  0  0  0  0  0  0  0  0  0  0  0
   -1.6557    0.2901   -2.0575 C   0  0  0  0  0  0  0  0  0  0  0  0
   -1.8130   -0.4205   -3.2564 C   0  0  0  0  0  0  0  0  0  0  0  0
   -0.9945   -1.0194   -3.6458 H   0  0  0  0  0  0  0  0  0  0  0  0
   -3.0229   -0.3687   -3.9564 C   0  0  0  0  0  0  0  0  0  0  0  0
   -3.1368   -0.9207   -4.8851 H   0  0  0  0  0  0  0  0  0  0  0  0
   -4.0838    0.3974   -3.4638 C   0  0  0  0  0  0  0  0  0  0  0  0
   -5.0217    0.4422   -4.0104 H   0  0  0  0  0  0  0  0  0  0  0  0
   -3.9335    1.1129   -2.2720 C   0  0  0  0  0  0  0  0  0  0  0  0
   -4.7545    1.7147   -1.8929 H   0  0  0  0  0  0  0  0  0  0  0  0
   -2.7237    1.0593   -1.5719 C   0  0  0  0  0  0  0  0  0  0  0  0
   -2.6141    1.6202   -0.6479 H   0  0  0  0  0  0  0  0  0  0  0  0
    0.0803   -0.3692    1.1426 C   0  0  0  0  0  0  0  0  0  0  0  0
    1.2646   -0.2219    1.4143 O   0  0  0  0  0  0  0  0  0  0  0  0
   -0.8753    0.2344    1.9404 N   0  0  0  0  0  0  0  0  0  0  0  0
   -1.8400    0.0057    1.7240 H   0  0  0  0  0  0  0  0  0  0  0  0
   -0.5668    0.8037    3.2457 C   0  0  0  0  0  0  0  0  0  0  0  0
    0.1927    1.5874    3.1531 H   0  0  0  0  0  0  0  0  0  0  0  0
   -1.4648    1.2459    3.6873 H   0  0  0  0  0  0  0  0  0  0  0  0
   -0.1923    0.0273    3.9212 H   0  0  0  0  0  0  0  0  0  0  0  0
  1  2  1  0  0  0  0
  2  3  1  0  0  0  0
  2  4  1  0  0  0  0
  2  5  1  0  0  0  0
  5  6  2  0  0  0  0
  5  7  1  0  0  0  0
  7  8  1  0  0  0  0
  7  9  1  0  0  0  0
  9 10  1  0  0  0  0
  9 11  1  0  0  0  0
  9 25  1  0  0  0  0
 11 12  1  0  0  0  0
 11 13  1  0  0  0  0
 11 14  1  0  0  0  0
 14 15  1  0  0  0  0
 14 23  2  0  0  0  0
 15 16  1  0  0  0  0
 15 17  2  0  0  0  0
 17 18  1  0  0  0  0
 17 19  1  0  0  0  0
 19 20  1  0  0  0  0
 19 21  2  0  0  0  0
 21 22  1  0  0  0  0
 21 23  1  0  0  0  0
 23 24  1  0  0  0  0
 25 26  2  0  0  0  0
 25 27  1  0  0  0  0
 27 28  1  0  0  0  0
 27 29  1  0  0  0  0
 29 30  1  0  0  0  0
 29 31  1  0  0  0  0
 29 32  1  0  0  0  0
M  END
$$$$

  -OEChem-03222214073D

 32 32  0     1  0  0  0  0  0999 V2000
   -3.0882   -4.4992    1.0442 H   0  0  0  0  0  0  0  0  0  0  0  0
   -3.0933   -3.6187    0.3952 C   0  0  0  0  0  0  0  0  0  0  0  0
   -3.9284   -2.9749    0.6814 H   0  0  0  0  0  0  0  0  0  0  0  0
   -3.2311   -3.9448   -0.6385 H   0  0  0  0  0  0  0  0  0  0  0  0
   -1.7846   -2.8631    0.5300 C   0  0  0  0  0  0  0  0  0  0  0  0
   -0.9286   -3.2616    1.2994 O   0  0  0  0  0  0  0  0  0  0  0  0
   -1.5739   -1.7239   -0.2195 N   0  0  0  0  0  0  0  0  0  0  0  0
   -2.3023   -1.4612   -0.8812 H   0  0  0  0  0  0  0  0  0  0  0  0
   -0.3215   -0.9399   -0.2371 C   0  0  1  0  0  0  0  0  0  0  0  0
    0.4829   -1.6249   -0.5278 H   0  0  0  0  0  0  0  0  0  0  0  0
   -0.3575    0.2089   -1.2807 C   0  0  0  0  0  0  0  0  0  0  0  0
   -0.1742    1.1689   -0.7859 H   0  0  0  0  0  0  0  0  0  0  0  0
    0.4704    0.0639   -1.9823 H   0  0  0  0  0  0  0  0  0  0  0  0
   -1.6481    0.3017   -2.0673 C   0  0  0  0  0  0  0  0  0  0  0  0
   -1.9254   -0.6203   -3.0892 C   0  0  0  0  0  0  0  0  0  0  0  0
   -1.1939   -1.3823   -3.3450 H   0  0  0  0  0  0  0  0  0  0  0  0
   -3.1366   -0.5642   -3.7863 C   0  0  0  0  0  0  0  0  0  0  0  0
   -3.3389   -1.2762   -4.5815 H   0  0  0  0  0  0  0  0  0  0  0  0
   -4.0837    0.4127   -3.4645 C   0  0  0  0  0  0  0  0  0  0  0  0
   -5.0226    0.4607   -4.0091 H   0  0  0  0  0  0  0  0  0  0  0  0
   -3.8178    1.3326   -2.4454 C   0  0  0  0  0  0  0  0  0  0  0  0
   -4.5507    2.0946   -2.1958 H   0  0  0  0  0  0  0  0  0  0  0  0
   -2.6059    1.2757   -1.7491 C   0  0  0  0  0  0  0  0  0  0  0  0
   -2.4121    1.9938   -0.9574 H   0  0  0  0  0  0  0  0  0  0  0  0
    0.0771   -0.3727    1.1414 C   0  0  0  0  0  0  0  0  0  0  0  0
    1.2603   -0.2273    1.4185 O   0  0  0  0  0  0  0  0  0  0  0  0
   -0.8807    0.2272    1.9392 N   0  0  0  0  0  0  0  0  0  0  0  0
   -1.8467    0.0143    1.7122 H   0  0  0  0  0  0  0  0  0  0  0  0
   -0.5751    0.8027    3.2425 C   0  0  0  0  0  0  0  0  0  0  0  0
    0.1957    1.5751    3.1505 H   0  0  0  0  0  0  0  0  0  0  0  0
   -1.4702    1.2610    3.6731 H   0  0  0  0  0  0  0  0  0  0  0  0
   -0.2163    0.0268    3.9269 H   0  0  0  0  0  0  0  0  0  0  0  0
  1  2  1  0  0  0  0
  2  3  1  0  0  0  0
  2  4  1  0  0  0  0
  2  5  1  0  0  0  0
  5  6  2  0  0  0  0
  5  7  1  0  0  0  0
  7  8  1  0  0  0  0
  7  9  1  0  0  0  0
  9 10  1  0  0  0  0
  9 11  1  0  0  0  0
  9 25  1  0  0  0  0
 11 12  1  0  0  0  0
 11 13  1  0  0  0  0
 11 14  1  0  0  0  0
 14 15  1  0  0  0  0
 14 23  2  0  0  0  0
 15 16  1  0  0  0  0
 15 17  2  0  0  0  0
 17 18  1  0  0  0  0
 17 19  1  0  0  0  0
 19 20  1  0  0  0  0
 19 21  2  0  0  0  0
 21 22  1  0  0  0  0
 21 23  1  0  0  0  0
 23 24  1  0  0  0  0
 25 26  2  0  0  0  0
 25 27  1  0  0  0  0
 27 28  1  0  0  0  0
 27 29  1  0  0  0  0
 29 30  1  0  0  0  0
 29 31  1  0  0  0  0
 29 32  1  0  0  0  0
M  END
$$$$

  -OEChem-03222214073D

 32 32  0     1  0  0  0  0  0999 V2000
   -3.0275   -4.5358    1.1300 H   0  0  0  0  0  0  0  0  0  0  0  0
   -3.0559   -3.6602    0.4751 C   0  0  0  0  0  0  0  0  0  0  0  0
   -3.8843   -3.0175    0.7819 H   0  0  0  0  0  0  0  0  0  0  0  0
   -3.2230   -3.9943   -0.5516 H   0  0  0  0  0  0  0  0  0  0  0  0
   -1.7471   -2.8983    0.5649 C   0  0  0  0  0  0  0  0  0  0  0  0
   -0.8627   -3.2928    1.3034 O   0  0  0  0  0  0  0  0  0  0  0  0
   -1.5672   -1.7596   -0.1935 N   0  0  0  0  0  0  0  0  0  0  0  0
   -2.3280   -1.4862   -0.8124 H   0  0  0  0  0  0  0  0  0  0  0  0
   -0.3320   -0.9515   -0.2297 C   0  0  1  0  0  0  0  0  0  0  0  0
    0.4815   -1.6261   -0.5192 H   0  0  0  0  0  0  0  0  0  0  0  0
   -0.3808    0.1919   -1.2821 C   0  0  0  0  0  0  0  0  0  0  0  0
   -0.1932    1.1509   -0.7868 H   0  0  0  0  0  0  0  0  0  0  0  0
    0.4500    0.0433   -1.9793 H   0  0  0  0  0  0  0  0  0  0  0  0
   -1.6575    0.3021   -2.0970 C   0  0  0  0  0  0  0  0  0  0  0  0
   -2.0954   -0.7561   -2.9132 C   0  0  0  0  0  0  0  0  0  0  0  0
   -1.4890   -1.6529   -3.0084 H   0  0  0  0  0  0  0  0  0  0  0  0
   -3.2984   -0.6623   -3.6204 C   0  0  0  0  0  0  0  0  0  0  0  0
   -3.6216   -1.4819   -4.2560 H   0  0  0  0  0  0  0  0  0  0  0  0
   -4.0814    0.4906   -3.5168 C   0  0  0  0  0  0  0  0  0  0  0  0
   -5.0142    0.5672   -4.0686 H   0  0  0  0  0  0  0  0  0  0  0  0
   -3.6586    1.5487   -2.7073 C   0  0  0  0  0  0  0  0  0  0  0  0
   -4.2645    2.4467   -2.6280 H   0  0  0  0  0  0  0  0  0  0  0  0
   -2.4547    1.4532   -2.0009 C   0  0  0  0  0  0  0  0  0  0  0  0
   -2.1437    2.2828   -1.3725 H   0  0  0  0  0  0  0  0  0  0  0  0
    0.0655   -0.3706    1.1442 C   0  0  0  0  0  0  0  0  0  0  0  0
    1.2478   -0.2049    1.4137 O   0  0  0  0  0  0  0  0  0  0  0  0
   -0.8967    0.2132    1.9490 N   0  0  0  0  0  0  0  0  0  0  0  0
   -1.8624    0.0040    1.7179 H   0  0  0  0  0  0  0  0  0  0  0  0
   -0.5942    0.7980    3.2491 C   0  0  0  0  0  0  0  0  0  0  0  0
    0.1441    1.6002    3.1475 H   0  0  0  0  0  0  0  0  0  0  0  0
   -1.5001    1.2198    3.6946 H   0  0  0  0  0  0  0  0  0  0  0  0
   -0.1954    0.0359    3.9270 H   0  0  0  0  0  0  0  0  0  0  0  0
  1  2  1  0  0  0  0
  2  3  1  0  0  0  0
  2  4  1  0  0  0  0
  2  5  1  0  0  0  0
  5  6  2  0  0  0  0
  5  7  1  0  0  0  0
  7  8  1  0  0  0  0
  7  9  1  0  0  0  0
  9 10  1  0  0  0  0
  9 11  1  0  0  0  0
  9 25  1  0  0  0  0
 11 12  1  0  0  0  0
 11 13  1  0  0  0  0
 11 14  1  0  0  0  0
 14 15  1  0  0  0  0
 14 23  2  0  0  0  0
 15 16  1  0  0  0  0
 15 17  2  0  0  0  0
 17 18  1  0  0  0  0
 17 19  1  0  0  0  0
 19 20  1  0  0  0  0
 19 21  2  0  0  0  0
 21 22  1  0  0  0  0
 21 23  1  0  0  0  0
 23 24  1  0  0  0  0
 25 26  2  0  0  0  0
 25 27  1  0  0  0  0
 27 28  1  0  0  0  0
 27 29  1  0  0  0  0
 29 30  1  0  0  0  0
 29 31  1  0  0  0  0
 29 32  1  0  0  0  0
M  END
$$$$

  -OEChem-03222214073D

 32 32  0     1  0  0  0  0  0999 V2000
   -2.9137   -4.6023    1.2669 H   0  0  0  0  0  0  0  0  0  0  0  0
   -2.9862   -3.7347    0.6046 C   0  0  0  0  0  0  0  0  0  0  0  0
   -3.8075   -3.0999    0.9452 H   0  0  0  0  0  0  0  0  0  0  0  0
   -3.1989   -4.0830   -0.4089 H   0  0  0  0  0  0  0  0  0  0  0  0
   -1.6850   -2.9547    0.6215 C   0  0  0  0  0  0  0  0  0  0  0  0
   -0.7564   -3.3349    1.3116 O   0  0  0  0  0  0  0  0  0  0  0  0
   -1.5618   -1.8160   -0.1489 N   0  0  0  0  0  0  0  0  0  0  0  0
   -2.3725   -1.5321   -0.6942 H   0  0  0  0  0  0  0  0  0  0  0  0
   -0.3579   -0.9662   -0.2163 C   0  0  1  0  0  0  0  0  0  0  0  0
    0.4704   -1.6232   -0.5049 H   0  0  0  0  0  0  0  0  0  0  0  0
   -0.4283    0.1651   -1.2851 C   0  0  0  0  0  0  0  0  0  0  0  0
   -0.2533    1.1256   -0.7879 H   0  0  0  0  0  0  0  0  0  0  0  0
    0.4153    0.0218   -1.9679 H   0  0  0  0  0  0  0  0  0  0  0  0
   -1.6816    0.2931   -2.1430 C   0  0  0  0  0  0  0  0  0  0  0  0
   -2.3087   -0.8109   -2.7526 C   0  0  0  0  0  0  0  0  0  0  0  0
   -1.8555   -1.7966   -2.6977 H   0  0  0  0  0  0  0  0  0  0  0  0
   -3.4932   -0.6562   -3.4801 C   0  0  0  0  0  0  0  0  0  0  0  0
   -3.9565   -1.5160   -3.9555 H   0  0  0  0  0  0  0  0  0  0  0  0
   -4.0735    0.6076   -3.6090 C   0  0  0  0  0  0  0  0  0  0  0  0
   -4.9910    0.7315   -4.1773 H   0  0  0  0  0  0  0  0  0  0  0  0
   -3.4639    1.7146   -3.0144 C   0  0  0  0  0  0  0  0  0  0  0  0
   -3.9096    2.7000   -3.1170 H   0  0  0  0  0  0  0  0  0  0  0  0
   -2.2791    1.5565   -2.2876 C   0  0  0  0  0  0  0  0  0  0  0  0
   -1.8259    2.4308   -1.8290 H   0  0  0  0  0  0  0  0  0  0  0  0
    0.0435   -0.3631    1.1472 C   0  0  0  0  0  0  0  0  0  0  0  0
    1.2241   -0.1592    1.3968 O   0  0  0  0  0  0  0  0  0  0  0  0
   -0.9223    0.1916    1.9680 N   0  0  0  0  0  0  0  0  0  0  0  0
   -1.8869   -0.0325    1.7473 H   0  0  0  0  0  0  0  0  0  0  0  0
   -0.6151    0.8002    3.2558 C   0  0  0  0  0  0  0  0  0  0  0  0
    0.0746    1.6412    3.1281 H   0  0  0  0  0  0  0  0  0  0  0  0
   -1.5300    1.1735    3.7255 H   0  0  0  0  0  0  0  0  0  0  0  0
   -0.1551    0.0654    3.9252 H   0  0  0  0  0  0  0  0  0  0  0  0
  1  2  1  0  0  0  0
  2  3  1  0  0  0  0
  2  4  1  0  0  0  0
  2  5  1  0  0  0  0
  5  6  2  0  0  0  0
  5  7  1  0  0  0  0
  7  8  1  0  0  0  0
  7  9  1  0  0  0  0
  9 10  1  0  0  0  0
  9 11  1  0  0  0  0
  9 25  1  0  0  0  0
 11 12  1  0  0  0  0
 11 13  1  0  0  0  0
 11 14  1  0  0  0  0
 14 15  1  0  0  0  0
 14 23  2  0  0  0  0
 15 16  1  0  0  0  0
 15 17  2  0  0  0  0
 17 18  1  0  0  0  0
 17 19  1  0  0  0  0
 19 20  1  0  0  0  0
 19 21  2  0  0  0  0
 21 22  1  0  0  0  0
 21 23  1  0  0  0  0
 23 24  1  0  0  0  0
 25 26  2  0  0  0  0
 25 27  1  0  0  0  0
 27 28  1  0  0  0  0
 27 29  1  0  0  0  0
 29 30  1  0  0  0  0
 29 31  1  0  0  0  0
 29 32  1  0  0  0  0
M  END
$$$$

  -OEChem-03222214073D

 32 32  0     1  0  0  0  0  0999 V2000
   -2.7484   -4.6719    1.4462 H   0  0  0  0  0  0  0  0  0  0  0  0
   -2.8810   -3.8253    0.7664 C   0  0  0  0  0  0  0  0  0  0  0  0
   -3.6925   -3.1974    1.1416 H   0  0  0  0  0  0  0  0  0  0  0  0
   -3.1494   -4.2067   -0.2217 H   0  0  0  0  0  0  0  0  0  0  0  0
   -1.5975   -3.0211    0.6803 C   0  0  0  0  0  0  0  0  0  0  0  0
   -0.6137   -3.3792    1.3022 O   0  0  0  0  0  0  0  0  0  0  0  0
   -1.5519   -1.8852   -0.1037 N   0  0  0  0  0  0  0  0  0  0  0  0
   -2.4158   -1.5962   -0.5550 H   0  0  0  0  0  0  0  0  0  0  0  0
   -0.3892   -0.9863   -0.2091 C   0  0  1  0  0  0  0  0  0  0  0  0
    0.4558   -1.6195   -0.5032 H   0  0  0  0  0  0  0  0  0  0  0  0
   -0.4952    0.1316   -1.2921 C   0  0  0  0  0  0  0  0  0  0  0  0
   -0.3433    1.0945   -0.7915 H   0  0  0  0  0  0  0  0  0  0  0  0
    0.3614    0.0038   -1.9618 H   0  0  0  0  0  0  0  0  0  0  0  0
   -1.7274    0.2732   -2.1870 C   0  0  0  0  0  0  0  0  0  0  0  0
   -2.5566   -0.7889   -2.6050 C   0  0  0  0  0  0  0  0  0  0  0  0
   -2.2882   -1.8221   -2.4171 H   0  0  0  0  0  0  0  0  0  0  0  0
   -3.7097   -0.5533   -3.3614 C   0  0  0  0  0  0  0  0  0  0  0  0
   -4.3243   -1.3863   -3.6910 H   0  0  0  0  0  0  0  0  0  0  0  0
   -4.0626    0.7500   -3.7140 C   0  0  0  0  0  0  0  0  0  0  0  0
   -4.9557    0.9338   -4.3044 H   0  0  0  0  0  0  0  0  0  0  0  0
   -3.2538    1.8156   -3.3176 C   0  0  0  0  0  0  0  0  0  0  0  0
   -3.5194    2.8319   -3.5947 H   0  0  0  0  0  0  0  0  0  0  0  0
   -2.1009    1.5761   -2.5631 C   0  0  0  0  0  0  0  0  0  0  0  0
   -1.4940    2.4251   -2.2612 H   0  0  0  0  0  0  0  0  0  0  0  0
    0.0184   -0.3574    1.1419 C   0  0  0  0  0  0  0  0  0  0  0  0
    1.1951   -0.1057    1.3648 O   0  0  0  0  0  0  0  0  0  0  0  0
   -0.9497    0.1608    1.9841 N   0  0  0  0  0  0  0  0  0  0  0  0
   -1.9124   -0.0842    1.7789 H   0  0  0  0  0  0  0  0  0  0  0  0
   -0.6399    0.8127    3.2501 C   0  0  0  0  0  0  0  0  0  0  0  0
    0.0250    1.6678    3.0896 H   0  0  0  0  0  0  0  0  0  0  0  0
   -1.5574    1.1754    3.7231 H   0  0  0  0  0  0  0  0  0  0  0  0
   -0.1509    0.1093    3.9321 H   0  0  0  0  0  0  0  0  0  0  0  0
  1  2  1  0  0  0  0
  2  3  1  0  0  0  0
  2  4  1  0  0  0  0
  2  5  1  0  0  0  0
  5  6  2  0  0  0  0
  5  7  1  0  0  0  0
  7  8  1  0  0  0  0
  7  9  1  0  0  0  0
  9 10  1  0  0  0  0
  9 11  1  0  0  0  0
  9 25  1  0  0  0  0
 11 12  1  0  0  0  0
 11 13  1  0  0  0  0
 11 14  1  0  0  0  0
 14 15  1  0  0  0  0
 14 23  2  0  0  0  0
 15 16  1  0  0  0  0
 15 17  2  0  0  0  0
 17 18  1  0  0  0  0
 17 19  1  0  0  0  0
 19 20  1  0  0  0  0
 19 21  2  0  0  0  0
 21 22  1  0  0  0  0
 21 23  1  0  0  0  0
 23 24  1  0  0  0  0
 25 26  2  0  0  0  0
 25 27  1  0  0  0  0
 27 28  1  0  0  0  0
 27 29  1  0  0  0  0
 29 30  1  0  0  0  0
 29 31  1  0  0  0  0
 29 32  1  0  0  0  0
M  END
$$$$

  -OEChem-03222214073D

 32 32  0     1  0  0  0  0  0999 V2000
   -2.5947   -4.7089    1.6152 H   0  0  0  0  0  0  0  0  0  0  0  0
   -2.7806   -3.8819    0.9237 C   0  0  0  0  0  0  0  0  0  0  0  0
   -3.5797   -3.2576    1.3302 H   0  0  0  0  0  0  0  0  0  0  0  0
   -3.0992   -4.2926   -0.0375 H   0  0  0  0  0  0  0  0  0  0  0  0
   -1.5180   -3.0604    0.7427 C   0  0  0  0  0  0  0  0  0  0  0  0
   -0.4904   -3.3956    1.3033 O   0  0  0  0  0  0  0  0  0  0  0  0
   -1.5437   -1.9330   -0.0548 N   0  0  0  0  0  0  0  0  0  0  0  0
   -2.4500   -1.6422   -0.4072 H   0  0  0  0  0  0  0  0  0  0  0  0
   -0.4215   -0.9931   -0.2024 C   0  0  1  0  0  0  0  0  0  0  0  0
    0.4365   -1.6050   -0.5036 H   0  0  0  0  0  0  0  0  0  0  0  0
   -0.5692    0.1035   -1.3036 C   0  0  0  0  0  0  0  0  0  0  0  0
   -0.4442    1.0741   -0.8104 H   0  0  0  0  0  0  0  0  0  0  0  0
    0.2956   -0.0106   -1.9657 H   0  0  0  0  0  0  0  0  0  0  0  0
   -1.7897    0.2431   -2.2200 C   0  0  0  0  0  0  0  0  0  0  0  0
   -2.8054   -0.7125   -2.4473 C   0  0  0  0  0  0  0  0  0  0  0  0
   -2.7423   -1.7307   -2.0926 H   0  0  0  0  0  0  0  0  0  0  0  0
   -3.9166   -0.4153   -3.2448 C   0  0  0  0  0  0  0  0  0  0  0  0
   -4.6764   -1.1712   -3.4212 H   0  0  0  0  0  0  0  0  0  0  0  0
   -4.0446    0.8426   -3.8329 C   0  0  0  0  0  0  0  0  0  0  0  0
   -4.9069    1.0721   -4.4523 H   0  0  0  0  0  0  0  0  0  0  0  0
   -3.0511    1.7998   -3.6326 C   0  0  0  0  0  0  0  0  0  0  0  0
   -3.1400    2.7798   -4.0924 H   0  0  0  0  0  0  0  0  0  0  0  0
   -1.9415    1.4990   -2.8372 C   0  0  0  0  0  0  0  0  0  0  0  0
   -1.1879    2.2679   -2.6912 H   0  0  0  0  0  0  0  0  0  0  0  0
   -0.0008   -0.3350    1.1309 C   0  0  0  0  0  0  0  0  0  0  0  0
    1.1718   -0.0412    1.3206 O   0  0  0  0  0  0  0  0  0  0  0  0
   -0.9627    0.1552    1.9967 N   0  0  0  0  0  0  0  0  0  0  0  0
   -1.9238   -0.1119    1.8146 H   0  0  0  0  0  0  0  0  0  0  0  0
   -0.6404    0.8323    3.2466 C   0  0  0  0  0  0  0  0  0  0  0  0
   -0.0093    1.7072    3.0578 H   0  0  0  0  0  0  0  0  0  0  0  0
   -1.5561    1.1697    3.7415 H   0  0  0  0  0  0  0  0  0  0  0  0
   -0.1094    0.1534    3.9221 H   0  0  0  0  0  0  0  0  0  0  0  0
  1  2  1  0  0  0  0
  2  3  1  0  0  0  0
  2  4  1  0  0  0  0
  2  5  1  0  0  0  0
  5  6  2  0  0  0  0
  5  7  1  0  0  0  0
  7  8  1  0  0  0  0
  7  9  1  0  0  0  0
  9 10  1  0  0  0  0
  9 11  1  0  0  0  0
  9 25  1  0  0  0  0
 11 12  1  0  0  0  0
 11 13  1  0  0  0  0
 11 14  1  0  0  0  0
 14 15  1  0  0  0  0
 14 23  2  0  0  0  0
 15 16  1  0  0  0  0
 15 17  2  0  0  0  0
 17 18  1  0  0  0  0
 17 19  1  0  0  0  0
 19 20  1  0  0  0  0
 19 21  2  0  0  0  0
 21 22  1  0  0  0  0
 21 23  1  0  0  0  0
 23 24  1  0  0  0  0
 25 26  2  0  0  0  0
 25 27  1  0  0  0  0
 27 28  1  0  0  0  0
 27 29  1  0  0  0  0
 29 30  1  0  0  0  0
 29 31  1  0  0  0  0
 29 32  1  0  0  0  0
M  END
$$$$

  -OEChem-03222214073D

 32 32  0     1  0  0  0  0  0999 V2000
   -2.4303   -4.7443    1.7257 H   0  0  0  0  0  0  0  0  0  0  0  0
   -2.6814   -3.9232    1.0479 C   0  0  0  0  0  0  0  0  0  0  0  0
   -3.4586   -3.3107    1.5112 H   0  0  0  0  0  0  0  0  0  0  0  0
   -3.0638   -4.3429    0.1142 H   0  0  0  0  0  0  0  0  0  0  0  0
   -1.4495   -3.0821    0.7707 C   0  0  0  0  0  0  0  0  0  0  0  0
   -0.3769   -3.4020    1.2503 O   0  0  0  0  0  0  0  0  0  0  0  0
   -1.5563   -1.9526   -0.0177 N   0  0  0  0  0  0  0  0  0  0  0  0
   -2.4948   -1.6616   -0.2604 H   0  0  0  0  0  0  0  0  0  0  0  0
   -0.4658   -0.9880   -0.2254 C   0  0  1  0  0  0  0  0  0  0  0  0
    0.3839   -1.5889   -0.5704 H   0  0  0  0  0  0  0  0  0  0  0  0
   -0.6714    0.1033   -1.3222 C   0  0  0  0  0  0  0  0  0  0  0  0
   -0.5442    1.0762   -0.8339 H   0  0  0  0  0  0  0  0  0  0  0  0
    0.1771   -0.0037   -2.0065 H   0  0  0  0  0  0  0  0  0  0  0  0
   -1.9132    0.2563   -2.2085 C   0  0  0  0  0  0  0  0  0  0  0  0
   -3.0902   -0.5275   -2.2254 C   0  0  0  0  0  0  0  0  0  0  0  0
   -3.2327   -1.4155   -1.6336 H   0  0  0  0  0  0  0  0  0  0  0  0
   -4.1565   -0.2147   -3.0776 C   0  0  0  0  0  0  0  0  0  0  0  0
   -5.0474   -0.8362   -3.0834 H   0  0  0  0  0  0  0  0  0  0  0  0
   -4.0810    0.8859   -3.9305 C   0  0  0  0  0  0  0  0  0  0  0  0
   -4.9089    1.1259   -4.5916 H   0  0  0  0  0  0  0  0  0  0  0  0
   -2.9313    1.6731   -3.9341 C   0  0  0  0  0  0  0  0  0  0  0  0
   -2.8612    2.5317   -4.5956 H   0  0  0  0  0  0  0  0  0  0  0  0
   -1.8680    1.3580   -3.0838 C   0  0  0  0  0  0  0  0  0  0  0  0
   -0.9867    1.9931   -3.1040 H   0  0  0  0  0  0  0  0  0  0  0  0
    0.0231   -0.3266    1.0832 C   0  0  0  0  0  0  0  0  0  0  0  0
    1.1983   -0.0059    1.1993 O   0  0  0  0  0  0  0  0  0  0  0  0
   -0.8912    0.1400    2.0115 N   0  0  0  0  0  0  0  0  0  0  0  0
   -1.8571   -0.1436    1.8909 H   0  0  0  0  0  0  0  0  0  0  0  0
   -0.5021    0.8243    3.2383 C   0  0  0  0  0  0  0  0  0  0  0  0
    0.0477    1.7429    3.0079 H   0  0  0  0  0  0  0  0  0  0  0  0
   -1.3889    1.0901    3.8211 H   0  0  0  0  0  0  0  0  0  0  0  0
    0.1343    0.1769    3.8509 H   0  0  0  0  0  0  0  0  0  0  0  0
  1  2  1  0  0  0  0
  2  3  1  0  0  0  0
  2  4  1  0  0  0  0
  2  5  1  0  0  0  0
  5  6  2  0  0  0  0
  5  7  1  0  0  0  0
  7  8  1  0  0  0  0
  7  9  1  0  0  0  0
  9 10  1  0  0  0  0
  9 11  1  0  0  0  0
  9 25  1  0  0  0  0
 11 12  1  0  0  0  0
 11 13  1  0  0  0  0
 11 14  1  0  0  0  0
 14 15  1  0  0  0  0
 14 23  2  0  0  0  0
 15 16  1  0  0  0  0
 15 17  2  0  0  0  0
 17 18  1  0  0  0  0
 17 19  1  0  0  0  0
 19 20  1  0  0  0  0
 19 21  2  0  0  0  0
 21 22  1  0  0  0  0
 21 23  1  0  0  0  0
 23 24  1  0  0  0  0
 25 26  2  0  0  0  0
 25 27  1  0  0  0  0
 27 28  1  0  0  0  0
 27 29  1  0  0  0  0
 29 30  1  0  0  0  0
 29 31  1  0  0  0  0
 29 32  1  0  0  0  0
M  END
$$$$

  -OEChem-03222214073D

 32 32  0     1  0  0  0  0  0999 V2000
   -2.3043   -4.9438    1.2272 H   0  0  0  0  0  0  0  0  0  0  0  0
   -2.5329   -4.0958    0.5752 C   0  0  0  0  0  0  0  0  0  0  0  0
   -3.4979   -3.6765    0.8696 H   0  0  0  0  0  0  0  0  0  0  0  0
   -2.5964   -4.4531   -0.4554 H   0  0  0  0  0  0  0  0  0  0  0  0
   -1.4491   -3.0403    0.6924 C   0  0  0  0  0  0  0  0  0  0  0  0
   -0.5098   -3.2213    1.4457 O   0  0  0  0  0  0  0  0  0  0  0  0
   -1.5413   -1.8859   -0.0620 N   0  0  0  0  0  0  0  0  0  0  0  0
   -2.2359   -1.9135   -0.8020 H   0  0  0  0  0  0  0  0  0  0  0  0
   -0.4339   -0.9335   -0.2484 C   0  0  1  0  0  0  0  0  0  0  0  0
    0.4046   -1.5138   -0.6499 H   0  0  0  0  0  0  0  0  0  0  0  0
   -0.6983    0.2334   -1.2540 C   0  0  0  0  0  0  0  0  0  0  0  0
   -0.5291    1.1802   -0.7287 H   0  0  0  0  0  0  0  0  0  0  0  0
    0.1004    0.1585   -1.9997 H   0  0  0  0  0  0  0  0  0  0  0  0
   -2.0083    0.4327   -2.0248 C   0  0  0  0  0  0  0  0  0  0  0  0
   -3.2614   -0.1687   -1.7673 C   0  0  0  0  0  0  0  0  0  0  0  0
   -3.4629   -0.7561   -0.8837 H   0  0  0  0  0  0  0  0  0  0  0  0
   -4.3571    0.0483   -2.6109 C   0  0  0  0  0  0  0  0  0  0  0  0
   -5.3159   -0.4099   -2.3862 H   0  0  0  0  0  0  0  0  0  0  0  0
   -4.2317    0.8677   -3.7324 C   0  0  0  0  0  0  0  0  0  0  0  0
   -5.0830    1.0358   -4.3858 H   0  0  0  0  0  0  0  0  0  0  0  0
   -3.0094    1.4811   -4.0022 C   0  0  0  0  0  0  0  0  0  0  0  0
   -2.9046    2.1263   -4.8697 H   0  0  0  0  0  0  0  0  0  0  0  0
   -1.9170    1.2632   -3.1575 C   0  0  0  0  0  0  0  0  0  0  0  0
   -0.9744    1.7470   -3.3980 H   0  0  0  0  0  0  0  0  0  0  0  0
    0.0793   -0.3190    1.0745 C   0  0  0  0  0  0  0  0  0  0  0  0
    1.2612   -0.0166    1.1790 O   0  0  0  0  0  0  0  0  0  0  0  0
   -0.8191    0.1355    2.0229 N   0  0  0  0  0  0  0  0  0  0  0  0
   -1.7725   -0.1997    1.9323 H   0  0  0  0  0  0  0  0  0  0  0  0
   -0.4018    0.7376    3.2824 C   0  0  0  0  0  0  0  0  0  0  0  0
    0.2095    1.6274    3.0985 H   0  0  0  0  0  0  0  0  0  0  0  0
   -1.2770    1.0365    3.8670 H   0  0  0  0  0  0  0  0  0  0  0  0
    0.1833    0.0234    3.8713 H   0  0  0  0  0  0  0  0  0  0  0  0
  1  2  1  0  0  0  0
  2  3  1  0  0  0  0
  2  4  1  0  0  0  0
  2  5  1  0  0  0  0
  5  6  2  0  0  0  0
  5  7  1  0  0  0  0
  7  8  1  0  0  0  0
  7  9  1  0  0  0  0
  9 10  1  0  0  0  0
  9 11  1  0  0  0  0
  9 25  1  0  0  0  0
 11 12  1  0  0  0  0
 11 13  1  0  0  0  0
 11 14  1  0  0  0  0
 14 15  1  0  0  0  0
 14 23  2  0  0  0  0
 15 16  1  0  0  0  0
 15 17  2  0  0  0  0
 17 18  1  0  0  0  0
 17 19  1  0  0  0  0
 19 20  1  0  0  0  0
 19 21  2  0  0  0  0
 21 22  1  0  0  0  0
 21 23  1  0  0  0  0
 23 24  1  0  0  0  0
 25 26  2  0  0  0  0
 25 27  1  0  0  0  0
 27 28  1  0  0  0  0
 27 29  1  0  0  0  0
 29 30  1  0  0  0  0
 29 31  1  0  0  0  0
 29 32  1  0  0  0  0
M  END
$$$$

  -OEChem-03222214073D

 32 32  0     1  0  0  0  0  0999 V2000
   -2.7558   -4.7477    1.2673 H   0  0  0  0  0  0  0  0  0  0  0  0
   -2.8799   -3.8899    0.5997 C   0  0  0  0  0  0  0  0  0  0  0  0
   -3.7966   -3.3615    0.8722 H   0  0  0  0  0  0  0  0  0  0  0  0
   -2.9681   -4.2542   -0.4267 H   0  0  0  0  0  0  0  0  0  0  0  0
   -1.6883   -2.9582    0.7188 C   0  0  0  0  0  0  0  0  0  0  0  0
   -0.7923   -3.2199    1.5008 O   0  0  0  0  0  0  0  0  0  0  0  0
   -1.6338   -1.8190   -0.0611 N   0  0  0  0  0  0  0  0  0  0  0  0
   -2.3265   -1.7601   -0.8034 H   0  0  0  0  0  0  0  0  0  0  0  0
   -0.4363   -0.9716   -0.2082 C   0  0  1  0  0  0  0  0  0  0  0  0
    0.3662   -1.6338   -0.5524 H   0  0  0  0  0  0  0  0  0  0  0  0
   -0.5543    0.1765   -1.2595 C   0  0  0  0  0  0  0  0  0  0  0  0
   -0.3505    1.1290   -0.7578 H   0  0  0  0  0  0  0  0  0  0  0  0
    0.2713    0.0259   -1.9630 H   0  0  0  0  0  0  0  0  0  0  0  0
   -1.8297    0.4035   -2.0721 C   0  0  0  0  0  0  0  0  0  0  0  0
   -3.1391    0.1151   -1.6334 C   0  0  0  0  0  0  0  0  0  0  0  0
   -3.3406   -0.1808   -0.6110 H   0  0  0  0  0  0  0  0  0  0  0  0
   -4.2410    0.2882   -2.4781 C   0  0  0  0  0  0  0  0  0  0  0  0
   -5.2433    0.0781   -2.1160 H   0  0  0  0  0  0  0  0  0  0  0  0
   -4.0588    0.7510   -3.7820 C   0  0  0  0  0  0  0  0  0  0  0  0
   -4.9136    0.8887   -4.4381 H   0  0  0  0  0  0  0  0  0  0  0  0
   -2.7734    1.0492   -4.2354 C   0  0  0  0  0  0  0  0  0  0  0  0
   -2.6255    1.4147   -5.2475 H   0  0  0  0  0  0  0  0  0  0  0  0
   -1.6746    0.8759   -3.3877 C   0  0  0  0  0  0  0  0  0  0  0  0
   -0.6841    1.1079   -3.7686 H   0  0  0  0  0  0  0  0  0  0  0  0
    0.0634   -0.3707    1.1253 C   0  0  0  0  0  0  0  0  0  0  0  0
    1.2600   -0.1653    1.2825 O   0  0  0  0  0  0  0  0  0  0  0  0
   -0.8391    0.1851    2.0144 N   0  0  0  0  0  0  0  0  0  0  0  0
   -1.8091   -0.0841    1.8888 H   0  0  0  0  0  0  0  0  0  0  0  0
   -0.4349    0.7740    3.2847 C   0  0  0  0  0  0  0  0  0  0  0  0
    0.3023    1.5676    3.1239 H   0  0  0  0  0  0  0  0  0  0  0  0
   -1.3011    1.2092    3.7921 H   0  0  0  0  0  0  0  0  0  0  0  0
    0.0053    0.0113    3.9357 H   0  0  0  0  0  0  0  0  0  0  0  0
  1  2  1  0  0  0  0
  2  3  1  0  0  0  0
  2  4  1  0  0  0  0
  2  5  1  0  0  0  0
  5  6  2  0  0  0  0
  5  7  1  0  0  0  0
  7  8  1  0  0  0  0
  7  9  1  0  0  0  0
  9 10  1  0  0  0  0
  9 11  1  0  0  0  0
  9 25  1  0  0  0  0
 11 12  1  0  0  0  0
 11 13  1  0  0  0  0
 11 14  1  0  0  0  0
 14 15  1  0  0  0  0
 14 23  2  0  0  0  0
 15 16  1  0  0  0  0
 15 17  2  0  0  0  0
 17 18  1  0  0  0  0
 17 19  1  0  0  0  0
 19 20  1  0  0  0  0
 19 21  2  0  0  0  0
 21 22  1  0  0  0  0
 21 23  1  0  0  0  0
 23 24  1  0  0  0  0
 25 26  2  0  0  0  0
 25 27  1  0  0  0  0
 27 28  1  0  0  0  0
 27 29  1  0  0  0  0
 29 30  1  0  0  0  0
 29 31  1  0  0  0  0
 29 32  1  0  0  0  0
M  END
$$$$

  -OEChem-03222214073D

 32 32  0     1  0  0  0  0  0999 V2000
   -2.9361   -4.6432    1.1204 H   0  0  0  0  0  0  0  0  0  0  0  0
   -2.9956   -3.7696    0.4649 C   0  0  0  0  0  0  0  0  0  0  0  0
   -3.8893   -3.1961    0.7223 H   0  0  0  0  0  0  0  0  0  0  0  0
   -3.0758   -4.1116   -0.5699 H   0  0  0  0  0  0  0  0  0  0  0  0
   -1.7591   -2.9063    0.6312 C   0  0  0  0  0  0  0  0  0  0  0  0
   -0.9042   -3.2182    1.4402 O   0  0  0  0  0  0  0  0  0  0  0  0
   -1.6227   -1.7624   -0.1292 N   0  0  0  0  0  0  0  0  0  0  0  0
   -2.3066   -1.6347   -0.8721 H   0  0  0  0  0  0  0  0  0  0  0  0
   -0.3925   -0.9521   -0.2135 C   0  0  1  0  0  0  0  0  0  0  0  0
    0.4044   -1.6307   -0.5370 H   0  0  0  0  0  0  0  0  0  0  0  0
   -0.4627    0.1998   -1.2608 C   0  0  0  0  0  0  0  0  0  0  0  0
   -0.2740    1.1531   -0.7550 H   0  0  0  0  0  0  0  0  0  0  0  0
    0.3747    0.0535   -1.9507 H   0  0  0  0  0  0  0  0  0  0  0  0
   -1.7401    0.3886   -2.0714 C   0  0  0  0  0  0  0  0  0  0  0  0
   -3.0261    0.3579   -1.4972 C   0  0  0  0  0  0  0  0  0  0  0  0
   -3.1441    0.2783   -0.4211 H   0  0  0  0  0  0  0  0  0  0  0  0
   -4.1728    0.4774   -2.2890 C   0  0  0  0  0  0  0  0  0  0  0  0
   -5.1570    0.4641   -1.8296 H   0  0  0  0  0  0  0  0  0  0  0  0
   -4.0534    0.6286   -3.6720 C   0  0  0  0  0  0  0  0  0  0  0  0
   -4.9418    0.7247   -4.2895 H   0  0  0  0  0  0  0  0  0  0  0  0
   -2.7866    0.6661   -4.2587 C   0  0  0  0  0  0  0  0  0  0  0  0
   -2.6902    0.7879   -5.3337 H   0  0  0  0  0  0  0  0  0  0  0  0
   -1.6419    0.5463   -3.4637 C   0  0  0  0  0  0  0  0  0  0  0  0
   -0.6673    0.5718   -3.9426 H   0  0  0  0  0  0  0  0  0  0  0  0
    0.0740   -0.3751    1.1413 C   0  0  0  0  0  0  0  0  0  0  0  0
    1.2689   -0.2010    1.3421 O   0  0  0  0  0  0  0  0  0  0  0  0
   -0.8439    0.2057    1.9979 N   0  0  0  0  0  0  0  0  0  0  0  0
   -1.8146   -0.0457    1.8439 H   0  0  0  0  0  0  0  0  0  0  0  0
   -0.4667    0.7830    3.2817 C   0  0  0  0  0  0  0  0  0  0  0  0
    0.2658    1.5850    3.1421 H   0  0  0  0  0  0  0  0  0  0  0  0
   -1.3453    1.2035    3.7799 H   0  0  0  0  0  0  0  0  0  0  0  0
   -0.0309    0.0166    3.9313 H   0  0  0  0  0  0  0  0  0  0  0  0
  1  2  1  0  0  0  0
  2  3  1  0  0  0  0
  2  4  1  0  0  0  0
  2  5  1  0  0  0  0
  5  6  2  0  0  0  0
  5  7  1  0  0  0  0
  7  8  1  0  0  0  0
  7  9  1  0  0  0  0
  9 10  1  0  0  0  0
  9 11  1  0  0  0  0
  9 25  1  0  0  0  0
 11 12  1  0  0  0  0
 11 13  1  0  0  0  0
 11 14  1  0  0  0  0
 14 15  1  0  0  0  0
 14 23  2  0  0  0  0
 15 16  1  0  0  0  0
 15 17  2  0  0  0  0
 17 18  1  0  0  0  0
 17 19  1  0  0  0  0
 19 20  1  0  0  0  0
 19 21  2  0  0  0  0
 21 22  1  0  0  0  0
 21 23  1  0  0  0  0
 23 24  1  0  0  0  0
 25 26  2  0  0  0  0
 25 27  1  0  0  0  0
 27 28  1  0  0  0  0
 27 29  1  0  0  0  0
 29 30  1  0  0  0  0
 29 31  1  0  0  0  0
 29 32  1  0  0  0  0
M  END
$$$$

  -OEChem-03222214073D

 32 32  0     1  0  0  0  0  0999 V2000
   -3.0317   -4.5558    1.0230 H   0  0  0  0  0  0  0  0  0  0  0  0
   -3.0609   -3.6689    0.3836 C   0  0  0  0  0  0  0  0  0  0  0  0
   -3.9289   -3.0652    0.6586 H   0  0  0  0  0  0  0  0  0  0  0  0
   -3.1617   -3.9886   -0.6563 H   0  0  0  0  0  0  0  0  0  0  0  0
   -1.7896   -2.8590    0.5557 C   0  0  0  0  0  0  0  0  0  0  0  0
   -0.9488   -3.2134    1.3624 O   0  0  0  0  0  0  0  0  0  0  0  0
   -1.6038   -1.7130   -0.1909 N   0  0  0  0  0  0  0  0  0  0  0  0
   -2.2943   -1.5217   -0.9144 H   0  0  0  0  0  0  0  0  0  0  0  0
   -0.3553   -0.9253   -0.2290 C   0  0  1  0  0  0  0  0  0  0  0  0
    0.4409   -1.6132   -0.5347 H   0  0  0  0  0  0  0  0  0  0  0  0
   -0.3918    0.2256   -1.2741 C   0  0  0  0  0  0  0  0  0  0  0  0
   -0.2169    1.1825   -0.7700 H   0  0  0  0  0  0  0  0  0  0  0  0
    0.4516    0.0834   -1.9575 H   0  0  0  0  0  0  0  0  0  0  0  0
   -1.6725    0.3674   -2.0785 C   0  0  0  0  0  0  0  0  0  0  0  0
   -2.9058    0.6161   -1.4499 C   0  0  0  0  0  0  0  0  0  0  0  0
   -2.9454    0.7614   -0.3744 H   0  0  0  0  0  0  0  0  0  0  0  0
   -4.0857    0.6980   -2.1966 C   0  0  0  0  0  0  0  0  0  0  0  0
   -5.0317    0.8994   -1.7021 H   0  0  0  0  0  0  0  0  0  0  0  0
   -4.0471    0.5289   -3.5831 C   0  0  0  0  0  0  0  0  0  0  0  0
   -4.9612    0.5956   -4.1664 H   0  0  0  0  0  0  0  0  0  0  0  0
   -2.8282    0.2807   -4.2203 C   0  0  0  0  0  0  0  0  0  0  0  0
   -2.7957    0.1517   -5.2984 H   0  0  0  0  0  0  0  0  0  0  0  0
   -1.6490    0.1997   -3.4718 C   0  0  0  0  0  0  0  0  0  0  0  0
   -0.7115    0.0011   -3.9835 H   0  0  0  0  0  0  0  0  0  0  0  0
    0.0761   -0.3659    1.1437 C   0  0  0  0  0  0  0  0  0  0  0  0
    1.2664   -0.2173    1.3874 O   0  0  0  0  0  0  0  0  0  0  0  0
   -0.8608    0.2265    1.9716 N   0  0  0  0  0  0  0  0  0  0  0  0
   -1.8278   -0.0175    1.7862 H   0  0  0  0  0  0  0  0  0  0  0  0
   -0.5195    0.7734    3.2787 C   0  0  0  0  0  0  0  0  0  0  0  0
    0.2667    1.5300    3.1865 H   0  0  0  0  0  0  0  0  0  0  0  0
   -1.3966    1.2447    3.7319 H   0  0  0  0  0  0  0  0  0  0  0  0
   -0.1670   -0.0215    3.9441 H   0  0  0  0  0  0  0  0  0  0  0  0
  1  2  1  0  0  0  0
  2  3  1  0  0  0  0
  2  4  1  0  0  0  0
  2  5  1  0  0  0  0
  5  6  2  0  0  0  0
  5  7  1  0  0  0  0
  7  8  1  0  0  0  0
  7  9  1  0  0  0  0
  9 10  1  0  0  0  0
  9 11  1  0  0  0  0
  9 25  1  0  0  0  0
 11 12  1  0  0  0  0
 11 13  1  0  0  0  0
 11 14  1  0  0  0  0
 14 15  1  0  0  0  0
 14 23  2  0  0  0  0
 15 16  1  0  0  0  0
 15 17  2  0  0  0  0
 17 18  1  0  0  0  0
 17 19  1  0  0  0  0
 19 20  1  0  0  0  0
 19 21  2  0  0  0  0
 21 22  1  0  0  0  0
 21 23  1  0  0  0  0
 23 24  1  0  0  0  0
 25 26  2  0  0  0  0
 25 27  1  0  0  0  0
 27 28  1  0  0  0  0
 27 29  1  0  0  0  0
 29 30  1  0  0  0  0
 29 31  1  0  0  0  0
 29 32  1  0  0  0  0
M  END
$$$$

  -OEChem-03222214073D

 32 32  0     1  0  0  0  0  0999 V2000
   -3.0972   -4.5037    0.9463 H   0  0  0  0  0  0  0  0  0  0  0  0
   -3.0983   -3.6117    0.3133 C   0  0  0  0  0  0  0  0  0  0  0  0
   -3.9548   -2.9894    0.5832 H   0  0  0  0  0  0  0  0  0  0  0  0
   -3.1955   -3.9217   -0.7300 H   0  0  0  0  0  0  0  0  0  0  0  0
   -1.8102   -2.8331    0.5050 C   0  0  0  0  0  0  0  0  0  0  0  0
   -0.9835   -3.2151    1.3138 O   0  0  0  0  0  0  0  0  0  0  0  0
   -1.5884   -1.6880   -0.2323 N   0  0  0  0  0  0  0  0  0  0  0  0
   -2.2811   -1.4549   -0.9420 H   0  0  0  0  0  0  0  0  0  0  0  0
   -0.3288   -0.9156   -0.2376 C   0  0  1  0  0  0  0  0  0  0  0  0
    0.4677   -1.6085   -0.5304 H   0  0  0  0  0  0  0  0  0  0  0  0
   -0.3459    0.2365   -1.2783 C   0  0  0  0  0  0  0  0  0  0  0  0
   -0.1756    1.1951   -0.7753 H   0  0  0  0  0  0  0  0  0  0  0  0
    0.4970    0.0954   -1.9626 H   0  0  0  0  0  0  0  0  0  0  0  0
   -1.6294    0.3470   -2.0750 C   0  0  0  0  0  0  0  0  0  0  0  0
   -2.7872    0.8790   -1.4854 C   0  0  0  0  0  0  0  0  0  0  0  0
   -2.7518    1.2536   -0.4663 H   0  0  0  0  0  0  0  0  0  0  0  0
   -3.9866    0.9384   -2.2026 C   0  0  0  0  0  0  0  0  0  0  0  0
   -4.8759    1.3597   -1.7425 H   0  0  0  0  0  0  0  0  0  0  0  0
   -4.0399    0.4606   -3.5153 C   0  0  0  0  0  0  0  0  0  0  0  0
   -4.9697    0.5091   -4.0750 H   0  0  0  0  0  0  0  0  0  0  0  0
   -2.8934   -0.0749   -4.1096 C   0  0  0  0  0  0  0  0  0  0  0  0
   -2.9335   -0.4453   -5.1302 H   0  0  0  0  0  0  0  0  0  0  0  0
   -1.6940   -0.1326   -3.3914 C   0  0  0  0  0  0  0  0  0  0  0  0
   -0.8110   -0.5560   -3.8617 H   0  0  0  0  0  0  0  0  0  0  0  0
    0.0771   -0.3639    1.1452 C   0  0  0  0  0  0  0  0  0  0  0  0
    1.2627   -0.2247    1.4161 O   0  0  0  0  0  0  0  0  0  0  0  0
   -0.8736    0.2389    1.9494 N   0  0  0  0  0  0  0  0  0  0  0  0
   -1.8387    0.0063    1.7393 H   0  0  0  0  0  0  0  0  0  0  0  0
   -0.5578    0.7865    3.2625 C   0  0  0  0  0  0  0  0  0  0  0  0
    0.2219    1.5514    3.1834 H   0  0  0  0  0  0  0  0  0  0  0  0
   -1.4464    1.2473    3.7039 H   0  0  0  0  0  0  0  0  0  0  0  0
   -0.2068   -0.0059    3.9318 H   0  0  0  0  0  0  0  0  0  0  0  0
  1  2  1  0  0  0  0
  2  3  1  0  0  0  0
  2  4  1  0  0  0  0
  2  5  1  0  0  0  0
  5  6  2  0  0  0  0
  5  7  1  0  0  0  0
  7  8  1  0  0  0  0
  7  9  1  0  0  0  0
  9 10  1  0  0  0  0
  9 11  1  0  0  0  0
  9 25  1  0  0  0  0
 11 12  1  0  0  0  0
 11 13  1  0  0  0  0
 11 14  1  0  0  0  0
 14 15  1  0  0  0  0
 14 23  2  0  0  0  0
 15 16  1  0  0  0  0
 15 17  2  0  0  0  0
 17 18  1  0  0  0  0
 17 19  1  0  0  0  0
 19 20  1  0  0  0  0
 19 21  2  0  0  0  0
 21 22  1  0  0  0  0
 21 23  1  0  0  0  0
 23 24  1  0  0  0  0
 25 26  2  0  0  0  0
 25 27  1  0  0  0  0
 27 28  1  0  0  0  0
 27 29  1  0  0  0  0
 29 30  1  0  0  0  0
 29 31  1  0  0  0  0
 29 32  1  0  0  0  0
M  END
$$$$

  -OEChem-03222214073D

 32 32  0     1  0  0  0  0  0999 V2000
   -3.1020   -4.4958    0.9461 H   0  0  0  0  0  0  0  0  0  0  0  0
   -3.1011   -3.6031    0.3144 C   0  0  0  0  0  0  0  0  0  0  0  0
   -3.9516   -2.9755    0.5909 H   0  0  0  0  0  0  0  0  0  0  0  0
   -3.2070   -3.9111   -0.7288 H   0  0  0  0  0  0  0  0  0  0  0  0
   -1.8067   -2.8339    0.4988 C   0  0  0  0  0  0  0  0  0  0  0  0
   -0.9758   -3.2250    1.2990 O   0  0  0  0  0  0  0  0  0  0  0  0
   -1.5793   -1.6925   -0.2423 N   0  0  0  0  0  0  0  0  0  0  0  0
   -2.2780   -1.4478   -0.9420 H   0  0  0  0  0  0  0  0  0  0  0  0
   -0.3188   -0.9209   -0.2417 C   0  0  1  0  0  0  0  0  0  0  0  0
    0.4807   -1.6129   -0.5283 H   0  0  0  0  0  0  0  0  0  0  0  0
   -0.3338    0.2294   -1.2832 C   0  0  0  0  0  0  0  0  0  0  0  0
   -0.1573    1.1892   -0.7849 H   0  0  0  0  0  0  0  0  0  0  0  0
    0.5036    0.0839   -1.9733 H   0  0  0  0  0  0  0  0  0  0  0  0
   -1.6189    0.3255   -2.0764 C   0  0  0  0  0  0  0  0  0  0  0  0
   -2.6788    1.1195   -1.6139 C   0  0  0  0  0  0  0  0  0  0  0  0
   -2.5687    1.6934   -0.6980 H   0  0  0  0  0  0  0  0  0  0  0  0
   -3.8802    1.1828   -2.3274 C   0  0  0  0  0  0  0  0  0  0  0  0
   -4.6940    1.8055   -1.9668 H   0  0  0  0  0  0  0  0  0  0  0  0
   -4.0314    0.4498   -3.5084 C   0  0  0  0  0  0  0  0  0  0  0  0
   -4.9626    0.5020   -4.0655 H   0  0  0  0  0  0  0  0  0  0  0  0
   -2.9802   -0.3445   -3.9760 C   0  0  0  0  0  0  0  0  0  0  0  0
   -3.0946   -0.9110   -4.8959 H   0  0  0  0  0  0  0  0  0  0  0  0
   -1.7787   -0.4062   -3.2625 C   0  0  0  0  0  0  0  0  0  0  0  0
   -0.9673   -1.0272   -3.6320 H   0  0  0  0  0  0  0  0  0  0  0  0
    0.0744   -0.3644    1.1430 C   0  0  0  0  0  0  0  0  0  0  0  0
    1.2570   -0.2333    1.4294 O   0  0  0  0  0  0  0  0  0  0  0  0
   -0.8827    0.2419    1.9370 N   0  0  0  0  0  0  0  0  0  0  0  0
   -1.8480    0.0302    1.7062 H   0  0  0  0  0  0  0  0  0  0  0  0
   -0.5820    0.7958    3.2512 C   0  0  0  0  0  0  0  0  0  0  0  0
    0.1981    1.5609    3.1777 H   0  0  0  0  0  0  0  0  0  0  0  0
   -1.4762    1.2577    3.6804 H   0  0  0  0  0  0  0  0  0  0  0  0
   -0.2379    0.0067    3.9280 H   0  0  0  0  0  0  0  0  0  0  0  0
  1  2  1  0  0  0  0
  2  3  1  0  0  0  0
  2  4  1  0  0  0  0
  2  5  1  0  0  0  0
  5  6  2  0  0  0  0
  5  7  1  0  0  0  0
  7  8  1  0  0  0  0
  7  9  1  0  0  0  0
  9 10  1  0  0  0  0
  9 11  1  0  0  0  0
  9 25  1  0  0  0  0
 11 12  1  0  0  0  0
 11 13  1  0  0  0  0
 11 14  1  0  0  0  0
 14 15  1  0  0  0  0
 14 23  2  0  0  0  0
 15 16  1  0  0  0  0
 15 17  2  0  0  0  0
 17 18  1  0  0  0  0
 17 19  1  0  0  0  0
 19 20  1  0  0  0  0
 19 21  2  0  0  0  0
 21 22  1  0  0  0  0
 21 23  1  0  0  0  0
 23 24  1  0  0  0  0
 25 26  2  0  0  0  0
 25 27  1  0  0  0  0
 27 28  1  0  0  0  0
 27 29  1  0  0  0  0
 29 30  1  0  0  0  0
 29 31  1  0  0  0  0
 29 32  1  0  0  0  0
M  END
$$$$

  -OEChem-03222214073D

 32 32  0     1  0  0  0  0  0999 V2000
   -3.0971   -4.4962    1.0173 H   0  0  0  0  0  0  0  0  0  0  0  0
   -3.0958   -3.6150    0.3697 C   0  0  0  0  0  0  0  0  0  0  0  0
   -3.9334   -2.9713    0.6491 H   0  0  0  0  0  0  0  0  0  0  0  0
   -3.2233   -3.9394   -0.6660 H   0  0  0  0  0  0  0  0  0  0  0  0
   -1.7888   -2.8599    0.5189 C   0  0  0  0  0  0  0  0  0  0  0  0
   -0.9405   -3.2580    1.2970 O   0  0  0  0  0  0  0  0  0  0  0  0
   -1.5723   -1.7200   -0.2274 N   0  0  0  0  0  0  0  0  0  0  0  0
   -2.2929   -1.4607   -0.8988 H   0  0  0  0  0  0  0  0  0  0  0  0
   -0.3195   -0.9372   -0.2362 C   0  0  1  0  0  0  0  0  0  0  0  0
    0.4858   -1.6223   -0.5230 H   0  0  0  0  0  0  0  0  0  0  0  0
   -0.3488    0.2106   -1.2811 C   0  0  0  0  0  0  0  0  0  0  0  0
   -0.1681    1.1710   -0.7855 H   0  0  0  0  0  0  0  0  0  0  0  0
    0.4833    0.0652   -1.9777 H   0  0  0  0  0  0  0  0  0  0  0  0
   -1.6356    0.3007   -2.0750 C   0  0  0  0  0  0  0  0  0  0  0  0
   -2.5728    1.3072   -1.8005 C   0  0  0  0  0  0  0  0  0  0  0  0
   -2.3827    2.0292   -1.0113 H   0  0  0  0  0  0  0  0  0  0  0  0
   -3.7608    1.3892   -2.5349 C   0  0  0  0  0  0  0  0  0  0  0  0
   -4.4827    2.1705   -2.3147 H   0  0  0  0  0  0  0  0  0  0  0  0
   -4.0163    0.4707   -3.5577 C   0  0  0  0  0  0  0  0  0  0  0  0
   -4.9364    0.5377   -4.1313 H   0  0  0  0  0  0  0  0  0  0  0  0
   -3.0809   -0.5265   -3.8494 C   0  0  0  0  0  0  0  0  0  0  0  0
   -3.2730   -1.2336   -4.6516 H   0  0  0  0  0  0  0  0  0  0  0  0
   -1.8938   -0.6075   -3.1141 C   0  0  0  0  0  0  0  0  0  0  0  0
   -1.1676   -1.3802   -3.3514 H   0  0  0  0  0  0  0  0  0  0  0  0
    0.0726   -0.3717    1.1451 C   0  0  0  0  0  0  0  0  0  0  0  0
    1.2548   -0.2267    1.4269 O   0  0  0  0  0  0  0  0  0  0  0  0
   -0.8874    0.2288    1.9399 N   0  0  0  0  0  0  0  0  0  0  0  0
   -1.8529    0.0196    1.7075 H   0  0  0  0  0  0  0  0  0  0  0  0
   -0.5870    0.8059    3.2440 C   0  0  0  0  0  0  0  0  0  0  0  0
    0.1675    1.5941    3.1502 H   0  0  0  0  0  0  0  0  0  0  0  0
   -1.4894    1.2440    3.6809 H   0  0  0  0  0  0  0  0  0  0  0  0
   -0.2091    0.0355    3.9245 H   0  0  0  0  0  0  0  0  0  0  0  0
  1  2  1  0  0  0  0
  2  3  1  0  0  0  0
  2  4  1  0  0  0  0
  2  5  1  0  0  0  0
  5  6  2  0  0  0  0
  5  7  1  0  0  0  0
  7  8  1  0  0  0  0
  7  9  1  0  0  0  0
  9 10  1  0  0  0  0
  9 11  1  0  0  0  0
  9 25  1  0  0  0  0
 11 12  1  0  0  0  0
 11 13  1  0  0  0  0
 11 14  1  0  0  0  0
 14 15  1  0  0  0  0
 14 23  2  0  0  0  0
 15 16  1  0  0  0  0
 15 17  2  0  0  0  0
 17 18  1  0  0  0  0
 17 19  1  0  0  0  0
 19 20  1  0  0  0  0
 19 21  2  0  0  0  0
 21 22  1  0  0  0  0
 21 23  1  0  0  0  0
 23 24  1  0  0  0  0
 25 26  2  0  0  0  0
 25 27  1  0  0  0  0
 27 28  1  0  0  0  0
 27 29  1  0  0  0  0
 29 30  1  0  0  0  0
 29 31  1  0  0  0  0
 29 32  1  0  0  0  0
M  END
$$$$

  -OEChem-03222214073D

 32 32  0     1  0  0  0  0  0999 V2000
   -3.0545   -4.5226    1.1259 H   0  0  0  0  0  0  0  0  0  0  0  0
   -3.0741   -3.6470    0.4707 C   0  0  0  0  0  0  0  0  0  0  0  0
   -3.9002   -2.9995    0.7738 H   0  0  0  0  0  0  0  0  0  0  0  0
   -3.2386   -3.9803   -0.5567 H   0  0  0  0  0  0  0  0  0  0  0  0
   -1.7614   -2.8924    0.5656 C   0  0  0  0  0  0  0  0  0  0  0  0
   -0.8814   -3.2902    1.3077 O   0  0  0  0  0  0  0  0  0  0  0  0
   -1.5743   -1.7543   -0.1914 N   0  0  0  0  0  0  0  0  0  0  0  0
   -2.3290   -1.4823   -0.8182 H   0  0  0  0  0  0  0  0  0  0  0  0
   -0.3350   -0.9520   -0.2255 C   0  0  1  0  0  0  0  0  0  0  0  0
    0.4757   -1.6288   -0.5175 H   0  0  0  0  0  0  0  0  0  0  0  0
   -0.3878    0.1896   -1.2783 C   0  0  0  0  0  0  0  0  0  0  0  0
   -0.2064    1.1509   -0.7849 H   0  0  0  0  0  0  0  0  0  0  0  0
    0.4401    0.0455   -1.9801 H   0  0  0  0  0  0  0  0  0  0  0  0
   -1.6744    0.2817   -2.0767 C   0  0  0  0  0  0  0  0  0  0  0  0
   -2.4581    1.4446   -2.0285 C   0  0  0  0  0  0  0  0  0  0  0  0
   -2.1727    2.2703   -1.3829 H   0  0  0  0  0  0  0  0  0  0  0  0
   -3.6206    1.5521   -2.7997 C   0  0  0  0  0  0  0  0  0  0  0  0
   -4.2263    2.4521   -2.7447 H   0  0  0  0  0  0  0  0  0  0  0  0
   -3.9972    0.5074   -3.6487 C   0  0  0  0  0  0  0  0  0  0  0  0
   -4.8970    0.5935   -4.2512 H   0  0  0  0  0  0  0  0  0  0  0  0
   -3.2030   -0.6391   -3.7364 C   0  0  0  0  0  0  0  0  0  0  0  0
   -3.4808   -1.4419   -4.4135 H   0  0  0  0  0  0  0  0  0  0  0  0
   -2.0419   -0.7445   -2.9645 C   0  0  0  0  0  0  0  0  0  0  0  0
   -1.4168   -1.6285   -3.0592 H   0  0  0  0  0  0  0  0  0  0  0  0
    0.0677   -0.3717    1.1466 C   0  0  0  0  0  0  0  0  0  0  0  0
    1.2513   -0.2127    1.4141 O   0  0  0  0  0  0  0  0  0  0  0  0
   -0.8893    0.2184    1.9525 N   0  0  0  0  0  0  0  0  0  0  0  0
   -1.8567    0.0133    1.7246 H   0  0  0  0  0  0  0  0  0  0  0  0
   -0.5801    0.8065    3.2495 C   0  0  0  0  0  0  0  0  0  0  0  0
    0.1667    1.6004    3.1439 H   0  0  0  0  0  0  0  0  0  0  0  0
   -1.4814    1.2398    3.6932 H   0  0  0  0  0  0  0  0  0  0  0  0
   -0.1886    0.0435    3.9305 H   0  0  0  0  0  0  0  0  0  0  0  0
  1  2  1  0  0  0  0
  2  3  1  0  0  0  0
  2  4  1  0  0  0  0
  2  5  1  0  0  0  0
  5  6  2  0  0  0  0
  5  7  1  0  0  0  0
  7  8  1  0  0  0  0
  7  9  1  0  0  0  0
  9 10  1  0  0  0  0
  9 11  1  0  0  0  0
  9 25  1  0  0  0  0
 11 12  1  0  0  0  0
 11 13  1  0  0  0  0
 11 14  1  0  0  0  0
 14 15  1  0  0  0  0
 14 23  2  0  0  0  0
 15 16  1  0  0  0  0
 15 17  2  0  0  0  0
 17 18  1  0  0  0  0
 17 19  1  0  0  0  0
 19 20  1  0  0  0  0
 19 21  2  0  0  0  0
 21 22  1  0  0  0  0
 21 23  1  0  0  0  0
 23 24  1  0  0  0  0
 25 26  2  0  0  0  0
 25 27  1  0  0  0  0
 27 28  1  0  0  0  0
 27 29  1  0  0  0  0
 29 30  1  0  0  0  0
 29 31  1  0  0  0  0
 29 32  1  0  0  0  0
M  END
$$$$

  -OEChem-03222214073D

 32 32  0     1  0  0  0  0  0999 V2000
   -2.9764   -4.5639    1.2685 H   0  0  0  0  0  0  0  0  0  0  0  0
   -3.0333   -3.6972    0.6038 C   0  0  0  0  0  0  0  0  0  0  0  0
   -3.8500   -3.0517    0.9358 H   0  0  0  0  0  0  0  0  0  0  0  0
   -3.2417   -4.0455   -0.4107 H   0  0  0  0  0  0  0  0  0  0  0  0
   -1.7234   -2.9324    0.6296 C   0  0  0  0  0  0  0  0  0  0  0  0
   -0.8032   -3.3221    1.3259 O   0  0  0  0  0  0  0  0  0  0  0  0
   -1.5844   -1.7939   -0.1378 N   0  0  0  0  0  0  0  0  0  0  0  0
   -2.3822   -1.5119   -0.7034 H   0  0  0  0  0  0  0  0  0  0  0  0
   -0.3662   -0.9637   -0.2100 C   0  0  1  0  0  0  0  0  0  0  0  0
    0.4505   -1.6287   -0.5124 H   0  0  0  0  0  0  0  0  0  0  0  0
   -0.4490    0.1690   -1.2736 C   0  0  0  0  0  0  0  0  0  0  0  0
   -0.2700    1.1313   -0.7814 H   0  0  0  0  0  0  0  0  0  0  0  0
    0.3777    0.0286   -1.9776 H   0  0  0  0  0  0  0  0  0  0  0  0
   -1.7322    0.2723   -2.0831 C   0  0  0  0  0  0  0  0  0  0  0  0
   -2.3287    1.5282   -2.2808 C   0  0  0  0  0  0  0  0  0  0  0  0
   -1.9249    2.4074   -1.7870 H   0  0  0  0  0  0  0  0  0  0  0  0
   -3.4560    1.6683   -3.0978 C   0  0  0  0  0  0  0  0  0  0  0  0
   -3.9198    2.6428   -3.2204 H   0  0  0  0  0  0  0  0  0  0  0  0
   -3.9767    0.5588   -3.7682 C   0  0  0  0  0  0  0  0  0  0  0  0
   -4.8487    0.6688   -4.4067 H   0  0  0  0  0  0  0  0  0  0  0  0
   -3.3530   -0.6845   -3.6400 C   0  0  0  0  0  0  0  0  0  0  0  0
   -3.7308   -1.5402   -4.1925 H   0  0  0  0  0  0  0  0  0  0  0  0
   -2.2270   -0.8198   -2.8216 C   0  0  0  0  0  0  0  0  0  0  0  0
   -1.7227   -1.7811   -2.7778 H   0  0  0  0  0  0  0  0  0  0  0  0
    0.0578   -0.3686    1.1499 C   0  0  0  0  0  0  0  0  0  0  0  0
    1.2437   -0.1814    1.3867 O   0  0  0  0  0  0  0  0  0  0  0  0
   -0.8916    0.2018    1.9788 N   0  0  0  0  0  0  0  0  0  0  0  0
   -1.8606   -0.0171    1.7721 H   0  0  0  0  0  0  0  0  0  0  0  0
   -0.5634    0.8077    3.2627 C   0  0  0  0  0  0  0  0  0  0  0  0
    0.1568    1.6220    3.1305 H   0  0  0  0  0  0  0  0  0  0  0  0
   -1.4645    1.2177    3.7284 H   0  0  0  0  0  0  0  0  0  0  0  0
   -0.1313    0.0613    3.9374 H   0  0  0  0  0  0  0  0  0  0  0  0
  1  2  1  0  0  0  0
  2  3  1  0  0  0  0
  2  4  1  0  0  0  0
  2  5  1  0  0  0  0
  5  6  2  0  0  0  0
  5  7  1  0  0  0  0
  7  8  1  0  0  0  0
  7  9  1  0  0  0  0
  9 10  1  0  0  0  0
  9 11  1  0  0  0  0
  9 25  1  0  0  0  0
 11 12  1  0  0  0  0
 11 13  1  0  0  0  0
 11 14  1  0  0  0  0
 14 15  1  0  0  0  0
 14 23  2  0  0  0  0
 15 16  1  0  0  0  0
 15 17  2  0  0  0  0
 17 18  1  0  0  0  0
 17 19  1  0  0  0  0
 19 20  1  0  0  0  0
 19 21  2  0  0  0  0
 21 22  1  0  0  0  0
 21 23  1  0  0  0  0
 23 24  1  0  0  0  0
 25 26  2  0  0  0  0
 25 27  1  0  0  0  0
 27 28  1  0  0  0  0
 27 29  1  0  0  0  0
 29 30  1  0  0  0  0
 29 31  1  0  0  0  0
 29 32  1  0  0  0  0
M  END
$$$$

  -OEChem-03222214073D

 32 32  0     1  0  0  0  0  0999 V2000
   -2.8667   -4.6147    1.4200 H   0  0  0  0  0  0  0  0  0  0  0  0
   -2.9724   -3.7567    0.7500 C   0  0  0  0  0  0  0  0  0  0  0  0
   -3.7796   -3.1198    1.1198 H   0  0  0  0  0  0  0  0  0  0  0  0
   -3.2310   -4.1195   -0.2478 H   0  0  0  0  0  0  0  0  0  0  0  0
   -1.6739   -2.9738    0.6965 C   0  0  0  0  0  0  0  0  0  0  0  0
   -0.7086   -3.3514    1.3356 O   0  0  0  0  0  0  0  0  0  0  0  0
   -1.5954   -1.8349   -0.0794 N   0  0  0  0  0  0  0  0  0  0  0  0
   -2.4389   -1.5457   -0.5687 H   0  0  0  0  0  0  0  0  0  0  0  0
   -0.4063   -0.9707   -0.1954 C   0  0  1  0  0  0  0  0  0  0  0  0
    0.4168   -1.6216   -0.5119 H   0  0  0  0  0  0  0  0  0  0  0  0
   -0.5233    0.1520   -1.2696 C   0  0  0  0  0  0  0  0  0  0  0  0
   -0.3533    1.1161   -0.7775 H   0  0  0  0  0  0  0  0  0  0  0  0
    0.3061    0.0191   -1.9720 H   0  0  0  0  0  0  0  0  0  0  0  0
   -1.7985    0.2731   -2.0969 C   0  0  0  0  0  0  0  0  0  0  0  0
   -2.1799    1.5505   -2.5432 C   0  0  0  0  0  0  0  0  0  0  0  0
   -1.6383    2.4282   -2.2022 H   0  0  0  0  0  0  0  0  0  0  0  0
   -3.2684    1.7263   -3.4041 C   0  0  0  0  0  0  0  0  0  0  0  0
   -3.5663    2.7267   -3.7047 H   0  0  0  0  0  0  0  0  0  0  0  0
   -3.9615    0.6162   -3.8894 C   0  0  0  0  0  0  0  0  0  0  0  0
   -4.8032    0.7504   -4.5630 H   0  0  0  0  0  0  0  0  0  0  0  0
   -3.5389   -0.6671   -3.5396 C   0  0  0  0  0  0  0  0  0  0  0  0
   -4.0394   -1.5340   -3.9614 H   0  0  0  0  0  0  0  0  0  0  0  0
   -2.4498   -0.8356   -2.6781 C   0  0  0  0  0  0  0  0  0  0  0  0
   -2.0938   -1.8463   -2.5074 H   0  0  0  0  0  0  0  0  0  0  0  0
    0.0433   -0.3590    1.1493 C   0  0  0  0  0  0  0  0  0  0  0  0
    1.2303   -0.1372    1.3485 O   0  0  0  0  0  0  0  0  0  0  0  0
   -0.8941    0.1863    2.0083 N   0  0  0  0  0  0  0  0  0  0  0  0
   -1.8645   -0.0503    1.8305 H   0  0  0  0  0  0  0  0  0  0  0  0
   -0.5408    0.8113    3.2764 C   0  0  0  0  0  0  0  0  0  0  0  0
    0.1234    1.6660    3.1105 H   0  0  0  0  0  0  0  0  0  0  0  0
   -1.4406    1.1686    3.7861 H   0  0  0  0  0  0  0  0  0  0  0  0
   -0.0342    0.0920    3.9285 H   0  0  0  0  0  0  0  0  0  0  0  0
  1  2  1  0  0  0  0
  2  3  1  0  0  0  0
  2  4  1  0  0  0  0
  2  5  1  0  0  0  0
  5  6  2  0  0  0  0
  5  7  1  0  0  0  0
  7  8  1  0  0  0  0
  7  9  1  0  0  0  0
  9 10  1  0  0  0  0
  9 11  1  0  0  0  0
  9 25  1  0  0  0  0
 11 12  1  0  0  0  0
 11 13  1  0  0  0  0
 11 14  1  0  0  0  0
 14 15  1  0  0  0  0
 14 23  2  0  0  0  0
 15 16  1  0  0  0  0
 15 17  2  0  0  0  0
 17 18  1  0  0  0  0
 17 19  1  0  0  0  0
 19 20  1  0  0  0  0
 19 21  2  0  0  0  0
 21 22  1  0  0  0  0
 21 23  1  0  0  0  0
 23 24  1  0  0  0  0
 25 26  2  0  0  0  0
 25 27  1  0  0  0  0
 27 28  1  0  0  0  0
 27 29  1  0  0  0  0
 29 30  1  0  0  0  0
 29 31  1  0  0  0  0
 29 32  1  0  0  0  0
M  END
$$$$

  -OEChem-03222214073D

 32 32  0     1  0  0  0  0  0999 V2000
   -2.7054   -4.6555    1.6140 H   0  0  0  0  0  0  0  0  0  0  0  0
   -2.8727   -3.8157    0.9334 C   0  0  0  0  0  0  0  0  0  0  0  0
   -3.6633   -3.1829    1.3437 H   0  0  0  0  0  0  0  0  0  0  0  0
   -3.1930   -4.2069   -0.0353 H   0  0  0  0  0  0  0  0  0  0  0  0
   -1.5950   -3.0140    0.7712 C   0  0  0  0  0  0  0  0  0  0  0  0
   -0.5798   -3.3660    1.3440 O   0  0  0  0  0  0  0  0  0  0  0  0
   -1.5929   -1.8847   -0.0235 N   0  0  0  0  0  0  0  0  0  0  0  0
   -2.4837   -1.5931   -0.4157 H   0  0  0  0  0  0  0  0  0  0  0  0
   -0.4427   -0.9809   -0.1906 C   0  0  1  0  0  0  0  0  0  0  0  0
    0.3908   -1.6144   -0.5156 H   0  0  0  0  0  0  0  0  0  0  0  0
   -0.5984    0.1239   -1.2810 C   0  0  0  0  0  0  0  0  0  0  0  0
   -0.4406    1.0930   -0.7944 H   0  0  0  0  0  0  0  0  0  0  0  0
    0.2373   -0.0046   -1.9768 H   0  0  0  0  0  0  0  0  0  0  0  0
   -1.8582    0.2669   -2.1364 C   0  0  0  0  0  0  0  0  0  0  0  0
   -2.0026    1.4844   -2.8271 C   0  0  0  0  0  0  0  0  0  0  0  0
   -1.2991    2.2927   -2.6477 H   0  0  0  0  0  0  0  0  0  0  0  0
   -3.0540    1.7043   -3.7223 C   0  0  0  0  0  0  0  0  0  0  0  0
   -3.1601    2.6695   -4.2092 H   0  0  0  0  0  0  0  0  0  0  0  0
   -3.9575    0.6795   -4.0005 C   0  0  0  0  0  0  0  0  0  0  0  0
   -4.7735    0.8453   -4.6980 H   0  0  0  0  0  0  0  0  0  0  0  0
   -3.7771   -0.5723   -3.4129 C   0  0  0  0  0  0  0  0  0  0  0  0
   -4.4402   -1.3910   -3.6773 H   0  0  0  0  0  0  0  0  0  0  0  0
   -2.7213   -0.7855   -2.5193 C   0  0  0  0  0  0  0  0  0  0  0  0
   -2.5748   -1.8072   -2.1962 H   0  0  0  0  0  0  0  0  0  0  0  0
    0.0239   -0.3382    1.1344 C   0  0  0  0  0  0  0  0  0  0  0  0
    1.2087   -0.0819    1.3017 O   0  0  0  0  0  0  0  0  0  0  0  0
   -0.9060    0.1820    2.0174 N   0  0  0  0  0  0  0  0  0  0  0  0
   -1.8764   -0.0674    1.8591 H   0  0  0  0  0  0  0  0  0  0  0  0
   -0.5374    0.8319    3.2688 C   0  0  0  0  0  0  0  0  0  0  0  0
    0.1011    1.7007    3.0772 H   0  0  0  0  0  0  0  0  0  0  0  0
   -1.4331    1.1730    3.7963 H   0  0  0  0  0  0  0  0  0  0  0  0
    0.0029    0.1336    3.9166 H   0  0  0  0  0  0  0  0  0  0  0  0
  1  2  1  0  0  0  0
  2  3  1  0  0  0  0
  2  4  1  0  0  0  0
  2  5  1  0  0  0  0
  5  6  2  0  0  0  0
  5  7  1  0  0  0  0
  7  8  1  0  0  0  0
  7  9  1  0  0  0  0
  9 10  1  0  0  0  0
  9 11  1  0  0  0  0
  9 25  1  0  0  0  0
 11 12  1  0  0  0  0
 11 13  1  0  0  0  0
 11 14  1  0  0  0  0
 14 15  1  0  0  0  0
 14 23  2  0  0  0  0
 15 16  1  0  0  0  0
 15 17  2  0  0  0  0
 17 18  1  0  0  0  0
 17 19  1  0  0  0  0
 19 20  1  0  0  0  0
 19 21  2  0  0  0  0
 21 22  1  0  0  0  0
 21 23  1  0  0  0  0
 23 24  1  0  0  0  0
 25 26  2  0  0  0  0
 25 27  1  0  0  0  0
 27 28  1  0  0  0  0
 27 29  1  0  0  0  0
 29 30  1  0  0  0  0
 29 31  1  0  0  0  0
 29 32  1  0  0  0  0
M  END
$$$$

  -OEChem-03222214073D

 32 32  0     1  0  0  0  0  0999 V2000
   -2.2129   -5.0195    1.0695 H   0  0  0  0  0  0  0  0  0  0  0  0
   -2.4372   -4.1601    0.4307 C   0  0  0  0  0  0  0  0  0  0  0  0
   -3.4045   -3.7459    0.7251 H   0  0  0  0  0  0  0  0  0  0  0  0
   -2.4929   -4.4991   -0.6067 H   0  0  0  0  0  0  0  0  0  0  0  0
   -1.3559   -3.1056    0.5745 C   0  0  0  0  0  0  0  0  0  0  0  0
   -0.4314   -3.2885    1.3452 O   0  0  0  0  0  0  0  0  0  0  0  0
   -1.4345   -1.9473   -0.1745 N   0  0  0  0  0  0  0  0  0  0  0  0
   -2.1343   -1.9463   -0.9111 H   0  0  0  0  0  0  0  0  0  0  0  0
   -0.3532   -0.9548   -0.2910 C   0  0  1  0  0  0  0  0  0  0  0  0
    0.5359   -1.4809   -0.6564 H   0  0  0  0  0  0  0  0  0  0  0  0
   -0.6425    0.2186   -1.2776 C   0  0  0  0  0  0  0  0  0  0  0  0
   -0.2400    1.1405   -0.8415 H   0  0  0  0  0  0  0  0  0  0  0  0
   -0.0270    0.0118   -2.1593 H   0  0  0  0  0  0  0  0  0  0  0  0
   -2.0331    0.5623   -1.8212 C   0  0  0  0  0  0  0  0  0  0  0  0
   -2.0705    1.6562   -2.7057 C   0  0  0  0  0  0  0  0  0  0  0  0
   -1.1430    2.1342   -3.0088 H   0  0  0  0  0  0  0  0  0  0  0  0
   -3.2711    2.1407   -3.2326 C   0  0  0  0  0  0  0  0  0  0  0  0
   -3.2614    2.9704   -3.9335 H   0  0  0  0  0  0  0  0  0  0  0  0
   -4.4811    1.5639   -2.8510 C   0  0  0  0  0  0  0  0  0  0  0  0
   -5.4169    1.9384   -3.2565 H   0  0  0  0  0  0  0  0  0  0  0  0
   -4.4831    0.5250   -1.9209 C   0  0  0  0  0  0  0  0  0  0  0  0
   -5.4277    0.1036   -1.5894 H   0  0  0  0  0  0  0  0  0  0  0  0
   -3.2787    0.0457   -1.3929 C   0  0  0  0  0  0  0  0  0  0  0  0
   -3.3827   -0.6980   -0.6178 H   0  0  0  0  0  0  0  0  0  0  0  0
    0.0487   -0.3405    1.0697 C   0  0  0  0  0  0  0  0  0  0  0  0
    1.2108   -0.0060    1.2612 O   0  0  0  0  0  0  0  0  0  0  0  0
   -0.9263    0.0681    1.9617 N   0  0  0  0  0  0  0  0  0  0  0  0
   -1.8654   -0.2756    1.7911 H   0  0  0  0  0  0  0  0  0  0  0  0
   -0.6213    0.6856    3.2457 C   0  0  0  0  0  0  0  0  0  0  0  0
   -0.0130    1.5852    3.1043 H   0  0  0  0  0  0  0  0  0  0  0  0
   -1.5453    0.9730    3.7559 H   0  0  0  0  0  0  0  0  0  0  0  0
   -0.0729   -0.0143    3.8849 H   0  0  0  0  0  0  0  0  0  0  0  0
  1  2  1  0  0  0  0
  2  3  1  0  0  0  0
  2  4  1  0  0  0  0
  2  5  1  0  0  0  0
  5  6  2  0  0  0  0
  5  7  1  0  0  0  0
  7  8  1  0  0  0  0
  7  9  1  0  0  0  0
  9 10  1  0  0  0  0
  9 11  1  0  0  0  0
  9 25  1  0  0  0  0
 11 12  1  0  0  0  0
 11 13  1  0  0  0  0
 11 14  1  0  0  0  0
 14 15  1  0  0  0  0
 14 23  2  0  0  0  0
 15 16  1  0  0  0  0
 15 17  2  0  0  0  0
 17 18  1  0  0  0  0
 17 19  1  0  0  0  0
 19 20  1  0  0  0  0
 19 21  2  0  0  0  0
 21 22  1  0  0  0  0
 21 23  1  0  0  0  0
 23 24  1  0  0  0  0
 25 26  2  0  0  0  0
 25 27  1  0  0  0  0
 27 28  1  0  0  0  0
 27 29  1  0  0  0  0
 29 30  1  0  0  0  0
 29 31  1  0  0  0  0
 29 32  1  0  0  0  0
M  END
$$$$

  -OEChem-03222214073D

 32 32  0     1  0  0  0  0  0999 V2000
   -2.6038   -4.8584    1.2022 H   0  0  0  0  0  0  0  0  0  0  0  0
   -2.7451   -4.0019    0.5363 C   0  0  0  0  0  0  0  0  0  0  0  0
   -3.6744   -3.4954    0.8069 H   0  0  0  0  0  0  0  0  0  0  0  0
   -2.8210   -4.3656   -0.4912 H   0  0  0  0  0  0  0  0  0  0  0  0
   -1.5753   -3.0441    0.6634 C   0  0  0  0  0  0  0  0  0  0  0  0
   -0.6847   -3.2792    1.4597 O   0  0  0  0  0  0  0  0  0  0  0  0
   -1.5333   -1.9102   -0.1242 N   0  0  0  0  0  0  0  0  0  0  0  0
   -2.2414   -1.8385   -0.8511 H   0  0  0  0  0  0  0  0  0  0  0  0
   -0.3720   -1.0067   -0.2292 C   0  0  1  0  0  0  0  0  0  0  0  0
    0.4848   -1.6153   -0.5396 H   0  0  0  0  0  0  0  0  0  0  0  0
   -0.5449    0.1249   -1.2853 C   0  0  0  0  0  0  0  0  0  0  0  0
   -0.1213    1.0524   -0.8834 H   0  0  0  0  0  0  0  0  0  0  0  0
    0.0900   -0.1565   -2.1316 H   0  0  0  0  0  0  0  0  0  0  0  0
   -1.9154    0.4711   -1.8626 C   0  0  0  0  0  0  0  0  0  0  0  0
   -1.9298    1.2558   -3.0293 C   0  0  0  0  0  0  0  0  0  0  0  0
   -0.9953    1.4956   -3.5288 H   0  0  0  0  0  0  0  0  0  0  0  0
   -3.1257    1.7208   -3.5852 C   0  0  0  0  0  0  0  0  0  0  0  0
   -3.1088    2.2964   -4.5061 H   0  0  0  0  0  0  0  0  0  0  0  0
   -4.3390    1.4566   -2.9497 C   0  0  0  0  0  0  0  0  0  0  0  0
   -5.2688    1.8199   -3.3782 H   0  0  0  0  0  0  0  0  0  0  0  0
   -4.3456    0.7579   -1.7418 C   0  0  0  0  0  0  0  0  0  0  0  0
   -5.2834    0.5966   -1.2177 H   0  0  0  0  0  0  0  0  0  0  0  0
   -3.1449    0.2974   -1.1897 C   0  0  0  0  0  0  0  0  0  0  0  0
   -3.2007   -0.1543   -0.2075 H   0  0  0  0  0  0  0  0  0  0  0  0
    0.0372   -0.3697    1.1179 C   0  0  0  0  0  0  0  0  0  0  0  0
    1.2158   -0.1158    1.3306 O   0  0  0  0  0  0  0  0  0  0  0  0
   -0.9258    0.1517    1.9630 N   0  0  0  0  0  0  0  0  0  0  0  0
   -1.8802   -0.1456    1.7930 H   0  0  0  0  0  0  0  0  0  0  0  0
   -0.6025    0.7836    3.2356 C   0  0  0  0  0  0  0  0  0  0  0  0
    0.0739    1.6312    3.0827 H   0  0  0  0  0  0  0  0  0  0  0  0
   -1.5128    1.1534    3.7166 H   0  0  0  0  0  0  0  0  0  0  0  0
   -0.1206    0.0646    3.9065 H   0  0  0  0  0  0  0  0  0  0  0  0
  1  2  1  0  0  0  0
  2  3  1  0  0  0  0
  2  4  1  0  0  0  0
  2  5  1  0  0  0  0
  5  6  2  0  0  0  0
  5  7  1  0  0  0  0
  7  8  1  0  0  0  0
  7  9  1  0  0  0  0
  9 10  1  0  0  0  0
  9 11  1  0  0  0  0
  9 25  1  0  0  0  0
 11 12  1  0  0  0  0
 11 13  1  0  0  0  0
 11 14  1  0  0  0  0
 14 15  1  0  0  0  0
 14 23  2  0  0  0  0
 15 16  1  0  0  0  0
 15 17  2  0  0  0  0
 17 18  1  0  0  0  0
 17 19  1  0  0  0  0
 19 20  1  0  0  0  0
 19 21  2  0  0  0  0
 21 22  1  0  0  0  0
 21 23  1  0  0  0  0
 23 24  1  0  0  0  0
 25 26  2  0  0  0  0
 25 27  1  0  0  0  0
 27 28  1  0  0  0  0
 27 29  1  0  0  0  0
 29 30  1  0  0  0  0
 29 31  1  0  0  0  0
 29 32  1  0  0  0  0
M  END
$$$$

  -OEChem-03222214073D

 32 32  0     1  0  0  0  0  0999 V2000
   -2.7678   -4.7576    1.1229 H   0  0  0  0  0  0  0  0  0  0  0  0
   -2.8630   -3.8859    0.4690 C   0  0  0  0  0  0  0  0  0  0  0  0
   -3.7664   -3.3366    0.7438 H   0  0  0  0  0  0  0  0  0  0  0  0
   -2.9539   -4.2302   -0.5641 H   0  0  0  0  0  0  0  0  0  0  0  0
   -1.6464   -2.9906    0.6123 C   0  0  0  0  0  0  0  0  0  0  0  0
   -0.7678   -3.2818    1.4035 O   0  0  0  0  0  0  0  0  0  0  0  0
   -1.5492   -1.8446   -0.1511 N   0  0  0  0  0  0  0  0  0  0  0  0
   -2.2719   -1.6989   -0.8530 H   0  0  0  0  0  0  0  0  0  0  0  0
   -0.3578   -0.9758   -0.2201 C   0  0  1  0  0  0  0  0  0  0  0  0
    0.4840   -1.6074   -0.5253 H   0  0  0  0  0  0  0  0  0  0  0  0
   -0.4914    0.1561   -1.2783 C   0  0  0  0  0  0  0  0  0  0  0  0
   -0.0750    1.0846   -0.8716 H   0  0  0  0  0  0  0  0  0  0  0  0
    0.1524   -0.1259   -2.1177 H   0  0  0  0  0  0  0  0  0  0  0  0
   -1.8716    0.4748   -1.8392 C   0  0  0  0  0  0  0  0  0  0  0  0
   -1.9647    0.9615   -3.1538 C   0  0  0  0  0  0  0  0  0  0  0  0
   -1.0760    1.0189   -3.7758 H   0  0  0  0  0  0  0  0  0  0  0  0
   -3.1924    1.3616   -3.6924 C   0  0  0  0  0  0  0  0  0  0  0  0
   -3.2471    1.7087   -4.7201 H   0  0  0  0  0  0  0  0  0  0  0  0
   -4.3451    1.3291   -2.9052 C   0  0  0  0  0  0  0  0  0  0  0  0
   -5.2978    1.6445   -3.3210 H   0  0  0  0  0  0  0  0  0  0  0  0
   -4.2609    0.9215   -1.5726 C   0  0  0  0  0  0  0  0  0  0  0  0
   -5.1479    0.9368   -0.9458 H   0  0  0  0  0  0  0  0  0  0  0  0
   -3.0311    0.5212   -1.0396 C   0  0  0  0  0  0  0  0  0  0  0  0
   -2.9871    0.2723    0.0146 H   0  0  0  0  0  0  0  0  0  0  0  0
    0.0559   -0.3706    1.1403 C   0  0  0  0  0  0  0  0  0  0  0  0
    1.2384   -0.1447    1.3621 O   0  0  0  0  0  0  0  0  0  0  0  0
   -0.8992    0.1702    1.9827 N   0  0  0  0  0  0  0  0  0  0  0  0
   -1.8535   -0.1323    1.8220 H   0  0  0  0  0  0  0  0  0  0  0  0
   -0.5661    0.7712    3.2681 C   0  0  0  0  0  0  0  0  0  0  0  0
    0.1281    1.6072    3.1335 H   0  0  0  0  0  0  0  0  0  0  0  0
   -1.4701    1.1506    3.7538 H   0  0  0  0  0  0  0  0  0  0  0  0
   -0.1018    0.0300    3.9269 H   0  0  0  0  0  0  0  0  0  0  0  0
  1  2  1  0  0  0  0
  2  3  1  0  0  0  0
  2  4  1  0  0  0  0
  2  5  1  0  0  0  0
  5  6  2  0  0  0  0
  5  7  1  0  0  0  0
  7  8  1  0  0  0  0
  7  9  1  0  0  0  0
  9 10  1  0  0  0  0
  9 11  1  0  0  0  0
  9 25  1  0  0  0  0
 11 12  1  0  0  0  0
 11 13  1  0  0  0  0
 11 14  1  0  0  0  0
 14 15  1  0  0  0  0
 14 23  2  0  0  0  0
 15 16  1  0  0  0  0
 15 17  2  0  0  0  0
 17 18  1  0  0  0  0
 17 19  1  0  0  0  0
 19 20  1  0  0  0  0
 19 21  2  0  0  0  0
 21 22  1  0  0  0  0
 21 23  1  0  0  0  0
 23 24  1  0  0  0  0
 25 26  2  0  0  0  0
 25 27  1  0  0  0  0
 27 28  1  0  0  0  0
 27 29  1  0  0  0  0
 29 30  1  0  0  0  0
 29 31  1  0  0  0  0
 29 32  1  0  0  0  0
M  END
$$$$

  -OEChem-03222214073D

 32 32  0     1  0  0  0  0  0999 V2000
   -2.8988   -4.6572    1.0747 H   0  0  0  0  0  0  0  0  0  0  0  0
   -2.9574   -3.7775    0.4275 C   0  0  0  0  0  0  0  0  0  0  0  0
   -3.8315   -3.1875    0.7131 H   0  0  0  0  0  0  0  0  0  0  0  0
   -3.0722   -4.1095   -0.6072 H   0  0  0  0  0  0  0  0  0  0  0  0
   -1.6989   -2.9418    0.5669 C   0  0  0  0  0  0  0  0  0  0  0  0
   -0.8225   -3.2849    1.3398 O   0  0  0  0  0  0  0  0  0  0  0  0
   -1.5622   -1.7862   -0.1748 N   0  0  0  0  0  0  0  0  0  0  0  0
   -2.2980   -1.5785   -0.8471 H   0  0  0  0  0  0  0  0  0  0  0  0
   -0.3487   -0.9459   -0.2158 C   0  0  1  0  0  0  0  0  0  0  0  0
    0.4798   -1.5954   -0.5197 H   0  0  0  0  0  0  0  0  0  0  0  0
   -0.4492    0.1888   -1.2712 C   0  0  0  0  0  0  0  0  0  0  0  0
   -0.0378    1.1153   -0.8553 H   0  0  0  0  0  0  0  0  0  0  0  0
    0.2019   -0.0880   -2.1065 H   0  0  0  0  0  0  0  0  0  0  0  0
   -1.8351    0.4913   -1.8184 C   0  0  0  0  0  0  0  0  0  0  0  0
   -2.0118    0.6682   -3.2002 C   0  0  0  0  0  0  0  0  0  0  0  0
   -1.1756    0.5307   -3.8797 H   0  0  0  0  0  0  0  0  0  0  0  0
   -3.2621    1.0110   -3.7258 C   0  0  0  0  0  0  0  0  0  0  0  0
   -3.3861    1.1264   -4.7989 H   0  0  0  0  0  0  0  0  0  0  0  0
   -4.3477    1.2164   -2.8707 C   0  0  0  0  0  0  0  0  0  0  0  0
   -5.3176    1.4880   -3.2779 H   0  0  0  0  0  0  0  0  0  0  0  0
   -4.1762    1.0950   -1.4895 C   0  0  0  0  0  0  0  0  0  0  0  0
   -5.0116    1.2842   -0.8212 H   0  0  0  0  0  0  0  0  0  0  0  0
   -2.9250    0.7506   -0.9679 C   0  0  0  0  0  0  0  0  0  0  0  0
   -2.8027    0.6994    0.1084 H   0  0  0  0  0  0  0  0  0  0  0  0
    0.0700   -0.3703    1.1550 C   0  0  0  0  0  0  0  0  0  0  0  0
    1.2553   -0.1675    1.3832 O   0  0  0  0  0  0  0  0  0  0  0  0
   -0.8773    0.1826    1.9980 N   0  0  0  0  0  0  0  0  0  0  0  0
   -1.8335   -0.1159    1.8402 H   0  0  0  0  0  0  0  0  0  0  0  0
   -0.5346    0.7601    3.2917 C   0  0  0  0  0  0  0  0  0  0  0  0
    0.1869    1.5751    3.1704 H   0  0  0  0  0  0  0  0  0  0  0  0
   -1.4295    1.1637    3.7745 H   0  0  0  0  0  0  0  0  0  0  0  0
   -0.0985   -0.0020    3.9461 H   0  0  0  0  0  0  0  0  0  0  0  0
  1  2  1  0  0  0  0
  2  3  1  0  0  0  0
  2  4  1  0  0  0  0
  2  5  1  0  0  0  0
  5  6  2  0  0  0  0
  5  7  1  0  0  0  0
  7  8  1  0  0  0  0
  7  9  1  0  0  0  0
  9 10  1  0  0  0  0
  9 11  1  0  0  0  0
  9 25  1  0  0  0  0
 11 12  1  0  0  0  0
 11 13  1  0  0  0  0
 11 14  1  0  0  0  0
 14 15  1  0  0  0  0
 14 23  2  0  0  0  0
 15 16  1  0  0  0  0
 15 17  2  0  0  0  0
 17 18  1  0  0  0  0
 17 19  1  0  0  0  0
 19 20  1  0  0  0  0
 19 21  2  0  0  0  0
 21 22  1  0  0  0  0
 21 23  1  0  0  0  0
 23 24  1  0  0  0  0
 25 26  2  0  0  0  0
 25 27  1  0  0  0  0
 27 28  1  0  0  0  0
 27 29  1  0  0  0  0
 29 30  1  0  0  0  0
 29 31  1  0  0  0  0
 29 32  1  0  0  0  0
M  END
$$$$

  -OEChem-03222214073D

 32 32  0     1  0  0  0  0  0999 V2000
   -2.9860   -4.5801    1.0377 H   0  0  0  0  0  0  0  0  0  0  0  0
   -3.0209   -3.6948    0.3962 C   0  0  0  0  0  0  0  0  0  0  0  0
   -3.8760   -3.0812    0.6896 H   0  0  0  0  0  0  0  0  0  0  0  0
   -3.1497   -4.0167   -0.6401 H   0  0  0  0  0  0  0  0  0  0  0  0
   -1.7371   -2.8986    0.5359 C   0  0  0  0  0  0  0  0  0  0  0  0
   -0.8694   -3.2740    1.3037 O   0  0  0  0  0  0  0  0  0  0  0  0
   -1.5649   -1.7439   -0.1996 N   0  0  0  0  0  0  0  0  0  0  0  0
   -2.3038   -1.4951   -0.8545 H   0  0  0  0  0  0  0  0  0  0  0  0
   -0.3323   -0.9305   -0.2225 C   0  0  1  0  0  0  0  0  0  0  0  0
    0.4872   -1.5938   -0.5214 H   0  0  0  0  0  0  0  0  0  0  0  0
   -0.4062    0.2079   -1.2738 C   0  0  0  0  0  0  0  0  0  0  0  0
    0.0100    1.1305   -0.8538 H   0  0  0  0  0  0  0  0  0  0  0  0
    0.2421   -0.0681   -2.1115 H   0  0  0  0  0  0  0  0  0  0  0  0
   -1.7965    0.5043   -1.8041 C   0  0  0  0  0  0  0  0  0  0  0  0
   -2.0747    0.3745   -3.1736 C   0  0  0  0  0  0  0  0  0  0  0  0
   -1.3051    0.0295   -3.8580 H   0  0  0  0  0  0  0  0  0  0  0  0
   -3.3454    0.6770   -3.6746 C   0  0  0  0  0  0  0  0  0  0  0  0
   -3.5519    0.5627   -4.7349 H   0  0  0  0  0  0  0  0  0  0  0  0
   -4.3462    1.1357   -2.8137 C   0  0  0  0  0  0  0  0  0  0  0  0
   -5.3312    1.3763   -3.2038 H   0  0  0  0  0  0  0  0  0  0  0  0
   -4.0714    1.3021   -1.4535 C   0  0  0  0  0  0  0  0  0  0  0  0
   -4.8415    1.6802   -0.7872 H   0  0  0  0  0  0  0  0  0  0  0  0
   -2.8007    0.9975   -0.9545 C   0  0  0  0  0  0  0  0  0  0  0  0
   -2.5919    1.1587    0.0980 H   0  0  0  0  0  0  0  0  0  0  0  0
    0.0776   -0.3713    1.1571 C   0  0  0  0  0  0  0  0  0  0  0  0
    1.2631   -0.1962    1.4068 O   0  0  0  0  0  0  0  0  0  0  0  0
   -0.8726    0.1970    1.9864 N   0  0  0  0  0  0  0  0  0  0  0  0
   -1.8330   -0.0745    1.8039 H   0  0  0  0  0  0  0  0  0  0  0  0
   -0.5423    0.7548    3.2917 C   0  0  0  0  0  0  0  0  0  0  0  0
    0.1954    1.5578    3.1909 H   0  0  0  0  0  0  0  0  0  0  0  0
   -1.4380    1.1691    3.7638 H   0  0  0  0  0  0  0  0  0  0  0  0
   -0.1306   -0.0215    3.9453 H   0  0  0  0  0  0  0  0  0  0  0  0
  1  2  1  0  0  0  0
  2  3  1  0  0  0  0
  2  4  1  0  0  0  0
  2  5  1  0  0  0  0
  5  6  2  0  0  0  0
  5  7  1  0  0  0  0
  7  8  1  0  0  0  0
  7  9  1  0  0  0  0
  9 10  1  0  0  0  0
  9 11  1  0  0  0  0
  9 25  1  0  0  0  0
 11 12  1  0  0  0  0
 11 13  1  0  0  0  0
 11 14  1  0  0  0  0
 14 15  1  0  0  0  0
 14 23  2  0  0  0  0
 15 16  1  0  0  0  0
 15 17  2  0  0  0  0
 17 18  1  0  0  0  0
 17 19  1  0  0  0  0
 19 20  1  0  0  0  0
 19 21  2  0  0  0  0
 21 22  1  0  0  0  0
 21 23  1  0  0  0  0
 23 24  1  0  0  0  0
 25 26  2  0  0  0  0
 25 27  1  0  0  0  0
 27 28  1  0  0  0  0
 27 29  1  0  0  0  0
 29 30  1  0  0  0  0
 29 31  1  0  0  0  0
 29 32  1  0  0  0  0
M  END
$$$$

  -OEChem-03222214073D

 32 32  0     1  0  0  0  0  0999 V2000
   -3.0565   -4.5082    1.0281 H   0  0  0  0  0  0  0  0  0  0  0  0
   -3.0646   -3.6249    0.3831 C   0  0  0  0  0  0  0  0  0  0  0  0
   -3.8953   -2.9798    0.6793 H   0  0  0  0  0  0  0  0  0  0  0  0
   -3.2115   -3.9461   -0.6509 H   0  0  0  0  0  0  0  0  0  0  0  0
   -1.7530   -2.8734    0.5101 C   0  0  0  0  0  0  0  0  0  0  0  0
   -0.8918   -3.2767    1.2711 O   0  0  0  0  0  0  0  0  0  0  0  0
   -1.5492   -1.7270   -0.2302 N   0  0  0  0  0  0  0  0  0  0  0  0
   -2.2932   -1.4437   -0.8651 H   0  0  0  0  0  0  0  0  0  0  0  0
   -0.3038   -0.9323   -0.2405 C   0  0  1  0  0  0  0  0  0  0  0  0
    0.5142   -1.6009   -0.5312 H   0  0  0  0  0  0  0  0  0  0  0  0
   -0.3622    0.2163   -1.2808 C   0  0  0  0  0  0  0  0  0  0  0  0
    0.0667    1.1311   -0.8567 H   0  0  0  0  0  0  0  0  0  0  0  0
    0.2752   -0.0581   -2.1273 H   0  0  0  0  0  0  0  0  0  0  0  0
   -1.7560    0.5159   -1.7927 C   0  0  0  0  0  0  0  0  0  0  0  0
   -2.1485    0.1092   -3.0771 C   0  0  0  0  0  0  0  0  0  0  0  0
   -1.4537   -0.4284   -3.7163 H   0  0  0  0  0  0  0  0  0  0  0  0
   -3.4382    0.3834   -3.5452 C   0  0  0  0  0  0  0  0  0  0  0  0
   -3.7350    0.0611   -4.5394 H   0  0  0  0  0  0  0  0  0  0  0  0
   -4.3428    1.0782   -2.7371 C   0  0  0  0  0  0  0  0  0  0  0  0
   -5.3424    1.2960   -3.1027 H   0  0  0  0  0  0  0  0  0  0  0  0
   -3.9542    1.5052   -1.4639 C   0  0  0  0  0  0  0  0  0  0  0  0
   -4.6508    2.0602   -0.8421 H   0  0  0  0  0  0  0  0  0  0  0  0
   -2.6651    1.2289   -0.9962 C   0  0  0  0  0  0  0  0  0  0  0  0
   -2.3669    1.5798   -0.0126 H   0  0  0  0  0  0  0  0  0  0  0  0
    0.0821   -0.3747    1.1462 C   0  0  0  0  0  0  0  0  0  0  0  0
    1.2627   -0.2178    1.4279 O   0  0  0  0  0  0  0  0  0  0  0  0
   -0.8830    0.2084    1.9477 N   0  0  0  0  0  0  0  0  0  0  0  0
   -1.8434   -0.0351    1.7286 H   0  0  0  0  0  0  0  0  0  0  0  0
   -0.5845    0.7645    3.2613 C   0  0  0  0  0  0  0  0  0  0  0  0
    0.1726    1.5518    3.1821 H   0  0  0  0  0  0  0  0  0  0  0  0
   -1.4865    1.1991    3.7023 H   0  0  0  0  0  0  0  0  0  0  0  0
   -0.2111   -0.0174    3.9310 H   0  0  0  0  0  0  0  0  0  0  0  0
  1  2  1  0  0  0  0
  2  3  1  0  0  0  0
  2  4  1  0  0  0  0
  2  5  1  0  0  0  0
  5  6  2  0  0  0  0
  5  7  1  0  0  0  0
  7  8  1  0  0  0  0
  7  9  1  0  0  0  0
  9 10  1  0  0  0  0
  9 11  1  0  0  0  0
  9 25  1  0  0  0  0
 11 12  1  0  0  0  0
 11 13  1  0  0  0  0
 11 14  1  0  0  0  0
 14 15  1  0  0  0  0
 14 23  2  0  0  0  0
 15 16  1  0  0  0  0
 15 17  2  0  0  0  0
 17 18  1  0  0  0  0
 17 19  1  0  0  0  0
 19 20  1  0  0  0  0
 19 21  2  0  0  0  0
 21 22  1  0  0  0  0
 21 23  1  0  0  0  0
 23 24  1  0  0  0  0
 25 26  2  0  0  0  0
 25 27  1  0  0  0  0
 27 28  1  0  0  0  0
 27 29  1  0  0  0  0
 29 30  1  0  0  0  0
 29 31  1  0  0  0  0
 29 32  1  0  0  0  0
M  END
$$$$

  -OEChem-03222214073D

 32 32  0     1  0  0  0  0  0999 V2000
   -3.0916   -4.4693    1.0429 H   0  0  0  0  0  0  0  0  0  0  0  0
   -3.0865   -3.5923    0.3895 C   0  0  0  0  0  0  0  0  0  0  0  0
   -3.8999   -2.9266    0.6877 H   0  0  0  0  0  0  0  0  0  0  0  0
   -3.2504   -3.9200   -0.6399 H   0  0  0  0  0  0  0  0  0  0  0  0
   -1.7573   -2.8692    0.4965 C   0  0  0  0  0  0  0  0  0  0  0  0
   -0.8920   -3.2923    1.2422 O   0  0  0  0  0  0  0  0  0  0  0  0
   -1.5382   -1.7306   -0.2514 N   0  0  0  0  0  0  0  0  0  0  0  0
   -2.2901   -1.4228   -0.8652 H   0  0  0  0  0  0  0  0  0  0  0  0
   -0.2872   -0.9447   -0.2553 C   0  0  1  0  0  0  0  0  0  0  0  0
    0.5316   -1.6147   -0.5397 H   0  0  0  0  0  0  0  0  0  0  0  0
   -0.3350    0.2145   -1.2839 C   0  0  0  0  0  0  0  0  0  0  0  0
    0.1104    1.1204   -0.8569 H   0  0  0  0  0  0  0  0  0  0  0  0
    0.2915   -0.0613   -2.1383 H   0  0  0  0  0  0  0  0  0  0  0  0
   -1.7266    0.5267   -1.7902 C   0  0  0  0  0  0  0  0  0  0  0  0
   -2.2352   -0.1173   -2.9289 C   0  0  0  0  0  0  0  0  0  0  0  0
   -1.6199   -0.8289   -3.4725 H   0  0  0  0  0  0  0  0  0  0  0  0
   -3.5349    0.1490   -3.3720 C   0  0  0  0  0  0  0  0  0  0  0  0
   -3.9209   -0.3506   -4.2562 H   0  0  0  0  0  0  0  0  0  0  0  0
   -4.3353    1.0635   -2.6807 C   0  0  0  0  0  0  0  0  0  0  0  0
   -5.3426    1.2757   -3.0277 H   0  0  0  0  0  0  0  0  0  0  0  0
   -3.8347    1.7118   -1.5475 C   0  0  0  0  0  0  0  0  0  0  0  0
   -4.4530    2.4282   -1.0144 H   0  0  0  0  0  0  0  0  0  0  0  0
   -2.5356    1.4435   -1.1040 C   0  0  0  0  0  0  0  0  0  0  0  0
   -2.1534    1.9530   -0.2235 H   0  0  0  0  0  0  0  0  0  0  0  0
    0.0800   -0.3819    1.1342 C   0  0  0  0  0  0  0  0  0  0  0  0
    1.2563   -0.2345    1.4384 O   0  0  0  0  0  0  0  0  0  0  0  0
   -0.8965    0.2111    1.9149 N   0  0  0  0  0  0  0  0  0  0  0  0
   -1.8570    0.0015    1.6626 H   0  0  0  0  0  0  0  0  0  0  0  0
   -0.6222    0.7865    3.2253 C   0  0  0  0  0  0  0  0  0  0  0  0
    0.1312    1.5774    3.1467 H   0  0  0  0  0  0  0  0  0  0  0  0
   -1.5339    1.2206    3.6466 H   0  0  0  0  0  0  0  0  0  0  0  0
   -0.2542    0.0158    3.9108 H   0  0  0  0  0  0  0  0  0  0  0  0
  1  2  1  0  0  0  0
  2  3  1  0  0  0  0
  2  4  1  0  0  0  0
  2  5  1  0  0  0  0
  5  6  2  0  0  0  0
  5  7  1  0  0  0  0
  7  8  1  0  0  0  0
  7  9  1  0  0  0  0
  9 10  1  0  0  0  0
  9 11  1  0  0  0  0
  9 25  1  0  0  0  0
 11 12  1  0  0  0  0
 11 13  1  0  0  0  0
 11 14  1  0  0  0  0
 14 15  1  0  0  0  0
 14 23  2  0  0  0  0
 15 16  1  0  0  0  0
 15 17  2  0  0  0  0
 17 18  1  0  0  0  0
 17 19  1  0  0  0  0
 19 20  1  0  0  0  0
 19 21  2  0  0  0  0
 21 22  1  0  0  0  0
 21 23  1  0  0  0  0
 23 24  1  0  0  0  0
 25 26  2  0  0  0  0
 25 27  1  0  0  0  0
 27 28  1  0  0  0  0
 27 29  1  0  0  0  0
 29 30  1  0  0  0  0
 29 31  1  0  0  0  0
 29 32  1  0  0  0  0
M  END
$$$$

  -OEChem-03222214073D

 32 32  0     1  0  0  0  0  0999 V2000
   -3.0600   -4.4847    1.1021 H   0  0  0  0  0  0  0  0  0  0  0  0
   -3.0692   -3.6114    0.4437 C   0  0  0  0  0  0  0  0  0  0  0  0
   -3.8688   -2.9387    0.7625 H   0  0  0  0  0  0  0  0  0  0  0  0
   -3.2664   -3.9434   -0.5784 H   0  0  0  0  0  0  0  0  0  0  0  0
   -1.7327   -2.8962    0.5065 C   0  0  0  0  0  0  0  0  0  0  0  0
   -0.8451   -3.3265    1.2209 O   0  0  0  0  0  0  0  0  0  0  0  0
   -1.5306   -1.7587   -0.2483 N   0  0  0  0  0  0  0  0  0  0  0  0
   -2.3090   -1.4311   -0.8164 H   0  0  0  0  0  0  0  0  0  0  0  0
   -0.2889   -0.9592   -0.2599 C   0  0  1  0  0  0  0  0  0  0  0  0
    0.5369   -1.6210   -0.5437 H   0  0  0  0  0  0  0  0  0  0  0  0
   -0.3398    0.2062   -1.2832 C   0  0  0  0  0  0  0  0  0  0  0  0
    0.1170    1.1055   -0.8548 H   0  0  0  0  0  0  0  0  0  0  0  0
    0.2828   -0.0720   -2.1396 H   0  0  0  0  0  0  0  0  0  0  0  0
   -1.7227    0.5373   -1.8059 C   0  0  0  0  0  0  0  0  0  0  0  0
   -2.3540   -0.2879   -2.7516 C   0  0  0  0  0  0  0  0  0  0  0  0
   -1.8313   -1.1524   -3.1519 H   0  0  0  0  0  0  0  0  0  0  0  0
   -3.6500   -0.0016   -3.1927 C   0  0  0  0  0  0  0  0  0  0  0  0
   -4.1279   -0.6398   -3.9306 H   0  0  0  0  0  0  0  0  0  0  0  0
   -4.3284    1.1122   -2.6897 C   0  0  0  0  0  0  0  0  0  0  0  0
   -5.3324    1.3402   -3.0358 H   0  0  0  0  0  0  0  0  0  0  0  0
   -3.7106    1.9374   -1.7454 C   0  0  0  0  0  0  0  0  0  0  0  0
   -4.2357    2.8051   -1.3559 H   0  0  0  0  0  0  0  0  0  0  0  0
   -2.4150    1.6489   -1.3039 C   0  0  0  0  0  0  0  0  0  0  0  0
   -1.9471    2.2942   -0.5653 H   0  0  0  0  0  0  0  0  0  0  0  0
    0.0711   -0.3884    1.1283 C   0  0  0  0  0  0  0  0  0  0  0  0
    1.2451   -0.2338    1.4374 O   0  0  0  0  0  0  0  0  0  0  0  0
   -0.9121    0.1954    1.9073 N   0  0  0  0  0  0  0  0  0  0  0  0
   -1.8721    0.0093    1.6361 H   0  0  0  0  0  0  0  0  0  0  0  0
   -0.6471    0.7876    3.2120 C   0  0  0  0  0  0  0  0  0  0  0  0
    0.0892    1.5937    3.1251 H   0  0  0  0  0  0  0  0  0  0  0  0
   -1.5672    1.2055    3.6314 H   0  0  0  0  0  0  0  0  0  0  0  0
   -0.2612    0.0305    3.9029 H   0  0  0  0  0  0  0  0  0  0  0  0
  1  2  1  0  0  0  0
  2  3  1  0  0  0  0
  2  4  1  0  0  0  0
  2  5  1  0  0  0  0
  5  6  2  0  0  0  0
  5  7  1  0  0  0  0
  7  8  1  0  0  0  0
  7  9  1  0  0  0  0
  9 10  1  0  0  0  0
  9 11  1  0  0  0  0
  9 25  1  0  0  0  0
 11 12  1  0  0  0  0
 11 13  1  0  0  0  0
 11 14  1  0  0  0  0
 14 15  1  0  0  0  0
 14 23  2  0  0  0  0
 15 16  1  0  0  0  0
 15 17  2  0  0  0  0
 17 18  1  0  0  0  0
 17 19  1  0  0  0  0
 19 20  1  0  0  0  0
 19 21  2  0  0  0  0
 21 22  1  0  0  0  0
 21 23  1  0  0  0  0
 23 24  1  0  0  0  0
 25 26  2  0  0  0  0
 25 27  1  0  0  0  0
 27 28  1  0  0  0  0
 27 29  1  0  0  0  0
 29 30  1  0  0  0  0
 29 31  1  0  0  0  0
 29 32  1  0  0  0  0
M  END
$$$$

  -OEChem-03222214073D

 32 32  0     1  0  0  0  0  0999 V2000
   -2.9549   -4.5433    1.2108 H   0  0  0  0  0  0  0  0  0  0  0  0
   -3.0053   -3.6739    0.5492 C   0  0  0  0  0  0  0  0  0  0  0  0
   -3.7944   -3.0068    0.9039 H   0  0  0  0  0  0  0  0  0  0  0  0
   -3.2502   -4.0138   -0.4600 H   0  0  0  0  0  0  0  0  0  0  0  0
   -1.6738   -2.9466    0.5419 C   0  0  0  0  0  0  0  0  0  0  0  0
   -0.7455   -3.3702    1.2068 O   0  0  0  0  0  0  0  0  0  0  0  0
   -1.5228   -1.8068   -0.2220 N   0  0  0  0  0  0  0  0  0  0  0  0
   -2.3436   -1.4679   -0.7178 H   0  0  0  0  0  0  0  0  0  0  0  0
   -0.3067   -0.9717   -0.2566 C   0  0  1  0  0  0  0  0  0  0  0  0
    0.5320   -1.6172   -0.5409 H   0  0  0  0  0  0  0  0  0  0  0  0
   -0.3736    0.1922   -1.2857 C   0  0  0  0  0  0  0  0  0  0  0  0
    0.0890    1.0886   -0.8578 H   0  0  0  0  0  0  0  0  0  0  0  0
    0.2539   -0.0918   -2.1366 H   0  0  0  0  0  0  0  0  0  0  0  0
   -1.7407    0.5451   -1.8482 C   0  0  0  0  0  0  0  0  0  0  0  0
   -2.5143   -0.3819   -2.5708 C   0  0  0  0  0  0  0  0  0  0  0  0
   -2.1082   -1.3618   -2.8070 H   0  0  0  0  0  0  0  0  0  0  0  0
   -3.7952   -0.0483   -3.0231 C   0  0  0  0  0  0  0  0  0  0  0  0
   -4.3771   -0.7679   -3.5924 H   0  0  0  0  0  0  0  0  0  0  0  0
   -4.3236    1.2165   -2.7527 C   0  0  0  0  0  0  0  0  0  0  0  0
   -5.3163    1.4799   -3.1067 H   0  0  0  0  0  0  0  0  0  0  0  0
   -3.5691    2.1459   -2.0323 C   0  0  0  0  0  0  0  0  0  0  0  0
   -3.9774    3.1305   -1.8219 H   0  0  0  0  0  0  0  0  0  0  0  0
   -2.2879    1.8100   -1.5821 C   0  0  0  0  0  0  0  0  0  0  0  0
   -1.7189    2.5422   -1.0160 H   0  0  0  0  0  0  0  0  0  0  0  0
    0.0525   -0.3886    1.1277 C   0  0  0  0  0  0  0  0  0  0  0  0
    1.2252   -0.2096    1.4286 O   0  0  0  0  0  0  0  0  0  0  0  0
   -0.9364    0.1667    1.9205 N   0  0  0  0  0  0  0  0  0  0  0  0
   -1.8962   -0.0129    1.6448 H   0  0  0  0  0  0  0  0  0  0  0  0
   -0.6727    0.7706    3.2202 C   0  0  0  0  0  0  0  0  0  0  0  0
    0.0362    1.5995    3.1215 H   0  0  0  0  0  0  0  0  0  0  0  0
   -1.5996    1.1601    3.6519 H   0  0  0  0  0  0  0  0  0  0  0  0
   -0.2538    0.0282    3.9078 H   0  0  0  0  0  0  0  0  0  0  0  0
  1  2  1  0  0  0  0
  2  3  1  0  0  0  0
  2  4  1  0  0  0  0
  2  5  1  0  0  0  0
  5  6  2  0  0  0  0
  5  7  1  0  0  0  0
  7  8  1  0  0  0  0
  7  9  1  0  0  0  0
  9 10  1  0  0  0  0
  9 11  1  0  0  0  0
  9 25  1  0  0  0  0
 11 12  1  0  0  0  0
 11 13  1  0  0  0  0
 11 14  1  0  0  0  0
 14 15  1  0  0  0  0
 14 23  2  0  0  0  0
 15 16  1  0  0  0  0
 15 17  2  0  0  0  0
 17 18  1  0  0  0  0
 17 19  1  0  0  0  0
 19 20  1  0  0  0  0
 19 21  2  0  0  0  0
 21 22  1  0  0  0  0
 21 23  1  0  0  0  0
 23 24  1  0  0  0  0
 25 26  2  0  0  0  0
 25 27  1  0  0  0  0
 27 28  1  0  0  0  0
 27 29  1  0  0  0  0
 29 30  1  0  0  0  0
 29 31  1  0  0  0  0
 29 32  1  0  0  0  0
M  END
$$$$

  -OEChem-03222214073D

 32 32  0     1  0  0  0  0  0999 V2000
   -2.8011   -4.6268    1.3412 H   0  0  0  0  0  0  0  0  0  0  0  0
   -2.9088   -3.7643    0.6773 C   0  0  0  0  0  0  0  0  0  0  0  0
   -3.6922   -3.1130    1.0718 H   0  0  0  0  0  0  0  0  0  0  0  0
   -3.2021   -4.1182   -0.3140 H   0  0  0  0  0  0  0  0  0  0  0  0
   -1.5968   -3.0074    0.5898 C   0  0  0  0  0  0  0  0  0  0  0  0
   -0.6222   -3.4081    1.2003 O   0  0  0  0  0  0  0  0  0  0  0  0
   -1.5169   -1.8652   -0.1822 N   0  0  0  0  0  0  0  0  0  0  0  0
   -2.3818   -1.5277   -0.5953 H   0  0  0  0  0  0  0  0  0  0  0  0
   -0.3375   -0.9832   -0.2491 C   0  0  1  0  0  0  0  0  0  0  0  0
    0.5156   -1.6074   -0.5384 H   0  0  0  0  0  0  0  0  0  0  0  0
   -0.4287    0.1741   -1.2891 C   0  0  0  0  0  0  0  0  0  0  0  0
    0.0283    1.0721   -0.8586 H   0  0  0  0  0  0  0  0  0  0  0  0
    0.2123   -0.1110   -2.1295 H   0  0  0  0  0  0  0  0  0  0  0  0
   -1.7769    0.5449   -1.8993 C   0  0  0  0  0  0  0  0  0  0  0  0
   -2.7039   -0.3968   -2.3886 C   0  0  0  0  0  0  0  0  0  0  0  0
   -2.4376   -1.4460   -2.4679 H   0  0  0  0  0  0  0  0  0  0  0  0
   -3.9610    0.0014   -2.8555 C   0  0  0  0  0  0  0  0  0  0  0  0
   -4.6561   -0.7361   -3.2467 H   0  0  0  0  0  0  0  0  0  0  0  0
   -4.3185    1.3508   -2.8366 C   0  0  0  0  0  0  0  0  0  0  0  0
   -5.2930    1.6635   -3.2008 H   0  0  0  0  0  0  0  0  0  0  0  0
   -3.4135    2.2998   -2.3579 C   0  0  0  0  0  0  0  0  0  0  0  0
   -3.6853    3.3514   -2.3444 H   0  0  0  0  0  0  0  0  0  0  0  0
   -2.1570    1.8980   -1.8931 C   0  0  0  0  0  0  0  0  0  0  0  0
   -1.4749    2.6546   -1.5155 H   0  0  0  0  0  0  0  0  0  0  0  0
    0.0285   -0.3846    1.1274 C   0  0  0  0  0  0  0  0  0  0  0  0
    1.1998   -0.1645    1.4052 O   0  0  0  0  0  0  0  0  0  0  0  0
   -0.9629    0.1311    1.9433 N   0  0  0  0  0  0  0  0  0  0  0  0
   -1.9223   -0.0635    1.6782 H   0  0  0  0  0  0  0  0  0  0  0  0
   -0.6953    0.7557    3.2322 C   0  0  0  0  0  0  0  0  0  0  0  0
   -0.0353    1.6208    3.1093 H   0  0  0  0  0  0  0  0  0  0  0  0
   -1.6295    1.0966    3.6881 H   0  0  0  0  0  0  0  0  0  0  0  0
   -0.2181    0.0410    3.9109 H   0  0  0  0  0  0  0  0  0  0  0  0
  1  2  1  0  0  0  0
  2  3  1  0  0  0  0
  2  4  1  0  0  0  0
  2  5  1  0  0  0  0
  5  6  2  0  0  0  0
  5  7  1  0  0  0  0
  7  8  1  0  0  0  0
  7  9  1  0  0  0  0
  9 10  1  0  0  0  0
  9 11  1  0  0  0  0
  9 25  1  0  0  0  0
 11 12  1  0  0  0  0
 11 13  1  0  0  0  0
 11 14  1  0  0  0  0
 14 15  1  0  0  0  0
 14 23  2  0  0  0  0
 15 16  1  0  0  0  0
 15 17  2  0  0  0  0
 17 18  1  0  0  0  0
 17 19  1  0  0  0  0
 19 20  1  0  0  0  0
 19 21  2  0  0  0  0
 21 22  1  0  0  0  0
 21 23  1  0  0  0  0
 23 24  1  0  0  0  0
 25 26  2  0  0  0  0
 25 27  1  0  0  0  0
 27 28  1  0  0  0  0
 27 29  1  0  0  0  0
 29 30  1  0  0  0  0
 29 31  1  0  0  0  0
 29 32  1  0  0  0  0
M  END
$$$$

  -OEChem-03222214073D

 32 32  0     1  0  0  0  0  0999 V2000
   -2.6044   -4.7092    1.4930 H   0  0  0  0  0  0  0  0  0  0  0  0
   -2.7834   -3.8570    0.8308 C   0  0  0  0  0  0  0  0  0  0  0  0
   -3.5526   -3.2215    1.2760 H   0  0  0  0  0  0  0  0  0  0  0  0
   -3.1389   -4.2297   -0.1328 H   0  0  0  0  0  0  0  0  0  0  0  0
   -1.5015   -3.0681    0.6399 C   0  0  0  0  0  0  0  0  0  0  0  0
   -0.4733   -3.4453    1.1725 O   0  0  0  0  0  0  0  0  0  0  0  0
   -1.5098   -1.9257   -0.1369 N   0  0  0  0  0  0  0  0  0  0  0  0
   -2.4180   -1.5957   -0.4464 H   0  0  0  0  0  0  0  0  0  0  0  0
   -0.3755   -0.9929   -0.2406 C   0  0  1  0  0  0  0  0  0  0  0  0
    0.4933   -1.5883   -0.5445 H   0  0  0  0  0  0  0  0  0  0  0  0
   -0.5124    0.1548   -1.2887 C   0  0  0  0  0  0  0  0  0  0  0  0
   -0.0746    1.0608   -0.8544 H   0  0  0  0  0  0  0  0  0  0  0  0
    0.1411   -0.1202   -2.1226 H   0  0  0  0  0  0  0  0  0  0  0  0
   -1.8492    0.5321   -1.9323 C   0  0  0  0  0  0  0  0  0  0  0  0
   -2.9251   -0.3451   -2.1888 C   0  0  0  0  0  0  0  0  0  0  0  0
   -2.8278   -1.4178   -2.0862 H   0  0  0  0  0  0  0  0  0  0  0  0
   -4.1409    0.1261   -2.6970 C   0  0  0  0  0  0  0  0  0  0  0  0
   -4.9491   -0.5685   -2.9078 H   0  0  0  0  0  0  0  0  0  0  0  0
   -4.3129    1.4856   -2.9587 C   0  0  0  0  0  0  0  0  0  0  0  0
   -5.2550    1.8513   -3.3569 H   0  0  0  0  0  0  0  0  0  0  0  0
   -3.2618    2.3711   -2.7216 C   0  0  0  0  0  0  0  0  0  0  0  0
   -3.3859    3.4301   -2.9294 H   0  0  0  0  0  0  0  0  0  0  0  0
   -2.0484    1.8966   -2.2140 C   0  0  0  0  0  0  0  0  0  0  0  0
   -1.2525    2.6126   -2.0292 H   0  0  0  0  0  0  0  0  0  0  0  0
    0.0065   -0.3782    1.1250 C   0  0  0  0  0  0  0  0  0  0  0  0
    1.1764   -0.1162    1.3704 O   0  0  0  0  0  0  0  0  0  0  0  0
   -0.9783    0.0940    1.9751 N   0  0  0  0  0  0  0  0  0  0  0  0
   -1.9411   -0.1032    1.7247 H   0  0  0  0  0  0  0  0  0  0  0  0
   -0.6929    0.7538    3.2427 C   0  0  0  0  0  0  0  0  0  0  0  0
   -0.1069    1.6641    3.0775 H   0  0  0  0  0  0  0  0  0  0  0  0
   -1.6251    1.0291    3.7447 H   0  0  0  0  0  0  0  0  0  0  0  0
   -0.1285    0.0857    3.9018 H   0  0  0  0  0  0  0  0  0  0  0  0
  1  2  1  0  0  0  0
  2  3  1  0  0  0  0
  2  4  1  0  0  0  0
  2  5  1  0  0  0  0
  5  6  2  0  0  0  0
  5  7  1  0  0  0  0
  7  8  1  0  0  0  0
  7  9  1  0  0  0  0
  9 10  1  0  0  0  0
  9 11  1  0  0  0  0
  9 25  1  0  0  0  0
 11 12  1  0  0  0  0
 11 13  1  0  0  0  0
 11 14  1  0  0  0  0
 14 15  1  0  0  0  0
 14 23  2  0  0  0  0
 15 16  1  0  0  0  0
 15 17  2  0  0  0  0
 17 18  1  0  0  0  0
 17 19  1  0  0  0  0
 19 20  1  0  0  0  0
 19 21  2  0  0  0  0
 21 22  1  0  0  0  0
 21 23  1  0  0  0  0
 23 24  1  0  0  0  0
 25 26  2  0  0  0  0
 25 27  1  0  0  0  0
 27 28  1  0  0  0  0
 27 29  1  0  0  0  0
 29 30  1  0  0  0  0
 29 31  1  0  0  0  0
 29 32  1  0  0  0  0
M  END
$$$$

  -OEChem-03222214073D

 32 32  0     1  0  0  0  0  0999 V2000
   -2.2948   -4.9615    1.1356 H   0  0  0  0  0  0  0  0  0  0  0  0
   -2.5166   -4.1003    0.4987 C   0  0  0  0  0  0  0  0  0  0  0  0
   -3.4698   -3.6679    0.8119 H   0  0  0  0  0  0  0  0  0  0  0  0
   -2.6000   -4.4416   -0.5360 H   0  0  0  0  0  0  0  0  0  0  0  0
   -1.4133   -3.0655    0.6173 C   0  0  0  0  0  0  0  0  0  0  0  0
   -0.4678   -3.2734    1.3554 O   0  0  0  0  0  0  0  0  0  0  0  0
   -1.4956   -1.8986   -0.1188 N   0  0  0  0  0  0  0  0  0  0  0  0
   -2.2065   -1.8906   -0.8439 H   0  0  0  0  0  0  0  0  0  0  0  0
   -0.3933   -0.9350   -0.2719 C   0  0  1  0  0  0  0  0  0  0  0  0
    0.4653   -1.4825   -0.6771 H   0  0  0  0  0  0  0  0  0  0  0  0
   -0.6833    0.2614   -1.2309 C   0  0  0  0  0  0  0  0  0  0  0  0
   -0.2303    1.1620   -0.8004 H   0  0  0  0  0  0  0  0  0  0  0  0
   -0.1088    0.0425   -2.1370 H   0  0  0  0  0  0  0  0  0  0  0  0
   -2.0765    0.6699   -1.7235 C   0  0  0  0  0  0  0  0  0  0  0  0
   -3.3240    0.0768   -1.4193 C   0  0  0  0  0  0  0  0  0  0  0  0
   -3.4513   -0.7113   -0.6939 H   0  0  0  0  0  0  0  0  0  0  0  0
   -4.5080    0.5390   -2.0063 C   0  0  0  0  0  0  0  0  0  0  0  0
   -5.4577    0.0790   -1.7488 H   0  0  0  0  0  0  0  0  0  0  0  0
   -4.4805    1.5991   -2.9119 C   0  0  0  0  0  0  0  0  0  0  0  0
   -5.4006    1.9567   -3.3653 H   0  0  0  0  0  0  0  0  0  0  0  0
   -3.2642    2.2034   -3.2247 C   0  0  0  0  0  0  0  0  0  0  0  0
   -3.2324    3.0321   -3.9262 H   0  0  0  0  0  0  0  0  0  0  0  0
   -2.0837    1.7407   -2.6365 C   0  0  0  0  0  0  0  0  0  0  0  0
   -1.1489    2.2262   -2.9033 H   0  0  0  0  0  0  0  0  0  0  0  0
    0.0811   -0.3464    1.0773 C   0  0  0  0  0  0  0  0  0  0  0  0
    1.2605   -0.0530    1.2268 O   0  0  0  0  0  0  0  0  0  0  0  0
   -0.8433    0.0793    2.0137 N   0  0  0  0  0  0  0  0  0  0  0  0
   -1.8005   -0.2264    1.8732 H   0  0  0  0  0  0  0  0  0  0  0  0
   -0.4653    0.6535    3.2983 C   0  0  0  0  0  0  0  0  0  0  0  0
    0.1454    1.5509    3.1534 H   0  0  0  0  0  0  0  0  0  0  0  0
   -1.3582    0.9332    3.8653 H   0  0  0  0  0  0  0  0  0  0  0  0
    0.1076   -0.0717    3.8858 H   0  0  0  0  0  0  0  0  0  0  0  0
  1  2  1  0  0  0  0
  2  3  1  0  0  0  0
  2  4  1  0  0  0  0
  2  5  1  0  0  0  0
  5  6  2  0  0  0  0
  5  7  1  0  0  0  0
  7  8  1  0  0  0  0
  7  9  1  0  0  0  0
  9 10  1  0  0  0  0
  9 11  1  0  0  0  0
  9 25  1  0  0  0  0
 11 12  1  0  0  0  0
 11 13  1  0  0  0  0
 11 14  1  0  0  0  0
 14 15  1  0  0  0  0
 14 23  2  0  0  0  0
 15 16  1  0  0  0  0
 15 17  2  0  0  0  0
 17 18  1  0  0  0  0
 17 19  1  0  0  0  0
 19 20  1  0  0  0  0
 19 21  2  0  0  0  0
 21 22  1  0  0  0  0
 21 23  1  0  0  0  0
 23 24  1  0  0  0  0
 25 26  2  0  0  0  0
 25 27  1  0  0  0  0
 27 28  1  0  0  0  0
 27 29  1  0  0  0  0
 29 30  1  0  0  0  0
 29 31  1  0  0  0  0
 29 32  1  0  0  0  0
M  END
$$$$

  -OEChem-03222214073D

 32 32  0     1  0  0  0  0  0999 V2000
   -2.6897   -4.7864    1.2286 H   0  0  0  0  0  0  0  0  0  0  0  0
   -2.8190   -3.9242    0.5680 C   0  0  0  0  0  0  0  0  0  0  0  0
   -3.7304   -3.3946    0.8554 H   0  0  0  0  0  0  0  0  0  0  0  0
   -2.9204   -4.2816   -0.4596 H   0  0  0  0  0  0  0  0  0  0  0  0
   -1.6225   -2.9980    0.6791 C   0  0  0  0  0  0  0  0  0  0  0  0
   -0.7102   -3.2758    1.4361 O   0  0  0  0  0  0  0  0  0  0  0  0
   -1.5820   -1.8475   -0.0841 N   0  0  0  0  0  0  0  0  0  0  0  0
   -2.3018   -1.7591   -0.7973 H   0  0  0  0  0  0  0  0  0  0  0  0
   -0.4018   -0.9758   -0.2202 C   0  0  1  0  0  0  0  0  0  0  0  0
    0.4231   -1.6007   -0.5807 H   0  0  0  0  0  0  0  0  0  0  0  0
   -0.5767    0.1968   -1.2325 C   0  0  0  0  0  0  0  0  0  0  0  0
   -0.0920    1.0899   -0.8219 H   0  0  0  0  0  0  0  0  0  0  0  0
    0.0146   -0.0900   -2.1086 H   0  0  0  0  0  0  0  0  0  0  0  0
   -1.9411    0.6430   -1.7634 C   0  0  0  0  0  0  0  0  0  0  0  0
   -3.2049    0.3096   -1.2280 C   0  0  0  0  0  0  0  0  0  0  0  0
   -3.3152   -0.2146   -0.2879 H   0  0  0  0  0  0  0  0  0  0  0  0
   -4.3873    0.7245   -1.8512 C   0  0  0  0  0  0  0  0  0  0  0  0
   -5.3499    0.4726   -1.4156 H   0  0  0  0  0  0  0  0  0  0  0  0
   -4.3367    1.4791   -3.0237 C   0  0  0  0  0  0  0  0  0  0  0  0
   -5.2544    1.8031   -3.5065 H   0  0  0  0  0  0  0  0  0  0  0  0
   -3.0999    1.8265   -3.5668 C   0  0  0  0  0  0  0  0  0  0  0  0
   -3.0525    2.4183   -4.4764 H   0  0  0  0  0  0  0  0  0  0  0  0
   -1.9206    1.4114   -2.9411 C   0  0  0  0  0  0  0  0  0  0  0  0
   -0.9701    1.6889   -3.3881 H   0  0  0  0  0  0  0  0  0  0  0  0
    0.0770   -0.3871    1.1268 C   0  0  0  0  0  0  0  0  0  0  0  0
    1.2699   -0.1747    1.3022 O   0  0  0  0  0  0  0  0  0  0  0  0
   -0.8387    0.1366    2.0217 N   0  0  0  0  0  0  0  0  0  0  0  0
   -1.8095   -0.1140    1.8700 H   0  0  0  0  0  0  0  0  0  0  0  0
   -0.4542    0.7266    3.2974 C   0  0  0  0  0  0  0  0  0  0  0  0
    0.2228    1.5729    3.1404 H   0  0  0  0  0  0  0  0  0  0  0  0
   -1.3396    1.0888    3.8287 H   0  0  0  0  0  0  0  0  0  0  0  0
    0.0494   -0.0162    3.9250 H   0  0  0  0  0  0  0  0  0  0  0  0
  1  2  1  0  0  0  0
  2  3  1  0  0  0  0
  2  4  1  0  0  0  0
  2  5  1  0  0  0  0
  5  6  2  0  0  0  0
  5  7  1  0  0  0  0
  7  8  1  0  0  0  0
  7  9  1  0  0  0  0
  9 10  1  0  0  0  0
  9 11  1  0  0  0  0
  9 25  1  0  0  0  0
 11 12  1  0  0  0  0
 11 13  1  0  0  0  0
 11 14  1  0  0  0  0
 14 15  1  0  0  0  0
 14 23  2  0  0  0  0
 15 16  1  0  0  0  0
 15 17  2  0  0  0  0
 17 18  1  0  0  0  0
 17 19  1  0  0  0  0
 19 20  1  0  0  0  0
 19 21  2  0  0  0  0
 21 22  1  0  0  0  0
 21 23  1  0  0  0  0
 23 24  1  0  0  0  0
 25 26  2  0  0  0  0
 25 27  1  0  0  0  0
 27 28  1  0  0  0  0
 27 29  1  0  0  0  0
 29 30  1  0  0  0  0
 29 31  1  0  0  0  0
 29 32  1  0  0  0  0
M  END
$$$$

  -OEChem-03222214073D

 32 32  0     1  0  0  0  0  0999 V2000
   -2.8520   -4.6844    1.1366 H   0  0  0  0  0  0  0  0  0  0  0  0
   -2.9355   -3.8083    0.4871 C   0  0  0  0  0  0  0  0  0  0  0  0
   -3.8238   -3.2406    0.7741 H   0  0  0  0  0  0  0  0  0  0  0  0
   -3.0446   -4.1469   -0.5462 H   0  0  0  0  0  0  0  0  0  0  0  0
   -1.6985   -2.9399    0.6208 C   0  0  0  0  0  0  0  0  0  0  0  0
   -0.8121   -3.2617    1.3911 O   0  0  0  0  0  0  0  0  0  0  0  0
   -1.5914   -1.7856   -0.1294 N   0  0  0  0  0  0  0  0  0  0  0  0
   -2.3138   -1.6294   -0.8291 H   0  0  0  0  0  0  0  0  0  0  0  0
   -0.3774   -0.9518   -0.2207 C   0  0  1  0  0  0  0  0  0  0  0  0
    0.4370   -1.6019   -0.5599 H   0  0  0  0  0  0  0  0  0  0  0  0
   -0.4957    0.2149   -1.2451 C   0  0  0  0  0  0  0  0  0  0  0  0
   -0.0234    1.1097   -0.8246 H   0  0  0  0  0  0  0  0  0  0  0  0
    0.1183   -0.0761   -2.1036 H   0  0  0  0  0  0  0  0  0  0  0  0
   -1.8612    0.6368   -1.7837 C   0  0  0  0  0  0  0  0  0  0  0  0
   -3.0684    0.5303   -1.0634 C   0  0  0  0  0  0  0  0  0  0  0  0
   -3.0728    0.2156   -0.0261 H   0  0  0  0  0  0  0  0  0  0  0  0
   -4.2900    0.8888   -1.6434 C   0  0  0  0  0  0  0  0  0  0  0  0
   -5.2086    0.8153   -1.0685 H   0  0  0  0  0  0  0  0  0  0  0  0
   -4.3299    1.3584   -2.9575 C   0  0  0  0  0  0  0  0  0  0  0  0
   -5.2770    1.6401   -3.4089 H   0  0  0  0  0  0  0  0  0  0  0  0
   -3.1452    1.4761   -3.6862 C   0  0  0  0  0  0  0  0  0  0  0  0
   -3.1714    1.8453   -4.7075 H   0  0  0  0  0  0  0  0  0  0  0  0
   -1.9251    1.1192   -3.1023 C   0  0  0  0  0  0  0  0  0  0  0  0
   -1.0167    1.2161   -3.6900 H   0  0  0  0  0  0  0  0  0  0  0  0
    0.0853   -0.3849    1.1404 C   0  0  0  0  0  0  0  0  0  0  0  0
    1.2790   -0.2047    1.3438 O   0  0  0  0  0  0  0  0  0  0  0  0
   -0.8359    0.1663    2.0130 N   0  0  0  0  0  0  0  0  0  0  0  0
   -1.8050   -0.0854    1.8539 H   0  0  0  0  0  0  0  0  0  0  0  0
   -0.4617    0.7272    3.3050 C   0  0  0  0  0  0  0  0  0  0  0  0
    0.2645    1.5370    3.1771 H   0  0  0  0  0  0  0  0  0  0  0  0
   -1.3431    1.1334    3.8101 H   0  0  0  0  0  0  0  0  0  0  0  0
   -0.0192   -0.0457    3.9422 H   0  0  0  0  0  0  0  0  0  0  0  0
  1  2  1  0  0  0  0
  2  3  1  0  0  0  0
  2  4  1  0  0  0  0
  2  5  1  0  0  0  0
  5  6  2  0  0  0  0
  5  7  1  0  0  0  0
  7  8  1  0  0  0  0
  7  9  1  0  0  0  0
  9 10  1  0  0  0  0
  9 11  1  0  0  0  0
  9 25  1  0  0  0  0
 11 12  1  0  0  0  0
 11 13  1  0  0  0  0
 11 14  1  0  0  0  0
 14 15  1  0  0  0  0
 14 23  2  0  0  0  0
 15 16  1  0  0  0  0
 15 17  2  0  0  0  0
 17 18  1  0  0  0  0
 17 19  1  0  0  0  0
 19 20  1  0  0  0  0
 19 21  2  0  0  0  0
 21 22  1  0  0  0  0
 21 23  1  0  0  0  0
 23 24  1  0  0  0  0
 25 26  2  0  0  0  0
 25 27  1  0  0  0  0
 27 28  1  0  0  0  0
 27 29  1  0  0  0  0
 29 30  1  0  0  0  0
 29 31  1  0  0  0  0
 29 32  1  0  0  0  0
M  END
$$$$

  -OEChem-03222214073D

 32 32  0     1  0  0  0  0  0999 V2000
   -2.9901   -4.5853    1.0406 H   0  0  0  0  0  0  0  0  0  0  0  0
   -3.0313   -3.6980    0.4021 C   0  0  0  0  0  0  0  0  0  0  0  0
   -3.8977   -3.0972    0.6887 H   0  0  0  0  0  0  0  0  0  0  0  0
   -3.1452   -4.0174   -0.6366 H   0  0  0  0  0  0  0  0  0  0  0  0
   -1.7602   -2.8843    0.5571 C   0  0  0  0  0  0  0  0  0  0  0  0
   -0.8955   -3.2503    1.3327 O   0  0  0  0  0  0  0  0  0  0  0  0
   -1.5973   -1.7253   -0.1744 N   0  0  0  0  0  0  0  0  0  0  0  0
   -2.3201   -1.5051   -0.8568 H   0  0  0  0  0  0  0  0  0  0  0  0
   -0.3591   -0.9224   -0.2178 C   0  0  1  0  0  0  0  0  0  0  0  0
    0.4462   -1.5937   -0.5366 H   0  0  0  0  0  0  0  0  0  0  0  0
   -0.4274    0.2335   -1.2545 C   0  0  0  0  0  0  0  0  0  0  0  0
    0.0220    1.1353   -0.8240 H   0  0  0  0  0  0  0  0  0  0  0  0
    0.2123   -0.0545   -2.0946 H   0  0  0  0  0  0  0  0  0  0  0  0
   -1.7960    0.6150   -1.8019 C   0  0  0  0  0  0  0  0  0  0  0  0
   -2.9243    0.7687   -0.9747 C   0  0  0  0  0  0  0  0  0  0  0  0
   -2.8305    0.6695    0.1013 H   0  0  0  0  0  0  0  0  0  0  0  0
   -4.1755    1.0807   -1.5166 C   0  0  0  0  0  0  0  0  0  0  0  0
   -5.0353    1.2075   -0.8651 H   0  0  0  0  0  0  0  0  0  0  0  0
   -4.3187    1.2412   -2.8967 C   0  0  0  0  0  0  0  0  0  0  0  0
   -5.2886    1.4872   -3.3199 H   0  0  0  0  0  0  0  0  0  0  0  0
   -3.2086    1.0931   -3.7318 C   0  0  0  0  0  0  0  0  0  0  0  0
   -3.3160    1.2207   -4.8053 H   0  0  0  0  0  0  0  0  0  0  0  0
   -1.9579    0.7826   -3.1869 C   0  0  0  0  0  0  0  0  0  0  0  0
   -1.1078    0.6696   -3.8539 H   0  0  0  0  0  0  0  0  0  0  0  0
    0.0868   -0.3766    1.1570 C   0  0  0  0  0  0  0  0  0  0  0  0
    1.2799   -0.2193    1.3813 O   0  0  0  0  0  0  0  0  0  0  0  0
   -0.8368    0.1946    2.0140 N   0  0  0  0  0  0  0  0  0  0  0  0
   -1.8046   -0.0614    1.8526 H   0  0  0  0  0  0  0  0  0  0  0  0
   -0.4690    0.7364    3.3161 C   0  0  0  0  0  0  0  0  0  0  0  0
    0.2767    1.5307    3.2056 H   0  0  0  0  0  0  0  0  0  0  0  0
   -1.3483    1.1583    3.8120 H   0  0  0  0  0  0  0  0  0  0  0  0
   -0.0532   -0.0511    3.9535 H   0  0  0  0  0  0  0  0  0  0  0  0
  1  2  1  0  0  0  0
  2  3  1  0  0  0  0
  2  4  1  0  0  0  0
  2  5  1  0  0  0  0
  5  6  2  0  0  0  0
  5  7  1  0  0  0  0
  7  8  1  0  0  0  0
  7  9  1  0  0  0  0
  9 10  1  0  0  0  0
  9 11  1  0  0  0  0
  9 25  1  0  0  0  0
 11 12  1  0  0  0  0
 11 13  1  0  0  0  0
 11 14  1  0  0  0  0
 14 15  1  0  0  0  0
 14 23  2  0  0  0  0
 15 16  1  0  0  0  0
 15 17  2  0  0  0  0
 17 18  1  0  0  0  0
 17 19  1  0  0  0  0
 19 20  1  0  0  0  0
 19 21  2  0  0  0  0
 21 22  1  0  0  0  0
 21 23  1  0  0  0  0
 23 24  1  0  0  0  0
 25 26  2  0  0  0  0
 25 27  1  0  0  0  0
 27 28  1  0  0  0  0
 27 29  1  0  0  0  0
 29 30  1  0  0  0  0
 29 31  1  0  0  0  0
 29 32  1  0  0  0  0
M  END
$$$$

  -OEChem-03222214073D

 32 32  0     1  0  0  0  0  0999 V2000
   -3.0920   -4.4951    0.9670 H   0  0  0  0  0  0  0  0  0  0  0  0
   -3.0952   -3.6031    0.3338 C   0  0  0  0  0  0  0  0  0  0  0  0
   -3.9379   -2.9701    0.6216 H   0  0  0  0  0  0  0  0  0  0  0  0
   -3.2184   -3.9118   -0.7070 H   0  0  0  0  0  0  0  0  0  0  0  0
   -1.7933   -2.8417    0.4971 C   0  0  0  0  0  0  0  0  0  0  0  0
   -0.9419   -3.2507    1.2659 O   0  0  0  0  0  0  0  0  0  0  0  0
   -1.5836   -1.6838   -0.2233 N   0  0  0  0  0  0  0  0  0  0  0  0
   -2.3106   -1.4063   -0.8802 H   0  0  0  0  0  0  0  0  0  0  0  0
   -0.3290   -0.9049   -0.2287 C   0  0  1  0  0  0  0  0  0  0  0  0
    0.4733   -1.5882   -0.5289 H   0  0  0  0  0  0  0  0  0  0  0  0
   -0.3613    0.2477   -1.2675 C   0  0  0  0  0  0  0  0  0  0  0  0
    0.0781    1.1516   -0.8313 H   0  0  0  0  0  0  0  0  0  0  0  0
    0.2880   -0.0372   -2.1013 H   0  0  0  0  0  0  0  0  0  0  0  0
   -1.7347    0.5977   -1.8107 C   0  0  0  0  0  0  0  0  0  0  0  0
   -2.7630    1.0304   -0.9567 C   0  0  0  0  0  0  0  0  0  0  0  0
   -2.5668    1.1752    0.1005 H   0  0  0  0  0  0  0  0  0  0  0  0
   -4.0406    1.3014   -1.4570 C   0  0  0  0  0  0  0  0  0  0  0  0
   -4.8249    1.6466   -0.7892 H   0  0  0  0  0  0  0  0  0  0  0  0
   -4.3063    1.1382   -2.8192 C   0  0  0  0  0  0  0  0  0  0  0  0
   -5.2969    1.3525   -3.2104 H   0  0  0  0  0  0  0  0  0  0  0  0
   -3.2928    0.7052   -3.6787 C   0  0  0  0  0  0  0  0  0  0  0  0
   -3.4963    0.5802   -4.7384 H   0  0  0  0  0  0  0  0  0  0  0  0
   -2.0153    0.4354   -3.1763 C   0  0  0  0  0  0  0  0  0  0  0  0
   -1.2409    0.0942   -3.8574 H   0  0  0  0  0  0  0  0  0  0  0  0
    0.0864   -0.3734    1.1604 C   0  0  0  0  0  0  0  0  0  0  0  0
    1.2742   -0.2327    1.4201 O   0  0  0  0  0  0  0  0  0  0  0  0
   -0.8541    0.2113    1.9895 N   0  0  0  0  0  0  0  0  0  0  0  0
   -1.8199   -0.0336    1.7984 H   0  0  0  0  0  0  0  0  0  0  0  0
   -0.5191    0.7469    3.3030 C   0  0  0  0  0  0  0  0  0  0  0  0
    0.2333    1.5377    3.2154 H   0  0  0  0  0  0  0  0  0  0  0  0
   -1.4092    1.1712    3.7767 H   0  0  0  0  0  0  0  0  0  0  0  0
   -0.1243   -0.0446    3.9486 H   0  0  0  0  0  0  0  0  0  0  0  0
  1  2  1  0  0  0  0
  2  3  1  0  0  0  0
  2  4  1  0  0  0  0
  2  5  1  0  0  0  0
  5  6  2  0  0  0  0
  5  7  1  0  0  0  0
  7  8  1  0  0  0  0
  7  9  1  0  0  0  0
  9 10  1  0  0  0  0
  9 11  1  0  0  0  0
  9 25  1  0  0  0  0
 11 12  1  0  0  0  0
 11 13  1  0  0  0  0
 11 14  1  0  0  0  0
 14 15  1  0  0  0  0
 14 23  2  0  0  0  0
 15 16  1  0  0  0  0
 15 17  2  0  0  0  0
 17 18  1  0  0  0  0
 17 19  1  0  0  0  0
 19 20  1  0  0  0  0
 19 21  2  0  0  0  0
 21 22  1  0  0  0  0
 21 23  1  0  0  0  0
 23 24  1  0  0  0  0
 25 26  2  0  0  0  0
 25 27  1  0  0  0  0
 27 28  1  0  0  0  0
 27 29  1  0  0  0  0
 29 30  1  0  0  0  0
 29 31  1  0  0  0  0
 29 32  1  0  0  0  0
M  END
$$$$

  -OEChem-03222214073D

 32 32  0     1  0  0  0  0  0999 V2000
   -3.1369   -4.4336    0.9605 H   0  0  0  0  0  0  0  0  0  0  0  0
   -3.1176   -3.5454    0.3227 C   0  0  0  0  0  0  0  0  0  0  0  0
   -3.9312   -2.8800    0.6209 H   0  0  0  0  0  0  0  0  0  0  0  0
   -3.2690   -3.8539   -0.7144 H   0  0  0  0  0  0  0  0  0  0  0  0
   -1.7867   -2.8309    0.4617 C   0  0  0  0  0  0  0  0  0  0  0  0
   -0.9409   -3.2608    1.2257 O   0  0  0  0  0  0  0  0  0  0  0  0
   -1.5499   -1.6842   -0.2677 N   0  0  0  0  0  0  0  0  0  0  0  0
   -2.2810   -1.3791   -0.9078 H   0  0  0  0  0  0  0  0  0  0  0  0
   -0.2902   -0.9127   -0.2527 C   0  0  1  0  0  0  0  0  0  0  0  0
    0.5203   -1.5932   -0.5361 H   0  0  0  0  0  0  0  0  0  0  0  0
   -0.3135    0.2455   -1.2843 C   0  0  0  0  0  0  0  0  0  0  0  0
    0.1245    1.1497   -0.8467 H   0  0  0  0  0  0  0  0  0  0  0  0
    0.3312   -0.0333   -2.1239 H   0  0  0  0  0  0  0  0  0  0  0  0
   -1.6945    0.5732   -1.8132 C   0  0  0  0  0  0  0  0  0  0  0  0
   -2.6124    1.2721   -1.0144 C   0  0  0  0  0  0  0  0  0  0  0  0
   -2.3171    1.6268   -0.0314 H   0  0  0  0  0  0  0  0  0  0  0  0
   -3.9068    1.5282   -1.4783 C   0  0  0  0  0  0  0  0  0  0  0  0
   -4.6086    2.0762   -0.8561 H   0  0  0  0  0  0  0  0  0  0  0  0
   -4.2951    1.0854   -2.7462 C   0  0  0  0  0  0  0  0  0  0  0  0
   -5.2987    1.2879   -3.1096 H   0  0  0  0  0  0  0  0  0  0  0  0
   -3.3874    0.3886   -3.5496 C   0  0  0  0  0  0  0  0  0  0  0  0
   -3.6862    0.0486   -4.5372 H   0  0  0  0  0  0  0  0  0  0  0  0
   -2.0934    0.1327   -3.0841 C   0  0  0  0  0  0  0  0  0  0  0  0
   -1.3989   -0.4136   -3.7161 H   0  0  0  0  0  0  0  0  0  0  0  0
    0.0826   -0.3713    1.1440 C   0  0  0  0  0  0  0  0  0  0  0  0
    1.2609   -0.2432    1.4491 O   0  0  0  0  0  0  0  0  0  0  0  0
   -0.8848    0.2244    1.9336 N   0  0  0  0  0  0  0  0  0  0  0  0
   -1.8462    0.0072    1.6920 H   0  0  0  0  0  0  0  0  0  0  0  0
   -0.6000    0.7602    3.2589 C   0  0  0  0  0  0  0  0  0  0  0  0
    0.1864    1.5205    3.2063 H   0  0  0  0  0  0  0  0  0  0  0  0
   -1.4972    1.2237    3.6798 H   0  0  0  0  0  0  0  0  0  0  0  0
   -0.2716   -0.0392    3.9315 H   0  0  0  0  0  0  0  0  0  0  0  0
  1  2  1  0  0  0  0
  2  3  1  0  0  0  0
  2  4  1  0  0  0  0
  2  5  1  0  0  0  0
  5  6  2  0  0  0  0
  5  7  1  0  0  0  0
  7  8  1  0  0  0  0
  7  9  1  0  0  0  0
  9 10  1  0  0  0  0
  9 11  1  0  0  0  0
  9 25  1  0  0  0  0
 11 12  1  0  0  0  0
 11 13  1  0  0  0  0
 11 14  1  0  0  0  0
 14 15  1  0  0  0  0
 14 23  2  0  0  0  0
 15 16  1  0  0  0  0
 15 17  2  0  0  0  0
 17 18  1  0  0  0  0
 17 19  1  0  0  0  0
 19 20  1  0  0  0  0
 19 21  2  0  0  0  0
 21 22  1  0  0  0  0
 21 23  1  0  0  0  0
 23 24  1  0  0  0  0
 25 26  2  0  0  0  0
 25 27  1  0  0  0  0
 27 28  1  0  0  0  0
 27 29  1  0  0  0  0
 29 30  1  0  0  0  0
 29 31  1  0  0  0  0
 29 32  1  0  0  0  0
M  END
$$$$

  -OEChem-03222214073D

 32 32  0     1  0  0  0  0  0999 V2000
   -3.1102   -4.4545    1.0060 H   0  0  0  0  0  0  0  0  0  0  0  0
   -3.0996   -3.5730    0.3586 C   0  0  0  0  0  0  0  0  0  0  0  0
   -3.9105   -2.9058    0.6595 H   0  0  0  0  0  0  0  0  0  0  0  0
   -3.2632   -3.8932   -0.6732 H   0  0  0  0  0  0  0  0  0  0  0  0
   -1.7677   -2.8563    0.4748 C   0  0  0  0  0  0  0  0  0  0  0  0
   -0.9108   -3.2837    1.2277 O   0  0  0  0  0  0  0  0  0  0  0  0
   -1.5364   -1.7189   -0.2715 N   0  0  0  0  0  0  0  0  0  0  0  0
   -2.2813   -1.4073   -0.8921 H   0  0  0  0  0  0  0  0  0  0  0  0
   -0.2815   -0.9389   -0.2610 C   0  0  1  0  0  0  0  0  0  0  0  0
    0.5374   -1.6127   -0.5361 H   0  0  0  0  0  0  0  0  0  0  0  0
   -0.3108    0.2222   -1.2881 C   0  0  0  0  0  0  0  0  0  0  0  0
    0.1357    1.1247   -0.8559 H   0  0  0  0  0  0  0  0  0  0  0  0
    0.3230   -0.0571   -2.1358 H   0  0  0  0  0  0  0  0  0  0  0  0
   -1.6942    0.5437   -1.8103 C   0  0  0  0  0  0  0  0  0  0  0  0
   -2.4933    1.4876   -1.1496 C   0  0  0  0  0  0  0  0  0  0  0  0
   -2.1118    2.0037   -0.2729 H   0  0  0  0  0  0  0  0  0  0  0  0
   -3.7820    1.7727   -1.6125 C   0  0  0  0  0  0  0  0  0  0  0  0
   -4.3934    2.5075   -1.0967 H   0  0  0  0  0  0  0  0  0  0  0  0
   -4.2801    1.1177   -2.7431 C   0  0  0  0  0  0  0  0  0  0  0  0
   -5.2790    1.3433   -3.1058 H   0  0  0  0  0  0  0  0  0  0  0  0
   -3.4871    0.1802   -3.4123 C   0  0  0  0  0  0  0  0  0  0  0  0
   -3.8695   -0.3218   -4.2965 H   0  0  0  0  0  0  0  0  0  0  0  0
   -2.1984   -0.1040   -2.9487 C   0  0  0  0  0  0  0  0  0  0  0  0
   -1.5874   -0.8307   -3.4770 H   0  0  0  0  0  0  0  0  0  0  0  0
    0.0729   -0.3774    1.1325 C   0  0  0  0  0  0  0  0  0  0  0  0
    1.2463   -0.2395    1.4518 O   0  0  0  0  0  0  0  0  0  0  0  0
   -0.9088    0.2210    1.9024 N   0  0  0  0  0  0  0  0  0  0  0  0
   -1.8677    0.0226    1.6358 H   0  0  0  0  0  0  0  0  0  0  0  0
   -0.6467    0.7894    3.2185 C   0  0  0  0  0  0  0  0  0  0  0  0
    0.1260    1.5630    3.1569 H   0  0  0  0  0  0  0  0  0  0  0  0
   -1.5562    1.2444    3.6221 H   0  0  0  0  0  0  0  0  0  0  0  0
   -0.3100    0.0101    3.9102 H   0  0  0  0  0  0  0  0  0  0  0  0
  1  2  1  0  0  0  0
  2  3  1  0  0  0  0
  2  4  1  0  0  0  0
  2  5  1  0  0  0  0
  5  6  2  0  0  0  0
  5  7  1  0  0  0  0
  7  8  1  0  0  0  0
  7  9  1  0  0  0  0
  9 10  1  0  0  0  0
  9 11  1  0  0  0  0
  9 25  1  0  0  0  0
 11 12  1  0  0  0  0
 11 13  1  0  0  0  0
 11 14  1  0  0  0  0
 14 15  1  0  0  0  0
 14 23  2  0  0  0  0
 15 16  1  0  0  0  0
 15 17  2  0  0  0  0
 17 18  1  0  0  0  0
 17 19  1  0  0  0  0
 19 20  1  0  0  0  0
 19 21  2  0  0  0  0
 21 22  1  0  0  0  0
 21 23  1  0  0  0  0
 23 24  1  0  0  0  0
 25 26  2  0  0  0  0
 25 27  1  0  0  0  0
 27 28  1  0  0  0  0
 27 29  1  0  0  0  0
 29 30  1  0  0  0  0
 29 31  1  0  0  0  0
 29 32  1  0  0  0  0
M  END
$$$$

  -OEChem-03222214073D

 32 32  0     1  0  0  0  0  0999 V2000
   -3.0679   -4.4842    1.0913 H   0  0  0  0  0  0  0  0  0  0  0  0
   -3.0746   -3.6096    0.4345 C   0  0  0  0  0  0  0  0  0  0  0  0
   -3.8779   -2.9392    0.7493 H   0  0  0  0  0  0  0  0  0  0  0  0
   -3.2647   -3.9406   -0.5894 H   0  0  0  0  0  0  0  0  0  0  0  0
   -1.7400   -2.8916    0.5079 C   0  0  0  0  0  0  0  0  0  0  0  0
   -0.8592   -3.3169    1.2336 O   0  0  0  0  0  0  0  0  0  0  0  0
   -1.5328   -1.7563   -0.2488 N   0  0  0  0  0  0  0  0  0  0  0  0
   -2.3035   -1.4363   -0.8316 H   0  0  0  0  0  0  0  0  0  0  0  0
   -0.2896   -0.9588   -0.2564 C   0  0  1  0  0  0  0  0  0  0  0  0
    0.5364   -1.6219   -0.5367 H   0  0  0  0  0  0  0  0  0  0  0  0
   -0.3399    0.2030   -1.2832 C   0  0  0  0  0  0  0  0  0  0  0  0
    0.1121    1.1056   -0.8560 H   0  0  0  0  0  0  0  0  0  0  0  0
    0.2851   -0.0749   -2.1378 H   0  0  0  0  0  0  0  0  0  0  0  0
   -1.7255    0.5235   -1.8038 C   0  0  0  0  0  0  0  0  0  0  0  0
   -2.4040    1.6640   -1.3503 C   0  0  0  0  0  0  0  0  0  0  0  0
   -1.9477    2.3103   -0.6052 H   0  0  0  0  0  0  0  0  0  0  0  0
   -3.6745    1.9773   -1.8453 C   0  0  0  0  0  0  0  0  0  0  0  0
   -4.1952    2.8595   -1.4837 H   0  0  0  0  0  0  0  0  0  0  0  0
   -4.2698    1.1612   -2.8121 C   0  0  0  0  0  0  0  0  0  0  0  0
   -5.2535    1.4083   -3.2011 H   0  0  0  0  0  0  0  0  0  0  0  0
   -3.5909    0.0362   -3.2895 C   0  0  0  0  0  0  0  0  0  0  0  0
   -4.0449   -0.5889   -4.0533 H   0  0  0  0  0  0  0  0  0  0  0  0
   -2.3212   -0.2755   -2.7936 C   0  0  0  0  0  0  0  0  0  0  0  0
   -1.7920   -1.1411   -3.1828 H   0  0  0  0  0  0  0  0  0  0  0  0
    0.0690   -0.3835    1.1303 C   0  0  0  0  0  0  0  0  0  0  0  0
    1.2430   -0.2362    1.4431 O   0  0  0  0  0  0  0  0  0  0  0  0
   -0.9131    0.2060    1.9061 N   0  0  0  0  0  0  0  0  0  0  0  0
   -1.8735    0.0262    1.6321 H   0  0  0  0  0  0  0  0  0  0  0  0
   -0.6473    0.7929    3.2129 C   0  0  0  0  0  0  0  0  0  0  0  0
    0.0860    1.6018    3.1285 H   0  0  0  0  0  0  0  0  0  0  0  0
   -1.5677    1.2052    3.6367 H   0  0  0  0  0  0  0  0  0  0  0  0
   -0.2572    0.0339    3.8991 H   0  0  0  0  0  0  0  0  0  0  0  0
  1  2  1  0  0  0  0
  2  3  1  0  0  0  0
  2  4  1  0  0  0  0
  2  5  1  0  0  0  0
  5  6  2  0  0  0  0
  5  7  1  0  0  0  0
  7  8  1  0  0  0  0
  7  9  1  0  0  0  0
  9 10  1  0  0  0  0
  9 11  1  0  0  0  0
  9 25  1  0  0  0  0
 11 12  1  0  0  0  0
 11 13  1  0  0  0  0
 11 14  1  0  0  0  0
 14 15  1  0  0  0  0
 14 23  2  0  0  0  0
 15 16  1  0  0  0  0
 15 17  2  0  0  0  0
 17 18  1  0  0  0  0
 17 19  1  0  0  0  0
 19 20  1  0  0  0  0
 19 21  2  0  0  0  0
 21 22  1  0  0  0  0
 21 23  1  0  0  0  0
 23 24  1  0  0  0  0
 25 26  2  0  0  0  0
 25 27  1  0  0  0  0
 27 28  1  0  0  0  0
 27 29  1  0  0  0  0
 29 30  1  0  0  0  0
 29 31  1  0  0  0  0
 29 32  1  0  0  0  0
M  END
$$$$

  -OEChem-03222214073D

 32 32  0     1  0  0  0  0  0999 V2000
   -2.9831   -4.5317    1.2106 H   0  0  0  0  0  0  0  0  0  0  0  0
   -3.0260   -3.6617    0.5489 C   0  0  0  0  0  0  0  0  0  0  0  0
   -3.8180   -2.9939    0.8963 H   0  0  0  0  0  0  0  0  0  0  0  0
   -3.2618   -4.0008   -0.4627 H   0  0  0  0  0  0  0  0  0  0  0  0
   -1.6942   -2.9352    0.5544 C   0  0  0  0  0  0  0  0  0  0  0  0
   -0.7715   -3.3596    1.2266 O   0  0  0  0  0  0  0  0  0  0  0  0
   -1.5368   -1.7946   -0.2064 N   0  0  0  0  0  0  0  0  0  0  0  0
   -2.3498   -1.4609   -0.7190 H   0  0  0  0  0  0  0  0  0  0  0  0
   -0.3146   -0.9683   -0.2453 C   0  0  1  0  0  0  0  0  0  0  0  0
    0.5172   -1.6182   -0.5392 H   0  0  0  0  0  0  0  0  0  0  0  0
   -0.3935    0.1914   -1.2757 C   0  0  0  0  0  0  0  0  0  0  0  0
    0.0624    1.0936   -0.8529 H   0  0  0  0  0  0  0  0  0  0  0  0
    0.2255   -0.0865   -2.1348 H   0  0  0  0  0  0  0  0  0  0  0  0
   -1.7779    0.5187   -1.8052 C   0  0  0  0  0  0  0  0  0  0  0  0
   -2.3194    1.7978   -1.6046 C   0  0  0  0  0  0  0  0  0  0  0  0
   -1.7793    2.5324   -1.0137 H   0  0  0  0  0  0  0  0  0  0  0  0
   -3.5621    2.1411   -2.1479 C   0  0  0  0  0  0  0  0  0  0  0  0
   -3.9766    3.1297   -1.9718 H   0  0  0  0  0  0  0  0  0  0  0  0
   -4.2646    1.2180   -2.9273 C   0  0  0  0  0  0  0  0  0  0  0  0
   -5.2273    1.4868   -3.3529 H   0  0  0  0  0  0  0  0  0  0  0  0
   -3.7139   -0.0413   -3.1786 C   0  0  0  0  0  0  0  0  0  0  0  0
   -4.2445   -0.7485   -3.8098 H   0  0  0  0  0  0  0  0  0  0  0  0
   -2.4707   -0.3810   -2.6356 C   0  0  0  0  0  0  0  0  0  0  0  0
   -2.0343   -1.3475   -2.8728 H   0  0  0  0  0  0  0  0  0  0  0  0
    0.0629   -0.3878    1.1347 C   0  0  0  0  0  0  0  0  0  0  0  0
    1.2402   -0.2153    1.4212 O   0  0  0  0  0  0  0  0  0  0  0  0
   -0.9134    0.1760    1.9367 N   0  0  0  0  0  0  0  0  0  0  0  0
   -1.8771   -0.0045    1.6752 H   0  0  0  0  0  0  0  0  0  0  0  0
   -0.6308    0.7762    3.2340 C   0  0  0  0  0  0  0  0  0  0  0  0
    0.0813    1.6014    3.1283 H   0  0  0  0  0  0  0  0  0  0  0  0
   -1.5503    1.1701    3.6771 H   0  0  0  0  0  0  0  0  0  0  0  0
   -0.2078    0.0302    3.9152 H   0  0  0  0  0  0  0  0  0  0  0  0
  1  2  1  0  0  0  0
  2  3  1  0  0  0  0
  2  4  1  0  0  0  0
  2  5  1  0  0  0  0
  5  6  2  0  0  0  0
  5  7  1  0  0  0  0
  7  8  1  0  0  0  0
  7  9  1  0  0  0  0
  9 10  1  0  0  0  0
  9 11  1  0  0  0  0
  9 25  1  0  0  0  0
 11 12  1  0  0  0  0
 11 13  1  0  0  0  0
 11 14  1  0  0  0  0
 14 15  1  0  0  0  0
 14 23  2  0  0  0  0
 15 16  1  0  0  0  0
 15 17  2  0  0  0  0
 17 18  1  0  0  0  0
 17 19  1  0  0  0  0
 19 20  1  0  0  0  0
 19 21  2  0  0  0  0
 21 22  1  0  0  0  0
 21 23  1  0  0  0  0
 23 24  1  0  0  0  0
 25 26  2  0  0  0  0
 25 27  1  0  0  0  0
 27 28  1  0  0  0  0
 27 29  1  0  0  0  0
 29 30  1  0  0  0  0
 29 31  1  0  0  0  0
 29 32  1  0  0  0  0
M  END
$$$$

  -OEChem-03222214073D

 32 32  0     1  0  0  0  0  0999 V2000
   -2.8599   -4.5956    1.3485 H   0  0  0  0  0  0  0  0  0  0  0  0
   -2.9567   -3.7310    0.6854 C   0  0  0  0  0  0  0  0  0  0  0  0
   -3.7389   -3.0752    1.0747 H   0  0  0  0  0  0  0  0  0  0  0  0
   -3.2441   -4.0808   -0.3089 H   0  0  0  0  0  0  0  0  0  0  0  0
   -1.6396   -2.9819    0.6093 C   0  0  0  0  0  0  0  0  0  0  0  0
   -0.6687   -3.3954    1.2172 O   0  0  0  0  0  0  0  0  0  0  0  0
   -1.5491   -1.8345   -0.1534 N   0  0  0  0  0  0  0  0  0  0  0  0
   -2.4055   -1.4962   -0.5843 H   0  0  0  0  0  0  0  0  0  0  0  0
   -0.3549   -0.9721   -0.2317 C   0  0  1  0  0  0  0  0  0  0  0  0
    0.4831   -1.6053   -0.5444 H   0  0  0  0  0  0  0  0  0  0  0  0
   -0.4652    0.1862   -1.2651 C   0  0  0  0  0  0  0  0  0  0  0  0
   -0.0083    1.0883   -0.8427 H   0  0  0  0  0  0  0  0  0  0  0  0
    0.1530   -0.0890   -2.1258 H   0  0  0  0  0  0  0  0  0  0  0  0
   -1.8437    0.5295   -1.8108 C   0  0  0  0  0  0  0  0  0  0  0  0
   -2.2286    1.8785   -1.8867 C   0  0  0  0  0  0  0  0  0  0  0  0
   -1.5924    2.6511   -1.4639 H   0  0  0  0  0  0  0  0  0  0  0  0
   -3.4380    2.2527   -2.4818 C   0  0  0  0  0  0  0  0  0  0  0  0
   -3.7311    3.2984   -2.5038 H   0  0  0  0  0  0  0  0  0  0  0  0
   -4.2611    1.2851   -3.0613 C   0  0  0  0  0  0  0  0  0  0  0  0
   -5.1976    1.5759   -3.5288 H   0  0  0  0  0  0  0  0  0  0  0  0
   -3.8576   -0.0518   -3.0697 C   0  0  0  0  0  0  0  0  0  0  0  0
   -4.4730   -0.7994   -3.5626 H   0  0  0  0  0  0  0  0  0  0  0  0
   -2.6471   -0.4203   -2.4729 C   0  0  0  0  0  0  0  0  0  0  0  0
   -2.3213   -1.4523   -2.5614 H   0  0  0  0  0  0  0  0  0  0  0  0
    0.0502   -0.3874    1.1394 C   0  0  0  0  0  0  0  0  0  0  0  0
    1.2308   -0.1836    1.3893 O   0  0  0  0  0  0  0  0  0  0  0  0
   -0.9135    0.1426    1.9791 N   0  0  0  0  0  0  0  0  0  0  0  0
   -1.8815   -0.0496    1.7439 H   0  0  0  0  0  0  0  0  0  0  0  0
   -0.6031    0.7548    3.2647 C   0  0  0  0  0  0  0  0  0  0  0  0
    0.0657    1.6112    3.1300 H   0  0  0  0  0  0  0  0  0  0  0  0
   -1.5197    1.1062    3.7476 H   0  0  0  0  0  0  0  0  0  0  0  0
   -0.1177    0.0295    3.9262 H   0  0  0  0  0  0  0  0  0  0  0  0
  1  2  1  0  0  0  0
  2  3  1  0  0  0  0
  2  4  1  0  0  0  0
  2  5  1  0  0  0  0
  5  6  2  0  0  0  0
  5  7  1  0  0  0  0
  7  8  1  0  0  0  0
  7  9  1  0  0  0  0
  9 10  1  0  0  0  0
  9 11  1  0  0  0  0
  9 25  1  0  0  0  0
 11 12  1  0  0  0  0
 11 13  1  0  0  0  0
 11 14  1  0  0  0  0
 14 15  1  0  0  0  0
 14 23  2  0  0  0  0
 15 16  1  0  0  0  0
 15 17  2  0  0  0  0
 17 18  1  0  0  0  0
 17 19  1  0  0  0  0
 19 20  1  0  0  0  0
 19 21  2  0  0  0  0
 21 22  1  0  0  0  0
 21 23  1  0  0  0  0
 23 24  1  0  0  0  0
 25 26  2  0  0  0  0
 25 27  1  0  0  0  0
 27 28  1  0  0  0  0
 27 29  1  0  0  0  0
 29 30  1  0  0  0  0
 29 31  1  0  0  0  0
 29 32  1  0  0  0  0
M  END
$$$$

  -OEChem-03222214073D

 32 32  0     1  0  0  0  0  0999 V2000
   -2.7113   -4.6518    1.4942 H   0  0  0  0  0  0  0  0  0  0  0  0
   -2.8661   -3.7905    0.8381 C   0  0  0  0  0  0  0  0  0  0  0  0
   -3.6286   -3.1453    1.2805 H   0  0  0  0  0  0  0  0  0  0  0  0
   -3.2171   -4.1470   -0.1333 H   0  0  0  0  0  0  0  0  0  0  0  0
   -1.5685   -3.0228    0.6698 C   0  0  0  0  0  0  0  0  0  0  0  0
   -0.5533   -3.4193    1.2131 O   0  0  0  0  0  0  0  0  0  0  0  0
   -1.5481   -1.8769   -0.1007 N   0  0  0  0  0  0  0  0  0  0  0  0
   -2.4426   -1.5412   -0.4458 H   0  0  0  0  0  0  0  0  0  0  0  0
   -0.3887   -0.9761   -0.2233 C   0  0  1  0  0  0  0  0  0  0  0  0
    0.4575   -1.5897   -0.5531 H   0  0  0  0  0  0  0  0  0  0  0  0
   -0.5404    0.1764   -1.2617 C   0  0  0  0  0  0  0  0  0  0  0  0
   -0.0883    1.0820   -0.8415 H   0  0  0  0  0  0  0  0  0  0  0  0
    0.0785   -0.0964   -2.1225 H   0  0  0  0  0  0  0  0  0  0  0  0
   -1.9113    0.5388   -1.8272 C   0  0  0  0  0  0  0  0  0  0  0  0
   -2.1270    1.8800   -2.1920 C   0  0  0  0  0  0  0  0  0  0  0  0
   -1.3795    2.6323   -1.9578 H   0  0  0  0  0  0  0  0  0  0  0  0
   -3.3052    2.2871   -2.8260 C   0  0  0  0  0  0  0  0  0  0  0  0
   -3.4617    3.3366   -3.0589 H   0  0  0  0  0  0  0  0  0  0  0  0
   -4.2720    1.3434   -3.1729 C   0  0  0  0  0  0  0  0  0  0  0  0
   -5.1863    1.6558   -3.6693 H   0  0  0  0  0  0  0  0  0  0  0  0
   -4.0351   -0.0080   -2.9211 C   0  0  0  0  0  0  0  0  0  0  0  0
   -4.7562   -0.7514   -3.2489 H   0  0  0  0  0  0  0  0  0  0  0  0
   -2.8533   -0.4073   -2.2873 C   0  0  0  0  0  0  0  0  0  0  0  0
   -2.6692   -1.4730   -2.2215 H   0  0  0  0  0  0  0  0  0  0  0  0
    0.0401   -0.3746    1.1336 C   0  0  0  0  0  0  0  0  0  0  0  0
    1.2218   -0.1419    1.3509 O   0  0  0  0  0  0  0  0  0  0  0  0
   -0.9123    0.1247    2.0044 N   0  0  0  0  0  0  0  0  0  0  0  0
   -1.8839   -0.0675    1.7859 H   0  0  0  0  0  0  0  0  0  0  0  0
   -0.5796    0.7478    3.2789 C   0  0  0  0  0  0  0  0  0  0  0  0
    0.0299    1.6435    3.1199 H   0  0  0  0  0  0  0  0  0  0  0  0
   -1.4921    1.0396    3.8075 H   0  0  0  0  0  0  0  0  0  0  0  0
   -0.0211    0.0489    3.9107 H   0  0  0  0  0  0  0  0  0  0  0  0
  1  2  1  0  0  0  0
  2  3  1  0  0  0  0
  2  4  1  0  0  0  0
  2  5  1  0  0  0  0
  5  6  2  0  0  0  0
  5  7  1  0  0  0  0
  7  8  1  0  0  0  0
  7  9  1  0  0  0  0
  9 10  1  0  0  0  0
  9 11  1  0  0  0  0
  9 25  1  0  0  0  0
 11 12  1  0  0  0  0
 11 13  1  0  0  0  0
 11 14  1  0  0  0  0
 14 15  1  0  0  0  0
 14 23  2  0  0  0  0
 15 16  1  0  0  0  0
 15 17  2  0  0  0  0
 17 18  1  0  0  0  0
 17 19  1  0  0  0  0
 19 20  1  0  0  0  0
 19 21  2  0  0  0  0
 21 22  1  0  0  0  0
 21 23  1  0  0  0  0
 23 24  1  0  0  0  0
 25 26  2  0  0  0  0
 25 27  1  0  0  0  0
 27 28  1  0  0  0  0
 27 29  1  0  0  0  0
 29 30  1  0  0  0  0
 29 31  1  0  0  0  0
 29 32  1  0  0  0  0
M  END
$$$$

  -OEChem-03222214073D

 32 32  0     1  0  0  0  0  0999 V2000
   -2.6113   -4.8562    1.1105 H   0  0  0  0  0  0  0  0  0  0  0  0
   -2.7492   -3.9821    0.4676 C   0  0  0  0  0  0  0  0  0  0  0  0
   -3.6657   -3.4672    0.7656 H   0  0  0  0  0  0  0  0  0  0  0  0
   -2.8473   -4.3199   -0.5669 H   0  0  0  0  0  0  0  0  0  0  0  0
   -1.5619   -3.0466    0.5974 C   0  0  0  0  0  0  0  0  0  0  0  0
   -0.6609   -3.3154    1.3709 O   0  0  0  0  0  0  0  0  0  0  0  0
   -1.5149   -1.8957   -0.1647 N   0  0  0  0  0  0  0  0  0  0  0  0
   -2.2400   -1.7863   -0.8694 H   0  0  0  0  0  0  0  0  0  0  0  0
   -0.3551   -0.9889   -0.2428 C   0  0  1  0  0  0  0  0  0  0  0  0
    0.5084   -1.5781   -0.5717 H   0  0  0  0  0  0  0  0  0  0  0  0
   -0.5509    0.1693   -1.2589 C   0  0  0  0  0  0  0  0  0  0  0  0
    0.1076    0.9960   -0.9681 H   0  0  0  0  0  0  0  0  0  0  0  0
   -0.1682   -0.2057   -2.2136 H   0  0  0  0  0  0  0  0  0  0  0  0
   -1.9284    0.7589   -1.5657 C   0  0  0  0  0  0  0  0  0  0  0  0
   -1.9514    1.7983   -2.5125 C   0  0  0  0  0  0  0  0  0  0  0  0
   -1.0358    2.0792   -3.0254 H   0  0  0  0  0  0  0  0  0  0  0  0
   -3.1321    2.4757   -2.8321 C   0  0  0  0  0  0  0  0  0  0  0  0
   -3.1231    3.2579   -3.5857 H   0  0  0  0  0  0  0  0  0  0  0  0
   -4.3194    2.1541   -2.1751 C   0  0  0  0  0  0  0  0  0  0  0  0
   -5.2377    2.6809   -2.4187 H   0  0  0  0  0  0  0  0  0  0  0  0
   -4.3127    1.1737   -1.1828 C   0  0  0  0  0  0  0  0  0  0  0  0
   -5.2278    0.9515   -0.6415 H   0  0  0  0  0  0  0  0  0  0  0  0
   -3.1283    0.4987   -0.8654 C   0  0  0  0  0  0  0  0  0  0  0  0
   -3.1839   -0.1922   -0.0362 H   0  0  0  0  0  0  0  0  0  0  0  0
    0.0444   -0.3800    1.1207 C   0  0  0  0  0  0  0  0  0  0  0  0
    1.2235   -0.1494    1.3559 O   0  0  0  0  0  0  0  0  0  0  0  0
   -0.9222    0.1231    1.9730 N   0  0  0  0  0  0  0  0  0  0  0  0
   -1.8832   -0.1240    1.7653 H   0  0  0  0  0  0  0  0  0  0  0  0
   -0.6119    0.7331    3.2592 C   0  0  0  0  0  0  0  0  0  0  0  0
    0.0741    1.5768    3.1293 H   0  0  0  0  0  0  0  0  0  0  0  0
   -1.5262    1.1041    3.7318 H   0  0  0  0  0  0  0  0  0  0  0  0
   -0.1468   -0.0001    3.9265 H   0  0  0  0  0  0  0  0  0  0  0  0
  1  2  1  0  0  0  0
  2  3  1  0  0  0  0
  2  4  1  0  0  0  0
  2  5  1  0  0  0  0
  5  6  2  0  0  0  0
  5  7  1  0  0  0  0
  7  8  1  0  0  0  0
  7  9  1  0  0  0  0
  9 10  1  0  0  0  0
  9 11  1  0  0  0  0
  9 25  1  0  0  0  0
 11 12  1  0  0  0  0
 11 13  1  0  0  0  0
 11 14  1  0  0  0  0
 14 15  1  0  0  0  0
 14 23  2  0  0  0  0
 15 16  1  0  0  0  0
 15 17  2  0  0  0  0
 17 18  1  0  0  0  0
 17 19  1  0  0  0  0
 19 20  1  0  0  0  0
 19 21  2  0  0  0  0
 21 22  1  0  0  0  0
 21 23  1  0  0  0  0
 23 24  1  0  0  0  0
 25 26  2  0  0  0  0
 25 27  1  0  0  0  0
 27 28  1  0  0  0  0
 27 29  1  0  0  0  0
 29 30  1  0  0  0  0
 29 31  1  0  0  0  0
 29 32  1  0  0  0  0
M  END
$$$$

  -OEChem-03222214073D

 32 32  0     1  0  0  0  0  0999 V2000
   -2.7475   -4.7741    1.0601 H   0  0  0  0  0  0  0  0  0  0  0  0
   -2.8505   -3.8916    0.4221 C   0  0  0  0  0  0  0  0  0  0  0  0
   -3.7485   -3.3453    0.7201 H   0  0  0  0  0  0  0  0  0  0  0  0
   -2.9577   -4.2190   -0.6148 H   0  0  0  0  0  0  0  0  0  0  0  0
   -1.6295   -3.0017    0.5606 C   0  0  0  0  0  0  0  0  0  0  0  0
   -0.7300   -3.3188    1.3176 O   0  0  0  0  0  0  0  0  0  0  0  0
   -1.5505   -1.8305   -0.1659 N   0  0  0  0  0  0  0  0  0  0  0  0
   -2.2946   -1.6533   -0.8369 H   0  0  0  0  0  0  0  0  0  0  0  0
   -0.3674   -0.9498   -0.2145 C   0  0  1  0  0  0  0  0  0  0  0  0
    0.4785   -1.5635   -0.5448 H   0  0  0  0  0  0  0  0  0  0  0  0
   -0.5255    0.1981   -1.2455 C   0  0  0  0  0  0  0  0  0  0  0  0
    0.1196    1.0318   -0.9461 H   0  0  0  0  0  0  0  0  0  0  0  0
   -0.1221   -0.1821   -2.1896 H   0  0  0  0  0  0  0  0  0  0  0  0
   -1.9082    0.7623   -1.5545 C   0  0  0  0  0  0  0  0  0  0  0  0
   -2.0339    1.5513   -2.7104 C   0  0  0  0  0  0  0  0  0  0  0  0
   -1.1820    1.6812   -3.3719 H   0  0  0  0  0  0  0  0  0  0  0  0
   -3.2441    2.1687   -3.0424 C   0  0  0  0  0  0  0  0  0  0  0  0
   -3.3218    2.7569   -3.9525 H   0  0  0  0  0  0  0  0  0  0  0  0
   -4.3480    2.0388   -2.1984 C   0  0  0  0  0  0  0  0  0  0  0  0
   -5.2883    2.5198   -2.4525 H   0  0  0  0  0  0  0  0  0  0  0  0
   -4.2302    1.3089   -1.0144 C   0  0  0  0  0  0  0  0  0  0  0  0
   -5.0781    1.2361   -0.3397 H   0  0  0  0  0  0  0  0  0  0  0  0
   -3.0174    0.6933   -0.6862 C   0  0  0  0  0  0  0  0  0  0  0  0
   -2.9594    0.1859    0.2680 H   0  0  0  0  0  0  0  0  0  0  0  0
    0.0651   -0.3775    1.1549 C   0  0  0  0  0  0  0  0  0  0  0  0
    1.2517   -0.1590    1.3625 O   0  0  0  0  0  0  0  0  0  0  0  0
   -0.8701    0.1366    2.0348 N   0  0  0  0  0  0  0  0  0  0  0  0
   -1.8304   -0.1497    1.8837 H   0  0  0  0  0  0  0  0  0  0  0  0
   -0.5086    0.7180    3.3212 C   0  0  0  0  0  0  0  0  0  0  0  0
    0.1806    1.5577    3.1826 H   0  0  0  0  0  0  0  0  0  0  0  0
   -1.4018    1.0880    3.8334 H   0  0  0  0  0  0  0  0  0  0  0  0
   -0.0272   -0.0323    3.9572 H   0  0  0  0  0  0  0  0  0  0  0  0
  1  2  1  0  0  0  0
  2  3  1  0  0  0  0
  2  4  1  0  0  0  0
  2  5  1  0  0  0  0
  5  6  2  0  0  0  0
  5  7  1  0  0  0  0
  7  8  1  0  0  0  0
  7  9  1  0  0  0  0
  9 10  1  0  0  0  0
  9 11  1  0  0  0  0
  9 25  1  0  0  0  0
 11 12  1  0  0  0  0
 11 13  1  0  0  0  0
 11 14  1  0  0  0  0
 14 15  1  0  0  0  0
 14 23  2  0  0  0  0
 15 16  1  0  0  0  0
 15 17  2  0  0  0  0
 17 18  1  0  0  0  0
 17 19  1  0  0  0  0
 19 20  1  0  0  0  0
 19 21  2  0  0  0  0
 21 22  1  0  0  0  0
 21 23  1  0  0  0  0
 23 24  1  0  0  0  0
 25 26  2  0  0  0  0
 25 27  1  0  0  0  0
 27 28  1  0  0  0  0
 27 29  1  0  0  0  0
 29 30  1  0  0  0  0
 29 31  1  0  0  0  0
 29 32  1  0  0  0  0
M  END
$$$$

  -OEChem-03222214073D

 32 32  0     1  0  0  0  0  0999 V2000
   -2.8578   -4.6892    1.0034 H   0  0  0  0  0  0  0  0  0  0  0  0
   -2.9364   -3.7904    0.3849 C   0  0  0  0  0  0  0  0  0  0  0  0
   -3.8131   -3.2203    0.7014 H   0  0  0  0  0  0  0  0  0  0  0  0
   -3.0621   -4.0921   -0.6577 H   0  0  0  0  0  0  0  0  0  0  0  0
   -1.6858   -2.9447    0.5323 C   0  0  0  0  0  0  0  0  0  0  0  0
   -0.7911   -3.3052    1.2757 O   0  0  0  0  0  0  0  0  0  0  0  0
   -1.5783   -1.7573   -0.1622 N   0  0  0  0  0  0  0  0  0  0  0  0
   -2.3353   -1.5224   -0.8006 H   0  0  0  0  0  0  0  0  0  0  0  0
   -0.3752   -0.9040   -0.1892 C   0  0  1  0  0  0  0  0  0  0  0  0
    0.4520   -1.5417   -0.5214 H   0  0  0  0  0  0  0  0  0  0  0  0
   -0.4989    0.2298   -1.2379 C   0  0  0  0  0  0  0  0  0  0  0  0
    0.1365    1.0684   -0.9325 H   0  0  0  0  0  0  0  0  0  0  0  0
   -0.0759   -0.1575   -2.1706 H   0  0  0  0  0  0  0  0  0  0  0  0
   -1.8868    0.7738   -1.5501 C   0  0  0  0  0  0  0  0  0  0  0  0
   -2.1302    1.2705   -2.8414 C   0  0  0  0  0  0  0  0  0  0  0  0
   -1.3538    1.2178   -3.5993 H   0  0  0  0  0  0  0  0  0  0  0  0
   -3.3666    1.8303   -3.1796 C   0  0  0  0  0  0  0  0  0  0  0  0
   -3.5388    2.1962   -4.1877 H   0  0  0  0  0  0  0  0  0  0  0  0
   -4.3755    1.9276   -2.2193 C   0  0  0  0  0  0  0  0  0  0  0  0
   -5.3343    2.3669   -2.4793 H   0  0  0  0  0  0  0  0  0  0  0  0
   -4.1392    1.4773   -0.9188 C   0  0  0  0  0  0  0  0  0  0  0  0
   -4.9138    1.5760   -0.1636 H   0  0  0  0  0  0  0  0  0  0  0  0
   -2.9013    0.9175   -0.5852 C   0  0  0  0  0  0  0  0  0  0  0  0
   -2.7420    0.6092    0.4394 H   0  0  0  0  0  0  0  0  0  0  0  0
    0.0873   -0.3692    1.1861 C   0  0  0  0  0  0  0  0  0  0  0  0
    1.2811   -0.1746    1.3749 O   0  0  0  0  0  0  0  0  0  0  0  0
   -0.8198    0.1512    2.0914 N   0  0  0  0  0  0  0  0  0  0  0  0
   -1.7813   -0.1467    1.9704 H   0  0  0  0  0  0  0  0  0  0  0  0
   -0.4196    0.6849    3.3875 C   0  0  0  0  0  0  0  0  0  0  0  0
    0.3014    1.4997    3.2627 H   0  0  0  0  0  0  0  0  0  0  0  0
   -1.2913    1.0774    3.9196 H   0  0  0  0  0  0  0  0  0  0  0  0
    0.0386   -0.0997    3.9989 H   0  0  0  0  0  0  0  0  0  0  0  0
  1  2  1  0  0  0  0
  2  3  1  0  0  0  0
  2  4  1  0  0  0  0
  2  5  1  0  0  0  0
  5  6  2  0  0  0  0
  5  7  1  0  0  0  0
  7  8  1  0  0  0  0
  7  9  1  0  0  0  0
  9 10  1  0  0  0  0
  9 11  1  0  0  0  0
  9 25  1  0  0  0  0
 11 12  1  0  0  0  0
 11 13  1  0  0  0  0
 11 14  1  0  0  0  0
 14 15  1  0  0  0  0
 14 23  2  0  0  0  0
 15 16  1  0  0  0  0
 15 17  2  0  0  0  0
 17 18  1  0  0  0  0
 17 19  1  0  0  0  0
 19 20  1  0  0  0  0
 19 21  2  0  0  0  0
 21 22  1  0  0  0  0
 21 23  1  0  0  0  0
 23 24  1  0  0  0  0
 25 26  2  0  0  0  0
 25 27  1  0  0  0  0
 27 28  1  0  0  0  0
 27 29  1  0  0  0  0
 29 30  1  0  0  0  0
 29 31  1  0  0  0  0
 29 32  1  0  0  0  0
M  END
$$$$

  -OEChem-03222214073D

 32 32  0     1  0  0  0  0  0999 V2000
   -2.9539   -4.6088    0.9745 H   0  0  0  0  0  0  0  0  0  0  0  0
   -3.0079   -3.7030    0.3640 C   0  0  0  0  0  0  0  0  0  0  0  0
   -3.8609   -3.1055    0.6944 H   0  0  0  0  0  0  0  0  0  0  0  0
   -3.1559   -3.9908   -0.6796 H   0  0  0  0  0  0  0  0  0  0  0  0
   -1.7266   -2.9029    0.5037 C   0  0  0  0  0  0  0  0  0  0  0  0
   -0.8300   -3.3084    1.2215 O   0  0  0  0  0  0  0  0  0  0  0  0
   -1.5904   -1.7074   -0.1714 N   0  0  0  0  0  0  0  0  0  0  0  0
   -2.3605   -1.4198   -0.7717 H   0  0  0  0  0  0  0  0  0  0  0  0
   -0.3706   -0.8781   -0.1814 C   0  0  1  0  0  0  0  0  0  0  0  0
    0.4437   -1.5337   -0.5105 H   0  0  0  0  0  0  0  0  0  0  0  0
   -0.4643    0.2473   -1.2401 C   0  0  0  0  0  0  0  0  0  0  0  0
    0.1662    1.0871   -0.9288 H   0  0  0  0  0  0  0  0  0  0  0  0
   -0.0297   -0.1427   -2.1657 H   0  0  0  0  0  0  0  0  0  0  0  0
   -1.8565    0.7777   -1.5467 C   0  0  0  0  0  0  0  0  0  0  0  0
   -2.2328    0.9706   -2.8865 C   0  0  0  0  0  0  0  0  0  0  0  0
   -1.5480    0.7119   -3.6890 H   0  0  0  0  0  0  0  0  0  0  0  0
   -3.4906    1.4879   -3.2135 C   0  0  0  0  0  0  0  0  0  0  0  0
   -3.7688    1.6196   -4.2552 H   0  0  0  0  0  0  0  0  0  0  0  0
   -4.3840    1.8452   -2.2013 C   0  0  0  0  0  0  0  0  0  0  0  0
   -5.3589    2.2523   -2.4541 H   0  0  0  0  0  0  0  0  0  0  0  0
   -4.0104    1.6980   -0.8638 C   0  0  0  0  0  0  0  0  0  0  0  0
   -4.6924    2.0007   -0.0746 H   0  0  0  0  0  0  0  0  0  0  0  0
   -2.7521    1.1797   -0.5408 C   0  0  0  0  0  0  0  0  0  0  0  0
   -2.4772    1.1133    0.5031 H   0  0  0  0  0  0  0  0  0  0  0  0
    0.1005   -0.3713    1.2008 C   0  0  0  0  0  0  0  0  0  0  0  0
    1.2972   -0.1998    1.3933 O   0  0  0  0  0  0  0  0  0  0  0  0
   -0.7977    0.1543    2.1113 N   0  0  0  0  0  0  0  0  0  0  0  0
   -1.7647   -0.1236    1.9824 H   0  0  0  0  0  0  0  0  0  0  0  0
   -0.3899    0.6555    3.4176 C   0  0  0  0  0  0  0  0  0  0  0  0
    0.3488    1.4567    3.3096 H   0  0  0  0  0  0  0  0  0  0  0  0
   -1.2546    1.0564    3.9547 H   0  0  0  0  0  0  0  0  0  0  0  0
    0.0493   -0.1505    4.0147 H   0  0  0  0  0  0  0  0  0  0  0  0
  1  2  1  0  0  0  0
  2  3  1  0  0  0  0
  2  4  1  0  0  0  0
  2  5  1  0  0  0  0
  5  6  2  0  0  0  0
  5  7  1  0  0  0  0
  7  8  1  0  0  0  0
  7  9  1  0  0  0  0
  9 10  1  0  0  0  0
  9 11  1  0  0  0  0
  9 25  1  0  0  0  0
 11 12  1  0  0  0  0
 11 13  1  0  0  0  0
 11 14  1  0  0  0  0
 14 15  1  0  0  0  0
 14 23  2  0  0  0  0
 15 16  1  0  0  0  0
 15 17  2  0  0  0  0
 17 18  1  0  0  0  0
 17 19  1  0  0  0  0
 19 20  1  0  0  0  0
 19 21  2  0  0  0  0
 21 22  1  0  0  0  0
 21 23  1  0  0  0  0
 23 24  1  0  0  0  0
 25 26  2  0  0  0  0
 25 27  1  0  0  0  0
 27 28  1  0  0  0  0
 27 29  1  0  0  0  0
 29 30  1  0  0  0  0
 29 31  1  0  0  0  0
 29 32  1  0  0  0  0
M  END
$$$$

  -OEChem-03222214073D

 32 32  0     1  0  0  0  0  0999 V2000
   -3.0204   -4.5356    0.9803 H   0  0  0  0  0  0  0  0  0  0  0  0
   -3.0491   -3.6343    0.3617 C   0  0  0  0  0  0  0  0  0  0  0  0
   -3.8767   -3.0046    0.6967 H   0  0  0  0  0  0  0  0  0  0  0  0
   -3.2186   -3.9264   -0.6774 H   0  0  0  0  0  0  0  0  0  0  0  0
   -1.7390   -2.8782    0.4800 C   0  0  0  0  0  0  0  0  0  0  0  0
   -0.8476   -3.3111    1.1882 O   0  0  0  0  0  0  0  0  0  0  0  0
   -1.5687   -1.6934   -0.2063 N   0  0  0  0  0  0  0  0  0  0  0  0
   -2.3414   -1.3733   -0.7867 H   0  0  0  0  0  0  0  0  0  0  0  0
   -0.3347   -0.8843   -0.2036 C   0  0  1  0  0  0  0  0  0  0  0  0
    0.4800   -1.5458   -0.5190 H   0  0  0  0  0  0  0  0  0  0  0  0
   -0.4117    0.2465   -1.2570 C   0  0  0  0  0  0  0  0  0  0  0  0
    0.2242    1.0816   -0.9431 H   0  0  0  0  0  0  0  0  0  0  0  0
    0.0148   -0.1363   -2.1895 H   0  0  0  0  0  0  0  0  0  0  0  0
   -1.8099    0.7683   -1.5345 C   0  0  0  0  0  0  0  0  0  0  0  0
   -2.3432    0.6785   -2.8305 C   0  0  0  0  0  0  0  0  0  0  0  0
   -1.7715    0.2099   -3.6267 H   0  0  0  0  0  0  0  0  0  0  0  0
   -3.6191    1.1763   -3.1152 C   0  0  0  0  0  0  0  0  0  0  0  0
   -4.0239    1.0883   -4.1194 H   0  0  0  0  0  0  0  0  0  0  0  0
   -4.3686    1.7949   -2.1115 C   0  0  0  0  0  0  0  0  0  0  0  0
   -5.3572    2.1871   -2.3328 H   0  0  0  0  0  0  0  0  0  0  0  0
   -3.8328    1.9290   -0.8282 C   0  0  0  0  0  0  0  0  0  0  0  0
   -4.4018    2.4353   -0.0534 H   0  0  0  0  0  0  0  0  0  0  0  0
   -2.5565    1.4302   -0.5465 C   0  0  0  0  0  0  0  0  0  0  0  0
   -2.1429    1.5869    0.4426 H   0  0  0  0  0  0  0  0  0  0  0  0
    0.1000   -0.3794    1.1898 C   0  0  0  0  0  0  0  0  0  0  0  0
    1.2912   -0.2259    1.4258 O   0  0  0  0  0  0  0  0  0  0  0  0
   -0.8252    0.1620    2.0635 N   0  0  0  0  0  0  0  0  0  0  0  0
   -1.7944   -0.0794    1.8833 H   0  0  0  0  0  0  0  0  0  0  0  0
   -0.4647    0.6620    3.3841 C   0  0  0  0  0  0  0  0  0  0  0  0
    0.2812    1.4596    3.3028 H   0  0  0  0  0  0  0  0  0  0  0  0
   -1.3469    1.0673    3.8883 H   0  0  0  0  0  0  0  0  0  0  0  0
   -0.0519   -0.1452    3.9983 H   0  0  0  0  0  0  0  0  0  0  0  0
  1  2  1  0  0  0  0
  2  3  1  0  0  0  0
  2  4  1  0  0  0  0
  2  5  1  0  0  0  0
  5  6  2  0  0  0  0
  5  7  1  0  0  0  0
  7  8  1  0  0  0  0
  7  9  1  0  0  0  0
  9 10  1  0  0  0  0
  9 11  1  0  0  0  0
  9 25  1  0  0  0  0
 11 12  1  0  0  0  0
 11 13  1  0  0  0  0
 11 14  1  0  0  0  0
 14 15  1  0  0  0  0
 14 23  2  0  0  0  0
 15 16  1  0  0  0  0
 15 17  2  0  0  0  0
 17 18  1  0  0  0  0
 17 19  1  0  0  0  0
 19 20  1  0  0  0  0
 19 21  2  0  0  0  0
 21 22  1  0  0  0  0
 21 23  1  0  0  0  0
 23 24  1  0  0  0  0
 25 26  2  0  0  0  0
 25 27  1  0  0  0  0
 27 28  1  0  0  0  0
 27 29  1  0  0  0  0
 29 30  1  0  0  0  0
 29 31  1  0  0  0  0
 29 32  1  0  0  0  0
M  END
$$$$

  -OEChem-03222214073D

 32 32  0     1  0  0  0  0  0999 V2000
   -3.0748   -4.4706    1.0037 H   0  0  0  0  0  0  0  0  0  0  0  0
   -3.0797   -3.5793    0.3696 C   0  0  0  0  0  0  0  0  0  0  0  0
   -3.8831   -2.9168    0.7004 H   0  0  0  0  0  0  0  0  0  0  0  0
   -3.2677   -3.8838   -0.6629 H   0  0  0  0  0  0  0  0  0  0  0  0
   -1.7451   -2.8641    0.4634 C   0  0  0  0  0  0  0  0  0  0  0  0
   -0.8612   -3.3153    1.1697 O   0  0  0  0  0  0  0  0  0  0  0  0
   -1.5416   -1.7001   -0.2492 N   0  0  0  0  0  0  0  0  0  0  0  0
   -2.3180   -1.3512   -0.8074 H   0  0  0  0  0  0  0  0  0  0  0  0
   -0.2956   -0.9083   -0.2361 C   0  0  1  0  0  0  0  0  0  0  0  0
    0.5233   -1.5727   -0.5337 H   0  0  0  0  0  0  0  0  0  0  0  0
   -0.3566    0.2383   -1.2728 C   0  0  0  0  0  0  0  0  0  0  0  0
    0.2932    1.0610   -0.9545 H   0  0  0  0  0  0  0  0  0  0  0  0
    0.0532   -0.1337   -2.2172 H   0  0  0  0  0  0  0  0  0  0  0  0
   -1.7558    0.7649   -1.5207 C   0  0  0  0  0  0  0  0  0  0  0  0
   -2.4392    0.4313   -2.7005 C   0  0  0  0  0  0  0  0  0  0  0  0
   -1.9705   -0.2117   -3.4401 H   0  0  0  0  0  0  0  0  0  0  0  0
   -3.7313    0.9142   -2.9350 C   0  0  0  0  0  0  0  0  0  0  0  0
   -4.2553    0.6456   -3.8479 H   0  0  0  0  0  0  0  0  0  0  0  0
   -4.3456    1.7510   -1.9989 C   0  0  0  0  0  0  0  0  0  0  0  0
   -5.3467    2.1309   -2.1826 H   0  0  0  0  0  0  0  0  0  0  0  0
   -3.6619    2.1133   -0.8349 C   0  0  0  0  0  0  0  0  0  0  0  0
   -4.1287    2.7814   -0.1166 H   0  0  0  0  0  0  0  0  0  0  0  0
   -2.3709    1.6284   -0.6018 C   0  0  0  0  0  0  0  0  0  0  0  0
   -1.8418    1.9420    0.2927 H   0  0  0  0  0  0  0  0  0  0  0  0
    0.0935   -0.3826    1.1628 C   0  0  0  0  0  0  0  0  0  0  0  0
    1.2755   -0.2486    1.4501 O   0  0  0  0  0  0  0  0  0  0  0  0
   -0.8617    0.1863    1.9861 N   0  0  0  0  0  0  0  0  0  0  0  0
   -1.8291   -0.0026    1.7435 H   0  0  0  0  0  0  0  0  0  0  0  0
   -0.5568    0.7063    3.3131 C   0  0  0  0  0  0  0  0  0  0  0  0
    0.2011    1.4946    3.2528 H   0  0  0  0  0  0  0  0  0  0  0  0
   -1.4566    1.1292    3.7698 H   0  0  0  0  0  0  0  0  0  0  0  0
   -0.1814   -0.0944    3.9591 H   0  0  0  0  0  0  0  0  0  0  0  0
  1  2  1  0  0  0  0
  2  3  1  0  0  0  0
  2  4  1  0  0  0  0
  2  5  1  0  0  0  0
  5  6  2  0  0  0  0
  5  7  1  0  0  0  0
  7  8  1  0  0  0  0
  7  9  1  0  0  0  0
  9 10  1  0  0  0  0
  9 11  1  0  0  0  0
  9 25  1  0  0  0  0
 11 12  1  0  0  0  0
 11 13  1  0  0  0  0
 11 14  1  0  0  0  0
 14 15  1  0  0  0  0
 14 23  2  0  0  0  0
 15 16  1  0  0  0  0
 15 17  2  0  0  0  0
 17 18  1  0  0  0  0
 17 19  1  0  0  0  0
 19 20  1  0  0  0  0
 19 21  2  0  0  0  0
 21 22  1  0  0  0  0
 21 23  1  0  0  0  0
 23 24  1  0  0  0  0
 25 26  2  0  0  0  0
 25 27  1  0  0  0  0
 27 28  1  0  0  0  0
 27 29  1  0  0  0  0
 29 30  1  0  0  0  0
 29 31  1  0  0  0  0
 29 32  1  0  0  0  0
M  END
$$$$

  -OEChem-03222214073D

 32 32  0     1  0  0  0  0  0999 V2000
   -3.1041   -4.4294    1.0434 H   0  0  0  0  0  0  0  0  0  0  0  0
   -3.0961   -3.5488    0.3946 C   0  0  0  0  0  0  0  0  0  0  0  0
   -3.8742   -2.8585    0.7288 H   0  0  0  0  0  0  0  0  0  0  0  0
   -3.3132   -3.8642   -0.6288 H   0  0  0  0  0  0  0  0  0  0  0  0
   -1.7401   -2.8708    0.4507 C   0  0  0  0  0  0  0  0  0  0  0  0
   -0.8547   -3.3370    1.1450 O   0  0  0  0  0  0  0  0  0  0  0  0
   -1.5197   -1.7228   -0.2827 N   0  0  0  0  0  0  0  0  0  0  0  0
   -2.3043   -1.3500   -0.8128 H   0  0  0  0  0  0  0  0  0  0  0  0
   -0.2700   -0.9369   -0.2635 C   0  0  1  0  0  0  0  0  0  0  0  0
    0.5556   -1.5983   -0.5491 H   0  0  0  0  0  0  0  0  0  0  0  0
   -0.3197    0.2270   -1.2812 C   0  0  0  0  0  0  0  0  0  0  0  0
    0.3448    1.0366   -0.9587 H   0  0  0  0  0  0  0  0  0  0  0  0
    0.0752   -0.1368   -2.2350 H   0  0  0  0  0  0  0  0  0  0  0  0
   -1.7137    0.7683   -1.5184 C   0  0  0  0  0  0  0  0  0  0  0  0
   -2.5271    0.2323   -2.5298 C   0  0  0  0  0  0  0  0  0  0  0  0
   -2.1487   -0.5590   -3.1713 H   0  0  0  0  0  0  0  0  0  0  0  0
   -3.8256    0.7140   -2.7256 C   0  0  0  0  0  0  0  0  0  0  0  0
   -4.4470    0.2986   -3.5139 H   0  0  0  0  0  0  0  0  0  0  0  0
   -4.3213    1.7374   -1.9122 C   0  0  0  0  0  0  0  0  0  0  0  0
   -5.3275    2.1164   -2.0670 H   0  0  0  0  0  0  0  0  0  0  0  0
   -3.5168    2.2800   -0.9056 C   0  0  0  0  0  0  0  0  0  0  0  0
   -3.8977    3.0803   -0.2775 H   0  0  0  0  0  0  0  0  0  0  0  0
   -2.2183    1.7979   -0.7113 C   0  0  0  0  0  0  0  0  0  0  0  0
   -1.5989    2.2295    0.0705 H   0  0  0  0  0  0  0  0  0  0  0  0
    0.0842   -0.3907    1.1368 C   0  0  0  0  0  0  0  0  0  0  0  0
    1.2575   -0.2622    1.4605 O   0  0  0  0  0  0  0  0  0  0  0  0
   -0.8945    0.1940    1.9210 N   0  0  0  0  0  0  0  0  0  0  0  0
   -1.8557    0.0467    1.6299 H   0  0  0  0  0  0  0  0  0  0  0  0
   -0.6307    0.7601    3.2375 C   0  0  0  0  0  0  0  0  0  0  0  0
    0.1160    1.5583    3.1697 H   0  0  0  0  0  0  0  0  0  0  0  0
   -1.5482    1.1823    3.6583 H   0  0  0  0  0  0  0  0  0  0  0  0
   -0.2593   -0.0132    3.9182 H   0  0  0  0  0  0  0  0  0  0  0  0
  1  2  1  0  0  0  0
  2  3  1  0  0  0  0
  2  4  1  0  0  0  0
  2  5  1  0  0  0  0
  5  6  2  0  0  0  0
  5  7  1  0  0  0  0
  7  8  1  0  0  0  0
  7  9  1  0  0  0  0
  9 10  1  0  0  0  0
  9 11  1  0  0  0  0
  9 25  1  0  0  0  0
 11 12  1  0  0  0  0
 11 13  1  0  0  0  0
 11 14  1  0  0  0  0
 14 15  1  0  0  0  0
 14 23  2  0  0  0  0
 15 16  1  0  0  0  0
 15 17  2  0  0  0  0
 17 18  1  0  0  0  0
 17 19  1  0  0  0  0
 19 20  1  0  0  0  0
 19 21  2  0  0  0  0
 21 22  1  0  0  0  0
 21 23  1  0  0  0  0
 23 24  1  0  0  0  0
 25 26  2  0  0  0  0
 25 27  1  0  0  0  0
 27 28  1  0  0  0  0
 27 29  1  0  0  0  0
 29 30  1  0  0  0  0
 29 31  1  0  0  0  0
 29 32  1  0  0  0  0
M  END
$$$$

  -OEChem-03222214073D

 32 32  0     1  0  0  0  0  0999 V2000
   -3.0502   -4.4541    1.1234 H   0  0  0  0  0  0  0  0  0  0  0  0
   -3.0640   -3.5816    0.4639 C   0  0  0  0  0  0  0  0  0  0  0  0
   -3.8230   -2.8821    0.8219 H   0  0  0  0  0  0  0  0  0  0  0  0
   -3.3247   -3.9081   -0.5457 H   0  0  0  0  0  0  0  0  0  0  0  0
   -1.7026   -2.9123    0.4567 C   0  0  0  0  0  0  0  0  0  0  0  0
   -0.7904   -3.3828    1.1126 O   0  0  0  0  0  0  0  0  0  0  0  0
   -1.5072   -1.7690   -0.2916 N   0  0  0  0  0  0  0  0  0  0  0  0
   -2.3212   -1.3774   -0.7586 H   0  0  0  0  0  0  0  0  0  0  0  0
   -0.2704   -0.9638   -0.2796 C   0  0  1  0  0  0  0  0  0  0  0  0
    0.5663   -1.6138   -0.5598 H   0  0  0  0  0  0  0  0  0  0  0  0
   -0.3188    0.2145   -1.2836 C   0  0  0  0  0  0  0  0  0  0  0  0
    0.3583    1.0117   -0.9565 H   0  0  0  0  0  0  0  0  0  0  0  0
    0.0721   -0.1460   -2.2403 H   0  0  0  0  0  0  0  0  0  0  0  0
   -1.7020    0.7797   -1.5400 C   0  0  0  0  0  0  0  0  0  0  0  0
   -2.6342    0.0993   -2.3427 C   0  0  0  0  0  0  0  0  0  0  0  0
   -2.3482   -0.8204   -2.8462 H   0  0  0  0  0  0  0  0  0  0  0  0
   -3.9251    0.6079   -2.5217 C   0  0  0  0  0  0  0  0  0  0  0  0
   -4.6345    0.0835   -3.1557 H   0  0  0  0  0  0  0  0  0  0  0  0
   -4.3004    1.7982   -1.8921 C   0  0  0  0  0  0  0  0  0  0  0  0
   -5.3012    2.1971   -2.0329 H   0  0  0  0  0  0  0  0  0  0  0  0
   -3.3839    2.4789   -1.0856 C   0  0  0  0  0  0  0  0  0  0  0  0
   -3.6733    3.4045   -0.5958 H   0  0  0  0  0  0  0  0  0  0  0  0
   -2.0929    1.9701   -0.9095 C   0  0  0  0  0  0  0  0  0  0  0  0
   -1.3920    2.5039   -0.2731 H   0  0  0  0  0  0  0  0  0  0  0  0
    0.0640   -0.4032    1.1198 C   0  0  0  0  0  0  0  0  0  0  0  0
    1.2316   -0.2629    1.4588 O   0  0  0  0  0  0  0  0  0  0  0  0
   -0.9319    0.1698    1.8910 N   0  0  0  0  0  0  0  0  0  0  0  0
   -1.8863    0.0597    1.5636 H   0  0  0  0  0  0  0  0  0  0  0  0
   -0.6893    0.7793    3.1916 C   0  0  0  0  0  0  0  0  0  0  0  0
    0.0339    1.5967    3.1031 H   0  0  0  0  0  0  0  0  0  0  0  0
   -1.6200    1.1852    3.5985 H   0  0  0  0  0  0  0  0  0  0  0  0
   -0.2978    0.0363    3.8944 H   0  0  0  0  0  0  0  0  0  0  0  0
  1  2  1  0  0  0  0
  2  3  1  0  0  0  0
  2  4  1  0  0  0  0
  2  5  1  0  0  0  0
  5  6  2  0  0  0  0
  5  7  1  0  0  0  0
  7  8  1  0  0  0  0
  7  9  1  0  0  0  0
  9 10  1  0  0  0  0
  9 11  1  0  0  0  0
  9 25  1  0  0  0  0
 11 12  1  0  0  0  0
 11 13  1  0  0  0  0
 11 14  1  0  0  0  0
 14 15  1  0  0  0  0
 14 23  2  0  0  0  0
 15 16  1  0  0  0  0
 15 17  2  0  0  0  0
 17 18  1  0  0  0  0
 17 19  1  0  0  0  0
 19 20  1  0  0  0  0
 19 21  2  0  0  0  0
 21 22  1  0  0  0  0
 21 23  1  0  0  0  0
 23 24  1  0  0  0  0
 25 26  2  0  0  0  0
 25 27  1  0  0  0  0
 27 28  1  0  0  0  0
 27 29  1  0  0  0  0
 29 30  1  0  0  0  0
 29 31  1  0  0  0  0
 29 32  1  0  0  0  0
M  END
$$$$

  -OEChem-03222214073D

 32 32  0     1  0  0  0  0  0999 V2000
   -2.9162   -4.5424    1.2239 H   0  0  0  0  0  0  0  0  0  0  0  0
   -2.9818   -3.6703    0.5669 C   0  0  0  0  0  0  0  0  0  0  0  0
   -3.7352   -2.9865    0.9651 H   0  0  0  0  0  0  0  0  0  0  0  0
   -3.2876   -4.0023   -0.4281 H   0  0  0  0  0  0  0  0  0  0  0  0
   -1.6364   -2.9737    0.4888 C   0  0  0  0  0  0  0  0  0  0  0  0
   -0.6820   -3.4273    1.0943 O   0  0  0  0  0  0  0  0  0  0  0  0
   -1.5028   -1.8273   -0.2694 N   0  0  0  0  0  0  0  0  0  0  0  0
   -2.3547   -1.4399   -0.6642 H   0  0  0  0  0  0  0  0  0  0  0  0
   -0.2949   -0.9811   -0.2825 C   0  0  1  0  0  0  0  0  0  0  0  0
    0.5559   -1.6111   -0.5660 H   0  0  0  0  0  0  0  0  0  0  0  0
   -0.3568    0.2030   -1.2838 C   0  0  0  0  0  0  0  0  0  0  0  0
    0.3281    0.9931   -0.9556 H   0  0  0  0  0  0  0  0  0  0  0  0
    0.0383   -0.1623   -2.2369 H   0  0  0  0  0  0  0  0  0  0  0  0
   -1.7255    0.7946   -1.5819 C   0  0  0  0  0  0  0  0  0  0  0  0
   -2.7746    0.0430   -2.1434 C   0  0  0  0  0  0  0  0  0  0  0  0
   -2.5984   -0.9733   -2.4835 H   0  0  0  0  0  0  0  0  0  0  0  0
   -4.0423    0.6052   -2.3271 C   0  0  0  0  0  0  0  0  0  0  0  0
   -4.8377    0.0215   -2.7817 H   0  0  0  0  0  0  0  0  0  0  0  0
   -4.2837    1.9253   -1.9391 C   0  0  0  0  0  0  0  0  0  0  0  0
   -5.2665    2.3654   -2.0827 H   0  0  0  0  0  0  0  0  0  0  0  0
   -3.2551    2.6820   -1.3730 C   0  0  0  0  0  0  0  0  0  0  0  0
   -3.4388    3.7087   -1.0696 H   0  0  0  0  0  0  0  0  0  0  0  0
   -1.9877    2.1183   -1.1943 C   0  0  0  0  0  0  0  0  0  0  0  0
   -1.2042    2.7183   -0.7398 H   0  0  0  0  0  0  0  0  0  0  0  0
    0.0376   -0.4097    1.1134 C   0  0  0  0  0  0  0  0  0  0  0  0
    1.2036   -0.2375    1.4427 O   0  0  0  0  0  0  0  0  0  0  0  0
   -0.9674    0.1277    1.8986 N   0  0  0  0  0  0  0  0  0  0  0  0
   -1.9203    0.0218    1.5663 H   0  0  0  0  0  0  0  0  0  0  0  0
   -0.7275    0.7616    3.1882 C   0  0  0  0  0  0  0  0  0  0  0  0
   -0.0586    1.6208    3.0735 H   0  0  0  0  0  0  0  0  0  0  0  0
   -1.6702    1.1123    3.6185 H   0  0  0  0  0  0  0  0  0  0  0  0
   -0.2720    0.0498    3.8847 H   0  0  0  0  0  0  0  0  0  0  0  0
  1  2  1  0  0  0  0
  2  3  1  0  0  0  0
  2  4  1  0  0  0  0
  2  5  1  0  0  0  0
  5  6  2  0  0  0  0
  5  7  1  0  0  0  0
  7  8  1  0  0  0  0
  7  9  1  0  0  0  0
  9 10  1  0  0  0  0
  9 11  1  0  0  0  0
  9 25  1  0  0  0  0
 11 12  1  0  0  0  0
 11 13  1  0  0  0  0
 11 14  1  0  0  0  0
 14 15  1  0  0  0  0
 14 23  2  0  0  0  0
 15 16  1  0  0  0  0
 15 17  2  0  0  0  0
 17 18  1  0  0  0  0
 17 19  1  0  0  0  0
 19 20  1  0  0  0  0
 19 21  2  0  0  0  0
 21 22  1  0  0  0  0
 21 23  1  0  0  0  0
 23 24  1  0  0  0  0
 25 26  2  0  0  0  0
 25 27  1  0  0  0  0
 27 28  1  0  0  0  0
 27 29  1  0  0  0  0
 29 30  1  0  0  0  0
 29 31  1  0  0  0  0
 29 32  1  0  0  0  0
M  END
$$$$

  -OEChem-03222214073D

 32 32  0     1  0  0  0  0  0999 V2000
   -2.7487   -4.6454    1.3150 H   0  0  0  0  0  0  0  0  0  0  0  0
   -2.8758   -3.7707    0.6707 C   0  0  0  0  0  0  0  0  0  0  0  0
   -3.6213   -3.1101    1.1195 H   0  0  0  0  0  0  0  0  0  0  0  0
   -3.2327   -4.1035   -0.3071 H   0  0  0  0  0  0  0  0  0  0  0  0
   -1.5552   -3.0390    0.5190 C   0  0  0  0  0  0  0  0  0  0  0  0
   -0.5556   -3.4727    1.0627 O   0  0  0  0  0  0  0  0  0  0  0  0
   -1.4963   -1.8855   -0.2390 N   0  0  0  0  0  0  0  0  0  0  0  0
   -2.3856   -1.5063   -0.5447 H   0  0  0  0  0  0  0  0  0  0  0  0
   -0.3261   -0.9909   -0.2806 C   0  0  1  0  0  0  0  0  0  0  0  0
    0.5389   -1.5955   -0.5766 H   0  0  0  0  0  0  0  0  0  0  0  0
   -0.4190    0.1957   -1.2821 C   0  0  0  0  0  0  0  0  0  0  0  0
    0.2641    0.9857   -0.9503 H   0  0  0  0  0  0  0  0  0  0  0  0
   -0.0148   -0.1703   -2.2310 H   0  0  0  0  0  0  0  0  0  0  0  0
   -1.7773    0.8045   -1.6213 C   0  0  0  0  0  0  0  0  0  0  0  0
   -2.9340    0.0578   -1.9242 C   0  0  0  0  0  0  0  0  0  0  0  0
   -2.8834   -1.0121   -2.0891 H   0  0  0  0  0  0  0  0  0  0  0  0
   -4.1694    0.6841   -2.1211 C   0  0  0  0  0  0  0  0  0  0  0  0
   -5.0452    0.0944   -2.3765 H   0  0  0  0  0  0  0  0  0  0  0  0
   -4.2764    2.0713   -2.0102 C   0  0  0  0  0  0  0  0  0  0  0  0
   -5.2343    2.5599   -2.1650 H   0  0  0  0  0  0  0  0  0  0  0  0
   -3.1437    2.8301   -1.7114 C   0  0  0  0  0  0  0  0  0  0  0  0
   -3.2202    3.9104   -1.6265 H   0  0  0  0  0  0  0  0  0  0  0  0
   -1.9100    2.2005   -1.5170 C   0  0  0  0  0  0  0  0  0  0  0  0
   -1.0485    2.8143   -1.2691 H   0  0  0  0  0  0  0  0  0  0  0  0
    0.0172   -0.4141    1.1109 C   0  0  0  0  0  0  0  0  0  0  0  0
    1.1837   -0.2061    1.4170 O   0  0  0  0  0  0  0  0  0  0  0  0
   -0.9879    0.0768    1.9256 N   0  0  0  0  0  0  0  0  0  0  0  0
   -1.9426   -0.0270    1.5992 H   0  0  0  0  0  0  0  0  0  0  0  0
   -0.7387    0.7280    3.2047 C   0  0  0  0  0  0  0  0  0  0  0  0
   -0.1409    1.6342    3.0630 H   0  0  0  0  0  0  0  0  0  0  0  0
   -1.6847    1.0077    3.6777 H   0  0  0  0  0  0  0  0  0  0  0  0
   -0.2011    0.0522    3.8781 H   0  0  0  0  0  0  0  0  0  0  0  0
  1  2  1  0  0  0  0
  2  3  1  0  0  0  0
  2  4  1  0  0  0  0
  2  5  1  0  0  0  0
  5  6  2  0  0  0  0
  5  7  1  0  0  0  0
  7  8  1  0  0  0  0
  7  9  1  0  0  0  0
  9 10  1  0  0  0  0
  9 11  1  0  0  0  0
  9 25  1  0  0  0  0
 11 12  1  0  0  0  0
 11 13  1  0  0  0  0
 11 14  1  0  0  0  0
 14 15  1  0  0  0  0
 14 23  2  0  0  0  0
 15 16  1  0  0  0  0
 15 17  2  0  0  0  0
 17 18  1  0  0  0  0
 17 19  1  0  0  0  0
 19 20  1  0  0  0  0
 19 21  2  0  0  0  0
 21 22  1  0  0  0  0
 21 23  1  0  0  0  0
 23 24  1  0  0  0  0
 25 26  2  0  0  0  0
 25 27  1  0  0  0  0
 27 28  1  0  0  0  0
 27 29  1  0  0  0  0
 29 30  1  0  0  0  0
 29 31  1  0  0  0  0
 29 32  1  0  0  0  0
M  END
$$$$

  -OEChem-03222214073D

 32 32  0     1  0  0  0  0  0999 V2000
   -2.3193   -4.8035    1.3446 H   0  0  0  0  0  0  0  0  0  0  0  0
   -2.5748   -3.9430    0.7196 C   0  0  0  0  0  0  0  0  0  0  0  0
   -3.3351   -3.3499    1.2331 H   0  0  0  0  0  0  0  0  0  0  0  0
   -2.9813   -4.3048   -0.2280 H   0  0  0  0  0  0  0  0  0  0  0  0
   -1.3391   -3.1004    0.4643 C   0  0  0  0  0  0  0  0  0  0  0  0
   -0.2579   -3.4666    0.8883 O   0  0  0  0  0  0  0  0  0  0  0  0
   -1.4501   -1.9252   -0.2536 N   0  0  0  0  0  0  0  0  0  0  0  0
   -2.3918   -1.6139   -0.4478 H   0  0  0  0  0  0  0  0  0  0  0  0
   -0.3612   -0.9425   -0.3824 C   0  0  1  0  0  0  0  0  0  0  0  0
    0.5092   -1.4792   -0.7772 H   0  0  0  0  0  0  0  0  0  0  0  0
   -0.6112    0.2611   -1.3374 C   0  0  0  0  0  0  0  0  0  0  0  0
    0.0595    1.0719   -1.0307 H   0  0  0  0  0  0  0  0  0  0  0  0
   -0.2575   -0.0634   -2.3209 H   0  0  0  0  0  0  0  0  0  0  0  0
   -2.0035    0.8454   -1.5930 C   0  0  0  0  0  0  0  0  0  0  0  0
   -3.2321    0.1494   -1.5641 C   0  0  0  0  0  0  0  0  0  0  0  0
   -3.2949   -0.9259   -1.5027 H   0  0  0  0  0  0  0  0  0  0  0  0
   -4.4504    0.8206   -1.7214 C   0  0  0  0  0  0  0  0  0  0  0  0
   -5.3834    0.2644   -1.7134 H   0  0  0  0  0  0  0  0  0  0  0  0
   -4.4738    2.2024   -1.9093 C   0  0  0  0  0  0  0  0  0  0  0  0
   -5.4193    2.7229   -2.0328 H   0  0  0  0  0  0  0  0  0  0  0  0
   -3.2741    2.9110   -1.9502 C   0  0  0  0  0  0  0  0  0  0  0  0
   -3.2821    3.9868   -2.1001 H   0  0  0  0  0  0  0  0  0  0  0  0
   -2.0591    2.2378   -1.7921 C   0  0  0  0  0  0  0  0  0  0  0  0
   -1.1428    2.8213   -1.8150 H   0  0  0  0  0  0  0  0  0  0  0  0
    0.0838   -0.3807    0.9875 C   0  0  0  0  0  0  0  0  0  0  0  0
    1.2585   -0.0948    1.1785 O   0  0  0  0  0  0  0  0  0  0  0  0
   -0.8608    0.0086    1.9214 N   0  0  0  0  0  0  0  0  0  0  0  0
   -1.8355   -0.1533    1.6927 H   0  0  0  0  0  0  0  0  0  0  0  0
   -0.5230    0.6551    3.1831 C   0  0  0  0  0  0  0  0  0  0  0  0
   -0.0146    1.6078    3.0017 H   0  0  0  0  0  0  0  0  0  0  0  0
   -1.4301    0.8515    3.7622 H   0  0  0  0  0  0  0  0  0  0  0  0
    0.1344    0.0120    3.7778 H   0  0  0  0  0  0  0  0  0  0  0  0
  1  2  1  0  0  0  0
  2  3  1  0  0  0  0
  2  4  1  0  0  0  0
  2  5  1  0  0  0  0
  5  6  2  0  0  0  0
  5  7  1  0  0  0  0
  7  8  1  0  0  0  0
  7  9  1  0  0  0  0
  9 10  1  0  0  0  0
  9 11  1  0  0  0  0
  9 25  1  0  0  0  0
 11 12  1  0  0  0  0
 11 13  1  0  0  0  0
 11 14  1  0  0  0  0
 14 15  1  0  0  0  0
 14 23  2  0  0  0  0
 15 16  1  0  0  0  0
 15 17  2  0  0  0  0
 17 18  1  0  0  0  0
 17 19  1  0  0  0  0
 19 20  1  0  0  0  0
 19 21  2  0  0  0  0
 21 22  1  0  0  0  0
 21 23  1  0  0  0  0
 23 24  1  0  0  0  0
 25 26  2  0  0  0  0
 25 27  1  0  0  0  0
 27 28  1  0  0  0  0
 27 29  1  0  0  0  0
 29 30  1  0  0  0  0
 29 31  1  0  0  0  0
 29 32  1  0  0  0  0
M  END
$$$$

  -OEChem-03222214073D

 32 32  0     1  0  0  0  0  0999 V2000
   -2.4843   -4.8919    1.1563 H   0  0  0  0  0  0  0  0  0  0  0  0
   -2.6549   -4.0277    0.5079 C   0  0  0  0  0  0  0  0  0  0  0  0
   -3.5896   -3.5457    0.8038 H   0  0  0  0  0  0  0  0  0  0  0  0
   -2.7418   -4.3756   -0.5242 H   0  0  0  0  0  0  0  0  0  0  0  0
   -1.5027   -3.0481    0.6312 C   0  0  0  0  0  0  0  0  0  0  0  0
   -0.5794   -3.2948    1.3853 O   0  0  0  0  0  0  0  0  0  0  0  0
   -1.5097   -1.8920   -0.1262 N   0  0  0  0  0  0  0  0  0  0  0  0
   -2.2162   -1.8444   -0.8539 H   0  0  0  0  0  0  0  0  0  0  0  0
   -0.3700   -0.9672   -0.2436 C   0  0  1  0  0  0  0  0  0  0  0  0
    0.4903   -1.5373   -0.6121 H   0  0  0  0  0  0  0  0  0  0  0  0
   -0.5999    0.2289   -1.2118 C   0  0  0  0  0  0  0  0  0  0  0  0
    0.0889    1.0307   -0.9203 H   0  0  0  0  0  0  0  0  0  0  0  0
   -0.2583   -0.1199   -2.1915 H   0  0  0  0  0  0  0  0  0  0  0  0
   -1.9708    0.8644   -1.4709 C   0  0  0  0  0  0  0  0  0  0  0  0
   -3.2472    0.3465   -1.1498 C   0  0  0  0  0  0  0  0  0  0  0  0
   -3.4054   -0.5765   -0.6158 H   0  0  0  0  0  0  0  0  0  0  0  0
   -4.4153    1.0398   -1.4881 C   0  0  0  0  0  0  0  0  0  0  0  0
   -5.3860    0.6290   -1.2255 H   0  0  0  0  0  0  0  0  0  0  0  0
   -4.3434    2.2612   -2.1567 C   0  0  0  0  0  0  0  0  0  0  0  0
   -5.2510    2.7979   -2.4177 H   0  0  0  0  0  0  0  0  0  0  0  0
   -3.0977    2.7913   -2.4867 C   0  0  0  0  0  0  0  0  0  0  0  0
   -3.0317    3.7424   -3.0075 H   0  0  0  0  0  0  0  0  0  0  0  0
   -1.9324    2.0979   -2.1478 C   0  0  0  0  0  0  0  0  0  0  0  0
   -0.9755    2.5333   -2.4229 H   0  0  0  0  0  0  0  0  0  0  0  0
    0.0579   -0.3720    1.1179 C   0  0  0  0  0  0  0  0  0  0  0  0
    1.2395   -0.1299    1.3291 O   0  0  0  0  0  0  0  0  0  0  0  0
   -0.8960    0.0992    2.0020 N   0  0  0  0  0  0  0  0  0  0  0  0
   -1.8625   -0.1296    1.7951 H   0  0  0  0  0  0  0  0  0  0  0  0
   -0.5670    0.7019    3.2866 C   0  0  0  0  0  0  0  0  0  0  0  0
    0.0715    1.5806    3.1469 H   0  0  0  0  0  0  0  0  0  0  0  0
   -1.4796    1.0181    3.8007 H   0  0  0  0  0  0  0  0  0  0  0  0
   -0.0415   -0.0187    3.9219 H   0  0  0  0  0  0  0  0  0  0  0  0
  1  2  1  0  0  0  0
  2  3  1  0  0  0  0
  2  4  1  0  0  0  0
  2  5  1  0  0  0  0
  5  6  2  0  0  0  0
  5  7  1  0  0  0  0
  7  8  1  0  0  0  0
  7  9  1  0  0  0  0
  9 10  1  0  0  0  0
  9 11  1  0  0  0  0
  9 25  1  0  0  0  0
 11 12  1  0  0  0  0
 11 13  1  0  0  0  0
 11 14  1  0  0  0  0
 14 15  1  0  0  0  0
 14 23  2  0  0  0  0
 15 16  1  0  0  0  0
 15 17  2  0  0  0  0
 17 18  1  0  0  0  0
 17 19  1  0  0  0  0
 19 20  1  0  0  0  0
 19 21  2  0  0  0  0
 21 22  1  0  0  0  0
 21 23  1  0  0  0  0
 23 24  1  0  0  0  0
 25 26  2  0  0  0  0
 25 27  1  0  0  0  0
 27 28  1  0  0  0  0
 27 29  1  0  0  0  0
 29 30  1  0  0  0  0
 29 31  1  0  0  0  0
 29 32  1  0  0  0  0
M  END
$$$$

  -OEChem-03222214073D

 32 32  0     1  0  0  0  0  0999 V2000
   -2.6738   -4.8062    1.1250 H   0  0  0  0  0  0  0  0  0  0  0  0
   -2.8025   -3.9274    0.4864 C   0  0  0  0  0  0  0  0  0  0  0  0
   -3.7078   -3.3989    0.7941 H   0  0  0  0  0  0  0  0  0  0  0  0
   -2.9157   -4.2591   -0.5484 H   0  0  0  0  0  0  0  0  0  0  0  0
   -1.5981   -3.0125    0.6090 C   0  0  0  0  0  0  0  0  0  0  0  0
   -0.6848   -3.3118    1.3562 O   0  0  0  0  0  0  0  0  0  0  0  0
   -1.5484   -1.8482   -0.1330 N   0  0  0  0  0  0  0  0  0  0  0  0
   -2.2775   -1.7266   -0.8310 H   0  0  0  0  0  0  0  0  0  0  0  0
   -0.3699   -0.9689   -0.2331 C   0  0  1  0  0  0  0  0  0  0  0  0
    0.4680   -1.5702   -0.6031 H   0  0  0  0  0  0  0  0  0  0  0  0
   -0.5627    0.2275   -1.2057 C   0  0  0  0  0  0  0  0  0  0  0  0
    0.1366    1.0205   -0.9157 H   0  0  0  0  0  0  0  0  0  0  0  0
   -0.2249   -0.1336   -2.1825 H   0  0  0  0  0  0  0  0  0  0  0  0
   -1.9225    0.8832   -1.4566 C   0  0  0  0  0  0  0  0  0  0  0  0
   -3.1613    0.5335   -0.8735 C   0  0  0  0  0  0  0  0  0  0  0  0
   -3.2551   -0.2012   -0.0871 H   0  0  0  0  0  0  0  0  0  0  0  0
   -4.3436    1.1848   -1.2423 C   0  0  0  0  0  0  0  0  0  0  0  0
   -5.2840    0.9123   -0.7718 H   0  0  0  0  0  0  0  0  0  0  0  0
   -4.3201    2.1948   -2.2042 C   0  0  0  0  0  0  0  0  0  0  0  0
   -5.2384    2.7003   -2.4888 H   0  0  0  0  0  0  0  0  0  0  0  0
   -3.1092    2.5585   -2.7924 C   0  0  0  0  0  0  0  0  0  0  0  0
   -3.0828    3.3462   -3.5399 H   0  0  0  0  0  0  0  0  0  0  0  0
   -1.9292    1.9076   -2.4203 C   0  0  0  0  0  0  0  0  0  0  0  0
   -0.9996    2.2042   -2.8982 H   0  0  0  0  0  0  0  0  0  0  0  0
    0.0828   -0.4013    1.1317 C   0  0  0  0  0  0  0  0  0  0  0  0
    1.2728   -0.2020    1.3393 O   0  0  0  0  0  0  0  0  0  0  0  0
   -0.8492    0.1036    2.0204 N   0  0  0  0  0  0  0  0  0  0  0  0
   -1.8216   -0.1108    1.8292 H   0  0  0  0  0  0  0  0  0  0  0  0
   -0.4915    0.6812    3.3090 C   0  0  0  0  0  0  0  0  0  0  0  0
    0.1881    1.5293    3.1745 H   0  0  0  0  0  0  0  0  0  0  0  0
   -1.3878    1.0373    3.8255 H   0  0  0  0  0  0  0  0  0  0  0  0
   -0.0008   -0.0677    3.9393 H   0  0  0  0  0  0  0  0  0  0  0  0
  1  2  1  0  0  0  0
  2  3  1  0  0  0  0
  2  4  1  0  0  0  0
  2  5  1  0  0  0  0
  5  6  2  0  0  0  0
  5  7  1  0  0  0  0
  7  8  1  0  0  0  0
  7  9  1  0  0  0  0
  9 10  1  0  0  0  0
  9 11  1  0  0  0  0
  9 25  1  0  0  0  0
 11 12  1  0  0  0  0
 11 13  1  0  0  0  0
 11 14  1  0  0  0  0
 14 15  1  0  0  0  0
 14 23  2  0  0  0  0
 15 16  1  0  0  0  0
 15 17  2  0  0  0  0
 17 18  1  0  0  0  0
 17 19  1  0  0  0  0
 19 20  1  0  0  0  0
 19 21  2  0  0  0  0
 21 22  1  0  0  0  0
 21 23  1  0  0  0  0
 23 24  1  0  0  0  0
 25 26  2  0  0  0  0
 25 27  1  0  0  0  0
 27 28  1  0  0  0  0
 27 29  1  0  0  0  0
 29 30  1  0  0  0  0
 29 31  1  0  0  0  0
 29 32  1  0  0  0  0
M  END
$$$$

  -OEChem-03222214073D

 32 32  0     1  0  0  0  0  0999 V2000
   -2.8098   -4.7164    1.0674 H   0  0  0  0  0  0  0  0  0  0  0  0
   -2.9041   -3.8267    0.4382 C   0  0  0  0  0  0  0  0  0  0  0  0
   -3.7892   -3.2678    0.7499 H   0  0  0  0  0  0  0  0  0  0  0  0
   -3.0269   -4.1429   -0.6004 H   0  0  0  0  0  0  0  0  0  0  0  0
   -1.6674   -2.9589    0.5732 C   0  0  0  0  0  0  0  0  0  0  0  0
   -0.7686   -3.2973    1.3216 O   0  0  0  0  0  0  0  0  0  0  0  0
   -1.5732   -1.7859   -0.1495 N   0  0  0  0  0  0  0  0  0  0  0  0
   -2.3137   -1.6008   -0.8220 H   0  0  0  0  0  0  0  0  0  0  0  0
   -0.3680   -0.9376   -0.2179 C   0  0  1  0  0  0  0  0  0  0  0  0
    0.4554   -1.5656   -0.5762 H   0  0  0  0  0  0  0  0  0  0  0  0
   -0.5164    0.2435   -1.2136 C   0  0  0  0  0  0  0  0  0  0  0  0
    0.1717    1.0424   -0.9149 H   0  0  0  0  0  0  0  0  0  0  0  0
   -0.1533   -0.1307   -2.1762 H   0  0  0  0  0  0  0  0  0  0  0  0
   -1.8778    0.8811   -1.4820 C   0  0  0  0  0  0  0  0  0  0  0  0
   -3.0332    0.7152   -0.6898 C   0  0  0  0  0  0  0  0  0  0  0  0
   -3.0115    0.1616    0.2398 H   0  0  0  0  0  0  0  0  0  0  0  0
   -4.2467    1.3122   -1.0496 C   0  0  0  0  0  0  0  0  0  0  0  0
   -5.1235    1.1850   -0.4211 H   0  0  0  0  0  0  0  0  0  0  0  0
   -4.3319    2.0852   -2.2086 C   0  0  0  0  0  0  0  0  0  0  0  0
   -5.2729    2.5503   -2.4876 H   0  0  0  0  0  0  0  0  0  0  0  0
   -3.1991    2.2663   -3.0031 C   0  0  0  0  0  0  0  0  0  0  0  0
   -3.2575    2.8711   -3.9034 H   0  0  0  0  0  0  0  0  0  0  0  0
   -1.9878    1.6696   -2.6400 C   0  0  0  0  0  0  0  0  0  0  0  0
   -1.1195    1.8217   -3.2750 H   0  0  0  0  0  0  0  0  0  0  0  0
    0.0969   -0.3921    1.1516 C   0  0  0  0  0  0  0  0  0  0  0  0
    1.2920   -0.2214    1.3543 O   0  0  0  0  0  0  0  0  0  0  0  0
   -0.8162    0.1361    2.0465 N   0  0  0  0  0  0  0  0  0  0  0  0
   -1.7892   -0.0957    1.8836 H   0  0  0  0  0  0  0  0  0  0  0  0
   -0.4321    0.6768    3.3441 C   0  0  0  0  0  0  0  0  0  0  0  0
    0.3077    1.4756    3.2253 H   0  0  0  0  0  0  0  0  0  0  0  0
   -1.3062    1.0927    3.8539 H   0  0  0  0  0  0  0  0  0  0  0  0
   -0.0026   -0.1104    3.9725 H   0  0  0  0  0  0  0  0  0  0  0  0
  1  2  1  0  0  0  0
  2  3  1  0  0  0  0
  2  4  1  0  0  0  0
  2  5  1  0  0  0  0
  5  6  2  0  0  0  0
  5  7  1  0  0  0  0
  7  8  1  0  0  0  0
  7  9  1  0  0  0  0
  9 10  1  0  0  0  0
  9 11  1  0  0  0  0
  9 25  1  0  0  0  0
 11 12  1  0  0  0  0
 11 13  1  0  0  0  0
 11 14  1  0  0  0  0
 14 15  1  0  0  0  0
 14 23  2  0  0  0  0
 15 16  1  0  0  0  0
 15 17  2  0  0  0  0
 17 18  1  0  0  0  0
 17 19  1  0  0  0  0
 19 20  1  0  0  0  0
 19 21  2  0  0  0  0
 21 22  1  0  0  0  0
 21 23  1  0  0  0  0
 23 24  1  0  0  0  0
 25 26  2  0  0  0  0
 25 27  1  0  0  0  0
 27 28  1  0  0  0  0
 27 29  1  0  0  0  0
 29 30  1  0  0  0  0
 29 31  1  0  0  0  0
 29 32  1  0  0  0  0
M  END
$$$$

  -OEChem-03222214073D

 32 32  0     1  0  0  0  0  0999 V2000
   -2.9460   -4.6228    0.9932 H   0  0  0  0  0  0  0  0  0  0  0  0
   -3.0020   -3.7224    0.3745 C   0  0  0  0  0  0  0  0  0  0  0  0
   -3.8681   -3.1341    0.6870 H   0  0  0  0  0  0  0  0  0  0  0  0
   -3.1290   -4.0206   -0.6690 H   0  0  0  0  0  0  0  0  0  0  0  0
   -1.7340   -2.9035    0.5283 C   0  0  0  0  0  0  0  0  0  0  0  0
   -0.8492   -3.2870    1.2720 O   0  0  0  0  0  0  0  0  0  0  0  0
   -1.5986   -1.7155   -0.1610 N   0  0  0  0  0  0  0  0  0  0  0  0
   -2.3466   -1.4649   -0.8041 H   0  0  0  0  0  0  0  0  0  0  0  0
   -0.3731   -0.8943   -0.1902 C   0  0  1  0  0  0  0  0  0  0  0  0
    0.4359   -1.5486   -0.5347 H   0  0  0  0  0  0  0  0  0  0  0  0
   -0.4722    0.2633   -1.2163 C   0  0  0  0  0  0  0  0  0  0  0  0
    0.1957    1.0734   -0.9036 H   0  0  0  0  0  0  0  0  0  0  0  0
   -0.0705   -0.1231   -2.1585 H   0  0  0  0  0  0  0  0  0  0  0  0
   -1.8393    0.8684   -1.5147 C   0  0  0  0  0  0  0  0  0  0  0  0
   -2.8936    0.9313   -0.5834 C   0  0  0  0  0  0  0  0  0  0  0  0
   -2.7626    0.5773    0.4310 H   0  0  0  0  0  0  0  0  0  0  0  0
   -4.1334    1.4768   -0.9341 C   0  0  0  0  0  0  0  0  0  0  0  0
   -4.9343    1.5250   -0.2020 H   0  0  0  0  0  0  0  0  0  0  0  0
   -4.3414    1.9711   -2.2233 C   0  0  0  0  0  0  0  0  0  0  0  0
   -5.3023    2.3976   -2.4965 H   0  0  0  0  0  0  0  0  0  0  0  0
   -3.3056    1.9239   -3.1581 C   0  0  0  0  0  0  0  0  0  0  0  0
   -3.4606    2.3127   -4.1608 H   0  0  0  0  0  0  0  0  0  0  0  0
   -2.0672    1.3788   -2.8038 C   0  0  0  0  0  0  0  0  0  0  0  0
   -1.2744    1.3542   -3.5460 H   0  0  0  0  0  0  0  0  0  0  0  0
    0.1071   -0.3815    1.1869 C   0  0  0  0  0  0  0  0  0  0  0  0
    1.3061   -0.2194    1.3739 O   0  0  0  0  0  0  0  0  0  0  0  0
   -0.7846    0.1564    2.0974 N   0  0  0  0  0  0  0  0  0  0  0  0
   -1.7545   -0.1121    1.9754 H   0  0  0  0  0  0  0  0  0  0  0  0
   -0.3671    0.6732    3.3946 C   0  0  0  0  0  0  0  0  0  0  0  0
    0.3640    1.4791    3.2703 H   0  0  0  0  0  0  0  0  0  0  0  0
   -1.2292    1.0729    3.9369 H   0  0  0  0  0  0  0  0  0  0  0  0
    0.0848   -0.1232    3.9953 H   0  0  0  0  0  0  0  0  0  0  0  0
  1  2  1  0  0  0  0
  2  3  1  0  0  0  0
  2  4  1  0  0  0  0
  2  5  1  0  0  0  0
  5  6  2  0  0  0  0
  5  7  1  0  0  0  0
  7  8  1  0  0  0  0
  7  9  1  0  0  0  0
  9 10  1  0  0  0  0
  9 11  1  0  0  0  0
  9 25  1  0  0  0  0
 11 12  1  0  0  0  0
 11 13  1  0  0  0  0
 11 14  1  0  0  0  0
 14 15  1  0  0  0  0
 14 23  2  0  0  0  0
 15 16  1  0  0  0  0
 15 17  2  0  0  0  0
 17 18  1  0  0  0  0
 17 19  1  0  0  0  0
 19 20  1  0  0  0  0
 19 21  2  0  0  0  0
 21 22  1  0  0  0  0
 21 23  1  0  0  0  0
 23 24  1  0  0  0  0
 25 26  2  0  0  0  0
 25 27  1  0  0  0  0
 27 28  1  0  0  0  0
 27 29  1  0  0  0  0
 29 30  1  0  0  0  0
 29 31  1  0  0  0  0
 29 32  1  0  0  0  0
M  END
$$$$

  -OEChem-03222214073D

 32 32  0     1  0  0  0  0  0999 V2000
   -3.0588   -4.5201    0.9376 H   0  0  0  0  0  0  0  0  0  0  0  0
   -3.0817   -3.6112    0.3298 C   0  0  0  0  0  0  0  0  0  0  0  0
   -3.9196   -2.9907    0.6561 H   0  0  0  0  0  0  0  0  0  0  0  0
   -3.2295   -3.8914   -0.7159 H   0  0  0  0  0  0  0  0  0  0  0  0
   -1.7793   -2.8483    0.4821 C   0  0  0  0  0  0  0  0  0  0  0  0
   -0.8988   -3.2832    1.2028 O   0  0  0  0  0  0  0  0  0  0  0  0
   -1.6063   -1.6518   -0.1828 N   0  0  0  0  0  0  0  0  0  0  0  0
   -2.3635   -1.3401   -0.7875 H   0  0  0  0  0  0  0  0  0  0  0  0
   -0.3632   -0.8582   -0.1821 C   0  0  1  0  0  0  0  0  0  0  0  0
    0.4332   -1.5334   -0.5154 H   0  0  0  0  0  0  0  0  0  0  0  0
   -0.4211    0.2822   -1.2282 C   0  0  0  0  0  0  0  0  0  0  0  0
    0.2358    1.0975   -0.9063 H   0  0  0  0  0  0  0  0  0  0  0  0
    0.0047   -0.1119   -2.1563 H   0  0  0  0  0  0  0  0  0  0  0  0
   -1.7923    0.8657   -1.5392 C   0  0  0  0  0  0  0  0  0  0  0  0
   -2.7250    1.1978   -0.5409 C   0  0  0  0  0  0  0  0  0  0  0  0
   -2.4726    1.0987    0.5060 H   0  0  0  0  0  0  0  0  0  0  0  0
   -3.9910    1.6905   -0.8743 C   0  0  0  0  0  0  0  0  0  0  0  0
   -4.6969    1.9511   -0.0911 H   0  0  0  0  0  0  0  0  0  0  0  0
   -4.3458    1.8589   -2.2144 C   0  0  0  0  0  0  0  0  0  0  0  0
   -5.3273    2.2448   -2.4751 H   0  0  0  0  0  0  0  0  0  0  0  0
   -3.4299    1.5386   -3.2187 C   0  0  0  0  0  0  0  0  0  0  0  0
   -3.6991    1.6736   -4.2622 H   0  0  0  0  0  0  0  0  0  0  0  0
   -2.1646    1.0467   -2.8818 C   0  0  0  0  0  0  0  0  0  0  0  0
   -1.4688    0.8030   -3.6793 H   0  0  0  0  0  0  0  0  0  0  0  0
    0.1168   -0.3770    1.2060 C   0  0  0  0  0  0  0  0  0  0  0  0
    1.3173   -0.2424    1.4041 O   0  0  0  0  0  0  0  0  0  0  0  0
   -0.7694    0.1668    2.1177 N   0  0  0  0  0  0  0  0  0  0  0  0
   -1.7431   -0.0840    1.9841 H   0  0  0  0  0  0  0  0  0  0  0  0
   -0.3524    0.6496    3.4283 C   0  0  0  0  0  0  0  0  0  0  0  0
    0.4113    1.4281    3.3268 H   0  0  0  0  0  0  0  0  0  0  0  0
   -1.2067    1.0755    3.9630 H   0  0  0  0  0  0  0  0  0  0  0  0
    0.0589   -0.1720    4.0246 H   0  0  0  0  0  0  0  0  0  0  0  0
  1  2  1  0  0  0  0
  2  3  1  0  0  0  0
  2  4  1  0  0  0  0
  2  5  1  0  0  0  0
  5  6  2  0  0  0  0
  5  7  1  0  0  0  0
  7  8  1  0  0  0  0
  7  9  1  0  0  0  0
  9 10  1  0  0  0  0
  9 11  1  0  0  0  0
  9 25  1  0  0  0  0
 11 12  1  0  0  0  0
 11 13  1  0  0  0  0
 11 14  1  0  0  0  0
 14 15  1  0  0  0  0
 14 23  2  0  0  0  0
 15 16  1  0  0  0  0
 15 17  2  0  0  0  0
 17 18  1  0  0  0  0
 17 19  1  0  0  0  0
 19 20  1  0  0  0  0
 19 21  2  0  0  0  0
 21 22  1  0  0  0  0
 21 23  1  0  0  0  0
 23 24  1  0  0  0  0
 25 26  2  0  0  0  0
 25 27  1  0  0  0  0
 27 28  1  0  0  0  0
 27 29  1  0  0  0  0
 29 30  1  0  0  0  0
 29 31  1  0  0  0  0
 29 32  1  0  0  0  0
M  END
$$$$

  -OEChem-03222214073D

 32 32  0     1  0  0  0  0  0999 V2000
   -3.1408   -4.4300    0.9170 H   0  0  0  0  0  0  0  0  0  0  0  0
   -3.1312   -3.5244    0.3037 C   0  0  0  0  0  0  0  0  0  0  0  0
   -3.9413   -2.8687    0.6310 H   0  0  0  0  0  0  0  0  0  0  0  0
   -3.2969   -3.8046   -0.7393 H   0  0  0  0  0  0  0  0  0  0  0  0
   -1.7984   -2.8130    0.4429 C   0  0  0  0  0  0  0  0  0  0  0  0
   -0.9288   -3.2808    1.1562 O   0  0  0  0  0  0  0  0  0  0  0  0
   -1.5834   -1.6282   -0.2304 N   0  0  0  0  0  0  0  0  0  0  0  0
   -2.3418   -1.2755   -0.8109 H   0  0  0  0  0  0  0  0  0  0  0  0
   -0.3256   -0.8573   -0.2063 C   0  0  1  0  0  0  0  0  0  0  0  0
    0.4712   -1.5432   -0.5161 H   0  0  0  0  0  0  0  0  0  0  0  0
   -0.3518    0.2810   -1.2549 C   0  0  0  0  0  0  0  0  0  0  0  0
    0.3046    1.0935   -0.9247 H   0  0  0  0  0  0  0  0  0  0  0  0
    0.0799   -0.1096   -2.1819 H   0  0  0  0  0  0  0  0  0  0  0  0
   -1.7264    0.8532   -1.5557 C   0  0  0  0  0  0  0  0  0  0  0  0
   -2.5119    1.4533   -0.5581 C   0  0  0  0  0  0  0  0  0  0  0  0
   -2.1151    1.6003    0.4389 H   0  0  0  0  0  0  0  0  0  0  0  0
   -3.8032    1.9105   -0.8409 C   0  0  0  0  0  0  0  0  0  0  0  0
   -4.3946    2.3853   -0.0630 H   0  0  0  0  0  0  0  0  0  0  0  0
   -4.3289    1.7681   -2.1275 C   0  0  0  0  0  0  0  0  0  0  0  0
   -5.3301    2.1264   -2.3496 H   0  0  0  0  0  0  0  0  0  0  0  0
   -3.5592    1.1731   -3.1305 C   0  0  0  0  0  0  0  0  0  0  0  0
   -3.9633    1.0655   -4.1331 H   0  0  0  0  0  0  0  0  0  0  0  0
   -2.2677    0.7178   -2.8448 C   0  0  0  0  0  0  0  0  0  0  0  0
   -1.6878    0.2517   -3.6363 H   0  0  0  0  0  0  0  0  0  0  0  0
    0.1102   -0.3765    1.1959 C   0  0  0  0  0  0  0  0  0  0  0  0
    1.3032   -0.2608    1.4441 O   0  0  0  0  0  0  0  0  0  0  0  0
   -0.8053    0.1865    2.0662 N   0  0  0  0  0  0  0  0  0  0  0  0
   -1.7797   -0.0247    1.8770 H   0  0  0  0  0  0  0  0  0  0  0  0
   -0.4404    0.6658    3.3933 C   0  0  0  0  0  0  0  0  0  0  0  0
    0.3320    1.4392    3.3243 H   0  0  0  0  0  0  0  0  0  0  0  0
   -1.3134    1.0964    3.8928 H   0  0  0  0  0  0  0  0  0  0  0  0
   -0.0596   -0.1588    4.0051 H   0  0  0  0  0  0  0  0  0  0  0  0
  1  2  1  0  0  0  0
  2  3  1  0  0  0  0
  2  4  1  0  0  0  0
  2  5  1  0  0  0  0
  5  6  2  0  0  0  0
  5  7  1  0  0  0  0
  7  8  1  0  0  0  0
  7  9  1  0  0  0  0
  9 10  1  0  0  0  0
  9 11  1  0  0  0  0
  9 25  1  0  0  0  0
 11 12  1  0  0  0  0
 11 13  1  0  0  0  0
 11 14  1  0  0  0  0
 14 15  1  0  0  0  0
 14 23  2  0  0  0  0
 15 16  1  0  0  0  0
 15 17  2  0  0  0  0
 17 18  1  0  0  0  0
 17 19  1  0  0  0  0
 19 20  1  0  0  0  0
 19 21  2  0  0  0  0
 21 22  1  0  0  0  0
 21 23  1  0  0  0  0
 23 24  1  0  0  0  0
 25 26  2  0  0  0  0
 25 27  1  0  0  0  0
 27 28  1  0  0  0  0
 27 29  1  0  0  0  0
 29 30  1  0  0  0  0
 29 31  1  0  0  0  0
 29 32  1  0  0  0  0
M  END
$$$$

  -OEChem-03222214073D

 32 32  0     1  0  0  0  0  0999 V2000
   -3.1662   -4.3899    0.9456 H   0  0  0  0  0  0  0  0  0  0  0  0
   -3.1397   -3.4964    0.3151 C   0  0  0  0  0  0  0  0  0  0  0  0
   -3.9293   -2.8139    0.6379 H   0  0  0  0  0  0  0  0  0  0  0  0
   -3.3227   -3.7914   -0.7210 H   0  0  0  0  0  0  0  0  0  0  0  0
   -1.7880   -2.8174    0.4286 C   0  0  0  0  0  0  0  0  0  0  0  0
   -0.9274   -3.2899    1.1495 O   0  0  0  0  0  0  0  0  0  0  0  0
   -1.5461   -1.6570   -0.2775 N   0  0  0  0  0  0  0  0  0  0  0  0
   -2.3057   -1.2889   -0.8464 H   0  0  0  0  0  0  0  0  0  0  0  0
   -0.2841   -0.8921   -0.2419 C   0  0  1  0  0  0  0  0  0  0  0  0
    0.5250   -1.5741   -0.5263 H   0  0  0  0  0  0  0  0  0  0  0  0
   -0.3023    0.2552   -1.2797 C   0  0  0  0  0  0  0  0  0  0  0  0
    0.3580    1.0645   -0.9485 H   0  0  0  0  0  0  0  0  0  0  0  0
    0.1171   -0.1259   -2.2163 H   0  0  0  0  0  0  0  0  0  0  0  0
   -1.6841    0.8132   -1.5554 C   0  0  0  0  0  0  0  0  0  0  0  0
   -2.3188    1.6541   -0.6287 C   0  0  0  0  0  0  0  0  0  0  0  0
   -1.7971    1.9688    0.2698 H   0  0  0  0  0  0  0  0  0  0  0  0
   -3.6179    2.1175   -0.8607 C   0  0  0  0  0  0  0  0  0  0  0  0
   -4.0962    2.7753   -0.1407 H   0  0  0  0  0  0  0  0  0  0  0  0
   -4.2969    1.7425   -2.0234 C   0  0  0  0  0  0  0  0  0  0  0  0
   -5.3045    2.1052   -2.2061 H   0  0  0  0  0  0  0  0  0  0  0  0
   -3.6732    0.9081   -2.9554 C   0  0  0  0  0  0  0  0  0  0  0  0
   -4.1970    0.6219   -3.8631 H   0  0  0  0  0  0  0  0  0  0  0  0
   -2.3739    0.4453   -2.7214 C   0  0  0  0  0  0  0  0  0  0  0  0
   -1.9024   -0.2056   -3.4523 H   0  0  0  0  0  0  0  0  0  0  0  0
    0.0936   -0.3766    1.1637 C   0  0  0  0  0  0  0  0  0  0  0  0
    1.2736   -0.2686    1.4699 O   0  0  0  0  0  0  0  0  0  0  0  0
   -0.8622    0.2115    1.9725 N   0  0  0  0  0  0  0  0  0  0  0  0
   -1.8295    0.0399    1.7169 H   0  0  0  0  0  0  0  0  0  0  0  0
   -0.5661    0.7247    3.3038 C   0  0  0  0  0  0  0  0  0  0  0  0
    0.2045    1.5012    3.2540 H   0  0  0  0  0  0  0  0  0  0  0  0
   -1.4650    1.1607    3.7498 H   0  0  0  0  0  0  0  0  0  0  0  0
   -0.2115   -0.0829    3.9527 H   0  0  0  0  0  0  0  0  0  0  0  0
  1  2  1  0  0  0  0
  2  3  1  0  0  0  0
  2  4  1  0  0  0  0
  2  5  1  0  0  0  0
  5  6  2  0  0  0  0
  5  7  1  0  0  0  0
  7  8  1  0  0  0  0
  7  9  1  0  0  0  0
  9 10  1  0  0  0  0
  9 11  1  0  0  0  0
  9 25  1  0  0  0  0
 11 12  1  0  0  0  0
 11 13  1  0  0  0  0
 11 14  1  0  0  0  0
 14 15  1  0  0  0  0
 14 23  2  0  0  0  0
 15 16  1  0  0  0  0
 15 17  2  0  0  0  0
 17 18  1  0  0  0  0
 17 19  1  0  0  0  0
 19 20  1  0  0  0  0
 19 21  2  0  0  0  0
 21 22  1  0  0  0  0
 21 23  1  0  0  0  0
 23 24  1  0  0  0  0
 25 26  2  0  0  0  0
 25 27  1  0  0  0  0
 27 28  1  0  0  0  0
 27 29  1  0  0  0  0
 29 30  1  0  0  0  0
 29 31  1  0  0  0  0
 29 32  1  0  0  0  0
M  END
$$$$

  -OEChem-03222214073D

 32 32  0     1  0  0  0  0  0999 V2000
   -3.1301   -4.4110    1.0196 H   0  0  0  0  0  0  0  0  0  0  0  0
   -3.1124   -3.5304    0.3711 C   0  0  0  0  0  0  0  0  0  0  0  0
   -3.8896   -2.8364    0.6995 H   0  0  0  0  0  0  0  0  0  0  0  0
   -3.3220   -3.8448   -0.6541 H   0  0  0  0  0  0  0  0  0  0  0  0
   -1.7535   -2.8590    0.4396 C   0  0  0  0  0  0  0  0  0  0  0  0
   -0.8785   -3.3273    1.1457 O   0  0  0  0  0  0  0  0  0  0  0  0
   -1.5176   -1.7160   -0.2970 N   0  0  0  0  0  0  0  0  0  0  0  0
   -2.2943   -1.3402   -0.8363 H   0  0  0  0  0  0  0  0  0  0  0  0
   -0.2635   -0.9374   -0.2658 C   0  0  1  0  0  0  0  0  0  0  0  0
    0.5617   -1.6042   -0.5389 H   0  0  0  0  0  0  0  0  0  0  0  0
   -0.2967    0.2247   -1.2862 C   0  0  0  0  0  0  0  0  0  0  0  0
    0.3691    1.0311   -0.9591 H   0  0  0  0  0  0  0  0  0  0  0  0
    0.1061   -0.1431   -2.2352 H   0  0  0  0  0  0  0  0  0  0  0  0
   -1.6863    0.7717   -1.5370 C   0  0  0  0  0  0  0  0  0  0  0  0
   -2.1851    1.8217   -0.7526 C   0  0  0  0  0  0  0  0  0  0  0  0
   -1.5706    2.2534    0.0330 H   0  0  0  0  0  0  0  0  0  0  0  0
   -3.4724    2.3227   -0.9731 C   0  0  0  0  0  0  0  0  0  0  0  0
   -3.8503    3.1362   -0.3602 H   0  0  0  0  0  0  0  0  0  0  0  0
   -4.2691    1.7831   -1.9876 C   0  0  0  0  0  0  0  0  0  0  0  0
   -5.2666    2.1765   -2.1623 H   0  0  0  0  0  0  0  0  0  0  0  0
   -3.7754    0.7459   -2.7846 C   0  0  0  0  0  0  0  0  0  0  0  0
   -4.3891    0.3354   -3.5815 H   0  0  0  0  0  0  0  0  0  0  0  0
   -2.4884    0.2448   -2.5620 C   0  0  0  0  0  0  0  0  0  0  0  0
   -2.1102   -0.5548   -3.1928 H   0  0  0  0  0  0  0  0  0  0  0  0
    0.0774   -0.3858    1.1351 C   0  0  0  0  0  0  0  0  0  0  0  0
    1.2472   -0.2667    1.4743 O   0  0  0  0  0  0  0  0  0  0  0  0
   -0.9068    0.2092    1.9038 N   0  0  0  0  0  0  0  0  0  0  0  0
   -1.8650    0.0770    1.5959 H   0  0  0  0  0  0  0  0  0  0  0  0
   -0.6549    0.7790    3.2208 C   0  0  0  0  0  0  0  0  0  0  0  0
    0.0959    1.5738    3.1580 H   0  0  0  0  0  0  0  0  0  0  0  0
   -1.5751    1.2056    3.6311 H   0  0  0  0  0  0  0  0  0  0  0  0
   -0.2929    0.0061    3.9069 H   0  0  0  0  0  0  0  0  0  0  0  0
  1  2  1  0  0  0  0
  2  3  1  0  0  0  0
  2  4  1  0  0  0  0
  2  5  1  0  0  0  0
  5  6  2  0  0  0  0
  5  7  1  0  0  0  0
  7  8  1  0  0  0  0
  7  9  1  0  0  0  0
  9 10  1  0  0  0  0
  9 11  1  0  0  0  0
  9 25  1  0  0  0  0
 11 12  1  0  0  0  0
 11 13  1  0  0  0  0
 11 14  1  0  0  0  0
 14 15  1  0  0  0  0
 14 23  2  0  0  0  0
 15 16  1  0  0  0  0
 15 17  2  0  0  0  0
 17 18  1  0  0  0  0
 17 19  1  0  0  0  0
 19 20  1  0  0  0  0
 19 21  2  0  0  0  0
 21 22  1  0  0  0  0
 21 23  1  0  0  0  0
 23 24  1  0  0  0  0
 25 26  2  0  0  0  0
 25 27  1  0  0  0  0
 27 28  1  0  0  0  0
 27 29  1  0  0  0  0
 29 30  1  0  0  0  0
 29 31  1  0  0  0  0
 29 32  1  0  0  0  0
M  END
$$$$

  -OEChem-03222214073D

 32 32  0     1  0  0  0  0  0999 V2000
   -3.0479   -4.4661    1.1197 H   0  0  0  0  0  0  0  0  0  0  0  0
   -3.0628   -3.5916    0.4629 C   0  0  0  0  0  0  0  0  0  0  0  0
   -3.8289   -2.8980    0.8177 H   0  0  0  0  0  0  0  0  0  0  0  0
   -3.3140   -3.9162   -0.5498 H   0  0  0  0  0  0  0  0  0  0  0  0
   -1.7057   -2.9138    0.4675 C   0  0  0  0  0  0  0  0  0  0  0  0
   -0.7965   -3.3783    1.1317 O   0  0  0  0  0  0  0  0  0  0  0  0
   -1.5103   -1.7713   -0.2821 N   0  0  0  0  0  0  0  0  0  0  0  0
   -2.3202   -1.3883   -0.7632 H   0  0  0  0  0  0  0  0  0  0  0  0
   -0.2733   -0.9662   -0.2719 C   0  0  1  0  0  0  0  0  0  0  0  0
    0.5630   -1.6158   -0.5533 H   0  0  0  0  0  0  0  0  0  0  0  0
   -0.3297    0.2078   -1.2791 C   0  0  0  0  0  0  0  0  0  0  0  0
    0.3420    1.0111   -0.9559 H   0  0  0  0  0  0  0  0  0  0  0  0
    0.0603   -0.1514   -2.2368 H   0  0  0  0  0  0  0  0  0  0  0  0
   -1.7211    0.7569   -1.5225 C   0  0  0  0  0  0  0  0  0  0  0  0
   -2.0995    1.9814   -0.9527 C   0  0  0  0  0  0  0  0  0  0  0  0
   -1.4102    2.5150   -0.3037 H   0  0  0  0  0  0  0  0  0  0  0  0
   -3.3654    2.5219   -1.2022 C   0  0  0  0  0  0  0  0  0  0  0  0
   -3.6509    3.4665   -0.7478 H   0  0  0  0  0  0  0  0  0  0  0  0
   -4.2584    1.8529   -2.0441 C   0  0  0  0  0  0  0  0  0  0  0  0
   -5.2392    2.2763   -2.2419 H   0  0  0  0  0  0  0  0  0  0  0  0
   -3.8796    0.6495   -2.6458 C   0  0  0  0  0  0  0  0  0  0  0  0
   -4.5646    0.1418   -3.3188 H   0  0  0  0  0  0  0  0  0  0  0  0
   -2.6133    0.1103   -2.3950 C   0  0  0  0  0  0  0  0  0  0  0  0
   -2.3175   -0.8099   -2.8917 H   0  0  0  0  0  0  0  0  0  0  0  0
    0.0649   -0.4023    1.1252 C   0  0  0  0  0  0  0  0  0  0  0  0
    1.2337   -0.2601    1.4593 O   0  0  0  0  0  0  0  0  0  0  0  0
   -0.9285    0.1731    1.8976 N   0  0  0  0  0  0  0  0  0  0  0  0
   -1.8844    0.0563    1.5770 H   0  0  0  0  0  0  0  0  0  0  0  0
   -0.6809    0.7871    3.1954 C   0  0  0  0  0  0  0  0  0  0  0  0
    0.0292    1.6152    3.0986 H   0  0  0  0  0  0  0  0  0  0  0  0
   -1.6135    1.1791    3.6125 H   0  0  0  0  0  0  0  0  0  0  0  0
   -0.2703    0.0500    3.8937 H   0  0  0  0  0  0  0  0  0  0  0  0
  1  2  1  0  0  0  0
  2  3  1  0  0  0  0
  2  4  1  0  0  0  0
  2  5  1  0  0  0  0
  5  6  2  0  0  0  0
  5  7  1  0  0  0  0
  7  8  1  0  0  0  0
  7  9  1  0  0  0  0
  9 10  1  0  0  0  0
  9 11  1  0  0  0  0
  9 25  1  0  0  0  0
 11 12  1  0  0  0  0
 11 13  1  0  0  0  0
 11 14  1  0  0  0  0
 14 15  1  0  0  0  0
 14 23  2  0  0  0  0
 15 16  1  0  0  0  0
 15 17  2  0  0  0  0
 17 18  1  0  0  0  0
 17 19  1  0  0  0  0
 19 20  1  0  0  0  0
 19 21  2  0  0  0  0
 21 22  1  0  0  0  0
 21 23  1  0  0  0  0
 23 24  1  0  0  0  0
 25 26  2  0  0  0  0
 25 27  1  0  0  0  0
 27 28  1  0  0  0  0
 27 29  1  0  0  0  0
 29 30  1  0  0  0  0
 29 31  1  0  0  0  0
 29 32  1  0  0  0  0
M  END
$$$$

  -OEChem-03222214073D

 32 32  0     1  0  0  0  0  0999 V2000
   -2.9363   -4.5339    1.2319 H   0  0  0  0  0  0  0  0  0  0  0  0
   -2.9979   -3.6613    0.5751 C   0  0  0  0  0  0  0  0  0  0  0  0
   -3.7540   -2.9779    0.9687 H   0  0  0  0  0  0  0  0  0  0  0  0
   -3.2978   -3.9920   -0.4221 H   0  0  0  0  0  0  0  0  0  0  0  0
   -1.6522   -2.9641    0.5064 C   0  0  0  0  0  0  0  0  0  0  0  0
   -0.6999   -3.4199    1.1135 O   0  0  0  0  0  0  0  0  0  0  0  0
   -1.5152   -1.8141   -0.2455 N   0  0  0  0  0  0  0  0  0  0  0  0
   -2.3623   -1.4286   -0.6533 H   0  0  0  0  0  0  0  0  0  0  0  0
   -0.3011   -0.9759   -0.2668 C   0  0  1  0  0  0  0  0  0  0  0  0
    0.5426   -1.6073   -0.5677 H   0  0  0  0  0  0  0  0  0  0  0  0
   -0.3872    0.2062   -1.2655 C   0  0  0  0  0  0  0  0  0  0  0  0
    0.2907    1.0059   -0.9463 H   0  0  0  0  0  0  0  0  0  0  0  0
   -0.0075   -0.1489   -2.2288 H   0  0  0  0  0  0  0  0  0  0  0  0
   -1.7761    0.7673   -1.5133 C   0  0  0  0  0  0  0  0  0  0  0  0
   -2.0412    2.1122   -1.2117 C   0  0  0  0  0  0  0  0  0  0  0  0
   -1.2836    2.7200   -0.7246 H   0  0  0  0  0  0  0  0  0  0  0  0
   -3.2823    2.6840   -1.5113 C   0  0  0  0  0  0  0  0  0  0  0  0
   -3.4792    3.7204   -1.2514 H   0  0  0  0  0  0  0  0  0  0  0  0
   -4.2631    1.9272   -2.1571 C   0  0  0  0  0  0  0  0  0  0  0  0
   -5.2238    2.3741   -2.3966 H   0  0  0  0  0  0  0  0  0  0  0  0
   -3.9932    0.6055   -2.5204 C   0  0  0  0  0  0  0  0  0  0  0  0
   -4.7412    0.0289   -3.0571 H   0  0  0  0  0  0  0  0  0  0  0  0
   -2.7515    0.0371   -2.2177 C   0  0  0  0  0  0  0  0  0  0  0  0
   -2.5389   -0.9718   -2.5594 H   0  0  0  0  0  0  0  0  0  0  0  0
    0.0573   -0.4108    1.1249 C   0  0  0  0  0  0  0  0  0  0  0  0
    1.2300   -0.2447    1.4331 O   0  0  0  0  0  0  0  0  0  0  0  0
   -0.9305    0.1325    1.9272 N   0  0  0  0  0  0  0  0  0  0  0  0
   -1.8907    0.0160    1.6202 H   0  0  0  0  0  0  0  0  0  0  0  0
   -0.6637    0.7548    3.2172 C   0  0  0  0  0  0  0  0  0  0  0  0
    0.0131    1.6075    3.0989 H   0  0  0  0  0  0  0  0  0  0  0  0
   -1.5957    1.1129    3.6645 H   0  0  0  0  0  0  0  0  0  0  0  0
   -0.2051    0.0331    3.9015 H   0  0  0  0  0  0  0  0  0  0  0  0
  1  2  1  0  0  0  0
  2  3  1  0  0  0  0
  2  4  1  0  0  0  0
  2  5  1  0  0  0  0
  5  6  2  0  0  0  0
  5  7  1  0  0  0  0
  7  8  1  0  0  0  0
  7  9  1  0  0  0  0
  9 10  1  0  0  0  0
  9 11  1  0  0  0  0
  9 25  1  0  0  0  0
 11 12  1  0  0  0  0
 11 13  1  0  0  0  0
 11 14  1  0  0  0  0
 14 15  1  0  0  0  0
 14 23  2  0  0  0  0
 15 16  1  0  0  0  0
 15 17  2  0  0  0  0
 17 18  1  0  0  0  0
 17 19  1  0  0  0  0
 19 20  1  0  0  0  0
 19 21  2  0  0  0  0
 21 22  1  0  0  0  0
 21 23  1  0  0  0  0
 23 24  1  0  0  0  0
 25 26  2  0  0  0  0
 25 27  1  0  0  0  0
 27 28  1  0  0  0  0
 27 29  1  0  0  0  0
 29 30  1  0  0  0  0
 29 31  1  0  0  0  0
 29 32  1  0  0  0  0
M  END
$$$$

  -OEChem-03222214073D

 32 32  0     1  0  0  0  0  0999 V2000
   -2.7916   -4.6119    1.3391 H   0  0  0  0  0  0  0  0  0  0  0  0
   -2.9098   -3.7393    0.6901 C   0  0  0  0  0  0  0  0  0  0  0  0
   -3.6539   -3.0722    1.1309 H   0  0  0  0  0  0  0  0  0  0  0  0
   -3.2633   -4.0743   -0.2880 H   0  0  0  0  0  0  0  0  0  0  0  0
   -1.5845   -3.0159    0.5414 C   0  0  0  0  0  0  0  0  0  0  0  0
   -0.5862   -3.4619    1.0778 O   0  0  0  0  0  0  0  0  0  0  0  0
   -1.5195   -1.8550   -0.2042 N   0  0  0  0  0  0  0  0  0  0  0  0
   -2.4037   -1.4726   -0.5242 H   0  0  0  0  0  0  0  0  0  0  0  0
   -0.3361   -0.9776   -0.2606 C   0  0  1  0  0  0  0  0  0  0  0  0
    0.5143   -1.5870   -0.5875 H   0  0  0  0  0  0  0  0  0  0  0  0
   -0.4579    0.2135   -1.2503 C   0  0  0  0  0  0  0  0  0  0  0  0
    0.2234    1.0101   -0.9303 H   0  0  0  0  0  0  0  0  0  0  0  0
   -0.0831   -0.1362   -2.2174 H   0  0  0  0  0  0  0  0  0  0  0  0
   -1.8408    0.7953   -1.5119 C   0  0  0  0  0  0  0  0  0  0  0  0
   -1.9902    2.1927   -1.5077 C   0  0  0  0  0  0  0  0  0  0  0  0
   -1.1600    2.8272   -1.2099 H   0  0  0  0  0  0  0  0  0  0  0  0
   -3.2043    2.7949   -1.8537 C   0  0  0  0  0  0  0  0  0  0  0  0
   -3.3060    3.8756   -1.8107 H   0  0  0  0  0  0  0  0  0  0  0  0
   -4.2804    2.0091   -2.2692 C   0  0  0  0  0  0  0  0  0  0  0  0
   -5.2216    2.4763   -2.5452 H   0  0  0  0  0  0  0  0  0  0  0  0
   -4.1266    0.6252   -2.3679 C   0  0  0  0  0  0  0  0  0  0  0  0
   -4.9448    0.0177   -2.7444 H   0  0  0  0  0  0  0  0  0  0  0  0
   -2.9092    0.0288   -2.0209 C   0  0  0  0  0  0  0  0  0  0  0  0
   -2.7970   -1.0342   -2.2046 H   0  0  0  0  0  0  0  0  0  0  0  0
    0.0509   -0.4173    1.1261 C   0  0  0  0  0  0  0  0  0  0  0  0
    1.2280   -0.2289    1.4035 O   0  0  0  0  0  0  0  0  0  0  0  0
   -0.9253    0.0833    1.9694 N   0  0  0  0  0  0  0  0  0  0  0  0
   -1.8907   -0.0306    1.6800 H   0  0  0  0  0  0  0  0  0  0  0  0
   -0.6347    0.7093    3.2525 C   0  0  0  0  0  0  0  0  0  0  0  0
   -0.0014    1.5919    3.1140 H   0  0  0  0  0  0  0  0  0  0  0  0
   -1.5628    1.0233    3.7393 H   0  0  0  0  0  0  0  0  0  0  0  0
   -0.1185    0.0044    3.9127 H   0  0  0  0  0  0  0  0  0  0  0  0
  1  2  1  0  0  0  0
  2  3  1  0  0  0  0
  2  4  1  0  0  0  0
  2  5  1  0  0  0  0
  5  6  2  0  0  0  0
  5  7  1  0  0  0  0
  7  8  1  0  0  0  0
  7  9  1  0  0  0  0
  9 10  1  0  0  0  0
  9 11  1  0  0  0  0
  9 25  1  0  0  0  0
 11 12  1  0  0  0  0
 11 13  1  0  0  0  0
 11 14  1  0  0  0  0
 14 15  1  0  0  0  0
 14 23  2  0  0  0  0
 15 16  1  0  0  0  0
 15 17  2  0  0  0  0
 17 18  1  0  0  0  0
 17 19  1  0  0  0  0
 19 20  1  0  0  0  0
 19 21  2  0  0  0  0
 21 22  1  0  0  0  0
 21 23  1  0  0  0  0
 23 24  1  0  0  0  0
 25 26  2  0  0  0  0
 25 27  1  0  0  0  0
 27 28  1  0  0  0  0
 27 29  1  0  0  0  0
 29 30  1  0  0  0  0
 29 31  1  0  0  0  0
 29 32  1  0  0  0  0
M  END
$$$$

  -OEChem-03222214073D

 32 32  0     1  0  0  0  0  0999 V2000
   -2.4039   -4.7138    1.4395 H   0  0  0  0  0  0  0  0  0  0  0  0
   -2.6473   -3.8603    0.8000 C   0  0  0  0  0  0  0  0  0  0  0  0
   -3.3714   -3.2283    1.3198 H   0  0  0  0  0  0  0  0  0  0  0  0
   -3.0937   -4.2307   -0.1261 H   0  0  0  0  0  0  0  0  0  0  0  0
   -1.3908   -3.0686    0.4883 C   0  0  0  0  0  0  0  0  0  0  0  0
   -0.3081   -3.4745    0.8703 O   0  0  0  0  0  0  0  0  0  0  0  0
   -1.4858   -1.8885   -0.2239 N   0  0  0  0  0  0  0  0  0  0  0  0
   -2.4238   -1.5379   -0.3768 H   0  0  0  0  0  0  0  0  0  0  0  0
   -0.3723   -0.9370   -0.3789 C   0  0  1  0  0  0  0  0  0  0  0  0
    0.4725   -1.4932   -0.8014 H   0  0  0  0  0  0  0  0  0  0  0  0
   -0.6293    0.2731   -1.3230 C   0  0  0  0  0  0  0  0  0  0  0  0
    0.0534    1.0807   -1.0351 H   0  0  0  0  0  0  0  0  0  0  0  0
   -0.3146   -0.0462   -2.3217 H   0  0  0  0  0  0  0  0  0  0  0  0
   -2.0328    0.8508   -1.4994 C   0  0  0  0  0  0  0  0  0  0  0  0
   -2.1216    2.2270   -1.7787 C   0  0  0  0  0  0  0  0  0  0  0  0
   -1.2283    2.8445   -1.7500 H   0  0  0  0  0  0  0  0  0  0  0  0
   -3.3452    2.8438   -2.0568 C   0  0  0  0  0  0  0  0  0  0  0  0
   -3.3865    3.9161   -2.2252 H   0  0  0  0  0  0  0  0  0  0  0  0
   -4.5093    2.0799   -2.1304 C   0  0  0  0  0  0  0  0  0  0  0  0
   -5.4611    2.5550   -2.3502 H   0  0  0  0  0  0  0  0  0  0  0  0
   -4.4344    0.6970   -1.9664 C   0  0  0  0  0  0  0  0  0  0  0  0
   -5.3282    0.0921   -2.0888 H   0  0  0  0  0  0  0  0  0  0  0  0
   -3.2062    0.0869   -1.6880 C   0  0  0  0  0  0  0  0  0  0  0  0
   -3.2013   -0.9941   -1.6941 H   0  0  0  0  0  0  0  0  0  0  0  0
    0.1249   -0.3918    0.9789 C   0  0  0  0  0  0  0  0  0  0  0  0
    1.3124   -0.1439    1.1403 O   0  0  0  0  0  0  0  0  0  0  0  0
   -0.7824    0.0220    1.9384 N   0  0  0  0  0  0  0  0  0  0  0  0
   -1.7664   -0.1257    1.7432 H   0  0  0  0  0  0  0  0  0  0  0  0
   -0.3901    0.6318    3.2020 C   0  0  0  0  0  0  0  0  0  0  0  0
    0.1670    1.5578    3.0249 H   0  0  0  0  0  0  0  0  0  0  0  0
   -1.2758    0.8699    3.7986 H   0  0  0  0  0  0  0  0  0  0  0  0
    0.2407   -0.0547    3.7766 H   0  0  0  0  0  0  0  0  0  0  0  0
  1  2  1  0  0  0  0
  2  3  1  0  0  0  0
  2  4  1  0  0  0  0
  2  5  1  0  0  0  0
  5  6  2  0  0  0  0
  5  7  1  0  0  0  0
  7  8  1  0  0  0  0
  7  9  1  0  0  0  0
  9 10  1  0  0  0  0
  9 11  1  0  0  0  0
  9 25  1  0  0  0  0
 11 12  1  0  0  0  0
 11 13  1  0  0  0  0
 11 14  1  0  0  0  0
 14 15  1  0  0  0  0
 14 23  2  0  0  0  0
 15 16  1  0  0  0  0
 15 17  2  0  0  0  0
 17 18  1  0  0  0  0
 17 19  1  0  0  0  0
 19 20  1  0  0  0  0
 19 21  2  0  0  0  0
 21 22  1  0  0  0  0
 21 23  1  0  0  0  0
 23 24  1  0  0  0  0
 25 26  2  0  0  0  0
 25 27  1  0  0  0  0
 27 28  1  0  0  0  0
 27 29  1  0  0  0  0
 29 30  1  0  0  0  0
 29 31  1  0  0  0  0
 29 32  1  0  0  0  0
M  END
$$$$

  -OEChem-03222214073D

 32 32  0     1  0  0  0  0  0999 V2000
   -2.4417   -4.9231    1.1550 H   0  0  0  0  0  0  0  0  0  0  0  0
   -2.6138   -4.0691    0.4935 C   0  0  0  0  0  0  0  0  0  0  0  0
   -3.5638   -3.6019    0.7632 H   0  0  0  0  0  0  0  0  0  0  0  0
   -2.6711   -4.4290   -0.5365 H   0  0  0  0  0  0  0  0  0  0  0  0
   -1.4831   -3.0665    0.6308 C   0  0  0  0  0  0  0  0  0  0  0  0
   -0.5757   -3.2840    1.4127 O   0  0  0  0  0  0  0  0  0  0  0  0
   -1.4915   -1.9224   -0.1445 N   0  0  0  0  0  0  0  0  0  0  0  0
   -2.1848   -1.8954   -0.8859 H   0  0  0  0  0  0  0  0  0  0  0  0
   -0.3627   -0.9833   -0.2543 C   0  0  1  0  0  0  0  0  0  0  0  0
    0.5119   -1.5477   -0.5959 H   0  0  0  0  0  0  0  0  0  0  0  0
   -0.5902    0.1918   -1.2485 C   0  0  0  0  0  0  0  0  0  0  0  0
    0.0808    1.0086   -0.9574 H   0  0  0  0  0  0  0  0  0  0  0  0
   -0.2238   -0.1693   -2.2148 H   0  0  0  0  0  0  0  0  0  0  0  0
   -1.9648    0.8017   -1.5472 C   0  0  0  0  0  0  0  0  0  0  0  0
   -1.9319    2.0446   -2.2069 C   0  0  0  0  0  0  0  0  0  0  0  0
   -0.9771    2.4818   -2.4861 H   0  0  0  0  0  0  0  0  0  0  0  0
   -3.0999    2.7420   -2.5287 C   0  0  0  0  0  0  0  0  0  0  0  0
   -3.0378    3.6951   -3.0463 H   0  0  0  0  0  0  0  0  0  0  0  0
   -4.3426    2.2156   -2.1809 C   0  0  0  0  0  0  0  0  0  0  0  0
   -5.2532    2.7543   -2.4270 H   0  0  0  0  0  0  0  0  0  0  0  0
   -4.4076    0.9988   -1.5032 C   0  0  0  0  0  0  0  0  0  0  0  0
   -5.3751    0.5964   -1.2170 H   0  0  0  0  0  0  0  0  0  0  0  0
   -3.2366    0.3025   -1.1810 C   0  0  0  0  0  0  0  0  0  0  0  0
   -3.3888   -0.6095   -0.6266 H   0  0  0  0  0  0  0  0  0  0  0  0
    0.0324   -0.3595    1.1043 C   0  0  0  0  0  0  0  0  0  0  0  0
    1.2060   -0.0917    1.3291 O   0  0  0  0  0  0  0  0  0  0  0  0
   -0.9436    0.1127    1.9629 N   0  0  0  0  0  0  0  0  0  0  0  0
   -1.9016   -0.1417    1.7470 H   0  0  0  0  0  0  0  0  0  0  0  0
   -0.6464    0.7452    3.2409 C   0  0  0  0  0  0  0  0  0  0  0  0
   -0.0221    1.6329    3.0939 H   0  0  0  0  0  0  0  0  0  0  0  0
   -1.5728    1.0537    3.7341 H   0  0  0  0  0  0  0  0  0  0  0  0
   -0.1180    0.0466    3.8982 H   0  0  0  0  0  0  0  0  0  0  0  0
  1  2  1  0  0  0  0
  2  3  1  0  0  0  0
  2  4  1  0  0  0  0
  2  5  1  0  0  0  0
  5  6  2  0  0  0  0
  5  7  1  0  0  0  0
  7  8  1  0  0  0  0
  7  9  1  0  0  0  0
  9 10  1  0  0  0  0
  9 11  1  0  0  0  0
  9 25  1  0  0  0  0
 11 12  1  0  0  0  0
 11 13  1  0  0  0  0
 11 14  1  0  0  0  0
 14 15  1  0  0  0  0
 14 23  2  0  0  0  0
 15 16  1  0  0  0  0
 15 17  2  0  0  0  0
 17 18  1  0  0  0  0
 17 19  1  0  0  0  0
 19 20  1  0  0  0  0
 19 21  2  0  0  0  0
 21 22  1  0  0  0  0
 21 23  1  0  0  0  0
 23 24  1  0  0  0  0
 25 26  2  0  0  0  0
 25 27  1  0  0  0  0
 27 28  1  0  0  0  0
 27 29  1  0  0  0  0
 29 30  1  0  0  0  0
 29 31  1  0  0  0  0
 29 32  1  0  0  0  0
M  END
$$$$

  -OEChem-03222214073D

 32 32  0     1  0  0  0  0  0999 V2000
   -2.7827   -4.7661    0.9554 H   0  0  0  0  0  0  0  0  0  0  0  0
   -2.8776   -3.8647    0.3431 C   0  0  0  0  0  0  0  0  0  0  0  0
   -3.7707   -3.3188    0.6565 H   0  0  0  0  0  0  0  0  0  0  0  0
   -2.9874   -4.1610   -0.7029 H   0  0  0  0  0  0  0  0  0  0  0  0
   -1.6487   -2.9903    0.5083 C   0  0  0  0  0  0  0  0  0  0  0  0
   -0.7536   -3.3364    1.2578 O   0  0  0  0  0  0  0  0  0  0  0  0
   -1.5595   -1.7990   -0.1837 N   0  0  0  0  0  0  0  0  0  0  0  0
   -2.2996   -1.5975   -0.8513 H   0  0  0  0  0  0  0  0  0  0  0  0
   -0.3687   -0.9287   -0.1998 C   0  0  1  0  0  0  0  0  0  0  0  0
    0.4695   -1.5416   -0.5501 H   0  0  0  0  0  0  0  0  0  0  0  0
   -0.5216    0.2367   -1.2051 C   0  0  0  0  0  0  0  0  0  0  0  0
    0.3014    0.9396   -1.0334 H   0  0  0  0  0  0  0  0  0  0  0  0
   -0.3668   -0.1882   -2.2020 H   0  0  0  0  0  0  0  0  0  0  0  0
   -1.8174    1.0402   -1.2692 C   0  0  0  0  0  0  0  0  0  0  0  0
   -1.8616    2.0769   -2.2163 C   0  0  0  0  0  0  0  0  0  0  0  0
   -1.0101    2.2469   -2.8692 H   0  0  0  0  0  0  0  0  0  0  0  0
   -2.9846    2.9000   -2.3451 C   0  0  0  0  0  0  0  0  0  0  0  0
   -2.9962    3.6896   -3.0909 H   0  0  0  0  0  0  0  0  0  0  0  0
   -4.0871    2.7107   -1.5109 C   0  0  0  0  0  0  0  0  0  0  0  0
   -4.9596    3.3504   -1.6076 H   0  0  0  0  0  0  0  0  0  0  0  0
   -4.0565    1.7053   -0.5433 C   0  0  0  0  0  0  0  0  0  0  0  0
   -4.9066    1.5694    0.1192 H   0  0  0  0  0  0  0  0  0  0  0  0
   -2.9307    0.8835   -0.4167 C   0  0  0  0  0  0  0  0  0  0  0  0
   -2.9536    0.1434    0.3710 H   0  0  0  0  0  0  0  0  0  0  0  0
    0.0794   -0.3911    1.1792 C   0  0  0  0  0  0  0  0  0  0  0  0
    1.2723   -0.2086    1.3862 O   0  0  0  0  0  0  0  0  0  0  0  0
   -0.8357    0.1164    2.0837 N   0  0  0  0  0  0  0  0  0  0  0  0
   -1.8104   -0.1024    1.9148 H   0  0  0  0  0  0  0  0  0  0  0  0
   -0.4535    0.6740    3.3747 C   0  0  0  0  0  0  0  0  0  0  0  0
    0.2355    1.5146    3.2406 H   0  0  0  0  0  0  0  0  0  0  0  0
   -1.3381    1.0366    3.9066 H   0  0  0  0  0  0  0  0  0  0  0  0
    0.0352   -0.0885    3.9903 H   0  0  0  0  0  0  0  0  0  0  0  0
  1  2  1  0  0  0  0
  2  3  1  0  0  0  0
  2  4  1  0  0  0  0
  2  5  1  0  0  0  0
  5  6  2  0  0  0  0
  5  7  1  0  0  0  0
  7  8  1  0  0  0  0
  7  9  1  0  0  0  0
  9 10  1  0  0  0  0
  9 11  1  0  0  0  0
  9 25  1  0  0  0  0
 11 12  1  0  0  0  0
 11 13  1  0  0  0  0
 11 14  1  0  0  0  0
 14 15  1  0  0  0  0
 14 23  2  0  0  0  0
 15 16  1  0  0  0  0
 15 17  2  0  0  0  0
 17 18  1  0  0  0  0
 17 19  1  0  0  0  0
 19 20  1  0  0  0  0
 19 21  2  0  0  0  0
 21 22  1  0  0  0  0
 21 23  1  0  0  0  0
 23 24  1  0  0  0  0
 25 26  2  0  0  0  0
 25 27  1  0  0  0  0
 27 28  1  0  0  0  0
 27 29  1  0  0  0  0
 29 30  1  0  0  0  0
 29 31  1  0  0  0  0
 29 32  1  0  0  0  0
M  END
$$$$

  -OEChem-03222214073D

 32 32  0     1  0  0  0  0  0999 V2000
   -2.8325   -4.7307    0.8773 H   0  0  0  0  0  0  0  0  0  0  0  0
   -2.9215   -3.8080    0.2967 C   0  0  0  0  0  0  0  0  0  0  0  0
   -3.8161   -3.2721    0.6225 H   0  0  0  0  0  0  0  0  0  0  0  0
   -3.0245   -4.0674   -0.7598 H   0  0  0  0  0  0  0  0  0  0  0  0
   -1.6918   -2.9427    0.5001 C   0  0  0  0  0  0  0  0  0  0  0  0
   -0.7992   -3.3171    1.2392 O   0  0  0  0  0  0  0  0  0  0  0  0
   -1.5945   -1.7279   -0.1479 N   0  0  0  0  0  0  0  0  0  0  0  0
   -2.3482   -1.4809   -0.7848 H   0  0  0  0  0  0  0  0  0  0  0  0
   -0.3934   -0.8719   -0.1456 C   0  0  1  0  0  0  0  0  0  0  0  0
    0.4278   -1.5051   -0.5012 H   0  0  0  0  0  0  0  0  0  0  0  0
   -0.5164    0.2725   -1.1777 C   0  0  0  0  0  0  0  0  0  0  0  0
    0.2976    0.9836   -0.9994 H   0  0  0  0  0  0  0  0  0  0  0  0
   -0.3360   -0.1712   -2.1621 H   0  0  0  0  0  0  0  0  0  0  0  0
   -1.8169    1.0612   -1.2704 C   0  0  0  0  0  0  0  0  0  0  0  0
   -2.0039    1.8560   -2.4137 C   0  0  0  0  0  0  0  0  0  0  0  0
   -1.2408    1.8808   -3.1864 H   0  0  0  0  0  0  0  0  0  0  0  0
   -3.1597    2.6252   -2.5821 C   0  0  0  0  0  0  0  0  0  0  0  0
   -3.2840    3.2306   -3.4754 H   0  0  0  0  0  0  0  0  0  0  0  0
   -4.1509    2.6195   -1.5994 C   0  0  0  0  0  0  0  0  0  0  0  0
   -5.0474    3.2196   -1.7260 H   0  0  0  0  0  0  0  0  0  0  0  0
   -3.9802    1.8464   -0.4497 C   0  0  0  0  0  0  0  0  0  0  0  0
   -4.7463    1.8487    0.3202 H   0  0  0  0  0  0  0  0  0  0  0  0
   -2.8233    1.0770   -0.2855 C   0  0  0  0  0  0  0  0  0  0  0  0
   -2.7338    0.5000    0.6234 H   0  0  0  0  0  0  0  0  0  0  0  0
    0.1025   -0.3742    1.2336 C   0  0  0  0  0  0  0  0  0  0  0  0
    1.3033   -0.1981    1.3958 O   0  0  0  0  0  0  0  0  0  0  0  0
   -0.7680    0.1247    2.1858 N   0  0  0  0  0  0  0  0  0  0  0  0
   -1.7403   -0.1419    2.0842 H   0  0  0  0  0  0  0  0  0  0  0  0
   -0.3194    0.6392    3.4737 C   0  0  0  0  0  0  0  0  0  0  0  0
    0.3741    1.4750    3.3325 H   0  0  0  0  0  0  0  0  0  0  0  0
   -1.1733    0.9974    4.0564 H   0  0  0  0  0  0  0  0  0  0  0  0
    0.1869   -0.1471    4.0435 H   0  0  0  0  0  0  0  0  0  0  0  0
  1  2  1  0  0  0  0
  2  3  1  0  0  0  0
  2  4  1  0  0  0  0
  2  5  1  0  0  0  0
  5  6  2  0  0  0  0
  5  7  1  0  0  0  0
  7  8  1  0  0  0  0
  7  9  1  0  0  0  0
  9 10  1  0  0  0  0
  9 11  1  0  0  0  0
  9 25  1  0  0  0  0
 11 12  1  0  0  0  0
 11 13  1  0  0  0  0
 11 14  1  0  0  0  0
 14 15  1  0  0  0  0
 14 23  2  0  0  0  0
 15 16  1  0  0  0  0
 15 17  2  0  0  0  0
 17 18  1  0  0  0  0
 17 19  1  0  0  0  0
 19 20  1  0  0  0  0
 19 21  2  0  0  0  0
 21 22  1  0  0  0  0
 21 23  1  0  0  0  0
 23 24  1  0  0  0  0
 25 26  2  0  0  0  0
 25 27  1  0  0  0  0
 27 28  1  0  0  0  0
 27 29  1  0  0  0  0
 29 30  1  0  0  0  0
 29 31  1  0  0  0  0
 29 32  1  0  0  0  0
M  END
$$$$

  -OEChem-03222214073D

 32 32  0     1  0  0  0  0  0999 V2000
   -2.9243   -4.6452    0.9204 H   0  0  0  0  0  0  0  0  0  0  0  0
   -2.9999   -3.7188    0.3439 C   0  0  0  0  0  0  0  0  0  0  0  0
   -3.8585   -3.1480    0.7054 H   0  0  0  0  0  0  0  0  0  0  0  0
   -3.1548   -3.9711   -0.7079 H   0  0  0  0  0  0  0  0  0  0  0  0
   -1.7304   -2.9027    0.4978 C   0  0  0  0  0  0  0  0  0  0  0  0
   -0.8116   -3.3272    1.1754 O   0  0  0  0  0  0  0  0  0  0  0  0
   -1.6285   -1.6721   -0.1179 N   0  0  0  0  0  0  0  0  0  0  0  0
   -2.4148   -1.3693   -0.6880 H   0  0  0  0  0  0  0  0  0  0  0  0
   -0.4154   -0.8360   -0.1253 C   0  0  1  0  0  0  0  0  0  0  0  0
    0.3822   -1.4931   -0.4916 H   0  0  0  0  0  0  0  0  0  0  0  0
   -0.5190    0.2798   -1.1889 C   0  0  0  0  0  0  0  0  0  0  0  0
    0.2954    0.9930   -1.0215 H   0  0  0  0  0  0  0  0  0  0  0  0
   -0.3305   -0.1908   -2.1593 H   0  0  0  0  0  0  0  0  0  0  0  0
   -1.8201    1.0644   -1.2959 C   0  0  0  0  0  0  0  0  0  0  0  0
   -2.1747    1.5708   -2.5582 C   0  0  0  0  0  0  0  0  0  0  0  0
   -1.5307    1.3945   -3.4148 H   0  0  0  0  0  0  0  0  0  0  0  0
   -3.3493    2.3077   -2.7406 C   0  0  0  0  0  0  0  0  0  0  0  0
   -3.6043    2.6887   -3.7252 H   0  0  0  0  0  0  0  0  0  0  0  0
   -4.1899    2.5606   -1.6554 C   0  0  0  0  0  0  0  0  0  0  0  0
   -5.1005    3.1369   -1.7932 H   0  0  0  0  0  0  0  0  0  0  0  0
   -3.8482    2.0796   -0.3900 C   0  0  0  0  0  0  0  0  0  0  0  0
   -4.4932    2.2869    0.4591 H   0  0  0  0  0  0  0  0  0  0  0  0
   -2.6723    1.3422   -0.2126 C   0  0  0  0  0  0  0  0  0  0  0  0
   -2.4419    1.0014    0.7843 H   0  0  0  0  0  0  0  0  0  0  0  0
    0.1344   -0.3793    1.2477 C   0  0  0  0  0  0  0  0  0  0  0  0
    1.3418   -0.2163    1.3683 O   0  0  0  0  0  0  0  0  0  0  0  0
   -0.6923    0.1095    2.2430 N   0  0  0  0  0  0  0  0  0  0  0  0
   -1.6661   -0.1669    2.1807 H   0  0  0  0  0  0  0  0  0  0  0  0
   -0.1875    0.5817    3.5269 C   0  0  0  0  0  0  0  0  0  0  0  0
    0.5272    1.3987    3.3815 H   0  0  0  0  0  0  0  0  0  0  0  0
   -1.0110    0.9530    4.1444 H   0  0  0  0  0  0  0  0  0  0  0  0
    0.3115   -0.2317    4.0640 H   0  0  0  0  0  0  0  0  0  0  0  0
  1  2  1  0  0  0  0
  2  3  1  0  0  0  0
  2  4  1  0  0  0  0
  2  5  1  0  0  0  0
  5  6  2  0  0  0  0
  5  7  1  0  0  0  0
  7  8  1  0  0  0  0
  7  9  1  0  0  0  0
  9 10  1  0  0  0  0
  9 11  1  0  0  0  0
  9 25  1  0  0  0  0
 11 12  1  0  0  0  0
 11 13  1  0  0  0  0
 11 14  1  0  0  0  0
 14 15  1  0  0  0  0
 14 23  2  0  0  0  0
 15 16  1  0  0  0  0
 15 17  2  0  0  0  0
 17 18  1  0  0  0  0
 17 19  1  0  0  0  0
 19 20  1  0  0  0  0
 19 21  2  0  0  0  0
 21 22  1  0  0  0  0
 21 23  1  0  0  0  0
 23 24  1  0  0  0  0
 25 26  2  0  0  0  0
 25 27  1  0  0  0  0
 27 28  1  0  0  0  0
 27 29  1  0  0  0  0
 29 30  1  0  0  0  0
 29 31  1  0  0  0  0
 29 32  1  0  0  0  0
M  END
$$$$

  -OEChem-03222214073D

 32 32  0     1  0  0  0  0  0999 V2000
   -2.9666   -4.6017    0.8876 H   0  0  0  0  0  0  0  0  0  0  0  0
   -3.0265   -3.6707    0.3165 C   0  0  0  0  0  0  0  0  0  0  0  0
   -3.8631   -3.0788    0.6953 H   0  0  0  0  0  0  0  0  0  0  0  0
   -3.2061   -3.9133   -0.7337 H   0  0  0  0  0  0  0  0  0  0  0  0
   -1.7322   -2.8907    0.4522 C   0  0  0  0  0  0  0  0  0  0  0  0
   -0.8106   -3.3493    1.1034 O   0  0  0  0  0  0  0  0  0  0  0  0
   -1.6096   -1.6563   -0.1526 N   0  0  0  0  0  0  0  0  0  0  0  0
   -2.4073   -1.3142   -0.6833 H   0  0  0  0  0  0  0  0  0  0  0  0
   -0.3888   -0.8308   -0.1414 C   0  0  1  0  0  0  0  0  0  0  0  0
    0.4125   -1.4874   -0.5000 H   0  0  0  0  0  0  0  0  0  0  0  0
   -0.4818    0.2857   -1.2059 C   0  0  0  0  0  0  0  0  0  0  0  0
    0.3269    1.0032   -1.0301 H   0  0  0  0  0  0  0  0  0  0  0  0
   -0.2848   -0.1776   -2.1778 H   0  0  0  0  0  0  0  0  0  0  0  0
   -1.7925    1.0530   -1.2921 C   0  0  0  0  0  0  0  0  0  0  0  0
   -2.3471    1.2911   -2.5618 C   0  0  0  0  0  0  0  0  0  0  0  0
   -1.8662    0.8939   -3.4512 H   0  0  0  0  0  0  0  0  0  0  0  0
   -3.5285    2.0252   -2.7092 C   0  0  0  0  0  0  0  0  0  0  0  0
   -3.9499    2.1822   -3.6980 H   0  0  0  0  0  0  0  0  0  0  0  0
   -4.1595    2.5649   -1.5870 C   0  0  0  0  0  0  0  0  0  0  0  0
   -5.0738    3.1401   -1.6989 H   0  0  0  0  0  0  0  0  0  0  0  0
   -3.5941    2.3855   -0.3232 C   0  0  0  0  0  0  0  0  0  0  0  0
   -4.0622    2.8346    0.5482 H   0  0  0  0  0  0  0  0  0  0  0  0
   -2.4129    1.6493   -0.1812 C   0  0  0  0  0  0  0  0  0  0  0  0
   -1.9759    1.5860    0.8040 H   0  0  0  0  0  0  0  0  0  0  0  0
    0.1253   -0.4048    1.2533 C   0  0  0  0  0  0  0  0  0  0  0  0
    1.3286   -0.2508    1.4172 O   0  0  0  0  0  0  0  0  0  0  0  0
   -0.7348    0.0698    2.2267 N   0  0  0  0  0  0  0  0  0  0  0  0
   -1.7141   -0.1669    2.1041 H   0  0  0  0  0  0  0  0  0  0  0  0
   -0.2801    0.4958    3.5446 C   0  0  0  0  0  0  0  0  0  0  0  0
    0.4431    1.3136    3.4565 H   0  0  0  0  0  0  0  0  0  0  0  0
   -1.1267    0.8494    4.1408 H   0  0  0  0  0  0  0  0  0  0  0  0
    0.1940   -0.3384    4.0724 H   0  0  0  0  0  0  0  0  0  0  0  0
  1  2  1  0  0  0  0
  2  3  1  0  0  0  0
  2  4  1  0  0  0  0
  2  5  1  0  0  0  0
  5  6  2  0  0  0  0
  5  7  1  0  0  0  0
  7  8  1  0  0  0  0
  7  9  1  0  0  0  0
  9 10  1  0  0  0  0
  9 11  1  0  0  0  0
  9 25  1  0  0  0  0
 11 12  1  0  0  0  0
 11 13  1  0  0  0  0
 11 14  1  0  0  0  0
 14 15  1  0  0  0  0
 14 23  2  0  0  0  0
 15 16  1  0  0  0  0
 15 17  2  0  0  0  0
 17 18  1  0  0  0  0
 17 19  1  0  0  0  0
 19 20  1  0  0  0  0
 19 21  2  0  0  0  0
 21 22  1  0  0  0  0
 21 23  1  0  0  0  0
 23 24  1  0  0  0  0
 25 26  2  0  0  0  0
 25 27  1  0  0  0  0
 27 28  1  0  0  0  0
 27 29  1  0  0  0  0
 29 30  1  0  0  0  0
 29 31  1  0  0  0  0
 29 32  1  0  0  0  0
M  END
$$$$

  -OEChem-03222214073D

 32 32  0     1  0  0  0  0  0999 V2000
   -3.0275   -4.5264    0.9263 H   0  0  0  0  0  0  0  0  0  0  0  0
   -3.0573   -3.6085    0.3320 C   0  0  0  0  0  0  0  0  0  0  0  0
   -3.8646   -2.9738    0.7050 H   0  0  0  0  0  0  0  0  0  0  0  0
   -3.2597   -3.8708   -0.7092 H   0  0  0  0  0  0  0  0  0  0  0  0
   -1.7317   -2.8776    0.4327 C   0  0  0  0  0  0  0  0  0  0  0  0
   -0.8205   -3.3574    1.0832 O   0  0  0  0  0  0  0  0  0  0  0  0
   -1.5671   -1.6668   -0.2086 N   0  0  0  0  0  0  0  0  0  0  0  0
   -2.3657   -1.2939   -0.7166 H   0  0  0  0  0  0  0  0  0  0  0  0
   -0.3326   -0.8611   -0.1827 C   0  0  1  0  0  0  0  0  0  0  0  0
    0.4779   -1.5193   -0.5164 H   0  0  0  0  0  0  0  0  0  0  0  0
   -0.4157    0.2661   -1.2349 C   0  0  0  0  0  0  0  0  0  0  0  0
    0.3955    0.9800   -1.0558 H   0  0  0  0  0  0  0  0  0  0  0  0
   -0.2312   -0.1784   -2.2177 H   0  0  0  0  0  0  0  0  0  0  0  0
   -1.7325    1.0194   -1.2720 C   0  0  0  0  0  0  0  0  0  0  0  0
   -2.4970    1.0175   -2.4508 C   0  0  0  0  0  0  0  0  0  0  0  0
   -2.1735    0.4394   -3.3118 H   0  0  0  0  0  0  0  0  0  0  0  0
   -3.6907    1.7419   -2.5335 C   0  0  0  0  0  0  0  0  0  0  0  0
   -4.2805    1.7146   -3.4452 H   0  0  0  0  0  0  0  0  0  0  0  0
   -4.1176    2.5115   -1.4487 C   0  0  0  0  0  0  0  0  0  0  0  0
   -5.0409    3.0802   -1.5128 H   0  0  0  0  0  0  0  0  0  0  0  0
   -3.3366    2.5721   -0.2922 C   0  0  0  0  0  0  0  0  0  0  0  0
   -3.6446    3.2010    0.5385 H   0  0  0  0  0  0  0  0  0  0  0  0
   -2.1442    1.8452   -0.2136 C   0  0  0  0  0  0  0  0  0  0  0  0
   -1.5252    1.9632    0.6678 H   0  0  0  0  0  0  0  0  0  0  0  0
    0.1149   -0.4108    1.2261 C   0  0  0  0  0  0  0  0  0  0  0  0
    1.3087   -0.2757    1.4595 O   0  0  0  0  0  0  0  0  0  0  0  0
   -0.7966    0.0983    2.1335 N   0  0  0  0  0  0  0  0  0  0  0  0
   -1.7756   -0.0798    1.9325 H   0  0  0  0  0  0  0  0  0  0  0  0
   -0.4227    0.5556    3.4660 C   0  0  0  0  0  0  0  0  0  0  0  0
    0.3127    1.3646    3.4029 H   0  0  0  0  0  0  0  0  0  0  0  0
   -1.3023    0.9309    3.9977 H   0  0  0  0  0  0  0  0  0  0  0  0
    0.0087   -0.2677    4.0448 H   0  0  0  0  0  0  0  0  0  0  0  0
  1  2  1  0  0  0  0
  2  3  1  0  0  0  0
  2  4  1  0  0  0  0
  2  5  1  0  0  0  0
  5  6  2  0  0  0  0
  5  7  1  0  0  0  0
  7  8  1  0  0  0  0
  7  9  1  0  0  0  0
  9 10  1  0  0  0  0
  9 11  1  0  0  0  0
  9 25  1  0  0  0  0
 11 12  1  0  0  0  0
 11 13  1  0  0  0  0
 11 14  1  0  0  0  0
 14 15  1  0  0  0  0
 14 23  2  0  0  0  0
 15 16  1  0  0  0  0
 15 17  2  0  0  0  0
 17 18  1  0  0  0  0
 17 19  1  0  0  0  0
 19 20  1  0  0  0  0
 19 21  2  0  0  0  0
 21 22  1  0  0  0  0
 21 23  1  0  0  0  0
 23 24  1  0  0  0  0
 25 26  2  0  0  0  0
 25 27  1  0  0  0  0
 27 28  1  0  0  0  0
 27 29  1  0  0  0  0
 29 30  1  0  0  0  0
 29 31  1  0  0  0  0
 29 32  1  0  0  0  0
M  END
$$$$

  -OEChem-03222214073D

 32 32  0     1  0  0  0  0  0999 V2000
   -3.0981   -4.4422    0.9665 H   0  0  0  0  0  0  0  0  0  0  0  0
   -3.0959   -3.5414    0.3462 C   0  0  0  0  0  0  0  0  0  0  0  0
   -3.8703   -2.8619    0.7102 H   0  0  0  0  0  0  0  0  0  0  0  0
   -3.3224   -3.8236   -0.6848 H   0  0  0  0  0  0  0  0  0  0  0  0
   -1.7388   -2.8658    0.4112 C   0  0  0  0  0  0  0  0  0  0  0  0
   -0.8394   -3.3665    1.0624 O   0  0  0  0  0  0  0  0  0  0  0  0
   -1.5332   -1.6802   -0.2647 N   0  0  0  0  0  0  0  0  0  0  0  0
   -2.3302   -1.2762   -0.7504 H   0  0  0  0  0  0  0  0  0  0  0  0
   -0.2859   -0.8944   -0.2218 C   0  0  1  0  0  0  0  0  0  0  0  0
    0.5303   -1.5565   -0.5324 H   0  0  0  0  0  0  0  0  0  0  0  0
   -0.3497    0.2506   -1.2542 C   0  0  0  0  0  0  0  0  0  0  0  0
    0.4699    0.9527   -1.0662 H   0  0  0  0  0  0  0  0  0  0  0  0
   -0.1797   -0.1726   -2.2494 H   0  0  0  0  0  0  0  0  0  0  0  0
   -1.6653    1.0021   -1.2538 C   0  0  0  0  0  0  0  0  0  0  0  0
   -2.5973    0.7892   -2.2821 C   0  0  0  0  0  0  0  0  0  0  0  0
   -2.3887    0.0698   -3.0689 H   0  0  0  0  0  0  0  0  0  0  0  0
   -3.8054    1.4939   -2.3059 C   0  0  0  0  0  0  0  0  0  0  0  0
   -4.5230    1.3159   -3.1017 H   0  0  0  0  0  0  0  0  0  0  0  0
   -4.0847    2.4364   -1.3122 C   0  0  0  0  0  0  0  0  0  0  0  0
   -5.0196    2.9894   -1.3328 H   0  0  0  0  0  0  0  0  0  0  0  0
   -3.1488    2.6822   -0.3037 C   0  0  0  0  0  0  0  0  0  0  0  0
   -3.3528    3.4306    0.4569 H   0  0  0  0  0  0  0  0  0  0  0  0
   -1.9412    1.9768   -0.2828 C   0  0  0  0  0  0  0  0  0  0  0  0
   -1.2088    2.2049    0.4863 H   0  0  0  0  0  0  0  0  0  0  0  0
    0.1078   -0.4109    1.1914 C   0  0  0  0  0  0  0  0  0  0  0  0
    1.2912   -0.2957    1.4810 O   0  0  0  0  0  0  0  0  0  0  0  0
   -0.8389    0.1384    2.0374 N   0  0  0  0  0  0  0  0  0  0  0  0
   -1.8109    0.0267    1.7662 H   0  0  0  0  0  0  0  0  0  0  0  0
   -0.5252    0.6558    3.3627 C   0  0  0  0  0  0  0  0  0  0  0  0
    0.2250    1.4508    3.2963 H   0  0  0  0  0  0  0  0  0  0  0  0
   -1.4241    1.0686    3.8299 H   0  0  0  0  0  0  0  0  0  0  0  0
   -0.1363   -0.1438    4.0016 H   0  0  0  0  0  0  0  0  0  0  0  0
  1  2  1  0  0  0  0
  2  3  1  0  0  0  0
  2  4  1  0  0  0  0
  2  5  1  0  0  0  0
  5  6  2  0  0  0  0
  5  7  1  0  0  0  0
  7  8  1  0  0  0  0
  7  9  1  0  0  0  0
  9 10  1  0  0  0  0
  9 11  1  0  0  0  0
  9 25  1  0  0  0  0
 11 12  1  0  0  0  0
 11 13  1  0  0  0  0
 11 14  1  0  0  0  0
 14 15  1  0  0  0  0
 14 23  2  0  0  0  0
 15 16  1  0  0  0  0
 15 17  2  0  0  0  0
 17 18  1  0  0  0  0
 17 19  1  0  0  0  0
 19 20  1  0  0  0  0
 19 21  2  0  0  0  0
 21 22  1  0  0  0  0
 21 23  1  0  0  0  0
 23 24  1  0  0  0  0
 25 26  2  0  0  0  0
 25 27  1  0  0  0  0
 27 28  1  0  0  0  0
 27 29  1  0  0  0  0
 29 30  1  0  0  0  0
 29 31  1  0  0  0  0
 29 32  1  0  0  0  0
M  END
$$$$

  -OEChem-03222214073D

 32 32  0     1  0  0  0  0  0999 V2000
   -3.1231   -4.4093    1.0038 H   0  0  0  0  0  0  0  0  0  0  0  0
   -3.1148   -3.5146    0.3748 C   0  0  0  0  0  0  0  0  0  0  0  0
   -3.8642   -2.8141    0.7507 H   0  0  0  0  0  0  0  0  0  0  0  0
   -3.3722   -3.8015   -0.6476 H   0  0  0  0  0  0  0  0  0  0  0  0
   -1.7413   -2.8704    0.4021 C   0  0  0  0  0  0  0  0  0  0  0  0
   -0.8430   -3.3807    1.0474 O   0  0  0  0  0  0  0  0  0  0  0  0
   -1.5196   -1.7038   -0.3018 N   0  0  0  0  0  0  0  0  0  0  0  0
   -2.3225   -1.2785   -0.7577 H   0  0  0  0  0  0  0  0  0  0  0  0
   -0.2678   -0.9252   -0.2514 C   0  0  1  0  0  0  0  0  0  0  0  0
    0.5534   -1.5891   -0.5442 H   0  0  0  0  0  0  0  0  0  0  0  0
   -0.3075    0.2363   -1.2673 C   0  0  0  0  0  0  0  0  0  0  0  0
    0.5249    0.9213   -1.0714 H   0  0  0  0  0  0  0  0  0  0  0  0
   -0.1475   -0.1741   -2.2694 H   0  0  0  0  0  0  0  0  0  0  0  0
   -1.6145    1.0013   -1.2591 C   0  0  0  0  0  0  0  0  0  0  0  0
   -2.6750    0.6137   -2.0949 C   0  0  0  0  0  0  0  0  0  0  0  0
   -2.5546   -0.2249   -2.7752 H   0  0  0  0  0  0  0  0  0  0  0  0
   -3.8896    1.3077   -2.0704 C   0  0  0  0  0  0  0  0  0  0  0  0
   -4.7033    1.0052   -2.7235 H   0  0  0  0  0  0  0  0  0  0  0  0
   -4.0536    2.3989   -1.2121 C   0  0  0  0  0  0  0  0  0  0  0  0
   -4.9945    2.9417   -1.1948 H   0  0  0  0  0  0  0  0  0  0  0  0
   -3.0008    2.7987   -0.3839 C   0  0  0  0  0  0  0  0  0  0  0  0
   -3.1224    3.6520    0.2773 H   0  0  0  0  0  0  0  0  0  0  0  0
   -1.7867    2.1049   -0.4109 C   0  0  0  0  0  0  0  0  0  0  0  0
   -0.9734    2.4264    0.2346 H   0  0  0  0  0  0  0  0  0  0  0  0
    0.0920   -0.4121    1.1605 C   0  0  0  0  0  0  0  0  0  0  0  0
    1.2668   -0.3097    1.4875 O   0  0  0  0  0  0  0  0  0  0  0  0
   -0.8752    0.1626    1.9656 N   0  0  0  0  0  0  0  0  0  0  0  0
   -1.8347    0.1132    1.6379 H   0  0  0  0  0  0  0  0  0  0  0  0
   -0.5953    0.7413    3.2730 C   0  0  0  0  0  0  0  0  0  0  0  0
    0.1206    1.5650    3.1825 H   0  0  0  0  0  0  0  0  0  0  0  0
   -1.5152    1.1304    3.7195 H   0  0  0  0  0  0  0  0  0  0  0  0
   -0.1776   -0.0166    3.9442 H   0  0  0  0  0  0  0  0  0  0  0  0
  1  2  1  0  0  0  0
  2  3  1  0  0  0  0
  2  4  1  0  0  0  0
  2  5  1  0  0  0  0
  5  6  2  0  0  0  0
  5  7  1  0  0  0  0
  7  8  1  0  0  0  0
  7  9  1  0  0  0  0
  9 10  1  0  0  0  0
  9 11  1  0  0  0  0
  9 25  1  0  0  0  0
 11 12  1  0  0  0  0
 11 13  1  0  0  0  0
 11 14  1  0  0  0  0
 14 15  1  0  0  0  0
 14 23  2  0  0  0  0
 15 16  1  0  0  0  0
 15 17  2  0  0  0  0
 17 18  1  0  0  0  0
 17 19  1  0  0  0  0
 19 20  1  0  0  0  0
 19 21  2  0  0  0  0
 21 22  1  0  0  0  0
 21 23  1  0  0  0  0
 23 24  1  0  0  0  0
 25 26  2  0  0  0  0
 25 27  1  0  0  0  0
 27 28  1  0  0  0  0
 27 29  1  0  0  0  0
 29 30  1  0  0  0  0
 29 31  1  0  0  0  0
 29 32  1  0  0  0  0
M  END
$$$$

  -OEChem-03222214073D

 32 32  0     1  0  0  0  0  0999 V2000
   -3.0712   -4.4455    1.0669 H   0  0  0  0  0  0  0  0  0  0  0  0
   -3.0848   -3.5524    0.4357 C   0  0  0  0  0  0  0  0  0  0  0  0
   -3.8142   -2.8470    0.8409 H   0  0  0  0  0  0  0  0  0  0  0  0
   -3.3864   -3.8402   -0.5743 H   0  0  0  0  0  0  0  0  0  0  0  0
   -1.7079   -2.9161    0.4036 C   0  0  0  0  0  0  0  0  0  0  0  0
   -0.7869   -3.4292    1.0135 O   0  0  0  0  0  0  0  0  0  0  0  0
   -1.5082   -1.7579   -0.3208 N   0  0  0  0  0  0  0  0  0  0  0  0
   -2.3344   -1.3220   -0.7188 H   0  0  0  0  0  0  0  0  0  0  0  0
   -0.2685   -0.9605   -0.2749 C   0  0  1  0  0  0  0  0  0  0  0  0
    0.5645   -1.6135   -0.5586 H   0  0  0  0  0  0  0  0  0  0  0  0
   -0.2982    0.2210   -1.2702 C   0  0  0  0  0  0  0  0  0  0  0  0
    0.5450    0.8900   -1.0646 H   0  0  0  0  0  0  0  0  0  0  0  0
   -0.1413   -0.1779   -2.2774 H   0  0  0  0  0  0  0  0  0  0  0  0
   -1.5947    1.0078   -1.2756 C   0  0  0  0  0  0  0  0  0  0  0  0
   -2.7587    0.5042   -1.8821 C   0  0  0  0  0  0  0  0  0  0  0  0
   -2.7278   -0.4352   -2.4266 H   0  0  0  0  0  0  0  0  0  0  0  0
   -3.9598    1.2191   -1.8232 C   0  0  0  0  0  0  0  0  0  0  0  0
   -4.8512    0.8286   -2.3059 H   0  0  0  0  0  0  0  0  0  0  0  0
   -4.0120    2.4436   -1.1514 C   0  0  0  0  0  0  0  0  0  0  0  0
   -4.9429    3.0020   -1.1072 H   0  0  0  0  0  0  0  0  0  0  0  0
   -2.8618    2.9536   -0.5428 C   0  0  0  0  0  0  0  0  0  0  0  0
   -2.8987    3.9065   -0.0222 H   0  0  0  0  0  0  0  0  0  0  0  0
   -1.6615    2.2380   -0.6041 C   0  0  0  0  0  0  0  0  0  0  0  0
   -0.7771    2.6408   -0.1171 H   0  0  0  0  0  0  0  0  0  0  0  0
    0.0624   -0.4270    1.1364 C   0  0  0  0  0  0  0  0  0  0  0  0
    1.2292   -0.3113    1.4872 O   0  0  0  0  0  0  0  0  0  0  0  0
   -0.9305    0.1400    1.9157 N   0  0  0  0  0  0  0  0  0  0  0  0
   -1.8698    0.1474    1.5312 H   0  0  0  0  0  0  0  0  0  0  0  0
   -0.6774    0.7962    3.1914 C   0  0  0  0  0  0  0  0  0  0  0  0
   -0.0376    1.6734    3.0501 H   0  0  0  0  0  0  0  0  0  0  0  0
   -1.6193    1.1221    3.6423 H   0  0  0  0  0  0  0  0  0  0  0  0
   -0.1836    0.1069    3.8845 H   0  0  0  0  0  0  0  0  0  0  0  0
  1  2  1  0  0  0  0
  2  3  1  0  0  0  0
  2  4  1  0  0  0  0
  2  5  1  0  0  0  0
  5  6  2  0  0  0  0
  5  7  1  0  0  0  0
  7  8  1  0  0  0  0
  7  9  1  0  0  0  0
  9 10  1  0  0  0  0
  9 11  1  0  0  0  0
  9 25  1  0  0  0  0
 11 12  1  0  0  0  0
 11 13  1  0  0  0  0
 11 14  1  0  0  0  0
 14 15  1  0  0  0  0
 14 23  2  0  0  0  0
 15 16  1  0  0  0  0
 15 17  2  0  0  0  0
 17 18  1  0  0  0  0
 17 19  1  0  0  0  0
 19 20  1  0  0  0  0
 19 21  2  0  0  0  0
 21 22  1  0  0  0  0
 21 23  1  0  0  0  0
 23 24  1  0  0  0  0
 25 26  2  0  0  0  0
 25 27  1  0  0  0  0
 27 28  1  0  0  0  0
 27 29  1  0  0  0  0
 29 30  1  0  0  0  0
 29 31  1  0  0  0  0
 29 32  1  0  0  0  0
M  END
$$$$

  -OEChem-03222214073D

 32 32  0     1  0  0  0  0  0999 V2000
   -2.9400   -4.5365    1.1567 H   0  0  0  0  0  0  0  0  0  0  0  0
   -3.0029   -3.6479    0.5220 C   0  0  0  0  0  0  0  0  0  0  0  0
   -3.7318   -2.9587    0.9545 H   0  0  0  0  0  0  0  0  0  0  0  0
   -3.3399   -3.9497   -0.4725 H   0  0  0  0  0  0  0  0  0  0  0  0
   -1.6449   -2.9775    0.4276 C   0  0  0  0  0  0  0  0  0  0  0  0
   -0.6868   -3.4647    1.0006 O   0  0  0  0  0  0  0  0  0  0  0  0
   -1.5036   -1.8193   -0.3119 N   0  0  0  0  0  0  0  0  0  0  0  0
   -2.3592   -1.4011   -0.6591 H   0  0  0  0  0  0  0  0  0  0  0  0
   -0.2917   -0.9806   -0.2884 C   0  0  1  0  0  0  0  0  0  0  0  0
    0.5569   -1.6131   -0.5729 H   0  0  0  0  0  0  0  0  0  0  0  0
   -0.3312    0.2139   -1.2724 C   0  0  0  0  0  0  0  0  0  0  0  0
    0.5199    0.8719   -1.0641 H   0  0  0  0  0  0  0  0  0  0  0  0
   -0.1720   -0.1855   -2.2787 H   0  0  0  0  0  0  0  0  0  0  0  0
   -1.6169    1.0258   -1.3141 C   0  0  0  0  0  0  0  0  0  0  0  0
   -2.8636    0.4728   -1.6621 C   0  0  0  0  0  0  0  0  0  0  0  0
   -2.9311   -0.5389   -2.0473 H   0  0  0  0  0  0  0  0  0  0  0  0
   -4.0337    1.2364   -1.5914 C   0  0  0  0  0  0  0  0  0  0  0  0
   -4.9861    0.8041   -1.8851 H   0  0  0  0  0  0  0  0  0  0  0  0
   -3.9776    2.5631   -1.1584 C   0  0  0  0  0  0  0  0  0  0  0  0
   -4.8842    3.1591   -1.1050 H   0  0  0  0  0  0  0  0  0  0  0  0
   -2.7498    3.1250   -0.8021 C   0  0  0  0  0  0  0  0  0  0  0  0
   -2.7008    4.1561   -0.4637 H   0  0  0  0  0  0  0  0  0  0  0  0
   -1.5816    2.3600   -0.8763 C   0  0  0  0  0  0  0  0  0  0  0  0
   -0.6397    2.8107   -0.5757 H   0  0  0  0  0  0  0  0  0  0  0  0
    0.0315   -0.4297    1.1179 C   0  0  0  0  0  0  0  0  0  0  0  0
    1.1960   -0.2829    1.4648 O   0  0  0  0  0  0  0  0  0  0  0  0
   -0.9755    0.1061    1.9016 N   0  0  0  0  0  0  0  0  0  0  0  0
   -1.9108    0.1123    1.5077 H   0  0  0  0  0  0  0  0  0  0  0  0
   -0.7319    0.7899    3.1645 C   0  0  0  0  0  0  0  0  0  0  0  0
   -0.1343    1.6929    3.0023 H   0  0  0  0  0  0  0  0  0  0  0  0
   -1.6805    1.0788    3.6267 H   0  0  0  0  0  0  0  0  0  0  0  0
   -0.1966    0.1320    3.8574 H   0  0  0  0  0  0  0  0  0  0  0  0
  1  2  1  0  0  0  0
  2  3  1  0  0  0  0
  2  4  1  0  0  0  0
  2  5  1  0  0  0  0
  5  6  2  0  0  0  0
  5  7  1  0  0  0  0
  7  8  1  0  0  0  0
  7  9  1  0  0  0  0
  9 10  1  0  0  0  0
  9 11  1  0  0  0  0
  9 25  1  0  0  0  0
 11 12  1  0  0  0  0
 11 13  1  0  0  0  0
 11 14  1  0  0  0  0
 14 15  1  0  0  0  0
 14 23  2  0  0  0  0
 15 16  1  0  0  0  0
 15 17  2  0  0  0  0
 17 18  1  0  0  0  0
 17 19  1  0  0  0  0
 19 20  1  0  0  0  0
 19 21  2  0  0  0  0
 21 22  1  0  0  0  0
 21 23  1  0  0  0  0
 23 24  1  0  0  0  0
 25 26  2  0  0  0  0
 25 27  1  0  0  0  0
 27 28  1  0  0  0  0
 27 29  1  0  0  0  0
 29 30  1  0  0  0  0
 29 31  1  0  0  0  0
 29 32  1  0  0  0  0
M  END
$$$$

  -OEChem-03222214073D

 32 32  0     1  0  0  0  0  0999 V2000
   -2.7755   -4.7604    1.0795 H   0  0  0  0  0  0  0  0  0  0  0  0
   -2.8587   -3.8965    0.4137 C   0  0  0  0  0  0  0  0  0  0  0  0
   -3.7682   -3.3458    0.6651 H   0  0  0  0  0  0  0  0  0  0  0  0
   -2.9282   -4.2536   -0.6167 H   0  0  0  0  0  0  0  0  0  0  0  0
   -1.6465   -2.9977    0.5728 C   0  0  0  0  0  0  0  0  0  0  0  0
   -0.7760   -3.2947    1.3706 O   0  0  0  0  0  0  0  0  0  0  0  0
   -1.5377   -1.8591   -0.2026 N   0  0  0  0  0  0  0  0  0  0  0  0
   -2.2109   -1.7673   -0.9541 H   0  0  0  0  0  0  0  0  0  0  0  0
   -0.3422   -0.9983   -0.2492 C   0  0  1  0  0  0  0  0  0  0  0  0
    0.5081   -1.6179   -0.5546 H   0  0  0  0  0  0  0  0  0  0  0  0
   -0.4458    0.1929   -1.2373 C   0  0  0  0  0  0  0  0  0  0  0  0
    0.4204    0.8430   -1.0716 H   0  0  0  0  0  0  0  0  0  0  0  0
   -0.3277   -0.2197   -2.2437 H   0  0  0  0  0  0  0  0  0  0  0  0
   -1.7187    1.0391   -1.2708 C   0  0  0  0  0  0  0  0  0  0  0  0
   -3.0371    0.5371   -1.2719 C   0  0  0  0  0  0  0  0  0  0  0  0
   -3.2536   -0.5188   -1.3366 H   0  0  0  0  0  0  0  0  0  0  0  0
   -4.1391    1.3989   -1.2411 C   0  0  0  0  0  0  0  0  0  0  0  0
   -5.1471    0.9944   -1.2536 H   0  0  0  0  0  0  0  0  0  0  0  0
   -3.9501    2.7807   -1.2022 C   0  0  0  0  0  0  0  0  0  0  0  0
   -4.8053    3.4500   -1.1775 H   0  0  0  0  0  0  0  0  0  0  0  0
   -2.6554    3.2993   -1.1983 C   0  0  0  0  0  0  0  0  0  0  0  0
   -2.5001    4.3739   -1.1657 H   0  0  0  0  0  0  0  0  0  0  0  0
   -1.5562    2.4360   -1.2311 C   0  0  0  0  0  0  0  0  0  0  0  0
   -0.5601    2.8692   -1.2150 H   0  0  0  0  0  0  0  0  0  0  0  0
    0.0231   -0.3958    1.1267 C   0  0  0  0  0  0  0  0  0  0  0  0
    1.1989   -0.2130    1.4158 O   0  0  0  0  0  0  0  0  0  0  0  0
   -0.9614    0.1473    1.9321 N   0  0  0  0  0  0  0  0  0  0  0  0
   -1.9219    0.0310    1.6253 H   0  0  0  0  0  0  0  0  0  0  0  0
   -0.6895    0.8163    3.1967 C   0  0  0  0  0  0  0  0  0  0  0  0
   -0.0220    1.6707    3.0427 H   0  0  0  0  0  0  0  0  0  0  0  0
   -1.6210    1.1813    3.6393 H   0  0  0  0  0  0  0  0  0  0  0  0
   -0.2188    0.1220    3.9006 H   0  0  0  0  0  0  0  0  0  0  0  0
  1  2  1  0  0  0  0
  2  3  1  0  0  0  0
  2  4  1  0  0  0  0
  2  5  1  0  0  0  0
  5  6  2  0  0  0  0
  5  7  1  0  0  0  0
  7  8  1  0  0  0  0
  7  9  1  0  0  0  0
  9 10  1  0  0  0  0
  9 11  1  0  0  0  0
  9 25  1  0  0  0  0
 11 12  1  0  0  0  0
 11 13  1  0  0  0  0
 11 14  1  0  0  0  0
 14 15  1  0  0  0  0
 14 23  2  0  0  0  0
 15 16  1  0  0  0  0
 15 17  2  0  0  0  0
 17 18  1  0  0  0  0
 17 19  1  0  0  0  0
 19 20  1  0  0  0  0
 19 21  2  0  0  0  0
 21 22  1  0  0  0  0
 21 23  1  0  0  0  0
 23 24  1  0  0  0  0
 25 26  2  0  0  0  0
 25 27  1  0  0  0  0
 27 28  1  0  0  0  0
 27 29  1  0  0  0  0
 29 30  1  0  0  0  0
 29 31  1  0  0  0  0
 29 32  1  0  0  0  0
M  END
$$$$

  -OEChem-03222214073D

 32 32  0     1  0  0  0  0  0999 V2000
   -2.7122   -4.8174    1.0366 H   0  0  0  0  0  0  0  0  0  0  0  0
   -2.8160   -3.9390    0.3932 C   0  0  0  0  0  0  0  0  0  0  0  0
   -3.7339   -3.4116    0.6639 H   0  0  0  0  0  0  0  0  0  0  0  0
   -2.8864   -4.2716   -0.6453 H   0  0  0  0  0  0  0  0  0  0  0  0
   -1.6188   -3.0226    0.5655 C   0  0  0  0  0  0  0  0  0  0  0  0
   -0.7334   -3.3257    1.3442 O   0  0  0  0  0  0  0  0  0  0  0  0
   -1.5385   -1.8622   -0.1805 N   0  0  0  0  0  0  0  0  0  0  0  0
   -2.2271   -1.7579   -0.9190 H   0  0  0  0  0  0  0  0  0  0  0  0
   -0.3536   -0.9887   -0.2337 C   0  0  1  0  0  0  0  0  0  0  0  0
    0.4941   -1.5918   -0.5772 H   0  0  0  0  0  0  0  0  0  0  0  0
   -0.5060    0.2152   -1.1984 C   0  0  0  0  0  0  0  0  0  0  0  0
    0.3543    0.8745   -1.0341 H   0  0  0  0  0  0  0  0  0  0  0  0
   -0.3973   -0.1833   -2.2117 H   0  0  0  0  0  0  0  0  0  0  0  0
   -1.7784    1.0675   -1.2155 C   0  0  0  0  0  0  0  0  0  0  0  0
   -3.0904    0.6402   -0.9098 C   0  0  0  0  0  0  0  0  0  0  0  0
   -3.3361   -0.3718   -0.6292 H   0  0  0  0  0  0  0  0  0  0  0  0
   -4.1706    1.5288   -0.9602 C   0  0  0  0  0  0  0  0  0  0  0  0
   -5.1712    1.1815   -0.7194 H   0  0  0  0  0  0  0  0  0  0  0  0
   -3.9715    2.8612   -1.3207 C   0  0  0  0  0  0  0  0  0  0  0  0
   -4.8111    3.5492   -1.3596 H   0  0  0  0  0  0  0  0  0  0  0  0
   -2.6872    3.3046   -1.6323 C   0  0  0  0  0  0  0  0  0  0  0  0
   -2.5235    4.3403   -1.9153 H   0  0  0  0  0  0  0  0  0  0  0  0
   -1.6093    2.4162   -1.5793 C   0  0  0  0  0  0  0  0  0  0  0  0
   -0.6205    2.7923   -1.8256 H   0  0  0  0  0  0  0  0  0  0  0  0
    0.0477   -0.4150    1.1444 C   0  0  0  0  0  0  0  0  0  0  0  0
    1.2307   -0.2335    1.4034 O   0  0  0  0  0  0  0  0  0  0  0  0
   -0.9147    0.1008    1.9932 N   0  0  0  0  0  0  0  0  0  0  0  0
   -1.8830   -0.0082    1.7109 H   0  0  0  0  0  0  0  0  0  0  0  0
   -0.6075    0.7452    3.2627 C   0  0  0  0  0  0  0  0  0  0  0  0
    0.0316    1.6199    3.1036 H   0  0  0  0  0  0  0  0  0  0  0  0
   -1.5288    1.0744    3.7523 H   0  0  0  0  0  0  0  0  0  0  0  0
   -0.0907    0.0469    3.9292 H   0  0  0  0  0  0  0  0  0  0  0  0
  1  2  1  0  0  0  0
  2  3  1  0  0  0  0
  2  4  1  0  0  0  0
  2  5  1  0  0  0  0
  5  6  2  0  0  0  0
  5  7  1  0  0  0  0
  7  8  1  0  0  0  0
  7  9  1  0  0  0  0
  9 10  1  0  0  0  0
  9 11  1  0  0  0  0
  9 25  1  0  0  0  0
 11 12  1  0  0  0  0
 11 13  1  0  0  0  0
 11 14  1  0  0  0  0
 14 15  1  0  0  0  0
 14 23  2  0  0  0  0
 15 16  1  0  0  0  0
 15 17  2  0  0  0  0
 17 18  1  0  0  0  0
 17 19  1  0  0  0  0
 19 20  1  0  0  0  0
 19 21  2  0  0  0  0
 21 22  1  0  0  0  0
 21 23  1  0  0  0  0
 23 24  1  0  0  0  0
 25 26  2  0  0  0  0
 25 27  1  0  0  0  0
 27 28  1  0  0  0  0
 27 29  1  0  0  0  0
 29 30  1  0  0  0  0
 29 31  1  0  0  0  0
 29 32  1  0  0  0  0
M  END
$$$$

  -OEChem-03222214073D

 32 32  0     1  0  0  0  0  0999 V2000
   -2.7585   -4.7854    0.9897 H   0  0  0  0  0  0  0  0  0  0  0  0
   -2.8557   -3.8907    0.3679 C   0  0  0  0  0  0  0  0  0  0  0  0
   -3.7545   -3.3486    0.6714 H   0  0  0  0  0  0  0  0  0  0  0  0
   -2.9576   -4.1988   -0.6755 H   0  0  0  0  0  0  0  0  0  0  0  0
   -1.6337   -3.0061    0.5313 C   0  0  0  0  0  0  0  0  0  0  0  0
   -0.7384   -3.3452    1.2834 O   0  0  0  0  0  0  0  0  0  0  0  0
   -1.5458   -1.8261   -0.1816 N   0  0  0  0  0  0  0  0  0  0  0  0
   -2.2633   -1.6652   -0.8830 H   0  0  0  0  0  0  0  0  0  0  0  0
   -0.3518   -0.9628   -0.2228 C   0  0  1  0  0  0  0  0  0  0  0  0
    0.4850   -1.5677   -0.5893 H   0  0  0  0  0  0  0  0  0  0  0  0
   -0.5159    0.2452   -1.1778 C   0  0  0  0  0  0  0  0  0  0  0  0
    0.3376    0.9130   -1.0121 H   0  0  0  0  0  0  0  0  0  0  0  0
   -0.4093   -0.1481   -2.1936 H   0  0  0  0  0  0  0  0  0  0  0  0
   -1.7870    1.0968   -1.1842 C   0  0  0  0  0  0  0  0  0  0  0  0
   -3.0323    0.7711   -0.6008 C   0  0  0  0  0  0  0  0  0  0  0  0
   -3.1984   -0.1260   -0.0238 H   0  0  0  0  0  0  0  0  0  0  0  0
   -4.1293    1.6329   -0.7126 C   0  0  0  0  0  0  0  0  0  0  0  0
   -5.0762    1.3711   -0.2493 H   0  0  0  0  0  0  0  0  0  0  0  0
   -4.0129    2.8344   -1.4117 C   0  0  0  0  0  0  0  0  0  0  0  0
   -4.8648    3.5028   -1.4975 H   0  0  0  0  0  0  0  0  0  0  0  0
   -2.7944    3.1750   -1.9978 C   0  0  0  0  0  0  0  0  0  0  0  0
   -2.6957    4.1089   -2.5434 H   0  0  0  0  0  0  0  0  0  0  0  0
   -1.6993    2.3134   -1.8837 C   0  0  0  0  0  0  0  0  0  0  0  0
   -0.7622    2.6000   -2.3525 H   0  0  0  0  0  0  0  0  0  0  0  0
    0.0823   -0.4233    1.1592 C   0  0  0  0  0  0  0  0  0  0  0  0
    1.2725   -0.2601    1.3955 O   0  0  0  0  0  0  0  0  0  0  0  0
   -0.8533    0.0861    2.0416 N   0  0  0  0  0  0  0  0  0  0  0  0
   -1.8299   -0.0366    1.7989 H   0  0  0  0  0  0  0  0  0  0  0  0
   -0.5067    0.6820    3.3248 C   0  0  0  0  0  0  0  0  0  0  0  0
    0.1425    1.5519    3.1805 H   0  0  0  0  0  0  0  0  0  0  0  0
   -1.4111    1.0089    3.8467 H   0  0  0  0  0  0  0  0  0  0  0  0
    0.0138   -0.0466    3.9551 H   0  0  0  0  0  0  0  0  0  0  0  0
  1  2  1  0  0  0  0
  2  3  1  0  0  0  0
  2  4  1  0  0  0  0
  2  5  1  0  0  0  0
  5  6  2  0  0  0  0
  5  7  1  0  0  0  0
  7  8  1  0  0  0  0
  7  9  1  0  0  0  0
  9 10  1  0  0  0  0
  9 11  1  0  0  0  0
  9 25  1  0  0  0  0
 11 12  1  0  0  0  0
 11 13  1  0  0  0  0
 11 14  1  0  0  0  0
 14 15  1  0  0  0  0
 14 23  2  0  0  0  0
 15 16  1  0  0  0  0
 15 17  2  0  0  0  0
 17 18  1  0  0  0  0
 17 19  1  0  0  0  0
 19 20  1  0  0  0  0
 19 21  2  0  0  0  0
 21 22  1  0  0  0  0
 21 23  1  0  0  0  0
 23 24  1  0  0  0  0
 25 26  2  0  0  0  0
 25 27  1  0  0  0  0
 27 28  1  0  0  0  0
 27 29  1  0  0  0  0
 29 30  1  0  0  0  0
 29 31  1  0  0  0  0
 29 32  1  0  0  0  0
M  END
$$$$

  -OEChem-03222214073D

 32 32  0     1  0  0  0  0  0999 V2000
   -2.8391   -4.7265    0.9460 H   0  0  0  0  0  0  0  0  0  0  0  0
   -2.9212   -3.8199    0.3395 C   0  0  0  0  0  0  0  0  0  0  0  0
   -3.8048   -3.2622    0.6587 H   0  0  0  0  0  0  0  0  0  0  0  0
   -3.0381   -4.1082   -0.7079 H   0  0  0  0  0  0  0  0  0  0  0  0
   -1.6783   -2.9660    0.5069 C   0  0  0  0  0  0  0  0  0  0  0  0
   -0.7845   -3.3352    1.2469 O   0  0  0  0  0  0  0  0  0  0  0  0
   -1.5716   -1.7712   -0.1774 N   0  0  0  0  0  0  0  0  0  0  0  0
   -2.3097   -1.5539   -0.8422 H   0  0  0  0  0  0  0  0  0  0  0  0
   -0.3625   -0.9266   -0.1981 C   0  0  1  0  0  0  0  0  0  0  0  0
    0.4600   -1.5501   -0.5661 H   0  0  0  0  0  0  0  0  0  0  0  0
   -0.5034    0.2641   -1.1756 C   0  0  0  0  0  0  0  0  0  0  0  0
    0.3406    0.9415   -1.0039 H   0  0  0  0  0  0  0  0  0  0  0  0
   -0.3758   -0.1447   -2.1831 H   0  0  0  0  0  0  0  0  0  0  0  0
   -1.7777    1.1045   -1.2050 C   0  0  0  0  0  0  0  0  0  0  0  0
   -2.9174    0.9168   -0.3939 C   0  0  0  0  0  0  0  0  0  0  0  0
   -2.9619    0.1566    0.3733 H   0  0  0  0  0  0  0  0  0  0  0  0
   -4.0414    1.7396   -0.5295 C   0  0  0  0  0  0  0  0  0  0  0  0
   -4.9080    1.5874    0.1073 H   0  0  0  0  0  0  0  0  0  0  0  0
   -4.0518    2.7650   -1.4762 C   0  0  0  0  0  0  0  0  0  0  0  0
   -4.9234    3.4052   -1.5791 H   0  0  0  0  0  0  0  0  0  0  0  0
   -2.9334    2.9695   -2.2848 C   0  0  0  0  0  0  0  0  0  0  0  0
   -2.9322    3.7694   -3.0197 H   0  0  0  0  0  0  0  0  0  0  0  0
   -1.8119    2.1461   -2.1474 C   0  0  0  0  0  0  0  0  0  0  0  0
   -0.9520    2.3231   -2.7872 H   0  0  0  0  0  0  0  0  0  0  0  0
    0.1050   -0.4126    1.1831 C   0  0  0  0  0  0  0  0  0  0  0  0
    1.3028   -0.2654    1.3898 O   0  0  0  0  0  0  0  0  0  0  0  0
   -0.7962    0.1048    2.0959 N   0  0  0  0  0  0  0  0  0  0  0  0
   -1.7782   -0.0675    1.9159 H   0  0  0  0  0  0  0  0  0  0  0  0
   -0.4003    0.6539    3.3860 C   0  0  0  0  0  0  0  0  0  0  0  0
    0.3135    1.4735    3.2523 H   0  0  0  0  0  0  0  0  0  0  0  0
   -1.2748    1.0434    3.9155 H   0  0  0  0  0  0  0  0  0  0  0  0
    0.0649   -0.1213    4.0036 H   0  0  0  0  0  0  0  0  0  0  0  0
  1  2  1  0  0  0  0
  2  3  1  0  0  0  0
  2  4  1  0  0  0  0
  2  5  1  0  0  0  0
  5  6  2  0  0  0  0
  5  7  1  0  0  0  0
  7  8  1  0  0  0  0
  7  9  1  0  0  0  0
  9 10  1  0  0  0  0
  9 11  1  0  0  0  0
  9 25  1  0  0  0  0
 11 12  1  0  0  0  0
 11 13  1  0  0  0  0
 11 14  1  0  0  0  0
 14 15  1  0  0  0  0
 14 23  2  0  0  0  0
 15 16  1  0  0  0  0
 15 17  2  0  0  0  0
 17 18  1  0  0  0  0
 17 19  1  0  0  0  0
 19 20  1  0  0  0  0
 19 21  2  0  0  0  0
 21 22  1  0  0  0  0
 21 23  1  0  0  0  0
 23 24  1  0  0  0  0
 25 26  2  0  0  0  0
 25 27  1  0  0  0  0
 27 28  1  0  0  0  0
 27 29  1  0  0  0  0
 29 30  1  0  0  0  0
 29 31  1  0  0  0  0
 29 32  1  0  0  0  0
M  END
$$$$

  -OEChem-03222214073D

 32 32  0     1  0  0  0  0  0999 V2000
   -2.9041   -4.6679    0.8874 H   0  0  0  0  0  0  0  0  0  0  0  0
   -2.9682   -3.7492    0.2973 C   0  0  0  0  0  0  0  0  0  0  0  0
   -3.8436   -3.1823    0.6228 H   0  0  0  0  0  0  0  0  0  0  0  0
   -3.0857   -4.0161   -0.7558 H   0  0  0  0  0  0  0  0  0  0  0  0
   -1.7119   -2.9194    0.4841 C   0  0  0  0  0  0  0  0  0  0  0  0
   -0.8207   -3.3196    1.2112 O   0  0  0  0  0  0  0  0  0  0  0  0
   -1.5944   -1.7022   -0.1558 N   0  0  0  0  0  0  0  0  0  0  0  0
   -2.3463   -1.4363   -0.7872 H   0  0  0  0  0  0  0  0  0  0  0  0
   -0.3801   -0.8654   -0.1477 C   0  0  1  0  0  0  0  0  0  0  0  0
    0.4321   -1.5062   -0.5093 H   0  0  0  0  0  0  0  0  0  0  0  0
   -0.4879    0.2929   -1.1660 C   0  0  0  0  0  0  0  0  0  0  0  0
    0.3391    0.9878   -0.9831 H   0  0  0  0  0  0  0  0  0  0  0  0
   -0.3190   -0.1435   -2.1558 H   0  0  0  0  0  0  0  0  0  0  0  0
   -1.7750    1.1055   -1.2475 C   0  0  0  0  0  0  0  0  0  0  0  0
   -2.7945    1.1036   -0.2758 C   0  0  0  0  0  0  0  0  0  0  0  0
   -2.7199    0.5055    0.6209 H   0  0  0  0  0  0  0  0  0  0  0  0
   -3.9445    1.8843   -0.4359 C   0  0  0  0  0  0  0  0  0  0  0  0
   -4.7190    1.8737    0.3256 H   0  0  0  0  0  0  0  0  0  0  0  0
   -4.0975    2.6831   -1.5706 C   0  0  0  0  0  0  0  0  0  0  0  0
   -4.9888    3.2915   -1.6939 H   0  0  0  0  0  0  0  0  0  0  0  0
   -3.0965    2.7012   -2.5433 C   0  0  0  0  0  0  0  0  0  0  0  0
   -3.2079    3.3250   -3.4256 H   0  0  0  0  0  0  0  0  0  0  0  0
   -1.9477    1.9204   -2.3789 C   0  0  0  0  0  0  0  0  0  0  0  0
   -1.1779    1.9528   -3.1447 H   0  0  0  0  0  0  0  0  0  0  0  0
    0.1190   -0.3870    1.2366 C   0  0  0  0  0  0  0  0  0  0  0  0
    1.3217   -0.2315    1.4054 O   0  0  0  0  0  0  0  0  0  0  0  0
   -0.7481    0.1172    2.1890 N   0  0  0  0  0  0  0  0  0  0  0  0
   -1.7244   -0.1319    2.0807 H   0  0  0  0  0  0  0  0  0  0  0  0
   -0.2982    0.6241    3.4795 C   0  0  0  0  0  0  0  0  0  0  0  0
    0.3875    1.4668    3.3423 H   0  0  0  0  0  0  0  0  0  0  0  0
   -1.1529    0.9692    4.0687 H   0  0  0  0  0  0  0  0  0  0  0  0
    0.2175   -0.1621    4.0408 H   0  0  0  0  0  0  0  0  0  0  0  0
  1  2  1  0  0  0  0
  2  3  1  0  0  0  0
  2  4  1  0  0  0  0
  2  5  1  0  0  0  0
  5  6  2  0  0  0  0
  5  7  1  0  0  0  0
  7  8  1  0  0  0  0
  7  9  1  0  0  0  0
  9 10  1  0  0  0  0
  9 11  1  0  0  0  0
  9 25  1  0  0  0  0
 11 12  1  0  0  0  0
 11 13  1  0  0  0  0
 11 14  1  0  0  0  0
 14 15  1  0  0  0  0
 14 23  2  0  0  0  0
 15 16  1  0  0  0  0
 15 17  2  0  0  0  0
 17 18  1  0  0  0  0
 17 19  1  0  0  0  0
 19 20  1  0  0  0  0
 19 21  2  0  0  0  0
 21 22  1  0  0  0  0
 21 23  1  0  0  0  0
 23 24  1  0  0  0  0
 25 26  2  0  0  0  0
 25 27  1  0  0  0  0
 27 28  1  0  0  0  0
 27 29  1  0  0  0  0
 29 30  1  0  0  0  0
 29 31  1  0  0  0  0
 29 32  1  0  0  0  0
M  END
$$$$

  -OEChem-03222214073D

 32 32  0     1  0  0  0  0  0999 V2000
   -2.9827   -4.5961    0.9042 H   0  0  0  0  0  0  0  0  0  0  0  0
   -3.0422   -3.6682    0.3280 C   0  0  0  0  0  0  0  0  0  0  0  0
   -3.8937   -3.0852    0.6868 H   0  0  0  0  0  0  0  0  0  0  0  0
   -3.1966   -3.9181   -0.7246 H   0  0  0  0  0  0  0  0  0  0  0  0
   -1.7608   -2.8717    0.4880 C   0  0  0  0  0  0  0  0  0  0  0  0
   -0.8508   -3.3133    1.1665 O   0  0  0  0  0  0  0  0  0  0  0  0
   -1.6364   -1.6408   -0.1233 N   0  0  0  0  0  0  0  0  0  0  0  0
   -2.4176   -1.3197   -0.6906 H   0  0  0  0  0  0  0  0  0  0  0  0
   -0.4081   -0.8264   -0.1256 C   0  0  1  0  0  0  0  0  0  0  0  0
    0.3784   -1.4953   -0.4941 H   0  0  0  0  0  0  0  0  0  0  0  0
   -0.4897    0.2982   -1.1816 C   0  0  0  0  0  0  0  0  0  0  0  0
    0.3376    0.9949   -1.0084 H   0  0  0  0  0  0  0  0  0  0  0  0
   -0.3087   -0.1694   -2.1549 H   0  0  0  0  0  0  0  0  0  0  0  0
   -1.7742    1.1093   -1.2858 C   0  0  0  0  0  0  0  0  0  0  0  0
   -2.6390    1.3713   -0.2084 C   0  0  0  0  0  0  0  0  0  0  0  0
   -2.4229    1.0121    0.7855 H   0  0  0  0  0  0  0  0  0  0  0  0
   -3.8085    2.1183   -0.3872 C   0  0  0  0  0  0  0  0  0  0  0  0
   -4.4617    2.3155    0.4579 H   0  0  0  0  0  0  0  0  0  0  0  0
   -4.1342    2.6195   -1.6487 C   0  0  0  0  0  0  0  0  0  0  0  0
   -5.0401    3.2024   -1.7876 H   0  0  0  0  0  0  0  0  0  0  0  0
   -3.2851    2.3757   -2.7293 C   0  0  0  0  0  0  0  0  0  0  0  0
   -3.5292    2.7695   -3.7116 H   0  0  0  0  0  0  0  0  0  0  0  0
   -2.1165    1.6295   -2.5458 C   0  0  0  0  0  0  0  0  0  0  0  0
   -1.4673    1.4574   -3.3996 H   0  0  0  0  0  0  0  0  0  0  0  0
    0.1475   -0.3847    1.2497 C   0  0  0  0  0  0  0  0  0  0  0  0
    1.3569   -0.2383    1.3711 O   0  0  0  0  0  0  0  0  0  0  0  0
   -0.6733    0.1151    2.2441 N   0  0  0  0  0  0  0  0  0  0  0  0
   -1.6506   -0.1488    2.1810 H   0  0  0  0  0  0  0  0  0  0  0  0
   -0.1638    0.5805    3.5283 C   0  0  0  0  0  0  0  0  0  0  0  0
    0.5682    1.3822    3.3835 H   0  0  0  0  0  0  0  0  0  0  0  0
   -0.9822    0.9703    4.1406 H   0  0  0  0  0  0  0  0  0  0  0  0
    0.3162   -0.2416    4.0694 H   0  0  0  0  0  0  0  0  0  0  0  0
  1  2  1  0  0  0  0
  2  3  1  0  0  0  0
  2  4  1  0  0  0  0
  2  5  1  0  0  0  0
  5  6  2  0  0  0  0
  5  7  1  0  0  0  0
  7  8  1  0  0  0  0
  7  9  1  0  0  0  0
  9 10  1  0  0  0  0
  9 11  1  0  0  0  0
  9 25  1  0  0  0  0
 11 12  1  0  0  0  0
 11 13  1  0  0  0  0
 11 14  1  0  0  0  0
 14 15  1  0  0  0  0
 14 23  2  0  0  0  0
 15 16  1  0  0  0  0
 15 17  2  0  0  0  0
 17 18  1  0  0  0  0
 17 19  1  0  0  0  0
 19 20  1  0  0  0  0
 19 21  2  0  0  0  0
 21 22  1  0  0  0  0
 21 23  1  0  0  0  0
 23 24  1  0  0  0  0
 25 26  2  0  0  0  0
 25 27  1  0  0  0  0
 27 28  1  0  0  0  0
 27 29  1  0  0  0  0
 29 30  1  0  0  0  0
 29 31  1  0  0  0  0
 29 32  1  0  0  0  0
M  END
$$$$

  -OEChem-03222214073D

 32 32  0     1  0  0  0  0  0999 V2000
   -3.0984   -4.4840    0.8530 H   0  0  0  0  0  0  0  0  0  0  0  0
   -3.1170   -3.5518    0.2810 C   0  0  0  0  0  0  0  0  0  0  0  0
   -3.9336   -2.9279    0.6521 H   0  0  0  0  0  0  0  0  0  0  0  0
   -3.2962   -3.7879   -0.7708 H   0  0  0  0  0  0  0  0  0  0  0  0
   -1.7951   -2.8220    0.4289 C   0  0  0  0  0  0  0  0  0  0  0  0
   -0.8940   -3.3198    1.0800 O   0  0  0  0  0  0  0  0  0  0  0  0
   -1.6247   -1.5873   -0.1629 N   0  0  0  0  0  0  0  0  0  0  0  0
   -2.4066   -1.2111   -0.6942 H   0  0  0  0  0  0  0  0  0  0  0  0
   -0.3764   -0.8052   -0.1353 C   0  0  1  0  0  0  0  0  0  0  0  0
    0.4025   -1.4891   -0.4927 H   0  0  0  0  0  0  0  0  0  0  0  0
   -0.4192    0.3183   -1.1954 C   0  0  0  0  0  0  0  0  0  0  0  0
    0.4114    1.0063   -1.0044 H   0  0  0  0  0  0  0  0  0  0  0  0
   -0.2234   -0.1475   -2.1662 H   0  0  0  0  0  0  0  0  0  0  0  0
   -1.6982    1.1369   -1.2996 C   0  0  0  0  0  0  0  0  0  0  0  0
   -2.3885    1.6485   -0.1882 C   0  0  0  0  0  0  0  0  0  0  0  0
   -1.9866    1.5563    0.8092 H   0  0  0  0  0  0  0  0  0  0  0  0
   -3.5931    2.3429   -0.3439 C   0  0  0  0  0  0  0  0  0  0  0  0
   -4.1051    2.7442    0.5262 H   0  0  0  0  0  0  0  0  0  0  0  0
   -4.1310    2.5352   -1.6178 C   0  0  0  0  0  0  0  0  0  0  0  0
   -5.0639    3.0780   -1.7407 H   0  0  0  0  0  0  0  0  0  0  0  0
   -3.4584    2.0366   -2.7348 C   0  0  0  0  0  0  0  0  0  0  0  0
   -3.8698    2.1884   -3.7285 H   0  0  0  0  0  0  0  0  0  0  0  0
   -2.2537    1.3444   -2.5742 C   0  0  0  0  0  0  0  0  0  0  0  0
   -1.7503    0.9629   -3.4578 H   0  0  0  0  0  0  0  0  0  0  0  0
    0.1504   -0.4051    1.2628 C   0  0  0  0  0  0  0  0  0  0  0  0
    1.3582   -0.2928    1.4272 O   0  0  0  0  0  0  0  0  0  0  0  0
   -0.6913    0.0944    2.2399 N   0  0  0  0  0  0  0  0  0  0  0  0
   -1.6775   -0.1139    2.1215 H   0  0  0  0  0  0  0  0  0  0  0  0
   -0.2195    0.5048    3.5570 C   0  0  0  0  0  0  0  0  0  0  0  0
    0.5367    1.2919    3.4668 H   0  0  0  0  0  0  0  0  0  0  0  0
   -1.0506    0.8951    4.1521 H   0  0  0  0  0  0  0  0  0  0  0  0
    0.2198   -0.3465    4.0876 H   0  0  0  0  0  0  0  0  0  0  0  0
  1  2  1  0  0  0  0
  2  3  1  0  0  0  0
  2  4  1  0  0  0  0
  2  5  1  0  0  0  0
  5  6  2  0  0  0  0
  5  7  1  0  0  0  0
  7  8  1  0  0  0  0
  7  9  1  0  0  0  0
  9 10  1  0  0  0  0
  9 11  1  0  0  0  0
  9 25  1  0  0  0  0
 11 12  1  0  0  0  0
 11 13  1  0  0  0  0
 11 14  1  0  0  0  0
 14 15  1  0  0  0  0
 14 23  2  0  0  0  0
 15 16  1  0  0  0  0
 15 17  2  0  0  0  0
 17 18  1  0  0  0  0
 17 19  1  0  0  0  0
 19 20  1  0  0  0  0
 19 21  2  0  0  0  0
 21 22  1  0  0  0  0
 21 23  1  0  0  0  0
 23 24  1  0  0  0  0
 25 26  2  0  0  0  0
 25 27  1  0  0  0  0
 27 28  1  0  0  0  0
 27 29  1  0  0  0  0
 29 30  1  0  0  0  0
 29 31  1  0  0  0  0
 29 32  1  0  0  0  0
M  END
$$$$

  -OEChem-03222214073D

 32 32  0     1  0  0  0  0  0999 V2000
   -3.1763   -4.3876    0.8743 H   0  0  0  0  0  0  0  0  0  0  0  0
   -3.1582   -3.4683    0.2817 C   0  0  0  0  0  0  0  0  0  0  0  0
   -3.9454   -2.8019    0.6419 H   0  0  0  0  0  0  0  0  0  0  0  0
   -3.3526   -3.7200   -0.7636 H   0  0  0  0  0  0  0  0  0  0  0  0
   -1.8058   -2.7918    0.4075 C   0  0  0  0  0  0  0  0  0  0  0  0
   -0.9254   -3.3088    1.0718 O   0  0  0  0  0  0  0  0  0  0  0  0
   -1.5847   -1.5845   -0.2231 N   0  0  0  0  0  0  0  0  0  0  0  0
   -2.3596   -1.1800   -0.7436 H   0  0  0  0  0  0  0  0  0  0  0  0
   -0.3206   -0.8276   -0.1779 C   0  0  1  0  0  0  0  0  0  0  0  0
    0.4649   -1.5211   -0.4994 H   0  0  0  0  0  0  0  0  0  0  0  0
   -0.3371    0.2939   -1.2409 C   0  0  0  0  0  0  0  0  0  0  0  0
    0.4971    0.9761   -1.0448 H   0  0  0  0  0  0  0  0  0  0  0  0
   -0.1440   -0.1655   -2.2156 H   0  0  0  0  0  0  0  0  0  0  0  0
   -1.6183    1.1055   -1.3219 C   0  0  0  0  0  0  0  0  0  0  0  0
   -2.1087    1.8478   -0.2359 C   0  0  0  0  0  0  0  0  0  0  0  0
   -1.5186    1.9605    0.6652 H   0  0  0  0  0  0  0  0  0  0  0  0
   -3.3379    2.5105   -0.3152 C   0  0  0  0  0  0  0  0  0  0  0  0
   -3.6951    3.0937    0.5289 H   0  0  0  0  0  0  0  0  0  0  0  0
   -4.0994    2.4353   -1.4839 C   0  0  0  0  0  0  0  0  0  0  0  0
   -5.0529    2.9523   -1.5474 H   0  0  0  0  0  0  0  0  0  0  0  0
   -3.6239    1.7041   -2.5751 C   0  0  0  0  0  0  0  0  0  0  0  0
   -4.2094    1.6498   -3.4884 H   0  0  0  0  0  0  0  0  0  0  0  0
   -2.3935    1.0436   -2.4923 C   0  0  0  0  0  0  0  0  0  0  0  0
   -2.0457    0.4740   -3.3494 H   0  0  0  0  0  0  0  0  0  0  0  0
    0.1350   -0.3996    1.2354 C   0  0  0  0  0  0  0  0  0  0  0  0
    1.3321   -0.3125    1.4748 O   0  0  0  0  0  0  0  0  0  0  0  0
   -0.7588    0.1420    2.1411 N   0  0  0  0  0  0  0  0  0  0  0  0
   -1.7426   -0.0073    1.9401 H   0  0  0  0  0  0  0  0  0  0  0  0
   -0.3714    0.5743    3.4782 C   0  0  0  0  0  0  0  0  0  0  0  0
    0.3960    1.3536    3.4232 H   0  0  0  0  0  0  0  0  0  0  0  0
   -1.2366    0.9808    4.0103 H   0  0  0  0  0  0  0  0  0  0  0  0
    0.0250   -0.2703    4.0515 H   0  0  0  0  0  0  0  0  0  0  0  0
  1  2  1  0  0  0  0
  2  3  1  0  0  0  0
  2  4  1  0  0  0  0
  2  5  1  0  0  0  0
  5  6  2  0  0  0  0
  5  7  1  0  0  0  0
  7  8  1  0  0  0  0
  7  9  1  0  0  0  0
  9 10  1  0  0  0  0
  9 11  1  0  0  0  0
  9 25  1  0  0  0  0
 11 12  1  0  0  0  0
 11 13  1  0  0  0  0
 11 14  1  0  0  0  0
 14 15  1  0  0  0  0
 14 23  2  0  0  0  0
 15 16  1  0  0  0  0
 15 17  2  0  0  0  0
 17 18  1  0  0  0  0
 17 19  1  0  0  0  0
 19 20  1  0  0  0  0
 19 21  2  0  0  0  0
 21 22  1  0  0  0  0
 21 23  1  0  0  0  0
 23 24  1  0  0  0  0
 25 26  2  0  0  0  0
 25 27  1  0  0  0  0
 27 28  1  0  0  0  0
 27 29  1  0  0  0  0
 29 30  1  0  0  0  0
 29 31  1  0  0  0  0
 29 32  1  0  0  0  0
M  END
$$$$

  -OEChem-03222214073D

 32 32  0     1  0  0  0  0  0999 V2000
   -3.1843   -4.3581    0.9277 H   0  0  0  0  0  0  0  0  0  0  0  0
   -3.1560   -3.4566    0.3090 C   0  0  0  0  0  0  0  0  0  0  0  0
   -3.9219   -2.7624    0.6630 H   0  0  0  0  0  0  0  0  0  0  0  0
   -3.3735   -3.7330   -0.7255 H   0  0  0  0  0  0  0  0  0  0  0  0
   -1.7870   -2.8084    0.3947 C   0  0  0  0  0  0  0  0  0  0  0  0
   -0.9091   -3.3272    1.0608 O   0  0  0  0  0  0  0  0  0  0  0  0
   -1.5442   -1.6306   -0.2823 N   0  0  0  0  0  0  0  0  0  0  0  0
   -2.3251   -1.2084   -0.7790 H   0  0  0  0  0  0  0  0  0  0  0  0
   -0.2790   -0.8751   -0.2244 C   0  0  1  0  0  0  0  0  0  0  0  0
    0.5237   -1.5620   -0.5157 H   0  0  0  0  0  0  0  0  0  0  0  0
   -0.2913    0.2578   -1.2726 C   0  0  0  0  0  0  0  0  0  0  0  0
    0.5427    0.9397   -1.0737 H   0  0  0  0  0  0  0  0  0  0  0  0
   -0.1095   -0.1831   -2.2578 H   0  0  0  0  0  0  0  0  0  0  0  0
   -1.5833    1.0483   -1.3168 C   0  0  0  0  0  0  0  0  0  0  0  0
   -1.8954    1.9888   -0.3235 C   0  0  0  0  0  0  0  0  0  0  0  0
   -1.1752    2.2186    0.4564 H   0  0  0  0  0  0  0  0  0  0  0  0
   -3.1193    2.6656   -0.3410 C   0  0  0  0  0  0  0  0  0  0  0  0
   -3.3443    3.3989    0.4281 H   0  0  0  0  0  0  0  0  0  0  0  0
   -4.0472    2.4065   -1.3533 C   0  0  0  0  0  0  0  0  0  0  0  0
   -4.9962    2.9350   -1.3697 H   0  0  0  0  0  0  0  0  0  0  0  0
   -3.7468    1.4744   -2.3505 C   0  0  0  0  0  0  0  0  0  0  0  0
   -4.4641    1.2776   -3.1424 H   0  0  0  0  0  0  0  0  0  0  0  0
   -2.5215    0.7994   -2.3315 C   0  0  0  0  0  0  0  0  0  0  0  0
   -2.3023    0.0768   -3.1125 H   0  0  0  0  0  0  0  0  0  0  0  0
    0.1079   -0.3957    1.1920 C   0  0  0  0  0  0  0  0  0  0  0  0
    1.2898   -0.3123    1.4980 O   0  0  0  0  0  0  0  0  0  0  0  0
   -0.8348    0.1800    2.0247 N   0  0  0  0  0  0  0  0  0  0  0  0
   -1.8059    0.0894    1.7428 H   0  0  0  0  0  0  0  0  0  0  0  0
   -0.5254    0.6849    3.3560 C   0  0  0  0  0  0  0  0  0  0  0  0
    0.2373    1.4688    3.3023 H   0  0  0  0  0  0  0  0  0  0  0  0
   -1.4222    1.1083    3.8182 H   0  0  0  0  0  0  0  0  0  0  0  0
   -0.1545   -0.1245    3.9935 H   0  0  0  0  0  0  0  0  0  0  0  0
  1  2  1  0  0  0  0
  2  3  1  0  0  0  0
  2  4  1  0  0  0  0
  2  5  1  0  0  0  0
  5  6  2  0  0  0  0
  5  7  1  0  0  0  0
  7  8  1  0  0  0  0
  7  9  1  0  0  0  0
  9 10  1  0  0  0  0
  9 11  1  0  0  0  0
  9 25  1  0  0  0  0
 11 12  1  0  0  0  0
 11 13  1  0  0  0  0
 11 14  1  0  0  0  0
 14 15  1  0  0  0  0
 14 23  2  0  0  0  0
 15 16  1  0  0  0  0
 15 17  2  0  0  0  0
 17 18  1  0  0  0  0
 17 19  1  0  0  0  0
 19 20  1  0  0  0  0
 19 21  2  0  0  0  0
 21 22  1  0  0  0  0
 21 23  1  0  0  0  0
 23 24  1  0  0  0  0
 25 26  2  0  0  0  0
 25 27  1  0  0  0  0
 27 28  1  0  0  0  0
 27 29  1  0  0  0  0
 29 30  1  0  0  0  0
 29 31  1  0  0  0  0
 29 32  1  0  0  0  0
M  END
$$$$

  -OEChem-03222214073D

 32 32  0     1  0  0  0  0  0999 V2000
   -3.1471   -4.3876    0.9909 H   0  0  0  0  0  0  0  0  0  0  0  0
   -3.1293   -3.4947    0.3594 C   0  0  0  0  0  0  0  0  0  0  0  0
   -3.8812   -2.7910    0.7242 H   0  0  0  0  0  0  0  0  0  0  0  0
   -3.3761   -3.7841   -0.6649 H   0  0  0  0  0  0  0  0  0  0  0  0
   -1.7545   -2.8544    0.4001 C   0  0  0  0  0  0  0  0  0  0  0  0
   -0.8651   -3.3654    1.0572 O   0  0  0  0  0  0  0  0  0  0  0  0
   -1.5191   -1.6954   -0.3117 N   0  0  0  0  0  0  0  0  0  0  0  0
   -2.3156   -1.2676   -0.7765 H   0  0  0  0  0  0  0  0  0  0  0  0
   -0.2629   -0.9247   -0.2542 C   0  0  1  0  0  0  0  0  0  0  0  0
    0.5569   -1.5960   -0.5336 H   0  0  0  0  0  0  0  0  0  0  0  0
   -0.2863    0.2291   -1.2784 C   0  0  0  0  0  0  0  0  0  0  0  0
    0.5483    0.9107   -1.0805 H   0  0  0  0  0  0  0  0  0  0  0  0
   -0.1198   -0.1901   -2.2757 H   0  0  0  0  0  0  0  0  0  0  0  0
   -1.5892    1.0008   -1.2866 C   0  0  0  0  0  0  0  0  0  0  0  0
   -1.7612    2.1156   -0.4526 C   0  0  0  0  0  0  0  0  0  0  0  0
   -0.9546    2.4350    0.2022 H   0  0  0  0  0  0  0  0  0  0  0  0
   -2.9668    2.8246   -0.4528 C   0  0  0  0  0  0  0  0  0  0  0  0
   -3.0894    3.6857    0.1981 H   0  0  0  0  0  0  0  0  0  0  0  0
   -4.0098    2.4301   -1.2960 C   0  0  0  0  0  0  0  0  0  0  0  0
   -4.9443    2.9840   -1.2995 H   0  0  0  0  0  0  0  0  0  0  0  0
   -3.8436    1.3306   -2.1433 C   0  0  0  0  0  0  0  0  0  0  0  0
   -4.6492    1.0327   -2.8086 H   0  0  0  0  0  0  0  0  0  0  0  0
   -2.6373    0.6226   -2.1417 C   0  0  0  0  0  0  0  0  0  0  0  0
   -2.5143   -0.2210   -2.8151 H   0  0  0  0  0  0  0  0  0  0  0  0
    0.0846   -0.4021    1.1570 C   0  0  0  0  0  0  0  0  0  0  0  0
    1.2561   -0.3096    1.4985 O   0  0  0  0  0  0  0  0  0  0  0  0
   -0.8879    0.1859    1.9462 N   0  0  0  0  0  0  0  0  0  0  0  0
   -1.8428    0.1497    1.6035 H   0  0  0  0  0  0  0  0  0  0  0  0
   -0.6197    0.7693    3.2538 C   0  0  0  0  0  0  0  0  0  0  0  0
    0.1031    1.5873    3.1680 H   0  0  0  0  0  0  0  0  0  0  0  0
   -1.5421    1.1670    3.6871 H   0  0  0  0  0  0  0  0  0  0  0  0
   -0.2159    0.0113    3.9332 H   0  0  0  0  0  0  0  0  0  0  0  0
  1  2  1  0  0  0  0
  2  3  1  0  0  0  0
  2  4  1  0  0  0  0
  2  5  1  0  0  0  0
  5  6  2  0  0  0  0
  5  7  1  0  0  0  0
  7  8  1  0  0  0  0
  7  9  1  0  0  0  0
  9 10  1  0  0  0  0
  9 11  1  0  0  0  0
  9 25  1  0  0  0  0
 11 12  1  0  0  0  0
 11 13  1  0  0  0  0
 11 14  1  0  0  0  0
 14 15  1  0  0  0  0
 14 23  2  0  0  0  0
 15 16  1  0  0  0  0
 15 17  2  0  0  0  0
 17 18  1  0  0  0  0
 17 19  1  0  0  0  0
 19 20  1  0  0  0  0
 19 21  2  0  0  0  0
 21 22  1  0  0  0  0
 21 23  1  0  0  0  0
 23 24  1  0  0  0  0
 25 26  2  0  0  0  0
 25 27  1  0  0  0  0
 27 28  1  0  0  0  0
 27 29  1  0  0  0  0
 29 30  1  0  0  0  0
 29 31  1  0  0  0  0
 29 32  1  0  0  0  0
M  END
$$$$

  -OEChem-03222214073D

 32 32  0     1  0  0  0  0  0999 V2000
   -3.0715   -4.4551    1.0638 H   0  0  0  0  0  0  0  0  0  0  0  0
   -3.0859   -3.5606    0.4345 C   0  0  0  0  0  0  0  0  0  0  0  0
   -3.8211   -2.8595    0.8367 H   0  0  0  0  0  0  0  0  0  0  0  0
   -3.3803   -3.8478   -0.5777 H   0  0  0  0  0  0  0  0  0  0  0  0
   -1.7123   -2.9171    0.4117 C   0  0  0  0  0  0  0  0  0  0  0  0
   -0.7933   -3.4243    1.0294 O   0  0  0  0  0  0  0  0  0  0  0  0
   -1.5124   -1.7583   -0.3117 N   0  0  0  0  0  0  0  0  0  0  0  0
   -2.3357   -1.3272   -0.7218 H   0  0  0  0  0  0  0  0  0  0  0  0
   -0.2723   -0.9610   -0.2659 C   0  0  1  0  0  0  0  0  0  0  0  0
    0.5603   -1.6129   -0.5529 H   0  0  0  0  0  0  0  0  0  0  0  0
   -0.3115    0.2168   -1.2632 C   0  0  0  0  0  0  0  0  0  0  0  0
    0.5264    0.8934   -1.0607 H   0  0  0  0  0  0  0  0  0  0  0  0
   -0.1557   -0.1805   -2.2713 H   0  0  0  0  0  0  0  0  0  0  0  0
   -1.6171    0.9861   -1.2530 C   0  0  0  0  0  0  0  0  0  0  0  0
   -1.6820    2.2463   -0.6400 C   0  0  0  0  0  0  0  0  0  0  0  0
   -0.8099    2.6494   -0.1319 H   0  0  0  0  0  0  0  0  0  0  0  0
   -2.8674    2.9886   -0.6594 C   0  0  0  0  0  0  0  0  0  0  0  0
   -2.9088    3.9572   -0.1690 H   0  0  0  0  0  0  0  0  0  0  0  0
   -3.9944    2.4893   -1.3182 C   0  0  0  0  0  0  0  0  0  0  0  0
   -4.9127    3.0693   -1.3392 H   0  0  0  0  0  0  0  0  0  0  0  0
   -3.9307    1.2532   -1.9676 C   0  0  0  0  0  0  0  0  0  0  0  0
   -4.7987    0.8777   -2.5022 H   0  0  0  0  0  0  0  0  0  0  0  0
   -2.7447    0.5118   -1.9453 C   0  0  0  0  0  0  0  0  0  0  0  0
   -2.6979   -0.4286   -2.4872 H   0  0  0  0  0  0  0  0  0  0  0  0
    0.0658   -0.4256    1.1426 C   0  0  0  0  0  0  0  0  0  0  0  0
    1.2349   -0.3083    1.4851 O   0  0  0  0  0  0  0  0  0  0  0  0
   -0.9211    0.1443    1.9276 N   0  0  0  0  0  0  0  0  0  0  0  0
   -1.8656    0.1412    1.5557 H   0  0  0  0  0  0  0  0  0  0  0  0
   -0.6570    0.8016    3.2006 C   0  0  0  0  0  0  0  0  0  0  0  0
   -0.0224    1.6813    3.0519 H   0  0  0  0  0  0  0  0  0  0  0  0
   -1.5952    1.1240    3.6619 H   0  0  0  0  0  0  0  0  0  0  0  0
   -0.1525    0.1142    3.8880 H   0  0  0  0  0  0  0  0  0  0  0  0
  1  2  1  0  0  0  0
  2  3  1  0  0  0  0
  2  4  1  0  0  0  0
  2  5  1  0  0  0  0
  5  6  2  0  0  0  0
  5  7  1  0  0  0  0
  7  8  1  0  0  0  0
  7  9  1  0  0  0  0
  9 10  1  0  0  0  0
  9 11  1  0  0  0  0
  9 25  1  0  0  0  0
 11 12  1  0  0  0  0
 11 13  1  0  0  0  0
 11 14  1  0  0  0  0
 14 15  1  0  0  0  0
 14 23  2  0  0  0  0
 15 16  1  0  0  0  0
 15 17  2  0  0  0  0
 17 18  1  0  0  0  0
 17 19  1  0  0  0  0
 19 20  1  0  0  0  0
 19 21  2  0  0  0  0
 21 22  1  0  0  0  0
 21 23  1  0  0  0  0
 23 24  1  0  0  0  0
 25 26  2  0  0  0  0
 25 27  1  0  0  0  0
 27 28  1  0  0  0  0
 27 29  1  0  0  0  0
 29 30  1  0  0  0  0
 29 31  1  0  0  0  0
 29 32  1  0  0  0  0
M  END
$$$$

  -OEChem-03222214073D

 32 32  0     1  0  0  0  0  0999 V2000
   -2.9540   -4.5304    1.1570 H   0  0  0  0  0  0  0  0  0  0  0  0
   -3.0131   -3.6373    0.5283 C   0  0  0  0  0  0  0  0  0  0  0  0
   -3.7401   -2.9483    0.9646 H   0  0  0  0  0  0  0  0  0  0  0  0
   -3.3506   -3.9311   -0.4685 H   0  0  0  0  0  0  0  0  0  0  0  0
   -1.6532   -2.9706    0.4398 C   0  0  0  0  0  0  0  0  0  0  0  0
   -0.6954   -3.4651    1.0071 O   0  0  0  0  0  0  0  0  0  0  0  0
   -1.5110   -1.8051   -0.2870 N   0  0  0  0  0  0  0  0  0  0  0  0
   -2.3655   -1.3828   -0.6345 H   0  0  0  0  0  0  0  0  0  0  0  0
   -0.2942   -0.9728   -0.2698 C   0  0  1  0  0  0  0  0  0  0  0  0
    0.5481   -1.6035   -0.5758 H   0  0  0  0  0  0  0  0  0  0  0  0
   -0.3610    0.2223   -1.2487 C   0  0  0  0  0  0  0  0  0  0  0  0
    0.4825    0.8931   -1.0503 H   0  0  0  0  0  0  0  0  0  0  0  0
   -0.2177   -0.1654   -2.2622 H   0  0  0  0  0  0  0  0  0  0  0  0
   -1.6636    1.0036   -1.2376 C   0  0  0  0  0  0  0  0  0  0  0  0
   -1.6407    2.3671   -0.9039 C   0  0  0  0  0  0  0  0  0  0  0  0
   -0.7147    2.8320   -0.5764 H   0  0  0  0  0  0  0  0  0  0  0  0
   -2.8044    3.1409   -0.9597 C   0  0  0  0  0  0  0  0  0  0  0  0
   -2.7731    4.1881   -0.6727 H   0  0  0  0  0  0  0  0  0  0  0  0
   -4.0027    2.5710   -1.3956 C   0  0  0  0  0  0  0  0  0  0  0  0
   -4.9052    3.1738   -1.4449 H   0  0  0  0  0  0  0  0  0  0  0  0
   -4.0283    1.2340   -1.7989 C   0  0  0  0  0  0  0  0  0  0  0  0
   -4.9501    0.8032   -2.1797 H   0  0  0  0  0  0  0  0  0  0  0  0
   -2.8623    0.4632   -1.7408 C   0  0  0  0  0  0  0  0  0  0  0  0
   -2.8934   -0.5498   -2.1288 H   0  0  0  0  0  0  0  0  0  0  0  0
    0.0572   -0.4346    1.1350 C   0  0  0  0  0  0  0  0  0  0  0  0
    1.2291   -0.2965    1.4601 O   0  0  0  0  0  0  0  0  0  0  0  0
   -0.9304    0.1020    1.9427 N   0  0  0  0  0  0  0  0  0  0  0  0
   -1.8776    0.0980    1.5787 H   0  0  0  0  0  0  0  0  0  0  0  0
   -0.6586    0.7613    3.2134 C   0  0  0  0  0  0  0  0  0  0  0  0
   -0.0506    1.6586    3.0575 H   0  0  0  0  0  0  0  0  0  0  0  0
   -1.5960    1.0561    3.6944 H   0  0  0  0  0  0  0  0  0  0  0  0
   -0.1228    0.0848    3.8879 H   0  0  0  0  0  0  0  0  0  0  0  0
  1  2  1  0  0  0  0
  2  3  1  0  0  0  0
  2  4  1  0  0  0  0
  2  5  1  0  0  0  0
  5  6  2  0  0  0  0
  5  7  1  0  0  0  0
  7  8  1  0  0  0  0
  7  9  1  0  0  0  0
  9 10  1  0  0  0  0
  9 11  1  0  0  0  0
  9 25  1  0  0  0  0
 11 12  1  0  0  0  0
 11 13  1  0  0  0  0
 11 14  1  0  0  0  0
 14 15  1  0  0  0  0
 14 23  2  0  0  0  0
 15 16  1  0  0  0  0
 15 17  2  0  0  0  0
 17 18  1  0  0  0  0
 17 19  1  0  0  0  0
 19 20  1  0  0  0  0
 19 21  2  0  0  0  0
 21 22  1  0  0  0  0
 21 23  1  0  0  0  0
 23 24  1  0  0  0  0
 25 26  2  0  0  0  0
 25 27  1  0  0  0  0
 27 28  1  0  0  0  0
 27 29  1  0  0  0  0
 29 30  1  0  0  0  0
 29 31  1  0  0  0  0
 29 32  1  0  0  0  0
M  END
$$$$

  -OEChem-03222214073D

 32 32  0     1  0  0  0  0  0999 V2000
   -2.7916   -4.7276    1.1293 H   0  0  0  0  0  0  0  0  0  0  0  0
   -2.8755   -3.8642    0.4630 C   0  0  0  0  0  0  0  0  0  0  0  0
   -3.7613   -3.2895    0.7438 H   0  0  0  0  0  0  0  0  0  0  0  0
   -2.9898   -4.2223   -0.5628 H   0  0  0  0  0  0  0  0  0  0  0  0
   -1.6362   -2.9959    0.5757 C   0  0  0  0  0  0  0  0  0  0  0  0
   -0.7361   -3.3225    1.3277 O   0  0  0  0  0  0  0  0  0  0  0  0
   -1.5367   -1.8486   -0.1876 N   0  0  0  0  0  0  0  0  0  0  0  0
   -2.2553   -1.7100   -0.8868 H   0  0  0  0  0  0  0  0  0  0  0  0
   -0.3423   -0.9868   -0.2429 C   0  0  1  0  0  0  0  0  0  0  0  0
    0.5033   -1.6053   -0.5638 H   0  0  0  0  0  0  0  0  0  0  0  0
   -0.4561    0.2073   -1.2259 C   0  0  0  0  0  0  0  0  0  0  0  0
    0.4053    0.8649   -1.0621 H   0  0  0  0  0  0  0  0  0  0  0  0
   -0.3451   -0.1969   -2.2368 H   0  0  0  0  0  0  0  0  0  0  0  0
   -1.7373    1.0373   -1.2288 C   0  0  0  0  0  0  0  0  0  0  0  0
   -1.6009    2.4371   -1.2499 C   0  0  0  0  0  0  0  0  0  0  0  0
   -0.6149    2.8891   -1.1895 H   0  0  0  0  0  0  0  0  0  0  0  0
   -2.7152    3.2787   -1.3211 C   0  0  0  0  0  0  0  0  0  0  0  0
   -2.5823    4.3568   -1.3081 H   0  0  0  0  0  0  0  0  0  0  0  0
   -3.9956    2.7336   -1.4155 C   0  0  0  0  0  0  0  0  0  0  0  0
   -4.8629    3.3853   -1.4726 H   0  0  0  0  0  0  0  0  0  0  0  0
   -4.1529    1.3480   -1.4625 C   0  0  0  0  0  0  0  0  0  0  0  0
   -5.1464    0.9238   -1.5743 H   0  0  0  0  0  0  0  0  0  0  0  0
   -3.0353    0.5090   -1.3902 C   0  0  0  0  0  0  0  0  0  0  0  0
   -3.2175   -0.5500   -1.5000 H   0  0  0  0  0  0  0  0  0  0  0  0
    0.0425   -0.3994    1.1341 C   0  0  0  0  0  0  0  0  0  0  0  0
    1.2221   -0.2212    1.4099 O   0  0  0  0  0  0  0  0  0  0  0  0
   -0.9305    0.1342    1.9599 N   0  0  0  0  0  0  0  0  0  0  0  0
   -1.8954    0.0198    1.6669 H   0  0  0  0  0  0  0  0  0  0  0  0
   -0.6411    0.7857    3.2300 C   0  0  0  0  0  0  0  0  0  0  0  0
    0.0384    1.6313    3.0809 H   0  0  0  0  0  0  0  0  0  0  0  0
   -1.5643    1.1605    3.6819 H   0  0  0  0  0  0  0  0  0  0  0  0
   -0.1770    0.0773    3.9242 H   0  0  0  0  0  0  0  0  0  0  0  0
  1  2  1  0  0  0  0
  2  3  1  0  0  0  0
  2  4  1  0  0  0  0
  2  5  1  0  0  0  0
  5  6  2  0  0  0  0
  5  7  1  0  0  0  0
  7  8  1  0  0  0  0
  7  9  1  0  0  0  0
  9 10  1  0  0  0  0
  9 11  1  0  0  0  0
  9 25  1  0  0  0  0
 11 12  1  0  0  0  0
 11 13  1  0  0  0  0
 11 14  1  0  0  0  0
 14 15  1  0  0  0  0
 14 23  2  0  0  0  0
 15 16  1  0  0  0  0
 15 17  2  0  0  0  0
 17 18  1  0  0  0  0
 17 19  1  0  0  0  0
 19 20  1  0  0  0  0
 19 21  2  0  0  0  0
 21 22  1  0  0  0  0
 21 23  1  0  0  0  0
 23 24  1  0  0  0  0
 25 26  2  0  0  0  0
 25 27  1  0  0  0  0
 27 28  1  0  0  0  0
 27 29  1  0  0  0  0
 29 30  1  0  0  0  0
 29 31  1  0  0  0  0
 29 32  1  0  0  0  0
M  END
$$$$

  -OEChem-03222214073D

 32 32  0     1  0  0  0  0  0999 V2000
   -2.6864   -4.8234    1.0658 H   0  0  0  0  0  0  0  0  0  0  0  0
   -2.7975   -3.9507    0.4158 C   0  0  0  0  0  0  0  0  0  0  0  0
   -3.7177   -3.4269    0.6852 H   0  0  0  0  0  0  0  0  0  0  0  0
   -2.8687   -4.2921   -0.6197 H   0  0  0  0  0  0  0  0  0  0  0  0
   -1.6054   -3.0260    0.5765 C   0  0  0  0  0  0  0  0  0  0  0  0
   -0.7167   -3.3169    1.3560 O   0  0  0  0  0  0  0  0  0  0  0  0
   -1.5324   -1.8726   -0.1808 N   0  0  0  0  0  0  0  0  0  0  0  0
   -2.2203   -1.7803   -0.9212 H   0  0  0  0  0  0  0  0  0  0  0  0
   -0.3538   -0.9911   -0.2399 C   0  0  1  0  0  0  0  0  0  0  0  0
    0.4994   -1.5917   -0.5743 H   0  0  0  0  0  0  0  0  0  0  0  0
   -0.5096    0.2018   -1.2182 C   0  0  0  0  0  0  0  0  0  0  0  0
    0.3460    0.8680   -1.0574 H   0  0  0  0  0  0  0  0  0  0  0  0
   -0.3954   -0.2058   -2.2273 H   0  0  0  0  0  0  0  0  0  0  0  0
   -1.7875    1.0451   -1.2488 C   0  0  0  0  0  0  0  0  0  0  0  0
   -1.6258    2.3922   -1.6220 C   0  0  0  0  0  0  0  0  0  0  0  0
   -0.6363    2.7775   -1.8513 H   0  0  0  0  0  0  0  0  0  0  0  0
   -2.7124    3.2675   -1.7067 C   0  0  0  0  0  0  0  0  0  0  0  0
   -2.5539    4.3031   -1.9936 H   0  0  0  0  0  0  0  0  0  0  0  0
   -3.9987    2.8105   -1.4242 C   0  0  0  0  0  0  0  0  0  0  0  0
   -4.8447    3.4889   -1.4894 H   0  0  0  0  0  0  0  0  0  0  0  0
   -4.1914    1.4773   -1.0624 C   0  0  0  0  0  0  0  0  0  0  0  0
   -5.1944    1.1195   -0.8486 H   0  0  0  0  0  0  0  0  0  0  0  0
   -3.1021    0.6019   -0.9797 C   0  0  0  0  0  0  0  0  0  0  0  0
   -3.3421   -0.4131   -0.7049 H   0  0  0  0  0  0  0  0  0  0  0  0
    0.0379   -0.4021    1.1345 C   0  0  0  0  0  0  0  0  0  0  0  0
    1.2182   -0.2071    1.3959 O   0  0  0  0  0  0  0  0  0  0  0  0
   -0.9326    0.1135    1.9745 N   0  0  0  0  0  0  0  0  0  0  0  0
   -1.8992   -0.0197    1.6967 H   0  0  0  0  0  0  0  0  0  0  0  0
   -0.6373    0.7665    3.2425 C   0  0  0  0  0  0  0  0  0  0  0  0
    0.0169    1.6305    3.0862 H   0  0  0  0  0  0  0  0  0  0  0  0
   -1.5620    1.1147    3.7123 H   0  0  0  0  0  0  0  0  0  0  0  0
   -0.1425    0.0680    3.9255 H   0  0  0  0  0  0  0  0  0  0  0  0
  1  2  1  0  0  0  0
  2  3  1  0  0  0  0
  2  4  1  0  0  0  0
  2  5  1  0  0  0  0
  5  6  2  0  0  0  0
  5  7  1  0  0  0  0
  7  8  1  0  0  0  0
  7  9  1  0  0  0  0
  9 10  1  0  0  0  0
  9 11  1  0  0  0  0
  9 25  1  0  0  0  0
 11 12  1  0  0  0  0
 11 13  1  0  0  0  0
 11 14  1  0  0  0  0
 14 15  1  0  0  0  0
 14 23  2  0  0  0  0
 15 16  1  0  0  0  0
 15 17  2  0  0  0  0
 17 18  1  0  0  0  0
 17 19  1  0  0  0  0
 19 20  1  0  0  0  0
 19 21  2  0  0  0  0
 21 22  1  0  0  0  0
 21 23  1  0  0  0  0
 23 24  1  0  0  0  0
 25 26  2  0  0  0  0
 25 27  1  0  0  0  0
 27 28  1  0  0  0  0
 27 29  1  0  0  0  0
 29 30  1  0  0  0  0
 29 31  1  0  0  0  0
 29 32  1  0  0  0  0
M  END
$$$$

  -OEChem-03222214073D

 32 32  0     1  0  0  0  0  0999 V2000
   -2.6938   -4.8270    0.9928 H   0  0  0  0  0  0  0  0  0  0  0  0
   -2.8107   -3.9337    0.3725 C   0  0  0  0  0  0  0  0  0  0  0  0
   -3.7197   -3.4100    0.6775 H   0  0  0  0  0  0  0  0  0  0  0  0
   -2.9073   -4.2422   -0.6714 H   0  0  0  0  0  0  0  0  0  0  0  0
   -1.6070   -3.0247    0.5358 C   0  0  0  0  0  0  0  0  0  0  0  0
   -0.7155   -3.3341    1.3050 O   0  0  0  0  0  0  0  0  0  0  0  0
   -1.5307   -1.8560   -0.1966 N   0  0  0  0  0  0  0  0  0  0  0  0
   -2.2460   -1.7144   -0.9045 H   0  0  0  0  0  0  0  0  0  0  0  0
   -0.3519   -0.9721   -0.2343 C   0  0  1  0  0  0  0  0  0  0  0  0
    0.5014   -1.5687   -0.5755 H   0  0  0  0  0  0  0  0  0  0  0  0
   -0.5240    0.2091   -1.2200 C   0  0  0  0  0  0  0  0  0  0  0  0
    0.3125    0.8980   -1.0546 H   0  0  0  0  0  0  0  0  0  0  0  0
   -0.3909   -0.2043   -2.2246 H   0  0  0  0  0  0  0  0  0  0  0  0
   -1.8125    1.0325   -1.2677 C   0  0  0  0  0  0  0  0  0  0  0  0
   -1.7281    2.2549   -1.9573 C   0  0  0  0  0  0  0  0  0  0  0  0
   -0.7966    2.5396   -2.4387 H   0  0  0  0  0  0  0  0  0  0  0  0
   -2.8209    3.1214   -2.0524 C   0  0  0  0  0  0  0  0  0  0  0  0
   -2.7283    4.0541   -2.6013 H   0  0  0  0  0  0  0  0  0  0  0  0
   -4.0279    2.7902   -1.4381 C   0  0  0  0  0  0  0  0  0  0  0  0
   -4.8782    3.4625   -1.5090 H   0  0  0  0  0  0  0  0  0  0  0  0
   -4.1317    1.5981   -0.7210 C   0  0  0  0  0  0  0  0  0  0  0  0
   -5.0660    1.3493   -0.2257 H   0  0  0  0  0  0  0  0  0  0  0  0
   -3.0363    0.7316   -0.6280 C   0  0  0  0  0  0  0  0  0  0  0  0
   -3.1857   -0.1521   -0.0259 H   0  0  0  0  0  0  0  0  0  0  0  0
    0.0516   -0.4004    1.1441 C   0  0  0  0  0  0  0  0  0  0  0  0
    1.2353   -0.2171    1.3974 O   0  0  0  0  0  0  0  0  0  0  0  0
   -0.9053    0.1078    2.0036 N   0  0  0  0  0  0  0  0  0  0  0  0
   -1.8757   -0.0340    1.7473 H   0  0  0  0  0  0  0  0  0  0  0  0
   -0.5890    0.7217    3.2860 C   0  0  0  0  0  0  0  0  0  0  0  0
    0.0859    1.5729    3.1476 H   0  0  0  0  0  0  0  0  0  0  0  0
   -1.5027    1.0811    3.7686 H   0  0  0  0  0  0  0  0  0  0  0  0
   -0.1085   -0.0058    3.9486 H   0  0  0  0  0  0  0  0  0  0  0  0
  1  2  1  0  0  0  0
  2  3  1  0  0  0  0
  2  4  1  0  0  0  0
  2  5  1  0  0  0  0
  5  6  2  0  0  0  0
  5  7  1  0  0  0  0
  7  8  1  0  0  0  0
  7  9  1  0  0  0  0
  9 10  1  0  0  0  0
  9 11  1  0  0  0  0
  9 25  1  0  0  0  0
 11 12  1  0  0  0  0
 11 13  1  0  0  0  0
 11 14  1  0  0  0  0
 14 15  1  0  0  0  0
 14 23  2  0  0  0  0
 15 16  1  0  0  0  0
 15 17  2  0  0  0  0
 17 18  1  0  0  0  0
 17 19  1  0  0  0  0
 19 20  1  0  0  0  0
 19 21  2  0  0  0  0
 21 22  1  0  0  0  0
 21 23  1  0  0  0  0
 23 24  1  0  0  0  0
 25 26  2  0  0  0  0
 25 27  1  0  0  0  0
 27 28  1  0  0  0  0
 27 29  1  0  0  0  0
 29 30  1  0  0  0  0
 29 31  1  0  0  0  0
 29 32  1  0  0  0  0
M  END
$$$$

  -OEChem-03222214073D

 32 32  0     1  0  0  0  0  0999 V2000
   -2.8841   -4.7022    0.8179 H   0  0  0  0  0  0  0  0  0  0  0  0
   -2.9568   -3.7700    0.2502 C   0  0  0  0  0  0  0  0  0  0  0  0
   -3.8394   -3.2208    0.5867 H   0  0  0  0  0  0  0  0  0  0  0  0
   -3.0678   -4.0128   -0.8094 H   0  0  0  0  0  0  0  0  0  0  0  0
   -1.7100   -2.9317    0.4622 C   0  0  0  0  0  0  0  0  0  0  0  0
   -0.8190   -3.3398    1.1850 O   0  0  0  0  0  0  0  0  0  0  0  0
   -1.5990   -1.7000   -0.1512 N   0  0  0  0  0  0  0  0  0  0  0  0
   -2.3474   -1.4294   -0.7840 H   0  0  0  0  0  0  0  0  0  0  0  0
   -0.3874   -0.8597   -0.1189 C   0  0  1  0  0  0  0  0  0  0  0  0
    0.4206   -1.5026   -0.4866 H   0  0  0  0  0  0  0  0  0  0  0  0
   -0.4830    0.2944   -1.1396 C   0  0  0  0  0  0  0  0  0  0  0  0
    0.4630    0.8459   -1.1013 H   0  0  0  0  0  0  0  0  0  0  0  0
   -0.5482   -0.1559   -2.1351 H   0  0  0  0  0  0  0  0  0  0  0  0
   -1.6134    1.3080   -1.0248 C   0  0  0  0  0  0  0  0  0  0  0  0
   -1.6449    2.3358   -1.9819 C   0  0  0  0  0  0  0  0  0  0  0  0
   -0.8645    2.3956   -2.7353 H   0  0  0  0  0  0  0  0  0  0  0  0
   -2.6599    3.2980   -1.9819 C   0  0  0  0  0  0  0  0  0  0  0  0
   -2.6580    4.0895   -2.7258 H   0  0  0  0  0  0  0  0  0  0  0  0
   -3.6742    3.2413   -1.0249 C   0  0  0  0  0  0  0  0  0  0  0  0
   -4.4625    3.9885   -1.0210 H   0  0  0  0  0  0  0  0  0  0  0  0
   -3.6730    2.2173   -0.0761 C   0  0  0  0  0  0  0  0  0  0  0  0
   -4.4653    2.1678    0.6649 H   0  0  0  0  0  0  0  0  0  0  0  0
   -2.6565    1.2559   -0.0799 C   0  0  0  0  0  0  0  0  0  0  0  0
   -2.7109    0.4734    0.6633 H   0  0  0  0  0  0  0  0  0  0  0  0
    0.1238   -0.3990    1.2681 C   0  0  0  0  0  0  0  0  0  0  0  0
    1.3290   -0.2524    1.4275 O   0  0  0  0  0  0  0  0  0  0  0  0
   -0.7292    0.0912    2.2406 N   0  0  0  0  0  0  0  0  0  0  0  0
   -1.7126   -0.1260    2.1308 H   0  0  0  0  0  0  0  0  0  0  0  0
   -0.2640    0.5997    3.5250 C   0  0  0  0  0  0  0  0  0  0  0  0
    0.4115    1.4491    3.3778 H   0  0  0  0  0  0  0  0  0  0  0  0
   -1.1126    0.9362    4.1283 H   0  0  0  0  0  0  0  0  0  0  0  0
    0.2677   -0.1826    4.0772 H   0  0  0  0  0  0  0  0  0  0  0  0
  1  2  1  0  0  0  0
  2  3  1  0  0  0  0
  2  4  1  0  0  0  0
  2  5  1  0  0  0  0
  5  6  2  0  0  0  0
  5  7  1  0  0  0  0
  7  8  1  0  0  0  0
  7  9  1  0  0  0  0
  9 10  1  0  0  0  0
  9 11  1  0  0  0  0
  9 25  1  0  0  0  0
 11 12  1  0  0  0  0
 11 13  1  0  0  0  0
 11 14  1  0  0  0  0
 14 15  1  0  0  0  0
 14 23  2  0  0  0  0
 15 16  1  0  0  0  0
 15 17  2  0  0  0  0
 17 18  1  0  0  0  0
 17 19  1  0  0  0  0
 19 20  1  0  0  0  0
 19 21  2  0  0  0  0
 21 22  1  0  0  0  0
 21 23  1  0  0  0  0
 23 24  1  0  0  0  0
 25 26  2  0  0  0  0
 25 27  1  0  0  0  0
 27 28  1  0  0  0  0
 27 29  1  0  0  0  0
 29 30  1  0  0  0  0
 29 31  1  0  0  0  0
 29 32  1  0  0  0  0
M  END
$$$$

  -OEChem-03222214073D

 32 32  0     1  0  0  0  0  0999 V2000
   -3.0635   -4.6213    0.9201 H   0  0  0  0  0  0  0  0  0  0  0  0
   -3.1191   -3.6808    0.3645 C   0  0  0  0  0  0  0  0  0  0  0  0
   -3.9680   -3.1022    0.7362 H   0  0  0  0  0  0  0  0  0  0  0  0
   -3.2756   -3.9066   -0.6931 H   0  0  0  0  0  0  0  0  0  0  0  0
   -1.8343   -2.8932    0.5414 C   0  0  0  0  0  0  0  0  0  0  0  0
   -0.9317   -3.3457    1.2227 O   0  0  0  0  0  0  0  0  0  0  0  0
   -1.7013   -1.6551   -0.0543 N   0  0  0  0  0  0  0  0  0  0  0  0
   -2.4722   -1.3338   -0.6345 H   0  0  0  0  0  0  0  0  0  0  0  0
   -0.4602   -0.8607   -0.0593 C   0  0  1  0  0  0  0  0  0  0  0  0
    0.3021   -1.5542   -0.4336 H   0  0  0  0  0  0  0  0  0  0  0  0
   -0.5105    0.2453   -1.1350 C   0  0  0  0  0  0  0  0  0  0  0  0
    0.4532    0.7657   -1.1195 H   0  0  0  0  0  0  0  0  0  0  0  0
   -0.5849   -0.2557   -2.1058 H   0  0  0  0  0  0  0  0  0  0  0  0
   -1.6018    1.3046   -1.0799 C   0  0  0  0  0  0  0  0  0  0  0  0
   -1.7962    2.0798   -2.2357 C   0  0  0  0  0  0  0  0  0  0  0  0
   -1.1548    1.9316   -3.0999 H   0  0  0  0  0  0  0  0  0  0  0  0
   -2.7931    3.0590   -2.2955 C   0  0  0  0  0  0  0  0  0  0  0  0
   -2.9147    3.6564   -3.1945 H   0  0  0  0  0  0  0  0  0  0  0  0
   -3.6293    3.2703   -1.1981 C   0  0  0  0  0  0  0  0  0  0  0  0
   -4.4005    4.0340   -1.2388 H   0  0  0  0  0  0  0  0  0  0  0  0
   -3.4721    2.4918   -0.0502 C   0  0  0  0  0  0  0  0  0  0  0  0
   -4.1287    2.6456    0.8013 H   0  0  0  0  0  0  0  0  0  0  0  0
   -2.4738    1.5129    0.0040 C   0  0  0  0  0  0  0  0  0  0  0  0
   -2.4129    0.9189    0.9015 H   0  0  0  0  0  0  0  0  0  0  0  0
    0.1412   -0.4350    1.3035 C   0  0  0  0  0  0  0  0  0  0  0  0
    1.3571   -0.3182    1.3899 O   0  0  0  0  0  0  0  0  0  0  0  0
   -0.6325    0.0742    2.3306 N   0  0  0  0  0  0  0  0  0  0  0  0
   -1.6199   -0.1538    2.2969 H   0  0  0  0  0  0  0  0  0  0  0  0
   -0.0687    0.5306    3.5954 C   0  0  0  0  0  0  0  0  0  0  0  0
    0.6164    1.3686    3.4291 H   0  0  0  0  0  0  0  0  0  0  0  0
   -0.8656    0.8660    4.2658 H   0  0  0  0  0  0  0  0  0  0  0  0
    0.4793   -0.2811    4.0853 H   0  0  0  0  0  0  0  0  0  0  0  0
  1  2  1  0  0  0  0
  2  3  1  0  0  0  0
  2  4  1  0  0  0  0
  2  5  1  0  0  0  0
  5  6  2  0  0  0  0
  5  7  1  0  0  0  0
  7  8  1  0  0  0  0
  7  9  1  0  0  0  0
  9 10  1  0  0  0  0
  9 11  1  0  0  0  0
  9 25  1  0  0  0  0
 11 12  1  0  0  0  0
 11 13  1  0  0  0  0
 11 14  1  0  0  0  0
 14 15  1  0  0  0  0
 14 23  2  0  0  0  0
 15 16  1  0  0  0  0
 15 17  2  0  0  0  0
 17 18  1  0  0  0  0
 17 19  1  0  0  0  0
 19 20  1  0  0  0  0
 19 21  2  0  0  0  0
 21 22  1  0  0  0  0
 21 23  1  0  0  0  0
 23 24  1  0  0  0  0
 25 26  2  0  0  0  0
 25 27  1  0  0  0  0
 27 28  1  0  0  0  0
 27 29  1  0  0  0  0
 29 30  1  0  0  0  0
 29 31  1  0  0  0  0
 29 32  1  0  0  0  0
M  END
$$$$

  -OEChem-03222214073D

 32 32  0     1  0  0  0  0  0999 V2000
   -2.9069   -4.6590    0.8129 H   0  0  0  0  0  0  0  0  0  0  0  0
   -3.0028   -3.6992    0.2972 C   0  0  0  0  0  0  0  0  0  0  0  0
   -3.8325   -3.1437    0.7407 H   0  0  0  0  0  0  0  0  0  0  0  0
   -3.2202   -3.8868   -0.7571 H   0  0  0  0  0  0  0  0  0  0  0  0
   -1.7163   -2.9051    0.4260 C   0  0  0  0  0  0  0  0  0  0  0  0
   -0.7568   -3.3890    0.9994 O   0  0  0  0  0  0  0  0  0  0  0  0
   -1.6452   -1.6282   -0.0934 N   0  0  0  0  0  0  0  0  0  0  0  0
   -2.4734   -1.2687   -0.5614 H   0  0  0  0  0  0  0  0  0  0  0  0
   -0.4383   -0.7840   -0.0856 C   0  0  1  0  0  0  0  0  0  0  0  0
    0.3427   -1.4344   -0.4969 H   0  0  0  0  0  0  0  0  0  0  0  0
   -0.5446    0.3355   -1.1453 C   0  0  0  0  0  0  0  0  0  0  0  0
    0.3943    0.8993   -1.1251 H   0  0  0  0  0  0  0  0  0  0  0  0
   -0.5950   -0.1594   -2.1205 H   0  0  0  0  0  0  0  0  0  0  0  0
   -1.6805    1.3464   -1.0723 C   0  0  0  0  0  0  0  0  0  0  0  0
   -2.1342    1.8898   -2.2875 C   0  0  0  0  0  0  0  0  0  0  0  0
   -1.6882    1.5718   -3.2255 H   0  0  0  0  0  0  0  0  0  0  0  0
   -3.1598    2.8398   -2.3230 C   0  0  0  0  0  0  0  0  0  0  0  0
   -3.4977    3.2394   -3.2748 H   0  0  0  0  0  0  0  0  0  0  0  0
   -3.7422    3.2810   -1.1345 C   0  0  0  0  0  0  0  0  0  0  0  0
   -4.5355    4.0225   -1.1577 H   0  0  0  0  0  0  0  0  0  0  0  0
   -3.2861    2.7777    0.0849 C   0  0  0  0  0  0  0  0  0  0  0  0
   -3.7200    3.1360    1.0140 H   0  0  0  0  0  0  0  0  0  0  0  0
   -2.2599    1.8266    0.1144 C   0  0  0  0  0  0  0  0  0  0  0  0
   -1.9216    1.5004    1.0828 H   0  0  0  0  0  0  0  0  0  0  0  0
    0.1677   -0.4321    1.2941 C   0  0  0  0  0  0  0  0  0  0  0  0
    1.3776   -0.2651    1.3769 O   0  0  0  0  0  0  0  0  0  0  0  0
   -0.6178   -0.0321    2.3599 N   0  0  0  0  0  0  0  0  0  0  0  0
   -1.5990   -0.2856    2.3063 H   0  0  0  0  0  0  0  0  0  0  0  0
   -0.0642    0.3379    3.6572 C   0  0  0  0  0  0  0  0  0  0  0  0
    0.6215    1.1857    3.5544 H   0  0  0  0  0  0  0  0  0  0  0  0
   -0.8666    0.6265    4.3429 H   0  0  0  0  0  0  0  0  0  0  0  0
    0.4814   -0.5050    4.0947 H   0  0  0  0  0  0  0  0  0  0  0  0
  1  2  1  0  0  0  0
  2  3  1  0  0  0  0
  2  4  1  0  0  0  0
  2  5  1  0  0  0  0
  5  6  2  0  0  0  0
  5  7  1  0  0  0  0
  7  8  1  0  0  0  0
  7  9  1  0  0  0  0
  9 10  1  0  0  0  0
  9 11  1  0  0  0  0
  9 25  1  0  0  0  0
 11 12  1  0  0  0  0
 11 13  1  0  0  0  0
 11 14  1  0  0  0  0
 14 15  1  0  0  0  0
 14 23  2  0  0  0  0
 15 16  1  0  0  0  0
 15 17  2  0  0  0  0
 17 18  1  0  0  0  0
 17 19  1  0  0  0  0
 19 20  1  0  0  0  0
 19 21  2  0  0  0  0
 21 22  1  0  0  0  0
 21 23  1  0  0  0  0
 23 24  1  0  0  0  0
 25 26  2  0  0  0  0
 25 27  1  0  0  0  0
 27 28  1  0  0  0  0
 27 29  1  0  0  0  0
 29 30  1  0  0  0  0
 29 31  1  0  0  0  0
 29 32  1  0  0  0  0
M  END
$$$$

  -OEChem-03222214073D

 32 32  0     1  0  0  0  0  0999 V2000
   -2.9813   -4.5921    0.8393 H   0  0  0  0  0  0  0  0  0  0  0  0
   -3.0367   -3.6492    0.2878 C   0  0  0  0  0  0  0  0  0  0  0  0
   -3.8464   -3.0455    0.7046 H   0  0  0  0  0  0  0  0  0  0  0  0
   -3.2549   -3.8670   -0.7604 H   0  0  0  0  0  0  0  0  0  0  0  0
   -1.7205   -2.9028    0.3977 C   0  0  0  0  0  0  0  0  0  0  0  0
   -0.7822   -3.4078    0.9878 O   0  0  0  0  0  0  0  0  0  0  0  0
   -1.5964   -1.6478   -0.1640 N   0  0  0  0  0  0  0  0  0  0  0  0
   -2.4135   -1.2624   -0.6305 H   0  0  0  0  0  0  0  0  0  0  0  0
   -0.3726   -0.8276   -0.1283 C   0  0  1  0  0  0  0  0  0  0  0  0
    0.4266   -1.4766   -0.5052 H   0  0  0  0  0  0  0  0  0  0  0  0
   -0.4743    0.2994   -1.1815 C   0  0  0  0  0  0  0  0  0  0  0  0
    0.4613    0.8681   -1.1548 H   0  0  0  0  0  0  0  0  0  0  0  0
   -0.5251   -0.1765   -2.1660 H   0  0  0  0  0  0  0  0  0  0  0  0
   -1.6201    1.2903   -1.0536 C   0  0  0  0  0  0  0  0  0  0  0  0
   -2.3469    1.6275   -2.2095 C   0  0  0  0  0  0  0  0  0  0  0  0
   -2.1405    1.1248   -3.1499 H   0  0  0  0  0  0  0  0  0  0  0  0
   -3.3597    2.5920   -2.1747 C   0  0  0  0  0  0  0  0  0  0  0  0
   -3.9277    2.8171   -3.0729 H   0  0  0  0  0  0  0  0  0  0  0  0
   -3.6304    3.2767   -0.9889 C   0  0  0  0  0  0  0  0  0  0  0  0
   -4.4110    4.0316   -0.9598 H   0  0  0  0  0  0  0  0  0  0  0  0
   -2.8648    3.0146    0.1484 C   0  0  0  0  0  0  0  0  0  0  0  0
   -3.0355    3.5813    1.0592 H   0  0  0  0  0  0  0  0  0  0  0  0
   -1.8539    2.0485    0.1064 C   0  0  0  0  0  0  0  0  0  0  0  0
   -1.2237    1.9462    0.9785 H   0  0  0  0  0  0  0  0  0  0  0  0
    0.1294   -0.4649    1.2882 C   0  0  0  0  0  0  0  0  0  0  0  0
    1.3307   -0.3278    1.4778 O   0  0  0  0  0  0  0  0  0  0  0  0
   -0.7446   -0.0318    2.2695 N   0  0  0  0  0  0  0  0  0  0  0  0
   -1.7312   -0.1981    2.0982 H   0  0  0  0  0  0  0  0  0  0  0  0
   -0.3159    0.3512    3.6089 C   0  0  0  0  0  0  0  0  0  0  0  0
    0.3983    1.1800    3.5615 H   0  0  0  0  0  0  0  0  0  0  0  0
   -1.1761    0.6728    4.2038 H   0  0  0  0  0  0  0  0  0  0  0  0
    0.1597   -0.4959    4.1143 H   0  0  0  0  0  0  0  0  0  0  0  0
  1  2  1  0  0  0  0
  2  3  1  0  0  0  0
  2  4  1  0  0  0  0
  2  5  1  0  0  0  0
  5  6  2  0  0  0  0
  5  7  1  0  0  0  0
  7  8  1  0  0  0  0
  7  9  1  0  0  0  0
  9 10  1  0  0  0  0
  9 11  1  0  0  0  0
  9 25  1  0  0  0  0
 11 12  1  0  0  0  0
 11 13  1  0  0  0  0
 11 14  1  0  0  0  0
 14 15  1  0  0  0  0
 14 23  2  0  0  0  0
 15 16  1  0  0  0  0
 15 17  2  0  0  0  0
 17 18  1  0  0  0  0
 17 19  1  0  0  0  0
 19 20  1  0  0  0  0
 19 21  2  0  0  0  0
 21 22  1  0  0  0  0
 21 23  1  0  0  0  0
 23 24  1  0  0  0  0
 25 26  2  0  0  0  0
 25 27  1  0  0  0  0
 27 28  1  0  0  0  0
 27 29  1  0  0  0  0
 29 30  1  0  0  0  0
 29 31  1  0  0  0  0
 29 32  1  0  0  0  0
M  END
$$$$

  -OEChem-03222214073D

 32 32  0     1  0  0  0  0  0999 V2000
   -3.0595   -4.5091    0.8833 H   0  0  0  0  0  0  0  0  0  0  0  0
   -3.0770   -3.5851    0.2986 C   0  0  0  0  0  0  0  0  0  0  0  0
   -3.8600   -2.9340    0.6941 H   0  0  0  0  0  0  0  0  0  0  0  0
   -3.3064   -3.8311   -0.7409 H   0  0  0  0  0  0  0  0  0  0  0  0
   -1.7312   -2.8896    0.3812 C   0  0  0  0  0  0  0  0  0  0  0  0
   -0.8124   -3.4127    0.9859 O   0  0  0  0  0  0  0  0  0  0  0  0
   -1.5573   -1.6624   -0.2267 N   0  0  0  0  0  0  0  0  0  0  0  0
   -2.3663   -1.2500   -0.6837 H   0  0  0  0  0  0  0  0  0  0  0  0
   -0.3171   -0.8679   -0.1709 C   0  0  1  0  0  0  0  0  0  0  0  0
    0.4892   -1.5244   -0.5178 H   0  0  0  0  0  0  0  0  0  0  0  0
   -0.3985    0.2706   -1.2094 C   0  0  0  0  0  0  0  0  0  0  0  0
    0.5403    0.8337   -1.1758 H   0  0  0  0  0  0  0  0  0  0  0  0
   -0.4599   -0.1801   -2.2050 H   0  0  0  0  0  0  0  0  0  0  0  0
   -1.5445    1.2469   -1.0259 C   0  0  0  0  0  0  0  0  0  0  0  0
   -2.4977    1.3924   -2.0479 C   0  0  0  0  0  0  0  0  0  0  0  0
   -2.4529    0.7619   -2.9310 H   0  0  0  0  0  0  0  0  0  0  0  0
   -3.5253    2.3359   -1.9435 C   0  0  0  0  0  0  0  0  0  0  0  0
   -4.2677    2.4212   -2.7319 H   0  0  0  0  0  0  0  0  0  0  0  0
   -3.5881    3.1802   -0.8324 C   0  0  0  0  0  0  0  0  0  0  0  0
   -4.3801    3.9192   -0.7525 H   0  0  0  0  0  0  0  0  0  0  0  0
   -2.6091    3.0931    0.1599 C   0  0  0  0  0  0  0  0  0  0  0  0
   -2.6298    3.7744    1.0058 H   0  0  0  0  0  0  0  0  0  0  0  0
   -1.5845    2.1474    0.0514 C   0  0  0  0  0  0  0  0  0  0  0  0
   -0.7993    2.1471    0.8005 H   0  0  0  0  0  0  0  0  0  0  0  0
    0.1208   -0.4633    1.2545 C   0  0  0  0  0  0  0  0  0  0  0  0
    1.3127   -0.3485    1.5070 O   0  0  0  0  0  0  0  0  0  0  0  0
   -0.7978    0.0257    2.1666 N   0  0  0  0  0  0  0  0  0  0  0  0
   -1.7784   -0.0604    1.9183 H   0  0  0  0  0  0  0  0  0  0  0  0
   -0.4391    0.4955    3.4986 C   0  0  0  0  0  0  0  0  0  0  0  0
    0.2886    1.3114    3.4354 H   0  0  0  0  0  0  0  0  0  0  0  0
   -1.3267    0.8656    4.0205 H   0  0  0  0  0  0  0  0  0  0  0  0
   -0.0044   -0.3197    4.0866 H   0  0  0  0  0  0  0  0  0  0  0  0
  1  2  1  0  0  0  0
  2  3  1  0  0  0  0
  2  4  1  0  0  0  0
  2  5  1  0  0  0  0
  5  6  2  0  0  0  0
  5  7  1  0  0  0  0
  7  8  1  0  0  0  0
  7  9  1  0  0  0  0
  9 10  1  0  0  0  0
  9 11  1  0  0  0  0
  9 25  1  0  0  0  0
 11 12  1  0  0  0  0
 11 13  1  0  0  0  0
 11 14  1  0  0  0  0
 14 15  1  0  0  0  0
 14 23  2  0  0  0  0
 15 16  1  0  0  0  0
 15 17  2  0  0  0  0
 17 18  1  0  0  0  0
 17 19  1  0  0  0  0
 19 20  1  0  0  0  0
 19 21  2  0  0  0  0
 21 22  1  0  0  0  0
 21 23  1  0  0  0  0
 23 24  1  0  0  0  0
 25 26  2  0  0  0  0
 25 27  1  0  0  0  0
 27 28  1  0  0  0  0
 27 29  1  0  0  0  0
 29 30  1  0  0  0  0
 29 31  1  0  0  0  0
 29 32  1  0  0  0  0
M  END
$$$$

  -OEChem-03222214073D

 32 32  0     1  0  0  0  0  0999 V2000
   -3.1230   -4.4366    0.9101 H   0  0  0  0  0  0  0  0  0  0  0  0
   -3.1168   -3.5207    0.3123 C   0  0  0  0  0  0  0  0  0  0  0  0
   -3.8753   -2.8396    0.7051 H   0  0  0  0  0  0  0  0  0  0  0  0
   -3.3633   -3.7742   -0.7215 H   0  0  0  0  0  0  0  0  0  0  0  0
   -1.7491   -2.8670    0.3738 C   0  0  0  0  0  0  0  0  0  0  0  0
   -0.8472   -3.4015    0.9938 O   0  0  0  0  0  0  0  0  0  0  0  0
   -1.5360   -1.6661   -0.2726 N   0  0  0  0  0  0  0  0  0  0  0  0
   -2.3375   -1.2321   -0.7221 H   0  0  0  0  0  0  0  0  0  0  0  0
   -0.2826   -0.8935   -0.2028 C   0  0  1  0  0  0  0  0  0  0  0  0
    0.5247   -1.5621   -0.5224 H   0  0  0  0  0  0  0  0  0  0  0  0
   -0.3338    0.2506   -1.2348 C   0  0  0  0  0  0  0  0  0  0  0  0
    0.6119    0.8016   -1.1943 H   0  0  0  0  0  0  0  0  0  0  0  0
   -0.4041   -0.1831   -2.2374 H   0  0  0  0  0  0  0  0  0  0  0  0
   -1.4754    1.2224   -1.0221 C   0  0  0  0  0  0  0  0  0  0  0  0
   -2.5988    1.1818   -1.8636 C   0  0  0  0  0  0  0  0  0  0  0  0
   -2.6651    0.4379   -2.6521 H   0  0  0  0  0  0  0  0  0  0  0  0
   -3.6464    2.0945   -1.6987 C   0  0  0  0  0  0  0  0  0  0  0  0
   -4.5155    2.0488   -2.3487 H   0  0  0  0  0  0  0  0  0  0  0  0
   -3.5706    3.0740   -0.7047 C   0  0  0  0  0  0  0  0  0  0  0  0
   -4.3807    3.7867   -0.5785 H   0  0  0  0  0  0  0  0  0  0  0  0
   -2.4402    3.1482    0.1135 C   0  0  0  0  0  0  0  0  0  0  0  0
   -2.3675    3.9214    0.8731 H   0  0  0  0  0  0  0  0  0  0  0  0
   -1.3940    2.2356   -0.0543 C   0  0  0  0  0  0  0  0  0  0  0  0
   -0.5093    2.3226    0.5710 H   0  0  0  0  0  0  0  0  0  0  0  0
    0.1159   -0.4464    1.2217 C   0  0  0  0  0  0  0  0  0  0  0  0
    1.3003   -0.3596    1.5175 O   0  0  0  0  0  0  0  0  0  0  0  0
   -0.8230    0.0933    2.0831 N   0  0  0  0  0  0  0  0  0  0  0  0
   -1.7897    0.0861    1.7733 H   0  0  0  0  0  0  0  0  0  0  0  0
   -0.4992    0.6258    3.3999 C   0  0  0  0  0  0  0  0  0  0  0  0
    0.2142    1.4521    3.3150 H   0  0  0  0  0  0  0  0  0  0  0  0
   -1.4036    0.9988    3.8896 H   0  0  0  0  0  0  0  0  0  0  0  0
   -0.0611   -0.1555    4.0300 H   0  0  0  0  0  0  0  0  0  0  0  0
  1  2  1  0  0  0  0
  2  3  1  0  0  0  0
  2  4  1  0  0  0  0
  2  5  1  0  0  0  0
  5  6  2  0  0  0  0
  5  7  1  0  0  0  0
  7  8  1  0  0  0  0
  7  9  1  0  0  0  0
  9 10  1  0  0  0  0
  9 11  1  0  0  0  0
  9 25  1  0  0  0  0
 11 12  1  0  0  0  0
 11 13  1  0  0  0  0
 11 14  1  0  0  0  0
 14 15  1  0  0  0  0
 14 23  2  0  0  0  0
 15 16  1  0  0  0  0
 15 17  2  0  0  0  0
 17 18  1  0  0  0  0
 17 19  1  0  0  0  0
 19 20  1  0  0  0  0
 19 21  2  0  0  0  0
 21 22  1  0  0  0  0
 21 23  1  0  0  0  0
 23 24  1  0  0  0  0
 25 26  2  0  0  0  0
 25 27  1  0  0  0  0
 27 28  1  0  0  0  0
 27 29  1  0  0  0  0
 29 30  1  0  0  0  0
 29 31  1  0  0  0  0
 29 32  1  0  0  0  0
M  END
$$$$

  -OEChem-03222214073D

 32 32  0     1  0  0  0  0  0999 V2000
   -3.1619   -4.3974    0.9394 H   0  0  0  0  0  0  0  0  0  0  0  0
   -3.1432   -3.4882    0.3316 C   0  0  0  0  0  0  0  0  0  0  0  0
   -3.8789   -2.7850    0.7288 H   0  0  0  0  0  0  0  0  0  0  0  0
   -3.4122   -3.7465   -0.6953 H   0  0  0  0  0  0  0  0  0  0  0  0
   -1.7592   -2.8669    0.3636 C   0  0  0  0  0  0  0  0  0  0  0  0
   -0.8607   -3.4136    0.9780 O   0  0  0  0  0  0  0  0  0  0  0  0
   -1.5278   -1.6827   -0.3071 N   0  0  0  0  0  0  0  0  0  0  0  0
   -2.3329   -1.2272   -0.7260 H   0  0  0  0  0  0  0  0  0  0  0  0
   -0.2705   -0.9176   -0.2257 C   0  0  1  0  0  0  0  0  0  0  0  0
    0.5390   -1.5928   -0.5256 H   0  0  0  0  0  0  0  0  0  0  0  0
   -0.2912    0.2356   -1.2471 C   0  0  0  0  0  0  0  0  0  0  0  0
    0.6625    0.7720   -1.1944 H   0  0  0  0  0  0  0  0  0  0  0  0
   -0.3639   -0.1836   -2.2556 H   0  0  0  0  0  0  0  0  0  0  0  0
   -1.4274    1.2112   -1.0279 C   0  0  0  0  0  0  0  0  0  0  0  0
   -2.6672    1.0095   -1.6557 C   0  0  0  0  0  0  0  0  0  0  0  0
   -2.8106    0.1645   -2.3224 H   0  0  0  0  0  0  0  0  0  0  0  0
   -3.7250    1.9004   -1.4446 C   0  0  0  0  0  0  0  0  0  0  0  0
   -4.6798    1.7397   -1.9372 H   0  0  0  0  0  0  0  0  0  0  0  0
   -3.5507    3.0061   -0.6074 C   0  0  0  0  0  0  0  0  0  0  0  0
   -4.3698    3.7009   -0.4451 H   0  0  0  0  0  0  0  0  0  0  0  0
   -2.3163    3.2236    0.0117 C   0  0  0  0  0  0  0  0  0  0  0  0
   -2.1758    4.0866    0.6563 H   0  0  0  0  0  0  0  0  0  0  0  0
   -1.2593    2.3325   -0.2016 C   0  0  0  0  0  0  0  0  0  0  0  0
   -0.3042    2.5101    0.2862 H   0  0  0  0  0  0  0  0  0  0  0  0
    0.1032   -0.4383    1.1946 C   0  0  0  0  0  0  0  0  0  0  0  0
    1.2818   -0.3648    1.5166 O   0  0  0  0  0  0  0  0  0  0  0  0
   -0.8485    0.1310    2.0220 N   0  0  0  0  0  0  0  0  0  0  0  0
   -1.7958    0.1900    1.6613 H   0  0  0  0  0  0  0  0  0  0  0  0
   -0.5363    0.7358    3.3102 C   0  0  0  0  0  0  0  0  0  0  0  0
    0.1410    1.5862    3.1800 H   0  0  0  0  0  0  0  0  0  0  0  0
   -1.4514    1.0912    3.7929 H   0  0  0  0  0  0  0  0  0  0  0  0
   -0.0597    0.0028    3.9698 H   0  0  0  0  0  0  0  0  0  0  0  0
  1  2  1  0  0  0  0
  2  3  1  0  0  0  0
  2  4  1  0  0  0  0
  2  5  1  0  0  0  0
  5  6  2  0  0  0  0
  5  7  1  0  0  0  0
  7  8  1  0  0  0  0
  7  9  1  0  0  0  0
  9 10  1  0  0  0  0
  9 11  1  0  0  0  0
  9 25  1  0  0  0  0
 11 12  1  0  0  0  0
 11 13  1  0  0  0  0
 11 14  1  0  0  0  0
 14 15  1  0  0  0  0
 14 23  2  0  0  0  0
 15 16  1  0  0  0  0
 15 17  2  0  0  0  0
 17 18  1  0  0  0  0
 17 19  1  0  0  0  0
 19 20  1  0  0  0  0
 19 21  2  0  0  0  0
 21 22  1  0  0  0  0
 21 23  1  0  0  0  0
 23 24  1  0  0  0  0
 25 26  2  0  0  0  0
 25 27  1  0  0  0  0
 27 28  1  0  0  0  0
 27 29  1  0  0  0  0
 29 30  1  0  0  0  0
 29 31  1  0  0  0  0
 29 32  1  0  0  0  0
M  END
$$$$

  -OEChem-03222214073D

 32 32  0     1  0  0  0  0  0999 V2000
   -3.1198   -4.4329    0.9899 H   0  0  0  0  0  0  0  0  0  0  0  0
   -3.1205   -3.5272    0.3766 C   0  0  0  0  0  0  0  0  0  0  0  0
   -3.8468   -2.8236    0.7904 H   0  0  0  0  0  0  0  0  0  0  0  0
   -3.4164   -3.7923   -0.6413 H   0  0  0  0  0  0  0  0  0  0  0  0
   -1.7377   -2.9030    0.3679 C   0  0  0  0  0  0  0  0  0  0  0  0
   -0.8257   -3.4385    0.9721 O   0  0  0  0  0  0  0  0  0  0  0  0
   -1.5216   -1.7310   -0.3294 N   0  0  0  0  0  0  0  0  0  0  0  0
   -2.3387   -1.2818   -0.7282 H   0  0  0  0  0  0  0  0  0  0  0  0
   -0.2742   -0.9496   -0.2516 C   0  0  1  0  0  0  0  0  0  0  0  0
    0.5462   -1.6176   -0.5380 H   0  0  0  0  0  0  0  0  0  0  0  0
   -0.2788    0.2207   -1.2565 C   0  0  0  0  0  0  0  0  0  0  0  0
    0.6832    0.7414   -1.1957 H   0  0  0  0  0  0  0  0  0  0  0  0
   -0.3538   -0.1871   -2.2695 H   0  0  0  0  0  0  0  0  0  0  0  0
   -1.4077    1.2107   -1.0466 C   0  0  0  0  0  0  0  0  0  0  0  0
   -2.7277    0.9085   -1.4227 C   0  0  0  0  0  0  0  0  0  0  0  0
   -2.9518   -0.0140   -1.9485 H   0  0  0  0  0  0  0  0  0  0  0  0
   -3.7667    1.8088   -1.1645 C   0  0  0  0  0  0  0  0  0  0  0  0
   -4.7813    1.5737   -1.4733 H   0  0  0  0  0  0  0  0  0  0  0  0
   -3.4990    3.0186   -0.5184 C   0  0  0  0  0  0  0  0  0  0  0  0
   -4.3039    3.7202   -0.3185 H   0  0  0  0  0  0  0  0  0  0  0  0
   -2.1915    3.3285   -0.1349 C   0  0  0  0  0  0  0  0  0  0  0  0
   -1.9804    4.2674    0.3692 H   0  0  0  0  0  0  0  0  0  0  0  0
   -1.1532    2.4291   -0.3979 C   0  0  0  0  0  0  0  0  0  0  0  0
   -0.1435    2.6757   -0.0802 H   0  0  0  0  0  0  0  0  0  0  0  0
    0.0710   -0.4400    1.1660 C   0  0  0  0  0  0  0  0  0  0  0  0
    1.2428   -0.3496    1.5083 O   0  0  0  0  0  0  0  0  0  0  0  0
   -0.9052    0.1321    1.9632 N   0  0  0  0  0  0  0  0  0  0  0  0
   -1.8292    0.2268    1.5530 H   0  0  0  0  0  0  0  0  0  0  0  0
   -0.6125    0.8262    3.2102 C   0  0  0  0  0  0  0  0  0  0  0  0
   -0.0033    1.7156    3.0191 H   0  0  0  0  0  0  0  0  0  0  0  0
   -1.5415    1.1381    3.6964 H   0  0  0  0  0  0  0  0  0  0  0  0
   -0.0696    0.1676    3.8964 H   0  0  0  0  0  0  0  0  0  0  0  0
  1  2  1  0  0  0  0
  2  3  1  0  0  0  0
  2  4  1  0  0  0  0
  2  5  1  0  0  0  0
  5  6  2  0  0  0  0
  5  7  1  0  0  0  0
  7  8  1  0  0  0  0
  7  9  1  0  0  0  0
  9 10  1  0  0  0  0
  9 11  1  0  0  0  0
  9 25  1  0  0  0  0
 11 12  1  0  0  0  0
 11 13  1  0  0  0  0
 11 14  1  0  0  0  0
 14 15  1  0  0  0  0
 14 23  2  0  0  0  0
 15 16  1  0  0  0  0
 15 17  2  0  0  0  0
 17 18  1  0  0  0  0
 17 19  1  0  0  0  0
 19 20  1  0  0  0  0
 19 21  2  0  0  0  0
 21 22  1  0  0  0  0
 21 23  1  0  0  0  0
 23 24  1  0  0  0  0
 25 26  2  0  0  0  0
 25 27  1  0  0  0  0
 27 28  1  0  0  0  0
 27 29  1  0  0  0  0
 29 30  1  0  0  0  0
 29 31  1  0  0  0  0
 29 32  1  0  0  0  0
M  END
$$$$

  -OEChem-03222214073D

 32 32  0     1  0  0  0  0  0999 V2000
   -3.0156   -4.6011    0.9442 H   0  0  0  0  0  0  0  0  0  0  0  0
   -3.0368   -3.7073    0.3141 C   0  0  0  0  0  0  0  0  0  0  0  0
   -3.8845   -3.0867    0.6139 H   0  0  0  0  0  0  0  0  0  0  0  0
   -3.1665   -4.0145   -0.7264 H   0  0  0  0  0  0  0  0  0  0  0  0
   -1.7434   -2.9294    0.4697 C   0  0  0  0  0  0  0  0  0  0  0  0
   -0.8814   -3.3342    1.2286 O   0  0  0  0  0  0  0  0  0  0  0  0
   -1.5481   -1.7753   -0.2638 N   0  0  0  0  0  0  0  0  0  0  0  0
   -2.2577   -1.5417   -0.9482 H   0  0  0  0  0  0  0  0  0  0  0  0
   -0.3118   -0.9726   -0.2370 C   0  0  1  0  0  0  0  0  0  0  0  0
    0.5140   -1.6314   -0.5281 H   0  0  0  0  0  0  0  0  0  0  0  0
   -0.3474    0.2022   -1.2404 C   0  0  0  0  0  0  0  0  0  0  0  0
    0.6240    0.7075   -1.2084 H   0  0  0  0  0  0  0  0  0  0  0  0
   -0.4514   -0.2112   -2.2481 H   0  0  0  0  0  0  0  0  0  0  0  0
   -1.4595    1.2209   -1.0358 C   0  0  0  0  0  0  0  0  0  0  0  0
   -2.8276    0.8926   -1.0856 C   0  0  0  0  0  0  0  0  0  0  0  0
   -3.1575   -0.1003   -1.3626 H   0  0  0  0  0  0  0  0  0  0  0  0
   -3.8072    1.8558   -0.8204 C   0  0  0  0  0  0  0  0  0  0  0  0
   -4.8597    1.5930   -0.8754 H   0  0  0  0  0  0  0  0  0  0  0  0
   -3.4354    3.1613   -0.4933 C   0  0  0  0  0  0  0  0  0  0  0  0
   -4.1947    3.9103   -0.2881 H   0  0  0  0  0  0  0  0  0  0  0  0
   -2.0830    3.5026   -0.4340 C   0  0  0  0  0  0  0  0  0  0  0  0
   -1.7880    4.5158   -0.1766 H   0  0  0  0  0  0  0  0  0  0  0  0
   -1.1060    2.5387   -0.7006 C   0  0  0  0  0  0  0  0  0  0  0  0
   -0.0594    2.8220   -0.6300 H   0  0  0  0  0  0  0  0  0  0  0  0
    0.0506   -0.4157    1.1585 C   0  0  0  0  0  0  0  0  0  0  0  0
    1.2275   -0.3003    1.4762 O   0  0  0  0  0  0  0  0  0  0  0  0
   -0.9207    0.1637    1.9552 N   0  0  0  0  0  0  0  0  0  0  0  0
   -1.8616    0.1985    1.5753 H   0  0  0  0  0  0  0  0  0  0  0  0
   -0.6254    0.8762    3.1906 C   0  0  0  0  0  0  0  0  0  0  0  0
   -0.0052    1.7551    2.9864 H   0  0  0  0  0  0  0  0  0  0  0  0
   -1.5529    1.2083    3.6663 H   0  0  0  0  0  0  0  0  0  0  0  0
   -0.0931    0.2228    3.8900 H   0  0  0  0  0  0  0  0  0  0  0  0
  1  2  1  0  0  0  0
  2  3  1  0  0  0  0
  2  4  1  0  0  0  0
  2  5  1  0  0  0  0
  5  6  2  0  0  0  0
  5  7  1  0  0  0  0
  7  8  1  0  0  0  0
  7  9  1  0  0  0  0
  9 10  1  0  0  0  0
  9 11  1  0  0  0  0
  9 25  1  0  0  0  0
 11 12  1  0  0  0  0
 11 13  1  0  0  0  0
 11 14  1  0  0  0  0
 14 15  1  0  0  0  0
 14 23  2  0  0  0  0
 15 16  1  0  0  0  0
 15 17  2  0  0  0  0
 17 18  1  0  0  0  0
 17 19  1  0  0  0  0
 19 20  1  0  0  0  0
 19 21  2  0  0  0  0
 21 22  1  0  0  0  0
 21 23  1  0  0  0  0
 23 24  1  0  0  0  0
 25 26  2  0  0  0  0
 25 27  1  0  0  0  0
 27 28  1  0  0  0  0
 27 29  1  0  0  0  0
 29 30  1  0  0  0  0
 29 31  1  0  0  0  0
 29 32  1  0  0  0  0
M  END
$$$$

  -OEChem-03222214073D

 32 32  0     1  0  0  0  0  0999 V2000
   -2.9375   -4.6869    0.9242 H   0  0  0  0  0  0  0  0  0  0  0  0
   -2.9719   -3.7983    0.2873 C   0  0  0  0  0  0  0  0  0  0  0  0
   -3.8561   -3.2125    0.5493 H   0  0  0  0  0  0  0  0  0  0  0  0
   -3.0479   -4.1166   -0.7551 H   0  0  0  0  0  0  0  0  0  0  0  0
   -1.7199   -2.9648    0.4860 C   0  0  0  0  0  0  0  0  0  0  0  0
   -0.8650   -3.3349    1.2698 O   0  0  0  0  0  0  0  0  0  0  0  0
   -1.5571   -1.7985   -0.2364 N   0  0  0  0  0  0  0  0  0  0  0  0
   -2.2346   -1.6238   -0.9712 H   0  0  0  0  0  0  0  0  0  0  0  0
   -0.3333   -0.9771   -0.2205 C   0  0  1  0  0  0  0  0  0  0  0  0
    0.4959   -1.6195   -0.5372 H   0  0  0  0  0  0  0  0  0  0  0  0
   -0.4058    0.2133   -1.2047 C   0  0  0  0  0  0  0  0  0  0  0  0
    0.5655    0.7196   -1.1765 H   0  0  0  0  0  0  0  0  0  0  0  0
   -0.5172   -0.1930   -2.2145 H   0  0  0  0  0  0  0  0  0  0  0  0
   -1.5138    1.2449   -1.0045 C   0  0  0  0  0  0  0  0  0  0  0  0
   -2.8645    0.9335   -0.7433 C   0  0  0  0  0  0  0  0  0  0  0  0
   -3.2277   -0.0839   -0.7170 H   0  0  0  0  0  0  0  0  0  0  0  0
   -3.8096    1.9434   -0.5317 C   0  0  0  0  0  0  0  0  0  0  0  0
   -4.8472    1.6868   -0.3376 H   0  0  0  0  0  0  0  0  0  0  0  0
   -3.4257    3.2843   -0.5744 C   0  0  0  0  0  0  0  0  0  0  0  0
   -4.1594    4.0685   -0.4111 H   0  0  0  0  0  0  0  0  0  0  0  0
   -2.0945    3.6137   -0.8305 C   0  0  0  0  0  0  0  0  0  0  0  0
   -1.7887    4.6555   -0.8632 H   0  0  0  0  0  0  0  0  0  0  0  0
   -1.1517    2.6031   -1.0416 C   0  0  0  0  0  0  0  0  0  0  0  0
   -0.1204    2.8888   -1.2285 H   0  0  0  0  0  0  0  0  0  0  0  0
    0.0529   -0.4286    1.1721 C   0  0  0  0  0  0  0  0  0  0  0  0
    1.2358   -0.3056    1.4638 O   0  0  0  0  0  0  0  0  0  0  0  0
   -0.9053    0.1297    1.9990 N   0  0  0  0  0  0  0  0  0  0  0  0
   -1.8577    0.1478    1.6489 H   0  0  0  0  0  0  0  0  0  0  0  0
   -0.5896    0.8247    3.2394 C   0  0  0  0  0  0  0  0  0  0  0  0
    0.0296    1.7050    3.0378 H   0  0  0  0  0  0  0  0  0  0  0  0
   -1.5090    1.1522    3.7336 H   0  0  0  0  0  0  0  0  0  0  0  0
   -0.0487    0.1609    3.9220 H   0  0  0  0  0  0  0  0  0  0  0  0
  1  2  1  0  0  0  0
  2  3  1  0  0  0  0
  2  4  1  0  0  0  0
  2  5  1  0  0  0  0
  5  6  2  0  0  0  0
  5  7  1  0  0  0  0
  7  8  1  0  0  0  0
  7  9  1  0  0  0  0
  9 10  1  0  0  0  0
  9 11  1  0  0  0  0
  9 25  1  0  0  0  0
 11 12  1  0  0  0  0
 11 13  1  0  0  0  0
 11 14  1  0  0  0  0
 14 15  1  0  0  0  0
 14 23  2  0  0  0  0
 15 16  1  0  0  0  0
 15 17  2  0  0  0  0
 17 18  1  0  0  0  0
 17 19  1  0  0  0  0
 19 20  1  0  0  0  0
 19 21  2  0  0  0  0
 21 22  1  0  0  0  0
 21 23  1  0  0  0  0
 23 24  1  0  0  0  0
 25 26  2  0  0  0  0
 25 27  1  0  0  0  0
 27 28  1  0  0  0  0
 27 29  1  0  0  0  0
 29 30  1  0  0  0  0
 29 31  1  0  0  0  0
 29 32  1  0  0  0  0
M  END
$$$$

  -OEChem-03222214073D

 32 32  0     1  0  0  0  0  0999 V2000
   -2.9064   -4.7144    0.8728 H   0  0  0  0  0  0  0  0  0  0  0  0
   -2.9572   -3.8065    0.2649 C   0  0  0  0  0  0  0  0  0  0  0  0
   -3.8400   -3.2348    0.5605 H   0  0  0  0  0  0  0  0  0  0  0  0
   -3.0498   -4.0926   -0.7854 H   0  0  0  0  0  0  0  0  0  0  0  0
   -1.7060   -2.9726    0.4673 C   0  0  0  0  0  0  0  0  0  0  0  0
   -0.8375   -3.3595    1.2276 O   0  0  0  0  0  0  0  0  0  0  0  0
   -1.5603   -1.7837   -0.2203 N   0  0  0  0  0  0  0  0  0  0  0  0
   -2.2607   -1.5764   -0.9260 H   0  0  0  0  0  0  0  0  0  0  0  0
   -0.3405   -0.9563   -0.1991 C   0  0  1  0  0  0  0  0  0  0  0  0
    0.4845   -1.5889   -0.5449 H   0  0  0  0  0  0  0  0  0  0  0  0
   -0.4400    0.2416   -1.1701 C   0  0  0  0  0  0  0  0  0  0  0  0
    0.5252    0.7596   -1.1383 H   0  0  0  0  0  0  0  0  0  0  0  0
   -0.5474   -0.1605   -2.1820 H   0  0  0  0  0  0  0  0  0  0  0  0
   -1.5483    1.2755   -0.9752 C   0  0  0  0  0  0  0  0  0  0  0  0
   -2.8232    1.0211   -0.4244 C   0  0  0  0  0  0  0  0  0  0  0  0
   -3.1277    0.0415   -0.0862 H   0  0  0  0  0  0  0  0  0  0  0  0
   -3.7671    2.0450   -0.2885 C   0  0  0  0  0  0  0  0  0  0  0  0
   -4.7425    1.8329    0.1397 H   0  0  0  0  0  0  0  0  0  0  0  0
   -3.4618    3.3423   -0.7016 C   0  0  0  0  0  0  0  0  0  0  0  0
   -4.1947    4.1371   -0.5955 H   0  0  0  0  0  0  0  0  0  0  0  0
   -2.2097    3.6142   -1.2529 C   0  0  0  0  0  0  0  0  0  0  0  0
   -1.9656    4.6219   -1.5764 H   0  0  0  0  0  0  0  0  0  0  0  0
   -1.2675    2.5900   -1.3872 C   0  0  0  0  0  0  0  0  0  0  0  0
   -0.2990    2.8284   -1.8177 H   0  0  0  0  0  0  0  0  0  0  0  0
    0.0793   -0.4414    1.1969 C   0  0  0  0  0  0  0  0  0  0  0  0
    1.2697   -0.3311    1.4617 O   0  0  0  0  0  0  0  0  0  0  0  0
   -0.8528    0.0931    2.0680 N   0  0  0  0  0  0  0  0  0  0  0  0
   -1.8201    0.0948    1.7635 H   0  0  0  0  0  0  0  0  0  0  0  0
   -0.5021    0.7284    3.3311 C   0  0  0  0  0  0  0  0  0  0  0  0
    0.1395    1.5985    3.1570 H   0  0  0  0  0  0  0  0  0  0  0  0
   -1.4055    1.0623    3.8500 H   0  0  0  0  0  0  0  0  0  0  0  0
    0.0281    0.0218    3.9785 H   0  0  0  0  0  0  0  0  0  0  0  0
  1  2  1  0  0  0  0
  2  3  1  0  0  0  0
  2  4  1  0  0  0  0
  2  5  1  0  0  0  0
  5  6  2  0  0  0  0
  5  7  1  0  0  0  0
  7  8  1  0  0  0  0
  7  9  1  0  0  0  0
  9 10  1  0  0  0  0
  9 11  1  0  0  0  0
  9 25  1  0  0  0  0
 11 12  1  0  0  0  0
 11 13  1  0  0  0  0
 11 14  1  0  0  0  0
 14 15  1  0  0  0  0
 14 23  2  0  0  0  0
 15 16  1  0  0  0  0
 15 17  2  0  0  0  0
 17 18  1  0  0  0  0
 17 19  1  0  0  0  0
 19 20  1  0  0  0  0
 19 21  2  0  0  0  0
 21 22  1  0  0  0  0
 21 23  1  0  0  0  0
 23 24  1  0  0  0  0
 25 26  2  0  0  0  0
 25 27  1  0  0  0  0
 27 28  1  0  0  0  0
 27 29  1  0  0  0  0
 29 30  1  0  0  0  0
 29 31  1  0  0  0  0
 29 32  1  0  0  0  0
M  END
$$$$

  -OEChem-03222214073D

 32 32  0     1  0  0  0  0  0999 V2000
   -2.9144   -4.7090    0.8131 H   0  0  0  0  0  0  0  0  0  0  0  0
   -2.9734   -3.7823    0.2348 C   0  0  0  0  0  0  0  0  0  0  0  0
   -3.8575   -3.2249    0.5533 H   0  0  0  0  0  0  0  0  0  0  0  0
   -3.0709   -4.0356   -0.8237 H   0  0  0  0  0  0  0  0  0  0  0  0
   -1.7247   -2.9489    0.4558 C   0  0  0  0  0  0  0  0  0  0  0  0
   -0.8538   -3.3498    1.2063 O   0  0  0  0  0  0  0  0  0  0  0  0
   -1.5859   -1.7384   -0.1943 N   0  0  0  0  0  0  0  0  0  0  0  0
   -2.3037   -1.4966   -0.8720 H   0  0  0  0  0  0  0  0  0  0  0  0
   -0.3626   -0.9146   -0.1648 C   0  0  1  0  0  0  0  0  0  0  0  0
    0.4498   -1.5554   -0.5262 H   0  0  0  0  0  0  0  0  0  0  0  0
   -0.4590    0.2691   -1.1516 C   0  0  0  0  0  0  0  0  0  0  0  0
    0.5001    0.7980   -1.1154 H   0  0  0  0  0  0  0  0  0  0  0  0
   -0.5516   -0.1490   -2.1587 H   0  0  0  0  0  0  0  0  0  0  0  0
   -1.5693    1.3024   -0.9880 C   0  0  0  0  0  0  0  0  0  0  0  0
   -2.7239    1.1458   -0.1927 C   0  0  0  0  0  0  0  0  0  0  0  0
   -2.9095    0.2497    0.3829 H   0  0  0  0  0  0  0  0  0  0  0  0
   -3.6854    2.1594   -0.1121 C   0  0  0  0  0  0  0  0  0  0  0  0
   -4.5675    2.0256    0.5073 H   0  0  0  0  0  0  0  0  0  0  0  0
   -3.5145    3.3477   -0.8240 C   0  0  0  0  0  0  0  0  0  0  0  0
   -4.2595    4.1354   -0.7597 H   0  0  0  0  0  0  0  0  0  0  0  0
   -2.3801    3.5209   -1.6178 C   0  0  0  0  0  0  0  0  0  0  0  0
   -2.2398    4.4448   -2.1716 H   0  0  0  0  0  0  0  0  0  0  0  0
   -1.4212    2.5064   -1.6972 C   0  0  0  0  0  0  0  0  0  0  0  0
   -0.5445    2.6628   -2.3193 H   0  0  0  0  0  0  0  0  0  0  0  0
    0.1067   -0.4314    1.2278 C   0  0  0  0  0  0  0  0  0  0  0  0
    1.3068   -0.3197    1.4431 O   0  0  0  0  0  0  0  0  0  0  0  0
   -0.7824    0.0900    2.1500 N   0  0  0  0  0  0  0  0  0  0  0  0
   -1.7696   -0.0059    1.9438 H   0  0  0  0  0  0  0  0  0  0  0  0
   -0.3759    0.6459    3.4338 C   0  0  0  0  0  0  0  0  0  0  0  0
    0.3152    1.4828    3.2875 H   0  0  0  0  0  0  0  0  0  0  0  0
   -1.2498    1.0124    3.9805 H   0  0  0  0  0  0  0  0  0  0  0  0
    0.1188   -0.1188    4.0416 H   0  0  0  0  0  0  0  0  0  0  0  0
  1  2  1  0  0  0  0
  2  3  1  0  0  0  0
  2  4  1  0  0  0  0
  2  5  1  0  0  0  0
  5  6  2  0  0  0  0
  5  7  1  0  0  0  0
  7  8  1  0  0  0  0
  7  9  1  0  0  0  0
  9 10  1  0  0  0  0
  9 11  1  0  0  0  0
  9 25  1  0  0  0  0
 11 12  1  0  0  0  0
 11 13  1  0  0  0  0
 11 14  1  0  0  0  0
 14 15  1  0  0  0  0
 14 23  2  0  0  0  0
 15 16  1  0  0  0  0
 15 17  2  0  0  0  0
 17 18  1  0  0  0  0
 17 19  1  0  0  0  0
 19 20  1  0  0  0  0
 19 21  2  0  0  0  0
 21 22  1  0  0  0  0
 21 23  1  0  0  0  0
 23 24  1  0  0  0  0
 25 26  2  0  0  0  0
 25 27  1  0  0  0  0
 27 28  1  0  0  0  0
 27 29  1  0  0  0  0
 29 30  1  0  0  0  0
 29 31  1  0  0  0  0
 29 32  1  0  0  0  0
M  END
$$$$

  -OEChem-03222214073D

 32 32  0     1  0  0  0  0  0999 V2000
   -2.9121   -4.6872    0.7876 H   0  0  0  0  0  0  0  0  0  0  0  0
   -2.9752   -3.7514    0.2248 C   0  0  0  0  0  0  0  0  0  0  0  0
   -3.8554   -3.1980    0.5605 H   0  0  0  0  0  0  0  0  0  0  0  0
   -3.0833   -3.9862   -0.8369 H   0  0  0  0  0  0  0  0  0  0  0  0
   -1.7235   -2.9234    0.4471 C   0  0  0  0  0  0  0  0  0  0  0  0
   -0.8357   -3.3440    1.1668 O   0  0  0  0  0  0  0  0  0  0  0  0
   -1.6050   -1.6863   -0.1535 N   0  0  0  0  0  0  0  0  0  0  0  0
   -2.3537   -1.4022   -0.7799 H   0  0  0  0  0  0  0  0  0  0  0  0
   -0.3902   -0.8520   -0.1097 C   0  0  1  0  0  0  0  0  0  0  0  0
    0.4147   -1.4999   -0.4755 H   0  0  0  0  0  0  0  0  0  0  0  0
   -0.4696    0.3018   -1.1312 C   0  0  0  0  0  0  0  0  0  0  0  0
    0.4781    0.8496   -1.0819 H   0  0  0  0  0  0  0  0  0  0  0  0
   -0.5252   -0.1473   -2.1279 H   0  0  0  0  0  0  0  0  0  0  0  0
   -1.5969    1.3197   -1.0277 C   0  0  0  0  0  0  0  0  0  0  0  0
   -2.6139    1.3077   -0.0538 C   0  0  0  0  0  0  0  0  0  0  0  0
   -2.6765    0.5277    0.6910 H   0  0  0  0  0  0  0  0  0  0  0  0
   -3.5987    2.3017   -0.0291 C   0  0  0  0  0  0  0  0  0  0  0  0
   -4.3764    2.2784    0.7287 H   0  0  0  0  0  0  0  0  0  0  0  0
   -3.5845    3.3270   -0.9766 C   0  0  0  0  0  0  0  0  0  0  0  0
   -4.3471    4.1003   -0.9569 H   0  0  0  0  0  0  0  0  0  0  0  0
   -2.5836    3.3560   -1.9490 C   0  0  0  0  0  0  0  0  0  0  0  0
   -2.5645    4.1534   -2.6865 H   0  0  0  0  0  0  0  0  0  0  0  0
   -1.6008    2.3615   -1.9698 C   0  0  0  0  0  0  0  0  0  0  0  0
   -0.8246    2.4062   -2.7286 H   0  0  0  0  0  0  0  0  0  0  0  0
    0.1241   -0.4041    1.2801 C   0  0  0  0  0  0  0  0  0  0  0  0
    1.3299   -0.2589    1.4364 O   0  0  0  0  0  0  0  0  0  0  0  0
   -0.7242    0.0828    2.2582 N   0  0  0  0  0  0  0  0  0  0  0  0
   -1.7073   -0.1391    2.1540 H   0  0  0  0  0  0  0  0  0  0  0  0
   -0.2512    0.5758    3.5458 C   0  0  0  0  0  0  0  0  0  0  0  0
    0.4238    1.4266    3.4051 H   0  0  0  0  0  0  0  0  0  0  0  0
   -1.0957    0.9048    4.1583 H   0  0  0  0  0  0  0  0  0  0  0  0
    0.2836   -0.2133    4.0848 H   0  0  0  0  0  0  0  0  0  0  0  0
  1  2  1  0  0  0  0
  2  3  1  0  0  0  0
  2  4  1  0  0  0  0
  2  5  1  0  0  0  0
  5  6  2  0  0  0  0
  5  7  1  0  0  0  0
  7  8  1  0  0  0  0
  7  9  1  0  0  0  0
  9 10  1  0  0  0  0
  9 11  1  0  0  0  0
  9 25  1  0  0  0  0
 11 12  1  0  0  0  0
 11 13  1  0  0  0  0
 11 14  1  0  0  0  0
 14 15  1  0  0  0  0
 14 23  2  0  0  0  0
 15 16  1  0  0  0  0
 15 17  2  0  0  0  0
 17 18  1  0  0  0  0
 17 19  1  0  0  0  0
 19 20  1  0  0  0  0
 19 21  2  0  0  0  0
 21 22  1  0  0  0  0
 21 23  1  0  0  0  0
 23 24  1  0  0  0  0
 25 26  2  0  0  0  0
 25 27  1  0  0  0  0
 27 28  1  0  0  0  0
 27 29  1  0  0  0  0
 29 30  1  0  0  0  0
 29 31  1  0  0  0  0
 29 32  1  0  0  0  0
M  END
$$$$

  -OEChem-03222214073D

 32 32  0     1  0  0  0  0  0999 V2000
   -3.0788   -4.5991    0.9769 H   0  0  0  0  0  0  0  0  0  0  0  0
   -3.1333   -3.6640    0.4122 C   0  0  0  0  0  0  0  0  0  0  0  0
   -3.9719   -3.0736    0.7890 H   0  0  0  0  0  0  0  0  0  0  0  0
   -3.3050   -3.8992   -0.6409 H   0  0  0  0  0  0  0  0  0  0  0  0
   -1.8392   -2.8867    0.5636 C   0  0  0  0  0  0  0  0  0  0  0  0
   -0.9256   -3.3469    1.2247 O   0  0  0  0  0  0  0  0  0  0  0  0
   -1.7082   -1.6509   -0.0364 N   0  0  0  0  0  0  0  0  0  0  0  0
   -2.4899   -1.3211   -0.5968 H   0  0  0  0  0  0  0  0  0  0  0  0
   -0.4655   -0.8602   -0.0581 C   0  0  1  0  0  0  0  0  0  0  0  0
    0.2900   -1.5602   -0.4340 H   0  0  0  0  0  0  0  0  0  0  0  0
   -0.5210    0.2316   -1.1480 C   0  0  0  0  0  0  0  0  0  0  0  0
    0.4440    0.7503   -1.1453 H   0  0  0  0  0  0  0  0  0  0  0  0
   -0.6020   -0.2817   -2.1117 H   0  0  0  0  0  0  0  0  0  0  0  0
   -1.6102    1.2936   -1.1007 C   0  0  0  0  0  0  0  0  0  0  0  0
   -2.4251    1.5708    0.0112 C   0  0  0  0  0  0  0  0  0  0  0  0
   -2.3519    1.0008    0.9228 H   0  0  0  0  0  0  0  0  0  0  0  0
   -3.3849    2.5879   -0.0330 C   0  0  0  0  0  0  0  0  0  0  0  0
   -4.0049    2.7879    0.8360 H   0  0  0  0  0  0  0  0  0  0  0  0
   -3.5470    3.3500   -1.1911 C   0  0  0  0  0  0  0  0  0  0  0  0
   -4.2897    4.1420   -1.2245 H   0  0  0  0  0  0  0  0  0  0  0  0
   -2.7465    3.0918   -2.3048 C   0  0  0  0  0  0  0  0  0  0  0  0
   -2.8642    3.6844   -3.2073 H   0  0  0  0  0  0  0  0  0  0  0  0
   -1.7876    2.0748   -2.2554 C   0  0  0  0  0  0  0  0  0  0  0  0
   -1.1673    1.8965   -3.1292 H   0  0  0  0  0  0  0  0  0  0  0  0
    0.1536   -0.4317    1.2957 C   0  0  0  0  0  0  0  0  0  0  0  0
    1.3704   -0.3147    1.3656 O   0  0  0  0  0  0  0  0  0  0  0  0
   -0.6061    0.0829    2.3305 N   0  0  0  0  0  0  0  0  0  0  0  0
   -1.5945   -0.1427    2.3119 H   0  0  0  0  0  0  0  0  0  0  0  0
   -0.0251    0.5602    3.5795 C   0  0  0  0  0  0  0  0  0  0  0  0
    0.6715    1.3833    3.3880 H   0  0  0  0  0  0  0  0  0  0  0  0
   -0.8110    0.9245    4.2478 H   0  0  0  0  0  0  0  0  0  0  0  0
    0.5146   -0.2478    4.0844 H   0  0  0  0  0  0  0  0  0  0  0  0
  1  2  1  0  0  0  0
  2  3  1  0  0  0  0
  2  4  1  0  0  0  0
  2  5  1  0  0  0  0
  5  6  2  0  0  0  0
  5  7  1  0  0  0  0
  7  8  1  0  0  0  0
  7  9  1  0  0  0  0
  9 10  1  0  0  0  0
  9 11  1  0  0  0  0
  9 25  1  0  0  0  0
 11 12  1  0  0  0  0
 11 13  1  0  0  0  0
 11 14  1  0  0  0  0
 14 15  1  0  0  0  0
 14 23  2  0  0  0  0
 15 16  1  0  0  0  0
 15 17  2  0  0  0  0
 17 18  1  0  0  0  0
 17 19  1  0  0  0  0
 19 20  1  0  0  0  0
 19 21  2  0  0  0  0
 21 22  1  0  0  0  0
 21 23  1  0  0  0  0
 23 24  1  0  0  0  0
 25 26  2  0  0  0  0
 25 27  1  0  0  0  0
 27 28  1  0  0  0  0
 27 29  1  0  0  0  0
 29 30  1  0  0  0  0
 29 31  1  0  0  0  0
 29 32  1  0  0  0  0
M  END
$$$$

  -OEChem-03222214073D

 32 32  0     1  0  0  0  0  0999 V2000
   -2.9831   -4.5916    0.8049 H   0  0  0  0  0  0  0  0  0  0  0  0
   -3.0588   -3.6286    0.2919 C   0  0  0  0  0  0  0  0  0  0  0  0
   -3.8792   -3.0582    0.7337 H   0  0  0  0  0  0  0  0  0  0  0  0
   -3.2755   -3.8089   -0.7639 H   0  0  0  0  0  0  0  0  0  0  0  0
   -1.7580   -2.8603    0.4302 C   0  0  0  0  0  0  0  0  0  0  0  0
   -0.8156   -3.3600    1.0185 O   0  0  0  0  0  0  0  0  0  0  0  0
   -1.6557   -1.5866   -0.0912 N   0  0  0  0  0  0  0  0  0  0  0  0
   -2.4675   -1.2162   -0.5791 H   0  0  0  0  0  0  0  0  0  0  0  0
   -0.4283   -0.7727   -0.0822 C   0  0  1  0  0  0  0  0  0  0  0  0
    0.3358   -1.4442   -0.4916 H   0  0  0  0  0  0  0  0  0  0  0  0
   -0.5029    0.3487   -1.1426 C   0  0  0  0  0  0  0  0  0  0  0  0
    0.4495    0.8890   -1.1179 H   0  0  0  0  0  0  0  0  0  0  0  0
   -0.5606   -0.1444   -2.1185 H   0  0  0  0  0  0  0  0  0  0  0  0
   -1.6128    1.3891   -1.0742 C   0  0  0  0  0  0  0  0  0  0  0  0
   -2.2328    1.8352    0.1053 C   0  0  0  0  0  0  0  0  0  0  0  0
   -1.9273    1.4812    1.0748 H   0  0  0  0  0  0  0  0  0  0  0  0
   -3.2609    2.7840    0.0675 C   0  0  0  0  0  0  0  0  0  0  0  0
   -3.7222    3.1205    0.9914 H   0  0  0  0  0  0  0  0  0  0  0  0
   -3.6877    3.3091   -1.1534 C   0  0  0  0  0  0  0  0  0  0  0  0
   -4.4825    4.0490   -1.1821 H   0  0  0  0  0  0  0  0  0  0  0  0
   -3.0801    2.8860   -2.3360 C   0  0  0  0  0  0  0  0  0  0  0  0
   -3.4011    3.2964   -3.2892 H   0  0  0  0  0  0  0  0  0  0  0  0
   -2.0535    1.9373   -2.2921 C   0  0  0  0  0  0  0  0  0  0  0  0
   -1.5928    1.6269   -3.2254 H   0  0  0  0  0  0  0  0  0  0  0  0
    0.1884   -0.4308    1.2958 C   0  0  0  0  0  0  0  0  0  0  0  0
    1.4029   -0.2990    1.3758 O   0  0  0  0  0  0  0  0  0  0  0  0
   -0.5823   -0.0075    2.3632 N   0  0  0  0  0  0  0  0  0  0  0  0
   -1.5692   -0.2385    2.3145 H   0  0  0  0  0  0  0  0  0  0  0  0
   -0.0137    0.3424    3.6594 C   0  0  0  0  0  0  0  0  0  0  0  0
    0.6876    1.1775    3.5580 H   0  0  0  0  0  0  0  0  0  0  0  0
   -0.8065    0.6412    4.3515 H   0  0  0  0  0  0  0  0  0  0  0  0
    0.5174   -0.5141    4.0881 H   0  0  0  0  0  0  0  0  0  0  0  0
  1  2  1  0  0  0  0
  2  3  1  0  0  0  0
  2  4  1  0  0  0  0
  2  5  1  0  0  0  0
  5  6  2  0  0  0  0
  5  7  1  0  0  0  0
  7  8  1  0  0  0  0
  7  9  1  0  0  0  0
  9 10  1  0  0  0  0
  9 11  1  0  0  0  0
  9 25  1  0  0  0  0
 11 12  1  0  0  0  0
 11 13  1  0  0  0  0
 11 14  1  0  0  0  0
 14 15  1  0  0  0  0
 14 23  2  0  0  0  0
 15 16  1  0  0  0  0
 15 17  2  0  0  0  0
 17 18  1  0  0  0  0
 17 19  1  0  0  0  0
 19 20  1  0  0  0  0
 19 21  2  0  0  0  0
 21 22  1  0  0  0  0
 21 23  1  0  0  0  0
 23 24  1  0  0  0  0
 25 26  2  0  0  0  0
 25 27  1  0  0  0  0
 27 28  1  0  0  0  0
 27 29  1  0  0  0  0
 29 30  1  0  0  0  0
 29 31  1  0  0  0  0
 29 32  1  0  0  0  0
M  END
$$$$

  -OEChem-03222214073D

 32 32  0     1  0  0  0  0  0999 V2000
   -3.1429   -4.4390    0.8103 H   0  0  0  0  0  0  0  0  0  0  0  0
   -3.1485   -3.4937    0.2599 C   0  0  0  0  0  0  0  0  0  0  0  0
   -3.9387   -2.8566    0.6643 H   0  0  0  0  0  0  0  0  0  0  0  0
   -3.3585   -3.7008   -0.7923 H   0  0  0  0  0  0  0  0  0  0  0  0
   -1.8035   -2.8042    0.3928 C   0  0  0  0  0  0  0  0  0  0  0  0
   -0.8938   -3.3546    0.9871 O   0  0  0  0  0  0  0  0  0  0  0  0
   -1.6199   -1.5498   -0.1531 N   0  0  0  0  0  0  0  0  0  0  0  0
   -2.4148   -1.1248   -0.6239 H   0  0  0  0  0  0  0  0  0  0  0  0
   -0.3596   -0.7881   -0.1094 C   0  0  1  0  0  0  0  0  0  0  0  0
    0.4032   -1.4817   -0.4823 H   0  0  0  0  0  0  0  0  0  0  0  0
   -0.3884    0.3295   -1.1772 C   0  0  0  0  0  0  0  0  0  0  0  0
    0.5742    0.8506   -1.1357 H   0  0  0  0  0  0  0  0  0  0  0  0
   -0.4379   -0.1588   -2.1556 H   0  0  0  0  0  0  0  0  0  0  0  0
   -1.4801    1.3871   -1.0987 C   0  0  0  0  0  0  0  0  0  0  0  0
   -1.8597    2.0387    0.0860 C   0  0  0  0  0  0  0  0  0  0  0  0
   -1.2927    1.9161    0.9963 H   0  0  0  0  0  0  0  0  0  0  0  0
   -2.9324    2.9365    0.1065 C   0  0  0  0  0  0  0  0  0  0  0  0
   -3.1960    3.4448    1.0294 H   0  0  0  0  0  0  0  0  0  0  0  0
   -3.6526    3.1950   -1.0611 C   0  0  0  0  0  0  0  0  0  0  0  0
   -4.4832    3.8950   -1.0468 H   0  0  0  0  0  0  0  0  0  0  0  0
   -3.2903    2.5601   -2.2500 C   0  0  0  0  0  0  0  0  0  0  0  0
   -3.8435    2.7619   -3.1628 H   0  0  0  0  0  0  0  0  0  0  0  0
   -2.2153    1.6652   -2.2655 C   0  0  0  0  0  0  0  0  0  0  0  0
   -1.9588    1.1795   -3.2024 H   0  0  0  0  0  0  0  0  0  0  0  0
    0.1765   -0.4565    1.3028 C   0  0  0  0  0  0  0  0  0  0  0  0
    1.3858   -0.3776    1.4744 O   0  0  0  0  0  0  0  0  0  0  0  0
   -0.6584    0.0116    2.3014 N   0  0  0  0  0  0  0  0  0  0  0  0
   -1.6529   -0.1297    2.1548 H   0  0  0  0  0  0  0  0  0  0  0  0
   -0.1872    0.3539    3.6378 C   0  0  0  0  0  0  0  0  0  0  0  0
    0.5707    1.1429    3.5881 H   0  0  0  0  0  0  0  0  0  0  0  0
   -1.0188    0.7148    4.2504 H   0  0  0  0  0  0  0  0  0  0  0  0
    0.2492   -0.5242    4.1254 H   0  0  0  0  0  0  0  0  0  0  0  0
  1  2  1  0  0  0  0
  2  3  1  0  0  0  0
  2  4  1  0  0  0  0
  2  5  1  0  0  0  0
  5  6  2  0  0  0  0
  5  7  1  0  0  0  0
  7  8  1  0  0  0  0
  7  9  1  0  0  0  0
  9 10  1  0  0  0  0
  9 11  1  0  0  0  0
  9 25  1  0  0  0  0
 11 12  1  0  0  0  0
 11 13  1  0  0  0  0
 11 14  1  0  0  0  0
 14 15  1  0  0  0  0
 14 23  2  0  0  0  0
 15 16  1  0  0  0  0
 15 17  2  0  0  0  0
 17 18  1  0  0  0  0
 17 19  1  0  0  0  0
 19 20  1  0  0  0  0
 19 21  2  0  0  0  0
 21 22  1  0  0  0  0
 21 23  1  0  0  0  0
 23 24  1  0  0  0  0
 25 26  2  0  0  0  0
 25 27  1  0  0  0  0
 27 28  1  0  0  0  0
 27 29  1  0  0  0  0
 29 30  1  0  0  0  0
 29 31  1  0  0  0  0
 29 32  1  0  0  0  0
M  END
$$$$

  -OEChem-03222214073D

 32 32  0     1  0  0  0  0  0999 V2000
   -3.1960   -4.3659    0.8545 H   0  0  0  0  0  0  0  0  0  0  0  0
   -3.1714   -3.4394    0.2738 C   0  0  0  0  0  0  0  0  0  0  0  0
   -3.9347   -2.7607    0.6623 H   0  0  0  0  0  0  0  0  0  0  0  0
   -3.3965   -3.6723   -0.7697 H   0  0  0  0  0  0  0  0  0  0  0  0
   -1.8018   -2.7951    0.3764 C   0  0  0  0  0  0  0  0  0  0  0  0
   -0.9126   -3.3519    0.9949 O   0  0  0  0  0  0  0  0  0  0  0  0
   -1.5733   -1.5752   -0.2274 N   0  0  0  0  0  0  0  0  0  0  0  0
   -2.3594   -1.1324   -0.6959 H   0  0  0  0  0  0  0  0  0  0  0  0
   -0.3032   -0.8308   -0.1630 C   0  0  1  0  0  0  0  0  0  0  0  0
    0.4746   -1.5296   -0.4916 H   0  0  0  0  0  0  0  0  0  0  0  0
   -0.3148    0.2846   -1.2312 C   0  0  0  0  0  0  0  0  0  0  0  0
    0.6464    0.8074   -1.1842 H   0  0  0  0  0  0  0  0  0  0  0  0
   -0.3660   -0.1900   -2.2163 H   0  0  0  0  0  0  0  0  0  0  0  0
   -1.4170    1.3219   -1.1151 C   0  0  0  0  0  0  0  0  0  0  0  0
   -1.5659    2.1427    0.0139 C   0  0  0  0  0  0  0  0  0  0  0  0
   -0.8145    2.1445    0.7957 H   0  0  0  0  0  0  0  0  0  0  0  0
   -2.6459    3.0241    0.1253 C   0  0  0  0  0  0  0  0  0  0  0  0
   -2.7355    3.6633    0.9990 H   0  0  0  0  0  0  0  0  0  0  0  0
   -3.5994    3.0939   -0.8929 C   0  0  0  0  0  0  0  0  0  0  0  0
   -4.4360    3.7819   -0.8097 H   0  0  0  0  0  0  0  0  0  0  0  0
   -3.4658    2.2859   -2.0244 C   0  0  0  0  0  0  0  0  0  0  0  0
   -4.2022    2.3428   -2.8209 H   0  0  0  0  0  0  0  0  0  0  0  0
   -2.3838    1.4054   -2.1317 C   0  0  0  0  0  0  0  0  0  0  0  0
   -2.3032    0.7804   -3.0164 H   0  0  0  0  0  0  0  0  0  0  0  0
    0.1488   -0.4421    1.2632 C   0  0  0  0  0  0  0  0  0  0  0  0
    1.3447   -0.3768    1.5148 O   0  0  0  0  0  0  0  0  0  0  0  0
   -0.7459    0.0841    2.1783 N   0  0  0  0  0  0  0  0  0  0  0  0
   -1.7307    0.0164    1.9419 H   0  0  0  0  0  0  0  0  0  0  0  0
   -0.3653    0.5129    3.5183 C   0  0  0  0  0  0  0  0  0  0  0  0
    0.3877    1.3065    3.4687 H   0  0  0  0  0  0  0  0  0  0  0  0
   -1.2377    0.8991    4.0538 H   0  0  0  0  0  0  0  0  0  0  0  0
    0.0464   -0.3283    4.0856 H   0  0  0  0  0  0  0  0  0  0  0  0
  1  2  1  0  0  0  0
  2  3  1  0  0  0  0
  2  4  1  0  0  0  0
  2  5  1  0  0  0  0
  5  6  2  0  0  0  0
  5  7  1  0  0  0  0
  7  8  1  0  0  0  0
  7  9  1  0  0  0  0
  9 10  1  0  0  0  0
  9 11  1  0  0  0  0
  9 25  1  0  0  0  0
 11 12  1  0  0  0  0
 11 13  1  0  0  0  0
 11 14  1  0  0  0  0
 14 15  1  0  0  0  0
 14 23  2  0  0  0  0
 15 16  1  0  0  0  0
 15 17  2  0  0  0  0
 17 18  1  0  0  0  0
 17 19  1  0  0  0  0
 19 20  1  0  0  0  0
 19 21  2  0  0  0  0
 21 22  1  0  0  0  0
 21 23  1  0  0  0  0
 23 24  1  0  0  0  0
 25 26  2  0  0  0  0
 25 27  1  0  0  0  0
 27 28  1  0  0  0  0
 27 29  1  0  0  0  0
 29 30  1  0  0  0  0
 29 31  1  0  0  0  0
 29 32  1  0  0  0  0
M  END
$$$$

  -OEChem-03222214073D

 32 32  0     1  0  0  0  0  0999 V2000
   -3.1976   -4.3527    0.9034 H   0  0  0  0  0  0  0  0  0  0  0  0
   -3.1659   -3.4424    0.2976 C   0  0  0  0  0  0  0  0  0  0  0  0
   -3.9151   -2.7427    0.6755 H   0  0  0  0  0  0  0  0  0  0  0  0
   -3.4047   -3.7002   -0.7370 H   0  0  0  0  0  0  0  0  0  0  0  0
   -1.7859   -2.8158    0.3689 C   0  0  0  0  0  0  0  0  0  0  0  0
   -0.8997   -3.3662    0.9977 O   0  0  0  0  0  0  0  0  0  0  0  0
   -1.5420   -1.6241   -0.2835 N   0  0  0  0  0  0  0  0  0  0  0  0
   -2.3326   -1.1717   -0.7344 H   0  0  0  0  0  0  0  0  0  0  0  0
   -0.2743   -0.8764   -0.2053 C   0  0  1  0  0  0  0  0  0  0  0  0
    0.5209   -1.5691   -0.5035 H   0  0  0  0  0  0  0  0  0  0  0  0
   -0.2808    0.2478   -1.2609 C   0  0  0  0  0  0  0  0  0  0  0  0
    0.6765    0.7778   -1.2109 H   0  0  0  0  0  0  0  0  0  0  0  0
   -0.3385   -0.2061   -2.2552 H   0  0  0  0  0  0  0  0  0  0  0  0
   -1.4009    1.2548   -1.1007 C   0  0  0  0  0  0  0  0  0  0  0  0
   -1.3657    2.2333   -0.0954 C   0  0  0  0  0  0  0  0  0  0  0  0
   -0.4974    2.3182    0.5528 H   0  0  0  0  0  0  0  0  0  0  0  0
   -2.4325    3.1215    0.0746 C   0  0  0  0  0  0  0  0  0  0  0  0
   -2.3892    3.8774    0.8536 H   0  0  0  0  0  0  0  0  0  0  0  0
   -3.5487    3.0415   -0.7626 C   0  0  0  0  0  0  0  0  0  0  0  0
   -4.3754    3.7344   -0.6338 H   0  0  0  0  0  0  0  0  0  0  0  0
   -3.5940    2.0751   -1.7711 C   0  0  0  0  0  0  0  0  0  0  0  0
   -4.4575    2.0175   -2.4275 H   0  0  0  0  0  0  0  0  0  0  0  0
   -2.5262    1.1869   -1.9379 C   0  0  0  0  0  0  0  0  0  0  0  0
   -2.5761    0.4428   -2.7272 H   0  0  0  0  0  0  0  0  0  0  0  0
    0.1189   -0.4264    1.2198 C   0  0  0  0  0  0  0  0  0  0  0  0
    1.3018   -0.3610    1.5265 O   0  0  0  0  0  0  0  0  0  0  0  0
   -0.8162    0.1387    2.0690 N   0  0  0  0  0  0  0  0  0  0  0  0
   -1.7812    0.1438    1.7537 H   0  0  0  0  0  0  0  0  0  0  0  0
   -0.4935    0.6684    3.3872 C   0  0  0  0  0  0  0  0  0  0  0  0
    0.2439    1.4739    3.3067 H   0  0  0  0  0  0  0  0  0  0  0  0
   -1.3929    1.0695    3.8638 H   0  0  0  0  0  0  0  0  0  0  0  0
   -0.0853   -0.1220    4.0259 H   0  0  0  0  0  0  0  0  0  0  0  0
  1  2  1  0  0  0  0
  2  3  1  0  0  0  0
  2  4  1  0  0  0  0
  2  5  1  0  0  0  0
  5  6  2  0  0  0  0
  5  7  1  0  0  0  0
  7  8  1  0  0  0  0
  7  9  1  0  0  0  0
  9 10  1  0  0  0  0
  9 11  1  0  0  0  0
  9 25  1  0  0  0  0
 11 12  1  0  0  0  0
 11 13  1  0  0  0  0
 11 14  1  0  0  0  0
 14 15  1  0  0  0  0
 14 23  2  0  0  0  0
 15 16  1  0  0  0  0
 15 17  2  0  0  0  0
 17 18  1  0  0  0  0
 17 19  1  0  0  0  0
 19 20  1  0  0  0  0
 19 21  2  0  0  0  0
 21 22  1  0  0  0  0
 21 23  1  0  0  0  0
 23 24  1  0  0  0  0
 25 26  2  0  0  0  0
 25 27  1  0  0  0  0
 27 28  1  0  0  0  0
 27 29  1  0  0  0  0
 29 30  1  0  0  0  0
 29 31  1  0  0  0  0
 29 32  1  0  0  0  0
M  END
$$$$

  -OEChem-03222214073D

 32 32  0     1  0  0  0  0  0999 V2000
   -3.1770   -4.3807    0.9363 H   0  0  0  0  0  0  0  0  0  0  0  0
   -3.1544   -3.4718    0.3283 C   0  0  0  0  0  0  0  0  0  0  0  0
   -3.8877   -2.7655    0.7248 H   0  0  0  0  0  0  0  0  0  0  0  0
   -3.4230   -3.7291   -0.6990 H   0  0  0  0  0  0  0  0  0  0  0  0
   -1.7680   -2.8561    0.3624 C   0  0  0  0  0  0  0  0  0  0  0  0
   -0.8754   -3.4024    0.9857 O   0  0  0  0  0  0  0  0  0  0  0  0
   -1.5263   -1.6791   -0.3173 N   0  0  0  0  0  0  0  0  0  0  0  0
   -2.3260   -1.2239   -0.7471 H   0  0  0  0  0  0  0  0  0  0  0  0
   -0.2666   -0.9184   -0.2300 C   0  0  1  0  0  0  0  0  0  0  0  0
    0.5431   -1.5993   -0.5159 H   0  0  0  0  0  0  0  0  0  0  0  0
   -0.2730    0.2254   -1.2618 C   0  0  0  0  0  0  0  0  0  0  0  0
    0.6820    0.7590   -1.2055 H   0  0  0  0  0  0  0  0  0  0  0  0
   -0.3382   -0.2027   -2.2670 H   0  0  0  0  0  0  0  0  0  0  0  0
   -1.4077    1.2063   -1.0613 C   0  0  0  0  0  0  0  0  0  0  0  0
   -1.2439    2.3303   -0.2379 C   0  0  0  0  0  0  0  0  0  0  0  0
   -0.2961    2.5011    0.2666 H   0  0  0  0  0  0  0  0  0  0  0  0
   -2.2956    3.2327   -0.0487 C   0  0  0  0  0  0  0  0  0  0  0  0
   -2.1594    4.0960    0.5963 H   0  0  0  0  0  0  0  0  0  0  0  0
   -3.5185    3.0272   -0.6941 C   0  0  0  0  0  0  0  0  0  0  0  0
   -4.3330    3.7321   -0.5525 H   0  0  0  0  0  0  0  0  0  0  0  0
   -3.6867    1.9210   -1.5321 C   0  0  0  0  0  0  0  0  0  0  0  0
   -4.6321    1.7697   -2.0457 H   0  0  0  0  0  0  0  0  0  0  0  0
   -2.6348    1.0173   -1.7174 C   0  0  0  0  0  0  0  0  0  0  0  0
   -2.7723    0.1725   -2.3859 H   0  0  0  0  0  0  0  0  0  0  0  0
    0.0942   -0.4280    1.1902 C   0  0  0  0  0  0  0  0  0  0  0  0
    1.2696   -0.3543    1.5233 O   0  0  0  0  0  0  0  0  0  0  0  0
   -0.8642    0.1525    2.0023 N   0  0  0  0  0  0  0  0  0  0  0  0
   -1.8061    0.2150    1.6287 H   0  0  0  0  0  0  0  0  0  0  0  0
   -0.5623    0.7815    3.2816 C   0  0  0  0  0  0  0  0  0  0  0  0
    0.1072    1.6363    3.1403 H   0  0  0  0  0  0  0  0  0  0  0  0
   -1.4827    1.1358    3.7550 H   0  0  0  0  0  0  0  0  0  0  0  0
   -0.0813    0.0649    3.9555 H   0  0  0  0  0  0  0  0  0  0  0  0
  1  2  1  0  0  0  0
  2  3  1  0  0  0  0
  2  4  1  0  0  0  0
  2  5  1  0  0  0  0
  5  6  2  0  0  0  0
  5  7  1  0  0  0  0
  7  8  1  0  0  0  0
  7  9  1  0  0  0  0
  9 10  1  0  0  0  0
  9 11  1  0  0  0  0
  9 25  1  0  0  0  0
 11 12  1  0  0  0  0
 11 13  1  0  0  0  0
 11 14  1  0  0  0  0
 14 15  1  0  0  0  0
 14 23  2  0  0  0  0
 15 16  1  0  0  0  0
 15 17  2  0  0  0  0
 17 18  1  0  0  0  0
 17 19  1  0  0  0  0
 19 20  1  0  0  0  0
 19 21  2  0  0  0  0
 21 22  1  0  0  0  0
 21 23  1  0  0  0  0
 23 24  1  0  0  0  0
 25 26  2  0  0  0  0
 25 27  1  0  0  0  0
 27 28  1  0  0  0  0
 27 29  1  0  0  0  0
 29 30  1  0  0  0  0
 29 31  1  0  0  0  0
 29 32  1  0  0  0  0
M  END
$$$$

  -OEChem-03222214073D

 32 32  0     1  0  0  0  0  0999 V2000
   -3.1204   -4.4332    0.9871 H   0  0  0  0  0  0  0  0  0  0  0  0
   -3.1172   -3.5274    0.3738 C   0  0  0  0  0  0  0  0  0  0  0  0
   -3.8496   -2.8255    0.7798 H   0  0  0  0  0  0  0  0  0  0  0  0
   -3.4023   -3.7933   -0.6469 H   0  0  0  0  0  0  0  0  0  0  0  0
   -1.7365   -2.8988    0.3786 C   0  0  0  0  0  0  0  0  0  0  0  0
   -0.8294   -3.4278    0.9957 O   0  0  0  0  0  0  0  0  0  0  0  0
   -1.5176   -1.7296   -0.3221 N   0  0  0  0  0  0  0  0  0  0  0  0
   -2.3312   -1.2870   -0.7355 H   0  0  0  0  0  0  0  0  0  0  0  0
   -0.2705   -0.9473   -0.2479 C   0  0  1  0  0  0  0  0  0  0  0  0
    0.5512   -1.6135   -0.5340 H   0  0  0  0  0  0  0  0  0  0  0  0
   -0.2868    0.2178   -1.2574 C   0  0  0  0  0  0  0  0  0  0  0  0
    0.6710    0.7471   -1.2026 H   0  0  0  0  0  0  0  0  0  0  0  0
   -0.3645   -0.1916   -2.2696 H   0  0  0  0  0  0  0  0  0  0  0  0
   -1.4244    1.1928   -1.0323 C   0  0  0  0  0  0  0  0  0  0  0  0
   -1.1682    2.4442   -0.4516 C   0  0  0  0  0  0  0  0  0  0  0  0
   -0.1620    2.6980   -0.1282 H   0  0  0  0  0  0  0  0  0  0  0  0
   -2.2020    3.3660   -0.2587 C   0  0  0  0  0  0  0  0  0  0  0  0
   -1.9930    4.3247    0.2075 H   0  0  0  0  0  0  0  0  0  0  0  0
   -3.5009    3.0564   -0.6710 C   0  0  0  0  0  0  0  0  0  0  0  0
   -4.3026    3.7748   -0.5251 H   0  0  0  0  0  0  0  0  0  0  0  0
   -3.7614    1.8299   -1.2884 C   0  0  0  0  0  0  0  0  0  0  0  0
   -4.7662    1.6016   -1.6322 H   0  0  0  0  0  0  0  0  0  0  0  0
   -2.7263    0.9081   -1.4782 C   0  0  0  0  0  0  0  0  0  0  0  0
   -2.9392   -0.0217   -1.9955 H   0  0  0  0  0  0  0  0  0  0  0  0
    0.0754   -0.4311    1.1671 C   0  0  0  0  0  0  0  0  0  0  0  0
    1.2469   -0.3418    1.5102 O   0  0  0  0  0  0  0  0  0  0  0  0
   -0.9002    0.1442    1.9628 N   0  0  0  0  0  0  0  0  0  0  0  0
   -1.8287    0.2252    1.5604 H   0  0  0  0  0  0  0  0  0  0  0  0
   -0.6129    0.8200    3.2210 C   0  0  0  0  0  0  0  0  0  0  0  0
    0.0061    1.7062    3.0469 H   0  0  0  0  0  0  0  0  0  0  0  0
   -1.5439    1.1345    3.7020 H   0  0  0  0  0  0  0  0  0  0  0  0
   -0.0829    0.1476    3.9041 H   0  0  0  0  0  0  0  0  0  0  0  0
  1  2  1  0  0  0  0
  2  3  1  0  0  0  0
  2  4  1  0  0  0  0
  2  5  1  0  0  0  0
  5  6  2  0  0  0  0
  5  7  1  0  0  0  0
  7  8  1  0  0  0  0
  7  9  1  0  0  0  0
  9 10  1  0  0  0  0
  9 11  1  0  0  0  0
  9 25  1  0  0  0  0
 11 12  1  0  0  0  0
 11 13  1  0  0  0  0
 11 14  1  0  0  0  0
 14 15  1  0  0  0  0
 14 23  2  0  0  0  0
 15 16  1  0  0  0  0
 15 17  2  0  0  0  0
 17 18  1  0  0  0  0
 17 19  1  0  0  0  0
 19 20  1  0  0  0  0
 19 21  2  0  0  0  0
 21 22  1  0  0  0  0
 21 23  1  0  0  0  0
 23 24  1  0  0  0  0
 25 26  2  0  0  0  0
 25 27  1  0  0  0  0
 27 28  1  0  0  0  0
 27 29  1  0  0  0  0
 29 30  1  0  0  0  0
 29 31  1  0  0  0  0
 29 32  1  0  0  0  0
M  END
$$$$

  -OEChem-03222214073D

 32 32  0     1  0  0  0  0  0999 V2000
   -3.0202   -4.5860    0.9727 H   0  0  0  0  0  0  0  0  0  0  0  0
   -3.0419   -3.6919    0.3430 C   0  0  0  0  0  0  0  0  0  0  0  0
   -3.8689   -3.0552    0.6660 H   0  0  0  0  0  0  0  0  0  0  0  0
   -3.2061   -3.9965   -0.6934 H   0  0  0  0  0  0  0  0  0  0  0  0
   -1.7300   -2.9388    0.4613 C   0  0  0  0  0  0  0  0  0  0  0  0
   -0.8477   -3.3681    1.1825 O   0  0  0  0  0  0  0  0  0  0  0  0
   -1.5423   -1.7764   -0.2605 N   0  0  0  0  0  0  0  0  0  0  0  0
   -2.2886   -1.4967   -0.8858 H   0  0  0  0  0  0  0  0  0  0  0  0
   -0.3087   -0.9700   -0.2330 C   0  0  1  0  0  0  0  0  0  0  0  0
    0.5166   -1.6244   -0.5351 H   0  0  0  0  0  0  0  0  0  0  0  0
   -0.3535    0.2104   -1.2275 C   0  0  0  0  0  0  0  0  0  0  0  0
    0.6137    0.7238   -1.1940 H   0  0  0  0  0  0  0  0  0  0  0  0
   -0.4594   -0.1929   -2.2392 H   0  0  0  0  0  0  0  0  0  0  0  0
   -1.4738    1.2122   -0.9976 C   0  0  0  0  0  0  0  0  0  0  0  0
   -1.1412    2.5505   -0.7305 C   0  0  0  0  0  0  0  0  0  0  0  0
   -0.0998    2.8441   -0.6309 H   0  0  0  0  0  0  0  0  0  0  0  0
   -2.1348    3.5196   -0.5604 C   0  0  0  0  0  0  0  0  0  0  0  0
   -1.8572    4.5447   -0.3327 H   0  0  0  0  0  0  0  0  0  0  0  0
   -3.4807    3.1711   -0.6893 C   0  0  0  0  0  0  0  0  0  0  0  0
   -4.2523    3.9249   -0.5609 H   0  0  0  0  0  0  0  0  0  0  0  0
   -3.8282    1.8560   -1.0051 C   0  0  0  0  0  0  0  0  0  0  0  0
   -4.8738    1.5920   -1.1358 H   0  0  0  0  0  0  0  0  0  0  0  0
   -2.8322    0.8877   -1.1722 C   0  0  0  0  0  0  0  0  0  0  0  0
   -3.1383   -0.1080   -1.4669 H   0  0  0  0  0  0  0  0  0  0  0  0
    0.0615   -0.4265    1.1657 C   0  0  0  0  0  0  0  0  0  0  0  0
    1.2403   -0.3070    1.4748 O   0  0  0  0  0  0  0  0  0  0  0  0
   -0.9061    0.1416    1.9756 N   0  0  0  0  0  0  0  0  0  0  0  0
   -1.8493    0.1798    1.6020 H   0  0  0  0  0  0  0  0  0  0  0  0
   -0.6030    0.8483    3.2127 C   0  0  0  0  0  0  0  0  0  0  0  0
   -0.0194    1.7509    3.0044 H   0  0  0  0  0  0  0  0  0  0  0  0
   -1.5284    1.1406    3.7177 H   0  0  0  0  0  0  0  0  0  0  0  0
   -0.0297    0.2052    3.8889 H   0  0  0  0  0  0  0  0  0  0  0  0
  1  2  1  0  0  0  0
  2  3  1  0  0  0  0
  2  4  1  0  0  0  0
  2  5  1  0  0  0  0
  5  6  2  0  0  0  0
  5  7  1  0  0  0  0
  7  8  1  0  0  0  0
  7  9  1  0  0  0  0
  9 10  1  0  0  0  0
  9 11  1  0  0  0  0
  9 25  1  0  0  0  0
 11 12  1  0  0  0  0
 11 13  1  0  0  0  0
 11 14  1  0  0  0  0
 14 15  1  0  0  0  0
 14 23  2  0  0  0  0
 15 16  1  0  0  0  0
 15 17  2  0  0  0  0
 17 18  1  0  0  0  0
 17 19  1  0  0  0  0
 19 20  1  0  0  0  0
 19 21  2  0  0  0  0
 21 22  1  0  0  0  0
 21 23  1  0  0  0  0
 23 24  1  0  0  0  0
 25 26  2  0  0  0  0
 25 27  1  0  0  0  0
 27 28  1  0  0  0  0
 27 29  1  0  0  0  0
 29 30  1  0  0  0  0
 29 31  1  0  0  0  0
 29 32  1  0  0  0  0
M  END
$$$$

  -OEChem-03222214073D

 32 32  0     1  0  0  0  0  0999 V2000
   -2.9395   -4.6716    0.9594 H   0  0  0  0  0  0  0  0  0  0  0  0
   -2.9682   -3.7942    0.3068 C   0  0  0  0  0  0  0  0  0  0  0  0
   -3.8492   -3.1985    0.5573 H   0  0  0  0  0  0  0  0  0  0  0  0
   -3.0450   -4.1301   -0.7301 H   0  0  0  0  0  0  0  0  0  0  0  0
   -1.7115   -2.9646    0.4927 C   0  0  0  0  0  0  0  0  0  0  0  0
   -0.8513   -3.3351    1.2705 O   0  0  0  0  0  0  0  0  0  0  0  0
   -1.5518   -1.8007   -0.2340 N   0  0  0  0  0  0  0  0  0  0  0  0
   -2.2346   -1.6257   -0.9634 H   0  0  0  0  0  0  0  0  0  0  0  0
   -0.3294   -0.9775   -0.2238 C   0  0  1  0  0  0  0  0  0  0  0  0
    0.5008   -1.6177   -0.5418 H   0  0  0  0  0  0  0  0  0  0  0  0
   -0.4088    0.2122   -1.2079 C   0  0  0  0  0  0  0  0  0  0  0  0
    0.5603    0.7230   -1.1840 H   0  0  0  0  0  0  0  0  0  0  0  0
   -0.5243   -0.1926   -2.2179 H   0  0  0  0  0  0  0  0  0  0  0  0
   -1.5207    1.2358   -0.9944 C   0  0  0  0  0  0  0  0  0  0  0  0
   -1.1781    2.5970   -1.0739 C   0  0  0  0  0  0  0  0  0  0  0  0
   -0.1458    2.8907   -1.2421 H   0  0  0  0  0  0  0  0  0  0  0  0
   -2.1411    3.5994   -0.9221 C   0  0  0  0  0  0  0  0  0  0  0  0
   -1.8487    4.6445   -0.9719 H   0  0  0  0  0  0  0  0  0  0  0  0
   -3.4770    3.2575   -0.7088 C   0  0  0  0  0  0  0  0  0  0  0  0
   -4.2264    4.0350   -0.5907 H   0  0  0  0  0  0  0  0  0  0  0  0
   -3.8466    1.9126   -0.6617 C   0  0  0  0  0  0  0  0  0  0  0  0
   -4.8893    1.6457   -0.5154 H   0  0  0  0  0  0  0  0  0  0  0  0
   -2.8812    0.9115   -0.8145 C   0  0  0  0  0  0  0  0  0  0  0  0
   -3.2339   -0.1098   -0.8021 H   0  0  0  0  0  0  0  0  0  0  0  0
    0.0547   -0.4259    1.1680 C   0  0  0  0  0  0  0  0  0  0  0  0
    1.2369   -0.2982    1.4608 O   0  0  0  0  0  0  0  0  0  0  0  0
   -0.9072    0.1311    1.9918 N   0  0  0  0  0  0  0  0  0  0  0  0
   -1.8592    0.1436    1.6400 H   0  0  0  0  0  0  0  0  0  0  0  0
   -0.5973    0.8290    3.2318 C   0  0  0  0  0  0  0  0  0  0  0  0
   -0.0079    1.7288    3.0271 H   0  0  0  0  0  0  0  0  0  0  0  0
   -1.5200    1.1255    3.7395 H   0  0  0  0  0  0  0  0  0  0  0  0
   -0.0278    0.1783    3.9039 H   0  0  0  0  0  0  0  0  0  0  0  0
  1  2  1  0  0  0  0
  2  3  1  0  0  0  0
  2  4  1  0  0  0  0
  2  5  1  0  0  0  0
  5  6  2  0  0  0  0
  5  7  1  0  0  0  0
  7  8  1  0  0  0  0
  7  9  1  0  0  0  0
  9 10  1  0  0  0  0
  9 11  1  0  0  0  0
  9 25  1  0  0  0  0
 11 12  1  0  0  0  0
 11 13  1  0  0  0  0
 11 14  1  0  0  0  0
 14 15  1  0  0  0  0
 14 23  2  0  0  0  0
 15 16  1  0  0  0  0
 15 17  2  0  0  0  0
 17 18  1  0  0  0  0
 17 19  1  0  0  0  0
 19 20  1  0  0  0  0
 19 21  2  0  0  0  0
 21 22  1  0  0  0  0
 21 23  1  0  0  0  0
 23 24  1  0  0  0  0
 25 26  2  0  0  0  0
 25 27  1  0  0  0  0
 27 28  1  0  0  0  0
 27 29  1  0  0  0  0
 29 30  1  0  0  0  0
 29 31  1  0  0  0  0
 29 32  1  0  0  0  0
M  END
$$$$

  -OEChem-03222214073D

 32 32  0     1  0  0  0  0  0999 V2000
   -2.8843   -4.7244    0.9088 H   0  0  0  0  0  0  0  0  0  0  0  0
   -2.9377   -3.8286    0.2834 C   0  0  0  0  0  0  0  0  0  0  0  0
   -3.8240   -3.2557    0.5660 H   0  0  0  0  0  0  0  0  0  0  0  0
   -3.0264   -4.1352   -0.7616 H   0  0  0  0  0  0  0  0  0  0  0  0
   -1.6912   -2.9843    0.4739 C   0  0  0  0  0  0  0  0  0  0  0  0
   -0.8197   -3.3559    1.2386 O   0  0  0  0  0  0  0  0  0  0  0  0
   -1.5555   -1.8004   -0.2249 N   0  0  0  0  0  0  0  0  0  0  0  0
   -2.2563   -1.6065   -0.9341 H   0  0  0  0  0  0  0  0  0  0  0  0
   -0.3435   -0.9611   -0.2085 C   0  0  1  0  0  0  0  0  0  0  0  0
    0.4887   -1.5890   -0.5461 H   0  0  0  0  0  0  0  0  0  0  0  0
   -0.4498    0.2295   -1.1873 C   0  0  0  0  0  0  0  0  0  0  0  0
    0.5115    0.7546   -1.1564 H   0  0  0  0  0  0  0  0  0  0  0  0
   -0.5519   -0.1799   -2.1970 H   0  0  0  0  0  0  0  0  0  0  0  0
   -1.5664    1.2558   -1.0013 C   0  0  0  0  0  0  0  0  0  0  0  0
   -1.2931    2.5712   -1.4161 C   0  0  0  0  0  0  0  0  0  0  0  0
   -0.3189    2.8200   -1.8274 H   0  0  0  0  0  0  0  0  0  0  0  0
   -2.2496    3.5850   -1.3069 C   0  0  0  0  0  0  0  0  0  0  0  0
   -2.0097    4.5943   -1.6288 H   0  0  0  0  0  0  0  0  0  0  0  0
   -3.5113    3.3003   -0.7847 C   0  0  0  0  0  0  0  0  0  0  0  0
   -4.2556    4.0867   -0.6984 H   0  0  0  0  0  0  0  0  0  0  0  0
   -3.8116    2.0004   -0.3757 C   0  0  0  0  0  0  0  0  0  0  0  0
   -4.7954    1.7780    0.0276 H   0  0  0  0  0  0  0  0  0  0  0  0
   -2.8527    0.9869   -0.4853 C   0  0  0  0  0  0  0  0  0  0  0  0
   -3.1543    0.0040   -0.1539 H   0  0  0  0  0  0  0  0  0  0  0  0
    0.0664   -0.4302    1.1844 C   0  0  0  0  0  0  0  0  0  0  0  0
    1.2545   -0.2989    1.4504 O   0  0  0  0  0  0  0  0  0  0  0  0
   -0.8755    0.1024    2.0461 N   0  0  0  0  0  0  0  0  0  0  0  0
   -1.8420    0.0871    1.7395 H   0  0  0  0  0  0  0  0  0  0  0  0
   -0.5365    0.7595    3.3011 C   0  0  0  0  0  0  0  0  0  0  0  0
    0.0773    1.6469    3.1148 H   0  0  0  0  0  0  0  0  0  0  0  0
   -1.4464    1.0704    3.8230 H   0  0  0  0  0  0  0  0  0  0  0  0
    0.0192    0.0762    3.9520 H   0  0  0  0  0  0  0  0  0  0  0  0
  1  2  1  0  0  0  0
  2  3  1  0  0  0  0
  2  4  1  0  0  0  0
  2  5  1  0  0  0  0
  5  6  2  0  0  0  0
  5  7  1  0  0  0  0
  7  8  1  0  0  0  0
  7  9  1  0  0  0  0
  9 10  1  0  0  0  0
  9 11  1  0  0  0  0
  9 25  1  0  0  0  0
 11 12  1  0  0  0  0
 11 13  1  0  0  0  0
 11 14  1  0  0  0  0
 14 15  1  0  0  0  0
 14 23  2  0  0  0  0
 15 16  1  0  0  0  0
 15 17  2  0  0  0  0
 17 18  1  0  0  0  0
 17 19  1  0  0  0  0
 19 20  1  0  0  0  0
 19 21  2  0  0  0  0
 21 22  1  0  0  0  0
 21 23  1  0  0  0  0
 23 24  1  0  0  0  0
 25 26  2  0  0  0  0
 25 27  1  0  0  0  0
 27 28  1  0  0  0  0
 27 29  1  0  0  0  0
 29 30  1  0  0  0  0
 29 31  1  0  0  0  0
 29 32  1  0  0  0  0
M  END
$$$$

  -OEChem-03222214073D

 32 32  0     1  0  0  0  0  0999 V2000
   -2.8785   -4.7233    0.8477 H   0  0  0  0  0  0  0  0  0  0  0  0
   -2.9461   -3.8027    0.2608 C   0  0  0  0  0  0  0  0  0  0  0  0
   -3.8287   -3.2445    0.5819 H   0  0  0  0  0  0  0  0  0  0  0  0
   -3.0534   -4.0668   -0.7940 H   0  0  0  0  0  0  0  0  0  0  0  0
   -1.6984   -2.9630    0.4612 C   0  0  0  0  0  0  0  0  0  0  0  0
   -0.8176   -3.3526    1.2061 O   0  0  0  0  0  0  0  0  0  0  0  0
   -1.5727   -1.7578   -0.2006 N   0  0  0  0  0  0  0  0  0  0  0  0
   -2.3001   -1.5226   -0.8702 H   0  0  0  0  0  0  0  0  0  0  0  0
   -0.3603   -0.9186   -0.1775 C   0  0  1  0  0  0  0  0  0  0  0  0
    0.4615   -1.5508   -0.5329 H   0  0  0  0  0  0  0  0  0  0  0  0
   -0.4737    0.2564   -1.1724 C   0  0  0  0  0  0  0  0  0  0  0  0
    0.4785    0.7981   -1.1410 H   0  0  0  0  0  0  0  0  0  0  0  0
   -0.5622   -0.1698   -2.1767 H   0  0  0  0  0  0  0  0  0  0  0  0
   -1.5975    1.2759   -1.0144 C   0  0  0  0  0  0  0  0  0  0  0  0
   -1.4628    2.4777   -1.7295 C   0  0  0  0  0  0  0  0  0  0  0  0
   -0.5834    2.6452   -2.3448 H   0  0  0  0  0  0  0  0  0  0  0  0
   -2.4386    3.4769   -1.6655 C   0  0  0  0  0  0  0  0  0  0  0  0
   -2.3077    4.3999   -2.2230 H   0  0  0  0  0  0  0  0  0  0  0  0
   -3.5787    3.2892   -0.8832 C   0  0  0  0  0  0  0  0  0  0  0  0
   -4.3369    4.0654   -0.8299 H   0  0  0  0  0  0  0  0  0  0  0  0
   -3.7386    2.1009   -0.1688 C   0  0  0  0  0  0  0  0  0  0  0  0
   -4.6255    1.9557    0.4410 H   0  0  0  0  0  0  0  0  0  0  0  0
   -2.7605    1.1021   -0.2347 C   0  0  0  0  0  0  0  0  0  0  0  0
   -2.9395    0.2055    0.3420 H   0  0  0  0  0  0  0  0  0  0  0  0
    0.0964   -0.4172    1.2127 C   0  0  0  0  0  0  0  0  0  0  0  0
    1.2938   -0.2914    1.4352 O   0  0  0  0  0  0  0  0  0  0  0  0
   -0.8058    0.1001    2.1246 N   0  0  0  0  0  0  0  0  0  0  0  0
   -1.7902   -0.0046    1.9097 H   0  0  0  0  0  0  0  0  0  0  0  0
   -0.4167    0.6656    3.4094 C   0  0  0  0  0  0  0  0  0  0  0  0
    0.2851    1.4941    3.2672 H   0  0  0  0  0  0  0  0  0  0  0  0
   -1.2966    1.0466    3.9362 H   0  0  0  0  0  0  0  0  0  0  0  0
    0.0594   -0.0977    4.0337 H   0  0  0  0  0  0  0  0  0  0  0  0
  1  2  1  0  0  0  0
  2  3  1  0  0  0  0
  2  4  1  0  0  0  0
  2  5  1  0  0  0  0
  5  6  2  0  0  0  0
  5  7  1  0  0  0  0
  7  8  1  0  0  0  0
  7  9  1  0  0  0  0
  9 10  1  0  0  0  0
  9 11  1  0  0  0  0
  9 25  1  0  0  0  0
 11 12  1  0  0  0  0
 11 13  1  0  0  0  0
 11 14  1  0  0  0  0
 14 15  1  0  0  0  0
 14 23  2  0  0  0  0
 15 16  1  0  0  0  0
 15 17  2  0  0  0  0
 17 18  1  0  0  0  0
 17 19  1  0  0  0  0
 19 20  1  0  0  0  0
 19 21  2  0  0  0  0
 21 22  1  0  0  0  0
 21 23  1  0  0  0  0
 23 24  1  0  0  0  0
 25 26  2  0  0  0  0
 25 27  1  0  0  0  0
 27 28  1  0  0  0  0
 27 29  1  0  0  0  0
 29 30  1  0  0  0  0
 29 31  1  0  0  0  0
 29 32  1  0  0  0  0
M  END
$$$$

  -OEChem-03222214073D

 32 32  0     1  0  0  0  0  0999 V2000
   -3.1717   -4.5708    0.8384 H   0  0  0  0  0  0  0  0  0  0  0  0
   -3.2024   -3.6150    0.3076 C   0  0  0  0  0  0  0  0  0  0  0  0
   -4.0316   -3.0220    0.7005 H   0  0  0  0  0  0  0  0  0  0  0  0
   -3.3718   -3.8091   -0.7542 H   0  0  0  0  0  0  0  0  0  0  0  0
   -1.8935   -2.8706    0.4968 C   0  0  0  0  0  0  0  0  0  0  0  0
   -0.9992   -3.3705    1.1553 O   0  0  0  0  0  0  0  0  0  0  0  0
   -1.7296   -1.6183   -0.0609 N   0  0  0  0  0  0  0  0  0  0  0  0
   -2.4935   -1.2615   -0.6287 H   0  0  0  0  0  0  0  0  0  0  0  0
   -0.4679   -0.8562   -0.0430 C   0  0  1  0  0  0  0  0  0  0  0  0
    0.2672   -1.5708   -0.4315 H   0  0  0  0  0  0  0  0  0  0  0  0
   -0.4701    0.2612   -1.1080 C   0  0  0  0  0  0  0  0  0  0  0  0
    0.5705    0.5788   -1.2378 H   0  0  0  0  0  0  0  0  0  0  0  0
   -0.7882   -0.1813   -2.0574 H   0  0  0  0  0  0  0  0  0  0  0  0
   -1.2921    1.5194   -0.8818 C   0  0  0  0  0  0  0  0  0  0  0  0
   -1.2471    2.5008   -1.8860 C   0  0  0  0  0  0  0  0  0  0  0  0
   -0.5826    2.3727   -2.7357 H   0  0  0  0  0  0  0  0  0  0  0  0
   -2.0286    3.6580   -1.8075 C   0  0  0  0  0  0  0  0  0  0  0  0
   -1.9590    4.4143   -2.5840 H   0  0  0  0  0  0  0  0  0  0  0  0
   -2.8991    3.8393   -0.7316 C   0  0  0  0  0  0  0  0  0  0  0  0
   -3.5057    4.7381   -0.6664 H   0  0  0  0  0  0  0  0  0  0  0  0
   -2.9973    2.8523    0.2509 C   0  0  0  0  0  0  0  0  0  0  0  0
   -3.6909    2.9797    1.0766 H   0  0  0  0  0  0  0  0  0  0  0  0
   -2.2145    1.6956    0.1657 C   0  0  0  0  0  0  0  0  0  0  0  0
   -2.3661    0.9353    0.9168 H   0  0  0  0  0  0  0  0  0  0  0  0
    0.1532   -0.4840    1.3265 C   0  0  0  0  0  0  0  0  0  0  0  0
    1.3730   -0.4204    1.4135 O   0  0  0  0  0  0  0  0  0  0  0  0
   -0.6002    0.0168    2.3730 N   0  0  0  0  0  0  0  0  0  0  0  0
   -1.5973   -0.1599    2.3290 H   0  0  0  0  0  0  0  0  0  0  0  0
   -0.0188    0.4025    3.6531 C   0  0  0  0  0  0  0  0  0  0  0  0
    0.7083    1.2100    3.5161 H   0  0  0  0  0  0  0  0  0  0  0  0
   -0.8005    0.7552    4.3327 H   0  0  0  0  0  0  0  0  0  0  0  0
    0.4863   -0.4514    4.1169 H   0  0  0  0  0  0  0  0  0  0  0  0
  1  2  1  0  0  0  0
  2  3  1  0  0  0  0
  2  4  1  0  0  0  0
  2  5  1  0  0  0  0
  5  6  2  0  0  0  0
  5  7  1  0  0  0  0
  7  8  1  0  0  0  0
  7  9  1  0  0  0  0
  9 10  1  0  0  0  0
  9 11  1  0  0  0  0
  9 25  1  0  0  0  0
 11 12  1  0  0  0  0
 11 13  1  0  0  0  0
 11 14  1  0  0  0  0
 14 15  1  0  0  0  0
 14 23  2  0  0  0  0
 15 16  1  0  0  0  0
 15 17  2  0  0  0  0
 17 18  1  0  0  0  0
 17 19  1  0  0  0  0
 19 20  1  0  0  0  0
 19 21  2  0  0  0  0
 21 22  1  0  0  0  0
 21 23  1  0  0  0  0
 23 24  1  0  0  0  0
 25 26  2  0  0  0  0
 25 27  1  0  0  0  0
 27 28  1  0  0  0  0
 27 29  1  0  0  0  0
 29 30  1  0  0  0  0
 29 31  1  0  0  0  0
 29 32  1  0  0  0  0
M  END
$$$$

  -OEChem-03222214073D

 32 32  0     1  0  0  0  0  0999 V2000
   -3.0443   -4.6461    0.4299 H   0  0  0  0  0  0  0  0  0  0  0  0
   -3.0963   -3.6428   -0.0027 C   0  0  0  0  0  0  0  0  0  0  0  0
   -3.9453   -3.1141    0.4370 H   0  0  0  0  0  0  0  0  0  0  0  0
   -3.2497   -3.7320   -1.0808 H   0  0  0  0  0  0  0  0  0  0  0  0
   -1.8104   -2.8875    0.2759 C   0  0  0  0  0  0  0  0  0  0  0  0
   -0.9014   -3.4340    0.8747 O   0  0  0  0  0  0  0  0  0  0  0  0
   -1.6836   -1.5751   -0.1334 N   0  0  0  0  0  0  0  0  0  0  0  0
   -2.4666   -1.1682   -0.6382 H   0  0  0  0  0  0  0  0  0  0  0  0
   -0.4565   -0.7712    0.0009 C   0  0  1  0  0  0  0  0  0  0  0  0
    0.3130   -1.4377   -0.4073 H   0  0  0  0  0  0  0  0  0  0  0  0
   -0.4296    0.3969   -1.0114 C   0  0  0  0  0  0  0  0  0  0  0  0
    0.6069    0.7484   -1.0564 H   0  0  0  0  0  0  0  0  0  0  0  0
   -0.6625   -0.0255   -1.9942 H   0  0  0  0  0  0  0  0  0  0  0  0
   -1.2947    1.6349   -0.8231 C   0  0  0  0  0  0  0  0  0  0  0  0
   -1.4387    2.4754   -1.9410 C   0  0  0  0  0  0  0  0  0  0  0  0
   -0.9125    2.2435   -2.8625 H   0  0  0  0  0  0  0  0  0  0  0  0
   -2.2385    3.6216   -1.8948 C   0  0  0  0  0  0  0  0  0  0  0  0
   -2.3232    4.2613   -2.7685 H   0  0  0  0  0  0  0  0  0  0  0  0
   -2.9253    3.9441   -0.7240 C   0  0  0  0  0  0  0  0  0  0  0  0
   -3.5447    4.8355   -0.6825 H   0  0  0  0  0  0  0  0  0  0  0  0
   -2.8132    3.1134    0.3917 C   0  0  0  0  0  0  0  0  0  0  0  0
   -3.3509    3.3576    1.3029 H   0  0  0  0  0  0  0  0  0  0  0  0
   -2.0120    1.9671    0.3390 C   0  0  0  0  0  0  0  0  0  0  0  0
   -1.9808    1.3530    1.2216 H   0  0  0  0  0  0  0  0  0  0  0  0
    0.1112   -0.5367    1.4228 C   0  0  0  0  0  0  0  0  0  0  0  0
    1.3229   -0.4203    1.5543 O   0  0  0  0  0  0  0  0  0  0  0  0
   -0.6932   -0.1922    2.4943 N   0  0  0  0  0  0  0  0  0  0  0  0
   -1.6776   -0.4186    2.3996 H   0  0  0  0  0  0  0  0  0  0  0  0
   -0.1654    0.0668    3.8287 C   0  0  0  0  0  0  0  0  0  0  0  0
    0.5399    0.9042    3.8066 H   0  0  0  0  0  0  0  0  0  0  0  0
   -0.9788    0.3219    4.5145 H   0  0  0  0  0  0  0  0  0  0  0  0
    0.3506   -0.8190    4.2142 H   0  0  0  0  0  0  0  0  0  0  0  0
  1  2  1  0  0  0  0
  2  3  1  0  0  0  0
  2  4  1  0  0  0  0
  2  5  1  0  0  0  0
  5  6  2  0  0  0  0
  5  7  1  0  0  0  0
  7  8  1  0  0  0  0
  7  9  1  0  0  0  0
  9 10  1  0  0  0  0
  9 11  1  0  0  0  0
  9 25  1  0  0  0  0
 11 12  1  0  0  0  0
 11 13  1  0  0  0  0
 11 14  1  0  0  0  0
 14 15  1  0  0  0  0
 14 23  2  0  0  0  0
 15 16  1  0  0  0  0
 15 17  2  0  0  0  0
 17 18  1  0  0  0  0
 17 19  1  0  0  0  0
 19 20  1  0  0  0  0
 19 21  2  0  0  0  0
 21 22  1  0  0  0  0
 21 23  1  0  0  0  0
 23 24  1  0  0  0  0
 25 26  2  0  0  0  0
 25 27  1  0  0  0  0
 27 28  1  0  0  0  0
 27 29  1  0  0  0  0
 29 30  1  0  0  0  0
 29 31  1  0  0  0  0
 29 32  1  0  0  0  0
M  END
$$$$

  -OEChem-03222214073D

 32 32  0     1  0  0  0  0  0999 V2000
   -2.9840   -4.6281    0.7169 H   0  0  0  0  0  0  0  0  0  0  0  0
   -3.0531   -3.6539    0.2244 C   0  0  0  0  0  0  0  0  0  0  0  0
   -3.8574   -3.0805    0.6915 H   0  0  0  0  0  0  0  0  0  0  0  0
   -3.2901   -3.8096   -0.8310 H   0  0  0  0  0  0  0  0  0  0  0  0
   -1.7379   -2.9086    0.3544 C   0  0  0  0  0  0  0  0  0  0  0  0
   -0.7832   -3.4474    0.8853 O   0  0  0  0  0  0  0  0  0  0  0  0
   -1.6344   -1.6173   -0.1235 N   0  0  0  0  0  0  0  0  0  0  0  0
   -2.4657   -1.2093   -0.5427 H   0  0  0  0  0  0  0  0  0  0  0  0
   -0.4116   -0.7959   -0.0747 C   0  0  1  0  0  0  0  0  0  0  0  0
    0.3678   -1.4422   -0.4956 H   0  0  0  0  0  0  0  0  0  0  0  0
   -0.5089    0.3486   -1.1139 C   0  0  0  0  0  0  0  0  0  0  0  0
    0.5064    0.7373   -1.2478 H   0  0  0  0  0  0  0  0  0  0  0  0
   -0.7973   -0.1079   -2.0663 H   0  0  0  0  0  0  0  0  0  0  0  0
   -1.3984    1.5602   -0.8712 C   0  0  0  0  0  0  0  0  0  0  0  0
   -1.9518    2.1850   -2.0040 C   0  0  0  0  0  0  0  0  0  0  0  0
   -1.7956    1.7588   -2.9905 H   0  0  0  0  0  0  0  0  0  0  0  0
   -2.7269    3.3440   -1.8951 C   0  0  0  0  0  0  0  0  0  0  0  0
   -3.1663    3.7899   -2.7827 H   0  0  0  0  0  0  0  0  0  0  0  0
   -2.9237    3.9351   -0.6471 C   0  0  0  0  0  0  0  0  0  0  0  0
   -3.5200    4.8386   -0.5574 H   0  0  0  0  0  0  0  0  0  0  0  0
   -2.3167    3.3795    0.4796 C   0  0  0  0  0  0  0  0  0  0  0  0
   -2.4227    3.8640    1.4458 H   0  0  0  0  0  0  0  0  0  0  0  0
   -1.5432    2.2195    0.3624 C   0  0  0  0  0  0  0  0  0  0  0  0
   -1.0232    1.8930    1.2480 H   0  0  0  0  0  0  0  0  0  0  0  0
    0.1426   -0.5266    1.3433 C   0  0  0  0  0  0  0  0  0  0  0  0
    1.3500   -0.3983    1.4971 O   0  0  0  0  0  0  0  0  0  0  0  0
   -0.6948   -0.1652    2.3845 N   0  0  0  0  0  0  0  0  0  0  0  0
   -1.6859   -0.3316    2.2423 H   0  0  0  0  0  0  0  0  0  0  0  0
   -0.2142    0.1130    3.7323 C   0  0  0  0  0  0  0  0  0  0  0  0
    0.4917    0.9503    3.7236 H   0  0  0  0  0  0  0  0  0  0  0  0
   -1.0518    0.3755    4.3855 H   0  0  0  0  0  0  0  0  0  0  0  0
    0.2881   -0.7673    4.1473 H   0  0  0  0  0  0  0  0  0  0  0  0
  1  2  1  0  0  0  0
  2  3  1  0  0  0  0
  2  4  1  0  0  0  0
  2  5  1  0  0  0  0
  5  6  2  0  0  0  0
  5  7  1  0  0  0  0
  7  8  1  0  0  0  0
  7  9  1  0  0  0  0
  9 10  1  0  0  0  0
  9 11  1  0  0  0  0
  9 25  1  0  0  0  0
 11 12  1  0  0  0  0
 11 13  1  0  0  0  0
 11 14  1  0  0  0  0
 14 15  1  0  0  0  0
 14 23  2  0  0  0  0
 15 16  1  0  0  0  0
 15 17  2  0  0  0  0
 17 18  1  0  0  0  0
 17 19  1  0  0  0  0
 19 20  1  0  0  0  0
 19 21  2  0  0  0  0
 21 22  1  0  0  0  0
 21 23  1  0  0  0  0
 23 24  1  0  0  0  0
 25 26  2  0  0  0  0
 25 27  1  0  0  0  0
 27 28  1  0  0  0  0
 27 29  1  0  0  0  0
 29 30  1  0  0  0  0
 29 31  1  0  0  0  0
 29 32  1  0  0  0  0
M  END
$$$$

  -OEChem-03222214073D

 32 32  0     1  0  0  0  0  0999 V2000
   -3.0470   -4.5635    0.7832 H   0  0  0  0  0  0  0  0  0  0  0  0
   -3.0800   -3.6116    0.2456 C   0  0  0  0  0  0  0  0  0  0  0  0
   -3.8691   -2.9918    0.6778 H   0  0  0  0  0  0  0  0  0  0  0  0
   -3.3126   -3.8082   -0.8037 H   0  0  0  0  0  0  0  0  0  0  0  0
   -1.7424   -2.9036    0.3560 C   0  0  0  0  0  0  0  0  0  0  0  0
   -0.8124   -3.4474    0.9243 O   0  0  0  0  0  0  0  0  0  0  0  0
   -1.5873   -1.6446   -0.1903 N   0  0  0  0  0  0  0  0  0  0  0  0
   -2.4006   -1.2276   -0.6344 H   0  0  0  0  0  0  0  0  0  0  0  0
   -0.3485   -0.8479   -0.1224 C   0  0  1  0  0  0  0  0  0  0  0  0
    0.4451   -1.5023   -0.5012 H   0  0  0  0  0  0  0  0  0  0  0  0
   -0.4337    0.3006   -1.1561 C   0  0  0  0  0  0  0  0  0  0  0  0
    0.5803    0.6933   -1.2871 H   0  0  0  0  0  0  0  0  0  0  0  0
   -0.7264   -0.1336   -2.1173 H   0  0  0  0  0  0  0  0  0  0  0  0
   -1.3273    1.4900   -0.8467 C   0  0  0  0  0  0  0  0  0  0  0  0
   -2.1745    1.9750   -1.8592 C   0  0  0  0  0  0  0  0  0  0  0  0
   -2.2527    1.4473   -2.8051 H   0  0  0  0  0  0  0  0  0  0  0  0
   -2.9492    3.1246   -1.6695 C   0  0  0  0  0  0  0  0  0  0  0  0
   -3.6210    3.4632   -2.4530 H   0  0  0  0  0  0  0  0  0  0  0  0
   -2.8473    3.8456   -0.4787 C   0  0  0  0  0  0  0  0  0  0  0  0
   -3.4430    4.7414   -0.3289 H   0  0  0  0  0  0  0  0  0  0  0  0
   -1.9448    3.4316    0.5023 C   0  0  0  0  0  0  0  0  0  0  0  0
   -1.8206    4.0172    1.4086 H   0  0  0  0  0  0  0  0  0  0  0  0
   -1.1731    2.2820    0.3051 C   0  0  0  0  0  0  0  0  0  0  0  0
   -0.4190    2.0501    1.0477 H   0  0  0  0  0  0  0  0  0  0  0  0
    0.1174   -0.5201    1.3138 C   0  0  0  0  0  0  0  0  0  0  0  0
    1.3137   -0.4184    1.5505 O   0  0  0  0  0  0  0  0  0  0  0  0
   -0.7849   -0.0871    2.2704 N   0  0  0  0  0  0  0  0  0  0  0  0
   -1.7697   -0.1620    2.0369 H   0  0  0  0  0  0  0  0  0  0  0  0
   -0.4023    0.2807    3.6275 C   0  0  0  0  0  0  0  0  0  0  0  0
    0.3216    1.1022    3.6133 H   0  0  0  0  0  0  0  0  0  0  0  0
   -1.2808    0.6054    4.1931 H   0  0  0  0  0  0  0  0  0  0  0  0
    0.0459   -0.5757    4.1421 H   0  0  0  0  0  0  0  0  0  0  0  0
  1  2  1  0  0  0  0
  2  3  1  0  0  0  0
  2  4  1  0  0  0  0
  2  5  1  0  0  0  0
  5  6  2  0  0  0  0
  5  7  1  0  0  0  0
  7  8  1  0  0  0  0
  7  9  1  0  0  0  0
  9 10  1  0  0  0  0
  9 11  1  0  0  0  0
  9 25  1  0  0  0  0
 11 12  1  0  0  0  0
 11 13  1  0  0  0  0
 11 14  1  0  0  0  0
 14 15  1  0  0  0  0
 14 23  2  0  0  0  0
 15 16  1  0  0  0  0
 15 17  2  0  0  0  0
 17 18  1  0  0  0  0
 17 19  1  0  0  0  0
 19 20  1  0  0  0  0
 19 21  2  0  0  0  0
 21 22  1  0  0  0  0
 21 23  1  0  0  0  0
 23 24  1  0  0  0  0
 25 26  2  0  0  0  0
 25 27  1  0  0  0  0
 27 28  1  0  0  0  0
 27 29  1  0  0  0  0
 29 30  1  0  0  0  0
 29 31  1  0  0  0  0
 29 32  1  0  0  0  0
M  END
$$$$

  -OEChem-03222214073D

 32 32  0     1  0  0  0  0  0999 V2000
   -3.1075   -4.4930    0.8265 H   0  0  0  0  0  0  0  0  0  0  0  0
   -3.1104   -3.5584    0.2585 C   0  0  0  0  0  0  0  0  0  0  0  0
   -3.8797   -2.9004    0.6696 H   0  0  0  0  0  0  0  0  0  0  0  0
   -3.3488   -3.7813   -0.7843 H   0  0  0  0  0  0  0  0  0  0  0  0
   -1.7515   -2.8899    0.3477 C   0  0  0  0  0  0  0  0  0  0  0  0
   -0.8399   -3.4422    0.9370 O   0  0  0  0  0  0  0  0  0  0  0  0
   -1.5559   -1.6562   -0.2407 N   0  0  0  0  0  0  0  0  0  0  0  0
   -2.3598   -1.2205   -0.6832 H   0  0  0  0  0  0  0  0  0  0  0  0
   -0.3051   -0.8810   -0.1566 C   0  0  1  0  0  0  0  0  0  0  0  0
    0.4925   -1.5467   -0.5066 H   0  0  0  0  0  0  0  0  0  0  0  0
   -0.3671    0.2682   -1.1871 C   0  0  0  0  0  0  0  0  0  0  0  0
    0.6490    0.6573   -1.3128 H   0  0  0  0  0  0  0  0  0  0  0  0
   -0.6645   -0.1461   -2.1556 H   0  0  0  0  0  0  0  0  0  0  0  0
   -1.2617    1.4397   -0.8308 C   0  0  0  0  0  0  0  0  0  0  0  0
   -2.3377    1.7680   -1.6725 C   0  0  0  0  0  0  0  0  0  0  0  0
   -2.5703    1.1450   -2.5308 H   0  0  0  0  0  0  0  0  0  0  0  0
   -3.1337    2.8899   -1.4169 C   0  0  0  0  0  0  0  0  0  0  0  0
   -3.9749    3.1193   -2.0646 H   0  0  0  0  0  0  0  0  0  0  0  0
   -2.8378    3.7258   -0.3375 C   0  0  0  0  0  0  0  0  0  0  0  0
   -3.4506    4.6010   -0.1407 H   0  0  0  0  0  0  0  0  0  0  0  0
   -1.7329    3.4485    0.4708 C   0  0  0  0  0  0  0  0  0  0  0  0
   -1.4769    4.1137    1.2906 H   0  0  0  0  0  0  0  0  0  0  0  0
   -0.9408    2.3252    0.2122 C   0  0  0  0  0  0  0  0  0  0  0  0
   -0.0574    2.1599    0.8226 H   0  0  0  0  0  0  0  0  0  0  0  0
    0.1191   -0.5046    1.2810 C   0  0  0  0  0  0  0  0  0  0  0  0
    1.3085   -0.4219    1.5573 O   0  0  0  0  0  0  0  0  0  0  0  0
   -0.8066   -0.0154    2.1864 N   0  0  0  0  0  0  0  0  0  0  0  0
   -1.7787   -0.0128    1.8952 H   0  0  0  0  0  0  0  0  0  0  0  0
   -0.4602    0.4649    3.5175 C   0  0  0  0  0  0  0  0  0  0  0  0
    0.2475    1.2978    3.4528 H   0  0  0  0  0  0  0  0  0  0  0  0
   -1.3571    0.8137    4.0378 H   0  0  0  0  0  0  0  0  0  0  0  0
   -0.0075   -0.3390    4.1074 H   0  0  0  0  0  0  0  0  0  0  0  0
  1  2  1  0  0  0  0
  2  3  1  0  0  0  0
  2  4  1  0  0  0  0
  2  5  1  0  0  0  0
  5  6  2  0  0  0  0
  5  7  1  0  0  0  0
  7  8  1  0  0  0  0
  7  9  1  0  0  0  0
  9 10  1  0  0  0  0
  9 11  1  0  0  0  0
  9 25  1  0  0  0  0
 11 12  1  0  0  0  0
 11 13  1  0  0  0  0
 11 14  1  0  0  0  0
 14 15  1  0  0  0  0
 14 23  2  0  0  0  0
 15 16  1  0  0  0  0
 15 17  2  0  0  0  0
 17 18  1  0  0  0  0
 17 19  1  0  0  0  0
 19 20  1  0  0  0  0
 19 21  2  0  0  0  0
 21 22  1  0  0  0  0
 21 23  1  0  0  0  0
 23 24  1  0  0  0  0
 25 26  2  0  0  0  0
 25 27  1  0  0  0  0
 27 28  1  0  0  0  0
 27 29  1  0  0  0  0
 29 30  1  0  0  0  0
 29 31  1  0  0  0  0
 29 32  1  0  0  0  0
M  END
$$$$

  -OEChem-03222214073D

 32 32  0     1  0  0  0  0  0999 V2000
   -3.1555   -4.4370    0.8597 H   0  0  0  0  0  0  0  0  0  0  0  0
   -3.1388   -3.5135    0.2738 C   0  0  0  0  0  0  0  0  0  0  0  0
   -3.8915   -2.8302    0.6741 H   0  0  0  0  0  0  0  0  0  0  0  0
   -3.3852   -3.7511   -0.7638 H   0  0  0  0  0  0  0  0  0  0  0  0
   -1.7650   -2.8737    0.3473 C   0  0  0  0  0  0  0  0  0  0  0  0
   -0.8675   -3.4298    0.9546 O   0  0  0  0  0  0  0  0  0  0  0  0
   -1.5408   -1.6630   -0.2776 N   0  0  0  0  0  0  0  0  0  0  0  0
   -2.3381   -1.2169   -0.7207 H   0  0  0  0  0  0  0  0  0  0  0  0
   -0.2818   -0.9023   -0.1845 C   0  0  1  0  0  0  0  0  0  0  0  0
    0.5163   -1.5806   -0.5075 H   0  0  0  0  0  0  0  0  0  0  0  0
   -0.3130    0.2442   -1.2156 C   0  0  0  0  0  0  0  0  0  0  0  0
    0.7079    0.6231   -1.3337 H   0  0  0  0  0  0  0  0  0  0  0  0
   -0.6151   -0.1547   -2.1890 H   0  0  0  0  0  0  0  0  0  0  0  0
   -1.2042    1.4062   -0.8338 C   0  0  0  0  0  0  0  0  0  0  0  0
   -2.4459    1.5766   -1.4660 C   0  0  0  0  0  0  0  0  0  0  0  0
   -2.7851    0.8613   -2.2090 H   0  0  0  0  0  0  0  0  0  0  0  0
   -3.2626    2.6677   -1.1501 C   0  0  0  0  0  0  0  0  0  0  0  0
   -4.2253    2.7863   -1.6389 H   0  0  0  0  0  0  0  0  0  0  0  0
   -2.8353    3.6134   -0.2137 C   0  0  0  0  0  0  0  0  0  0  0  0
   -3.4664    4.4633    0.0298 H   0  0  0  0  0  0  0  0  0  0  0  0
   -1.5858    3.4731    0.3962 C   0  0  0  0  0  0  0  0  0  0  0  0
   -1.2423    4.2149    1.1116 H   0  0  0  0  0  0  0  0  0  0  0  0
   -0.7709    2.3821    0.0782 C   0  0  0  0  0  0  0  0  0  0  0  0
    0.2055    2.2932    0.5482 H   0  0  0  0  0  0  0  0  0  0  0  0
    0.1164   -0.4802    1.2481 C   0  0  0  0  0  0  0  0  0  0  0  0
    1.3009   -0.4136    1.5498 O   0  0  0  0  0  0  0  0  0  0  0  0
   -0.8209    0.0554    2.1143 N   0  0  0  0  0  0  0  0  0  0  0  0
   -1.7725    0.1330    1.7702 H   0  0  0  0  0  0  0  0  0  0  0  0
   -0.4865    0.6211    3.4144 C   0  0  0  0  0  0  0  0  0  0  0  0
    0.2029    1.4641    3.3005 H   0  0  0  0  0  0  0  0  0  0  0  0
   -1.3914    0.9787    3.9147 H   0  0  0  0  0  0  0  0  0  0  0  0
   -0.0160   -0.1365    4.0498 H   0  0  0  0  0  0  0  0  0  0  0  0
  1  2  1  0  0  0  0
  2  3  1  0  0  0  0
  2  4  1  0  0  0  0
  2  5  1  0  0  0  0
  5  6  2  0  0  0  0
  5  7  1  0  0  0  0
  7  8  1  0  0  0  0
  7  9  1  0  0  0  0
  9 10  1  0  0  0  0
  9 11  1  0  0  0  0
  9 25  1  0  0  0  0
 11 12  1  0  0  0  0
 11 13  1  0  0  0  0
 11 14  1  0  0  0  0
 14 15  1  0  0  0  0
 14 23  2  0  0  0  0
 15 16  1  0  0  0  0
 15 17  2  0  0  0  0
 17 18  1  0  0  0  0
 17 19  1  0  0  0  0
 19 20  1  0  0  0  0
 19 21  2  0  0  0  0
 21 22  1  0  0  0  0
 21 23  1  0  0  0  0
 23 24  1  0  0  0  0
 25 26  2  0  0  0  0
 25 27  1  0  0  0  0
 27 28  1  0  0  0  0
 27 29  1  0  0  0  0
 29 30  1  0  0  0  0
 29 31  1  0  0  0  0
 29 32  1  0  0  0  0
M  END
$$$$

  -OEChem-03222214073D

 32 32  0     1  0  0  0  0  0999 V2000
   -3.1761   -4.4232    0.8715 H   0  0  0  0  0  0  0  0  0  0  0  0
   -3.1577   -3.4979    0.2886 C   0  0  0  0  0  0  0  0  0  0  0  0
   -3.9013   -2.8102    0.6981 H   0  0  0  0  0  0  0  0  0  0  0  0
   -3.4157   -3.7301   -0.7475 H   0  0  0  0  0  0  0  0  0  0  0  0
   -1.7780   -2.8692    0.3519 C   0  0  0  0  0  0  0  0  0  0  0  0
   -0.8880   -3.4206    0.9743 O   0  0  0  0  0  0  0  0  0  0  0  0
   -1.5380   -1.6772   -0.3032 N   0  0  0  0  0  0  0  0  0  0  0  0
   -2.3299   -1.2312   -0.7544 H   0  0  0  0  0  0  0  0  0  0  0  0
   -0.2754   -0.9227   -0.2060 C   0  0  1  0  0  0  0  0  0  0  0  0
    0.5233   -1.6100   -0.5072 H   0  0  0  0  0  0  0  0  0  0  0  0
   -0.2770    0.2237   -1.2362 C   0  0  0  0  0  0  0  0  0  0  0  0
    0.7502    0.5875   -1.3472 H   0  0  0  0  0  0  0  0  0  0  0  0
   -0.5824   -0.1632   -2.2136 H   0  0  0  0  0  0  0  0  0  0  0  0
   -1.1634    1.3850   -0.8449 C   0  0  0  0  0  0  0  0  0  0  0  0
   -2.5113    1.4139   -1.2349 C   0  0  0  0  0  0  0  0  0  0  0  0
   -2.9242    0.6117   -1.8383 H   0  0  0  0  0  0  0  0  0  0  0  0
   -3.3353    2.4820   -0.8640 C   0  0  0  0  0  0  0  0  0  0  0  0
   -4.3771    2.4991   -1.1717 H   0  0  0  0  0  0  0  0  0  0  0  0
   -2.8166    3.5347   -0.1043 C   0  0  0  0  0  0  0  0  0  0  0  0
   -3.4540    4.3664    0.1819 H   0  0  0  0  0  0  0  0  0  0  0  0
   -1.4726    3.5209    0.2792 C   0  0  0  0  0  0  0  0  0  0  0  0
   -1.0641    4.3392    0.8654 H   0  0  0  0  0  0  0  0  0  0  0  0
   -0.6496    2.4536   -0.0938 C   0  0  0  0  0  0  0  0  0  0  0  0
    0.3931    2.4500    0.2145 H   0  0  0  0  0  0  0  0  0  0  0  0
    0.1035   -0.4615    1.2203 C   0  0  0  0  0  0  0  0  0  0  0  0
    1.2835   -0.4022    1.5408 O   0  0  0  0  0  0  0  0  0  0  0  0
   -0.8440    0.1070    2.0541 N   0  0  0  0  0  0  0  0  0  0  0  0
   -1.7716    0.2381    1.6633 H   0  0  0  0  0  0  0  0  0  0  0  0
   -0.5112    0.7590    3.3137 C   0  0  0  0  0  0  0  0  0  0  0  0
    0.1163    1.6383    3.1354 H   0  0  0  0  0  0  0  0  0  0  0  0
   -1.4230    1.0801    3.8259 H   0  0  0  0  0  0  0  0  0  0  0  0
    0.0275    0.0680    3.9707 H   0  0  0  0  0  0  0  0  0  0  0  0
  1  2  1  0  0  0  0
  2  3  1  0  0  0  0
  2  4  1  0  0  0  0
  2  5  1  0  0  0  0
  5  6  2  0  0  0  0
  5  7  1  0  0  0  0
  7  8  1  0  0  0  0
  7  9  1  0  0  0  0
  9 10  1  0  0  0  0
  9 11  1  0  0  0  0
  9 25  1  0  0  0  0
 11 12  1  0  0  0  0
 11 13  1  0  0  0  0
 11 14  1  0  0  0  0
 14 15  1  0  0  0  0
 14 23  2  0  0  0  0
 15 16  1  0  0  0  0
 15 17  2  0  0  0  0
 17 18  1  0  0  0  0
 17 19  1  0  0  0  0
 19 20  1  0  0  0  0
 19 21  2  0  0  0  0
 21 22  1  0  0  0  0
 21 23  1  0  0  0  0
 23 24  1  0  0  0  0
 25 26  2  0  0  0  0
 25 27  1  0  0  0  0
 27 28  1  0  0  0  0
 27 29  1  0  0  0  0
 29 30  1  0  0  0  0
 29 31  1  0  0  0  0
 29 32  1  0  0  0  0
M  END
$$$$

  -OEChem-03222214073D

 32 32  0     1  0  0  0  0  0999 V2000
   -3.1724   -4.4548    0.8642 H   0  0  0  0  0  0  0  0  0  0  0  0
   -3.1501   -3.5362    0.2707 C   0  0  0  0  0  0  0  0  0  0  0  0
   -3.9286   -2.8625    0.6364 H   0  0  0  0  0  0  0  0  0  0  0  0
   -3.3542   -3.7873   -0.7730 H   0  0  0  0  0  0  0  0  0  0  0  0
   -1.7913   -2.8716    0.3886 C   0  0  0  0  0  0  0  0  0  0  0  0
   -0.9249   -3.3787    1.0780 O   0  0  0  0  0  0  0  0  0  0  0  0
   -1.5443   -1.6983   -0.2960 N   0  0  0  0  0  0  0  0  0  0  0  0
   -2.3014   -1.3191   -0.8536 H   0  0  0  0  0  0  0  0  0  0  0  0
   -0.2831   -0.9399   -0.2125 C   0  0  1  0  0  0  0  0  0  0  0  0
    0.5184   -1.6299   -0.4997 H   0  0  0  0  0  0  0  0  0  0  0  0
   -0.2790    0.2046   -1.2455 C   0  0  0  0  0  0  0  0  0  0  0  0
    0.7518    0.5560   -1.3642 H   0  0  0  0  0  0  0  0  0  0  0  0
   -0.5959   -0.1819   -2.2192 H   0  0  0  0  0  0  0  0  0  0  0  0
   -1.1599    1.3741   -0.8568 C   0  0  0  0  0  0  0  0  0  0  0  0
   -2.5590    1.2978   -0.9593 C   0  0  0  0  0  0  0  0  0  0  0  0
   -3.0332    0.4159   -1.3751 H   0  0  0  0  0  0  0  0  0  0  0  0
   -3.3630    2.3660   -0.5470 C   0  0  0  0  0  0  0  0  0  0  0  0
   -4.4436    2.3027   -0.6377 H   0  0  0  0  0  0  0  0  0  0  0  0
   -2.7764    3.5210   -0.0229 C   0  0  0  0  0  0  0  0  0  0  0  0
   -3.3986    4.3518    0.2978 H   0  0  0  0  0  0  0  0  0  0  0  0
   -1.3859    3.6078    0.0851 C   0  0  0  0  0  0  0  0  0  0  0  0
   -0.9261    4.5029    0.4943 H   0  0  0  0  0  0  0  0  0  0  0  0
   -0.5834    2.5401   -0.3295 C   0  0  0  0  0  0  0  0  0  0  0  0
    0.4957    2.6147   -0.2233 H   0  0  0  0  0  0  0  0  0  0  0  0
    0.0911   -0.4370    1.2013 C   0  0  0  0  0  0  0  0  0  0  0  0
    1.2707   -0.3730    1.5235 O   0  0  0  0  0  0  0  0  0  0  0  0
   -0.8595    0.1553    2.0147 N   0  0  0  0  0  0  0  0  0  0  0  0
   -1.7809    0.2858    1.6092 H   0  0  0  0  0  0  0  0  0  0  0  0
   -0.5278    0.8599    3.2458 C   0  0  0  0  0  0  0  0  0  0  0  0
    0.0795    1.7445    3.0279 H   0  0  0  0  0  0  0  0  0  0  0  0
   -1.4413    1.1808    3.7551 H   0  0  0  0  0  0  0  0  0  0  0  0
    0.0318    0.2052    3.9224 H   0  0  0  0  0  0  0  0  0  0  0  0
  1  2  1  0  0  0  0
  2  3  1  0  0  0  0
  2  4  1  0  0  0  0
  2  5  1  0  0  0  0
  5  6  2  0  0  0  0
  5  7  1  0  0  0  0
  7  8  1  0  0  0  0
  7  9  1  0  0  0  0
  9 10  1  0  0  0  0
  9 11  1  0  0  0  0
  9 25  1  0  0  0  0
 11 12  1  0  0  0  0
 11 13  1  0  0  0  0
 11 14  1  0  0  0  0
 14 15  1  0  0  0  0
 14 23  2  0  0  0  0
 15 16  1  0  0  0  0
 15 17  2  0  0  0  0
 17 18  1  0  0  0  0
 17 19  1  0  0  0  0
 19 20  1  0  0  0  0
 19 21  2  0  0  0  0
 21 22  1  0  0  0  0
 21 23  1  0  0  0  0
 23 24  1  0  0  0  0
 25 26  2  0  0  0  0
 25 27  1  0  0  0  0
 27 28  1  0  0  0  0
 27 29  1  0  0  0  0
 29 30  1  0  0  0  0
 29 31  1  0  0  0  0
 29 32  1  0  0  0  0
M  END
$$$$

  -OEChem-03222214073D

 32 32  0     1  0  0  0  0  0999 V2000
   -3.1132   -4.5497    0.8364 H   0  0  0  0  0  0  0  0  0  0  0  0
   -3.1045   -3.6423    0.2255 C   0  0  0  0  0  0  0  0  0  0  0  0
   -3.9513   -3.0157    0.5153 H   0  0  0  0  0  0  0  0  0  0  0  0
   -3.2095   -3.9251   -0.8248 H   0  0  0  0  0  0  0  0  0  0  0  0
   -1.8048   -2.8876    0.4340 C   0  0  0  0  0  0  0  0  0  0  0  0
   -0.9679   -3.3250    1.2027 O   0  0  0  0  0  0  0  0  0  0  0  0
   -1.5753   -1.7172   -0.2626 N   0  0  0  0  0  0  0  0  0  0  0  0
   -2.2622   -1.4580   -0.9627 H   0  0  0  0  0  0  0  0  0  0  0  0
   -0.3177   -0.9492   -0.1990 C   0  0  1  0  0  0  0  0  0  0  0  0
    0.4831   -1.6363   -0.4948 H   0  0  0  0  0  0  0  0  0  0  0  0
   -0.3251    0.2028   -1.2261 C   0  0  0  0  0  0  0  0  0  0  0  0
    0.7087    0.5409   -1.3565 H   0  0  0  0  0  0  0  0  0  0  0  0
   -0.6556   -0.1826   -2.1956 H   0  0  0  0  0  0  0  0  0  0  0  0
   -1.1945    1.3898   -0.8486 C   0  0  0  0  0  0  0  0  0  0  0  0
   -2.5807    1.2679   -0.6417 C   0  0  0  0  0  0  0  0  0  0  0  0
   -3.0874    0.3245   -0.8036 H   0  0  0  0  0  0  0  0  0  0  0  0
   -3.3438    2.3694   -0.2398 C   0  0  0  0  0  0  0  0  0  0  0  0
   -4.4145    2.2659   -0.0899 H   0  0  0  0  0  0  0  0  0  0  0  0
   -2.7311    3.6075   -0.0328 C   0  0  0  0  0  0  0  0  0  0  0  0
   -3.3217    4.4637    0.2808 H   0  0  0  0  0  0  0  0  0  0  0  0
   -1.3550    3.7425   -0.2295 C   0  0  0  0  0  0  0  0  0  0  0  0
   -0.8739    4.7023   -0.0648 H   0  0  0  0  0  0  0  0  0  0  0  0
   -0.5936    2.6407   -0.6321 C   0  0  0  0  0  0  0  0  0  0  0  0
    0.4781    2.7625   -0.7624 H   0  0  0  0  0  0  0  0  0  0  0  0
    0.0775   -0.4300    1.2037 C   0  0  0  0  0  0  0  0  0  0  0  0
    1.2626   -0.3627    1.5050 O   0  0  0  0  0  0  0  0  0  0  0  0
   -0.8601    0.1653    2.0292 N   0  0  0  0  0  0  0  0  0  0  0  0
   -1.7955    0.2693    1.6494 H   0  0  0  0  0  0  0  0  0  0  0  0
   -0.5130    0.8779    3.2513 C   0  0  0  0  0  0  0  0  0  0  0  0
    0.1062    1.7513    3.0219 H   0  0  0  0  0  0  0  0  0  0  0  0
   -1.4195    1.2181    3.7606 H   0  0  0  0  0  0  0  0  0  0  0  0
    0.0393    0.2222    3.9327 H   0  0  0  0  0  0  0  0  0  0  0  0
  1  2  1  0  0  0  0
  2  3  1  0  0  0  0
  2  4  1  0  0  0  0
  2  5  1  0  0  0  0
  5  6  2  0  0  0  0
  5  7  1  0  0  0  0
  7  8  1  0  0  0  0
  7  9  1  0  0  0  0
  9 10  1  0  0  0  0
  9 11  1  0  0  0  0
  9 25  1  0  0  0  0
 11 12  1  0  0  0  0
 11 13  1  0  0  0  0
 11 14  1  0  0  0  0
 14 15  1  0  0  0  0
 14 23  2  0  0  0  0
 15 16  1  0  0  0  0
 15 17  2  0  0  0  0
 17 18  1  0  0  0  0
 17 19  1  0  0  0  0
 19 20  1  0  0  0  0
 19 21  2  0  0  0  0
 21 22  1  0  0  0  0
 21 23  1  0  0  0  0
 23 24  1  0  0  0  0
 25 26  2  0  0  0  0
 25 27  1  0  0  0  0
 27 28  1  0  0  0  0
 27 29  1  0  0  0  0
 29 30  1  0  0  0  0
 29 31  1  0  0  0  0
 29 32  1  0  0  0  0
M  END
$$$$

  -OEChem-03222214073D

 32 32  0     1  0  0  0  0  0999 V2000
   -3.0535   -4.6191    0.7796 H   0  0  0  0  0  0  0  0  0  0  0  0
   -3.0660   -3.6945    0.1953 C   0  0  0  0  0  0  0  0  0  0  0  0
   -3.9323   -3.1002    0.4956 H   0  0  0  0  0  0  0  0  0  0  0  0
   -3.1553   -3.9500   -0.8633 H   0  0  0  0  0  0  0  0  0  0  0  0
   -1.7897   -2.9097    0.4346 C   0  0  0  0  0  0  0  0  0  0  0  0
   -0.9503   -3.3393    1.2048 O   0  0  0  0  0  0  0  0  0  0  0  0
   -1.5854   -1.7193   -0.2354 N   0  0  0  0  0  0  0  0  0  0  0  0
   -2.2675   -1.4719   -0.9456 H   0  0  0  0  0  0  0  0  0  0  0  0
   -0.3366   -0.9373   -0.1704 C   0  0  1  0  0  0  0  0  0  0  0  0
    0.4649   -1.6131   -0.4895 H   0  0  0  0  0  0  0  0  0  0  0  0
   -0.3643    0.2248   -1.1857 C   0  0  0  0  0  0  0  0  0  0  0  0
    0.6686    0.5672   -1.3115 H   0  0  0  0  0  0  0  0  0  0  0  0
   -0.6889   -0.1618   -2.1566 H   0  0  0  0  0  0  0  0  0  0  0  0
   -1.2351    1.4224   -0.8325 C   0  0  0  0  0  0  0  0  0  0  0  0
   -2.5474    1.3045   -0.3336 C   0  0  0  0  0  0  0  0  0  0  0  0
   -3.0187    0.3386   -0.2044 H   0  0  0  0  0  0  0  0  0  0  0  0
   -3.2926    2.4406    0.0007 C   0  0  0  0  0  0  0  0  0  0  0  0
   -4.3042    2.3369    0.3825 H   0  0  0  0  0  0  0  0  0  0  0  0
   -2.7398    3.7130   -0.1569 C   0  0  0  0  0  0  0  0  0  0  0  0
   -3.3169    4.5956    0.1038 H   0  0  0  0  0  0  0  0  0  0  0  0
   -1.4409    3.8478   -0.6506 C   0  0  0  0  0  0  0  0  0  0  0  0
   -1.0050    4.8352   -0.7727 H   0  0  0  0  0  0  0  0  0  0  0  0
   -0.6974    2.7115   -0.9845 C   0  0  0  0  0  0  0  0  0  0  0  0
    0.3141    2.8408   -1.3588 H   0  0  0  0  0  0  0  0  0  0  0  0
    0.0868   -0.4414    1.2326 C   0  0  0  0  0  0  0  0  0  0  0  0
    1.2778   -0.3878    1.5118 O   0  0  0  0  0  0  0  0  0  0  0  0
   -0.8288    0.1285    2.0989 N   0  0  0  0  0  0  0  0  0  0  0  0
   -1.7812    0.2183    1.7626 H   0  0  0  0  0  0  0  0  0  0  0  0
   -0.4554    0.7761    3.3491 C   0  0  0  0  0  0  0  0  0  0  0  0
    0.2051    1.6279    3.1561 H   0  0  0  0  0  0  0  0  0  0  0  0
   -1.3474    1.1391    3.8679 H   0  0  0  0  0  0  0  0  0  0  0  0
    0.0620    0.0689    4.0059 H   0  0  0  0  0  0  0  0  0  0  0  0
  1  2  1  0  0  0  0
  2  3  1  0  0  0  0
  2  4  1  0  0  0  0
  2  5  1  0  0  0  0
  5  6  2  0  0  0  0
  5  7  1  0  0  0  0
  7  8  1  0  0  0  0
  7  9  1  0  0  0  0
  9 10  1  0  0  0  0
  9 11  1  0  0  0  0
  9 25  1  0  0  0  0
 11 12  1  0  0  0  0
 11 13  1  0  0  0  0
 11 14  1  0  0  0  0
 14 15  1  0  0  0  0
 14 23  2  0  0  0  0
 15 16  1  0  0  0  0
 15 17  2  0  0  0  0
 17 18  1  0  0  0  0
 17 19  1  0  0  0  0
 19 20  1  0  0  0  0
 19 21  2  0  0  0  0
 21 22  1  0  0  0  0
 21 23  1  0  0  0  0
 23 24  1  0  0  0  0
 25 26  2  0  0  0  0
 25 27  1  0  0  0  0
 27 28  1  0  0  0  0
 27 29  1  0  0  0  0
 29 30  1  0  0  0  0
 29 31  1  0  0  0  0
 29 32  1  0  0  0  0
M  END
$$$$

  -OEChem-03222214073D

 32 32  0     1  0  0  0  0  0999 V2000
   -3.0324   -4.6385    0.7379 H   0  0  0  0  0  0  0  0  0  0  0  0
   -3.0536   -3.7040    0.1699 C   0  0  0  0  0  0  0  0  0  0  0  0
   -3.9180   -3.1177    0.4902 H   0  0  0  0  0  0  0  0  0  0  0  0
   -3.1547   -3.9411   -0.8919 H   0  0  0  0  0  0  0  0  0  0  0  0
   -1.7767   -2.9199    0.4087 C   0  0  0  0  0  0  0  0  0  0  0  0
   -0.9191   -3.3676    1.1481 O   0  0  0  0  0  0  0  0  0  0  0  0
   -1.5975   -1.7000   -0.2131 N   0  0  0  0  0  0  0  0  0  0  0  0
   -2.3071   -1.4157   -0.8821 H   0  0  0  0  0  0  0  0  0  0  0  0
   -0.3578   -0.9047   -0.1357 C   0  0  1  0  0  0  0  0  0  0  0  0
    0.4395   -1.5756   -0.4755 H   0  0  0  0  0  0  0  0  0  0  0  0
   -0.3865    0.2569   -1.1509 C   0  0  0  0  0  0  0  0  0  0  0  0
    0.6453    0.6097   -1.2568 H   0  0  0  0  0  0  0  0  0  0  0  0
   -0.6879   -0.1392   -2.1254 H   0  0  0  0  0  0  0  0  0  0  0  0
   -1.2654    1.4594   -0.8371 C   0  0  0  0  0  0  0  0  0  0  0  0
   -2.4579    1.3887   -0.0904 C   0  0  0  0  0  0  0  0  0  0  0  0
   -2.8332    0.4464    0.2869 H   0  0  0  0  0  0  0  0  0  0  0  0
   -3.2073    2.5393    0.1777 C   0  0  0  0  0  0  0  0  0  0  0  0
   -4.1255    2.4694    0.7535 H   0  0  0  0  0  0  0  0  0  0  0  0
   -2.7785    3.7812   -0.2949 C   0  0  0  0  0  0  0  0  0  0  0  0
   -3.3575    4.6760   -0.0848 H   0  0  0  0  0  0  0  0  0  0  0  0
   -1.6013    3.8690   -1.0398 C   0  0  0  0  0  0  0  0  0  0  0  0
   -1.2631    4.8329   -1.4086 H   0  0  0  0  0  0  0  0  0  0  0  0
   -0.8547    2.7173   -1.3078 C   0  0  0  0  0  0  0  0  0  0  0  0
    0.0611    2.8090   -1.8846 H   0  0  0  0  0  0  0  0  0  0  0  0
    0.1052   -0.4494    1.2693 C   0  0  0  0  0  0  0  0  0  0  0  0
    1.3055   -0.3790    1.5013 O   0  0  0  0  0  0  0  0  0  0  0  0
   -0.7775    0.0823    2.1920 N   0  0  0  0  0  0  0  0  0  0  0  0
   -1.7599    0.0845    1.9449 H   0  0  0  0  0  0  0  0  0  0  0  0
   -0.3624    0.6629    3.4623 C   0  0  0  0  0  0  0  0  0  0  0  0
    0.3244    1.4992    3.2949 H   0  0  0  0  0  0  0  0  0  0  0  0
   -1.2327    1.0356    4.0103 H   0  0  0  0  0  0  0  0  0  0  0  0
    0.1404   -0.0889    4.0797 H   0  0  0  0  0  0  0  0  0  0  0  0
  1  2  1  0  0  0  0
  2  3  1  0  0  0  0
  2  4  1  0  0  0  0
  2  5  1  0  0  0  0
  5  6  2  0  0  0  0
  5  7  1  0  0  0  0
  7  8  1  0  0  0  0
  7  9  1  0  0  0  0
  9 10  1  0  0  0  0
  9 11  1  0  0  0  0
  9 25  1  0  0  0  0
 11 12  1  0  0  0  0
 11 13  1  0  0  0  0
 11 14  1  0  0  0  0
 14 15  1  0  0  0  0
 14 23  2  0  0  0  0
 15 16  1  0  0  0  0
 15 17  2  0  0  0  0
 17 18  1  0  0  0  0
 17 19  1  0  0  0  0
 19 20  1  0  0  0  0
 19 21  2  0  0  0  0
 21 22  1  0  0  0  0
 21 23  1  0  0  0  0
 23 24  1  0  0  0  0
 25 26  2  0  0  0  0
 25 27  1  0  0  0  0
 27 28  1  0  0  0  0
 27 29  1  0  0  0  0
 29 30  1  0  0  0  0
 29 31  1  0  0  0  0
 29 32  1  0  0  0  0
M  END
$$$$

  -OEChem-03222214073D

 32 32  0     1  0  0  0  0  0999 V2000
   -2.9690   -4.6661    0.6992 H   0  0  0  0  0  0  0  0  0  0  0  0
   -3.0151   -3.7160    0.1594 C   0  0  0  0  0  0  0  0  0  0  0  0
   -3.8892   -3.1583    0.5036 H   0  0  0  0  0  0  0  0  0  0  0  0
   -3.1196   -3.9234   -0.9083 H   0  0  0  0  0  0  0  0  0  0  0  0
   -1.7532   -2.9117    0.4096 C   0  0  0  0  0  0  0  0  0  0  0  0
   -0.8760   -3.3637    1.1231 O   0  0  0  0  0  0  0  0  0  0  0  0
   -1.6129   -1.6622   -0.1609 N   0  0  0  0  0  0  0  0  0  0  0  0
   -2.3518   -1.3549   -0.7875 H   0  0  0  0  0  0  0  0  0  0  0  0
   -0.3883   -0.8449   -0.0809 C   0  0  1  0  0  0  0  0  0  0  0  0
    0.4045   -1.5134   -0.4364 H   0  0  0  0  0  0  0  0  0  0  0  0
   -0.4135    0.2981   -1.1172 C   0  0  0  0  0  0  0  0  0  0  0  0
    0.6148    0.6658   -1.2067 H   0  0  0  0  0  0  0  0  0  0  0  0
   -0.6851   -0.1261   -2.0887 H   0  0  0  0  0  0  0  0  0  0  0  0
   -1.3073    1.5022   -0.8661 C   0  0  0  0  0  0  0  0  0  0  0  0
   -2.3471    1.5357    0.0812 C   0  0  0  0  0  0  0  0  0  0  0  0
   -2.6008    0.6619    0.6660 H   0  0  0  0  0  0  0  0  0  0  0  0
   -3.1089    2.6936    0.2731 C   0  0  0  0  0  0  0  0  0  0  0  0
   -3.9083    2.7039    1.0079 H   0  0  0  0  0  0  0  0  0  0  0  0
   -2.8449    3.8387   -0.4809 C   0  0  0  0  0  0  0  0  0  0  0  0
   -3.4337    4.7390   -0.3315 H   0  0  0  0  0  0  0  0  0  0  0  0
   -1.8200    3.8220   -1.4287 C   0  0  0  0  0  0  0  0  0  0  0  0
   -1.6093    4.7105   -2.0166 H   0  0  0  0  0  0  0  0  0  0  0  0
   -1.0599    2.6631   -1.6167 C   0  0  0  0  0  0  0  0  0  0  0  0
   -0.2607    2.6721   -2.3525 H   0  0  0  0  0  0  0  0  0  0  0  0
    0.1230   -0.4298    1.3211 C   0  0  0  0  0  0  0  0  0  0  0  0
    1.3301   -0.3131    1.4911 O   0  0  0  0  0  0  0  0  0  0  0  0
   -0.7237    0.0499    2.3042 N   0  0  0  0  0  0  0  0  0  0  0  0
   -1.7138   -0.1227    2.1764 H   0  0  0  0  0  0  0  0  0  0  0  0
   -0.2550    0.5308    3.5975 C   0  0  0  0  0  0  0  0  0  0  0  0
    0.4091    1.3918    3.4668 H   0  0  0  0  0  0  0  0  0  0  0  0
   -1.1027    0.8406    4.2158 H   0  0  0  0  0  0  0  0  0  0  0  0
    0.2906   -0.2585    4.1254 H   0  0  0  0  0  0  0  0  0  0  0  0
  1  2  1  0  0  0  0
  2  3  1  0  0  0  0
  2  4  1  0  0  0  0
  2  5  1  0  0  0  0
  5  6  2  0  0  0  0
  5  7  1  0  0  0  0
  7  8  1  0  0  0  0
  7  9  1  0  0  0  0
  9 10  1  0  0  0  0
  9 11  1  0  0  0  0
  9 25  1  0  0  0  0
 11 12  1  0  0  0  0
 11 13  1  0  0  0  0
 11 14  1  0  0  0  0
 14 15  1  0  0  0  0
 14 23  2  0  0  0  0
 15 16  1  0  0  0  0
 15 17  2  0  0  0  0
 17 18  1  0  0  0  0
 17 19  1  0  0  0  0
 19 20  1  0  0  0  0
 19 21  2  0  0  0  0
 21 22  1  0  0  0  0
 21 23  1  0  0  0  0
 23 24  1  0  0  0  0
 25 26  2  0  0  0  0
 25 27  1  0  0  0  0
 27 28  1  0  0  0  0
 27 29  1  0  0  0  0
 29 30  1  0  0  0  0
 29 31  1  0  0  0  0
 29 32  1  0  0  0  0
M  END
$$$$

  -OEChem-03222214073D

 32 32  0     1  0  0  0  0  0999 V2000
   -3.1329   -4.5932    0.9139 H   0  0  0  0  0  0  0  0  0  0  0  0
   -3.1818   -3.6458    0.3694 C   0  0  0  0  0  0  0  0  0  0  0  0
   -4.0109   -3.0554    0.7663 H   0  0  0  0  0  0  0  0  0  0  0  0
   -3.3655   -3.8568   -0.6868 H   0  0  0  0  0  0  0  0  0  0  0  0
   -1.8780   -2.8857    0.5266 C   0  0  0  0  0  0  0  0  0  0  0  0
   -0.9616   -3.3762    1.1613 O   0  0  0  0  0  0  0  0  0  0  0  0
   -1.7431   -1.6296   -0.0307 N   0  0  0  0  0  0  0  0  0  0  0  0
   -2.5270   -1.2773   -0.5733 H   0  0  0  0  0  0  0  0  0  0  0  0
   -0.4930   -0.8492   -0.0356 C   0  0  1  0  0  0  0  0  0  0  0  0
    0.2436   -1.5619   -0.4255 H   0  0  0  0  0  0  0  0  0  0  0  0
   -0.5121    0.2462   -1.1241 C   0  0  0  0  0  0  0  0  0  0  0  0
    0.5252    0.5701   -1.2636 H   0  0  0  0  0  0  0  0  0  0  0  0
   -0.8270   -0.2227   -2.0618 H   0  0  0  0  0  0  0  0  0  0  0  0
   -1.3456    1.5036   -0.9352 C   0  0  0  0  0  0  0  0  0  0  0  0
   -2.1461    1.7838    0.1857 C   0  0  0  0  0  0  0  0  0  0  0  0
   -2.2743    1.0655    0.9801 H   0  0  0  0  0  0  0  0  0  0  0  0
   -2.8481    2.9901    0.2872 C   0  0  0  0  0  0  0  0  0  0  0  0
   -3.4642    3.1886    1.1592 H   0  0  0  0  0  0  0  0  0  0  0  0
   -2.7615    3.9403   -0.7321 C   0  0  0  0  0  0  0  0  0  0  0  0
   -3.3045    4.8778   -0.6532 H   0  0  0  0  0  0  0  0  0  0  0  0
   -1.9729    3.6797   -1.8539 C   0  0  0  0  0  0  0  0  0  0  0  0
   -1.8991    4.4160   -2.6491 H   0  0  0  0  0  0  0  0  0  0  0  0
   -1.2720    2.4733   -1.9492 C   0  0  0  0  0  0  0  0  0  0  0  0
   -0.6535    2.2939   -2.8239 H   0  0  0  0  0  0  0  0  0  0  0  0
    0.1484   -0.4717    1.3233 C   0  0  0  0  0  0  0  0  0  0  0  0
    1.3682   -0.3830    1.3857 O   0  0  0  0  0  0  0  0  0  0  0  0
   -0.5928    0.0143    2.3855 N   0  0  0  0  0  0  0  0  0  0  0  0
   -1.5860   -0.1888    2.3640 H   0  0  0  0  0  0  0  0  0  0  0  0
    0.0066    0.4134    3.6529 C   0  0  0  0  0  0  0  0  0  0  0  0
    0.7412    1.2101    3.4956 H   0  0  0  0  0  0  0  0  0  0  0  0
   -0.7636    0.7867    4.3346 H   0  0  0  0  0  0  0  0  0  0  0  0
    0.5064   -0.4393    4.1244 H   0  0  0  0  0  0  0  0  0  0  0  0
  1  2  1  0  0  0  0
  2  3  1  0  0  0  0
  2  4  1  0  0  0  0
  2  5  1  0  0  0  0
  5  6  2  0  0  0  0
  5  7  1  0  0  0  0
  7  8  1  0  0  0  0
  7  9  1  0  0  0  0
  9 10  1  0  0  0  0
  9 11  1  0  0  0  0
  9 25  1  0  0  0  0
 11 12  1  0  0  0  0
 11 13  1  0  0  0  0
 11 14  1  0  0  0  0
 14 15  1  0  0  0  0
 14 23  2  0  0  0  0
 15 16  1  0  0  0  0
 15 17  2  0  0  0  0
 17 18  1  0  0  0  0
 17 19  1  0  0  0  0
 19 20  1  0  0  0  0
 19 21  2  0  0  0  0
 21 22  1  0  0  0  0
 21 23  1  0  0  0  0
 23 24  1  0  0  0  0
 25 26  2  0  0  0  0
 25 27  1  0  0  0  0
 27 28  1  0  0  0  0
 27 29  1  0  0  0  0
 29 30  1  0  0  0  0
 29 31  1  0  0  0  0
 29 32  1  0  0  0  0
M  END
$$$$

  -OEChem-03222214073D

 32 32  0     1  0  0  0  0  0999 V2000
   -3.0836   -4.6337    0.4143 H   0  0  0  0  0  0  0  0  0  0  0  0
   -3.1231   -3.6291   -0.0163 C   0  0  0  0  0  0  0  0  0  0  0  0
   -3.9777   -3.0978    0.4092 H   0  0  0  0  0  0  0  0  0  0  0  0
   -3.2567   -3.7159   -1.0974 H   0  0  0  0  0  0  0  0  0  0  0  0
   -1.8390   -2.8805    0.2882 C   0  0  0  0  0  0  0  0  0  0  0  0
   -0.9493   -3.4299    0.9128 O   0  0  0  0  0  0  0  0  0  0  0  0
   -1.6906   -1.5724   -0.1283 N   0  0  0  0  0  0  0  0  0  0  0  0
   -2.4574   -1.1626   -0.6551 H   0  0  0  0  0  0  0  0  0  0  0  0
   -0.4586   -0.7798    0.0281 C   0  0  1  0  0  0  0  0  0  0  0  0
    0.3128   -1.4577   -0.3564 H   0  0  0  0  0  0  0  0  0  0  0  0
   -0.3947    0.3780   -0.9945 C   0  0  0  0  0  0  0  0  0  0  0  0
    0.6464    0.7179   -1.0174 H   0  0  0  0  0  0  0  0  0  0  0  0
   -0.6080   -0.0523   -1.9784 H   0  0  0  0  0  0  0  0  0  0  0  0
   -1.2496    1.6278   -0.8419 C   0  0  0  0  0  0  0  0  0  0  0  0
   -1.9350    2.0207    0.3203 C   0  0  0  0  0  0  0  0  0  0  0  0
   -1.9265    1.4255    1.2160 H   0  0  0  0  0  0  0  0  0  0  0  0
   -2.6778    3.2062    0.3556 C   0  0  0  0  0  0  0  0  0  0  0  0
   -3.2003    3.4911    1.2640 H   0  0  0  0  0  0  0  0  0  0  0  0
   -2.7465    4.0263   -0.7715 C   0  0  0  0  0  0  0  0  0  0  0  0
   -3.3202    4.9481   -0.7425 H   0  0  0  0  0  0  0  0  0  0  0  0
   -2.0685    3.6580   -1.9339 C   0  0  0  0  0  0  0  0  0  0  0  0
   -2.1108    4.2940   -2.8131 H   0  0  0  0  0  0  0  0  0  0  0  0
   -1.3281    2.4722   -1.9633 C   0  0  0  0  0  0  0  0  0  0  0  0
   -0.7995    2.2104   -2.8754 H   0  0  0  0  0  0  0  0  0  0  0  0
    0.0777   -0.5406    1.4612 C   0  0  0  0  0  0  0  0  0  0  0  0
    1.2871   -0.4387    1.6226 O   0  0  0  0  0  0  0  0  0  0  0  0
   -0.7491   -0.1801    2.5099 N   0  0  0  0  0  0  0  0  0  0  0  0
   -1.7346   -0.3881    2.3893 H   0  0  0  0  0  0  0  0  0  0  0  0
   -0.2524    0.0833    3.8552 C   0  0  0  0  0  0  0  0  0  0  0  0
    0.4679    0.9081    3.8437 H   0  0  0  0  0  0  0  0  0  0  0  0
   -1.0787    0.3589    4.5171 H   0  0  0  0  0  0  0  0  0  0  0  0
    0.2379   -0.8073    4.2623 H   0  0  0  0  0  0  0  0  0  0  0  0
  1  2  1  0  0  0  0
  2  3  1  0  0  0  0
  2  4  1  0  0  0  0
  2  5  1  0  0  0  0
  5  6  2  0  0  0  0
  5  7  1  0  0  0  0
  7  8  1  0  0  0  0
  7  9  1  0  0  0  0
  9 10  1  0  0  0  0
  9 11  1  0  0  0  0
  9 25  1  0  0  0  0
 11 12  1  0  0  0  0
 11 13  1  0  0  0  0
 11 14  1  0  0  0  0
 14 15  1  0  0  0  0
 14 23  2  0  0  0  0
 15 16  1  0  0  0  0
 15 17  2  0  0  0  0
 17 18  1  0  0  0  0
 17 19  1  0  0  0  0
 19 20  1  0  0  0  0
 19 21  2  0  0  0  0
 21 22  1  0  0  0  0
 21 23  1  0  0  0  0
 23 24  1  0  0  0  0
 25 26  2  0  0  0  0
 25 27  1  0  0  0  0
 27 28  1  0  0  0  0
 27 29  1  0  0  0  0
 29 30  1  0  0  0  0
 29 31  1  0  0  0  0
 29 32  1  0  0  0  0
M  END
$$$$

  -OEChem-03222214073D

 32 32  0     1  0  0  0  0  0999 V2000
   -3.0802   -4.5399    0.7178 H   0  0  0  0  0  0  0  0  0  0  0  0
   -3.1307   -3.5558    0.2429 C   0  0  0  0  0  0  0  0  0  0  0  0
   -3.9183   -2.9729    0.7264 H   0  0  0  0  0  0  0  0  0  0  0  0
   -3.3791   -3.6873   -0.8130 H   0  0  0  0  0  0  0  0  0  0  0  0
   -1.7979   -2.8430    0.3768 C   0  0  0  0  0  0  0  0  0  0  0  0
   -0.8590   -3.4069    0.9096 O   0  0  0  0  0  0  0  0  0  0  0  0
   -1.6598   -1.5518   -0.0930 N   0  0  0  0  0  0  0  0  0  0  0  0
   -2.4756   -1.1234   -0.5222 H   0  0  0  0  0  0  0  0  0  0  0  0
   -0.4082   -0.7743   -0.0576 C   0  0  1  0  0  0  0  0  0  0  0  0
    0.3348   -1.4590   -0.4839 H   0  0  0  0  0  0  0  0  0  0  0  0
   -0.4463    0.3631   -1.1076 C   0  0  0  0  0  0  0  0  0  0  0  0
    0.5873    0.7017   -1.2362 H   0  0  0  0  0  0  0  0  0  0  0  0
   -0.7452   -0.0939   -2.0567 H   0  0  0  0  0  0  0  0  0  0  0  0
   -1.2777    1.6234   -0.9001 C   0  0  0  0  0  0  0  0  0  0  0  0
   -1.5835    2.2079    0.3410 C   0  0  0  0  0  0  0  0  0  0  0  0
   -1.1586    1.8454    1.2607 H   0  0  0  0  0  0  0  0  0  0  0  0
   -2.4022    3.3391    0.4287 C   0  0  0  0  0  0  0  0  0  0  0  0
   -2.6117    3.7823    1.3980 H   0  0  0  0  0  0  0  0  0  0  0  0
   -2.9350    3.9113   -0.7269 C   0  0  0  0  0  0  0  0  0  0  0  0
   -3.5664    4.7925   -0.6590 H   0  0  0  0  0  0  0  0  0  0  0  0
   -2.6391    3.3536   -1.9708 C   0  0  0  0  0  0  0  0  0  0  0  0
   -3.0430    3.7988   -2.8754 H   0  0  0  0  0  0  0  0  0  0  0  0
   -1.8192    2.2236   -2.0520 C   0  0  0  0  0  0  0  0  0  0  0  0
   -1.6048    1.8093   -3.0328 H   0  0  0  0  0  0  0  0  0  0  0  0
    0.1949   -0.5261    1.3446 C   0  0  0  0  0  0  0  0  0  0  0  0
    1.4101   -0.4355    1.4598 O   0  0  0  0  0  0  0  0  0  0  0  0
   -0.5948   -0.1380    2.4124 N   0  0  0  0  0  0  0  0  0  0  0  0
   -1.5928   -0.2919    2.3098 H   0  0  0  0  0  0  0  0  0  0  0  0
   -0.0594    0.1293    3.7415 C   0  0  0  0  0  0  0  0  0  0  0  0
    0.6718    0.9436    3.7046 H   0  0  0  0  0  0  0  0  0  0  0  0
   -0.8651    0.4212    4.4217 H   0  0  0  0  0  0  0  0  0  0  0  0
    0.4286   -0.7650    4.1432 H   0  0  0  0  0  0  0  0  0  0  0  0
  1  2  1  0  0  0  0
  2  3  1  0  0  0  0
  2  4  1  0  0  0  0
  2  5  1  0  0  0  0
  5  6  2  0  0  0  0
  5  7  1  0  0  0  0
  7  8  1  0  0  0  0
  7  9  1  0  0  0  0
  9 10  1  0  0  0  0
  9 11  1  0  0  0  0
  9 25  1  0  0  0  0
 11 12  1  0  0  0  0
 11 13  1  0  0  0  0
 11 14  1  0  0  0  0
 14 15  1  0  0  0  0
 14 23  2  0  0  0  0
 15 16  1  0  0  0  0
 15 17  2  0  0  0  0
 17 18  1  0  0  0  0
 17 19  1  0  0  0  0
 19 20  1  0  0  0  0
 19 21  2  0  0  0  0
 21 22  1  0  0  0  0
 21 23  1  0  0  0  0
 23 24  1  0  0  0  0
 25 26  2  0  0  0  0
 25 27  1  0  0  0  0
 27 28  1  0  0  0  0
 27 29  1  0  0  0  0
 29 30  1  0  0  0  0
 29 31  1  0  0  0  0
 29 32  1  0  0  0  0
M  END
$$$$

  -OEChem-03222214073D

 32 32  0     1  0  0  0  0  0999 V2000
   -3.1958   -4.4021    0.7848 H   0  0  0  0  0  0  0  0  0  0  0  0
   -3.1805   -3.4514    0.2440 C   0  0  0  0  0  0  0  0  0  0  0  0
   -3.9438   -2.7942    0.6675 H   0  0  0  0  0  0  0  0  0  0  0  0
   -3.4132   -3.6404   -0.8065 H   0  0  0  0  0  0  0  0  0  0  0  0
   -1.8128   -2.8055    0.3625 C   0  0  0  0  0  0  0  0  0  0  0  0
   -0.9104   -3.3929    0.9318 O   0  0  0  0  0  0  0  0  0  0  0  0
   -1.6006   -1.5505   -0.1729 N   0  0  0  0  0  0  0  0  0  0  0  0
   -2.3929   -1.0950   -0.6177 H   0  0  0  0  0  0  0  0  0  0  0  0
   -0.3255   -0.8136   -0.1097 C   0  0  1  0  0  0  0  0  0  0  0  0
    0.4288   -1.5157   -0.4838 H   0  0  0  0  0  0  0  0  0  0  0  0
   -0.3388    0.3146   -1.1700 C   0  0  0  0  0  0  0  0  0  0  0  0
    0.6975    0.6478   -1.2899 H   0  0  0  0  0  0  0  0  0  0  0  0
   -0.6328   -0.1347   -2.1241 H   0  0  0  0  0  0  0  0  0  0  0  0
   -1.1653    1.5700   -0.9309 C   0  0  0  0  0  0  0  0  0  0  0  0
   -1.1917    2.2785    0.2822 C   0  0  0  0  0  0  0  0  0  0  0  0
   -0.4982    2.0460    1.0794 H   0  0  0  0  0  0  0  0  0  0  0  0
   -2.0485    3.3690    0.4654 C   0  0  0  0  0  0  0  0  0  0  0  0
   -2.0364    3.9142    1.4048 H   0  0  0  0  0  0  0  0  0  0  0  0
   -2.9038    3.7685   -0.5629 C   0  0  0  0  0  0  0  0  0  0  0  0
   -3.5677    4.6166   -0.4220 H   0  0  0  0  0  0  0  0  0  0  0  0
   -2.8900    3.0819   -1.7780 C   0  0  0  0  0  0  0  0  0  0  0  0
   -3.5484    3.3926   -2.5841 H   0  0  0  0  0  0  0  0  0  0  0  0
   -2.0288    1.9943   -1.9572 C   0  0  0  0  0  0  0  0  0  0  0  0
   -2.0436    1.4737   -2.9102 H   0  0  0  0  0  0  0  0  0  0  0  0
    0.1759   -0.5173    1.3219 C   0  0  0  0  0  0  0  0  0  0  0  0
    1.3796   -0.4701    1.5379 O   0  0  0  0  0  0  0  0  0  0  0  0
   -0.6882   -0.0498    2.2970 N   0  0  0  0  0  0  0  0  0  0  0  0
   -1.6801   -0.1062    2.0894 H   0  0  0  0  0  0  0  0  0  0  0  0
   -0.2653    0.2740    3.6535 C   0  0  0  0  0  0  0  0  0  0  0  0
    0.5032    1.0540    3.6406 H   0  0  0  0  0  0  0  0  0  0  0  0
   -1.1161    0.6378    4.2375 H   0  0  0  0  0  0  0  0  0  0  0  0
    0.1422   -0.6139    4.1482 H   0  0  0  0  0  0  0  0  0  0  0  0
  1  2  1  0  0  0  0
  2  3  1  0  0  0  0
  2  4  1  0  0  0  0
  2  5  1  0  0  0  0
  5  6  2  0  0  0  0
  5  7  1  0  0  0  0
  7  8  1  0  0  0  0
  7  9  1  0  0  0  0
  9 10  1  0  0  0  0
  9 11  1  0  0  0  0
  9 25  1  0  0  0  0
 11 12  1  0  0  0  0
 11 13  1  0  0  0  0
 11 14  1  0  0  0  0
 14 15  1  0  0  0  0
 14 23  2  0  0  0  0
 15 16  1  0  0  0  0
 15 17  2  0  0  0  0
 17 18  1  0  0  0  0
 17 19  1  0  0  0  0
 19 20  1  0  0  0  0
 19 21  2  0  0  0  0
 21 22  1  0  0  0  0
 21 23  1  0  0  0  0
 23 24  1  0  0  0  0
 25 26  2  0  0  0  0
 25 27  1  0  0  0  0
 27 28  1  0  0  0  0
 27 29  1  0  0  0  0
 29 30  1  0  0  0  0
 29 31  1  0  0  0  0
 29 32  1  0  0  0  0
M  END
$$$$

  -OEChem-03222214073D

 32 32  0     1  0  0  0  0  0999 V2000
   -3.2101   -4.3710    0.8332 H   0  0  0  0  0  0  0  0  0  0  0  0
   -3.1804   -3.4384    0.2625 C   0  0  0  0  0  0  0  0  0  0  0  0
   -3.9314   -2.7555    0.6665 H   0  0  0  0  0  0  0  0  0  0  0  0
   -3.4192   -3.6566   -0.7811 H   0  0  0  0  0  0  0  0  0  0  0  0
   -1.8017   -2.8120    0.3587 C   0  0  0  0  0  0  0  0  0  0  0  0
   -0.9125   -3.3886    0.9589 O   0  0  0  0  0  0  0  0  0  0  0  0
   -1.5636   -1.5884   -0.2352 N   0  0  0  0  0  0  0  0  0  0  0  0
   -2.3505   -1.1308   -0.6864 H   0  0  0  0  0  0  0  0  0  0  0  0
   -0.2881   -0.8540   -0.1554 C   0  0  1  0  0  0  0  0  0  0  0  0
    0.4846   -1.5568   -0.4880 H   0  0  0  0  0  0  0  0  0  0  0  0
   -0.2947    0.2665   -1.2210 C   0  0  0  0  0  0  0  0  0  0  0  0
    0.7378    0.6134   -1.3353 H   0  0  0  0  0  0  0  0  0  0  0  0
   -0.5838   -0.1709   -2.1820 H   0  0  0  0  0  0  0  0  0  0  0  0
   -1.1450    1.4919   -0.9399 C   0  0  0  0  0  0  0  0  0  0  0  0
   -0.9363    2.3179    0.1766 C   0  0  0  0  0  0  0  0  0  0  0  0
   -0.0864    2.1535    0.8320 H   0  0  0  0  0  0  0  0  0  0  0  0
   -1.7854    3.3968    0.4418 C   0  0  0  0  0  0  0  0  0  0  0  0
   -1.5995    4.0313    1.3034 H   0  0  0  0  0  0  0  0  0  0  0  0
   -2.8623    3.6644   -0.4064 C   0  0  0  0  0  0  0  0  0  0  0  0
   -3.5199    4.5046   -0.2031 H   0  0  0  0  0  0  0  0  0  0  0  0
   -3.0839    2.8539   -1.5223 C   0  0  0  0  0  0  0  0  0  0  0  0
   -3.9175    3.0630   -2.1867 H   0  0  0  0  0  0  0  0  0  0  0  0
   -2.2316    1.7757   -1.7846 C   0  0  0  0  0  0  0  0  0  0  0  0
   -2.4244    1.1558   -2.6550 H   0  0  0  0  0  0  0  0  0  0  0  0
    0.1502   -0.4835    1.2799 C   0  0  0  0  0  0  0  0  0  0  0  0
    1.3425   -0.4362    1.5520 O   0  0  0  0  0  0  0  0  0  0  0  0
   -0.7550    0.0405    2.1868 N   0  0  0  0  0  0  0  0  0  0  0  0
   -1.7305    0.0545    1.9072 H   0  0  0  0  0  0  0  0  0  0  0  0
   -0.3901    0.4902    3.5239 C   0  0  0  0  0  0  0  0  0  0  0  0
    0.3455    1.2995    3.4696 H   0  0  0  0  0  0  0  0  0  0  0  0
   -1.2735    0.8621    4.0515 H   0  0  0  0  0  0  0  0  0  0  0  0
    0.0367   -0.3368    4.1009 H   0  0  0  0  0  0  0  0  0  0  0  0
  1  2  1  0  0  0  0
  2  3  1  0  0  0  0
  2  4  1  0  0  0  0
  2  5  1  0  0  0  0
  5  6  2  0  0  0  0
  5  7  1  0  0  0  0
  7  8  1  0  0  0  0
  7  9  1  0  0  0  0
  9 10  1  0  0  0  0
  9 11  1  0  0  0  0
  9 25  1  0  0  0  0
 11 12  1  0  0  0  0
 11 13  1  0  0  0  0
 11 14  1  0  0  0  0
 14 15  1  0  0  0  0
 14 23  2  0  0  0  0
 15 16  1  0  0  0  0
 15 17  2  0  0  0  0
 17 18  1  0  0  0  0
 17 19  1  0  0  0  0
 19 20  1  0  0  0  0
 19 21  2  0  0  0  0
 21 22  1  0  0  0  0
 21 23  1  0  0  0  0
 23 24  1  0  0  0  0
 25 26  2  0  0  0  0
 25 27  1  0  0  0  0
 27 28  1  0  0  0  0
 27 29  1  0  0  0  0
 29 30  1  0  0  0  0
 29 31  1  0  0  0  0
 29 32  1  0  0  0  0
M  END
$$$$

  -OEChem-03222214073D

 32 32  0     1  0  0  0  0  0999 V2000
   -3.2093   -4.3688    0.8625 H   0  0  0  0  0  0  0  0  0  0  0  0
   -3.1738   -3.4475    0.2744 C   0  0  0  0  0  0  0  0  0  0  0  0
   -3.9192   -2.7515    0.6664 H   0  0  0  0  0  0  0  0  0  0  0  0
   -3.4150   -3.6839   -0.7647 H   0  0  0  0  0  0  0  0  0  0  0  0
   -1.7912   -2.8286    0.3565 C   0  0  0  0  0  0  0  0  0  0  0  0
   -0.9083   -3.3916    0.9786 O   0  0  0  0  0  0  0  0  0  0  0  0
   -1.5415   -1.6298   -0.2810 N   0  0  0  0  0  0  0  0  0  0  0  0
   -2.3285   -1.1747   -0.7332 H   0  0  0  0  0  0  0  0  0  0  0  0
   -0.2715   -0.8882   -0.1883 C   0  0  1  0  0  0  0  0  0  0  0  0
    0.5166   -1.5876   -0.4898 H   0  0  0  0  0  0  0  0  0  0  0  0
   -0.2706    0.2324   -1.2485 C   0  0  0  0  0  0  0  0  0  0  0  0
    0.7584    0.5905   -1.3591 H   0  0  0  0  0  0  0  0  0  0  0  0
   -0.5619   -0.1888   -2.2160 H   0  0  0  0  0  0  0  0  0  0  0  0
   -1.1443    1.4250   -0.9222 C   0  0  0  0  0  0  0  0  0  0  0  0
   -0.7562    2.3755    0.0356 C   0  0  0  0  0  0  0  0  0  0  0  0
    0.2052    2.2849    0.5352 H   0  0  0  0  0  0  0  0  0  0  0  0
   -1.5923    3.4499    0.3548 C   0  0  0  0  0  0  0  0  0  0  0  0
   -1.2770    4.1789    1.0958 H   0  0  0  0  0  0  0  0  0  0  0  0
   -2.8285    3.5869   -0.2824 C   0  0  0  0  0  0  0  0  0  0  0  0
   -3.4760    4.4240   -0.0376 H   0  0  0  0  0  0  0  0  0  0  0  0
   -3.2254    2.6493   -1.2401 C   0  0  0  0  0  0  0  0  0  0  0  0
   -4.1832    2.7591   -1.7405 H   0  0  0  0  0  0  0  0  0  0  0  0
   -2.3875    1.5748   -1.5570 C   0  0  0  0  0  0  0  0  0  0  0  0
   -2.7089    0.8578   -2.3061 H   0  0  0  0  0  0  0  0  0  0  0  0
    0.1226   -0.4544    1.2420 C   0  0  0  0  0  0  0  0  0  0  0  0
    1.3058   -0.4026    1.5513 O   0  0  0  0  0  0  0  0  0  0  0  0
   -0.8110    0.1067    2.0960 N   0  0  0  0  0  0  0  0  0  0  0  0
   -1.7612    0.1895    1.7491 H   0  0  0  0  0  0  0  0  0  0  0  0
   -0.4765    0.6704    3.3969 C   0  0  0  0  0  0  0  0  0  0  0  0
    0.2174    1.5100    3.2840 H   0  0  0  0  0  0  0  0  0  0  0  0
   -1.3805    1.0320    3.8958 H   0  0  0  0  0  0  0  0  0  0  0  0
   -0.0109   -0.0898    4.0330 H   0  0  0  0  0  0  0  0  0  0  0  0
  1  2  1  0  0  0  0
  2  3  1  0  0  0  0
  2  4  1  0  0  0  0
  2  5  1  0  0  0  0
  5  6  2  0  0  0  0
  5  7  1  0  0  0  0
  7  8  1  0  0  0  0
  7  9  1  0  0  0  0
  9 10  1  0  0  0  0
  9 11  1  0  0  0  0
  9 25  1  0  0  0  0
 11 12  1  0  0  0  0
 11 13  1  0  0  0  0
 11 14  1  0  0  0  0
 14 15  1  0  0  0  0
 14 23  2  0  0  0  0
 15 16  1  0  0  0  0
 15 17  2  0  0  0  0
 17 18  1  0  0  0  0
 17 19  1  0  0  0  0
 19 20  1  0  0  0  0
 19 21  2  0  0  0  0
 21 22  1  0  0  0  0
 21 23  1  0  0  0  0
 23 24  1  0  0  0  0
 25 26  2  0  0  0  0
 25 27  1  0  0  0  0
 27 28  1  0  0  0  0
 27 29  1  0  0  0  0
 29 30  1  0  0  0  0
 29 31  1  0  0  0  0
 29 32  1  0  0  0  0
M  END
$$$$

  -OEChem-03222214073D

 32 32  0     1  0  0  0  0  0999 V2000
   -3.1968   -4.3936    0.8775 H   0  0  0  0  0  0  0  0  0  0  0  0
   -3.1668   -3.4751    0.2840 C   0  0  0  0  0  0  0  0  0  0  0  0
   -3.9128   -2.7792    0.6748 H   0  0  0  0  0  0  0  0  0  0  0  0
   -3.4115   -3.7184   -0.7527 H   0  0  0  0  0  0  0  0  0  0  0  0
   -1.7855   -2.8518    0.3572 C   0  0  0  0  0  0  0  0  0  0  0  0
   -0.9046   -3.4000    0.9952 O   0  0  0  0  0  0  0  0  0  0  0  0
   -1.5337   -1.6689   -0.3092 N   0  0  0  0  0  0  0  0  0  0  0  0
   -2.3202   -1.2244   -0.7714 H   0  0  0  0  0  0  0  0  0  0  0  0
   -0.2695   -0.9176   -0.2096 C   0  0  1  0  0  0  0  0  0  0  0  0
    0.5298   -1.6112   -0.4944 H   0  0  0  0  0  0  0  0  0  0  0  0
   -0.2600    0.2125   -1.2575 C   0  0  0  0  0  0  0  0  0  0  0  0
    0.7684    0.5741   -1.3661 H   0  0  0  0  0  0  0  0  0  0  0  0
   -0.5586   -0.1893   -2.2311 H   0  0  0  0  0  0  0  0  0  0  0  0
   -1.1486    1.3800   -0.8905 C   0  0  0  0  0  0  0  0  0  0  0  0
   -0.6424    2.4549   -0.1437 C   0  0  0  0  0  0  0  0  0  0  0  0
    0.3957    2.4509    0.1793 H   0  0  0  0  0  0  0  0  0  0  0  0
   -1.4679    3.5274    0.2083 C   0  0  0  0  0  0  0  0  0  0  0  0
   -1.0664    4.3500    0.7930 H   0  0  0  0  0  0  0  0  0  0  0  0
   -2.8066    3.5406   -0.1934 C   0  0  0  0  0  0  0  0  0  0  0  0
   -3.4460    4.3764    0.0762 H   0  0  0  0  0  0  0  0  0  0  0  0
   -3.3178    2.4818   -0.9496 C   0  0  0  0  0  0  0  0  0  0  0  0
   -4.3553    2.4988   -1.2710 H   0  0  0  0  0  0  0  0  0  0  0  0
   -2.4916    1.4076   -1.2982 C   0  0  0  0  0  0  0  0  0  0  0  0
   -2.8981    0.5997   -1.8984 H   0  0  0  0  0  0  0  0  0  0  0  0
    0.0994   -0.4395    1.2139 C   0  0  0  0  0  0  0  0  0  0  0  0
    1.2773   -0.3789    1.5423 O   0  0  0  0  0  0  0  0  0  0  0  0
   -0.8523    0.1429    2.0332 N   0  0  0  0  0  0  0  0  0  0  0  0
   -1.7807    0.2595    1.6398 H   0  0  0  0  0  0  0  0  0  0  0  0
   -0.5302    0.8047    3.2907 C   0  0  0  0  0  0  0  0  0  0  0  0
    0.1086    1.6760    3.1125 H   0  0  0  0  0  0  0  0  0  0  0  0
   -1.4459    1.1402    3.7866 H   0  0  0  0  0  0  0  0  0  0  0  0
   -0.0077    0.1154    3.9625 H   0  0  0  0  0  0  0  0  0  0  0  0
  1  2  1  0  0  0  0
  2  3  1  0  0  0  0
  2  4  1  0  0  0  0
  2  5  1  0  0  0  0
  5  6  2  0  0  0  0
  5  7  1  0  0  0  0
  7  8  1  0  0  0  0
  7  9  1  0  0  0  0
  9 10  1  0  0  0  0
  9 11  1  0  0  0  0
  9 25  1  0  0  0  0
 11 12  1  0  0  0  0
 11 13  1  0  0  0  0
 11 14  1  0  0  0  0
 14 15  1  0  0  0  0
 14 23  2  0  0  0  0
 15 16  1  0  0  0  0
 15 17  2  0  0  0  0
 17 18  1  0  0  0  0
 17 19  1  0  0  0  0
 19 20  1  0  0  0  0
 19 21  2  0  0  0  0
 21 22  1  0  0  0  0
 21 23  1  0  0  0  0
 23 24  1  0  0  0  0
 25 26  2  0  0  0  0
 25 27  1  0  0  0  0
 27 28  1  0  0  0  0
 27 29  1  0  0  0  0
 29 30  1  0  0  0  0
 29 31  1  0  0  0  0
 29 32  1  0  0  0  0
M  END
$$$$

  -OEChem-03222214073D

 32 32  0     1  0  0  0  0  0999 V2000
   -3.1624   -4.4534    0.8790 H   0  0  0  0  0  0  0  0  0  0  0  0
   -3.1413   -3.5409    0.2763 C   0  0  0  0  0  0  0  0  0  0  0  0
   -3.9220   -2.8654    0.6338 H   0  0  0  0  0  0  0  0  0  0  0  0
   -3.3428   -3.8028   -0.7651 H   0  0  0  0  0  0  0  0  0  0  0  0
   -1.7840   -2.8727    0.3899 C   0  0  0  0  0  0  0  0  0  0  0  0
   -0.9166   -3.3740    1.0824 O   0  0  0  0  0  0  0  0  0  0  0  0
   -1.5397   -1.7010   -0.2987 N   0  0  0  0  0  0  0  0  0  0  0  0
   -2.2972   -1.3258   -0.8587 H   0  0  0  0  0  0  0  0  0  0  0  0
   -0.2814   -0.9377   -0.2144 C   0  0  1  0  0  0  0  0  0  0  0  0
    0.5237   -1.6251   -0.4980 H   0  0  0  0  0  0  0  0  0  0  0  0
   -0.2807    0.2043   -1.2498 C   0  0  0  0  0  0  0  0  0  0  0  0
    0.7481    0.5608   -1.3679 H   0  0  0  0  0  0  0  0  0  0  0  0
   -0.5953   -0.1851   -2.2230 H   0  0  0  0  0  0  0  0  0  0  0  0
   -1.1681    1.3685   -0.8615 C   0  0  0  0  0  0  0  0  0  0  0  0
   -0.5960    2.5595   -0.3884 C   0  0  0  0  0  0  0  0  0  0  0  0
    0.4822    2.6398   -0.2777 H   0  0  0  0  0  0  0  0  0  0  0  0
   -1.4023    3.6445   -0.0303 C   0  0  0  0  0  0  0  0  0  0  0  0
   -0.9466    4.5553    0.3472 H   0  0  0  0  0  0  0  0  0  0  0  0
   -2.7910    3.5563   -0.1584 C   0  0  0  0  0  0  0  0  0  0  0  0
   -3.4165    4.4005    0.1177 H   0  0  0  0  0  0  0  0  0  0  0  0
   -3.3711    2.3849   -0.6530 C   0  0  0  0  0  0  0  0  0  0  0  0
   -4.4493    2.3234   -0.7692 H   0  0  0  0  0  0  0  0  0  0  0  0
   -2.5634    1.2992   -1.0083 C   0  0  0  0  0  0  0  0  0  0  0  0
   -3.0316    0.4084   -1.4123 H   0  0  0  0  0  0  0  0  0  0  0  0
    0.0861   -0.4285    1.1989 C   0  0  0  0  0  0  0  0  0  0  0  0
    1.2637   -0.3627    1.5276 O   0  0  0  0  0  0  0  0  0  0  0  0
   -0.8699    0.1631    2.0062 N   0  0  0  0  0  0  0  0  0  0  0  0
   -1.7919    0.2847    1.5994 H   0  0  0  0  0  0  0  0  0  0  0  0
   -0.5499    0.8609    3.2439 C   0  0  0  0  0  0  0  0  0  0  0  0
    0.0748    1.7365    3.0392 H   0  0  0  0  0  0  0  0  0  0  0  0
   -1.4676    1.1956    3.7366 H   0  0  0  0  0  0  0  0  0  0  0  0
   -0.0134    0.1968    3.9298 H   0  0  0  0  0  0  0  0  0  0  0  0
  1  2  1  0  0  0  0
  2  3  1  0  0  0  0
  2  4  1  0  0  0  0
  2  5  1  0  0  0  0
  5  6  2  0  0  0  0
  5  7  1  0  0  0  0
  7  8  1  0  0  0  0
  7  9  1  0  0  0  0
  9 10  1  0  0  0  0
  9 11  1  0  0  0  0
  9 25  1  0  0  0  0
 11 12  1  0  0  0  0
 11 13  1  0  0  0  0
 11 14  1  0  0  0  0
 14 15  1  0  0  0  0
 14 23  2  0  0  0  0
 15 16  1  0  0  0  0
 15 17  2  0  0  0  0
 17 18  1  0  0  0  0
 17 19  1  0  0  0  0
 19 20  1  0  0  0  0
 19 21  2  0  0  0  0
 21 22  1  0  0  0  0
 21 23  1  0  0  0  0
 23 24  1  0  0  0  0
 25 26  2  0  0  0  0
 25 27  1  0  0  0  0
 27 28  1  0  0  0  0
 27 29  1  0  0  0  0
 29 30  1  0  0  0  0
 29 31  1  0  0  0  0
 29 32  1  0  0  0  0
M  END
$$$$

  -OEChem-03222214073D

 32 32  0     1  0  0  0  0  0999 V2000
   -3.1031   -4.5593    0.8346 H   0  0  0  0  0  0  0  0  0  0  0  0
   -3.0962   -3.6513    0.2245 C   0  0  0  0  0  0  0  0  0  0  0  0
   -3.9475   -3.0295    0.5113 H   0  0  0  0  0  0  0  0  0  0  0  0
   -3.1954   -3.9339   -0.8264 H   0  0  0  0  0  0  0  0  0  0  0  0
   -1.8010   -2.8903    0.4382 C   0  0  0  0  0  0  0  0  0  0  0  0
   -0.9649   -3.3244    1.2095 O   0  0  0  0  0  0  0  0  0  0  0  0
   -1.5736   -1.7193   -0.2582 N   0  0  0  0  0  0  0  0  0  0  0  0
   -2.2596   -1.4635   -0.9605 H   0  0  0  0  0  0  0  0  0  0  0  0
   -0.3176   -0.9486   -0.1948 C   0  0  1  0  0  0  0  0  0  0  0  0
    0.4852   -1.6324   -0.4925 H   0  0  0  0  0  0  0  0  0  0  0  0
   -0.3318    0.2041   -1.2201 C   0  0  0  0  0  0  0  0  0  0  0  0
    0.6998    0.5487   -1.3508 H   0  0  0  0  0  0  0  0  0  0  0  0
   -0.6623   -0.1792   -2.1903 H   0  0  0  0  0  0  0  0  0  0  0  0
   -1.2056    1.3840   -0.8339 C   0  0  0  0  0  0  0  0  0  0  0  0
   -0.6227    2.6522   -0.6812 C   0  0  0  0  0  0  0  0  0  0  0  0
    0.4491    2.7794   -0.8053 H   0  0  0  0  0  0  0  0  0  0  0  0
   -1.4020    3.7641   -0.3474 C   0  0  0  0  0  0  0  0  0  0  0  0
   -0.9318    4.7349   -0.2192 H   0  0  0  0  0  0  0  0  0  0  0  0
   -2.7820    3.6263   -0.1810 C   0  0  0  0  0  0  0  0  0  0  0  0
   -3.3872    4.4908    0.0769 H   0  0  0  0  0  0  0  0  0  0  0  0
   -3.3814    2.3768   -0.3576 C   0  0  0  0  0  0  0  0  0  0  0  0
   -4.4568    2.2733   -0.2450 H   0  0  0  0  0  0  0  0  0  0  0  0
   -2.5997    1.2651   -0.6896 C   0  0  0  0  0  0  0  0  0  0  0  0
   -3.0970    0.3150   -0.8421 H   0  0  0  0  0  0  0  0  0  0  0  0
    0.0761   -0.4288    1.2081 C   0  0  0  0  0  0  0  0  0  0  0  0
    1.2608   -0.3604    1.5110 O   0  0  0  0  0  0  0  0  0  0  0  0
   -0.8636    0.1642    2.0329 N   0  0  0  0  0  0  0  0  0  0  0  0
   -1.7984    0.2677    1.6518 H   0  0  0  0  0  0  0  0  0  0  0  0
   -0.5188    0.8749    3.2564 C   0  0  0  0  0  0  0  0  0  0  0  0
    0.0881    1.7571    3.0277 H   0  0  0  0  0  0  0  0  0  0  0  0
   -1.4267    1.2010    3.7726 H   0  0  0  0  0  0  0  0  0  0  0  0
    0.0455    0.2229    3.9316 H   0  0  0  0  0  0  0  0  0  0  0  0
  1  2  1  0  0  0  0
  2  3  1  0  0  0  0
  2  4  1  0  0  0  0
  2  5  1  0  0  0  0
  5  6  2  0  0  0  0
  5  7  1  0  0  0  0
  7  8  1  0  0  0  0
  7  9  1  0  0  0  0
  9 10  1  0  0  0  0
  9 11  1  0  0  0  0
  9 25  1  0  0  0  0
 11 12  1  0  0  0  0
 11 13  1  0  0  0  0
 11 14  1  0  0  0  0
 14 15  1  0  0  0  0
 14 23  2  0  0  0  0
 15 16  1  0  0  0  0
 15 17  2  0  0  0  0
 17 18  1  0  0  0  0
 17 19  1  0  0  0  0
 19 20  1  0  0  0  0
 19 21  2  0  0  0  0
 21 22  1  0  0  0  0
 21 23  1  0  0  0  0
 23 24  1  0  0  0  0
 25 26  2  0  0  0  0
 25 27  1  0  0  0  0
 27 28  1  0  0  0  0
 27 29  1  0  0  0  0
 29 30  1  0  0  0  0
 29 31  1  0  0  0  0
 29 32  1  0  0  0  0
M  END
$$$$

  -OEChem-03222214073D

 32 32  0     1  0  0  0  0  0999 V2000
   -3.0464   -4.6199    0.8173 H   0  0  0  0  0  0  0  0  0  0  0  0
   -3.0583   -3.7086    0.2122 C   0  0  0  0  0  0  0  0  0  0  0  0
   -3.9271   -3.1102    0.4963 H   0  0  0  0  0  0  0  0  0  0  0  0
   -3.1429   -3.9881   -0.8407 H   0  0  0  0  0  0  0  0  0  0  0  0
   -1.7842   -2.9164    0.4390 C   0  0  0  0  0  0  0  0  0  0  0  0
   -0.9409   -3.3375    1.2095 O   0  0  0  0  0  0  0  0  0  0  0  0
   -1.5857   -1.7289   -0.2385 N   0  0  0  0  0  0  0  0  0  0  0  0
   -2.2712   -1.4865   -0.9470 H   0  0  0  0  0  0  0  0  0  0  0  0
   -0.3387   -0.9428   -0.1787 C   0  0  1  0  0  0  0  0  0  0  0  0
    0.4651   -1.6161   -0.4974 H   0  0  0  0  0  0  0  0  0  0  0  0
   -0.3699    0.2224   -1.1908 C   0  0  0  0  0  0  0  0  0  0  0  0
    0.6619    0.5682   -1.3175 H   0  0  0  0  0  0  0  0  0  0  0  0
   -0.6974   -0.1598   -2.1625 H   0  0  0  0  0  0  0  0  0  0  0  0
   -1.2425    1.4137   -0.8228 C   0  0  0  0  0  0  0  0  0  0  0  0
   -0.7223    2.7074   -0.9938 C   0  0  0  0  0  0  0  0  0  0  0  0
    0.2973    2.8445   -1.3425 H   0  0  0  0  0  0  0  0  0  0  0  0
   -1.4919    3.8385   -0.7049 C   0  0  0  0  0  0  0  0  0  0  0  0
   -1.0656    4.8296   -0.8306 H   0  0  0  0  0  0  0  0  0  0  0  0
   -2.8061    3.6939   -0.2564 C   0  0  0  0  0  0  0  0  0  0  0  0
   -3.4033    4.5728   -0.0310 H   0  0  0  0  0  0  0  0  0  0  0  0
   -3.3511    2.4169   -0.1081 C   0  0  0  0  0  0  0  0  0  0  0  0
   -4.3781    2.3056    0.2277 H   0  0  0  0  0  0  0  0  0  0  0  0
   -2.5798    1.2862   -0.3990 C   0  0  0  0  0  0  0  0  0  0  0  0
   -3.0480    0.3163   -0.2923 H   0  0  0  0  0  0  0  0  0  0  0  0
    0.0804   -0.4401    1.2231 C   0  0  0  0  0  0  0  0  0  0  0  0
    1.2711   -0.3721    1.5010 O   0  0  0  0  0  0  0  0  0  0  0  0
   -0.8415    0.1298    2.0831 N   0  0  0  0  0  0  0  0  0  0  0  0
   -1.7911    0.2190    1.7384 H   0  0  0  0  0  0  0  0  0  0  0  0
   -0.4727    0.8062    3.3193 C   0  0  0  0  0  0  0  0  0  0  0  0
    0.1280    1.6958    3.1033 H   0  0  0  0  0  0  0  0  0  0  0  0
   -1.3704    1.1155    3.8629 H   0  0  0  0  0  0  0  0  0  0  0  0
    0.1065    0.1370    3.9643 H   0  0  0  0  0  0  0  0  0  0  0  0
  1  2  1  0  0  0  0
  2  3  1  0  0  0  0
  2  4  1  0  0  0  0
  2  5  1  0  0  0  0
  5  6  2  0  0  0  0
  5  7  1  0  0  0  0
  7  8  1  0  0  0  0
  7  9  1  0  0  0  0
  9 10  1  0  0  0  0
  9 11  1  0  0  0  0
  9 25  1  0  0  0  0
 11 12  1  0  0  0  0
 11 13  1  0  0  0  0
 11 14  1  0  0  0  0
 14 15  1  0  0  0  0
 14 23  2  0  0  0  0
 15 16  1  0  0  0  0
 15 17  2  0  0  0  0
 17 18  1  0  0  0  0
 17 19  1  0  0  0  0
 19 20  1  0  0  0  0
 19 21  2  0  0  0  0
 21 22  1  0  0  0  0
 21 23  1  0  0  0  0
 23 24  1  0  0  0  0
 25 26  2  0  0  0  0
 25 27  1  0  0  0  0
 27 28  1  0  0  0  0
 27 29  1  0  0  0  0
 29 30  1  0  0  0  0
 29 31  1  0  0  0  0
 29 32  1  0  0  0  0
M  END
$$$$

  -OEChem-03222214073D

 32 32  0     1  0  0  0  0  0999 V2000
   -3.0104   -4.6452    0.7599 H   0  0  0  0  0  0  0  0  0  0  0  0
   -3.0397   -3.7109    0.1919 C   0  0  0  0  0  0  0  0  0  0  0  0
   -3.9103   -3.1328    0.5107 H   0  0  0  0  0  0  0  0  0  0  0  0
   -3.1365   -3.9489   -0.8701 H   0  0  0  0  0  0  0  0  0  0  0  0
   -1.7703   -2.9149    0.4315 C   0  0  0  0  0  0  0  0  0  0  0  0
   -0.9139   -3.3500    1.1795 O   0  0  0  0  0  0  0  0  0  0  0  0
   -1.5937   -1.7027   -0.2060 N   0  0  0  0  0  0  0  0  0  0  0  0
   -2.3012   -1.4332   -0.8832 H   0  0  0  0  0  0  0  0  0  0  0  0
   -0.3535   -0.9065   -0.1455 C   0  0  1  0  0  0  0  0  0  0  0  0
    0.4443   -1.5749   -0.4893 H   0  0  0  0  0  0  0  0  0  0  0  0
   -0.4016    0.2551   -1.1600 C   0  0  0  0  0  0  0  0  0  0  0  0
    0.6271    0.6122   -1.2819 H   0  0  0  0  0  0  0  0  0  0  0  0
   -0.7177   -0.1401   -2.1305 H   0  0  0  0  0  0  0  0  0  0  0  0
   -1.2797    1.4524   -0.8254 C   0  0  0  0  0  0  0  0  0  0  0  0
   -0.8918    2.7112   -1.3132 C   0  0  0  0  0  0  0  0  0  0  0  0
    0.0369    2.8169   -1.8666 H   0  0  0  0  0  0  0  0  0  0  0  0
   -1.6765    3.8471   -1.0902 C   0  0  0  0  0  0  0  0  0  0  0  0
   -1.3501    4.8134   -1.4638 H   0  0  0  0  0  0  0  0  0  0  0  0
   -2.8784    3.7390   -0.3883 C   0  0  0  0  0  0  0  0  0  0  0  0
   -3.4875    4.6213   -0.2133 H   0  0  0  0  0  0  0  0  0  0  0  0
   -3.2972    2.4919    0.0792 C   0  0  0  0  0  0  0  0  0  0  0  0
   -4.2383    2.4059    0.6144 H   0  0  0  0  0  0  0  0  0  0  0  0
   -2.5115    1.3566   -0.1475 C   0  0  0  0  0  0  0  0  0  0  0  0
   -2.8871    0.4083    0.2142 H   0  0  0  0  0  0  0  0  0  0  0  0
    0.1112   -0.4374    1.2539 C   0  0  0  0  0  0  0  0  0  0  0  0
    1.3111   -0.3726    1.4895 O   0  0  0  0  0  0  0  0  0  0  0  0
   -0.7739    0.1024    2.1695 N   0  0  0  0  0  0  0  0  0  0  0  0
   -1.7549    0.1098    1.9162 H   0  0  0  0  0  0  0  0  0  0  0  0
   -0.3649    0.6715    3.4465 C   0  0  0  0  0  0  0  0  0  0  0  0
    0.3237    1.5083    3.2903 H   0  0  0  0  0  0  0  0  0  0  0  0
   -1.2381    1.0397    3.9928 H   0  0  0  0  0  0  0  0  0  0  0  0
    0.1333   -0.0866    4.0598 H   0  0  0  0  0  0  0  0  0  0  0  0
  1  2  1  0  0  0  0
  2  3  1  0  0  0  0
  2  4  1  0  0  0  0
  2  5  1  0  0  0  0
  5  6  2  0  0  0  0
  5  7  1  0  0  0  0
  7  8  1  0  0  0  0
  7  9  1  0  0  0  0
  9 10  1  0  0  0  0
  9 11  1  0  0  0  0
  9 25  1  0  0  0  0
 11 12  1  0  0  0  0
 11 13  1  0  0  0  0
 11 14  1  0  0  0  0
 14 15  1  0  0  0  0
 14 23  2  0  0  0  0
 15 16  1  0  0  0  0
 15 17  2  0  0  0  0
 17 18  1  0  0  0  0
 17 19  1  0  0  0  0
 19 20  1  0  0  0  0
 19 21  2  0  0  0  0
 21 22  1  0  0  0  0
 21 23  1  0  0  0  0
 23 24  1  0  0  0  0
 25 26  2  0  0  0  0
 25 27  1  0  0  0  0
 27 28  1  0  0  0  0
 27 29  1  0  0  0  0
 29 30  1  0  0  0  0
 29 31  1  0  0  0  0
 29 32  1  0  0  0  0
M  END
$$$$

  -OEChem-03222214073D

 32 32  0     1  0  0  0  0  0999 V2000
   -2.9705   -4.6576    0.7391 H   0  0  0  0  0  0  0  0  0  0  0  0
   -3.0148   -3.7134    0.1886 C   0  0  0  0  0  0  0  0  0  0  0  0
   -3.8874   -3.1499    0.5269 H   0  0  0  0  0  0  0  0  0  0  0  0
   -3.1204   -3.9329   -0.8766 H   0  0  0  0  0  0  0  0  0  0  0  0
   -1.7510   -2.9090    0.4292 C   0  0  0  0  0  0  0  0  0  0  0  0
   -0.8749   -3.3543    1.1480 O   0  0  0  0  0  0  0  0  0  0  0  0
   -1.6050   -1.6691   -0.1601 N   0  0  0  0  0  0  0  0  0  0  0  0
   -2.3389   -1.3730   -0.7974 H   0  0  0  0  0  0  0  0  0  0  0  0
   -0.3753   -0.8573   -0.0958 C   0  0  1  0  0  0  0  0  0  0  0  0
    0.4162   -1.5239   -0.4573 H   0  0  0  0  0  0  0  0  0  0  0  0
   -0.4196    0.2937   -1.1220 C   0  0  0  0  0  0  0  0  0  0  0  0
    0.6069    0.6620   -1.2291 H   0  0  0  0  0  0  0  0  0  0  0  0
   -0.7127   -0.1203   -2.0916 H   0  0  0  0  0  0  0  0  0  0  0  0
   -1.3068    1.4944   -0.8346 C   0  0  0  0  0  0  0  0  0  0  0  0
   -1.0932    2.6563   -1.5939 C   0  0  0  0  0  0  0  0  0  0  0  0
   -0.2761    2.6922   -2.3087 H   0  0  0  0  0  0  0  0  0  0  0  0
   -1.9057    3.7838   -1.4374 C   0  0  0  0  0  0  0  0  0  0  0  0
   -1.7102    4.6785   -2.0214 H   0  0  0  0  0  0  0  0  0  0  0  0
   -2.9681    3.7580   -0.5320 C   0  0  0  0  0  0  0  0  0  0  0  0
   -3.5985    4.6337   -0.4070 H   0  0  0  0  0  0  0  0  0  0  0  0
   -3.2240    2.5976    0.2014 C   0  0  0  0  0  0  0  0  0  0  0  0
   -4.0608    2.5698    0.8931 H   0  0  0  0  0  0  0  0  0  0  0  0
   -2.4104    1.4709    0.0394 C   0  0  0  0  0  0  0  0  0  0  0  0
   -2.6656    0.5812    0.5995 H   0  0  0  0  0  0  0  0  0  0  0  0
    0.1364   -0.4279    1.3006 C   0  0  0  0  0  0  0  0  0  0  0  0
    1.3437   -0.3210    1.4744 O   0  0  0  0  0  0  0  0  0  0  0  0
   -0.7122    0.0683    2.2734 N   0  0  0  0  0  0  0  0  0  0  0  0
   -1.7048   -0.0752    2.1313 H   0  0  0  0  0  0  0  0  0  0  0  0
   -0.2485    0.5696    3.5604 C   0  0  0  0  0  0  0  0  0  0  0  0
    0.4174    1.4273    3.4185 H   0  0  0  0  0  0  0  0  0  0  0  0
   -1.0987    0.8898    4.1699 H   0  0  0  0  0  0  0  0  0  0  0  0
    0.2932   -0.2124    4.1028 H   0  0  0  0  0  0  0  0  0  0  0  0
  1  2  1  0  0  0  0
  2  3  1  0  0  0  0
  2  4  1  0  0  0  0
  2  5  1  0  0  0  0
  5  6  2  0  0  0  0
  5  7  1  0  0  0  0
  7  8  1  0  0  0  0
  7  9  1  0  0  0  0
  9 10  1  0  0  0  0
  9 11  1  0  0  0  0
  9 25  1  0  0  0  0
 11 12  1  0  0  0  0
 11 13  1  0  0  0  0
 11 14  1  0  0  0  0
 14 15  1  0  0  0  0
 14 23  2  0  0  0  0
 15 16  1  0  0  0  0
 15 17  2  0  0  0  0
 17 18  1  0  0  0  0
 17 19  1  0  0  0  0
 19 20  1  0  0  0  0
 19 21  2  0  0  0  0
 21 22  1  0  0  0  0
 21 23  1  0  0  0  0
 23 24  1  0  0  0  0
 25 26  2  0  0  0  0
 25 27  1  0  0  0  0
 27 28  1  0  0  0  0
 27 29  1  0  0  0  0
 29 30  1  0  0  0  0
 29 31  1  0  0  0  0
 29 32  1  0  0  0  0
M  END
$$$$

  -OEChem-03222214073D

 32 32  0     1  0  0  0  0  0999 V2000
   -3.0391   -4.6288    0.4286 H   0  0  0  0  0  0  0  0  0  0  0  0
   -3.0796   -3.6256   -0.0053 C   0  0  0  0  0  0  0  0  0  0  0  0
   -3.9382   -3.0956    0.4139 H   0  0  0  0  0  0  0  0  0  0  0  0
   -3.2066   -3.7153   -1.0869 H   0  0  0  0  0  0  0  0  0  0  0  0
   -1.8001   -2.8715    0.3042 C   0  0  0  0  0  0  0  0  0  0  0  0
   -0.9100   -3.4158    0.9324 O   0  0  0  0  0  0  0  0  0  0  0  0
   -1.6587   -1.5630   -0.1129 N   0  0  0  0  0  0  0  0  0  0  0  0
   -2.4242   -1.1639   -0.6489 H   0  0  0  0  0  0  0  0  0  0  0  0
   -0.4267   -0.7673    0.0314 C   0  0  1  0  0  0  0  0  0  0  0  0
    0.3335   -1.4556   -0.3571 H   0  0  0  0  0  0  0  0  0  0  0  0
   -0.3575    0.3814   -1.0029 C   0  0  0  0  0  0  0  0  0  0  0  0
    0.7069    0.5426   -1.2075 H   0  0  0  0  0  0  0  0  0  0  0  0
   -0.8065    0.0227   -1.9346 H   0  0  0  0  0  0  0  0  0  0  0  0
   -0.9378    1.7542   -0.7039 C   0  0  0  0  0  0  0  0  0  0  0  0
   -0.8139    2.7254   -1.7124 C   0  0  0  0  0  0  0  0  0  0  0  0
   -0.2493    2.4991   -2.6124 H   0  0  0  0  0  0  0  0  0  0  0  0
   -1.3826    3.9957   -1.5762 C   0  0  0  0  0  0  0  0  0  0  0  0
   -1.2487    4.7380   -2.3577 H   0  0  0  0  0  0  0  0  0  0  0  0
   -2.1249    4.3077   -0.4366 C   0  0  0  0  0  0  0  0  0  0  0  0
   -2.5672    5.2938   -0.3258 H   0  0  0  0  0  0  0  0  0  0  0  0
   -2.3118    3.3384    0.5502 C   0  0  0  0  0  0  0  0  0  0  0  0
   -2.9127    3.5674    1.4253 H   0  0  0  0  0  0  0  0  0  0  0  0
   -1.7420    2.0683    0.4057 C   0  0  0  0  0  0  0  0  0  0  0  0
   -1.9736    1.3370    1.1623 H   0  0  0  0  0  0  0  0  0  0  0  0
    0.1346   -0.5203    1.4538 C   0  0  0  0  0  0  0  0  0  0  0  0
    1.3471   -0.4237    1.5941 O   0  0  0  0  0  0  0  0  0  0  0  0
   -0.6738   -0.1574    2.5161 N   0  0  0  0  0  0  0  0  0  0  0  0
   -1.6604   -0.3706    2.4163 H   0  0  0  0  0  0  0  0  0  0  0  0
   -0.1523    0.1139    3.8503 C   0  0  0  0  0  0  0  0  0  0  0  0
    0.5570    0.9479    3.8227 H   0  0  0  0  0  0  0  0  0  0  0  0
   -0.9684    0.3797    4.5288 H   0  0  0  0  0  0  0  0  0  0  0  0
    0.3578   -0.7698    4.2482 H   0  0  0  0  0  0  0  0  0  0  0  0
  1  2  1  0  0  0  0
  2  3  1  0  0  0  0
  2  4  1  0  0  0  0
  2  5  1  0  0  0  0
  5  6  2  0  0  0  0
  5  7  1  0  0  0  0
  7  8  1  0  0  0  0
  7  9  1  0  0  0  0
  9 10  1  0  0  0  0
  9 11  1  0  0  0  0
  9 25  1  0  0  0  0
 11 12  1  0  0  0  0
 11 13  1  0  0  0  0
 11 14  1  0  0  0  0
 14 15  1  0  0  0  0
 14 23  2  0  0  0  0
 15 16  1  0  0  0  0
 15 17  2  0  0  0  0
 17 18  1  0  0  0  0
 17 19  1  0  0  0  0
 19 20  1  0  0  0  0
 19 21  2  0  0  0  0
 21 22  1  0  0  0  0
 21 23  1  0  0  0  0
 23 24  1  0  0  0  0
 25 26  2  0  0  0  0
 25 27  1  0  0  0  0
 27 28  1  0  0  0  0
 27 29  1  0  0  0  0
 29 30  1  0  0  0  0
 29 31  1  0  0  0  0
 29 32  1  0  0  0  0
M  END
$$$$

  -OEChem-03222214073D

 32 32  0     1  0  0  0  0  0999 V2000
   -3.1277   -4.5948    0.5445 H   0  0  0  0  0  0  0  0  0  0  0  0
   -3.1708   -3.5903    0.1140 C   0  0  0  0  0  0  0  0  0  0  0  0
   -3.9648   -3.0290    0.6121 H   0  0  0  0  0  0  0  0  0  0  0  0
   -3.4040   -3.6731   -0.9502 H   0  0  0  0  0  0  0  0  0  0  0  0
   -1.8396   -2.8862    0.2992 C   0  0  0  0  0  0  0  0  0  0  0  0
   -0.9072   -3.4754    0.8153 O   0  0  0  0  0  0  0  0  0  0  0  0
   -1.6985   -1.5727   -0.1039 N   0  0  0  0  0  0  0  0  0  0  0  0
   -2.5101   -1.1277   -0.5234 H   0  0  0  0  0  0  0  0  0  0  0  0
   -0.4523   -0.7902   -0.0053 C   0  0  1  0  0  0  0  0  0  0  0  0
    0.2978   -1.4637   -0.4374 H   0  0  0  0  0  0  0  0  0  0  0  0
   -0.4582    0.3773   -1.0287 C   0  0  0  0  0  0  0  0  0  0  0  0
    0.5920    0.5387   -1.2956 H   0  0  0  0  0  0  0  0  0  0  0  0
   -0.9546    0.0084   -1.9320 H   0  0  0  0  0  0  0  0  0  0  0  0
   -1.0062    1.7688   -0.7335 C   0  0  0  0  0  0  0  0  0  0  0  0
   -1.2342    2.5894   -1.8540 C   0  0  0  0  0  0  0  0  0  0  0  0
   -1.0457    2.2057   -2.8526 H   0  0  0  0  0  0  0  0  0  0  0  0
   -1.7096    3.8980   -1.7218 C   0  0  0  0  0  0  0  0  0  0  0  0
   -1.8879    4.5039   -2.6055 H   0  0  0  0  0  0  0  0  0  0  0  0
   -1.9462    4.4267   -0.4532 C   0  0  0  0  0  0  0  0  0  0  0  0
   -2.3106    5.4440   -0.3433 H   0  0  0  0  0  0  0  0  0  0  0  0
   -1.6910    3.6465    0.6748 C   0  0  0  0  0  0  0  0  0  0  0  0
   -1.8470    4.0618    1.6661 H   0  0  0  0  0  0  0  0  0  0  0  0
   -1.2161    2.3374    0.5355 C   0  0  0  0  0  0  0  0  0  0  0  0
   -0.9959    1.8132    1.4474 H   0  0  0  0  0  0  0  0  0  0  0  0
    0.1148   -0.6110    1.4221 C   0  0  0  0  0  0  0  0  0  0  0  0
    1.3258   -0.5245    1.5756 O   0  0  0  0  0  0  0  0  0  0  0  0
   -0.7070   -0.2823    2.4868 N   0  0  0  0  0  0  0  0  0  0  0  0
   -1.7009   -0.4348    2.3500 H   0  0  0  0  0  0  0  0  0  0  0  0
   -0.2081   -0.0761    3.8413 C   0  0  0  0  0  0  0  0  0  0  0  0
    0.5193    0.7424    3.8621 H   0  0  0  0  0  0  0  0  0  0  0  0
   -1.0325    0.1798    4.5137 H   0  0  0  0  0  0  0  0  0  0  0  0
    0.2748   -0.9859    4.2134 H   0  0  0  0  0  0  0  0  0  0  0  0
  1  2  1  0  0  0  0
  2  3  1  0  0  0  0
  2  4  1  0  0  0  0
  2  5  1  0  0  0  0
  5  6  2  0  0  0  0
  5  7  1  0  0  0  0
  7  8  1  0  0  0  0
  7  9  1  0  0  0  0
  9 10  1  0  0  0  0
  9 11  1  0  0  0  0
  9 25  1  0  0  0  0
 11 12  1  0  0  0  0
 11 13  1  0  0  0  0
 11 14  1  0  0  0  0
 14 15  1  0  0  0  0
 14 23  2  0  0  0  0
 15 16  1  0  0  0  0
 15 17  2  0  0  0  0
 17 18  1  0  0  0  0
 17 19  1  0  0  0  0
 19 20  1  0  0  0  0
 19 21  2  0  0  0  0
 21 22  1  0  0  0  0
 21 23  1  0  0  0  0
 23 24  1  0  0  0  0
 25 26  2  0  0  0  0
 25 27  1  0  0  0  0
 27 28  1  0  0  0  0
 27 29  1  0  0  0  0
 29 30  1  0  0  0  0
 29 31  1  0  0  0  0
 29 32  1  0  0  0  0
M  END
$$$$

  -OEChem-03222214073D

 32 32  0     1  0  0  0  0  0999 V2000
   -3.0988   -4.5590    0.6644 H   0  0  0  0  0  0  0  0  0  0  0  0
   -3.1192   -3.5855    0.1663 C   0  0  0  0  0  0  0  0  0  0  0  0
   -3.9079   -2.9776    0.6157 H   0  0  0  0  0  0  0  0  0  0  0  0
   -3.3426   -3.7367   -0.8925 H   0  0  0  0  0  0  0  0  0  0  0  0
   -1.7774   -2.8938    0.3183 C   0  0  0  0  0  0  0  0  0  0  0  0
   -0.8573   -3.4680    0.8721 O   0  0  0  0  0  0  0  0  0  0  0  0
   -1.6087   -1.6138   -0.1723 N   0  0  0  0  0  0  0  0  0  0  0  0
   -2.4144   -1.1757   -0.6094 H   0  0  0  0  0  0  0  0  0  0  0  0
   -0.3595   -0.8348   -0.0757 C   0  0  1  0  0  0  0  0  0  0  0  0
    0.4215   -1.4925   -0.4749 H   0  0  0  0  0  0  0  0  0  0  0  0
   -0.4276    0.3383   -1.0913 C   0  0  0  0  0  0  0  0  0  0  0  0
    0.6064    0.5385   -1.3914 H   0  0  0  0  0  0  0  0  0  0  0  0
   -0.9420   -0.0269   -1.9860 H   0  0  0  0  0  0  0  0  0  0  0  0
   -1.0051    1.6960   -0.7099 C   0  0  0  0  0  0  0  0  0  0  0  0
   -1.6260    2.4380   -1.7324 C   0  0  0  0  0  0  0  0  0  0  0  0
   -1.7604    2.0003   -2.7171 H   0  0  0  0  0  0  0  0  0  0  0  0
   -2.1064    3.7329   -1.5110 C   0  0  0  0  0  0  0  0  0  0  0  0
   -2.6113    4.2701   -2.3085 H   0  0  0  0  0  0  0  0  0  0  0  0
   -1.9228    4.3405   -0.2692 C   0  0  0  0  0  0  0  0  0  0  0  0
   -2.2891    5.3477   -0.0928 H   0  0  0  0  0  0  0  0  0  0  0  0
   -1.2263    3.6617    0.7309 C   0  0  0  0  0  0  0  0  0  0  0  0
   -1.0288    4.1495    1.6811 H   0  0  0  0  0  0  0  0  0  0  0  0
   -0.7472    2.3677    0.5011 C   0  0  0  0  0  0  0  0  0  0  0  0
   -0.1266    1.9386    1.2754 H   0  0  0  0  0  0  0  0  0  0  0  0
    0.1060   -0.5831    1.3751 C   0  0  0  0  0  0  0  0  0  0  0  0
    1.3024   -0.5162    1.6238 O   0  0  0  0  0  0  0  0  0  0  0  0
   -0.7980   -0.1868    2.3467 N   0  0  0  0  0  0  0  0  0  0  0  0
   -1.7818   -0.2616    2.1100 H   0  0  0  0  0  0  0  0  0  0  0  0
   -0.4208    0.0712    3.7306 C   0  0  0  0  0  0  0  0  0  0  0  0
    0.3332    0.8635    3.7828 H   0  0  0  0  0  0  0  0  0  0  0  0
   -1.2942    0.3893    4.3077 H   0  0  0  0  0  0  0  0  0  0  0  0
   -0.0120   -0.8354    4.1892 H   0  0  0  0  0  0  0  0  0  0  0  0
  1  2  1  0  0  0  0
  2  3  1  0  0  0  0
  2  4  1  0  0  0  0
  2  5  1  0  0  0  0
  5  6  2  0  0  0  0
  5  7  1  0  0  0  0
  7  8  1  0  0  0  0
  7  9  1  0  0  0  0
  9 10  1  0  0  0  0
  9 11  1  0  0  0  0
  9 25  1  0  0  0  0
 11 12  1  0  0  0  0
 11 13  1  0  0  0  0
 11 14  1  0  0  0  0
 14 15  1  0  0  0  0
 14 23  2  0  0  0  0
 15 16  1  0  0  0  0
 15 17  2  0  0  0  0
 17 18  1  0  0  0  0
 17 19  1  0  0  0  0
 19 20  1  0  0  0  0
 19 21  2  0  0  0  0
 21 22  1  0  0  0  0
 21 23  1  0  0  0  0
 23 24  1  0  0  0  0
 25 26  2  0  0  0  0
 25 27  1  0  0  0  0
 27 28  1  0  0  0  0
 27 29  1  0  0  0  0
 29 30  1  0  0  0  0
 29 31  1  0  0  0  0
 29 32  1  0  0  0  0
M  END
$$$$

  -OEChem-03222214073D

 32 32  0     1  0  0  0  0  0999 V2000
   -3.1285   -4.5159    0.7422 H   0  0  0  0  0  0  0  0  0  0  0  0
   -3.1280   -3.5662    0.1996 C   0  0  0  0  0  0  0  0  0  0  0  0
   -3.9067   -2.9236    0.6168 H   0  0  0  0  0  0  0  0  0  0  0  0
   -3.3496   -3.7624   -0.8522 H   0  0  0  0  0  0  0  0  0  0  0  0
   -1.7737   -2.8941    0.3267 C   0  0  0  0  0  0  0  0  0  0  0  0
   -0.8657   -3.4647    0.9040 O   0  0  0  0  0  0  0  0  0  0  0  0
   -1.5770   -1.6394   -0.2170 N   0  0  0  0  0  0  0  0  0  0  0  0
   -2.3757   -1.1963   -0.6613 H   0  0  0  0  0  0  0  0  0  0  0  0
   -0.3204   -0.8732   -0.1150 C   0  0  1  0  0  0  0  0  0  0  0  0
    0.4674   -1.5393   -0.4855 H   0  0  0  0  0  0  0  0  0  0  0  0
   -0.3790    0.2954   -1.1327 C   0  0  0  0  0  0  0  0  0  0  0  0
    0.6540    0.5012   -1.4325 H   0  0  0  0  0  0  0  0  0  0  0  0
   -0.8952   -0.0544   -2.0324 H   0  0  0  0  0  0  0  0  0  0  0  0
   -0.9600    1.6314   -0.6949 C   0  0  0  0  0  0  0  0  0  0  0  0
   -1.8674    2.2778   -1.5532 C   0  0  0  0  0  0  0  0  0  0  0  0
   -2.2115    1.7832   -2.4563 H   0  0  0  0  0  0  0  0  0  0  0  0
   -2.3604    3.5542   -1.2622 C   0  0  0  0  0  0  0  0  0  0  0  0
   -3.0820    4.0231   -1.9250 H   0  0  0  0  0  0  0  0  0  0  0  0
   -1.9134    4.2327   -0.1274 C   0  0  0  0  0  0  0  0  0  0  0  0
   -2.2894    5.2261    0.0993 H   0  0  0  0  0  0  0  0  0  0  0  0
   -0.9536    3.6419    0.6958 C   0  0  0  0  0  0  0  0  0  0  0  0
   -0.5686    4.1824    1.5556 H   0  0  0  0  0  0  0  0  0  0  0  0
   -0.4636    2.3658    0.3992 C   0  0  0  0  0  0  0  0  0  0  0  0
    0.3353    1.9775    1.0221 H   0  0  0  0  0  0  0  0  0  0  0  0
    0.1068   -0.5598    1.3356 C   0  0  0  0  0  0  0  0  0  0  0  0
    1.2963   -0.5114    1.6205 O   0  0  0  0  0  0  0  0  0  0  0  0
   -0.8185   -0.1047    2.2592 N   0  0  0  0  0  0  0  0  0  0  0  0
   -1.7921   -0.1044    1.9742 H   0  0  0  0  0  0  0  0  0  0  0  0
   -0.4745    0.2759    3.6229 C   0  0  0  0  0  0  0  0  0  0  0  0
    0.2628    1.0854    3.6212 H   0  0  0  0  0  0  0  0  0  0  0  0
   -1.3655    0.6219    4.1552 H   0  0  0  0  0  0  0  0  0  0  0  0
   -0.0574   -0.5804    4.1630 H   0  0  0  0  0  0  0  0  0  0  0  0
  1  2  1  0  0  0  0
  2  3  1  0  0  0  0
  2  4  1  0  0  0  0
  2  5  1  0  0  0  0
  5  6  2  0  0  0  0
  5  7  1  0  0  0  0
  7  8  1  0  0  0  0
  7  9  1  0  0  0  0
  9 10  1  0  0  0  0
  9 11  1  0  0  0  0
  9 25  1  0  0  0  0
 11 12  1  0  0  0  0
 11 13  1  0  0  0  0
 11 14  1  0  0  0  0
 14 15  1  0  0  0  0
 14 23  2  0  0  0  0
 15 16  1  0  0  0  0
 15 17  2  0  0  0  0
 17 18  1  0  0  0  0
 17 19  1  0  0  0  0
 19 20  1  0  0  0  0
 19 21  2  0  0  0  0
 21 22  1  0  0  0  0
 21 23  1  0  0  0  0
 23 24  1  0  0  0  0
 25 26  2  0  0  0  0
 25 27  1  0  0  0  0
 27 28  1  0  0  0  0
 27 29  1  0  0  0  0
 29 30  1  0  0  0  0
 29 31  1  0  0  0  0
 29 32  1  0  0  0  0
M  END
$$$$

  -OEChem-03222214073D

 32 32  0     1  0  0  0  0  0999 V2000
   -3.1646   -4.4696    0.7870 H   0  0  0  0  0  0  0  0  0  0  0  0
   -3.1472   -3.5330    0.2221 C   0  0  0  0  0  0  0  0  0  0  0  0
   -3.9121   -2.8660    0.6264 H   0  0  0  0  0  0  0  0  0  0  0  0
   -3.3758   -3.7493   -0.8242 H   0  0  0  0  0  0  0  0  0  0  0  0
   -1.7799   -2.8842    0.3305 C   0  0  0  0  0  0  0  0  0  0  0  0
   -0.8847   -3.4548    0.9273 O   0  0  0  0  0  0  0  0  0  0  0  0
   -1.5566   -1.6525   -0.2535 N   0  0  0  0  0  0  0  0  0  0  0  0
   -2.3481   -1.2048   -0.7052 H   0  0  0  0  0  0  0  0  0  0  0  0
   -0.2937   -0.8982   -0.1458 C   0  0  1  0  0  0  0  0  0  0  0  0
    0.4956   -1.5777   -0.4873 H   0  0  0  0  0  0  0  0  0  0  0  0
   -0.3258    0.2592   -1.1736 C   0  0  0  0  0  0  0  0  0  0  0  0
    0.7102    0.4603   -1.4667 H   0  0  0  0  0  0  0  0  0  0  0  0
   -0.8424   -0.0760   -2.0787 H   0  0  0  0  0  0  0  0  0  0  0  0
   -0.9069    1.5773   -0.6987 C   0  0  0  0  0  0  0  0  0  0  0  0
   -2.0329    2.1083   -1.3495 C   0  0  0  0  0  0  0  0  0  0  0  0
   -2.5211    1.5498   -2.1422 H   0  0  0  0  0  0  0  0  0  0  0  0
   -2.5511    3.3556   -0.9852 C   0  0  0  0  0  0  0  0  0  0  0  0
   -3.4341    3.7441   -1.4841 H   0  0  0  0  0  0  0  0  0  0  0  0
   -1.9266    4.1080    0.0123 C   0  0  0  0  0  0  0  0  0  0  0  0
   -2.3257    5.0776    0.2952 H   0  0  0  0  0  0  0  0  0  0  0  0
   -0.7725    3.6194    0.6289 C   0  0  0  0  0  0  0  0  0  0  0  0
   -0.2666    4.2120    1.3856 H   0  0  0  0  0  0  0  0  0  0  0  0
   -0.2563    2.3727    0.2613 C   0  0  0  0  0  0  0  0  0  0  0  0
    0.6648    2.0315    0.7266 H   0  0  0  0  0  0  0  0  0  0  0  0
    0.1103   -0.5318    1.3000 C   0  0  0  0  0  0  0  0  0  0  0  0
    1.2953   -0.4942    1.6061 O   0  0  0  0  0  0  0  0  0  0  0  0
   -0.8247   -0.0276    2.1875 N   0  0  0  0  0  0  0  0  0  0  0  0
   -1.7798    0.0528    1.8550 H   0  0  0  0  0  0  0  0  0  0  0  0
   -0.4876    0.4732    3.5133 C   0  0  0  0  0  0  0  0  0  0  0  0
    0.2146    1.3100    3.4402 H   0  0  0  0  0  0  0  0  0  0  0  0
   -1.3889    0.8211    4.0266 H   0  0  0  0  0  0  0  0  0  0  0  0
   -0.0304   -0.3191    4.1151 H   0  0  0  0  0  0  0  0  0  0  0  0
  1  2  1  0  0  0  0
  2  3  1  0  0  0  0
  2  4  1  0  0  0  0
  2  5  1  0  0  0  0
  5  6  2  0  0  0  0
  5  7  1  0  0  0  0
  7  8  1  0  0  0  0
  7  9  1  0  0  0  0
  9 10  1  0  0  0  0
  9 11  1  0  0  0  0
  9 25  1  0  0  0  0
 11 12  1  0  0  0  0
 11 13  1  0  0  0  0
 11 14  1  0  0  0  0
 14 15  1  0  0  0  0
 14 23  2  0  0  0  0
 15 16  1  0  0  0  0
 15 17  2  0  0  0  0
 17 18  1  0  0  0  0
 17 19  1  0  0  0  0
 19 20  1  0  0  0  0
 19 21  2  0  0  0  0
 21 22  1  0  0  0  0
 21 23  1  0  0  0  0
 23 24  1  0  0  0  0
 25 26  2  0  0  0  0
 25 27  1  0  0  0  0
 27 28  1  0  0  0  0
 27 29  1  0  0  0  0
 29 30  1  0  0  0  0
 29 31  1  0  0  0  0
 29 32  1  0  0  0  0
M  END
$$$$

  -OEChem-03222214073D

 32 32  0     1  0  0  0  0  0999 V2000
   -3.1877   -4.4462    0.8001 H   0  0  0  0  0  0  0  0  0  0  0  0
   -3.1630   -3.5094    0.2362 C   0  0  0  0  0  0  0  0  0  0  0  0
   -3.9204   -2.8352    0.6427 H   0  0  0  0  0  0  0  0  0  0  0  0
   -3.3958   -3.7225   -0.8099 H   0  0  0  0  0  0  0  0  0  0  0  0
   -1.7896   -2.8730    0.3422 C   0  0  0  0  0  0  0  0  0  0  0  0
   -0.9069   -3.4346    0.9659 O   0  0  0  0  0  0  0  0  0  0  0  0
   -1.5475   -1.6618   -0.2760 N   0  0  0  0  0  0  0  0  0  0  0  0
   -2.3288   -1.2215   -0.7514 H   0  0  0  0  0  0  0  0  0  0  0  0
   -0.2807   -0.9147   -0.1697 C   0  0  1  0  0  0  0  0  0  0  0  0
    0.5079   -1.6061   -0.4876 H   0  0  0  0  0  0  0  0  0  0  0  0
   -0.2888    0.2309   -1.2068 C   0  0  0  0  0  0  0  0  0  0  0  0
    0.7496    0.4220   -1.4979 H   0  0  0  0  0  0  0  0  0  0  0  0
   -0.8101   -0.0934   -2.1130 H   0  0  0  0  0  0  0  0  0  0  0  0
   -0.8672    1.5383   -0.7099 C   0  0  0  0  0  0  0  0  0  0  0  0
   -2.1482    1.9402   -1.1191 C   0  0  0  0  0  0  0  0  0  0  0  0
   -2.7381    1.3051   -1.7724 H   0  0  0  0  0  0  0  0  0  0  0  0
   -2.6813    3.1621   -0.6941 C   0  0  0  0  0  0  0  0  0  0  0  0
   -3.6760    3.4623   -1.0104 H   0  0  0  0  0  0  0  0  0  0  0  0
   -1.9303    4.0041    0.1309 C   0  0  0  0  0  0  0  0  0  0  0  0
   -2.3415    4.9544    0.4592 H   0  0  0  0  0  0  0  0  0  0  0  0
   -0.6427    3.6271    0.5223 C   0  0  0  0  0  0  0  0  0  0  0  0
   -0.0512    4.2831    1.1545 H   0  0  0  0  0  0  0  0  0  0  0  0
   -0.1109    2.4062    0.0950 C   0  0  0  0  0  0  0  0  0  0  0  0
    0.8953    2.1284    0.3997 H   0  0  0  0  0  0  0  0  0  0  0  0
    0.1132   -0.5014    1.2670 C   0  0  0  0  0  0  0  0  0  0  0  0
    1.2966   -0.4567    1.5788 O   0  0  0  0  0  0  0  0  0  0  0  0
   -0.8261    0.0420    2.1262 N   0  0  0  0  0  0  0  0  0  0  0  0
   -1.7660    0.1570    1.7621 H   0  0  0  0  0  0  0  0  0  0  0  0
   -0.4861    0.6414    3.4095 C   0  0  0  0  0  0  0  0  0  0  0  0
    0.1608    1.5127    3.2645 H   0  0  0  0  0  0  0  0  0  0  0  0
   -1.3937    0.9645    3.9280 H   0  0  0  0  0  0  0  0  0  0  0  0
    0.0343   -0.0839    4.0439 H   0  0  0  0  0  0  0  0  0  0  0  0
  1  2  1  0  0  0  0
  2  3  1  0  0  0  0
  2  4  1  0  0  0  0
  2  5  1  0  0  0  0
  5  6  2  0  0  0  0
  5  7  1  0  0  0  0
  7  8  1  0  0  0  0
  7  9  1  0  0  0  0
  9 10  1  0  0  0  0
  9 11  1  0  0  0  0
  9 25  1  0  0  0  0
 11 12  1  0  0  0  0
 11 13  1  0  0  0  0
 11 14  1  0  0  0  0
 14 15  1  0  0  0  0
 14 23  2  0  0  0  0
 15 16  1  0  0  0  0
 15 17  2  0  0  0  0
 17 18  1  0  0  0  0
 17 19  1  0  0  0  0
 19 20  1  0  0  0  0
 19 21  2  0  0  0  0
 21 22  1  0  0  0  0
 21 23  1  0  0  0  0
 23 24  1  0  0  0  0
 25 26  2  0  0  0  0
 25 27  1  0  0  0  0
 27 28  1  0  0  0  0
 27 29  1  0  0  0  0
 29 30  1  0  0  0  0
 29 31  1  0  0  0  0
 29 32  1  0  0  0  0
M  END
$$$$

  -OEChem-03222214073D

 32 32  0     1  0  0  0  0  0999 V2000
   -3.1976   -4.4372    0.8155 H   0  0  0  0  0  0  0  0  0  0  0  0
   -3.1704   -3.5066    0.2411 C   0  0  0  0  0  0  0  0  0  0  0  0
   -3.9381   -2.8324    0.6278 H   0  0  0  0  0  0  0  0  0  0  0  0
   -3.3856   -3.7337   -0.8058 H   0  0  0  0  0  0  0  0  0  0  0  0
   -1.8034   -2.8600    0.3611 C   0  0  0  0  0  0  0  0  0  0  0  0
   -0.9336   -3.3996    1.0209 O   0  0  0  0  0  0  0  0  0  0  0  0
   -1.5511   -1.6673   -0.2880 N   0  0  0  0  0  0  0  0  0  0  0  0
   -2.3150   -1.2546   -0.8131 H   0  0  0  0  0  0  0  0  0  0  0  0
   -0.2818   -0.9238   -0.1879 C   0  0  1  0  0  0  0  0  0  0  0  0
    0.5057   -1.6251   -0.4870 H   0  0  0  0  0  0  0  0  0  0  0  0
   -0.2708    0.2095   -1.2358 C   0  0  0  0  0  0  0  0  0  0  0  0
    0.7694    0.3876   -1.5285 H   0  0  0  0  0  0  0  0  0  0  0  0
   -0.7999   -0.1099   -2.1392 H   0  0  0  0  0  0  0  0  0  0  0  0
   -0.8462    1.5137   -0.7309 C   0  0  0  0  0  0  0  0  0  0  0  0
   -2.2153    1.7881   -0.8712 C   0  0  0  0  0  0  0  0  0  0  0  0
   -2.8693    1.0738   -1.3607 H   0  0  0  0  0  0  0  0  0  0  0  0
   -2.7516    2.9877   -0.3904 C   0  0  0  0  0  0  0  0  0  0  0  0
   -3.8115    3.1956   -0.5055 H   0  0  0  0  0  0  0  0  0  0  0  0
   -1.9229    3.9242    0.2347 C   0  0  0  0  0  0  0  0  0  0  0  0
   -2.3374    4.8562    0.6082 H   0  0  0  0  0  0  0  0  0  0  0  0
   -0.5572    3.6617    0.3752 C   0  0  0  0  0  0  0  0  0  0  0  0
    0.0904    4.3853    0.8619 H   0  0  0  0  0  0  0  0  0  0  0  0
   -0.0216    2.4641   -0.1086 C   0  0  0  0  0  0  0  0  0  0  0  0
    1.0396    2.2646    0.0175 H   0  0  0  0  0  0  0  0  0  0  0  0
    0.1101   -0.4677    1.2375 C   0  0  0  0  0  0  0  0  0  0  0  0
    1.2931   -0.4281    1.5519 O   0  0  0  0  0  0  0  0  0  0  0  0
   -0.8275    0.1089    2.0772 N   0  0  0  0  0  0  0  0  0  0  0  0
   -1.7523    0.2557    1.6871 H   0  0  0  0  0  0  0  0  0  0  0  0
   -0.4766    0.7776    3.3230 C   0  0  0  0  0  0  0  0  0  0  0  0
    0.1429    1.6579    3.1231 H   0  0  0  0  0  0  0  0  0  0  0  0
   -1.3818    1.0999    3.8460 H   0  0  0  0  0  0  0  0  0  0  0  0
    0.0769    0.0980    3.9797 H   0  0  0  0  0  0  0  0  0  0  0  0
  1  2  1  0  0  0  0
  2  3  1  0  0  0  0
  2  4  1  0  0  0  0
  2  5  1  0  0  0  0
  5  6  2  0  0  0  0
  5  7  1  0  0  0  0
  7  8  1  0  0  0  0
  7  9  1  0  0  0  0
  9 10  1  0  0  0  0
  9 11  1  0  0  0  0
  9 25  1  0  0  0  0
 11 12  1  0  0  0  0
 11 13  1  0  0  0  0
 11 14  1  0  0  0  0
 14 15  1  0  0  0  0
 14 23  2  0  0  0  0
 15 16  1  0  0  0  0
 15 17  2  0  0  0  0
 17 18  1  0  0  0  0
 17 19  1  0  0  0  0
 19 20  1  0  0  0  0
 19 21  2  0  0  0  0
 21 22  1  0  0  0  0
 21 23  1  0  0  0  0
 23 24  1  0  0  0  0
 25 26  2  0  0  0  0
 25 27  1  0  0  0  0
 27 28  1  0  0  0  0
 27 29  1  0  0  0  0
 29 30  1  0  0  0  0
 29 31  1  0  0  0  0
 29 32  1  0  0  0  0
M  END
$$$$

  -OEChem-03222214073D

 32 32  0     1  0  0  0  0  0999 V2000
   -3.2018   -4.4520    0.8068 H   0  0  0  0  0  0  0  0  0  0  0  0
   -3.1696   -3.5291    0.2207 C   0  0  0  0  0  0  0  0  0  0  0  0
   -3.9661   -2.8658    0.5660 H   0  0  0  0  0  0  0  0  0  0  0  0
   -3.3370   -3.7754   -0.8305 H   0  0  0  0  0  0  0  0  0  0  0  0
   -1.8218   -2.8520    0.3874 C   0  0  0  0  0  0  0  0  0  0  0  0
   -0.9734   -3.3577    1.0998 O   0  0  0  0  0  0  0  0  0  0  0  0
   -1.5641   -1.6694   -0.2782 N   0  0  0  0  0  0  0  0  0  0  0  0
   -2.2939   -1.3108   -0.8849 H   0  0  0  0  0  0  0  0  0  0  0  0
   -0.2936   -0.9262   -0.1870 C   0  0  1  0  0  0  0  0  0  0  0  0
    0.4910   -1.6341   -0.4777 H   0  0  0  0  0  0  0  0  0  0  0  0
   -0.2758    0.1984   -1.2438 C   0  0  0  0  0  0  0  0  0  0  0  0
    0.7652    0.3642   -1.5414 H   0  0  0  0  0  0  0  0  0  0  0  0
   -0.8122   -0.1211   -2.1427 H   0  0  0  0  0  0  0  0  0  0  0  0
   -0.8482    1.5066   -0.7446 C   0  0  0  0  0  0  0  0  0  0  0  0
   -2.2350    1.6683   -0.5963 C   0  0  0  0  0  0  0  0  0  0  0  0
   -2.9124    0.8701   -0.8801 H   0  0  0  0  0  0  0  0  0  0  0  0
   -2.7615    2.8615   -0.0901 C   0  0  0  0  0  0  0  0  0  0  0  0
   -3.8356    2.9824    0.0158 H   0  0  0  0  0  0  0  0  0  0  0  0
   -1.9048    3.9029    0.2779 C   0  0  0  0  0  0  0  0  0  0  0  0
   -2.3109    4.8299    0.6726 H   0  0  0  0  0  0  0  0  0  0  0  0
   -0.5225    3.7497    0.1388 C   0  0  0  0  0  0  0  0  0  0  0  0
    0.1469    4.5538    0.4300 H   0  0  0  0  0  0  0  0  0  0  0  0
    0.0027    2.5571   -0.3687 C   0  0  0  0  0  0  0  0  0  0  0  0
    1.0802    2.4438   -0.4528 H   0  0  0  0  0  0  0  0  0  0  0  0
    0.1084   -0.4436    1.2275 C   0  0  0  0  0  0  0  0  0  0  0  0
    1.2934   -0.4098    1.5353 O   0  0  0  0  0  0  0  0  0  0  0  0
   -0.8199    0.1523    2.0635 N   0  0  0  0  0  0  0  0  0  0  0  0
   -1.7445    0.3025    1.6739 H   0  0  0  0  0  0  0  0  0  0  0  0
   -0.4558    0.8454    3.2917 C   0  0  0  0  0  0  0  0  0  0  0  0
    0.1787    1.7095    3.0688 H   0  0  0  0  0  0  0  0  0  0  0  0
   -1.3544    1.1967    3.8073 H   0  0  0  0  0  0  0  0  0  0  0  0
    0.0861    0.1722    3.9644 H   0  0  0  0  0  0  0  0  0  0  0  0
  1  2  1  0  0  0  0
  2  3  1  0  0  0  0
  2  4  1  0  0  0  0
  2  5  1  0  0  0  0
  5  6  2  0  0  0  0
  5  7  1  0  0  0  0
  7  8  1  0  0  0  0
  7  9  1  0  0  0  0
  9 10  1  0  0  0  0
  9 11  1  0  0  0  0
  9 25  1  0  0  0  0
 11 12  1  0  0  0  0
 11 13  1  0  0  0  0
 11 14  1  0  0  0  0
 14 15  1  0  0  0  0
 14 23  2  0  0  0  0
 15 16  1  0  0  0  0
 15 17  2  0  0  0  0
 17 18  1  0  0  0  0
 17 19  1  0  0  0  0
 19 20  1  0  0  0  0
 19 21  2  0  0  0  0
 21 22  1  0  0  0  0
 21 23  1  0  0  0  0
 23 24  1  0  0  0  0
 25 26  2  0  0  0  0
 25 27  1  0  0  0  0
 27 28  1  0  0  0  0
 27 29  1  0  0  0  0
 29 30  1  0  0  0  0
 29 31  1  0  0  0  0
 29 32  1  0  0  0  0
M  END
$$$$

  -OEChem-03222214073D

 32 32  0     1  0  0  0  0  0999 V2000
   -3.1704   -4.5206    0.7428 H   0  0  0  0  0  0  0  0  0  0  0  0
   -3.1509   -3.5888    0.1704 C   0  0  0  0  0  0  0  0  0  0  0  0
   -3.9873   -2.9626    0.4896 H   0  0  0  0  0  0  0  0  0  0  0  0
   -3.2644   -3.8264   -0.8901 H   0  0  0  0  0  0  0  0  0  0  0  0
   -1.8393   -2.8620    0.4024 C   0  0  0  0  0  0  0  0  0  0  0  0
   -1.0068   -3.3393    1.1519 O   0  0  0  0  0  0  0  0  0  0  0  0
   -1.5948   -1.6685   -0.2486 N   0  0  0  0  0  0  0  0  0  0  0  0
   -2.2896   -1.3605   -0.9212 H   0  0  0  0  0  0  0  0  0  0  0  0
   -0.3273   -0.9199   -0.1561 C   0  0  1  0  0  0  0  0  0  0  0  0
    0.4524   -1.6299   -0.4546 H   0  0  0  0  0  0  0  0  0  0  0  0
   -0.3005    0.2056   -1.2125 C   0  0  0  0  0  0  0  0  0  0  0  0
    0.7440    0.3601   -1.5029 H   0  0  0  0  0  0  0  0  0  0  0  0
   -0.8325   -0.1165   -2.1130 H   0  0  0  0  0  0  0  0  0  0  0  0
   -0.8713    1.5277   -0.7417 C   0  0  0  0  0  0  0  0  0  0  0  0
   -2.2062    1.6296   -0.3132 C   0  0  0  0  0  0  0  0  0  0  0  0
   -2.8614    0.7664   -0.3484 H   0  0  0  0  0  0  0  0  0  0  0  0
   -2.7142    2.8460    0.1550 C   0  0  0  0  0  0  0  0  0  0  0  0
   -3.7485    2.9176    0.4785 H   0  0  0  0  0  0  0  0  0  0  0  0
   -1.8907    3.9738    0.2058 C   0  0  0  0  0  0  0  0  0  0  0  0
   -2.2821    4.9195    0.5696 H   0  0  0  0  0  0  0  0  0  0  0  0
   -0.5599    3.8830   -0.2104 C   0  0  0  0  0  0  0  0  0  0  0  0
    0.0848    4.7560   -0.1657 H   0  0  0  0  0  0  0  0  0  0  0  0
   -0.0535    2.6664   -0.6791 C   0  0  0  0  0  0  0  0  0  0  0  0
    0.9878    2.6099   -0.9836 H   0  0  0  0  0  0  0  0  0  0  0  0
    0.1026   -0.4463    1.2538 C   0  0  0  0  0  0  0  0  0  0  0  0
    1.2943   -0.4209    1.5352 O   0  0  0  0  0  0  0  0  0  0  0  0
   -0.8008    0.1414    2.1217 N   0  0  0  0  0  0  0  0  0  0  0  0
   -1.7453    0.2690    1.7758 H   0  0  0  0  0  0  0  0  0  0  0  0
   -0.4045    0.8128    3.3522 C   0  0  0  0  0  0  0  0  0  0  0  0
    0.2286    1.6777    3.1287 H   0  0  0  0  0  0  0  0  0  0  0  0
   -1.2885    1.1600    3.8952 H   0  0  0  0  0  0  0  0  0  0  0  0
    0.1505    0.1265    4.0007 H   0  0  0  0  0  0  0  0  0  0  0  0
  1  2  1  0  0  0  0
  2  3  1  0  0  0  0
  2  4  1  0  0  0  0
  2  5  1  0  0  0  0
  5  6  2  0  0  0  0
  5  7  1  0  0  0  0
  7  8  1  0  0  0  0
  7  9  1  0  0  0  0
  9 10  1  0  0  0  0
  9 11  1  0  0  0  0
  9 25  1  0  0  0  0
 11 12  1  0  0  0  0
 11 13  1  0  0  0  0
 11 14  1  0  0  0  0
 14 15  1  0  0  0  0
 14 23  2  0  0  0  0
 15 16  1  0  0  0  0
 15 17  2  0  0  0  0
 17 18  1  0  0  0  0
 17 19  1  0  0  0  0
 19 20  1  0  0  0  0
 19 21  2  0  0  0  0
 21 22  1  0  0  0  0
 21 23  1  0  0  0  0
 23 24  1  0  0  0  0
 25 26  2  0  0  0  0
 25 27  1  0  0  0  0
 27 28  1  0  0  0  0
 27 29  1  0  0  0  0
 29 30  1  0  0  0  0
 29 31  1  0  0  0  0
 29 32  1  0  0  0  0
M  END
$$$$

  -OEChem-03222214073D

 32 32  0     1  0  0  0  0  0999 V2000
   -3.1398   -4.5613    0.6861 H   0  0  0  0  0  0  0  0  0  0  0  0
   -3.1302   -3.6173    0.1336 C   0  0  0  0  0  0  0  0  0  0  0  0
   -3.9770   -3.0098    0.4615 H   0  0  0  0  0  0  0  0  0  0  0  0
   -3.2347   -3.8333   -0.9324 H   0  0  0  0  0  0  0  0  0  0  0  0
   -1.8300   -2.8775    0.3877 C   0  0  0  0  0  0  0  0  0  0  0  0
   -0.9910   -3.3601    1.1264 O   0  0  0  0  0  0  0  0  0  0  0  0
   -1.6086   -1.6575   -0.2201 N   0  0  0  0  0  0  0  0  0  0  0  0
   -2.3119   -1.3379   -0.8791 H   0  0  0  0  0  0  0  0  0  0  0  0
   -0.3507   -0.8943   -0.1163 C   0  0  1  0  0  0  0  0  0  0  0  0
    0.4261   -1.6006   -0.4315 H   0  0  0  0  0  0  0  0  0  0  0  0
   -0.3167    0.2331   -1.1712 C   0  0  0  0  0  0  0  0  0  0  0  0
    0.7344    0.3872   -1.4383 H   0  0  0  0  0  0  0  0  0  0  0  0
   -0.8271   -0.1006   -2.0798 H   0  0  0  0  0  0  0  0  0  0  0  0
   -0.8967    1.5694   -0.7466 C   0  0  0  0  0  0  0  0  0  0  0  0
   -2.1226    1.6633   -0.0638 C   0  0  0  0  0  0  0  0  0  0  0  0
   -2.7033    0.7735    0.1500 H   0  0  0  0  0  0  0  0  0  0  0  0
   -2.6258    2.9050    0.3384 C   0  0  0  0  0  0  0  0  0  0  0  0
   -3.5745    2.9652    0.8636 H   0  0  0  0  0  0  0  0  0  0  0  0
   -1.9087    4.0717    0.0634 C   0  0  0  0  0  0  0  0  0  0  0  0
   -2.2974    5.0366    0.3757 H   0  0  0  0  0  0  0  0  0  0  0  0
   -0.6889    3.9941   -0.6135 C   0  0  0  0  0  0  0  0  0  0  0  0
   -0.1261    4.8988   -0.8247 H   0  0  0  0  0  0  0  0  0  0  0  0
   -0.1875    2.7511   -1.0141 C   0  0  0  0  0  0  0  0  0  0  0  0
    0.7676    2.7110   -1.5298 H   0  0  0  0  0  0  0  0  0  0  0  0
    0.1114   -0.4567    1.2952 C   0  0  0  0  0  0  0  0  0  0  0  0
    1.3111   -0.4209    1.5385 O   0  0  0  0  0  0  0  0  0  0  0  0
   -0.7657    0.0935    2.2126 N   0  0  0  0  0  0  0  0  0  0  0  0
   -1.7431    0.1378    1.9494 H   0  0  0  0  0  0  0  0  0  0  0  0
   -0.3420    0.6827    3.4759 C   0  0  0  0  0  0  0  0  0  0  0  0
    0.3350    1.5247    3.2970 H   0  0  0  0  0  0  0  0  0  0  0  0
   -1.2099    1.0484    4.0328 H   0  0  0  0  0  0  0  0  0  0  0  0
    0.1752   -0.0617    4.0904 H   0  0  0  0  0  0  0  0  0  0  0  0
  1  2  1  0  0  0  0
  2  3  1  0  0  0  0
  2  4  1  0  0  0  0
  2  5  1  0  0  0  0
  5  6  2  0  0  0  0
  5  7  1  0  0  0  0
  7  8  1  0  0  0  0
  7  9  1  0  0  0  0
  9 10  1  0  0  0  0
  9 11  1  0  0  0  0
  9 25  1  0  0  0  0
 11 12  1  0  0  0  0
 11 13  1  0  0  0  0
 11 14  1  0  0  0  0
 14 15  1  0  0  0  0
 14 23  2  0  0  0  0
 15 16  1  0  0  0  0
 15 17  2  0  0  0  0
 17 18  1  0  0  0  0
 17 19  1  0  0  0  0
 19 20  1  0  0  0  0
 19 21  2  0  0  0  0
 21 22  1  0  0  0  0
 21 23  1  0  0  0  0
 23 24  1  0  0  0  0
 25 26  2  0  0  0  0
 25 27  1  0  0  0  0
 27 28  1  0  0  0  0
 27 29  1  0  0  0  0
 29 30  1  0  0  0  0
 29 31  1  0  0  0  0
 29 32  1  0  0  0  0
M  END
$$$$

  -OEChem-03222214073D

 32 32  0     1  0  0  0  0  0999 V2000
   -3.0530   -4.6245    0.6337 H   0  0  0  0  0  0  0  0  0  0  0  0
   -3.0778   -3.6640    0.1107 C   0  0  0  0  0  0  0  0  0  0  0  0
   -3.9431   -3.0961    0.4608 H   0  0  0  0  0  0  0  0  0  0  0  0
   -3.1810   -3.8506   -0.9610 H   0  0  0  0  0  0  0  0  0  0  0  0
   -1.8015   -2.8894    0.3819 C   0  0  0  0  0  0  0  0  0  0  0  0
   -0.9420   -3.3680    1.0997 O   0  0  0  0  0  0  0  0  0  0  0  0
   -1.6270   -1.6380   -0.1756 N   0  0  0  0  0  0  0  0  0  0  0  0
   -2.3530   -1.3091   -0.8055 H   0  0  0  0  0  0  0  0  0  0  0  0
   -0.3861   -0.8476   -0.0703 C   0  0  1  0  0  0  0  0  0  0  0  0
    0.3906   -1.5452   -0.4053 H   0  0  0  0  0  0  0  0  0  0  0  0
   -0.3468    0.2780   -1.1287 C   0  0  0  0  0  0  0  0  0  0  0  0
    0.7097    0.4383   -1.3708 H   0  0  0  0  0  0  0  0  0  0  0  0
   -0.8305   -0.0757   -2.0443 H   0  0  0  0  0  0  0  0  0  0  0  0
   -0.9383    1.6285   -0.7649 C   0  0  0  0  0  0  0  0  0  0  0  0
   -2.0082    1.7799    0.1344 C   0  0  0  0  0  0  0  0  0  0  0  0
   -2.4878    0.9135    0.5731 H   0  0  0  0  0  0  0  0  0  0  0  0
   -2.4989    3.0488    0.4609 C   0  0  0  0  0  0  0  0  0  0  0  0
   -3.3260    3.1505    1.1573 H   0  0  0  0  0  0  0  0  0  0  0  0
   -1.9261    4.1881   -0.1090 C   0  0  0  0  0  0  0  0  0  0  0  0
   -2.3029    5.1744    0.1457 H   0  0  0  0  0  0  0  0  0  0  0  0
   -0.8650    4.0553   -1.0074 C   0  0  0  0  0  0  0  0  0  0  0  0
   -0.4147    4.9389   -1.4506 H   0  0  0  0  0  0  0  0  0  0  0  0
   -0.3771    2.7848   -1.3312 C   0  0  0  0  0  0  0  0  0  0  0  0
    0.4545    2.7023   -2.0248 H   0  0  0  0  0  0  0  0  0  0  0  0
    0.1133   -0.4557    1.3423 C   0  0  0  0  0  0  0  0  0  0  0  0
    1.3196   -0.3718    1.5353 O   0  0  0  0  0  0  0  0  0  0  0  0
   -0.7416    0.0327    2.3138 N   0  0  0  0  0  0  0  0  0  0  0  0
   -1.7343   -0.0940    2.1556 H   0  0  0  0  0  0  0  0  0  0  0  0
   -0.2880    0.5157    3.6112 C   0  0  0  0  0  0  0  0  0  0  0  0
    0.3764    1.3775    3.4872 H   0  0  0  0  0  0  0  0  0  0  0  0
   -1.1430    0.8244    4.2199 H   0  0  0  0  0  0  0  0  0  0  0  0
    0.2522   -0.2729    4.1455 H   0  0  0  0  0  0  0  0  0  0  0  0
  1  2  1  0  0  0  0
  2  3  1  0  0  0  0
  2  4  1  0  0  0  0
  2  5  1  0  0  0  0
  5  6  2  0  0  0  0
  5  7  1  0  0  0  0
  7  8  1  0  0  0  0
  7  9  1  0  0  0  0
  9 10  1  0  0  0  0
  9 11  1  0  0  0  0
  9 25  1  0  0  0  0
 11 12  1  0  0  0  0
 11 13  1  0  0  0  0
 11 14  1  0  0  0  0
 14 15  1  0  0  0  0
 14 23  2  0  0  0  0
 15 16  1  0  0  0  0
 15 17  2  0  0  0  0
 17 18  1  0  0  0  0
 17 19  1  0  0  0  0
 19 20  1  0  0  0  0
 19 21  2  0  0  0  0
 21 22  1  0  0  0  0
 21 23  1  0  0  0  0
 23 24  1  0  0  0  0
 25 26  2  0  0  0  0
 25 27  1  0  0  0  0
 27 28  1  0  0  0  0
 27 29  1  0  0  0  0
 29 30  1  0  0  0  0
 29 31  1  0  0  0  0
 29 32  1  0  0  0  0
M  END
$$$$

  -OEChem-03222214073D

 32 32  0     1  0  0  0  0  0999 V2000
   -3.1659   -4.6043    0.1537 H   0  0  0  0  0  0  0  0  0  0  0  0
   -3.1304   -3.5996   -0.2773 C   0  0  0  0  0  0  0  0  0  0  0  0
   -4.0263   -3.0541    0.0283 H   0  0  0  0  0  0  0  0  0  0  0  0
   -3.1170   -3.6859   -1.3665 H   0  0  0  0  0  0  0  0  0  0  0  0
   -1.8887   -2.8705    0.2006 C   0  0  0  0  0  0  0  0  0  0  0  0
   -1.1229   -3.4176    0.9735 O   0  0  0  0  0  0  0  0  0  0  0  0
   -1.6389   -1.5834   -0.2332 N   0  0  0  0  0  0  0  0  0  0  0  0
   -2.2955   -1.1843   -0.8980 H   0  0  0  0  0  0  0  0  0  0  0  0
   -0.4134   -0.8235    0.0735 C   0  0  1  0  0  0  0  0  0  0  0  0
    0.3773   -1.5364   -0.1894 H   0  0  0  0  0  0  0  0  0  0  0  0
   -0.1753    0.3179   -0.9423 C   0  0  0  0  0  0  0  0  0  0  0  0
    0.9108    0.4470   -1.0051 H   0  0  0  0  0  0  0  0  0  0  0  0
   -0.5105   -0.0201   -1.9277 H   0  0  0  0  0  0  0  0  0  0  0  0
   -0.7620    1.6972   -0.6951 C   0  0  0  0  0  0  0  0  0  0  0  0
   -1.7737    1.9745    0.2396 C   0  0  0  0  0  0  0  0  0  0  0  0
   -2.2587    1.1795    0.7874 H   0  0  0  0  0  0  0  0  0  0  0  0
   -2.2234    3.2831    0.4484 C   0  0  0  0  0  0  0  0  0  0  0  0
   -3.0073    3.4791    1.1739 H   0  0  0  0  0  0  0  0  0  0  0  0
   -1.6679    4.3390   -0.2771 C   0  0  0  0  0  0  0  0  0  0  0  0
   -2.0130    5.3557   -0.1128 H   0  0  0  0  0  0  0  0  0  0  0  0
   -0.6667    4.0818   -1.2155 C   0  0  0  0  0  0  0  0  0  0  0  0
   -0.2285    4.8989   -1.7813 H   0  0  0  0  0  0  0  0  0  0  0  0
   -0.2200    2.7722   -1.4195 C   0  0  0  0  0  0  0  0  0  0  0  0
    0.5689    2.5935   -2.1446 H   0  0  0  0  0  0  0  0  0  0  0  0
   -0.0671   -0.5422    1.5572 C   0  0  0  0  0  0  0  0  0  0  0  0
    1.1124   -0.4816    1.8804 O   0  0  0  0  0  0  0  0  0  0  0  0
   -1.0153   -0.1127    2.4686 N   0  0  0  0  0  0  0  0  0  0  0  0
   -1.9842   -0.2796    2.2205 H   0  0  0  0  0  0  0  0  0  0  0  0
   -0.6949    0.2258    3.8497 C   0  0  0  0  0  0  0  0  0  0  0  0
    0.0016    1.0702    3.8848 H   0  0  0  0  0  0  0  0  0  0  0  0
   -1.6030    0.5063    4.3913 H   0  0  0  0  0  0  0  0  0  0  0  0
   -0.2377   -0.6301    4.3574 H   0  0  0  0  0  0  0  0  0  0  0  0
  1  2  1  0  0  0  0
  2  3  1  0  0  0  0
  2  4  1  0  0  0  0
  2  5  1  0  0  0  0
  5  6  2  0  0  0  0
  5  7  1  0  0  0  0
  7  8  1  0  0  0  0
  7  9  1  0  0  0  0
  9 10  1  0  0  0  0
  9 11  1  0  0  0  0
  9 25  1  0  0  0  0
 11 12  1  0  0  0  0
 11 13  1  0  0  0  0
 11 14  1  0  0  0  0
 14 15  1  0  0  0  0
 14 23  2  0  0  0  0
 15 16  1  0  0  0  0
 15 17  2  0  0  0  0
 17 18  1  0  0  0  0
 17 19  1  0  0  0  0
 19 20  1  0  0  0  0
 19 21  2  0  0  0  0
 21 22  1  0  0  0  0
 21 23  1  0  0  0  0
 23 24  1  0  0  0  0
 25 26  2  0  0  0  0
 25 27  1  0  0  0  0
 27 28  1  0  0  0  0
 27 29  1  0  0  0  0
 29 30  1  0  0  0  0
 29 31  1  0  0  0  0
 29 32  1  0  0  0  0
M  END
$$$$

  -OEChem-03222214073D

 32 32  0     1  0  0  0  0  0999 V2000
   -3.0268   -4.6587    0.3780 H   0  0  0  0  0  0  0  0  0  0  0  0
   -3.0760   -3.6485   -0.0388 C   0  0  0  0  0  0  0  0  0  0  0  0
   -3.9418   -3.1347    0.3856 H   0  0  0  0  0  0  0  0  0  0  0  0
   -3.1977   -3.7216   -1.1223 H   0  0  0  0  0  0  0  0  0  0  0  0
   -1.8055   -2.8864    0.2893 C   0  0  0  0  0  0  0  0  0  0  0  0
   -0.9185   -3.4293    0.9234 O   0  0  0  0  0  0  0  0  0  0  0  0
   -1.6670   -1.5741   -0.1181 N   0  0  0  0  0  0  0  0  0  0  0  0
   -2.4322   -1.1733   -0.6532 H   0  0  0  0  0  0  0  0  0  0  0  0
   -0.4442   -0.7684    0.0522 C   0  0  1  0  0  0  0  0  0  0  0  0
    0.3292   -1.4526   -0.3174 H   0  0  0  0  0  0  0  0  0  0  0  0
   -0.3537    0.3740   -0.9899 C   0  0  0  0  0  0  0  0  0  0  0  0
    0.7161    0.5348   -1.1652 H   0  0  0  0  0  0  0  0  0  0  0  0
   -0.7730    0.0006   -1.9297 H   0  0  0  0  0  0  0  0  0  0  0  0
   -0.9420    1.7544   -0.7399 C   0  0  0  0  0  0  0  0  0  0  0  0
   -1.6226    2.1615    0.4202 C   0  0  0  0  0  0  0  0  0  0  0  0
   -1.8405    1.4758    1.2203 H   0  0  0  0  0  0  0  0  0  0  0  0
   -2.0887    3.4733    0.5626 C   0  0  0  0  0  0  0  0  0  0  0  0
   -2.6152    3.7671    1.4658 H   0  0  0  0  0  0  0  0  0  0  0  0
   -1.8815    4.4065   -0.4542 C   0  0  0  0  0  0  0  0  0  0  0  0
   -2.2407    5.4254   -0.3418 H   0  0  0  0  0  0  0  0  0  0  0  0
   -1.2099    4.0229   -1.6155 C   0  0  0  0  0  0  0  0  0  0  0  0
   -1.0428    4.7444   -2.4099 H   0  0  0  0  0  0  0  0  0  0  0  0
   -0.7457    2.7106   -1.7516 C   0  0  0  0  0  0  0  0  0  0  0  0
   -0.2142    2.4359   -2.6582 H   0  0  0  0  0  0  0  0  0  0  0  0
    0.0793   -0.5317    1.4906 C   0  0  0  0  0  0  0  0  0  0  0  0
    1.2862   -0.4195    1.6634 O   0  0  0  0  0  0  0  0  0  0  0  0
   -0.7621   -0.1868    2.5335 N   0  0  0  0  0  0  0  0  0  0  0  0
   -1.7448   -0.4031    2.4029 H   0  0  0  0  0  0  0  0  0  0  0  0
   -0.2815    0.0846    3.8831 C   0  0  0  0  0  0  0  0  0  0  0  0
    0.4263    0.9203    3.8777 H   0  0  0  0  0  0  0  0  0  0  0  0
   -1.1181    0.3479    4.5371 H   0  0  0  0  0  0  0  0  0  0  0  0
    0.2189   -0.7979    4.2955 H   0  0  0  0  0  0  0  0  0  0  0  0
  1  2  1  0  0  0  0
  2  3  1  0  0  0  0
  2  4  1  0  0  0  0
  2  5  1  0  0  0  0
  5  6  2  0  0  0  0
  5  7  1  0  0  0  0
  7  8  1  0  0  0  0
  7  9  1  0  0  0  0
  9 10  1  0  0  0  0
  9 11  1  0  0  0  0
  9 25  1  0  0  0  0
 11 12  1  0  0  0  0
 11 13  1  0  0  0  0
 11 14  1  0  0  0  0
 14 15  1  0  0  0  0
 14 23  2  0  0  0  0
 15 16  1  0  0  0  0
 15 17  2  0  0  0  0
 17 18  1  0  0  0  0
 17 19  1  0  0  0  0
 19 20  1  0  0  0  0
 19 21  2  0  0  0  0
 21 22  1  0  0  0  0
 21 23  1  0  0  0  0
 23 24  1  0  0  0  0
 25 26  2  0  0  0  0
 25 27  1  0  0  0  0
 27 28  1  0  0  0  0
 27 29  1  0  0  0  0
 29 30  1  0  0  0  0
 29 31  1  0  0  0  0
 29 32  1  0  0  0  0
M  END
$$$$

  -OEChem-03222214073D

 32 32  0     1  0  0  0  0  0999 V2000
   -3.1901   -4.5319    0.6114 H   0  0  0  0  0  0  0  0  0  0  0  0
   -3.2185   -3.5311    0.1709 C   0  0  0  0  0  0  0  0  0  0  0  0
   -3.9995   -2.9510    0.6683 H   0  0  0  0  0  0  0  0  0  0  0  0
   -3.4599   -3.6213   -0.8909 H   0  0  0  0  0  0  0  0  0  0  0  0
   -1.8742   -2.8482    0.3400 C   0  0  0  0  0  0  0  0  0  0  0  0
   -0.9479   -3.4504    0.8523 O   0  0  0  0  0  0  0  0  0  0  0  0
   -1.7136   -1.5394   -0.0711 N   0  0  0  0  0  0  0  0  0  0  0  0
   -2.5189   -1.0845   -0.4922 H   0  0  0  0  0  0  0  0  0  0  0  0
   -0.4492   -0.7838   -0.0004 C   0  0  1  0  0  0  0  0  0  0  0  0
    0.2728   -1.4833   -0.4383 H   0  0  0  0  0  0  0  0  0  0  0  0
   -0.4307    0.3685   -1.0394 C   0  0  0  0  0  0  0  0  0  0  0  0
    0.6210    0.4984   -1.3171 H   0  0  0  0  0  0  0  0  0  0  0  0
   -0.9451    0.0011   -1.9334 H   0  0  0  0  0  0  0  0  0  0  0  0
   -0.9393    1.7776   -0.7582 C   0  0  0  0  0  0  0  0  0  0  0  0
   -1.2131    2.3365    0.5027 C   0  0  0  0  0  0  0  0  0  0  0  0
   -1.0438    1.8025    1.4196 H   0  0  0  0  0  0  0  0  0  0  0  0
   -1.6952    3.6445    0.6271 C   0  0  0  0  0  0  0  0  0  0  0  0
   -1.8903    4.0572    1.6127 H   0  0  0  0  0  0  0  0  0  0  0  0
   -1.9159    4.4242   -0.5085 C   0  0  0  0  0  0  0  0  0  0  0  0
   -2.2873    5.4402   -0.4106 H   0  0  0  0  0  0  0  0  0  0  0  0
   -1.6465    3.8932   -1.7695 C   0  0  0  0  0  0  0  0  0  0  0  0
   -1.8092    4.4950   -2.6587 H   0  0  0  0  0  0  0  0  0  0  0  0
   -1.1625    2.5868   -1.8875 C   0  0  0  0  0  0  0  0  0  0  0  0
   -0.9549    2.1985   -2.8803 H   0  0  0  0  0  0  0  0  0  0  0  0
    0.1630   -0.6036    1.4085 C   0  0  0  0  0  0  0  0  0  0  0  0
    1.3800   -0.5409    1.5233 O   0  0  0  0  0  0  0  0  0  0  0  0
   -0.6168   -0.2487    2.4955 N   0  0  0  0  0  0  0  0  0  0  0  0
   -1.6164   -0.3915    2.3941 H   0  0  0  0  0  0  0  0  0  0  0  0
   -0.0698   -0.0449    3.8313 C   0  0  0  0  0  0  0  0  0  0  0  0
    0.6838    0.7496    3.8207 H   0  0  0  0  0  0  0  0  0  0  0  0
   -0.8647    0.2447    4.5251 H   0  0  0  0  0  0  0  0  0  0  0  0
    0.3945   -0.9662    4.1984 H   0  0  0  0  0  0  0  0  0  0  0  0
  1  2  1  0  0  0  0
  2  3  1  0  0  0  0
  2  4  1  0  0  0  0
  2  5  1  0  0  0  0
  5  6  2  0  0  0  0
  5  7  1  0  0  0  0
  7  8  1  0  0  0  0
  7  9  1  0  0  0  0
  9 10  1  0  0  0  0
  9 11  1  0  0  0  0
  9 25  1  0  0  0  0
 11 12  1  0  0  0  0
 11 13  1  0  0  0  0
 11 14  1  0  0  0  0
 14 15  1  0  0  0  0
 14 23  2  0  0  0  0
 15 16  1  0  0  0  0
 15 17  2  0  0  0  0
 17 18  1  0  0  0  0
 17 19  1  0  0  0  0
 19 20  1  0  0  0  0
 19 21  2  0  0  0  0
 21 22  1  0  0  0  0
 21 23  1  0  0  0  0
 23 24  1  0  0  0  0
 25 26  2  0  0  0  0
 25 27  1  0  0  0  0
 27 28  1  0  0  0  0
 27 29  1  0  0  0  0
 29 30  1  0  0  0  0
 29 31  1  0  0  0  0
 29 32  1  0  0  0  0
M  END
$$$$

  -OEChem-03222214073D

 32 32  0     1  0  0  0  0  0999 V2000
   -3.2143   -4.4432    0.6625 H   0  0  0  0  0  0  0  0  0  0  0  0
   -3.2076   -3.4600    0.1832 C   0  0  0  0  0  0  0  0  0  0  0  0
   -3.9686   -2.8342    0.6553 H   0  0  0  0  0  0  0  0  0  0  0  0
   -3.4504   -3.5831   -0.8751 H   0  0  0  0  0  0  0  0  0  0  0  0
   -1.8404   -2.8187    0.3291 C   0  0  0  0  0  0  0  0  0  0  0  0
   -0.9358   -3.4349    0.8633 O   0  0  0  0  0  0  0  0  0  0  0  0
   -1.6293   -1.5386   -0.1452 N   0  0  0  0  0  0  0  0  0  0  0  0
   -2.4220   -1.0648   -0.5687 H   0  0  0  0  0  0  0  0  0  0  0  0
   -0.3464   -0.8146   -0.0661 C   0  0  1  0  0  0  0  0  0  0  0  0
    0.3904   -1.5168   -0.4739 H   0  0  0  0  0  0  0  0  0  0  0  0
   -0.3431    0.3447   -1.1002 C   0  0  0  0  0  0  0  0  0  0  0  0
    0.7039    0.4787   -1.3920 H   0  0  0  0  0  0  0  0  0  0  0  0
   -0.8663   -0.0158   -1.9916 H   0  0  0  0  0  0  0  0  0  0  0  0
   -0.8409    1.7499   -0.7774 C   0  0  0  0  0  0  0  0  0  0  0  0
   -0.7901    2.3706    0.4838 C   0  0  0  0  0  0  0  0  0  0  0  0
   -0.2571    1.9340    1.3142 H   0  0  0  0  0  0  0  0  0  0  0  0
   -1.3467    3.6368    0.6934 C   0  0  0  0  0  0  0  0  0  0  0  0
   -1.2776    4.1015    1.6727 H   0  0  0  0  0  0  0  0  0  0  0  0
   -1.9699    4.3128   -0.3557 C   0  0  0  0  0  0  0  0  0  0  0  0
   -2.3976    5.2979   -0.1932 H   0  0  0  0  0  0  0  0  0  0  0  0
   -2.0250    3.7220   -1.6182 C   0  0  0  0  0  0  0  0  0  0  0  0
   -2.5008    4.2463   -2.4417 H   0  0  0  0  0  0  0  0  0  0  0  0
   -1.4665    2.4561   -1.8223 C   0  0  0  0  0  0  0  0  0  0  0  0
   -1.5288    2.0192   -2.8146 H   0  0  0  0  0  0  0  0  0  0  0  0
    0.1710   -0.6024    1.3742 C   0  0  0  0  0  0  0  0  0  0  0  0
    1.3763   -0.5798    1.5849 O   0  0  0  0  0  0  0  0  0  0  0  0
   -0.6851   -0.1833    2.3792 N   0  0  0  0  0  0  0  0  0  0  0  0
   -1.6786   -0.2344    2.1792 H   0  0  0  0  0  0  0  0  0  0  0  0
   -0.2512    0.0488    3.7512 C   0  0  0  0  0  0  0  0  0  0  0  0
    0.5254    0.8202    3.7827 H   0  0  0  0  0  0  0  0  0  0  0  0
   -1.0941    0.3841    4.3629 H   0  0  0  0  0  0  0  0  0  0  0  0
    0.1495   -0.8729    4.1862 H   0  0  0  0  0  0  0  0  0  0  0  0
  1  2  1  0  0  0  0
  2  3  1  0  0  0  0
  2  4  1  0  0  0  0
  2  5  1  0  0  0  0
  5  6  2  0  0  0  0
  5  7  1  0  0  0  0
  7  8  1  0  0  0  0
  7  9  1  0  0  0  0
  9 10  1  0  0  0  0
  9 11  1  0  0  0  0
  9 25  1  0  0  0  0
 11 12  1  0  0  0  0
 11 13  1  0  0  0  0
 11 14  1  0  0  0  0
 14 15  1  0  0  0  0
 14 23  2  0  0  0  0
 15 16  1  0  0  0  0
 15 17  2  0  0  0  0
 17 18  1  0  0  0  0
 17 19  1  0  0  0  0
 19 20  1  0  0  0  0
 19 21  2  0  0  0  0
 21 22  1  0  0  0  0
 21 23  1  0  0  0  0
 23 24  1  0  0  0  0
 25 26  2  0  0  0  0
 25 27  1  0  0  0  0
 27 28  1  0  0  0  0
 27 29  1  0  0  0  0
 29 30  1  0  0  0  0
 29 31  1  0  0  0  0
 29 32  1  0  0  0  0
M  END
$$$$

  -OEChem-03222214073D

 32 32  0     1  0  0  0  0  0999 V2000
   -3.2373   -4.3833    0.7620 H   0  0  0  0  0  0  0  0  0  0  0  0
   -3.2020   -3.4323    0.2228 C   0  0  0  0  0  0  0  0  0  0  0  0
   -3.9541   -2.7613    0.6446 H   0  0  0  0  0  0  0  0  0  0  0  0
   -3.4341   -3.6158   -0.8290 H   0  0  0  0  0  0  0  0  0  0  0  0
   -1.8226   -2.8130    0.3478 C   0  0  0  0  0  0  0  0  0  0  0  0
   -0.9383   -3.4149    0.9298 O   0  0  0  0  0  0  0  0  0  0  0  0
   -1.5779   -1.5697   -0.2017 N   0  0  0  0  0  0  0  0  0  0  0  0
   -2.3576   -1.1022   -0.6551 H   0  0  0  0  0  0  0  0  0  0  0  0
   -0.2897   -0.8556   -0.1181 C   0  0  1  0  0  0  0  0  0  0  0  0
    0.4631   -1.5649   -0.4814 H   0  0  0  0  0  0  0  0  0  0  0  0
   -0.2950    0.2873   -1.1689 C   0  0  0  0  0  0  0  0  0  0  0  0
    0.7493    0.4341   -1.4642 H   0  0  0  0  0  0  0  0  0  0  0  0
   -0.8162   -0.0743   -2.0609 H   0  0  0  0  0  0  0  0  0  0  0  0
   -0.8100    1.6748   -0.8074 C   0  0  0  0  0  0  0  0  0  0  0  0
   -0.4763    2.3601    0.3750 C   0  0  0  0  0  0  0  0  0  0  0  0
    0.2766    1.9762    1.0536 H   0  0  0  0  0  0  0  0  0  0  0  0
   -1.0465    3.6004    0.6788 C   0  0  0  0  0  0  0  0  0  0  0  0
   -0.7593    4.1175    1.5898 H   0  0  0  0  0  0  0  0  0  0  0  0
   -1.9691    4.1803   -0.1933 C   0  0  0  0  0  0  0  0  0  0  0  0
   -2.4092    5.1452    0.0412 H   0  0  0  0  0  0  0  0  0  0  0  0
   -2.3127    3.5191   -1.3734 C   0  0  0  0  0  0  0  0  0  0  0  0
   -3.0260    3.9688   -2.0578 H   0  0  0  0  0  0  0  0  0  0  0  0
   -1.7384    2.2794   -1.6744 C   0  0  0  0  0  0  0  0  0  0  0  0
   -2.0281    1.7854   -2.5969 H   0  0  0  0  0  0  0  0  0  0  0  0
    0.1650   -0.5574    1.3274 C   0  0  0  0  0  0  0  0  0  0  0  0
    1.3585   -0.5482    1.5980 O   0  0  0  0  0  0  0  0  0  0  0  0
   -0.7323   -0.0639    2.2595 N   0  0  0  0  0  0  0  0  0  0  0  0
   -1.7105   -0.0478    1.9907 H   0  0  0  0  0  0  0  0  0  0  0  0
   -0.3640    0.2845    3.6255 C   0  0  0  0  0  0  0  0  0  0  0  0
    0.4038    1.0652    3.6290 H   0  0  0  0  0  0  0  0  0  0  0  0
   -1.2376    0.6570    4.1687 H   0  0  0  0  0  0  0  0  0  0  0  0
    0.0235   -0.5940    4.1519 H   0  0  0  0  0  0  0  0  0  0  0  0
  1  2  1  0  0  0  0
  2  3  1  0  0  0  0
  2  4  1  0  0  0  0
  2  5  1  0  0  0  0
  5  6  2  0  0  0  0
  5  7  1  0  0  0  0
  7  8  1  0  0  0  0
  7  9  1  0  0  0  0
  9 10  1  0  0  0  0
  9 11  1  0  0  0  0
  9 25  1  0  0  0  0
 11 12  1  0  0  0  0
 11 13  1  0  0  0  0
 11 14  1  0  0  0  0
 14 15  1  0  0  0  0
 14 23  2  0  0  0  0
 15 16  1  0  0  0  0
 15 17  2  0  0  0  0
 17 18  1  0  0  0  0
 17 19  1  0  0  0  0
 19 20  1  0  0  0  0
 19 21  2  0  0  0  0
 21 22  1  0  0  0  0
 21 23  1  0  0  0  0
 23 24  1  0  0  0  0
 25 26  2  0  0  0  0
 25 27  1  0  0  0  0
 27 28  1  0  0  0  0
 27 29  1  0  0  0  0
 29 30  1  0  0  0  0
 29 31  1  0  0  0  0
 29 32  1  0  0  0  0
M  END
$$$$

  -OEChem-03222214073D

 32 32  0     1  0  0  0  0  0999 V2000
   -3.2356   -4.3677    0.8178 H   0  0  0  0  0  0  0  0  0  0  0  0
   -3.1927   -3.4354    0.2473 C   0  0  0  0  0  0  0  0  0  0  0  0
   -3.9359   -2.7434    0.6502 H   0  0  0  0  0  0  0  0  0  0  0  0
   -3.4313   -3.6513   -0.7968 H   0  0  0  0  0  0  0  0  0  0  0  0
   -1.8068   -2.8261    0.3467 C   0  0  0  0  0  0  0  0  0  0  0  0
   -0.9279   -3.4125    0.9524 O   0  0  0  0  0  0  0  0  0  0  0  0
   -1.5502   -1.6090   -0.2536 N   0  0  0  0  0  0  0  0  0  0  0  0
   -2.3273   -1.1495   -0.7187 H   0  0  0  0  0  0  0  0  0  0  0  0
   -0.2673   -0.8876   -0.1578 C   0  0  1  0  0  0  0  0  0  0  0  0
    0.5029   -1.5961   -0.4840 H   0  0  0  0  0  0  0  0  0  0  0  0
   -0.2668    0.2428   -1.2178 C   0  0  0  0  0  0  0  0  0  0  0  0
    0.7770    0.4049   -1.5068 H   0  0  0  0  0  0  0  0  0  0  0  0
   -0.7815   -0.1110   -2.1168 H   0  0  0  0  0  0  0  0  0  0  0  0
   -0.8094    1.6018   -0.8114 C   0  0  0  0  0  0  0  0  0  0  0  0
   -0.2524    2.3609    0.2326 C   0  0  0  0  0  0  0  0  0  0  0  0
    0.6439    2.0221    0.7448 H   0  0  0  0  0  0  0  0  0  0  0  0
   -0.8171    3.5819    0.6142 C   0  0  0  0  0  0  0  0  0  0  0  0
   -0.3659    4.1574    1.4174 H   0  0  0  0  0  0  0  0  0  0  0  0
   -1.9530    4.0627   -0.0409 C   0  0  0  0  0  0  0  0  0  0  0  0
   -2.3904    5.0120    0.2545 H   0  0  0  0  0  0  0  0  0  0  0  0
   -2.5186    3.3221   -1.0815 C   0  0  0  0  0  0  0  0  0  0  0  0
   -3.3989    3.6964   -1.5961 H   0  0  0  0  0  0  0  0  0  0  0  0
   -1.9505    2.1012   -1.4614 C   0  0  0  0  0  0  0  0  0  0  0  0
   -2.4084    1.5410   -2.2710 H   0  0  0  0  0  0  0  0  0  0  0  0
    0.1421   -0.5164    1.2853 C   0  0  0  0  0  0  0  0  0  0  0  0
    1.3266   -0.5039    1.5949 O   0  0  0  0  0  0  0  0  0  0  0  0
   -0.7827    0.0215    2.1639 N   0  0  0  0  0  0  0  0  0  0  0  0
   -1.7352    0.1179    1.8281 H   0  0  0  0  0  0  0  0  0  0  0  0
   -0.4405    0.5241    3.4877 C   0  0  0  0  0  0  0  0  0  0  0  0
    0.2757    1.3488    3.4113 H   0  0  0  0  0  0  0  0  0  0  0  0
   -1.3375    0.8905    3.9957 H   0  0  0  0  0  0  0  0  0  0  0  0
    0.0008   -0.2721    4.0964 H   0  0  0  0  0  0  0  0  0  0  0  0
  1  2  1  0  0  0  0
  2  3  1  0  0  0  0
  2  4  1  0  0  0  0
  2  5  1  0  0  0  0
  5  6  2  0  0  0  0
  5  7  1  0  0  0  0
  7  8  1  0  0  0  0
  7  9  1  0  0  0  0
  9 10  1  0  0  0  0
  9 11  1  0  0  0  0
  9 25  1  0  0  0  0
 11 12  1  0  0  0  0
 11 13  1  0  0  0  0
 11 14  1  0  0  0  0
 14 15  1  0  0  0  0
 14 23  2  0  0  0  0
 15 16  1  0  0  0  0
 15 17  2  0  0  0  0
 17 18  1  0  0  0  0
 17 19  1  0  0  0  0
 19 20  1  0  0  0  0
 19 21  2  0  0  0  0
 21 22  1  0  0  0  0
 21 23  1  0  0  0  0
 23 24  1  0  0  0  0
 25 26  2  0  0  0  0
 25 27  1  0  0  0  0
 27 28  1  0  0  0  0
 27 29  1  0  0  0  0
 29 30  1  0  0  0  0
 29 31  1  0  0  0  0
 29 32  1  0  0  0  0
M  END
$$$$

  -OEChem-03222214073D

 32 32  0     1  0  0  0  0  0999 V2000
   -3.2124   -4.3921    0.8306 H   0  0  0  0  0  0  0  0  0  0  0  0
   -3.1779   -3.4632    0.2542 C   0  0  0  0  0  0  0  0  0  0  0  0
   -3.9324   -2.7776    0.6473 H   0  0  0  0  0  0  0  0  0  0  0  0
   -3.4070   -3.6889   -0.7901 H   0  0  0  0  0  0  0  0  0  0  0  0
   -1.8003   -2.8357    0.3587 C   0  0  0  0  0  0  0  0  0  0  0  0
   -0.9277   -3.3912    1.0016 O   0  0  0  0  0  0  0  0  0  0  0  0
   -1.5424   -1.6398   -0.2821 N   0  0  0  0  0  0  0  0  0  0  0  0
   -2.3152   -1.2025   -0.7740 H   0  0  0  0  0  0  0  0  0  0  0  0
   -0.2682   -0.9045   -0.1831 C   0  0  1  0  0  0  0  0  0  0  0  0
    0.5149   -1.6119   -0.4797 H   0  0  0  0  0  0  0  0  0  0  0  0
   -0.2574    0.2149   -1.2497 C   0  0  0  0  0  0  0  0  0  0  0  0
    0.7855    0.3867   -1.5368 H   0  0  0  0  0  0  0  0  0  0  0  0
   -0.7738   -0.1297   -2.1512 H   0  0  0  0  0  0  0  0  0  0  0  0
   -0.8240    1.5455   -0.8012 C   0  0  0  0  0  0  0  0  0  0  0  0
   -0.0993    2.3972    0.0489 C   0  0  0  0  0  0  0  0  0  0  0  0
    0.8985    2.1187    0.3798 H   0  0  0  0  0  0  0  0  0  0  0  0
   -0.6491    3.6066    0.4846 C   0  0  0  0  0  0  0  0  0  0  0  0
   -0.0765    4.2537    1.1425 H   0  0  0  0  0  0  0  0  0  0  0  0
   -1.9312    3.9805    0.0732 C   0  0  0  0  0  0  0  0  0  0  0  0
   -2.3568    4.9213    0.4104 H   0  0  0  0  0  0  0  0  0  0  0  0
   -2.6612    3.1435   -0.7754 C   0  0  0  0  0  0  0  0  0  0  0  0
   -3.6553    3.4366   -1.1000 H   0  0  0  0  0  0  0  0  0  0  0  0
   -2.1104    1.9323   -1.2087 C   0  0  0  0  0  0  0  0  0  0  0  0
   -2.6900    1.2951   -1.8692 H   0  0  0  0  0  0  0  0  0  0  0  0
    0.1175   -0.4693    1.2496 C   0  0  0  0  0  0  0  0  0  0  0  0
    1.2980   -0.4368    1.5734 O   0  0  0  0  0  0  0  0  0  0  0  0
   -0.8227    0.0994    2.0917 N   0  0  0  0  0  0  0  0  0  0  0  0
   -1.7564    0.2260    1.7154 H   0  0  0  0  0  0  0  0  0  0  0  0
   -0.4897    0.7036    3.3748 C   0  0  0  0  0  0  0  0  0  0  0  0
    0.1662    1.5685    3.2318 H   0  0  0  0  0  0  0  0  0  0  0  0
   -1.4000    1.0370    3.8821 H   0  0  0  0  0  0  0  0  0  0  0  0
    0.0176   -0.0225    4.0191 H   0  0  0  0  0  0  0  0  0  0  0  0
  1  2  1  0  0  0  0
  2  3  1  0  0  0  0
  2  4  1  0  0  0  0
  2  5  1  0  0  0  0
  5  6  2  0  0  0  0
  5  7  1  0  0  0  0
  7  8  1  0  0  0  0
  7  9  1  0  0  0  0
  9 10  1  0  0  0  0
  9 11  1  0  0  0  0
  9 25  1  0  0  0  0
 11 12  1  0  0  0  0
 11 13  1  0  0  0  0
 11 14  1  0  0  0  0
 14 15  1  0  0  0  0
 14 23  2  0  0  0  0
 15 16  1  0  0  0  0
 15 17  2  0  0  0  0
 17 18  1  0  0  0  0
 17 19  1  0  0  0  0
 19 20  1  0  0  0  0
 19 21  2  0  0  0  0
 21 22  1  0  0  0  0
 21 23  1  0  0  0  0
 23 24  1  0  0  0  0
 25 26  2  0  0  0  0
 25 27  1  0  0  0  0
 27 28  1  0  0  0  0
 27 29  1  0  0  0  0
 29 30  1  0  0  0  0
 29 31  1  0  0  0  0
 29 32  1  0  0  0  0
M  END
$$$$

  -OEChem-03222214073D

 32 32  0     1  0  0  0  0  0999 V2000
   -3.2097   -4.4155    0.8280 H   0  0  0  0  0  0  0  0  0  0  0  0
   -3.1755   -3.4929    0.2413 C   0  0  0  0  0  0  0  0  0  0  0  0
   -3.9464   -2.8127    0.6113 H   0  0  0  0  0  0  0  0  0  0  0  0
   -3.3811   -3.7337   -0.8044 H   0  0  0  0  0  0  0  0  0  0  0  0
   -1.8081   -2.8470    0.3658 C   0  0  0  0  0  0  0  0  0  0  0  0
   -0.9463   -3.3779    1.0430 O   0  0  0  0  0  0  0  0  0  0  0  0
   -1.5470   -1.6630   -0.2955 N   0  0  0  0  0  0  0  0  0  0  0  0
   -2.3050   -1.2564   -0.8337 H   0  0  0  0  0  0  0  0  0  0  0  0
   -0.2776   -0.9195   -0.1928 C   0  0  1  0  0  0  0  0  0  0  0  0
    0.5112   -1.6261   -0.4752 H   0  0  0  0  0  0  0  0  0  0  0  0
   -0.2561    0.1990   -1.2566 C   0  0  0  0  0  0  0  0  0  0  0  0
    0.7869    0.3736   -1.5415 H   0  0  0  0  0  0  0  0  0  0  0  0
   -0.7763   -0.1323   -2.1610 H   0  0  0  0  0  0  0  0  0  0  0  0
   -0.8363    1.5092   -0.7740 C   0  0  0  0  0  0  0  0  0  0  0  0
   -0.0196    2.4736   -0.1625 C   0  0  0  0  0  0  0  0  0  0  0  0
    1.0421    2.2819   -0.0275 H   0  0  0  0  0  0  0  0  0  0  0  0
   -0.5647    3.6763    0.2989 C   0  0  0  0  0  0  0  0  0  0  0  0
    0.0762    4.4119    0.7764 H   0  0  0  0  0  0  0  0  0  0  0  0
   -1.9313    3.9288    0.1480 C   0  0  0  0  0  0  0  0  0  0  0  0
   -2.3532    4.8638    0.5054 H   0  0  0  0  0  0  0  0  0  0  0  0
   -2.7515    2.9783   -0.4669 C   0  0  0  0  0  0  0  0  0  0  0  0
   -3.8119    3.1781   -0.5902 H   0  0  0  0  0  0  0  0  0  0  0  0
   -2.2058    1.7746   -0.9262 C   0  0  0  0  0  0  0  0  0  0  0  0
   -2.8533    1.0491   -1.4081 H   0  0  0  0  0  0  0  0  0  0  0  0
    0.1041   -0.4445    1.2292 C   0  0  0  0  0  0  0  0  0  0  0  0
    1.2848   -0.4026    1.5516 O   0  0  0  0  0  0  0  0  0  0  0  0
   -0.8383    0.1449    2.0542 N   0  0  0  0  0  0  0  0  0  0  0  0
   -1.7611    0.2857    1.6571 H   0  0  0  0  0  0  0  0  0  0  0  0
   -0.4951    0.8295    3.2934 C   0  0  0  0  0  0  0  0  0  0  0  0
    0.1355    1.7006    3.0874 H   0  0  0  0  0  0  0  0  0  0  0  0
   -1.4028    1.1690    3.8007 H   0  0  0  0  0  0  0  0  0  0  0  0
    0.0437    0.1544    3.9665 H   0  0  0  0  0  0  0  0  0  0  0  0
  1  2  1  0  0  0  0
  2  3  1  0  0  0  0
  2  4  1  0  0  0  0
  2  5  1  0  0  0  0
  5  6  2  0  0  0  0
  5  7  1  0  0  0  0
  7  8  1  0  0  0  0
  7  9  1  0  0  0  0
  9 10  1  0  0  0  0
  9 11  1  0  0  0  0
  9 25  1  0  0  0  0
 11 12  1  0  0  0  0
 11 13  1  0  0  0  0
 11 14  1  0  0  0  0
 14 15  1  0  0  0  0
 14 23  2  0  0  0  0
 15 16  1  0  0  0  0
 15 17  2  0  0  0  0
 17 18  1  0  0  0  0
 17 19  1  0  0  0  0
 19 20  1  0  0  0  0
 19 21  2  0  0  0  0
 21 22  1  0  0  0  0
 21 23  1  0  0  0  0
 23 24  1  0  0  0  0
 25 26  2  0  0  0  0
 25 27  1  0  0  0  0
 27 28  1  0  0  0  0
 27 29  1  0  0  0  0
 29 30  1  0  0  0  0
 29 31  1  0  0  0  0
 29 32  1  0  0  0  0
M  END
$$$$

  -OEChem-03222214073D

 32 32  0     1  0  0  0  0  0999 V2000
   -3.1896   -4.4620    0.8033 H   0  0  0  0  0  0  0  0  0  0  0  0
   -3.1615   -3.5397    0.2159 C   0  0  0  0  0  0  0  0  0  0  0  0
   -3.9675   -2.8840    0.5541 H   0  0  0  0  0  0  0  0  0  0  0  0
   -3.3182   -3.7887   -0.8363 H   0  0  0  0  0  0  0  0  0  0  0  0
   -1.8213   -2.8503    0.3923 C   0  0  0  0  0  0  0  0  0  0  0  0
   -0.9781   -3.3434    1.1193 O   0  0  0  0  0  0  0  0  0  0  0  0
   -1.5641   -1.6713   -0.2798 N   0  0  0  0  0  0  0  0  0  0  0  0
   -2.2859   -1.3270   -0.9042 H   0  0  0  0  0  0  0  0  0  0  0  0
   -0.2961   -0.9238   -0.1857 C   0  0  1  0  0  0  0  0  0  0  0  0
    0.4922   -1.6309   -0.4681 H   0  0  0  0  0  0  0  0  0  0  0  0
   -0.2754    0.1953   -1.2480 C   0  0  0  0  0  0  0  0  0  0  0  0
    0.7669    0.3628   -1.5399 H   0  0  0  0  0  0  0  0  0  0  0  0
   -0.8055   -0.1298   -2.1486 H   0  0  0  0  0  0  0  0  0  0  0  0
   -0.8547    1.5034   -0.7562 C   0  0  0  0  0  0  0  0  0  0  0  0
   -0.0136    2.5790   -0.4333 C   0  0  0  0  0  0  0  0  0  0  0  0
    1.0645    2.4745   -0.5196 H   0  0  0  0  0  0  0  0  0  0  0  0
   -0.5493    3.7868    0.0257 C   0  0  0  0  0  0  0  0  0  0  0  0
    0.1126    4.6088    0.2824 H   0  0  0  0  0  0  0  0  0  0  0  0
   -1.9331    3.9341    0.1565 C   0  0  0  0  0  0  0  0  0  0  0  0
   -2.3476    4.8728    0.5128 H   0  0  0  0  0  0  0  0  0  0  0  0
   -2.7809    2.8739   -0.1764 C   0  0  0  0  0  0  0  0  0  0  0  0
   -3.8564    2.9923   -0.0825 H   0  0  0  0  0  0  0  0  0  0  0  0
   -2.2439    1.6661   -0.6344 C   0  0  0  0  0  0  0  0  0  0  0  0
   -2.9149    0.8558   -0.8980 H   0  0  0  0  0  0  0  0  0  0  0  0
    0.0967   -0.4310    1.2278 C   0  0  0  0  0  0  0  0  0  0  0  0
    1.2797   -0.3959    1.5429 O   0  0  0  0  0  0  0  0  0  0  0  0
   -0.8370    0.1678    2.0558 N   0  0  0  0  0  0  0  0  0  0  0  0
   -1.7615    0.3106    1.6636 H   0  0  0  0  0  0  0  0  0  0  0  0
   -0.4815    0.8629    3.2854 C   0  0  0  0  0  0  0  0  0  0  0  0
    0.1433    1.7345    3.0641 H   0  0  0  0  0  0  0  0  0  0  0  0
   -1.3840    1.2030    3.8016 H   0  0  0  0  0  0  0  0  0  0  0  0
    0.0681    0.1950    3.9571 H   0  0  0  0  0  0  0  0  0  0  0  0
  1  2  1  0  0  0  0
  2  3  1  0  0  0  0
  2  4  1  0  0  0  0
  2  5  1  0  0  0  0
  5  6  2  0  0  0  0
  5  7  1  0  0  0  0
  7  8  1  0  0  0  0
  7  9  1  0  0  0  0
  9 10  1  0  0  0  0
  9 11  1  0  0  0  0
  9 25  1  0  0  0  0
 11 12  1  0  0  0  0
 11 13  1  0  0  0  0
 11 14  1  0  0  0  0
 14 15  1  0  0  0  0
 14 23  2  0  0  0  0
 15 16  1  0  0  0  0
 15 17  2  0  0  0  0
 17 18  1  0  0  0  0
 17 19  1  0  0  0  0
 19 20  1  0  0  0  0
 19 21  2  0  0  0  0
 21 22  1  0  0  0  0
 21 23  1  0  0  0  0
 23 24  1  0  0  0  0
 25 26  2  0  0  0  0
 25 27  1  0  0  0  0
 27 28  1  0  0  0  0
 27 29  1  0  0  0  0
 29 30  1  0  0  0  0
 29 31  1  0  0  0  0
 29 32  1  0  0  0  0
M  END
$$$$

  -OEChem-03222214073D

 32 32  0     1  0  0  0  0  0999 V2000
   -3.1577   -4.5222    0.7615 H   0  0  0  0  0  0  0  0  0  0  0  0
   -3.1404   -3.5949    0.1816 C   0  0  0  0  0  0  0  0  0  0  0  0
   -3.9784   -2.9684    0.4962 H   0  0  0  0  0  0  0  0  0  0  0  0
   -3.2536   -3.8413   -0.8769 H   0  0  0  0  0  0  0  0  0  0  0  0
   -1.8303   -2.8633    0.4077 C   0  0  0  0  0  0  0  0  0  0  0  0
   -0.9946   -3.3355    1.1570 O   0  0  0  0  0  0  0  0  0  0  0  0
   -1.5900   -1.6724   -0.2496 N   0  0  0  0  0  0  0  0  0  0  0  0
   -2.2899   -1.3652   -0.9174 H   0  0  0  0  0  0  0  0  0  0  0  0
   -0.3242   -0.9200   -0.1615 C   0  0  1  0  0  0  0  0  0  0  0  0
    0.4592   -1.6258   -0.4602 H   0  0  0  0  0  0  0  0  0  0  0  0
   -0.3067    0.2070   -1.2158 C   0  0  0  0  0  0  0  0  0  0  0  0
    0.7360    0.3674   -1.5099 H   0  0  0  0  0  0  0  0  0  0  0  0
   -0.8422   -0.1138   -2.1147 H   0  0  0  0  0  0  0  0  0  0  0  0
   -0.8809    1.5223   -0.7313 C   0  0  0  0  0  0  0  0  0  0  0  0
   -0.0849    2.6778   -0.7137 C   0  0  0  0  0  0  0  0  0  0  0  0
    0.9596    2.6270   -1.0079 H   0  0  0  0  0  0  0  0  0  0  0  0
   -0.6160    3.9027   -0.2973 C   0  0  0  0  0  0  0  0  0  0  0  0
    0.0157    4.7858   -0.2745 H   0  0  0  0  0  0  0  0  0  0  0  0
   -1.9561    3.9899    0.0896 C   0  0  0  0  0  0  0  0  0  0  0  0
   -2.3665    4.9422    0.4132 H   0  0  0  0  0  0  0  0  0  0  0  0
   -2.7665    2.8520    0.0522 C   0  0  0  0  0  0  0  0  0  0  0  0
   -3.8109    2.9233    0.3419 H   0  0  0  0  0  0  0  0  0  0  0  0
   -2.2337    1.6275   -0.3645 C   0  0  0  0  0  0  0  0  0  0  0  0
   -2.8819    0.7593   -0.4030 H   0  0  0  0  0  0  0  0  0  0  0  0
    0.0996   -0.4410    1.2483 C   0  0  0  0  0  0  0  0  0  0  0  0
    1.2902   -0.4096    1.5338 O   0  0  0  0  0  0  0  0  0  0  0  0
   -0.8109    0.1460    2.1097 N   0  0  0  0  0  0  0  0  0  0  0  0
   -1.7536    0.2709    1.7575 H   0  0  0  0  0  0  0  0  0  0  0  0
   -0.4251    0.8199    3.3422 C   0  0  0  0  0  0  0  0  0  0  0  0
    0.1948    1.6949    3.1209 H   0  0  0  0  0  0  0  0  0  0  0  0
   -1.3146    1.1517    3.8859 H   0  0  0  0  0  0  0  0  0  0  0  0
    0.1402    0.1411    3.9895 H   0  0  0  0  0  0  0  0  0  0  0  0
  1  2  1  0  0  0  0
  2  3  1  0  0  0  0
  2  4  1  0  0  0  0
  2  5  1  0  0  0  0
  5  6  2  0  0  0  0
  5  7  1  0  0  0  0
  7  8  1  0  0  0  0
  7  9  1  0  0  0  0
  9 10  1  0  0  0  0
  9 11  1  0  0  0  0
  9 25  1  0  0  0  0
 11 12  1  0  0  0  0
 11 13  1  0  0  0  0
 11 14  1  0  0  0  0
 14 15  1  0  0  0  0
 14 23  2  0  0  0  0
 15 16  1  0  0  0  0
 15 17  2  0  0  0  0
 17 18  1  0  0  0  0
 17 19  1  0  0  0  0
 19 20  1  0  0  0  0
 19 21  2  0  0  0  0
 21 22  1  0  0  0  0
 21 23  1  0  0  0  0
 23 24  1  0  0  0  0
 25 26  2  0  0  0  0
 25 27  1  0  0  0  0
 27 28  1  0  0  0  0
 27 29  1  0  0  0  0
 29 30  1  0  0  0  0
 29 31  1  0  0  0  0
 29 32  1  0  0  0  0
M  END
$$$$

  -OEChem-03222214073D

 32 32  0     1  0  0  0  0  0999 V2000
   -3.1233   -4.5601    0.7220 H   0  0  0  0  0  0  0  0  0  0  0  0
   -3.1193   -3.6209    0.1612 C   0  0  0  0  0  0  0  0  0  0  0  0
   -3.9672   -3.0135    0.4861 H   0  0  0  0  0  0  0  0  0  0  0  0
   -3.2264   -3.8477   -0.9023 H   0  0  0  0  0  0  0  0  0  0  0  0
   -1.8216   -2.8735    0.4048 C   0  0  0  0  0  0  0  0  0  0  0  0
   -0.9786   -3.3483    1.1440 O   0  0  0  0  0  0  0  0  0  0  0  0
   -1.6038   -1.6604   -0.2185 N   0  0  0  0  0  0  0  0  0  0  0  0
   -2.3069   -1.3527   -0.8833 H   0  0  0  0  0  0  0  0  0  0  0  0
   -0.3433   -0.8988   -0.1310 C   0  0  1  0  0  0  0  0  0  0  0  0
    0.4347   -1.6005   -0.4537 H   0  0  0  0  0  0  0  0  0  0  0  0
   -0.3315    0.2363   -1.1779 C   0  0  0  0  0  0  0  0  0  0  0  0
    0.7134    0.3966   -1.4640 H   0  0  0  0  0  0  0  0  0  0  0  0
   -0.8594   -0.0877   -2.0800 H   0  0  0  0  0  0  0  0  0  0  0  0
   -0.9053    1.5631   -0.7192 C   0  0  0  0  0  0  0  0  0  0  0  0
   -0.2208    2.7545   -1.0078 C   0  0  0  0  0  0  0  0  0  0  0  0
    0.7470    2.7226   -1.5000 H   0  0  0  0  0  0  0  0  0  0  0  0
   -0.7612    3.9951   -0.6533 C   0  0  0  0  0  0  0  0  0  0  0  0
   -0.2110    4.9068   -0.8672 H   0  0  0  0  0  0  0  0  0  0  0  0
   -2.0079    4.0618   -0.0266 C   0  0  0  0  0  0  0  0  0  0  0  0
   -2.4260    5.0254    0.2492 H   0  0  0  0  0  0  0  0  0  0  0  0
   -2.7186    2.8875    0.2328 C   0  0  0  0  0  0  0  0  0  0  0  0
   -3.6949    2.9413    0.7054 H   0  0  0  0  0  0  0  0  0  0  0  0
   -2.1770    1.6481   -0.1245 C   0  0  0  0  0  0  0  0  0  0  0  0
   -2.7582    0.7525    0.0627 H   0  0  0  0  0  0  0  0  0  0  0  0
    0.1175   -0.4533    1.2783 C   0  0  0  0  0  0  0  0  0  0  0  0
    1.3158   -0.4258    1.5293 O   0  0  0  0  0  0  0  0  0  0  0  0
   -0.7645    0.1035    2.1872 N   0  0  0  0  0  0  0  0  0  0  0  0
   -1.7352    0.1721    1.9047 H   0  0  0  0  0  0  0  0  0  0  0  0
   -0.3493    0.6943    3.4524 C   0  0  0  0  0  0  0  0  0  0  0  0
    0.3118    1.5492    3.2758 H   0  0  0  0  0  0  0  0  0  0  0  0
   -1.2228    1.0406    4.0127 H   0  0  0  0  0  0  0  0  0  0  0  0
    0.1821   -0.0435    4.0628 H   0  0  0  0  0  0  0  0  0  0  0  0
  1  2  1  0  0  0  0
  2  3  1  0  0  0  0
  2  4  1  0  0  0  0
  2  5  1  0  0  0  0
  5  6  2  0  0  0  0
  5  7  1  0  0  0  0
  7  8  1  0  0  0  0
  7  9  1  0  0  0  0
  9 10  1  0  0  0  0
  9 11  1  0  0  0  0
  9 25  1  0  0  0  0
 11 12  1  0  0  0  0
 11 13  1  0  0  0  0
 11 14  1  0  0  0  0
 14 15  1  0  0  0  0
 14 23  2  0  0  0  0
 15 16  1  0  0  0  0
 15 17  2  0  0  0  0
 17 18  1  0  0  0  0
 17 19  1  0  0  0  0
 19 20  1  0  0  0  0
 19 21  2  0  0  0  0
 21 22  1  0  0  0  0
 21 23  1  0  0  0  0
 23 24  1  0  0  0  0
 25 26  2  0  0  0  0
 25 27  1  0  0  0  0
 27 28  1  0  0  0  0
 27 29  1  0  0  0  0
 29 30  1  0  0  0  0
 29 31  1  0  0  0  0
 29 32  1  0  0  0  0
M  END
$$$$

  -OEChem-03222214073D

 32 32  0     1  0  0  0  0  0999 V2000
   -3.0803   -4.5948    0.6715 H   0  0  0  0  0  0  0  0  0  0  0  0
   -3.0921   -3.6408    0.1365 C   0  0  0  0  0  0  0  0  0  0  0  0
   -3.9478   -3.0551    0.4811 H   0  0  0  0  0  0  0  0  0  0  0  0
   -3.2002   -3.8400   -0.9324 H   0  0  0  0  0  0  0  0  0  0  0  0
   -1.8045   -2.8809    0.3948 C   0  0  0  0  0  0  0  0  0  0  0  0
   -0.9470   -3.3645    1.1113 O   0  0  0  0  0  0  0  0  0  0  0  0
   -1.6155   -1.6397   -0.1801 N   0  0  0  0  0  0  0  0  0  0  0  0
   -2.3373   -1.3126   -0.8156 H   0  0  0  0  0  0  0  0  0  0  0  0
   -0.3643   -0.8637   -0.0886 C   0  0  1  0  0  0  0  0  0  0  0  0
    0.4078   -1.5611   -0.4340 H   0  0  0  0  0  0  0  0  0  0  0  0
   -0.3480    0.2741   -1.1328 C   0  0  0  0  0  0  0  0  0  0  0  0
    0.7014    0.4384   -1.4006 H   0  0  0  0  0  0  0  0  0  0  0  0
   -0.8584   -0.0596   -2.0414 H   0  0  0  0  0  0  0  0  0  0  0  0
   -0.9271    1.6122   -0.7132 C   0  0  0  0  0  0  0  0  0  0  0  0
   -0.4063    2.7849   -1.2832 C   0  0  0  0  0  0  0  0  0  0  0  0
    0.4521    2.7319   -1.9463 H   0  0  0  0  0  0  0  0  0  0  0  0
   -0.9634    4.0350   -0.9951 C   0  0  0  0  0  0  0  0  0  0  0  0
   -0.5304    4.9336   -1.4249 H   0  0  0  0  0  0  0  0  0  0  0  0
   -2.0777    4.1273   -0.1581 C   0  0  0  0  0  0  0  0  0  0  0  0
   -2.5104    5.0978    0.0666 H   0  0  0  0  0  0  0  0  0  0  0  0
   -2.6427    2.9663    0.3741 C   0  0  0  0  0  0  0  0  0  0  0  0
   -3.5230    3.0350    1.0063 H   0  0  0  0  0  0  0  0  0  0  0  0
   -2.0827    1.7178    0.0821 C   0  0  0  0  0  0  0  0  0  0  0  0
   -2.5653    0.8311    0.4751 H   0  0  0  0  0  0  0  0  0  0  0  0
    0.1388   -0.4615    1.3197 C   0  0  0  0  0  0  0  0  0  0  0  0
    1.3457   -0.4013    1.5184 O   0  0  0  0  0  0  0  0  0  0  0  0
   -0.7129    0.0496    2.2824 N   0  0  0  0  0  0  0  0  0  0  0  0
   -1.7072   -0.0136    2.0993 H   0  0  0  0  0  0  0  0  0  0  0  0
   -0.2585    0.5610    3.5690 C   0  0  0  0  0  0  0  0  0  0  0  0
    0.4084    1.4177    3.4249 H   0  0  0  0  0  0  0  0  0  0  0  0
   -1.1130    0.8852    4.1703 H   0  0  0  0  0  0  0  0  0  0  0  0
    0.2792   -0.2162    4.1222 H   0  0  0  0  0  0  0  0  0  0  0  0
  1  2  1  0  0  0  0
  2  3  1  0  0  0  0
  2  4  1  0  0  0  0
  2  5  1  0  0  0  0
  5  6  2  0  0  0  0
  5  7  1  0  0  0  0
  7  8  1  0  0  0  0
  7  9  1  0  0  0  0
  9 10  1  0  0  0  0
  9 11  1  0  0  0  0
  9 25  1  0  0  0  0
 11 12  1  0  0  0  0
 11 13  1  0  0  0  0
 11 14  1  0  0  0  0
 14 15  1  0  0  0  0
 14 23  2  0  0  0  0
 15 16  1  0  0  0  0
 15 17  2  0  0  0  0
 17 18  1  0  0  0  0
 17 19  1  0  0  0  0
 19 20  1  0  0  0  0
 19 21  2  0  0  0  0
 21 22  1  0  0  0  0
 21 23  1  0  0  0  0
 23 24  1  0  0  0  0
 25 26  2  0  0  0  0
 25 27  1  0  0  0  0
 27 28  1  0  0  0  0
 27 29  1  0  0  0  0
 29 30  1  0  0  0  0
 29 31  1  0  0  0  0
 29 32  1  0  0  0  0
M  END
$$$$

  -OEChem-03222214073D

 32 32  0     1  0  0  0  0  0999 V2000
   -3.1717   -4.5496    0.7693 H   0  0  0  0  0  0  0  0  0  0  0  0
   -3.2058   -3.5821    0.2602 C   0  0  0  0  0  0  0  0  0  0  0  0
   -4.0145   -2.9870    0.6912 H   0  0  0  0  0  0  0  0  0  0  0  0
   -3.4100   -3.7502   -0.8000 H   0  0  0  0  0  0  0  0  0  0  0  0
   -1.8820   -2.8592    0.4252 C   0  0  0  0  0  0  0  0  0  0  0  0
   -0.9719   -3.3895    1.0364 O   0  0  0  0  0  0  0  0  0  0  0  0
   -1.7226   -1.5925   -0.1005 N   0  0  0  0  0  0  0  0  0  0  0  0
   -2.5008   -1.2115   -0.6312 H   0  0  0  0  0  0  0  0  0  0  0  0
   -0.4555   -0.8391   -0.0894 C   0  0  1  0  0  0  0  0  0  0  0  0
    0.2608   -1.5563   -0.5077 H   0  0  0  0  0  0  0  0  0  0  0  0
   -0.4649    0.2952   -1.1392 C   0  0  0  0  0  0  0  0  0  0  0  0
    0.5743    0.4297   -1.4589 H   0  0  0  0  0  0  0  0  0  0  0  0
   -1.0250   -0.0419   -2.0169 H   0  0  0  0  0  0  0  0  0  0  0  0
   -0.9815    1.6656   -0.7403 C   0  0  0  0  0  0  0  0  0  0  0  0
   -0.6842    2.7503   -1.5820 C   0  0  0  0  0  0  0  0  0  0  0  0
   -0.0191    2.6104   -2.4292 H   0  0  0  0  0  0  0  0  0  0  0  0
   -1.2102    4.0232   -1.3378 C   0  0  0  0  0  0  0  0  0  0  0  0
   -0.9431    4.8544   -1.9839 H   0  0  0  0  0  0  0  0  0  0  0  0
   -2.0823    4.2235   -0.2662 C   0  0  0  0  0  0  0  0  0  0  0  0
   -2.4908    5.2112   -0.0725 H   0  0  0  0  0  0  0  0  0  0  0  0
   -2.4439    3.1433    0.5413 C   0  0  0  0  0  0  0  0  0  0  0  0
   -3.1475    3.2898    1.3554 H   0  0  0  0  0  0  0  0  0  0  0  0
   -1.9164    1.8719    0.2899 C   0  0  0  0  0  0  0  0  0  0  0  0
   -2.2708    1.0477    0.8939 H   0  0  0  0  0  0  0  0  0  0  0  0
    0.1963   -0.5112    1.2771 C   0  0  0  0  0  0  0  0  0  0  0  0
    1.4179   -0.4625    1.3456 O   0  0  0  0  0  0  0  0  0  0  0  0
   -0.5382   -0.0368    2.3492 N   0  0  0  0  0  0  0  0  0  0  0  0
   -1.5395   -0.1894    2.3113 H   0  0  0  0  0  0  0  0  0  0  0  0
    0.0635    0.3418    3.6214 C   0  0  0  0  0  0  0  0  0  0  0  0
    0.7994    1.1395    3.4743 H   0  0  0  0  0  0  0  0  0  0  0  0
   -0.7051    0.7062    4.3095 H   0  0  0  0  0  0  0  0  0  0  0  0
    0.5621   -0.5185    4.0800 H   0  0  0  0  0  0  0  0  0  0  0  0
  1  2  1  0  0  0  0
  2  3  1  0  0  0  0
  2  4  1  0  0  0  0
  2  5  1  0  0  0  0
  5  6  2  0  0  0  0
  5  7  1  0  0  0  0
  7  8  1  0  0  0  0
  7  9  1  0  0  0  0
  9 10  1  0  0  0  0
  9 11  1  0  0  0  0
  9 25  1  0  0  0  0
 11 12  1  0  0  0  0
 11 13  1  0  0  0  0
 11 14  1  0  0  0  0
 14 15  1  0  0  0  0
 14 23  2  0  0  0  0
 15 16  1  0  0  0  0
 15 17  2  0  0  0  0
 17 18  1  0  0  0  0
 17 19  1  0  0  0  0
 19 20  1  0  0  0  0
 19 21  2  0  0  0  0
 21 22  1  0  0  0  0
 21 23  1  0  0  0  0
 23 24  1  0  0  0  0
 25 26  2  0  0  0  0
 25 27  1  0  0  0  0
 27 28  1  0  0  0  0
 27 29  1  0  0  0  0
 29 30  1  0  0  0  0
 29 31  1  0  0  0  0
 29 32  1  0  0  0  0
M  END
$$$$

  -OEChem-03222214073D

 32 32  0     1  0  0  0  0  0999 V2000
   -3.2474   -4.5217    0.4339 H   0  0  0  0  0  0  0  0  0  0  0  0
   -3.2582   -3.5029    0.0360 C   0  0  0  0  0  0  0  0  0  0  0  0
   -4.0488   -2.9391    0.5366 H   0  0  0  0  0  0  0  0  0  0  0  0
   -3.4722   -3.5468   -1.0345 H   0  0  0  0  0  0  0  0  0  0  0  0
   -1.9147   -2.8372    0.2698 C   0  0  0  0  0  0  0  0  0  0  0  0
   -1.0158   -3.4579    0.8080 O   0  0  0  0  0  0  0  0  0  0  0  0
   -1.7257   -1.5221   -0.1089 N   0  0  0  0  0  0  0  0  0  0  0  0
   -2.5091   -1.0534   -0.5549 H   0  0  0  0  0  0  0  0  0  0  0  0
   -0.4549   -0.7829    0.0202 C   0  0  1  0  0  0  0  0  0  0  0  0
    0.2681   -1.4937   -0.3984 H   0  0  0  0  0  0  0  0  0  0  0  0
   -0.3665    0.3805   -1.0088 C   0  0  0  0  0  0  0  0  0  0  0  0
    0.6437    0.3170   -1.4283 H   0  0  0  0  0  0  0  0  0  0  0  0
   -1.0558    0.1505   -1.8275 H   0  0  0  0  0  0  0  0  0  0  0  0
   -0.5485    1.8541   -0.6654 C   0  0  0  0  0  0  0  0  0  0  0  0
   -0.4269    2.7528   -1.7411 C   0  0  0  0  0  0  0  0  0  0  0  0
   -0.1725    2.3799   -2.7288 H   0  0  0  0  0  0  0  0  0  0  0  0
   -0.6122    4.1285   -1.5728 C   0  0  0  0  0  0  0  0  0  0  0  0
   -0.4983    4.8002   -2.4186 H   0  0  0  0  0  0  0  0  0  0  0  0
   -0.9422    4.6370   -0.3167 C   0  0  0  0  0  0  0  0  0  0  0  0
   -1.0833    5.7050   -0.1783 H   0  0  0  0  0  0  0  0  0  0  0  0
   -1.0940    3.7635    0.7605 C   0  0  0  0  0  0  0  0  0  0  0  0
   -1.3593    4.1519    1.7394 H   0  0  0  0  0  0  0  0  0  0  0  0
   -0.9091    2.3876    0.5846 C   0  0  0  0  0  0  0  0  0  0  0  0
   -1.0684    1.7720    1.4503 H   0  0  0  0  0  0  0  0  0  0  0  0
    0.1137   -0.6374    1.4517 C   0  0  0  0  0  0  0  0  0  0  0  0
    1.3270   -0.6113    1.6116 O   0  0  0  0  0  0  0  0  0  0  0  0
   -0.6978   -0.2940    2.5193 N   0  0  0  0  0  0  0  0  0  0  0  0
   -1.6957   -0.4143    2.3808 H   0  0  0  0  0  0  0  0  0  0  0  0
   -0.1930   -0.1252    3.8764 C   0  0  0  0  0  0  0  0  0  0  0  0
    0.5757    0.6544    3.9059 H   0  0  0  0  0  0  0  0  0  0  0  0
   -1.0051    0.1677    4.5484 H   0  0  0  0  0  0  0  0  0  0  0  0
    0.2409   -1.0620    4.2416 H   0  0  0  0  0  0  0  0  0  0  0  0
  1  2  1  0  0  0  0
  2  3  1  0  0  0  0
  2  4  1  0  0  0  0
  2  5  1  0  0  0  0
  5  6  2  0  0  0  0
  5  7  1  0  0  0  0
  7  8  1  0  0  0  0
  7  9  1  0  0  0  0
  9 10  1  0  0  0  0
  9 11  1  0  0  0  0
  9 25  1  0  0  0  0
 11 12  1  0  0  0  0
 11 13  1  0  0  0  0
 11 14  1  0  0  0  0
 14 15  1  0  0  0  0
 14 23  2  0  0  0  0
 15 16  1  0  0  0  0
 15 17  2  0  0  0  0
 17 18  1  0  0  0  0
 17 19  1  0  0  0  0
 19 20  1  0  0  0  0
 19 21  2  0  0  0  0
 21 22  1  0  0  0  0
 21 23  1  0  0  0  0
 23 24  1  0  0  0  0
 25 26  2  0  0  0  0
 25 27  1  0  0  0  0
 27 28  1  0  0  0  0
 27 29  1  0  0  0  0
 29 30  1  0  0  0  0
 29 31  1  0  0  0  0
 29 32  1  0  0  0  0
M  END
$$$$

  -OEChem-03222214073D

 32 32  0     1  0  0  0  0  0999 V2000
   -3.1647   -4.5175    0.5613 H   0  0  0  0  0  0  0  0  0  0  0  0
   -3.1595   -3.5316    0.0877 C   0  0  0  0  0  0  0  0  0  0  0  0
   -3.9428   -2.9202    0.5417 H   0  0  0  0  0  0  0  0  0  0  0  0
   -3.3711   -3.6517   -0.9775 H   0  0  0  0  0  0  0  0  0  0  0  0
   -1.8067   -2.8707    0.2756 C   0  0  0  0  0  0  0  0  0  0  0  0
   -0.9067   -3.4780    0.8268 O   0  0  0  0  0  0  0  0  0  0  0  0
   -1.6066   -1.5810   -0.1780 N   0  0  0  0  0  0  0  0  0  0  0  0
   -2.3937   -1.1236   -0.6288 H   0  0  0  0  0  0  0  0  0  0  0  0
   -0.3423   -0.8286   -0.0468 C   0  0  1  0  0  0  0  0  0  0  0  0
    0.4313   -1.4928   -0.4501 H   0  0  0  0  0  0  0  0  0  0  0  0
   -0.3758    0.3749   -1.0369 C   0  0  0  0  0  0  0  0  0  0  0  0
    0.6080    0.3776   -1.5181 H   0  0  0  0  0  0  0  0  0  0  0  0
   -1.0974    0.1348   -1.8243 H   0  0  0  0  0  0  0  0  0  0  0  0
   -0.6025    1.8303   -0.6307 C   0  0  0  0  0  0  0  0  0  0  0  0
   -0.9302    2.7115   -1.6793 C   0  0  0  0  0  0  0  0  0  0  0  0
   -1.0703    2.3268   -2.6852 H   0  0  0  0  0  0  0  0  0  0  0  0
   -1.1034    4.0823   -1.4645 C   0  0  0  0  0  0  0  0  0  0  0  0
   -1.3827    4.7317   -2.2889 H   0  0  0  0  0  0  0  0  0  0  0  0
   -0.9057    4.6169   -0.1923 C   0  0  0  0  0  0  0  0  0  0  0  0
   -1.0341    5.6813   -0.0193 H   0  0  0  0  0  0  0  0  0  0  0  0
   -0.5067    3.7797    0.8491 C   0  0  0  0  0  0  0  0  0  0  0  0
   -0.3050    4.1962    1.8318 H   0  0  0  0  0  0  0  0  0  0  0  0
   -0.3333    2.4090    0.6270 C   0  0  0  0  0  0  0  0  0  0  0  0
    0.0614    1.8488    1.4598 H   0  0  0  0  0  0  0  0  0  0  0  0
    0.0955   -0.6350    1.4206 C   0  0  0  0  0  0  0  0  0  0  0  0
    1.2855   -0.6216    1.7054 O   0  0  0  0  0  0  0  0  0  0  0  0
   -0.8261   -0.2524    2.3815 N   0  0  0  0  0  0  0  0  0  0  0  0
   -1.8041   -0.3034    2.1166 H   0  0  0  0  0  0  0  0  0  0  0  0
   -0.4836   -0.0714    3.7867 C   0  0  0  0  0  0  0  0  0  0  0  0
    0.3052    0.6801    3.8971 H   0  0  0  0  0  0  0  0  0  0  0  0
   -1.3601    0.2649    4.3486 H   0  0  0  0  0  0  0  0  0  0  0  0
   -0.1342   -1.0149    4.2191 H   0  0  0  0  0  0  0  0  0  0  0  0
  1  2  1  0  0  0  0
  2  3  1  0  0  0  0
  2  4  1  0  0  0  0
  2  5  1  0  0  0  0
  5  6  2  0  0  0  0
  5  7  1  0  0  0  0
  7  8  1  0  0  0  0
  7  9  1  0  0  0  0
  9 10  1  0  0  0  0
  9 11  1  0  0  0  0
  9 25  1  0  0  0  0
 11 12  1  0  0  0  0
 11 13  1  0  0  0  0
 11 14  1  0  0  0  0
 14 15  1  0  0  0  0
 14 23  2  0  0  0  0
 15 16  1  0  0  0  0
 15 17  2  0  0  0  0
 17 18  1  0  0  0  0
 17 19  1  0  0  0  0
 19 20  1  0  0  0  0
 19 21  2  0  0  0  0
 21 22  1  0  0  0  0
 21 23  1  0  0  0  0
 23 24  1  0  0  0  0
 25 26  2  0  0  0  0
 25 27  1  0  0  0  0
 27 28  1  0  0  0  0
 27 29  1  0  0  0  0
 29 30  1  0  0  0  0
 29 31  1  0  0  0  0
 29 32  1  0  0  0  0
M  END
$$$$

  -OEChem-03222214073D

 32 32  0     1  0  0  0  0  0999 V2000
   -3.1998   -4.4746    0.6615 H   0  0  0  0  0  0  0  0  0  0  0  0
   -3.1703   -3.5135    0.1402 C   0  0  0  0  0  0  0  0  0  0  0  0
   -3.9382   -2.8614    0.5629 H   0  0  0  0  0  0  0  0  0  0  0  0
   -3.3839   -3.6806   -0.9183 H   0  0  0  0  0  0  0  0  0  0  0  0
   -1.8021   -2.8772    0.2984 C   0  0  0  0  0  0  0  0  0  0  0  0
   -0.9163   -3.4811    0.8760 O   0  0  0  0  0  0  0  0  0  0  0  0
   -1.5704   -1.6164   -0.2170 N   0  0  0  0  0  0  0  0  0  0  0  0
   -2.3512   -1.1539   -0.6730 H   0  0  0  0  0  0  0  0  0  0  0  0
   -0.2987   -0.8778   -0.0822 C   0  0  1  0  0  0  0  0  0  0  0  0
    0.4854   -1.5472   -0.4553 H   0  0  0  0  0  0  0  0  0  0  0  0
   -0.3434    0.3177   -1.0805 C   0  0  0  0  0  0  0  0  0  0  0  0
    0.6374    0.3348   -1.5671 H   0  0  0  0  0  0  0  0  0  0  0  0
   -1.0659    0.0804   -1.8677 H   0  0  0  0  0  0  0  0  0  0  0  0
   -0.5757    1.7539   -0.6189 C   0  0  0  0  0  0  0  0  0  0  0  0
   -1.2319    2.6144   -1.5193 C   0  0  0  0  0  0  0  0  0  0  0  0
   -1.6280    2.2260   -2.4527 H   0  0  0  0  0  0  0  0  0  0  0  0
   -1.4124    3.9725   -1.2380 C   0  0  0  0  0  0  0  0  0  0  0  0
   -1.9480    4.6073   -1.9378 H   0  0  0  0  0  0  0  0  0  0  0  0
   -0.8906    4.5162   -0.0645 C   0  0  0  0  0  0  0  0  0  0  0  0
   -1.0240    5.5712    0.1569 H   0  0  0  0  0  0  0  0  0  0  0  0
   -0.1632    3.7032    0.8048 C   0  0  0  0  0  0  0  0  0  0  0  0
    0.2886    4.1280    1.6967 H   0  0  0  0  0  0  0  0  0  0  0  0
    0.0161    2.3464    0.5160 C   0  0  0  0  0  0  0  0  0  0  0  0
    0.6644    1.7953    1.1851 H   0  0  0  0  0  0  0  0  0  0  0  0
    0.0920   -0.6141    1.3873 C   0  0  0  0  0  0  0  0  0  0  0  0
    1.2690   -0.6497    1.7227 O   0  0  0  0  0  0  0  0  0  0  0  0
   -0.8523   -0.1646    2.2942 N   0  0  0  0  0  0  0  0  0  0  0  0
   -1.8146   -0.1235    1.9766 H   0  0  0  0  0  0  0  0  0  0  0  0
   -0.5478    0.1363    3.6865 C   0  0  0  0  0  0  0  0  0  0  0  0
    0.2146    0.9194    3.7519 H   0  0  0  0  0  0  0  0  0  0  0  0
   -1.4463    0.4857    4.2038 H   0  0  0  0  0  0  0  0  0  0  0  0
   -0.1787   -0.7591    4.1977 H   0  0  0  0  0  0  0  0  0  0  0  0
  1  2  1  0  0  0  0
  2  3  1  0  0  0  0
  2  4  1  0  0  0  0
  2  5  1  0  0  0  0
  5  6  2  0  0  0  0
  5  7  1  0  0  0  0
  7  8  1  0  0  0  0
  7  9  1  0  0  0  0
  9 10  1  0  0  0  0
  9 11  1  0  0  0  0
  9 25  1  0  0  0  0
 11 12  1  0  0  0  0
 11 13  1  0  0  0  0
 11 14  1  0  0  0  0
 14 15  1  0  0  0  0
 14 23  2  0  0  0  0
 15 16  1  0  0  0  0
 15 17  2  0  0  0  0
 17 18  1  0  0  0  0
 17 19  1  0  0  0  0
 19 20  1  0  0  0  0
 19 21  2  0  0  0  0
 21 22  1  0  0  0  0
 21 23  1  0  0  0  0
 23 24  1  0  0  0  0
 25 26  2  0  0  0  0
 25 27  1  0  0  0  0
 27 28  1  0  0  0  0
 27 29  1  0  0  0  0
 29 30  1  0  0  0  0
 29 31  1  0  0  0  0
 29 32  1  0  0  0  0
M  END
$$$$

  -OEChem-03222214073D

 32 32  0     1  0  0  0  0  0999 V2000
   -3.2116   -4.4482    0.7327 H   0  0  0  0  0  0  0  0  0  0  0  0
   -3.1724   -3.5061    0.1780 C   0  0  0  0  0  0  0  0  0  0  0  0
   -3.9336   -2.8322    0.5780 H   0  0  0  0  0  0  0  0  0  0  0  0
   -3.3884   -3.7082   -0.8739 H   0  0  0  0  0  0  0  0  0  0  0  0
   -1.7971   -2.8791    0.3133 C   0  0  0  0  0  0  0  0  0  0  0  0
   -0.9161   -3.4757    0.9054 O   0  0  0  0  0  0  0  0  0  0  0  0
   -1.5494   -1.6412   -0.2487 N   0  0  0  0  0  0  0  0  0  0  0  0
   -2.3285   -1.1795   -0.7074 H   0  0  0  0  0  0  0  0  0  0  0  0
   -0.2760   -0.9056   -0.1149 C   0  0  1  0  0  0  0  0  0  0  0  0
    0.5134   -1.5838   -0.4593 H   0  0  0  0  0  0  0  0  0  0  0  0
   -0.3096    0.2738   -1.1290 C   0  0  0  0  0  0  0  0  0  0  0  0
    0.6730    0.2941   -1.6119 H   0  0  0  0  0  0  0  0  0  0  0  0
   -1.0301    0.0445   -1.9206 H   0  0  0  0  0  0  0  0  0  0  0  0
   -0.5450    1.6889   -0.6210 C   0  0  0  0  0  0  0  0  0  0  0  0
   -1.4619    2.5033   -1.3093 C   0  0  0  0  0  0  0  0  0  0  0  0
   -2.0482    2.0960   -2.1271 H   0  0  0  0  0  0  0  0  0  0  0  0
   -1.6542    3.8422   -0.9522 C   0  0  0  0  0  0  0  0  0  0  0  0
   -2.3868    4.4461   -1.4796 H   0  0  0  0  0  0  0  0  0  0  0  0
   -0.8947    4.4074    0.0736 C   0  0  0  0  0  0  0  0  0  0  0  0
   -1.0385    5.4472    0.3524 H   0  0  0  0  0  0  0  0  0  0  0  0
    0.0747    3.6378    0.7185 C   0  0  0  0  0  0  0  0  0  0  0  0
    0.6980    4.0806    1.4901 H   0  0  0  0  0  0  0  0  0  0  0  0
    0.2643    2.3004    0.3563 C   0  0  0  0  0  0  0  0  0  0  0  0
    1.0726    1.7585    0.8366 H   0  0  0  0  0  0  0  0  0  0  0  0
    0.0926   -0.5804    1.3498 C   0  0  0  0  0  0  0  0  0  0  0  0
    1.2612   -0.6334    1.7126 O   0  0  0  0  0  0  0  0  0  0  0  0
   -0.8619   -0.0847    2.2207 N   0  0  0  0  0  0  0  0  0  0  0  0
   -1.8014    0.0351    1.8580 H   0  0  0  0  0  0  0  0  0  0  0  0
   -0.5636    0.3395    3.5819 C   0  0  0  0  0  0  0  0  0  0  0  0
    0.1616    1.1601    3.5771 H   0  0  0  0  0  0  0  0  0  0  0  0
   -1.4750    0.6856    4.0782 H   0  0  0  0  0  0  0  0  0  0  0  0
   -0.1500   -0.4946    4.1588 H   0  0  0  0  0  0  0  0  0  0  0  0
  1  2  1  0  0  0  0
  2  3  1  0  0  0  0
  2  4  1  0  0  0  0
  2  5  1  0  0  0  0
  5  6  2  0  0  0  0
  5  7  1  0  0  0  0
  7  8  1  0  0  0  0
  7  9  1  0  0  0  0
  9 10  1  0  0  0  0
  9 11  1  0  0  0  0
  9 25  1  0  0  0  0
 11 12  1  0  0  0  0
 11 13  1  0  0  0  0
 11 14  1  0  0  0  0
 14 15  1  0  0  0  0
 14 23  2  0  0  0  0
 15 16  1  0  0  0  0
 15 17  2  0  0  0  0
 17 18  1  0  0  0  0
 17 19  1  0  0  0  0
 19 20  1  0  0  0  0
 19 21  2  0  0  0  0
 21 22  1  0  0  0  0
 21 23  1  0  0  0  0
 23 24  1  0  0  0  0
 25 26  2  0  0  0  0
 25 27  1  0  0  0  0
 27 28  1  0  0  0  0
 27 29  1  0  0  0  0
 29 30  1  0  0  0  0
 29 31  1  0  0  0  0
 29 32  1  0  0  0  0
M  END
$$$$

  -OEChem-03222214073D

 32 32  0     1  0  0  0  0  0999 V2000
   -3.2204   -4.4281    0.7708 H   0  0  0  0  0  0  0  0  0  0  0  0
   -3.1757   -3.4954    0.2011 C   0  0  0  0  0  0  0  0  0  0  0  0
   -3.9323   -2.8104    0.5907 H   0  0  0  0  0  0  0  0  0  0  0  0
   -3.3935   -3.7127   -0.8473 H   0  0  0  0  0  0  0  0  0  0  0  0
   -1.7971   -2.8740    0.3259 C   0  0  0  0  0  0  0  0  0  0  0  0
   -0.9235   -3.4574    0.9419 O   0  0  0  0  0  0  0  0  0  0  0  0
   -1.5392   -1.6554   -0.2716 N   0  0  0  0  0  0  0  0  0  0  0  0
   -2.3126   -1.2036   -0.7492 H   0  0  0  0  0  0  0  0  0  0  0  0
   -0.2654   -0.9210   -0.1437 C   0  0  1  0  0  0  0  0  0  0  0  0
    0.5241   -1.6102   -0.4649 H   0  0  0  0  0  0  0  0  0  0  0  0
   -0.2799    0.2392   -1.1752 C   0  0  0  0  0  0  0  0  0  0  0  0
    0.7041    0.2542   -1.6551 H   0  0  0  0  0  0  0  0  0  0  0  0
   -1.0006    0.0199   -1.9692 H   0  0  0  0  0  0  0  0  0  0  0  0
   -0.5148    1.6378   -0.6362 C   0  0  0  0  0  0  0  0  0  0  0  0
   -1.6265    2.3723   -1.0810 C   0  0  0  0  0  0  0  0  0  0  0  0
   -2.3445    1.9221   -1.7594 H   0  0  0  0  0  0  0  0  0  0  0  0
   -1.8351    3.6880   -0.6536 C   0  0  0  0  0  0  0  0  0  0  0  0
   -2.7085    4.2378   -0.9918 H   0  0  0  0  0  0  0  0  0  0  0  0
   -0.9147    4.2998    0.2009 C   0  0  0  0  0  0  0  0  0  0  0  0
   -1.0733    5.3216    0.5333 H   0  0  0  0  0  0  0  0  0  0  0  0
    0.2223    3.5998    0.6113 C   0  0  0  0  0  0  0  0  0  0  0  0
    0.9535    4.0769    1.2574 H   0  0  0  0  0  0  0  0  0  0  0  0
    0.4286    2.2852    0.1815 C   0  0  0  0  0  0  0  0  0  0  0  0
    1.3353    1.7708    0.4895 H   0  0  0  0  0  0  0  0  0  0  0  0
    0.1009   -0.5435    1.3108 C   0  0  0  0  0  0  0  0  0  0  0  0
    1.2709   -0.5771    1.6717 O   0  0  0  0  0  0  0  0  0  0  0  0
   -0.8524   -0.0110    2.1615 N   0  0  0  0  0  0  0  0  0  0  0  0
   -1.7782    0.1395    1.7762 H   0  0  0  0  0  0  0  0  0  0  0  0
   -0.5377    0.5233    3.4796 C   0  0  0  0  0  0  0  0  0  0  0  0
    0.1583    1.3645    3.3952 H   0  0  0  0  0  0  0  0  0  0  0  0
   -1.4488    0.8746    3.9731 H   0  0  0  0  0  0  0  0  0  0  0  0
   -0.0817   -0.2503    4.1062 H   0  0  0  0  0  0  0  0  0  0  0  0
  1  2  1  0  0  0  0
  2  3  1  0  0  0  0
  2  4  1  0  0  0  0
  2  5  1  0  0  0  0
  5  6  2  0  0  0  0
  5  7  1  0  0  0  0
  7  8  1  0  0  0  0
  7  9  1  0  0  0  0
  9 10  1  0  0  0  0
  9 11  1  0  0  0  0
  9 25  1  0  0  0  0
 11 12  1  0  0  0  0
 11 13  1  0  0  0  0
 11 14  1  0  0  0  0
 14 15  1  0  0  0  0
 14 23  2  0  0  0  0
 15 16  1  0  0  0  0
 15 17  2  0  0  0  0
 17 18  1  0  0  0  0
 17 19  1  0  0  0  0
 19 20  1  0  0  0  0
 19 21  2  0  0  0  0
 21 22  1  0  0  0  0
 21 23  1  0  0  0  0
 23 24  1  0  0  0  0
 25 26  2  0  0  0  0
 25 27  1  0  0  0  0
 27 28  1  0  0  0  0
 27 29  1  0  0  0  0
 29 30  1  0  0  0  0
 29 31  1  0  0  0  0
 29 32  1  0  0  0  0
M  END
$$$$

  -OEChem-03222214073D

 32 32  0     1  0  0  0  0  0999 V2000
   -3.2192   -4.4236    0.7919 H   0  0  0  0  0  0  0  0  0  0  0  0
   -3.1781   -3.4949    0.2157 C   0  0  0  0  0  0  0  0  0  0  0  0
   -3.9411   -2.8119    0.5964 H   0  0  0  0  0  0  0  0  0  0  0  0
   -3.3895   -3.7217   -0.8321 H   0  0  0  0  0  0  0  0  0  0  0  0
   -1.8042   -2.8636    0.3434 C   0  0  0  0  0  0  0  0  0  0  0  0
   -0.9372   -3.4242    0.9893 O   0  0  0  0  0  0  0  0  0  0  0  0
   -1.5434   -1.6604   -0.2829 N   0  0  0  0  0  0  0  0  0  0  0  0
   -2.3075   -1.2311   -0.7945 H   0  0  0  0  0  0  0  0  0  0  0  0
   -0.2694   -0.9250   -0.1683 C   0  0  1  0  0  0  0  0  0  0  0  0
    0.5167   -1.6256   -0.4726 H   0  0  0  0  0  0  0  0  0  0  0  0
   -0.2641    0.2160   -1.2171 C   0  0  0  0  0  0  0  0  0  0  0  0
    0.7209    0.2192   -1.6960 H   0  0  0  0  0  0  0  0  0  0  0  0
   -0.9887    0.0041   -2.0097 H   0  0  0  0  0  0  0  0  0  0  0  0
   -0.4950    1.6052   -0.6625 C   0  0  0  0  0  0  0  0  0  0  0  0
   -1.7352    2.2372   -0.8426 C   0  0  0  0  0  0  0  0  0  0  0  0
   -2.5385    1.7273   -1.3648 H   0  0  0  0  0  0  0  0  0  0  0  0
   -1.9536    3.5295   -0.3528 C   0  0  0  0  0  0  0  0  0  0  0  0
   -2.9183    4.0089   -0.4909 H   0  0  0  0  0  0  0  0  0  0  0  0
   -0.9278    4.2089    0.3104 C   0  0  0  0  0  0  0  0  0  0  0  0
   -1.0946    5.2127    0.6905 H   0  0  0  0  0  0  0  0  0  0  0  0
    0.3179    3.5973    0.4769 C   0  0  0  0  0  0  0  0  0  0  0  0
    1.1204    4.1227    0.9867 H   0  0  0  0  0  0  0  0  0  0  0  0
    0.5346    2.3058   -0.0134 C   0  0  0  0  0  0  0  0  0  0  0  0
    1.5073    1.8403    0.1258 H   0  0  0  0  0  0  0  0  0  0  0  0
    0.1100   -0.5036    1.2715 C   0  0  0  0  0  0  0  0  0  0  0  0
    1.2865   -0.5084    1.6129 O   0  0  0  0  0  0  0  0  0  0  0  0
   -0.8346    0.0575    2.1137 N   0  0  0  0  0  0  0  0  0  0  0  0
   -1.7613    0.2015    1.7282 H   0  0  0  0  0  0  0  0  0  0  0  0
   -0.4980    0.6744    3.3896 C   0  0  0  0  0  0  0  0  0  0  0  0
    0.1660    1.5315    3.2361 H   0  0  0  0  0  0  0  0  0  0  0  0
   -1.4052    1.0236    3.8914 H   0  0  0  0  0  0  0  0  0  0  0  0
    0.0018   -0.0479    4.0436 H   0  0  0  0  0  0  0  0  0  0  0  0
  1  2  1  0  0  0  0
  2  3  1  0  0  0  0
  2  4  1  0  0  0  0
  2  5  1  0  0  0  0
  5  6  2  0  0  0  0
  5  7  1  0  0  0  0
  7  8  1  0  0  0  0
  7  9  1  0  0  0  0
  9 10  1  0  0  0  0
  9 11  1  0  0  0  0
  9 25  1  0  0  0  0
 11 12  1  0  0  0  0
 11 13  1  0  0  0  0
 11 14  1  0  0  0  0
 14 15  1  0  0  0  0
 14 23  2  0  0  0  0
 15 16  1  0  0  0  0
 15 17  2  0  0  0  0
 17 18  1  0  0  0  0
 17 19  1  0  0  0  0
 19 20  1  0  0  0  0
 19 21  2  0  0  0  0
 21 22  1  0  0  0  0
 21 23  1  0  0  0  0
 23 24  1  0  0  0  0
 25 26  2  0  0  0  0
 25 27  1  0  0  0  0
 27 28  1  0  0  0  0
 27 29  1  0  0  0  0
 29 30  1  0  0  0  0
 29 31  1  0  0  0  0
 29 32  1  0  0  0  0
M  END
$$$$

  -OEChem-03222214073D

 32 32  0     1  0  0  0  0  0999 V2000
   -3.2137   -4.4417    0.7861 H   0  0  0  0  0  0  0  0  0  0  0  0
   -3.1799   -3.5111    0.2120 C   0  0  0  0  0  0  0  0  0  0  0  0
   -3.9628   -2.8433    0.5795 H   0  0  0  0  0  0  0  0  0  0  0  0
   -3.3676   -3.7404   -0.8397 H   0  0  0  0  0  0  0  0  0  0  0  0
   -1.8207   -2.8537    0.3646 C   0  0  0  0  0  0  0  0  0  0  0  0
   -0.9633   -3.3873    1.0450 O   0  0  0  0  0  0  0  0  0  0  0  0
   -1.5603   -1.6605   -0.2810 N   0  0  0  0  0  0  0  0  0  0  0  0
   -2.3083   -1.2648   -0.8412 H   0  0  0  0  0  0  0  0  0  0  0  0
   -0.2862   -0.9238   -0.1792 C   0  0  1  0  0  0  0  0  0  0  0  0
    0.4945   -1.6353   -0.4718 H   0  0  0  0  0  0  0  0  0  0  0  0
   -0.2630    0.2007   -1.2423 C   0  0  0  0  0  0  0  0  0  0  0  0
    0.7229    0.1882   -1.7188 H   0  0  0  0  0  0  0  0  0  0  0  0
   -0.9909   -0.0063   -2.0329 H   0  0  0  0  0  0  0  0  0  0  0  0
   -0.4896    1.5884   -0.6870 C   0  0  0  0  0  0  0  0  0  0  0  0
   -1.7899    2.1074   -0.5912 C   0  0  0  0  0  0  0  0  0  0  0  0
   -2.6378    1.5236   -0.9345 H   0  0  0  0  0  0  0  0  0  0  0  0
   -2.0079    3.3826   -0.0581 C   0  0  0  0  0  0  0  0  0  0  0  0
   -3.0163    3.7798    0.0103 H   0  0  0  0  0  0  0  0  0  0  0  0
   -0.9264    4.1491    0.3860 C   0  0  0  0  0  0  0  0  0  0  0  0
   -1.0929    5.1388    0.8017 H   0  0  0  0  0  0  0  0  0  0  0  0
    0.3723    3.6398    0.2959 C   0  0  0  0  0  0  0  0  0  0  0  0
    1.2152    4.2287    0.6460 H   0  0  0  0  0  0  0  0  0  0  0  0
    0.5892    2.3662   -0.2393 C   0  0  0  0  0  0  0  0  0  0  0  0
    1.6013    1.9727   -0.2872 H   0  0  0  0  0  0  0  0  0  0  0  0
    0.1120   -0.4715    1.2464 C   0  0  0  0  0  0  0  0  0  0  0  0
    1.2947   -0.4603    1.5653 O   0  0  0  0  0  0  0  0  0  0  0  0
   -0.8192    0.1099    2.0892 N   0  0  0  0  0  0  0  0  0  0  0  0
   -1.7477    0.2530    1.7080 H   0  0  0  0  0  0  0  0  0  0  0  0
   -0.4552    0.7857    3.3272 C   0  0  0  0  0  0  0  0  0  0  0  0
    0.1703    1.6591    3.1149 H   0  0  0  0  0  0  0  0  0  0  0  0
   -1.3533    1.1203    3.8544 H   0  0  0  0  0  0  0  0  0  0  0  0
    0.0972    0.1070    3.9855 H   0  0  0  0  0  0  0  0  0  0  0  0
  1  2  1  0  0  0  0
  2  3  1  0  0  0  0
  2  4  1  0  0  0  0
  2  5  1  0  0  0  0
  5  6  2  0  0  0  0
  5  7  1  0  0  0  0
  7  8  1  0  0  0  0
  7  9  1  0  0  0  0
  9 10  1  0  0  0  0
  9 11  1  0  0  0  0
  9 25  1  0  0  0  0
 11 12  1  0  0  0  0
 11 13  1  0  0  0  0
 11 14  1  0  0  0  0
 14 15  1  0  0  0  0
 14 23  2  0  0  0  0
 15 16  1  0  0  0  0
 15 17  2  0  0  0  0
 17 18  1  0  0  0  0
 17 19  1  0  0  0  0
 19 20  1  0  0  0  0
 19 21  2  0  0  0  0
 21 22  1  0  0  0  0
 21 23  1  0  0  0  0
 23 24  1  0  0  0  0
 25 26  2  0  0  0  0
 25 27  1  0  0  0  0
 27 28  1  0  0  0  0
 27 29  1  0  0  0  0
 29 30  1  0  0  0  0
 29 31  1  0  0  0  0
 29 32  1  0  0  0  0
M  END
$$$$

  -OEChem-03222214073D

 32 32  0     1  0  0  0  0  0999 V2000
   -3.2089   -4.4673    0.7544 H   0  0  0  0  0  0  0  0  0  0  0  0
   -3.1778   -3.5336    0.1854 C   0  0  0  0  0  0  0  0  0  0  0  0
   -3.9846   -2.8835    0.5323 H   0  0  0  0  0  0  0  0  0  0  0  0
   -3.3303   -3.7622   -0.8721 H   0  0  0  0  0  0  0  0  0  0  0  0
   -1.8379   -2.8487    0.3807 C   0  0  0  0  0  0  0  0  0  0  0  0
   -0.9956   -3.3597    1.0962 O   0  0  0  0  0  0  0  0  0  0  0  0
   -1.5802   -1.6542   -0.2637 N   0  0  0  0  0  0  0  0  0  0  0  0
   -2.3044   -1.2950   -0.8773 H   0  0  0  0  0  0  0  0  0  0  0  0
   -0.3062   -0.9166   -0.1669 C   0  0  1  0  0  0  0  0  0  0  0  0
    0.4689   -1.6351   -0.4580 H   0  0  0  0  0  0  0  0  0  0  0  0
   -0.2701    0.1973   -1.2402 C   0  0  0  0  0  0  0  0  0  0  0  0
    0.7159    0.1698   -1.7160 H   0  0  0  0  0  0  0  0  0  0  0  0
   -1.0006   -0.0103   -2.0283 H   0  0  0  0  0  0  0  0  0  0  0  0
   -0.4952    1.5919   -0.7012 C   0  0  0  0  0  0  0  0  0  0  0  0
   -1.7837    2.0055   -0.3272 C   0  0  0  0  0  0  0  0  0  0  0  0
   -2.6286    1.3370   -0.4546 H   0  0  0  0  0  0  0  0  0  0  0  0
   -1.9941    3.2811    0.2074 C   0  0  0  0  0  0  0  0  0  0  0  0
   -2.9942    3.5961    0.4904 H   0  0  0  0  0  0  0  0  0  0  0  0
   -0.9152    4.1532    0.3789 C   0  0  0  0  0  0  0  0  0  0  0  0
   -1.0751    5.1434    0.7955 H   0  0  0  0  0  0  0  0  0  0  0  0
    0.3728    3.7476    0.0172 C   0  0  0  0  0  0  0  0  0  0  0  0
    1.2147    4.4192    0.1575 H   0  0  0  0  0  0  0  0  0  0  0  0
    0.5818    2.4721   -0.5177 C   0  0  0  0  0  0  0  0  0  0  0  0
    1.5910    2.1623   -0.7742 H   0  0  0  0  0  0  0  0  0  0  0  0
    0.1137   -0.4590    1.2512 C   0  0  0  0  0  0  0  0  0  0  0  0
    1.3016   -0.4451    1.5495 O   0  0  0  0  0  0  0  0  0  0  0  0
   -0.8017    0.1262    2.1082 N   0  0  0  0  0  0  0  0  0  0  0  0
   -1.7429    0.2485    1.7529 H   0  0  0  0  0  0  0  0  0  0  0  0
   -0.4194    0.8053    3.3384 C   0  0  0  0  0  0  0  0  0  0  0  0
    0.2039    1.6772    3.1142 H   0  0  0  0  0  0  0  0  0  0  0  0
   -1.3102    1.1429    3.8761 H   0  0  0  0  0  0  0  0  0  0  0  0
    0.1410    0.1277    3.9911 H   0  0  0  0  0  0  0  0  0  0  0  0
  1  2  1  0  0  0  0
  2  3  1  0  0  0  0
  2  4  1  0  0  0  0
  2  5  1  0  0  0  0
  5  6  2  0  0  0  0
  5  7  1  0  0  0  0
  7  8  1  0  0  0  0
  7  9  1  0  0  0  0
  9 10  1  0  0  0  0
  9 11  1  0  0  0  0
  9 25  1  0  0  0  0
 11 12  1  0  0  0  0
 11 13  1  0  0  0  0
 11 14  1  0  0  0  0
 14 15  1  0  0  0  0
 14 23  2  0  0  0  0
 15 16  1  0  0  0  0
 15 17  2  0  0  0  0
 17 18  1  0  0  0  0
 17 19  1  0  0  0  0
 19 20  1  0  0  0  0
 19 21  2  0  0  0  0
 21 22  1  0  0  0  0
 21 23  1  0  0  0  0
 23 24  1  0  0  0  0
 25 26  2  0  0  0  0
 25 27  1  0  0  0  0
 27 28  1  0  0  0  0
 27 29  1  0  0  0  0
 29 30  1  0  0  0  0
 29 31  1  0  0  0  0
 29 32  1  0  0  0  0
M  END
$$$$

  -OEChem-03222214073D

 32 32  0     1  0  0  0  0  0999 V2000
   -3.1858   -4.5023    0.7104 H   0  0  0  0  0  0  0  0  0  0  0  0
   -3.1633   -3.5620    0.1519 C   0  0  0  0  0  0  0  0  0  0  0  0
   -3.9877   -2.9313    0.4927 H   0  0  0  0  0  0  0  0  0  0  0  0
   -3.2944   -3.7816   -0.9104 H   0  0  0  0  0  0  0  0  0  0  0  0
   -1.8406   -2.8538    0.3771 C   0  0  0  0  0  0  0  0  0  0  0  0
   -0.9972   -3.3591    1.0953 O   0  0  0  0  0  0  0  0  0  0  0  0
   -1.6014   -1.6400   -0.2372 N   0  0  0  0  0  0  0  0  0  0  0  0
   -2.3191   -1.2919   -0.8651 H   0  0  0  0  0  0  0  0  0  0  0  0
   -0.3341   -0.8919   -0.1334 C   0  0  1  0  0  0  0  0  0  0  0  0
    0.4361   -1.6135   -0.4297 H   0  0  0  0  0  0  0  0  0  0  0  0
   -0.2764    0.2157   -1.2128 C   0  0  0  0  0  0  0  0  0  0  0  0
    0.7184    0.1741   -1.6686 H   0  0  0  0  0  0  0  0  0  0  0  0
   -0.9927   -0.0016   -2.0109 H   0  0  0  0  0  0  0  0  0  0  0  0
   -0.5092    1.6270   -0.7168 C   0  0  0  0  0  0  0  0  0  0  0  0
   -1.7171    1.9782   -0.0915 C   0  0  0  0  0  0  0  0  0  0  0  0
   -2.5090    1.2442    0.0123 H   0  0  0  0  0  0  0  0  0  0  0  0
   -1.9186    3.2741    0.3955 C   0  0  0  0  0  0  0  0  0  0  0  0
   -2.8570    3.5376    0.8745 H   0  0  0  0  0  0  0  0  0  0  0  0
   -0.9103    4.2331    0.2662 C   0  0  0  0  0  0  0  0  0  0  0  0
   -1.0624    5.2395    0.6451 H   0  0  0  0  0  0  0  0  0  0  0  0
    0.2980    3.8937   -0.3488 C   0  0  0  0  0  0  0  0  0  0  0  0
    1.0869    4.6340   -0.4438 H   0  0  0  0  0  0  0  0  0  0  0  0
    0.4973    2.5974   -0.8355 C   0  0  0  0  0  0  0  0  0  0  0  0
    1.4478    2.3469   -1.2972 H   0  0  0  0  0  0  0  0  0  0  0  0
    0.1109   -0.4602    1.2854 C   0  0  0  0  0  0  0  0  0  0  0  0
    1.3052   -0.4417    1.5559 O   0  0  0  0  0  0  0  0  0  0  0  0
   -0.7831    0.0982    2.1814 N   0  0  0  0  0  0  0  0  0  0  0  0
   -1.7538    0.1469    1.8956 H   0  0  0  0  0  0  0  0  0  0  0  0
   -0.3827    0.6991    3.4463 C   0  0  0  0  0  0  0  0  0  0  0  0
    0.2873    1.5471    3.2702 H   0  0  0  0  0  0  0  0  0  0  0  0
   -1.2615    1.0590    3.9894 H   0  0  0  0  0  0  0  0  0  0  0  0
    0.1339   -0.0360    4.0721 H   0  0  0  0  0  0  0  0  0  0  0  0
  1  2  1  0  0  0  0
  2  3  1  0  0  0  0
  2  4  1  0  0  0  0
  2  5  1  0  0  0  0
  5  6  2  0  0  0  0
  5  7  1  0  0  0  0
  7  8  1  0  0  0  0
  7  9  1  0  0  0  0
  9 10  1  0  0  0  0
  9 11  1  0  0  0  0
  9 25  1  0  0  0  0
 11 12  1  0  0  0  0
 11 13  1  0  0  0  0
 11 14  1  0  0  0  0
 14 15  1  0  0  0  0
 14 23  2  0  0  0  0
 15 16  1  0  0  0  0
 15 17  2  0  0  0  0
 17 18  1  0  0  0  0
 17 19  1  0  0  0  0
 19 20  1  0  0  0  0
 19 21  2  0  0  0  0
 21 22  1  0  0  0  0
 21 23  1  0  0  0  0
 23 24  1  0  0  0  0
 25 26  2  0  0  0  0
 25 27  1  0  0  0  0
 27 28  1  0  0  0  0
 27 29  1  0  0  0  0
 29 30  1  0  0  0  0
 29 31  1  0  0  0  0
 29 32  1  0  0  0  0
M  END
$$$$

  -OEChem-03222214073D

 32 32  0     1  0  0  0  0  0999 V2000
   -3.1446   -4.5555    0.6219 H   0  0  0  0  0  0  0  0  0  0  0  0
   -3.1403   -3.5952    0.0978 C   0  0  0  0  0  0  0  0  0  0  0  0
   -3.9864   -2.9995    0.4491 H   0  0  0  0  0  0  0  0  0  0  0  0
   -3.2518   -3.7799   -0.9734 H   0  0  0  0  0  0  0  0  0  0  0  0
   -1.8396   -2.8608    0.3651 C   0  0  0  0  0  0  0  0  0  0  0  0
   -0.9955   -3.3648    1.0835 O   0  0  0  0  0  0  0  0  0  0  0  0
   -1.6253   -1.6187   -0.1998 N   0  0  0  0  0  0  0  0  0  0  0  0
   -2.3427   -1.2693   -0.8282 H   0  0  0  0  0  0  0  0  0  0  0  0
   -0.3675   -0.8566   -0.0821 C   0  0  1  0  0  0  0  0  0  0  0  0
    0.3978   -1.5780   -0.3920 H   0  0  0  0  0  0  0  0  0  0  0  0
   -0.2868    0.2495   -1.1635 C   0  0  0  0  0  0  0  0  0  0  0  0
    0.7219    0.1994   -1.5870 H   0  0  0  0  0  0  0  0  0  0  0  0
   -0.9784    0.0156   -1.9783 H   0  0  0  0  0  0  0  0  0  0  0  0
   -0.5290    1.6809   -0.7249 C   0  0  0  0  0  0  0  0  0  0  0  0
   -1.5955    2.0254    0.1217 C   0  0  0  0  0  0  0  0  0  0  0  0
   -2.2969    1.2675    0.4513 H   0  0  0  0  0  0  0  0  0  0  0  0
   -1.7854    3.3482    0.5356 C   0  0  0  0  0  0  0  0  0  0  0  0
   -2.6143    3.6012    1.1901 H   0  0  0  0  0  0  0  0  0  0  0  0
   -0.9082    4.3471    0.1061 C   0  0  0  0  0  0  0  0  0  0  0  0
   -1.0515    5.3743    0.4284 H   0  0  0  0  0  0  0  0  0  0  0  0
    0.1566    4.0204   -0.7373 C   0  0  0  0  0  0  0  0  0  0  0  0
    0.8435    4.7933   -1.0697 H   0  0  0  0  0  0  0  0  0  0  0  0
    0.3440    2.6963   -1.1483 C   0  0  0  0  0  0  0  0  0  0  0  0
    1.1845    2.4614   -1.7947 H   0  0  0  0  0  0  0  0  0  0  0  0
    0.1060   -0.4714    1.3411 C   0  0  0  0  0  0  0  0  0  0  0  0
    1.3076   -0.4269    1.5735 O   0  0  0  0  0  0  0  0  0  0  0  0
   -0.7678    0.0396    2.2842 N   0  0  0  0  0  0  0  0  0  0  0  0
   -1.7581   -0.0472    2.0881 H   0  0  0  0  0  0  0  0  0  0  0  0
   -0.3419    0.5356    3.5863 C   0  0  0  0  0  0  0  0  0  0  0  0
    0.3447    1.3803    3.4661 H   0  0  0  0  0  0  0  0  0  0  0  0
   -1.2069    0.8743    4.1641 H   0  0  0  0  0  0  0  0  0  0  0  0
    0.1650   -0.2546    4.1503 H   0  0  0  0  0  0  0  0  0  0  0  0
  1  2  1  0  0  0  0
  2  3  1  0  0  0  0
  2  4  1  0  0  0  0
  2  5  1  0  0  0  0
  5  6  2  0  0  0  0
  5  7  1  0  0  0  0
  7  8  1  0  0  0  0
  7  9  1  0  0  0  0
  9 10  1  0  0  0  0
  9 11  1  0  0  0  0
  9 25  1  0  0  0  0
 11 12  1  0  0  0  0
 11 13  1  0  0  0  0
 11 14  1  0  0  0  0
 14 15  1  0  0  0  0
 14 23  2  0  0  0  0
 15 16  1  0  0  0  0
 15 17  2  0  0  0  0
 17 18  1  0  0  0  0
 17 19  1  0  0  0  0
 19 20  1  0  0  0  0
 19 21  2  0  0  0  0
 21 22  1  0  0  0  0
 21 23  1  0  0  0  0
 23 24  1  0  0  0  0
 25 26  2  0  0  0  0
 25 27  1  0  0  0  0
 27 28  1  0  0  0  0
 27 29  1  0  0  0  0
 29 30  1  0  0  0  0
 29 31  1  0  0  0  0
 29 32  1  0  0  0  0
M  END
$$$$

  -OEChem-03222214073D

 32 32  0     1  0  0  0  0  0999 V2000
   -3.0966   -4.6056    0.5152 H   0  0  0  0  0  0  0  0  0  0  0  0
   -3.1146   -3.6234    0.0343 C   0  0  0  0  0  0  0  0  0  0  0  0
   -3.9727   -3.0629    0.4123 H   0  0  0  0  0  0  0  0  0  0  0  0
   -3.2240   -3.7626   -1.0440 H   0  0  0  0  0  0  0  0  0  0  0  0
   -1.8297   -2.8737    0.3327 C   0  0  0  0  0  0  0  0  0  0  0  0
   -0.9680   -3.3945    1.0176 O   0  0  0  0  0  0  0  0  0  0  0  0
   -1.6483   -1.5986   -0.1660 N   0  0  0  0  0  0  0  0  0  0  0  0
   -2.3887   -1.2234   -0.7517 H   0  0  0  0  0  0  0  0  0  0  0  0
   -0.4047   -0.8172   -0.0291 C   0  0  1  0  0  0  0  0  0  0  0  0
    0.3596   -1.5317   -0.3580 H   0  0  0  0  0  0  0  0  0  0  0  0
   -0.3064    0.2931   -1.1076 C   0  0  0  0  0  0  0  0  0  0  0  0
    0.7158    0.2460   -1.4991 H   0  0  0  0  0  0  0  0  0  0  0  0
   -0.9702    0.0401   -1.9397 H   0  0  0  0  0  0  0  0  0  0  0  0
   -0.5633    1.7412   -0.7266 C   0  0  0  0  0  0  0  0  0  0  0  0
   -1.4412    2.1274    0.2997 C   0  0  0  0  0  0  0  0  0  0  0  0
   -2.0389    1.3912    0.8202 H   0  0  0  0  0  0  0  0  0  0  0  0
   -1.6053    3.4743    0.6400 C   0  0  0  0  0  0  0  0  0  0  0  0
   -2.2895    3.7545    1.4352 H   0  0  0  0  0  0  0  0  0  0  0  0
   -0.8923    4.4607   -0.0446 C   0  0  0  0  0  0  0  0  0  0  0  0
   -1.0163    5.5067    0.2204 H   0  0  0  0  0  0  0  0  0  0  0  0
   -0.0194    4.0963   -1.0719 C   0  0  0  0  0  0  0  0  0  0  0  0
    0.5399    4.8590   -1.6057 H   0  0  0  0  0  0  0  0  0  0  0  0
    0.1424    2.7478   -1.4072 C   0  0  0  0  0  0  0  0  0  0  0  0
    0.8361    2.4850   -2.2004 H   0  0  0  0  0  0  0  0  0  0  0  0
    0.0970   -0.4935    1.4002 C   0  0  0  0  0  0  0  0  0  0  0  0
    1.3029   -0.4224    1.6002 O   0  0  0  0  0  0  0  0  0  0  0  0
   -0.7601   -0.0503    2.3919 N   0  0  0  0  0  0  0  0  0  0  0  0
   -1.7495   -0.2132    2.2415 H   0  0  0  0  0  0  0  0  0  0  0  0
   -0.3062    0.3544    3.7161 C   0  0  0  0  0  0  0  0  0  0  0  0
    0.3736    1.2097    3.6413 H   0  0  0  0  0  0  0  0  0  0  0  0
   -1.1594    0.6457    4.3359 H   0  0  0  0  0  0  0  0  0  0  0  0
    0.2175   -0.4704    4.2106 H   0  0  0  0  0  0  0  0  0  0  0  0
  1  2  1  0  0  0  0
  2  3  1  0  0  0  0
  2  4  1  0  0  0  0
  2  5  1  0  0  0  0
  5  6  2  0  0  0  0
  5  7  1  0  0  0  0
  7  8  1  0  0  0  0
  7  9  1  0  0  0  0
  9 10  1  0  0  0  0
  9 11  1  0  0  0  0
  9 25  1  0  0  0  0
 11 12  1  0  0  0  0
 11 13  1  0  0  0  0
 11 14  1  0  0  0  0
 14 15  1  0  0  0  0
 14 23  2  0  0  0  0
 15 16  1  0  0  0  0
 15 17  2  0  0  0  0
 17 18  1  0  0  0  0
 17 19  1  0  0  0  0
 19 20  1  0  0  0  0
 19 21  2  0  0  0  0
 21 22  1  0  0  0  0
 21 23  1  0  0  0  0
 23 24  1  0  0  0  0
 25 26  2  0  0  0  0
 25 27  1  0  0  0  0
 27 28  1  0  0  0  0
 27 29  1  0  0  0  0
 29 30  1  0  0  0  0
 29 31  1  0  0  0  0
 29 32  1  0  0  0  0
M  END
$$$$

  -OEChem-03222214073D

 32 32  0     1  0  0  0  0  0999 V2000
   -3.0899   -4.6150    0.3853 H   0  0  0  0  0  0  0  0  0  0  0  0
   -3.1153   -3.6085   -0.0421 C   0  0  0  0  0  0  0  0  0  0  0  0
   -3.9717   -3.0720    0.3733 H   0  0  0  0  0  0  0  0  0  0  0  0
   -3.2341   -3.6900   -1.1253 H   0  0  0  0  0  0  0  0  0  0  0  0
   -1.8304   -2.8706    0.2846 C   0  0  0  0  0  0  0  0  0  0  0  0
   -0.9636   -3.4214    0.9391 O   0  0  0  0  0  0  0  0  0  0  0  0
   -1.6598   -1.5685   -0.1436 N   0  0  0  0  0  0  0  0  0  0  0  0
   -2.4096   -1.1636   -0.6966 H   0  0  0  0  0  0  0  0  0  0  0  0
   -0.4261   -0.7808    0.0391 C   0  0  1  0  0  0  0  0  0  0  0  0
    0.3404   -1.4897   -0.2961 H   0  0  0  0  0  0  0  0  0  0  0  0
   -0.2882    0.3402   -1.0267 C   0  0  0  0  0  0  0  0  0  0  0  0
    0.7510    0.2917   -1.3709 H   0  0  0  0  0  0  0  0  0  0  0  0
   -0.9129    0.0763   -1.8855 H   0  0  0  0  0  0  0  0  0  0  0  0
   -0.5476    1.8046   -0.7070 C   0  0  0  0  0  0  0  0  0  0  0  0
   -1.2132    2.2806    0.4349 C   0  0  0  0  0  0  0  0  0  0  0  0
   -1.6790    1.6074    1.1358 H   0  0  0  0  0  0  0  0  0  0  0  0
   -1.3545    3.6523    0.6711 C   0  0  0  0  0  0  0  0  0  0  0  0
   -1.8758    3.9984    1.5586 H   0  0  0  0  0  0  0  0  0  0  0  0
   -0.8316    4.5776   -0.2338 C   0  0  0  0  0  0  0  0  0  0  0  0
   -0.9379    5.6425   -0.0490 H   0  0  0  0  0  0  0  0  0  0  0  0
   -0.1742    4.1263   -1.3792 C   0  0  0  0  0  0  0  0  0  0  0  0
    0.2360    4.8400   -2.0876 H   0  0  0  0  0  0  0  0  0  0  0  0
   -0.0358    2.7538   -1.6093 C   0  0  0  0  0  0  0  0  0  0  0  0
    0.4910    2.4243   -2.5001 H   0  0  0  0  0  0  0  0  0  0  0  0
    0.0610   -0.5326    1.4878 C   0  0  0  0  0  0  0  0  0  0  0  0
    1.2640   -0.4561    1.7016 O   0  0  0  0  0  0  0  0  0  0  0  0
   -0.8089   -0.1575    2.4965 N   0  0  0  0  0  0  0  0  0  0  0  0
   -1.7922   -0.3431    2.3304 H   0  0  0  0  0  0  0  0  0  0  0  0
   -0.3703    0.1202    3.8586 C   0  0  0  0  0  0  0  0  0  0  0  0
    0.3292    0.9627    3.8713 H   0  0  0  0  0  0  0  0  0  0  0  0
   -1.2283    0.3759    4.4874 H   0  0  0  0  0  0  0  0  0  0  0  0
    0.1258   -0.7570    4.2870 H   0  0  0  0  0  0  0  0  0  0  0  0
  1  2  1  0  0  0  0
  2  3  1  0  0  0  0
  2  4  1  0  0  0  0
  2  5  1  0  0  0  0
  5  6  2  0  0  0  0
  5  7  1  0  0  0  0
  7  8  1  0  0  0  0
  7  9  1  0  0  0  0
  9 10  1  0  0  0  0
  9 11  1  0  0  0  0
  9 25  1  0  0  0  0
 11 12  1  0  0  0  0
 11 13  1  0  0  0  0
 11 14  1  0  0  0  0
 14 15  1  0  0  0  0
 14 23  2  0  0  0  0
 15 16  1  0  0  0  0
 15 17  2  0  0  0  0
 17 18  1  0  0  0  0
 17 19  1  0  0  0  0
 19 20  1  0  0  0  0
 19 21  2  0  0  0  0
 21 22  1  0  0  0  0
 21 23  1  0  0  0  0
 23 24  1  0  0  0  0
 25 26  2  0  0  0  0
 25 27  1  0  0  0  0
 27 28  1  0  0  0  0
 27 29  1  0  0  0  0
 29 30  1  0  0  0  0
 29 31  1  0  0  0  0
 29 32  1  0  0  0  0
M  END
$$$$

  -OEChem-03222214073D

 32 32  0     1  0  0  0  0  0999 V2000
   -3.2435   -4.5111    0.5039 H   0  0  0  0  0  0  0  0  0  0  0  0
   -3.2523   -3.5015    0.0832 C   0  0  0  0  0  0  0  0  0  0  0  0
   -4.0409   -2.9249    0.5726 H   0  0  0  0  0  0  0  0  0  0  0  0
   -3.4674   -3.5685   -0.9859 H   0  0  0  0  0  0  0  0  0  0  0  0
   -1.9067   -2.8345    0.2996 C   0  0  0  0  0  0  0  0  0  0  0  0
   -1.0013   -3.4539    0.8284 O   0  0  0  0  0  0  0  0  0  0  0  0
   -1.7200   -1.5231   -0.0935 N   0  0  0  0  0  0  0  0  0  0  0  0
   -2.5070   -1.0577   -0.5368 H   0  0  0  0  0  0  0  0  0  0  0  0
   -0.4455   -0.7864    0.0132 C   0  0  1  0  0  0  0  0  0  0  0  0
    0.2740   -1.4968   -0.4122 H   0  0  0  0  0  0  0  0  0  0  0  0
   -0.3810    0.3769   -1.0186 C   0  0  0  0  0  0  0  0  0  0  0  0
    0.6199    0.3108   -1.4596 H   0  0  0  0  0  0  0  0  0  0  0  0
   -1.0872    0.1431   -1.8216 H   0  0  0  0  0  0  0  0  0  0  0  0
   -0.5546    1.8547   -0.6850 C   0  0  0  0  0  0  0  0  0  0  0  0
   -0.7988    2.4161    0.5813 C   0  0  0  0  0  0  0  0  0  0  0  0
   -0.8971    1.8208    1.4698 H   0  0  0  0  0  0  0  0  0  0  0  0
   -0.9312    3.7994    0.7481 C   0  0  0  0  0  0  0  0  0  0  0  0
   -1.1148    4.2094    1.7368 H   0  0  0  0  0  0  0  0  0  0  0  0
   -0.8231    4.6546   -0.3488 C   0  0  0  0  0  0  0  0  0  0  0  0
   -0.9217    5.7281   -0.2172 H   0  0  0  0  0  0  0  0  0  0  0  0
   -0.5814    4.1216   -1.6145 C   0  0  0  0  0  0  0  0  0  0  0  0
   -0.4909    4.7804   -2.4731 H   0  0  0  0  0  0  0  0  0  0  0  0
   -0.4492    2.7388   -1.7748 C   0  0  0  0  0  0  0  0  0  0  0  0
   -0.2548    2.3481   -2.7694 H   0  0  0  0  0  0  0  0  0  0  0  0
    0.1300   -0.6366    1.4407 C   0  0  0  0  0  0  0  0  0  0  0  0
    1.3436   -0.6096    1.5967 O   0  0  0  0  0  0  0  0  0  0  0  0
   -0.6793   -0.2849    2.5076 N   0  0  0  0  0  0  0  0  0  0  0  0
   -1.6779   -0.4002    2.3701 H   0  0  0  0  0  0  0  0  0  0  0  0
   -0.1730   -0.1120    3.8636 C   0  0  0  0  0  0  0  0  0  0  0  0
    0.5996    0.6639    3.8884 H   0  0  0  0  0  0  0  0  0  0  0  0
   -0.9833    0.1881    4.5348 H   0  0  0  0  0  0  0  0  0  0  0  0
    0.2558   -1.0494    4.2334 H   0  0  0  0  0  0  0  0  0  0  0  0
  1  2  1  0  0  0  0
  2  3  1  0  0  0  0
  2  4  1  0  0  0  0
  2  5  1  0  0  0  0
  5  6  2  0  0  0  0
  5  7  1  0  0  0  0
  7  8  1  0  0  0  0
  7  9  1  0  0  0  0
  9 10  1  0  0  0  0
  9 11  1  0  0  0  0
  9 25  1  0  0  0  0
 11 12  1  0  0  0  0
 11 13  1  0  0  0  0
 11 14  1  0  0  0  0
 14 15  1  0  0  0  0
 14 23  2  0  0  0  0
 15 16  1  0  0  0  0
 15 17  2  0  0  0  0
 17 18  1  0  0  0  0
 17 19  1  0  0  0  0
 19 20  1  0  0  0  0
 19 21  2  0  0  0  0
 21 22  1  0  0  0  0
 21 23  1  0  0  0  0
 23 24  1  0  0  0  0
 25 26  2  0  0  0  0
 25 27  1  0  0  0  0
 27 28  1  0  0  0  0
 27 29  1  0  0  0  0
 29 30  1  0  0  0  0
 29 31  1  0  0  0  0
 29 32  1  0  0  0  0
M  END
$$$$

  -OEChem-03222214073D

 32 32  0     1  0  0  0  0  0999 V2000
   -3.2707   -4.4288    0.5452 H   0  0  0  0  0  0  0  0  0  0  0  0
   -3.2400   -3.4320    0.0959 C   0  0  0  0  0  0  0  0  0  0  0  0
   -3.9964   -2.8069    0.5762 H   0  0  0  0  0  0  0  0  0  0  0  0
   -3.4704   -3.5195   -0.9686 H   0  0  0  0  0  0  0  0  0  0  0  0
   -1.8642   -2.8190    0.2793 C   0  0  0  0  0  0  0  0  0  0  0  0
   -0.9786   -3.4643    0.8104 O   0  0  0  0  0  0  0  0  0  0  0  0
   -1.6261   -1.5303   -0.1581 N   0  0  0  0  0  0  0  0  0  0  0  0
   -2.4050   -1.0370   -0.5849 H   0  0  0  0  0  0  0  0  0  0  0  0
   -0.3336   -0.8257   -0.0402 C   0  0  1  0  0  0  0  0  0  0  0  0
    0.4000   -1.5296   -0.4510 H   0  0  0  0  0  0  0  0  0  0  0  0
   -0.2997    0.3641   -1.0460 C   0  0  0  0  0  0  0  0  0  0  0  0
    0.6877    0.3102   -1.5172 H   0  0  0  0  0  0  0  0  0  0  0  0
   -1.0257    0.1426   -1.8350 H   0  0  0  0  0  0  0  0  0  0  0  0
   -0.4568    1.8381   -0.6758 C   0  0  0  0  0  0  0  0  0  0  0  0
   -0.3603    2.4100    0.6078 C   0  0  0  0  0  0  0  0  0  0  0  0
   -0.0538    1.8501    1.4751 H   0  0  0  0  0  0  0  0  0  0  0  0
   -0.5844    3.7759    0.8139 C   0  0  0  0  0  0  0  0  0  0  0  0
   -0.4880    4.1933    1.8119 H   0  0  0  0  0  0  0  0  0  0  0  0
   -0.9118    4.6060   -0.2578 C   0  0  0  0  0  0  0  0  0  0  0  0
   -1.0807    5.6665   -0.0956 H   0  0  0  0  0  0  0  0  0  0  0  0
   -1.0056    4.0665   -1.5399 C   0  0  0  0  0  0  0  0  0  0  0  0
   -1.2525    4.7070   -2.3816 H   0  0  0  0  0  0  0  0  0  0  0  0
   -0.7797    2.7011   -1.7406 C   0  0  0  0  0  0  0  0  0  0  0  0
   -0.8608    2.3089   -2.7500 H   0  0  0  0  0  0  0  0  0  0  0  0
    0.1513   -0.6642    1.4168 C   0  0  0  0  0  0  0  0  0  0  0  0
    1.3501   -0.6743    1.6622 O   0  0  0  0  0  0  0  0  0  0  0  0
   -0.7275   -0.2621    2.4096 N   0  0  0  0  0  0  0  0  0  0  0  0
   -1.7156   -0.2968    2.1819 H   0  0  0  0  0  0  0  0  0  0  0  0
   -0.3284   -0.0847    3.8001 C   0  0  0  0  0  0  0  0  0  0  0  0
    0.4633    0.6678    3.8795 H   0  0  0  0  0  0  0  0  0  0  0  0
   -1.1810    0.2483    4.3991 H   0  0  0  0  0  0  0  0  0  0  0  0
    0.0406   -1.0286    4.2148 H   0  0  0  0  0  0  0  0  0  0  0  0
  1  2  1  0  0  0  0
  2  3  1  0  0  0  0
  2  4  1  0  0  0  0
  2  5  1  0  0  0  0
  5  6  2  0  0  0  0
  5  7  1  0  0  0  0
  7  8  1  0  0  0  0
  7  9  1  0  0  0  0
  9 10  1  0  0  0  0
  9 11  1  0  0  0  0
  9 25  1  0  0  0  0
 11 12  1  0  0  0  0
 11 13  1  0  0  0  0
 11 14  1  0  0  0  0
 14 15  1  0  0  0  0
 14 23  2  0  0  0  0
 15 16  1  0  0  0  0
 15 17  2  0  0  0  0
 17 18  1  0  0  0  0
 17 19  1  0  0  0  0
 19 20  1  0  0  0  0
 19 21  2  0  0  0  0
 21 22  1  0  0  0  0
 21 23  1  0  0  0  0
 23 24  1  0  0  0  0
 25 26  2  0  0  0  0
 25 27  1  0  0  0  0
 27 28  1  0  0  0  0
 27 29  1  0  0  0  0
 29 30  1  0  0  0  0
 29 31  1  0  0  0  0
 29 32  1  0  0  0  0
M  END
$$$$

  -OEChem-03222214073D

 32 32  0     1  0  0  0  0  0999 V2000
   -3.3045   -4.3543    0.6999 H   0  0  0  0  0  0  0  0  0  0  0  0
   -3.2416   -3.4008    0.1675 C   0  0  0  0  0  0  0  0  0  0  0  0
   -3.9845   -2.7169    0.5845 H   0  0  0  0  0  0  0  0  0  0  0  0
   -3.4644   -3.5724   -0.8885 H   0  0  0  0  0  0  0  0  0  0  0  0
   -1.8508   -2.8129    0.3147 C   0  0  0  0  0  0  0  0  0  0  0  0
   -0.9824   -3.4491    0.8837 O   0  0  0  0  0  0  0  0  0  0  0  0
   -1.5772   -1.5607   -0.2014 N   0  0  0  0  0  0  0  0  0  0  0  0
   -2.3443   -1.0688   -0.6499 H   0  0  0  0  0  0  0  0  0  0  0  0
   -0.2736   -0.8745   -0.0915 C   0  0  1  0  0  0  0  0  0  0  0  0
    0.4704   -1.5866   -0.4674 H   0  0  0  0  0  0  0  0  0  0  0  0
   -0.2612    0.3030   -1.1129 C   0  0  0  0  0  0  0  0  0  0  0  0
    0.7193    0.2564   -1.5979 H   0  0  0  0  0  0  0  0  0  0  0  0
   -0.9928    0.0750   -1.8946 H   0  0  0  0  0  0  0  0  0  0  0  0
   -0.4183    1.7704   -0.7135 C   0  0  0  0  0  0  0  0  0  0  0  0
   -0.0096    2.3487    0.5053 C   0  0  0  0  0  0  0  0  0  0  0  0
    0.5717    1.8053    1.2378 H   0  0  0  0  0  0  0  0  0  0  0  0
   -0.2668    3.6929    0.7941 C   0  0  0  0  0  0  0  0  0  0  0  0
    0.0738    4.1156    1.7349 H   0  0  0  0  0  0  0  0  0  0  0  0
   -0.9407    4.4939   -0.1280 C   0  0  0  0  0  0  0  0  0  0  0  0
   -1.1368    5.5383    0.0964 H   0  0  0  0  0  0  0  0  0  0  0  0
   -1.3476    3.9484   -1.3453 C   0  0  0  0  0  0  0  0  0  0  0  0
   -1.8661    4.5686   -2.0708 H   0  0  0  0  0  0  0  0  0  0  0  0
   -1.0867    2.6042   -1.6304 C   0  0  0  0  0  0  0  0  0  0  0  0
   -1.4177    2.2085   -2.5857 H   0  0  0  0  0  0  0  0  0  0  0  0
    0.1583   -0.6323    1.3701 C   0  0  0  0  0  0  0  0  0  0  0  0
    1.3426   -0.6883    1.6747 O   0  0  0  0  0  0  0  0  0  0  0  0
   -0.7503   -0.1491    2.2970 N   0  0  0  0  0  0  0  0  0  0  0  0
   -1.7215   -0.1052    2.0076 H   0  0  0  0  0  0  0  0  0  0  0  0
   -0.4096    0.1285    3.6862 C   0  0  0  0  0  0  0  0  0  0  0  0
    0.4013    0.8620    3.7439 H   0  0  0  0  0  0  0  0  0  0  0  0
   -1.2776    0.5330    4.2150 H   0  0  0  0  0  0  0  0  0  0  0  0
   -0.0913   -0.7895    4.1910 H   0  0  0  0  0  0  0  0  0  0  0  0
  1  2  1  0  0  0  0
  2  3  1  0  0  0  0
  2  4  1  0  0  0  0
  2  5  1  0  0  0  0
  5  6  2  0  0  0  0
  5  7  1  0  0  0  0
  7  8  1  0  0  0  0
  7  9  1  0  0  0  0
  9 10  1  0  0  0  0
  9 11  1  0  0  0  0
  9 25  1  0  0  0  0
 11 12  1  0  0  0  0
 11 13  1  0  0  0  0
 11 14  1  0  0  0  0
 14 15  1  0  0  0  0
 14 23  2  0  0  0  0
 15 16  1  0  0  0  0
 15 17  2  0  0  0  0
 17 18  1  0  0  0  0
 17 19  1  0  0  0  0
 19 20  1  0  0  0  0
 19 21  2  0  0  0  0
 21 22  1  0  0  0  0
 21 23  1  0  0  0  0
 23 24  1  0  0  0  0
 25 26  2  0  0  0  0
 25 27  1  0  0  0  0
 27 28  1  0  0  0  0
 27 29  1  0  0  0  0
 29 30  1  0  0  0  0
 29 31  1  0  0  0  0
 29 32  1  0  0  0  0
M  END
$$$$

  -OEChem-03222214073D

 32 32  0     1  0  0  0  0  0999 V2000
   -3.2942   -4.3395    0.7684 H   0  0  0  0  0  0  0  0  0  0  0  0
   -3.2280   -3.3994    0.2131 C   0  0  0  0  0  0  0  0  0  0  0  0
   -3.9603   -2.6987    0.6213 H   0  0  0  0  0  0  0  0  0  0  0  0
   -3.4622   -3.5933   -0.8364 H   0  0  0  0  0  0  0  0  0  0  0  0
   -1.8305   -2.8207    0.3333 C   0  0  0  0  0  0  0  0  0  0  0  0
   -0.9672   -3.4413    0.9270 O   0  0  0  0  0  0  0  0  0  0  0  0
   -1.5443   -1.5979   -0.2429 N   0  0  0  0  0  0  0  0  0  0  0  0
   -2.3083   -1.1171   -0.7081 H   0  0  0  0  0  0  0  0  0  0  0  0
   -0.2435   -0.9077   -0.1328 C   0  0  1  0  0  0  0  0  0  0  0  0
    0.5157   -1.6219   -0.4720 H   0  0  0  0  0  0  0  0  0  0  0  0
   -0.2408    0.2492   -1.1760 C   0  0  0  0  0  0  0  0  0  0  0  0
    0.7412    0.2150   -1.6591 H   0  0  0  0  0  0  0  0  0  0  0  0
   -0.9672    0.0154   -1.9606 H   0  0  0  0  0  0  0  0  0  0  0  0
   -0.4175    1.7011   -0.7431 C   0  0  0  0  0  0  0  0  0  0  0  0
    0.2514    2.2931    0.3456 C   0  0  0  0  0  0  0  0  0  0  0  0
    1.0219    1.7600    0.8921 H   0  0  0  0  0  0  0  0  0  0  0  0
   -0.0103    3.6137    0.7249 C   0  0  0  0  0  0  0  0  0  0  0  0
    0.5291    4.0519    1.5597 H   0  0  0  0  0  0  0  0  0  0  0  0
   -0.9510    4.3709    0.0252 C   0  0  0  0  0  0  0  0  0  0  0  0
   -1.1519    5.3970    0.3191 H   0  0  0  0  0  0  0  0  0  0  0  0
   -1.6224    3.8061   -1.0604 C   0  0  0  0  0  0  0  0  0  0  0  0
   -2.3513    4.3932   -1.6116 H   0  0  0  0  0  0  0  0  0  0  0  0
   -1.3563    2.4855   -1.4381 C   0  0  0  0  0  0  0  0  0  0  0  0
   -1.8965    2.0718   -2.2842 H   0  0  0  0  0  0  0  0  0  0  0  0
    0.1482   -0.5868    1.3264 C   0  0  0  0  0  0  0  0  0  0  0  0
    1.3191   -0.6629    1.6767 O   0  0  0  0  0  0  0  0  0  0  0  0
   -0.7827   -0.0522    2.2003 N   0  0  0  0  0  0  0  0  0  0  0  0
   -1.7230    0.0857    1.8458 H   0  0  0  0  0  0  0  0  0  0  0  0
   -0.4616    0.3772    3.5546 C   0  0  0  0  0  0  0  0  0  0  0  0
    0.2819    1.1807    3.5355 H   0  0  0  0  0  0  0  0  0  0  0  0
   -1.3604    0.7485    4.0559 H   0  0  0  0  0  0  0  0  0  0  0  0
   -0.0618   -0.4602    4.1362 H   0  0  0  0  0  0  0  0  0  0  0  0
  1  2  1  0  0  0  0
  2  3  1  0  0  0  0
  2  4  1  0  0  0  0
  2  5  1  0  0  0  0
  5  6  2  0  0  0  0
  5  7  1  0  0  0  0
  7  8  1  0  0  0  0
  7  9  1  0  0  0  0
  9 10  1  0  0  0  0
  9 11  1  0  0  0  0
  9 25  1  0  0  0  0
 11 12  1  0  0  0  0
 11 13  1  0  0  0  0
 11 14  1  0  0  0  0
 14 15  1  0  0  0  0
 14 23  2  0  0  0  0
 15 16  1  0  0  0  0
 15 17  2  0  0  0  0
 17 18  1  0  0  0  0
 17 19  1  0  0  0  0
 19 20  1  0  0  0  0
 19 21  2  0  0  0  0
 21 22  1  0  0  0  0
 21 23  1  0  0  0  0
 23 24  1  0  0  0  0
 25 26  2  0  0  0  0
 25 27  1  0  0  0  0
 27 28  1  0  0  0  0
 27 29  1  0  0  0  0
 29 30  1  0  0  0  0
 29 31  1  0  0  0  0
 29 32  1  0  0  0  0
M  END
$$$$

  -OEChem-03222214073D

 32 32  0     1  0  0  0  0  0999 V2000
   -3.2547   -4.3558    0.8152 H   0  0  0  0  0  0  0  0  0  0  0  0
   -3.1987   -3.4273    0.2398 C   0  0  0  0  0  0  0  0  0  0  0  0
   -3.9453   -2.7295    0.6262 H   0  0  0  0  0  0  0  0  0  0  0  0
   -3.4214   -3.6494   -0.8066 H   0  0  0  0  0  0  0  0  0  0  0  0
   -1.8116   -2.8237    0.3572 C   0  0  0  0  0  0  0  0  0  0  0  0
   -0.9503   -3.4052    0.9918 O   0  0  0  0  0  0  0  0  0  0  0  0
   -1.5314   -1.6248   -0.2696 N   0  0  0  0  0  0  0  0  0  0  0  0
   -2.2937   -1.1748   -0.7663 H   0  0  0  0  0  0  0  0  0  0  0  0
   -0.2417   -0.9141   -0.1664 C   0  0  1  0  0  0  0  0  0  0  0  0
    0.5328   -1.6273   -0.4713 H   0  0  0  0  0  0  0  0  0  0  0  0
   -0.2393    0.2172   -1.2323 C   0  0  0  0  0  0  0  0  0  0  0  0
    0.7451    0.1950   -1.7112 H   0  0  0  0  0  0  0  0  0  0  0  0
   -0.9625   -0.0184   -2.0195 H   0  0  0  0  0  0  0  0  0  0  0  0
   -0.4413    1.6468   -0.7609 C   0  0  0  0  0  0  0  0  0  0  0  0
    0.4346    2.2736    0.1432 C   0  0  0  0  0  0  0  0  0  0  0  0
    1.3287    1.7624    0.4895 H   0  0  0  0  0  0  0  0  0  0  0  0
    0.1880    3.5720    0.5993 C   0  0  0  0  0  0  0  0  0  0  0  0
    0.8790    4.0389    1.2953 H   0  0  0  0  0  0  0  0  0  0  0  0
   -0.9410    4.2659    0.1581 C   0  0  0  0  0  0  0  0  0  0  0  0
   -1.1310    5.2751    0.5118 H   0  0  0  0  0  0  0  0  0  0  0  0
   -1.8204    3.6587   -0.7418 C   0  0  0  0  0  0  0  0  0  0  0  0
   -2.6969    4.1979   -1.0892 H   0  0  0  0  0  0  0  0  0  0  0  0
   -1.5717    2.3587   -1.1956 C   0  0  0  0  0  0  0  0  0  0  0  0
   -2.2705    1.9058   -1.8919 H   0  0  0  0  0  0  0  0  0  0  0  0
    0.1297   -0.5166    1.2810 C   0  0  0  0  0  0  0  0  0  0  0  0
    1.2972   -0.5694    1.6478 O   0  0  0  0  0  0  0  0  0  0  0  0
   -0.8153    0.0501    2.1187 N   0  0  0  0  0  0  0  0  0  0  0  0
   -1.7403    0.2023    1.7320 H   0  0  0  0  0  0  0  0  0  0  0  0
   -0.5010    0.5817    3.4378 C   0  0  0  0  0  0  0  0  0  0  0  0
    0.2011    1.4178    3.3560 H   0  0  0  0  0  0  0  0  0  0  0  0
   -1.4113    0.9393    3.9277 H   0  0  0  0  0  0  0  0  0  0  0  0
   -0.0536   -0.1953    4.0665 H   0  0  0  0  0  0  0  0  0  0  0  0
  1  2  1  0  0  0  0
  2  3  1  0  0  0  0
  2  4  1  0  0  0  0
  2  5  1  0  0  0  0
  5  6  2  0  0  0  0
  5  7  1  0  0  0  0
  7  8  1  0  0  0  0
  7  9  1  0  0  0  0
  9 10  1  0  0  0  0
  9 11  1  0  0  0  0
  9 25  1  0  0  0  0
 11 12  1  0  0  0  0
 11 13  1  0  0  0  0
 11 14  1  0  0  0  0
 14 15  1  0  0  0  0
 14 23  2  0  0  0  0
 15 16  1  0  0  0  0
 15 17  2  0  0  0  0
 17 18  1  0  0  0  0
 17 19  1  0  0  0  0
 19 20  1  0  0  0  0
 19 21  2  0  0  0  0
 21 22  1  0  0  0  0
 21 23  1  0  0  0  0
 23 24  1  0  0  0  0
 25 26  2  0  0  0  0
 25 27  1  0  0  0  0
 27 28  1  0  0  0  0
 27 29  1  0  0  0  0
 29 30  1  0  0  0  0
 29 31  1  0  0  0  0
 29 32  1  0  0  0  0
M  END
$$$$

  -OEChem-03222214073D

 32 32  0     1  0  0  0  0  0999 V2000
   -3.2265   -4.3906    0.8195 H   0  0  0  0  0  0  0  0  0  0  0  0
   -3.1807   -3.4666    0.2362 C   0  0  0  0  0  0  0  0  0  0  0  0
   -3.9441   -2.7792    0.6078 H   0  0  0  0  0  0  0  0  0  0  0  0
   -3.3873   -3.7017   -0.8106 H   0  0  0  0  0  0  0  0  0  0  0  0
   -1.8065   -2.8365    0.3643 C   0  0  0  0  0  0  0  0  0  0  0  0
   -0.9471   -3.3859    1.0294 O   0  0  0  0  0  0  0  0  0  0  0  0
   -1.5364   -1.6484   -0.2863 N   0  0  0  0  0  0  0  0  0  0  0  0
   -2.2942   -1.2286   -0.8152 H   0  0  0  0  0  0  0  0  0  0  0  0
   -0.2588   -0.9178   -0.1837 C   0  0  1  0  0  0  0  0  0  0  0  0
    0.5247   -1.6288   -0.4696 H   0  0  0  0  0  0  0  0  0  0  0  0
   -0.2475    0.1989   -1.2588 C   0  0  0  0  0  0  0  0  0  0  0  0
    0.7390    0.1861   -1.7340 H   0  0  0  0  0  0  0  0  0  0  0  0
   -0.9696   -0.0303   -2.0487 H   0  0  0  0  0  0  0  0  0  0  0  0
   -0.4730    1.6051   -0.7452 C   0  0  0  0  0  0  0  0  0  0  0  0
    0.5389    2.3013   -0.0639 C   0  0  0  0  0  0  0  0  0  0  0  0
    1.5097    1.8375    0.0928 H   0  0  0  0  0  0  0  0  0  0  0  0
    0.3086    3.5879    0.4325 C   0  0  0  0  0  0  0  0  0  0  0  0
    1.1001    4.1117    0.9607 H   0  0  0  0  0  0  0  0  0  0  0  0
   -0.9373    4.1945    0.2519 C   0  0  0  0  0  0  0  0  0  0  0  0
   -1.1149    5.1943    0.6373 H   0  0  0  0  0  0  0  0  0  0  0  0
   -1.9520    3.5125   -0.4258 C   0  0  0  0  0  0  0  0  0  0  0  0
   -2.9193    3.9851   -0.5690 H   0  0  0  0  0  0  0  0  0  0  0  0
   -1.7206    2.2242   -0.9202 C   0  0  0  0  0  0  0  0  0  0  0  0
   -2.5193    1.7083   -1.4436 H   0  0  0  0  0  0  0  0  0  0  0  0
    0.1154   -0.4699    1.2492 C   0  0  0  0  0  0  0  0  0  0  0  0
    1.2896   -0.4761    1.5983 O   0  0  0  0  0  0  0  0  0  0  0  0
   -0.8308    0.1125    2.0747 N   0  0  0  0  0  0  0  0  0  0  0  0
   -1.7547    0.2533    1.6815 H   0  0  0  0  0  0  0  0  0  0  0  0
   -0.5005    0.7440    3.3449 C   0  0  0  0  0  0  0  0  0  0  0  0
    0.1590    1.6032    3.1842 H   0  0  0  0  0  0  0  0  0  0  0  0
   -1.4110    1.0924    3.8412 H   0  0  0  0  0  0  0  0  0  0  0  0
    0.0022    0.0312    4.0073 H   0  0  0  0  0  0  0  0  0  0  0  0
  1  2  1  0  0  0  0
  2  3  1  0  0  0  0
  2  4  1  0  0  0  0
  2  5  1  0  0  0  0
  5  6  2  0  0  0  0
  5  7  1  0  0  0  0
  7  8  1  0  0  0  0
  7  9  1  0  0  0  0
  9 10  1  0  0  0  0
  9 11  1  0  0  0  0
  9 25  1  0  0  0  0
 11 12  1  0  0  0  0
 11 13  1  0  0  0  0
 11 14  1  0  0  0  0
 14 15  1  0  0  0  0
 14 23  2  0  0  0  0
 15 16  1  0  0  0  0
 15 17  2  0  0  0  0
 17 18  1  0  0  0  0
 17 19  1  0  0  0  0
 19 20  1  0  0  0  0
 19 21  2  0  0  0  0
 21 22  1  0  0  0  0
 21 23  1  0  0  0  0
 23 24  1  0  0  0  0
 25 26  2  0  0  0  0
 25 27  1  0  0  0  0
 27 28  1  0  0  0  0
 27 29  1  0  0  0  0
 29 30  1  0  0  0  0
 29 31  1  0  0  0  0
 29 32  1  0  0  0  0
M  END
$$$$

  -OEChem-03222214073D

 32 32  0     1  0  0  0  0  0999 V2000
   -3.2105   -4.4288    0.8020 H   0  0  0  0  0  0  0  0  0  0  0  0
   -3.1740   -3.5048    0.2179 C   0  0  0  0  0  0  0  0  0  0  0  0
   -3.9592   -2.8339    0.5742 H   0  0  0  0  0  0  0  0  0  0  0  0
   -3.3562   -3.7459   -0.8321 H   0  0  0  0  0  0  0  0  0  0  0  0
   -1.8165   -2.8444    0.3722 C   0  0  0  0  0  0  0  0  0  0  0  0
   -0.9659   -3.3632    1.0723 O   0  0  0  0  0  0  0  0  0  0  0  0
   -1.5534   -1.6592   -0.2864 N   0  0  0  0  0  0  0  0  0  0  0  0
   -2.2940   -1.2781   -0.8661 H   0  0  0  0  0  0  0  0  0  0  0  0
   -0.2818   -0.9180   -0.1852 C   0  0  1  0  0  0  0  0  0  0  0  0
    0.5034   -1.6300   -0.4643 H   0  0  0  0  0  0  0  0  0  0  0  0
   -0.2585    0.1927   -1.2627 C   0  0  0  0  0  0  0  0  0  0  0  0
    0.7294    0.1798   -1.7353 H   0  0  0  0  0  0  0  0  0  0  0  0
   -0.9823   -0.0265   -2.0541 H   0  0  0  0  0  0  0  0  0  0  0  0
   -0.4942    1.5849   -0.7234 C   0  0  0  0  0  0  0  0  0  0  0  0
    0.5803    2.3818   -0.3005 C   0  0  0  0  0  0  0  0  0  0  0  0
    1.5954    1.9956   -0.3450 H   0  0  0  0  0  0  0  0  0  0  0  0
    0.3549    3.6654    0.2065 C   0  0  0  0  0  0  0  0  0  0  0  0
    1.1941    4.2695    0.5388 H   0  0  0  0  0  0  0  0  0  0  0  0
   -0.9475    4.1661    0.2904 C   0  0  0  0  0  0  0  0  0  0  0  0
   -1.1208    5.1636    0.6838 H   0  0  0  0  0  0  0  0  0  0  0  0
   -2.0245    3.3816   -0.1328 C   0  0  0  0  0  0  0  0  0  0  0  0
   -3.0358    3.7727   -0.0711 H   0  0  0  0  0  0  0  0  0  0  0  0
   -1.7980    2.0970   -0.6387 C   0  0  0  0  0  0  0  0  0  0  0  0
   -2.6418    1.5001   -0.9692 H   0  0  0  0  0  0  0  0  0  0  0  0
    0.1070   -0.4453    1.2368 C   0  0  0  0  0  0  0  0  0  0  0  0
    1.2877   -0.4288    1.5629 O   0  0  0  0  0  0  0  0  0  0  0  0
   -0.8293    0.1454    2.0676 N   0  0  0  0  0  0  0  0  0  0  0  0
   -1.7583    0.2771    1.6839 H   0  0  0  0  0  0  0  0  0  0  0  0
   -0.4760    0.8260    3.3060 C   0  0  0  0  0  0  0  0  0  0  0  0
    0.1604    1.6924    3.0973 H   0  0  0  0  0  0  0  0  0  0  0  0
   -1.3785    1.1729    3.8176 H   0  0  0  0  0  0  0  0  0  0  0  0
    0.0606    0.1462    3.9764 H   0  0  0  0  0  0  0  0  0  0  0  0
  1  2  1  0  0  0  0
  2  3  1  0  0  0  0
  2  4  1  0  0  0  0
  2  5  1  0  0  0  0
  5  6  2  0  0  0  0
  5  7  1  0  0  0  0
  7  8  1  0  0  0  0
  7  9  1  0  0  0  0
  9 10  1  0  0  0  0
  9 11  1  0  0  0  0
  9 25  1  0  0  0  0
 11 12  1  0  0  0  0
 11 13  1  0  0  0  0
 11 14  1  0  0  0  0
 14 15  1  0  0  0  0
 14 23  2  0  0  0  0
 15 16  1  0  0  0  0
 15 17  2  0  0  0  0
 17 18  1  0  0  0  0
 17 19  1  0  0  0  0
 19 20  1  0  0  0  0
 19 21  2  0  0  0  0
 21 22  1  0  0  0  0
 21 23  1  0  0  0  0
 23 24  1  0  0  0  0
 25 26  2  0  0  0  0
 25 27  1  0  0  0  0
 27 28  1  0  0  0  0
 27 29  1  0  0  0  0
 29 30  1  0  0  0  0
 29 31  1  0  0  0  0
 29 32  1  0  0  0  0
M  END
$$$$

  -OEChem-03222214073D

 32 32  0     1  0  0  0  0  0999 V2000
   -3.1942   -4.4703    0.7675 H   0  0  0  0  0  0  0  0  0  0  0  0
   -3.1663   -3.5400    0.1928 C   0  0  0  0  0  0  0  0  0  0  0  0
   -3.9766   -2.8919    0.5348 H   0  0  0  0  0  0  0  0  0  0  0  0
   -3.3160   -3.7756   -0.8636 H   0  0  0  0  0  0  0  0  0  0  0  0
   -1.8301   -2.8476    0.3861 C   0  0  0  0  0  0  0  0  0  0  0  0
   -0.9884   -3.3478    1.1099 O   0  0  0  0  0  0  0  0  0  0  0  0
   -1.5767   -1.6557   -0.2649 N   0  0  0  0  0  0  0  0  0  0  0  0
   -2.2991   -1.3069   -0.8867 H   0  0  0  0  0  0  0  0  0  0  0  0
   -0.3062   -0.9113   -0.1693 C   0  0  1  0  0  0  0  0  0  0  0  0
    0.4734   -1.6267   -0.4558 H   0  0  0  0  0  0  0  0  0  0  0  0
   -0.2744    0.1994   -1.2457 C   0  0  0  0  0  0  0  0  0  0  0  0
    0.7125    0.1772   -1.7196 H   0  0  0  0  0  0  0  0  0  0  0  0
   -1.0021   -0.0125   -2.0353 H   0  0  0  0  0  0  0  0  0  0  0  0
   -0.5074    1.5916   -0.7047 C   0  0  0  0  0  0  0  0  0  0  0  0
    0.5550    2.4974   -0.5672 C   0  0  0  0  0  0  0  0  0  0  0  0
    1.5677    2.1936   -0.8164 H   0  0  0  0  0  0  0  0  0  0  0  0
    0.3273    3.7899   -0.0834 C   0  0  0  0  0  0  0  0  0  0  0  0
    1.1591    4.4787    0.0317 H   0  0  0  0  0  0  0  0  0  0  0  0
   -0.9678    4.1928    0.2554 C   0  0  0  0  0  0  0  0  0  0  0  0
   -1.1424    5.1969    0.6311 H   0  0  0  0  0  0  0  0  0  0  0  0
   -2.0358    3.3032    0.1064 C   0  0  0  0  0  0  0  0  0  0  0  0
   -3.0425    3.6201    0.3621 H   0  0  0  0  0  0  0  0  0  0  0  0
   -1.8065    2.0102   -0.3760 C   0  0  0  0  0  0  0  0  0  0  0  0
   -2.6440    1.3310   -0.4965 H   0  0  0  0  0  0  0  0  0  0  0  0
    0.1065   -0.4443    1.2480 C   0  0  0  0  0  0  0  0  0  0  0  0
    1.2930   -0.4285    1.5518 O   0  0  0  0  0  0  0  0  0  0  0  0
   -0.8130    0.1410    2.1006 N   0  0  0  0  0  0  0  0  0  0  0  0
   -1.7553    0.2564    1.7455 H   0  0  0  0  0  0  0  0  0  0  0  0
   -0.4382    0.8072    3.3402 C   0  0  0  0  0  0  0  0  0  0  0  0
    0.1954    1.6751    3.1296 H   0  0  0  0  0  0  0  0  0  0  0  0
   -1.3315    1.1487    3.8711 H   0  0  0  0  0  0  0  0  0  0  0  0
    0.1092    0.1194    3.9934 H   0  0  0  0  0  0  0  0  0  0  0  0
  1  2  1  0  0  0  0
  2  3  1  0  0  0  0
  2  4  1  0  0  0  0
  2  5  1  0  0  0  0
  5  6  2  0  0  0  0
  5  7  1  0  0  0  0
  7  8  1  0  0  0  0
  7  9  1  0  0  0  0
  9 10  1  0  0  0  0
  9 11  1  0  0  0  0
  9 25  1  0  0  0  0
 11 12  1  0  0  0  0
 11 13  1  0  0  0  0
 11 14  1  0  0  0  0
 14 15  1  0  0  0  0
 14 23  2  0  0  0  0
 15 16  1  0  0  0  0
 15 17  2  0  0  0  0
 17 18  1  0  0  0  0
 17 19  1  0  0  0  0
 19 20  1  0  0  0  0
 19 21  2  0  0  0  0
 21 22  1  0  0  0  0
 21 23  1  0  0  0  0
 23 24  1  0  0  0  0
 25 26  2  0  0  0  0
 25 27  1  0  0  0  0
 27 28  1  0  0  0  0
 27 29  1  0  0  0  0
 29 30  1  0  0  0  0
 29 31  1  0  0  0  0
 29 32  1  0  0  0  0
M  END
$$$$

  -OEChem-03222214073D

 32 32  0     1  0  0  0  0  0999 V2000
   -3.1745   -4.4991    0.7318 H   0  0  0  0  0  0  0  0  0  0  0  0
   -3.1550   -3.5611    0.1695 C   0  0  0  0  0  0  0  0  0  0  0  0
   -3.9791   -2.9301    0.5109 H   0  0  0  0  0  0  0  0  0  0  0  0
   -3.2901   -3.7855   -0.8914 H   0  0  0  0  0  0  0  0  0  0  0  0
   -1.8318   -2.8507    0.3865 C   0  0  0  0  0  0  0  0  0  0  0  0
   -0.9888   -3.3497    1.1096 O   0  0  0  0  0  0  0  0  0  0  0  0
   -1.5930   -1.6417   -0.2374 N   0  0  0  0  0  0  0  0  0  0  0  0
   -2.3087   -1.3023   -0.8722 H   0  0  0  0  0  0  0  0  0  0  0  0
   -0.3248   -0.8934   -0.1417 C   0  0  1  0  0  0  0  0  0  0  0  0
    0.4484   -1.6096   -0.4432 H   0  0  0  0  0  0  0  0  0  0  0  0
   -0.2866    0.2213   -1.2146 C   0  0  0  0  0  0  0  0  0  0  0  0
    0.7026    0.1899   -1.6830 H   0  0  0  0  0  0  0  0  0  0  0  0
   -1.0120    0.0089   -2.0059 H   0  0  0  0  0  0  0  0  0  0  0  0
   -0.5181    1.6230   -0.6937 C   0  0  0  0  0  0  0  0  0  0  0  0
    0.4613    2.6156   -0.8501 C   0  0  0  0  0  0  0  0  0  0  0  0
    1.4216    2.3720   -1.2952 H   0  0  0  0  0  0  0  0  0  0  0  0
    0.2242    3.9243   -0.4162 C   0  0  0  0  0  0  0  0  0  0  0  0
    0.9971    4.6796   -0.5260 H   0  0  0  0  0  0  0  0  0  0  0  0
   -1.0044    4.2598    0.1596 C   0  0  0  0  0  0  0  0  0  0  0  0
   -1.1860    5.2758    0.4978 H   0  0  0  0  0  0  0  0  0  0  0  0
   -1.9995    3.2876    0.2913 C   0  0  0  0  0  0  0  0  0  0  0  0
   -2.9584    3.5508    0.7274 H   0  0  0  0  0  0  0  0  0  0  0  0
   -1.7605    1.9799   -0.1446 C   0  0  0  0  0  0  0  0  0  0  0  0
   -2.5473    1.2388   -0.0541 H   0  0  0  0  0  0  0  0  0  0  0  0
    0.1165   -0.4551    1.2764 C   0  0  0  0  0  0  0  0  0  0  0  0
    1.3096   -0.4382    1.5525 O   0  0  0  0  0  0  0  0  0  0  0  0
   -0.7819    0.1073    2.1658 N   0  0  0  0  0  0  0  0  0  0  0  0
   -1.7513    0.1545    1.8752 H   0  0  0  0  0  0  0  0  0  0  0  0
   -0.3903    0.6975    3.4384 C   0  0  0  0  0  0  0  0  0  0  0  0
    0.2850    1.5438    3.2746 H   0  0  0  0  0  0  0  0  0  0  0  0
   -1.2727    1.0571    3.9756 H   0  0  0  0  0  0  0  0  0  0  0  0
    0.1168   -0.0448    4.0637 H   0  0  0  0  0  0  0  0  0  0  0  0
  1  2  1  0  0  0  0
  2  3  1  0  0  0  0
  2  4  1  0  0  0  0
  2  5  1  0  0  0  0
  5  6  2  0  0  0  0
  5  7  1  0  0  0  0
  7  8  1  0  0  0  0
  7  9  1  0  0  0  0
  9 10  1  0  0  0  0
  9 11  1  0  0  0  0
  9 25  1  0  0  0  0
 11 12  1  0  0  0  0
 11 13  1  0  0  0  0
 11 14  1  0  0  0  0
 14 15  1  0  0  0  0
 14 23  2  0  0  0  0
 15 16  1  0  0  0  0
 15 17  2  0  0  0  0
 17 18  1  0  0  0  0
 17 19  1  0  0  0  0
 19 20  1  0  0  0  0
 19 21  2  0  0  0  0
 21 22  1  0  0  0  0
 21 23  1  0  0  0  0
 23 24  1  0  0  0  0
 25 26  2  0  0  0  0
 25 27  1  0  0  0  0
 27 28  1  0  0  0  0
 27 29  1  0  0  0  0
 29 30  1  0  0  0  0
 29 31  1  0  0  0  0
 29 32  1  0  0  0  0
M  END
$$$$

  -OEChem-03222214073D

 32 32  0     1  0  0  0  0  0999 V2000
   -3.1600   -4.5268    0.6609 H   0  0  0  0  0  0  0  0  0  0  0  0
   -3.1462   -3.5729    0.1259 C   0  0  0  0  0  0  0  0  0  0  0  0
   -3.9819   -2.9620    0.4758 H   0  0  0  0  0  0  0  0  0  0  0  0
   -3.2670   -3.7680   -0.9425 H   0  0  0  0  0  0  0  0  0  0  0  0
   -1.8343   -2.8528    0.3766 C   0  0  0  0  0  0  0  0  0  0  0  0
   -0.9893   -3.3614    1.0906 O   0  0  0  0  0  0  0  0  0  0  0  0
   -1.6110   -1.6189   -0.2020 N   0  0  0  0  0  0  0  0  0  0  0  0
   -2.3294   -1.2686   -0.8285 H   0  0  0  0  0  0  0  0  0  0  0  0
   -0.3463   -0.8667   -0.0983 C   0  0  1  0  0  0  0  0  0  0  0  0
    0.4176   -1.5849   -0.4184 H   0  0  0  0  0  0  0  0  0  0  0  0
   -0.2934    0.2515   -1.1672 C   0  0  0  0  0  0  0  0  0  0  0  0
    0.7041    0.2124   -1.6175 H   0  0  0  0  0  0  0  0  0  0  0  0
   -1.0068    0.0347   -1.9680 H   0  0  0  0  0  0  0  0  0  0  0  0
   -0.5253    1.6665   -0.6789 C   0  0  0  0  0  0  0  0  0  0  0  0
    0.3120    2.7065   -1.1132 C   0  0  0  0  0  0  0  0  0  0  0  0
    1.1788    2.4882   -1.7299 H   0  0  0  0  0  0  0  0  0  0  0  0
    0.0583    4.0320   -0.7444 C   0  0  0  0  0  0  0  0  0  0  0  0
    0.7294    4.8223   -1.0677 H   0  0  0  0  0  0  0  0  0  0  0  0
   -1.0587    4.3393    0.0367 C   0  0  0  0  0  0  0  0  0  0  0  0
   -1.2549    5.3678    0.3251 H   0  0  0  0  0  0  0  0  0  0  0  0
   -1.9295    3.3214    0.4332 C   0  0  0  0  0  0  0  0  0  0  0  0
   -2.8096    3.5609    1.0226 H   0  0  0  0  0  0  0  0  0  0  0  0
   -1.6724    1.9975    0.0620 C   0  0  0  0  0  0  0  0  0  0  0  0
   -2.3765    1.2254    0.3509 H   0  0  0  0  0  0  0  0  0  0  0  0
    0.1312   -0.4735    1.3212 C   0  0  0  0  0  0  0  0  0  0  0  0
    1.3327   -0.4445    1.5563 O   0  0  0  0  0  0  0  0  0  0  0  0
   -0.7397    0.0531    2.2584 N   0  0  0  0  0  0  0  0  0  0  0  0
   -1.7295   -0.0019    2.0498 H   0  0  0  0  0  0  0  0  0  0  0  0
   -0.3137    0.5509    3.5595 C   0  0  0  0  0  0  0  0  0  0  0  0
    0.3860    1.3845    3.4383 H   0  0  0  0  0  0  0  0  0  0  0  0
   -1.1770    0.9047    4.1308 H   0  0  0  0  0  0  0  0  0  0  0  0
    0.1786   -0.2434    4.1304 H   0  0  0  0  0  0  0  0  0  0  0  0
  1  2  1  0  0  0  0
  2  3  1  0  0  0  0
  2  4  1  0  0  0  0
  2  5  1  0  0  0  0
  5  6  2  0  0  0  0
  5  7  1  0  0  0  0
  7  8  1  0  0  0  0
  7  9  1  0  0  0  0
  9 10  1  0  0  0  0
  9 11  1  0  0  0  0
  9 25  1  0  0  0  0
 11 12  1  0  0  0  0
 11 13  1  0  0  0  0
 11 14  1  0  0  0  0
 14 15  1  0  0  0  0
 14 23  2  0  0  0  0
 15 16  1  0  0  0  0
 15 17  2  0  0  0  0
 17 18  1  0  0  0  0
 17 19  1  0  0  0  0
 19 20  1  0  0  0  0
 19 21  2  0  0  0  0
 21 22  1  0  0  0  0
 21 23  1  0  0  0  0
 23 24  1  0  0  0  0
 25 26  2  0  0  0  0
 25 27  1  0  0  0  0
 27 28  1  0  0  0  0
 27 29  1  0  0  0  0
 29 30  1  0  0  0  0
 29 31  1  0  0  0  0
 29 32  1  0  0  0  0
M  END
$$$$

  -OEChem-03222214073D

 32 32  0     1  0  0  0  0  0999 V2000
   -3.1434   -4.5549    0.5772 H   0  0  0  0  0  0  0  0  0  0  0  0
   -3.1422   -3.5840    0.0732 C   0  0  0  0  0  0  0  0  0  0  0  0
   -3.9831   -2.9942    0.4456 H   0  0  0  0  0  0  0  0  0  0  0  0
   -3.2650   -3.7462   -1.0005 H   0  0  0  0  0  0  0  0  0  0  0  0
   -1.8372   -2.8580    0.3422 C   0  0  0  0  0  0  0  0  0  0  0  0
   -0.9775   -3.3887    1.0220 O   0  0  0  0  0  0  0  0  0  0  0  0
   -1.6362   -1.5933   -0.1753 N   0  0  0  0  0  0  0  0  0  0  0  0
   -2.3713   -1.2152   -0.7655 H   0  0  0  0  0  0  0  0  0  0  0  0
   -0.3763   -0.8354   -0.0563 C   0  0  1  0  0  0  0  0  0  0  0  0
    0.3772   -1.5536   -0.4008 H   0  0  0  0  0  0  0  0  0  0  0  0
   -0.2952    0.2945   -1.1136 C   0  0  0  0  0  0  0  0  0  0  0  0
    0.7140    0.2497   -1.5368 H   0  0  0  0  0  0  0  0  0  0  0  0
   -0.9883    0.0767   -1.9319 H   0  0  0  0  0  0  0  0  0  0  0  0
   -0.5240    1.7239   -0.6606 C   0  0  0  0  0  0  0  0  0  0  0  0
    0.1304    2.7652   -1.3396 C   0  0  0  0  0  0  0  0  0  0  0  0
    0.8691    2.5366   -2.1023 H   0  0  0  0  0  0  0  0  0  0  0  0
   -0.1323    4.1045   -1.0327 C   0  0  0  0  0  0  0  0  0  0  0  0
    0.4079    4.8944   -1.5461 H   0  0  0  0  0  0  0  0  0  0  0  0
   -1.0916    4.4254   -0.0700 C   0  0  0  0  0  0  0  0  0  0  0  0
   -1.2954    5.4646    0.1709 H   0  0  0  0  0  0  0  0  0  0  0  0
   -1.8025    3.4047    0.5647 C   0  0  0  0  0  0  0  0  0  0  0  0
   -2.5704    3.6513    1.2919 H   0  0  0  0  0  0  0  0  0  0  0  0
   -1.5366    2.0674    0.2516 C   0  0  0  0  0  0  0  0  0  0  0  0
   -2.1442    1.2993    0.7138 H   0  0  0  0  0  0  0  0  0  0  0  0
    0.1355   -0.5066    1.3679 C   0  0  0  0  0  0  0  0  0  0  0  0
    1.3430   -0.4644    1.5667 O   0  0  0  0  0  0  0  0  0  0  0  0
   -0.7110   -0.0350    2.3554 N   0  0  0  0  0  0  0  0  0  0  0  0
   -1.7048   -0.1606    2.2013 H   0  0  0  0  0  0  0  0  0  0  0  0
   -0.2480    0.3794    3.6733 C   0  0  0  0  0  0  0  0  0  0  0  0
    0.4587    1.2112    3.5849 H   0  0  0  0  0  0  0  0  0  0  0  0
   -1.0932    0.7093    4.2846 H   0  0  0  0  0  0  0  0  0  0  0  0
    0.2477   -0.4526    4.1846 H   0  0  0  0  0  0  0  0  0  0  0  0
  1  2  1  0  0  0  0
  2  3  1  0  0  0  0
  2  4  1  0  0  0  0
  2  5  1  0  0  0  0
  5  6  2  0  0  0  0
  5  7  1  0  0  0  0
  7  8  1  0  0  0  0
  7  9  1  0  0  0  0
  9 10  1  0  0  0  0
  9 11  1  0  0  0  0
  9 25  1  0  0  0  0
 11 12  1  0  0  0  0
 11 13  1  0  0  0  0
 11 14  1  0  0  0  0
 14 15  1  0  0  0  0
 14 23  2  0  0  0  0
 15 16  1  0  0  0  0
 15 17  2  0  0  0  0
 17 18  1  0  0  0  0
 17 19  1  0  0  0  0
 19 20  1  0  0  0  0
 19 21  2  0  0  0  0
 21 22  1  0  0  0  0
 21 23  1  0  0  0  0
 23 24  1  0  0  0  0
 25 26  2  0  0  0  0
 25 27  1  0  0  0  0
 27 28  1  0  0  0  0
 27 29  1  0  0  0  0
 29 30  1  0  0  0  0
 29 31  1  0  0  0  0
 29 32  1  0  0  0  0
M  END
$$$$

  -OEChem-03222214073D

 32 32  0     1  0  0  0  0  0999 V2000
   -3.1438   -4.5689    0.4152 H   0  0  0  0  0  0  0  0  0  0  0  0
   -3.1464   -3.5699   -0.0302 C   0  0  0  0  0  0  0  0  0  0  0  0
   -3.9941   -3.0092    0.3707 H   0  0  0  0  0  0  0  0  0  0  0  0
   -3.2608   -3.6685   -1.1125 H   0  0  0  0  0  0  0  0  0  0  0  0
   -1.8484   -2.8524    0.2901 C   0  0  0  0  0  0  0  0  0  0  0  0
   -0.9877   -3.4162    0.9415 O   0  0  0  0  0  0  0  0  0  0  0  0
   -1.6555   -1.5564   -0.1465 N   0  0  0  0  0  0  0  0  0  0  0  0
   -2.3997   -1.1413   -0.6996 H   0  0  0  0  0  0  0  0  0  0  0  0
   -0.4022   -0.7962    0.0168 C   0  0  1  0  0  0  0  0  0  0  0  0
    0.3455   -1.5156   -0.3383 H   0  0  0  0  0  0  0  0  0  0  0  0
   -0.2715    0.3377   -1.0337 C   0  0  0  0  0  0  0  0  0  0  0  0
    0.7562    0.2847   -1.4094 H   0  0  0  0  0  0  0  0  0  0  0  0
   -0.9262    0.1082   -1.8800 H   0  0  0  0  0  0  0  0  0  0  0  0
   -0.5029    1.7872   -0.6447 C   0  0  0  0  0  0  0  0  0  0  0  0
   -0.0545    2.7785   -1.5348 C   0  0  0  0  0  0  0  0  0  0  0  0
    0.5324    2.4979   -2.4045 H   0  0  0  0  0  0  0  0  0  0  0  0
   -0.3218    4.1331   -1.3107 C   0  0  0  0  0  0  0  0  0  0  0  0
    0.0664    4.8832   -1.9932 H   0  0  0  0  0  0  0  0  0  0  0  0
   -1.0919    4.5189   -0.2126 C   0  0  0  0  0  0  0  0  0  0  0  0
   -1.3010    5.5696   -0.0343 H   0  0  0  0  0  0  0  0  0  0  0  0
   -1.6137    3.5443    0.6395 C   0  0  0  0  0  0  0  0  0  0  0  0
   -2.2449    3.8356    1.4736 H   0  0  0  0  0  0  0  0  0  0  0  0
   -1.3425    2.1914    0.4079 C   0  0  0  0  0  0  0  0  0  0  0  0
   -1.8317    1.4684    1.0429 H   0  0  0  0  0  0  0  0  0  0  0  0
    0.1194   -0.5462    1.4539 C   0  0  0  0  0  0  0  0  0  0  0  0
    1.3284   -0.4946    1.6404 O   0  0  0  0  0  0  0  0  0  0  0  0
   -0.7183   -0.1420    2.4785 N   0  0  0  0  0  0  0  0  0  0  0  0
   -1.7096   -0.3043    2.3387 H   0  0  0  0  0  0  0  0  0  0  0  0
   -0.2407    0.1639    3.8211 C   0  0  0  0  0  0  0  0  0  0  0  0
    0.4736    0.9935    3.7930 H   0  0  0  0  0  0  0  0  0  0  0  0
   -1.0776    0.4525    4.4636 H   0  0  0  0  0  0  0  0  0  0  0  0
    0.2510   -0.7100    4.2610 H   0  0  0  0  0  0  0  0  0  0  0  0
  1  2  1  0  0  0  0
  2  3  1  0  0  0  0
  2  4  1  0  0  0  0
  2  5  1  0  0  0  0
  5  6  2  0  0  0  0
  5  7  1  0  0  0  0
  7  8  1  0  0  0  0
  7  9  1  0  0  0  0
  9 10  1  0  0  0  0
  9 11  1  0  0  0  0
  9 25  1  0  0  0  0
 11 12  1  0  0  0  0
 11 13  1  0  0  0  0
 11 14  1  0  0  0  0
 14 15  1  0  0  0  0
 14 23  2  0  0  0  0
 15 16  1  0  0  0  0
 15 17  2  0  0  0  0
 17 18  1  0  0  0  0
 17 19  1  0  0  0  0
 19 20  1  0  0  0  0
 19 21  2  0  0  0  0
 21 22  1  0  0  0  0
 21 23  1  0  0  0  0
 23 24  1  0  0  0  0
 25 26  2  0  0  0  0
 25 27  1  0  0  0  0
 27 28  1  0  0  0  0
 27 29  1  0  0  0  0
 29 30  1  0  0  0  0
 29 31  1  0  0  0  0
 29 32  1  0  0  0  0
M  END
$$$$

  -OEChem-03222214073D

 32 32  0     1  0  0  0  0  0999 V2000
   -3.2315   -4.4549    0.5069 H   0  0  0  0  0  0  0  0  0  0  0  0
   -3.1907   -3.4694    0.0342 C   0  0  0  0  0  0  0  0  0  0  0  0
   -3.9707   -2.8398    0.4688 H   0  0  0  0  0  0  0  0  0  0  0  0
   -3.3782   -3.5854   -1.0359 H   0  0  0  0  0  0  0  0  0  0  0  0
   -1.8277   -2.8406    0.2568 C   0  0  0  0  0  0  0  0  0  0  0  0
   -0.9595   -3.4682    0.8354 O   0  0  0  0  0  0  0  0  0  0  0  0
   -1.5831   -1.5582   -0.1970 N   0  0  0  0  0  0  0  0  0  0  0  0
   -2.3443   -1.0886   -0.6784 H   0  0  0  0  0  0  0  0  0  0  0  0
   -0.3017   -0.8373   -0.0390 C   0  0  1  0  0  0  0  0  0  0  0  0
    0.4720   -1.5148   -0.4197 H   0  0  0  0  0  0  0  0  0  0  0  0
   -0.2869    0.3794   -1.0199 C   0  0  0  0  0  0  0  0  0  0  0  0
    0.5586    0.1902   -1.6901 H   0  0  0  0  0  0  0  0  0  0  0  0
   -1.1860    0.3125   -1.6409 H   0  0  0  0  0  0  0  0  0  0  0  0
   -0.1545    1.8538   -0.6323 C   0  0  0  0  0  0  0  0  0  0  0  0
   -0.1730    2.7546   -1.7149 C   0  0  0  0  0  0  0  0  0  0  0  0
   -0.2988    2.3797   -2.7263 H   0  0  0  0  0  0  0  0  0  0  0  0
   -0.0418    4.1346   -1.5313 C   0  0  0  0  0  0  0  0  0  0  0  0
   -0.0706    4.8033   -2.3866 H   0  0  0  0  0  0  0  0  0  0  0  0
    0.1340    4.6516   -0.2490 C   0  0  0  0  0  0  0  0  0  0  0  0
    0.2404    5.7220   -0.0991 H   0  0  0  0  0  0  0  0  0  0  0  0
    0.1912    3.7814    0.8388 C   0  0  0  0  0  0  0  0  0  0  0  0
    0.3536    4.1746    1.8381 H   0  0  0  0  0  0  0  0  0  0  0  0
    0.0599    2.4010    0.6502 C   0  0  0  0  0  0  0  0  0  0  0  0
    0.1631    1.8073    1.5426 H   0  0  0  0  0  0  0  0  0  0  0  0
    0.0873   -0.6595    1.4441 C   0  0  0  0  0  0  0  0  0  0  0  0
    1.2643   -0.6910    1.7781 O   0  0  0  0  0  0  0  0  0  0  0  0
   -0.8614   -0.2550    2.3695 N   0  0  0  0  0  0  0  0  0  0  0  0
   -1.8296   -0.2874    2.0687 H   0  0  0  0  0  0  0  0  0  0  0  0
   -0.5688   -0.0943    3.7883 C   0  0  0  0  0  0  0  0  0  0  0  0
    0.2427    0.6263    3.9349 H   0  0  0  0  0  0  0  0  0  0  0  0
   -1.4535    0.2721    4.3177 H   0  0  0  0  0  0  0  0  0  0  0  0
   -0.2722   -1.0527    4.2273 H   0  0  0  0  0  0  0  0  0  0  0  0
  1  2  1  0  0  0  0
  2  3  1  0  0  0  0
  2  4  1  0  0  0  0
  2  5  1  0  0  0  0
  5  6  2  0  0  0  0
  5  7  1  0  0  0  0
  7  8  1  0  0  0  0
  7  9  1  0  0  0  0
  9 10  1  0  0  0  0
  9 11  1  0  0  0  0
  9 25  1  0  0  0  0
 11 12  1  0  0  0  0
 11 13  1  0  0  0  0
 11 14  1  0  0  0  0
 14 15  1  0  0  0  0
 14 23  2  0  0  0  0
 15 16  1  0  0  0  0
 15 17  2  0  0  0  0
 17 18  1  0  0  0  0
 17 19  1  0  0  0  0
 19 20  1  0  0  0  0
 19 21  2  0  0  0  0
 21 22  1  0  0  0  0
 21 23  1  0  0  0  0
 23 24  1  0  0  0  0
 25 26  2  0  0  0  0
 25 27  1  0  0  0  0
 27 28  1  0  0  0  0
 27 29  1  0  0  0  0
 29 30  1  0  0  0  0
 29 31  1  0  0  0  0
 29 32  1  0  0  0  0
M  END
$$$$

  -OEChem-03222214073D

 32 32  0     1  0  0  0  0  0999 V2000
   -3.2773   -4.4042    0.6162 H   0  0  0  0  0  0  0  0  0  0  0  0
   -3.2076   -3.4458    0.0936 C   0  0  0  0  0  0  0  0  0  0  0  0
   -3.9683   -2.7722    0.4947 H   0  0  0  0  0  0  0  0  0  0  0  0
   -3.3980   -3.6105   -0.9696 H   0  0  0  0  0  0  0  0  0  0  0  0
   -1.8273   -2.8464    0.2866 C   0  0  0  0  0  0  0  0  0  0  0  0
   -0.9745   -3.4757    0.8856 O   0  0  0  0  0  0  0  0  0  0  0  0
   -1.5474   -1.5934   -0.2257 N   0  0  0  0  0  0  0  0  0  0  0  0
   -2.2998   -1.1196   -0.7160 H   0  0  0  0  0  0  0  0  0  0  0  0
   -0.2577   -0.8880   -0.0602 C   0  0  1  0  0  0  0  0  0  0  0  0
    0.5292   -1.5641   -0.4146 H   0  0  0  0  0  0  0  0  0  0  0  0
   -0.2676    0.3298   -1.0412 C   0  0  0  0  0  0  0  0  0  0  0  0
    0.5718    0.1591   -1.7234 H   0  0  0  0  0  0  0  0  0  0  0  0
   -1.1714    0.2602   -1.6550 H   0  0  0  0  0  0  0  0  0  0  0  0
   -0.1383    1.7948   -0.6165 C   0  0  0  0  0  0  0  0  0  0  0  0
   -0.5019    2.7436   -1.5921 C   0  0  0  0  0  0  0  0  0  0  0  0
   -0.9067    2.4138   -2.5441 H   0  0  0  0  0  0  0  0  0  0  0  0
   -0.3729    4.1183   -1.3710 C   0  0  0  0  0  0  0  0  0  0  0  0
   -0.6840    4.8244   -2.1353 H   0  0  0  0  0  0  0  0  0  0  0  0
    0.1674    4.5824   -0.1731 C   0  0  0  0  0  0  0  0  0  0  0  0
    0.2744    5.6488    0.0030 H   0  0  0  0  0  0  0  0  0  0  0  0
    0.5988    3.6657    0.7849 C   0  0  0  0  0  0  0  0  0  0  0  0
    1.0584    4.0183    1.7039 H   0  0  0  0  0  0  0  0  0  0  0  0
    0.4686    2.2910    0.5581 C   0  0  0  0  0  0  0  0  0  0  0  0
    0.8959    1.6551    1.3193 H   0  0  0  0  0  0  0  0  0  0  0  0
    0.0732   -0.6458    1.4273 C   0  0  0  0  0  0  0  0  0  0  0  0
    1.2228   -0.7707    1.8304 O   0  0  0  0  0  0  0  0  0  0  0  0
   -0.8991   -0.1765    2.2938 N   0  0  0  0  0  0  0  0  0  0  0  0
   -1.8419   -0.0971    1.9289 H   0  0  0  0  0  0  0  0  0  0  0  0
   -0.6641    0.0535    3.7130 C   0  0  0  0  0  0  0  0  0  0  0  0
    0.1072    0.8174    3.8548 H   0  0  0  0  0  0  0  0  0  0  0  0
   -1.5827    0.3966    4.1980 H   0  0  0  0  0  0  0  0  0  0  0  0
   -0.3393   -0.8716    4.2009 H   0  0  0  0  0  0  0  0  0  0  0  0
  1  2  1  0  0  0  0
  2  3  1  0  0  0  0
  2  4  1  0  0  0  0
  2  5  1  0  0  0  0
  5  6  2  0  0  0  0
  5  7  1  0  0  0  0
  7  8  1  0  0  0  0
  7  9  1  0  0  0  0
  9 10  1  0  0  0  0
  9 11  1  0  0  0  0
  9 25  1  0  0  0  0
 11 12  1  0  0  0  0
 11 13  1  0  0  0  0
 11 14  1  0  0  0  0
 14 15  1  0  0  0  0
 14 23  2  0  0  0  0
 15 16  1  0  0  0  0
 15 17  2  0  0  0  0
 17 18  1  0  0  0  0
 17 19  1  0  0  0  0
 19 20  1  0  0  0  0
 19 21  2  0  0  0  0
 21 22  1  0  0  0  0
 21 23  1  0  0  0  0
 23 24  1  0  0  0  0
 25 26  2  0  0  0  0
 25 27  1  0  0  0  0
 27 28  1  0  0  0  0
 27 29  1  0  0  0  0
 29 30  1  0  0  0  0
 29 31  1  0  0  0  0
 29 32  1  0  0  0  0
M  END
$$$$

  -OEChem-03222214073D

 32 32  0     1  0  0  0  0  0999 V2000
   -3.2710   -4.3919    0.7055 H   0  0  0  0  0  0  0  0  0  0  0  0
   -3.1966   -3.4511    0.1524 C   0  0  0  0  0  0  0  0  0  0  0  0
   -3.9437   -2.7558    0.5423 H   0  0  0  0  0  0  0  0  0  0  0  0
   -3.4030   -3.6462   -0.9027 H   0  0  0  0  0  0  0  0  0  0  0  0
   -1.8064   -2.8631    0.3086 C   0  0  0  0  0  0  0  0  0  0  0  0
   -0.9525   -3.4838    0.9150 O   0  0  0  0  0  0  0  0  0  0  0  0
   -1.5158   -1.6357   -0.2567 N   0  0  0  0  0  0  0  0  0  0  0  0
   -2.2730   -1.1645   -0.7413 H   0  0  0  0  0  0  0  0  0  0  0  0
   -0.2293   -0.9240   -0.0958 C   0  0  1  0  0  0  0  0  0  0  0  0
    0.5725   -1.5964   -0.4221 H   0  0  0  0  0  0  0  0  0  0  0  0
   -0.2604    0.2793   -1.0919 C   0  0  0  0  0  0  0  0  0  0  0  0
    0.5793    0.1282   -1.7781 H   0  0  0  0  0  0  0  0  0  0  0  0
   -1.1643    0.2042   -1.7042 H   0  0  0  0  0  0  0  0  0  0  0  0
   -0.1411    1.7222   -0.6111 C   0  0  0  0  0  0  0  0  0  0  0  0
   -0.7967    2.7124   -1.3668 C   0  0  0  0  0  0  0  0  0  0  0  0
   -1.4373    2.4299   -2.1966 H   0  0  0  0  0  0  0  0  0  0  0  0
   -0.6645    4.0716   -1.0646 C   0  0  0  0  0  0  0  0  0  0  0  0
   -1.2064    4.8132   -1.6441 H   0  0  0  0  0  0  0  0  0  0  0  0
    0.1751    4.4764   -0.0268 C   0  0  0  0  0  0  0  0  0  0  0  0
    0.2840    5.5304    0.2110 H   0  0  0  0  0  0  0  0  0  0  0  0
    0.9043    3.5202    0.6800 C   0  0  0  0  0  0  0  0  0  0  0  0
    1.5975    3.8296    1.4570 H   0  0  0  0  0  0  0  0  0  0  0  0
    0.7695    2.1629    0.3712 C   0  0  0  0  0  0  0  0  0  0  0  0
    1.4238    1.4773    0.8957 H   0  0  0  0  0  0  0  0  0  0  0  0
    0.0653   -0.6132    1.3898 C   0  0  0  0  0  0  0  0  0  0  0  0
    1.1924   -0.7744    1.8413 O   0  0  0  0  0  0  0  0  0  0  0  0
   -0.9251   -0.1026    2.2109 N   0  0  0  0  0  0  0  0  0  0  0  0
   -1.8273    0.0834    1.7872 H   0  0  0  0  0  0  0  0  0  0  0  0
   -0.6981    0.2761    3.5990 C   0  0  0  0  0  0  0  0  0  0  0  0
    0.0304    1.0916    3.6580 H   0  0  0  0  0  0  0  0  0  0  0  0
   -1.6332    0.6115    4.0574 H   0  0  0  0  0  0  0  0  0  0  0  0
   -0.3198   -0.5777    4.1713 H   0  0  0  0  0  0  0  0  0  0  0  0
  1  2  1  0  0  0  0
  2  3  1  0  0  0  0
  2  4  1  0  0  0  0
  2  5  1  0  0  0  0
  5  6  2  0  0  0  0
  5  7  1  0  0  0  0
  7  8  1  0  0  0  0
  7  9  1  0  0  0  0
  9 10  1  0  0  0  0
  9 11  1  0  0  0  0
  9 25  1  0  0  0  0
 11 12  1  0  0  0  0
 11 13  1  0  0  0  0
 11 14  1  0  0  0  0
 14 15  1  0  0  0  0
 14 23  2  0  0  0  0
 15 16  1  0  0  0  0
 15 17  2  0  0  0  0
 17 18  1  0  0  0  0
 17 19  1  0  0  0  0
 19 20  1  0  0  0  0
 19 21  2  0  0  0  0
 21 22  1  0  0  0  0
 21 23  1  0  0  0  0
 23 24  1  0  0  0  0
 25 26  2  0  0  0  0
 25 27  1  0  0  0  0
 27 28  1  0  0  0  0
 27 29  1  0  0  0  0
 29 30  1  0  0  0  0
 29 31  1  0  0  0  0
 29 32  1  0  0  0  0
M  END
$$$$

  -OEChem-03222214073D

 32 32  0     1  0  0  0  0  0999 V2000
   -3.2594   -4.3930    0.7501 H   0  0  0  0  0  0  0  0  0  0  0  0
   -3.1906   -3.4620    0.1801 C   0  0  0  0  0  0  0  0  0  0  0  0
   -3.9446   -2.7656    0.5546 H   0  0  0  0  0  0  0  0  0  0  0  0
   -3.3917   -3.6780   -0.8720 H   0  0  0  0  0  0  0  0  0  0  0  0
   -1.8055   -2.8611    0.3307 C   0  0  0  0  0  0  0  0  0  0  0  0
   -0.9541   -3.4568    0.9652 O   0  0  0  0  0  0  0  0  0  0  0  0
   -1.5164   -1.6502   -0.2690 N   0  0  0  0  0  0  0  0  0  0  0  0
   -2.2689   -1.2005   -0.7806 H   0  0  0  0  0  0  0  0  0  0  0  0
   -0.2335   -0.9317   -0.1215 C   0  0  1  0  0  0  0  0  0  0  0  0
    0.5669   -1.6149   -0.4277 H   0  0  0  0  0  0  0  0  0  0  0  0
   -0.2514    0.2453   -1.1439 C   0  0  0  0  0  0  0  0  0  0  0  0
    0.5954    0.0891   -1.8203 H   0  0  0  0  0  0  0  0  0  0  0  0
   -1.1492    0.1716   -1.7654 H   0  0  0  0  0  0  0  0  0  0  0  0
   -0.1295    1.6721   -0.6319 C   0  0  0  0  0  0  0  0  0  0  0  0
   -0.9956    2.6548   -1.1436 C   0  0  0  0  0  0  0  0  0  0  0  0
   -1.7910    2.3804   -1.8294 H   0  0  0  0  0  0  0  0  0  0  0  0
   -0.8646    3.9980   -0.7742 C   0  0  0  0  0  0  0  0  0  0  0  0
   -1.5563    4.7400   -1.1620 H   0  0  0  0  0  0  0  0  0  0  0  0
    0.1641    4.3892    0.0848 C   0  0  0  0  0  0  0  0  0  0  0  0
    0.2695    5.4311    0.3733 H   0  0  0  0  0  0  0  0  0  0  0  0
    1.0746    3.4387    0.5500 C   0  0  0  0  0  0  0  0  0  0  0  0
    1.8976    3.7396    1.1919 H   0  0  0  0  0  0  0  0  0  0  0  0
    0.9427    2.0983    0.1740 C   0  0  0  0  0  0  0  0  0  0  0  0
    1.7012    1.3974    0.5087 H   0  0  0  0  0  0  0  0  0  0  0  0
    0.0736   -0.5665    1.3509 C   0  0  0  0  0  0  0  0  0  0  0  0
    1.2094   -0.6950    1.7914 O   0  0  0  0  0  0  0  0  0  0  0  0
   -0.9084   -0.0270    2.1634 N   0  0  0  0  0  0  0  0  0  0  0  0
   -1.8129    0.1489    1.7407 H   0  0  0  0  0  0  0  0  0  0  0  0
   -0.6556    0.4353    3.5215 C   0  0  0  0  0  0  0  0  0  0  0  0
    0.0484    1.2738    3.5137 H   0  0  0  0  0  0  0  0  0  0  0  0
   -1.5873    0.7683    3.9878 H   0  0  0  0  0  0  0  0  0  0  0  0
   -0.2352   -0.3731    4.1292 H   0  0  0  0  0  0  0  0  0  0  0  0
  1  2  1  0  0  0  0
  2  3  1  0  0  0  0
  2  4  1  0  0  0  0
  2  5  1  0  0  0  0
  5  6  2  0  0  0  0
  5  7  1  0  0  0  0
  7  8  1  0  0  0  0
  7  9  1  0  0  0  0
  9 10  1  0  0  0  0
  9 11  1  0  0  0  0
  9 25  1  0  0  0  0
 11 12  1  0  0  0  0
 11 13  1  0  0  0  0
 11 14  1  0  0  0  0
 14 15  1  0  0  0  0
 14 23  2  0  0  0  0
 15 16  1  0  0  0  0
 15 17  2  0  0  0  0
 17 18  1  0  0  0  0
 17 19  1  0  0  0  0
 19 20  1  0  0  0  0
 19 21  2  0  0  0  0
 21 22  1  0  0  0  0
 21 23  1  0  0  0  0
 23 24  1  0  0  0  0
 25 26  2  0  0  0  0
 25 27  1  0  0  0  0
 27 28  1  0  0  0  0
 27 29  1  0  0  0  0
 29 30  1  0  0  0  0
 29 31  1  0  0  0  0
 29 32  1  0  0  0  0
M  END
$$$$

  -OEChem-03222214073D

 32 32  0     1  0  0  0  0  0999 V2000
   -3.2401   -4.4027    0.7812 H   0  0  0  0  0  0  0  0  0  0  0  0
   -3.1816   -3.4751    0.2046 C   0  0  0  0  0  0  0  0  0  0  0  0
   -3.9427   -2.7838    0.5740 H   0  0  0  0  0  0  0  0  0  0  0  0
   -3.3806   -3.7013   -0.8457 H   0  0  0  0  0  0  0  0  0  0  0  0
   -1.8035   -2.8572    0.3501 C   0  0  0  0  0  0  0  0  0  0  0  0
   -0.9528   -3.4251    1.0103 O   0  0  0  0  0  0  0  0  0  0  0  0
   -1.5199   -1.6613   -0.2812 N   0  0  0  0  0  0  0  0  0  0  0  0
   -2.2692   -1.2354   -0.8171 H   0  0  0  0  0  0  0  0  0  0  0  0
   -0.2388   -0.9367   -0.1555 C   0  0  1  0  0  0  0  0  0  0  0  0
    0.5592   -1.6284   -0.4493 H   0  0  0  0  0  0  0  0  0  0  0  0
   -0.2486    0.2183   -1.1978 C   0  0  0  0  0  0  0  0  0  0  0  0
    0.5972    0.0552   -1.8738 H   0  0  0  0  0  0  0  0  0  0  0  0
   -1.1482    0.1524   -1.8176 H   0  0  0  0  0  0  0  0  0  0  0  0
   -0.1198    1.6308   -0.6608 C   0  0  0  0  0  0  0  0  0  0  0  0
   -1.1421    2.5652   -0.8957 C   0  0  0  0  0  0  0  0  0  0  0  0
   -2.0454    2.2701   -1.4204 H   0  0  0  0  0  0  0  0  0  0  0  0
   -1.0189    3.8869   -0.4524 C   0  0  0  0  0  0  0  0  0  0  0  0
   -1.8220    4.5968   -0.6270 H   0  0  0  0  0  0  0  0  0  0  0  0
    0.1411    4.2977    0.2098 C   0  0  0  0  0  0  0  0  0  0  0  0
    0.2390    5.3223    0.5566 H   0  0  0  0  0  0  0  0  0  0  0  0
    1.1825    3.3891    0.4136 C   0  0  0  0  0  0  0  0  0  0  0  0
    2.0932    3.7044    0.9147 H   0  0  0  0  0  0  0  0  0  0  0  0
    1.0578    2.0698   -0.0320 C   0  0  0  0  0  0  0  0  0  0  0  0
    1.8855    1.3823    0.1228 H   0  0  0  0  0  0  0  0  0  0  0  0
    0.0915   -0.5238    1.2999 C   0  0  0  0  0  0  0  0  0  0  0  0
    1.2422   -0.6048    1.7127 O   0  0  0  0  0  0  0  0  0  0  0  0
   -0.8795    0.0409    2.1086 N   0  0  0  0  0  0  0  0  0  0  0  0
   -1.7907    0.1967    1.6927 H   0  0  0  0  0  0  0  0  0  0  0  0
   -0.5968    0.5962    3.4253 C   0  0  0  0  0  0  0  0  0  0  0  0
    0.0993    1.4374    3.3431 H   0  0  0  0  0  0  0  0  0  0  0  0
   -1.5201    0.9533    3.8910 H   0  0  0  0  0  0  0  0  0  0  0  0
   -0.1551   -0.1663    4.0754 H   0  0  0  0  0  0  0  0  0  0  0  0
  1  2  1  0  0  0  0
  2  3  1  0  0  0  0
  2  4  1  0  0  0  0
  2  5  1  0  0  0  0
  5  6  2  0  0  0  0
  5  7  1  0  0  0  0
  7  8  1  0  0  0  0
  7  9  1  0  0  0  0
  9 10  1  0  0  0  0
  9 11  1  0  0  0  0
  9 25  1  0  0  0  0
 11 12  1  0  0  0  0
 11 13  1  0  0  0  0
 11 14  1  0  0  0  0
 14 15  1  0  0  0  0
 14 23  2  0  0  0  0
 15 16  1  0  0  0  0
 15 17  2  0  0  0  0
 17 18  1  0  0  0  0
 17 19  1  0  0  0  0
 19 20  1  0  0  0  0
 19 21  2  0  0  0  0
 21 22  1  0  0  0  0
 21 23  1  0  0  0  0
 23 24  1  0  0  0  0
 25 26  2  0  0  0  0
 25 27  1  0  0  0  0
 27 28  1  0  0  0  0
 27 29  1  0  0  0  0
 29 30  1  0  0  0  0
 29 31  1  0  0  0  0
 29 32  1  0  0  0  0
M  END
$$$$

  -OEChem-03222214073D

 32 32  0     1  0  0  0  0  0999 V2000
   -3.2252   -4.4101    0.7986 H   0  0  0  0  0  0  0  0  0  0  0  0
   -3.1758   -3.4864    0.2147 C   0  0  0  0  0  0  0  0  0  0  0  0
   -3.9511   -2.8041    0.5710 H   0  0  0  0  0  0  0  0  0  0  0  0
   -3.3619   -3.7249   -0.8351 H   0  0  0  0  0  0  0  0  0  0  0  0
   -1.8088   -2.8458    0.3673 C   0  0  0  0  0  0  0  0  0  0  0  0
   -0.9608   -3.3854    1.0543 O   0  0  0  0  0  0  0  0  0  0  0  0
   -1.5333   -1.6596   -0.2849 N   0  0  0  0  0  0  0  0  0  0  0  0
   -2.2747   -1.2637   -0.8537 H   0  0  0  0  0  0  0  0  0  0  0  0
   -0.2541   -0.9301   -0.1796 C   0  0  1  0  0  0  0  0  0  0  0  0
    0.5378   -1.6319   -0.4655 H   0  0  0  0  0  0  0  0  0  0  0  0
   -0.2527    0.2031   -1.2417 C   0  0  0  0  0  0  0  0  0  0  0  0
    0.5930    0.0284   -1.9150 H   0  0  0  0  0  0  0  0  0  0  0  0
   -1.1527    0.1428   -1.8611 H   0  0  0  0  0  0  0  0  0  0  0  0
   -0.1183    1.6076   -0.6952 C   0  0  0  0  0  0  0  0  0  0  0  0
   -1.2344    2.4577   -0.6476 C   0  0  0  0  0  0  0  0  0  0  0  0
   -2.2023    2.1114   -0.9959 H   0  0  0  0  0  0  0  0  0  0  0  0
   -1.1155    3.7599   -0.1496 C   0  0  0  0  0  0  0  0  0  0  0  0
   -1.9843    4.4103   -0.1120 H   0  0  0  0  0  0  0  0  0  0  0  0
    0.1232    4.2266    0.2995 C   0  0  0  0  0  0  0  0  0  0  0  0
    0.2176    5.2357    0.6896 H   0  0  0  0  0  0  0  0  0  0  0  0
    1.2430    3.3920    0.2452 C   0  0  0  0  0  0  0  0  0  0  0  0
    2.2072    3.7481    0.5959 H   0  0  0  0  0  0  0  0  0  0  0  0
    1.1234    2.0920   -0.2553 C   0  0  0  0  0  0  0  0  0  0  0  0
    1.9987    1.4481   -0.2810 H   0  0  0  0  0  0  0  0  0  0  0  0
    0.1058   -0.4837    1.2590 C   0  0  0  0  0  0  0  0  0  0  0  0
    1.2706   -0.5297    1.6363 O   0  0  0  0  0  0  0  0  0  0  0  0
   -0.8479    0.0987    2.0757 N   0  0  0  0  0  0  0  0  0  0  0  0
   -1.7718    0.2315    1.6810 H   0  0  0  0  0  0  0  0  0  0  0  0
   -0.5315    0.7070    3.3606 C   0  0  0  0  0  0  0  0  0  0  0  0
    0.1523    1.5516    3.2247 H   0  0  0  0  0  0  0  0  0  0  0  0
   -1.4440    1.0722    3.8410 H   0  0  0  0  0  0  0  0  0  0  0  0
   -0.0612   -0.0253    4.0255 H   0  0  0  0  0  0  0  0  0  0  0  0
  1  2  1  0  0  0  0
  2  3  1  0  0  0  0
  2  4  1  0  0  0  0
  2  5  1  0  0  0  0
  5  6  2  0  0  0  0
  5  7  1  0  0  0  0
  7  8  1  0  0  0  0
  7  9  1  0  0  0  0
  9 10  1  0  0  0  0
  9 11  1  0  0  0  0
  9 25  1  0  0  0  0
 11 12  1  0  0  0  0
 11 13  1  0  0  0  0
 11 14  1  0  0  0  0
 14 15  1  0  0  0  0
 14 23  2  0  0  0  0
 15 16  1  0  0  0  0
 15 17  2  0  0  0  0
 17 18  1  0  0  0  0
 17 19  1  0  0  0  0
 19 20  1  0  0  0  0
 19 21  2  0  0  0  0
 21 22  1  0  0  0  0
 21 23  1  0  0  0  0
 23 24  1  0  0  0  0
 25 26  2  0  0  0  0
 25 27  1  0  0  0  0
 27 28  1  0  0  0  0
 27 29  1  0  0  0  0
 29 30  1  0  0  0  0
 29 31  1  0  0  0  0
 29 32  1  0  0  0  0
M  END
$$$$

  -OEChem-03222214073D

 32 32  0     1  0  0  0  0  0999 V2000
   -3.2060   -4.4303    0.8021 H   0  0  0  0  0  0  0  0  0  0  0  0
   -3.1675   -3.5086    0.2143 C   0  0  0  0  0  0  0  0  0  0  0  0
   -3.9609   -2.8404    0.5575 H   0  0  0  0  0  0  0  0  0  0  0  0
   -3.3354   -3.7557   -0.8367 H   0  0  0  0  0  0  0  0  0  0  0  0
   -1.8154   -2.8404    0.3804 C   0  0  0  0  0  0  0  0  0  0  0  0
   -0.9657   -3.3602    1.0807 O   0  0  0  0  0  0  0  0  0  0  0  0
   -1.5532   -1.6549   -0.2790 N   0  0  0  0  0  0  0  0  0  0  0  0
   -2.2888   -1.2844   -0.8721 H   0  0  0  0  0  0  0  0  0  0  0  0
   -0.2766   -0.9189   -0.1893 C   0  0  1  0  0  0  0  0  0  0  0  0
    0.5097   -1.6281   -0.4720 H   0  0  0  0  0  0  0  0  0  0  0  0
   -0.2620    0.2004   -1.2637 C   0  0  0  0  0  0  0  0  0  0  0  0
    0.5807    0.0107   -1.9367 H   0  0  0  0  0  0  0  0  0  0  0  0
   -1.1649    0.1461   -1.8797 H   0  0  0  0  0  0  0  0  0  0  0  0
   -0.1236    1.6052   -0.7215 C   0  0  0  0  0  0  0  0  0  0  0  0
   -1.2639    2.3546   -0.3914 C   0  0  0  0  0  0  0  0  0  0  0  0
   -2.2540    1.9377   -0.5437 H   0  0  0  0  0  0  0  0  0  0  0  0
   -1.1378    3.6449    0.1350 C   0  0  0  0  0  0  0  0  0  0  0  0
   -2.0236    4.2199    0.3872 H   0  0  0  0  0  0  0  0  0  0  0  0
    0.1308    4.1959    0.3388 C   0  0  0  0  0  0  0  0  0  0  0  0
    0.2320    5.1959    0.7501 H   0  0  0  0  0  0  0  0  0  0  0  0
    1.2719    3.4552    0.0172 C   0  0  0  0  0  0  0  0  0  0  0  0
    2.2594    3.8753    0.1839 H   0  0  0  0  0  0  0  0  0  0  0  0
    1.1448    2.1661   -0.5099 C   0  0  0  0  0  0  0  0  0  0  0  0
    2.0393    1.5919   -0.7353 H   0  0  0  0  0  0  0  0  0  0  0  0
    0.1095   -0.4592    1.2385 C   0  0  0  0  0  0  0  0  0  0  0  0
    1.2849   -0.4753    1.5839 O   0  0  0  0  0  0  0  0  0  0  0  0
   -0.8309    0.1262    2.0683 N   0  0  0  0  0  0  0  0  0  0  0  0
   -1.7722    0.2175    1.7048 H   0  0  0  0  0  0  0  0  0  0  0  0
   -0.4929    0.7629    3.3336 C   0  0  0  0  0  0  0  0  0  0  0  0
    0.1866    1.6051    3.1668 H   0  0  0  0  0  0  0  0  0  0  0  0
   -1.3971    1.1380    3.8220 H   0  0  0  0  0  0  0  0  0  0  0  0
   -0.0094    0.0457    4.0050 H   0  0  0  0  0  0  0  0  0  0  0  0
  1  2  1  0  0  0  0
  2  3  1  0  0  0  0
  2  4  1  0  0  0  0
  2  5  1  0  0  0  0
  5  6  2  0  0  0  0
  5  7  1  0  0  0  0
  7  8  1  0  0  0  0
  7  9  1  0  0  0  0
  9 10  1  0  0  0  0
  9 11  1  0  0  0  0
  9 25  1  0  0  0  0
 11 12  1  0  0  0  0
 11 13  1  0  0  0  0
 11 14  1  0  0  0  0
 14 15  1  0  0  0  0
 14 23  2  0  0  0  0
 15 16  1  0  0  0  0
 15 17  2  0  0  0  0
 17 18  1  0  0  0  0
 17 19  1  0  0  0  0
 19 20  1  0  0  0  0
 19 21  2  0  0  0  0
 21 22  1  0  0  0  0
 21 23  1  0  0  0  0
 23 24  1  0  0  0  0
 25 26  2  0  0  0  0
 25 27  1  0  0  0  0
 27 28  1  0  0  0  0
 27 29  1  0  0  0  0
 29 30  1  0  0  0  0
 29 31  1  0  0  0  0
 29 32  1  0  0  0  0
M  END
$$$$

  -OEChem-03222214073D

 32 32  0     1  0  0  0  0  0999 V2000
   -3.2015   -4.4498    0.7618 H   0  0  0  0  0  0  0  0  0  0  0  0
   -3.1667   -3.5209    0.1853 C   0  0  0  0  0  0  0  0  0  0  0  0
   -3.9763   -2.8687    0.5215 H   0  0  0  0  0  0  0  0  0  0  0  0
   -3.3120   -3.7577   -0.8716 H   0  0  0  0  0  0  0  0  0  0  0  0
   -1.8286   -2.8336    0.3843 C   0  0  0  0  0  0  0  0  0  0  0  0
   -0.9889   -3.3394    1.1064 O   0  0  0  0  0  0  0  0  0  0  0  0
   -1.5730   -1.6379   -0.2585 N   0  0  0  0  0  0  0  0  0  0  0  0
   -2.2934   -1.2877   -0.8823 H   0  0  0  0  0  0  0  0  0  0  0  0
   -0.2991   -0.8981   -0.1661 C   0  0  1  0  0  0  0  0  0  0  0  0
    0.4805   -1.6153   -0.4474 H   0  0  0  0  0  0  0  0  0  0  0  0
   -0.2600    0.2065   -1.2541 C   0  0  0  0  0  0  0  0  0  0  0  0
    0.5881   -0.0035   -1.9143 H   0  0  0  0  0  0  0  0  0  0  0  0
   -1.1565    0.1501   -1.8789 H   0  0  0  0  0  0  0  0  0  0  0  0
   -0.1266    1.6231   -0.7424 C   0  0  0  0  0  0  0  0  0  0  0  0
   -1.2244    2.2761   -0.1595 C   0  0  0  0  0  0  0  0  0  0  0  0
   -2.1847    1.7752   -0.0969 H   0  0  0  0  0  0  0  0  0  0  0  0
   -1.0956    3.5756    0.3420 C   0  0  0  0  0  0  0  0  0  0  0  0
   -1.9503    4.0751    0.7882 H   0  0  0  0  0  0  0  0  0  0  0  0
    0.1367    4.2317    0.2729 C   0  0  0  0  0  0  0  0  0  0  0  0
    0.2412    5.2391    0.6653 H   0  0  0  0  0  0  0  0  0  0  0  0
    1.2386    3.5863   -0.2957 C   0  0  0  0  0  0  0  0  0  0  0  0
    2.2005    4.0888   -0.3401 H   0  0  0  0  0  0  0  0  0  0  0  0
    1.1074    2.2876   -0.7984 C   0  0  0  0  0  0  0  0  0  0  0  0
    1.9768    1.7908   -1.2190 H   0  0  0  0  0  0  0  0  0  0  0  0
    0.1094   -0.4499    1.2589 C   0  0  0  0  0  0  0  0  0  0  0  0
    1.2928   -0.4517    1.5750 O   0  0  0  0  0  0  0  0  0  0  0  0
   -0.8137    0.1250    2.1151 N   0  0  0  0  0  0  0  0  0  0  0  0
   -1.7809    0.1362    1.8139 H   0  0  0  0  0  0  0  0  0  0  0  0
   -0.4594    0.7088    3.4015 C   0  0  0  0  0  0  0  0  0  0  0  0
    0.2445    1.5363    3.2636 H   0  0  0  0  0  0  0  0  0  0  0  0
   -1.3527    1.0947    3.9012 H   0  0  0  0  0  0  0  0  0  0  0  0
    0.0021   -0.0443    4.0488 H   0  0  0  0  0  0  0  0  0  0  0  0
  1  2  1  0  0  0  0
  2  3  1  0  0  0  0
  2  4  1  0  0  0  0
  2  5  1  0  0  0  0
  5  6  2  0  0  0  0
  5  7  1  0  0  0  0
  7  8  1  0  0  0  0
  7  9  1  0  0  0  0
  9 10  1  0  0  0  0
  9 11  1  0  0  0  0
  9 25  1  0  0  0  0
 11 12  1  0  0  0  0
 11 13  1  0  0  0  0
 11 14  1  0  0  0  0
 14 15  1  0  0  0  0
 14 23  2  0  0  0  0
 15 16  1  0  0  0  0
 15 17  2  0  0  0  0
 17 18  1  0  0  0  0
 17 19  1  0  0  0  0
 19 20  1  0  0  0  0
 19 21  2  0  0  0  0
 21 22  1  0  0  0  0
 21 23  1  0  0  0  0
 23 24  1  0  0  0  0
 25 26  2  0  0  0  0
 25 27  1  0  0  0  0
 27 28  1  0  0  0  0
 27 29  1  0  0  0  0
 29 30  1  0  0  0  0
 29 31  1  0  0  0  0
 29 32  1  0  0  0  0
M  END
$$$$

  -OEChem-03222214073D

 32 32  0     1  0  0  0  0  0999 V2000
   -3.1811   -4.4869    0.6982 H   0  0  0  0  0  0  0  0  0  0  0  0
   -3.1568   -3.5437    0.1447 C   0  0  0  0  0  0  0  0  0  0  0  0
   -3.9825   -2.9149    0.4858 H   0  0  0  0  0  0  0  0  0  0  0  0
   -3.2848   -3.7579   -0.9190 H   0  0  0  0  0  0  0  0  0  0  0  0
   -1.8343   -2.8366    0.3762 C   0  0  0  0  0  0  0  0  0  0  0  0
   -0.9948   -3.3443    1.0972 O   0  0  0  0  0  0  0  0  0  0  0  0
   -1.5937   -1.6188   -0.2302 N   0  0  0  0  0  0  0  0  0  0  0  0
   -2.3127   -1.2664   -0.8545 H   0  0  0  0  0  0  0  0  0  0  0  0
   -0.3257   -0.8704   -0.1244 C   0  0  1  0  0  0  0  0  0  0  0  0
    0.4489   -1.5927   -0.4077 H   0  0  0  0  0  0  0  0  0  0  0  0
   -0.2545    0.2271   -1.2204 C   0  0  0  0  0  0  0  0  0  0  0  0
    0.6066   -0.0036   -1.8561 H   0  0  0  0  0  0  0  0  0  0  0  0
   -1.1369    0.1605   -1.8635 H   0  0  0  0  0  0  0  0  0  0  0  0
   -0.1307    1.6641   -0.7561 C   0  0  0  0  0  0  0  0  0  0  0  0
   -1.1158    2.2566    0.0505 C   0  0  0  0  0  0  0  0  0  0  0  0
   -2.0024    1.6961    0.3262 H   0  0  0  0  0  0  0  0  0  0  0  0
   -0.9767    3.5740    0.4996 C   0  0  0  0  0  0  0  0  0  0  0  0
   -1.7454    4.0211    1.1226 H   0  0  0  0  0  0  0  0  0  0  0  0
    0.1546    4.3154    0.1495 C   0  0  0  0  0  0  0  0  0  0  0  0
    0.2674    5.3368    0.5007 H   0  0  0  0  0  0  0  0  0  0  0  0
    1.1451    3.7365   -0.6485 C   0  0  0  0  0  0  0  0  0  0  0  0
    2.0307    4.3061   -0.9143 H   0  0  0  0  0  0  0  0  0  0  0  0
    1.0032    2.4188   -1.0963 C   0  0  0  0  0  0  0  0  0  0  0  0
    1.7911    1.9810   -1.7020 H   0  0  0  0  0  0  0  0  0  0  0  0
    0.0988   -0.4593    1.3070 C   0  0  0  0  0  0  0  0  0  0  0  0
    1.2876   -0.4456    1.6005 O   0  0  0  0  0  0  0  0  0  0  0  0
   -0.8145    0.0820    2.1949 N   0  0  0  0  0  0  0  0  0  0  0  0
   -1.7943    0.0085    1.9473 H   0  0  0  0  0  0  0  0  0  0  0  0
   -0.4489    0.5827    3.5131 C   0  0  0  0  0  0  0  0  0  0  0  0
    0.2746    1.4000    3.4231 H   0  0  0  0  0  0  0  0  0  0  0  0
   -1.3339    0.9614    4.0329 H   0  0  0  0  0  0  0  0  0  0  0  0
   -0.0062   -0.2163    4.1171 H   0  0  0  0  0  0  0  0  0  0  0  0
  1  2  1  0  0  0  0
  2  3  1  0  0  0  0
  2  4  1  0  0  0  0
  2  5  1  0  0  0  0
  5  6  2  0  0  0  0
  5  7  1  0  0  0  0
  7  8  1  0  0  0  0
  7  9  1  0  0  0  0
  9 10  1  0  0  0  0
  9 11  1  0  0  0  0
  9 25  1  0  0  0  0
 11 12  1  0  0  0  0
 11 13  1  0  0  0  0
 11 14  1  0  0  0  0
 14 15  1  0  0  0  0
 14 23  2  0  0  0  0
 15 16  1  0  0  0  0
 15 17  2  0  0  0  0
 17 18  1  0  0  0  0
 17 19  1  0  0  0  0
 19 20  1  0  0  0  0
 19 21  2  0  0  0  0
 21 22  1  0  0  0  0
 21 23  1  0  0  0  0
 23 24  1  0  0  0  0
 25 26  2  0  0  0  0
 25 27  1  0  0  0  0
 27 28  1  0  0  0  0
 27 29  1  0  0  0  0
 29 30  1  0  0  0  0
 29 31  1  0  0  0  0
 29 32  1  0  0  0  0
M  END
$$$$

  -OEChem-03222214073D

 32 32  0     1  0  0  0  0  0999 V2000
   -3.1556   -4.5319    0.5964 H   0  0  0  0  0  0  0  0  0  0  0  0
   -3.1449   -3.5673    0.0805 C   0  0  0  0  0  0  0  0  0  0  0  0
   -3.9841   -2.9671    0.4406 H   0  0  0  0  0  0  0  0  0  0  0  0
   -3.2625   -3.7416   -0.9917 H   0  0  0  0  0  0  0  0  0  0  0  0
   -1.8363   -2.8474    0.3482 C   0  0  0  0  0  0  0  0  0  0  0  0
   -0.9907   -3.3695    1.0516 O   0  0  0  0  0  0  0  0  0  0  0  0
   -1.6164   -1.5985   -0.2000 N   0  0  0  0  0  0  0  0  0  0  0  0
   -2.3434   -1.2272   -0.8043 H   0  0  0  0  0  0  0  0  0  0  0  0
   -0.3585   -0.8371   -0.0680 C   0  0  1  0  0  0  0  0  0  0  0  0
    0.4119   -1.5612   -0.3587 H   0  0  0  0  0  0  0  0  0  0  0  0
   -0.2505    0.2572   -1.1674 C   0  0  0  0  0  0  0  0  0  0  0  0
    0.6348    0.0135   -1.7640 H   0  0  0  0  0  0  0  0  0  0  0  0
   -1.1077    0.1712   -1.8415 H   0  0  0  0  0  0  0  0  0  0  0  0
   -0.1443    1.7163   -0.7593 C   0  0  0  0  0  0  0  0  0  0  0  0
   -0.9636    2.2884    0.2279 C   0  0  0  0  0  0  0  0  0  0  0  0
   -1.7526    1.7080    0.6899 H   0  0  0  0  0  0  0  0  0  0  0  0
   -0.8093    3.6262    0.6066 C   0  0  0  0  0  0  0  0  0  0  0  0
   -1.4531    4.0527    1.3698 H   0  0  0  0  0  0  0  0  0  0  0  0
    0.1718    4.4150    0.0022 C   0  0  0  0  0  0  0  0  0  0  0  0
    0.2957    5.4526    0.2974 H   0  0  0  0  0  0  0  0  0  0  0  0
    0.9947    3.8636   -0.9821 C   0  0  0  0  0  0  0  0  0  0  0  0
    1.7632    4.4716   -1.4506 H   0  0  0  0  0  0  0  0  0  0  0  0
    0.8370    2.5251   -1.3576 C   0  0  0  0  0  0  0  0  0  0  0  0
    1.4974    2.1142   -2.1155 H   0  0  0  0  0  0  0  0  0  0  0  0
    0.0844   -0.4817    1.3727 C   0  0  0  0  0  0  0  0  0  0  0  0
    1.2787   -0.4491    1.6403 O   0  0  0  0  0  0  0  0  0  0  0  0
   -0.8169    0.0069    2.3025 N   0  0  0  0  0  0  0  0  0  0  0  0
   -1.8001   -0.1259    2.0942 H   0  0  0  0  0  0  0  0  0  0  0  0
   -0.4288    0.4246    3.6434 C   0  0  0  0  0  0  0  0  0  0  0  0
    0.2909    1.2487    3.5930 H   0  0  0  0  0  0  0  0  0  0  0  0
   -1.3054    0.7668    4.2013 H   0  0  0  0  0  0  0  0  0  0  0  0
    0.0269   -0.4094    4.1874 H   0  0  0  0  0  0  0  0  0  0  0  0
  1  2  1  0  0  0  0
  2  3  1  0  0  0  0
  2  4  1  0  0  0  0
  2  5  1  0  0  0  0
  5  6  2  0  0  0  0
  5  7  1  0  0  0  0
  7  8  1  0  0  0  0
  7  9  1  0  0  0  0
  9 10  1  0  0  0  0
  9 11  1  0  0  0  0
  9 25  1  0  0  0  0
 11 12  1  0  0  0  0
 11 13  1  0  0  0  0
 11 14  1  0  0  0  0
 14 15  1  0  0  0  0
 14 23  2  0  0  0  0
 15 16  1  0  0  0  0
 15 17  2  0  0  0  0
 17 18  1  0  0  0  0
 17 19  1  0  0  0  0
 19 20  1  0  0  0  0
 19 21  2  0  0  0  0
 21 22  1  0  0  0  0
 21 23  1  0  0  0  0
 23 24  1  0  0  0  0
 25 26  2  0  0  0  0
 25 27  1  0  0  0  0
 27 28  1  0  0  0  0
 27 29  1  0  0  0  0
 29 30  1  0  0  0  0
 29 31  1  0  0  0  0
 29 32  1  0  0  0  0
M  END
$$$$

  -OEChem-03222214073D

 32 32  0     1  0  0  0  0  0999 V2000
   -3.1580   -4.5520    0.4462 H   0  0  0  0  0  0  0  0  0  0  0  0
   -3.1492   -3.5609   -0.0165 C   0  0  0  0  0  0  0  0  0  0  0  0
   -3.9948   -2.9861    0.3686 H   0  0  0  0  0  0  0  0  0  0  0  0
   -3.2573   -3.6776   -1.0975 H   0  0  0  0  0  0  0  0  0  0  0  0
   -1.8475   -2.8481    0.3005 C   0  0  0  0  0  0  0  0  0  0  0  0
   -1.0051   -3.4002    0.9846 O   0  0  0  0  0  0  0  0  0  0  0  0
   -1.6324   -1.5701   -0.1781 N   0  0  0  0  0  0  0  0  0  0  0  0
   -2.3631   -1.1677   -0.7577 H   0  0  0  0  0  0  0  0  0  0  0  0
   -0.3816   -0.8064   -0.0011 C   0  0  1  0  0  0  0  0  0  0  0  0
    0.3869   -1.5305   -0.2979 H   0  0  0  0  0  0  0  0  0  0  0  0
   -0.2318    0.2957   -1.0913 C   0  0  0  0  0  0  0  0  0  0  0  0
    0.6804    0.0454   -1.6441 H   0  0  0  0  0  0  0  0  0  0  0  0
   -1.0572    0.1953   -1.8022 H   0  0  0  0  0  0  0  0  0  0  0  0
   -0.1348    1.7730   -0.7372 C   0  0  0  0  0  0  0  0  0  0  0  0
   -0.7399    2.3649    0.3846 C   0  0  0  0  0  0  0  0  0  0  0  0
   -1.4002    1.8015    1.0261 H   0  0  0  0  0  0  0  0  0  0  0  0
   -0.5613    3.7224    0.6723 C   0  0  0  0  0  0  0  0  0  0  0  0
   -1.0406    4.1593    1.5432 H   0  0  0  0  0  0  0  0  0  0  0  0
    0.2271    4.5176   -0.1610 C   0  0  0  0  0  0  0  0  0  0  0  0
    0.3692    5.5707    0.0633 H   0  0  0  0  0  0  0  0  0  0  0  0
    0.8301    3.9521   -1.2855 C   0  0  0  0  0  0  0  0  0  0  0  0
    1.4453    4.5649   -1.9376 H   0  0  0  0  0  0  0  0  0  0  0  0
    0.6501    2.5938   -1.5671 C   0  0  0  0  0  0  0  0  0  0  0  0
    1.1408    2.1747   -2.4405 H   0  0  0  0  0  0  0  0  0  0  0  0
    0.0549   -0.5240    1.4572 C   0  0  0  0  0  0  0  0  0  0  0  0
    1.2482   -0.4850    1.7270 O   0  0  0  0  0  0  0  0  0  0  0  0
   -0.8512   -0.0939    2.4110 N   0  0  0  0  0  0  0  0  0  0  0  0
   -1.8322   -0.2368    2.1969 H   0  0  0  0  0  0  0  0  0  0  0  0
   -0.4693    0.2267    3.7804 C   0  0  0  0  0  0  0  0  0  0  0  0
    0.2340    1.0661    3.7938 H   0  0  0  0  0  0  0  0  0  0  0  0
   -1.3514    0.5067    4.3637 H   0  0  0  0  0  0  0  0  0  0  0  0
    0.0038   -0.6375    4.2584 H   0  0  0  0  0  0  0  0  0  0  0  0
  1  2  1  0  0  0  0
  2  3  1  0  0  0  0
  2  4  1  0  0  0  0
  2  5  1  0  0  0  0
  5  6  2  0  0  0  0
  5  7  1  0  0  0  0
  7  8  1  0  0  0  0
  7  9  1  0  0  0  0
  9 10  1  0  0  0  0
  9 11  1  0  0  0  0
  9 25  1  0  0  0  0
 11 12  1  0  0  0  0
 11 13  1  0  0  0  0
 11 14  1  0  0  0  0
 14 15  1  0  0  0  0
 14 23  2  0  0  0  0
 15 16  1  0  0  0  0
 15 17  2  0  0  0  0
 17 18  1  0  0  0  0
 17 19  1  0  0  0  0
 19 20  1  0  0  0  0
 19 21  2  0  0  0  0
 21 22  1  0  0  0  0
 21 23  1  0  0  0  0
 23 24  1  0  0  0  0
 25 26  2  0  0  0  0
 25 27  1  0  0  0  0
 27 28  1  0  0  0  0
 27 29  1  0  0  0  0
 29 30  1  0  0  0  0
 29 31  1  0  0  0  0
 29 32  1  0  0  0  0
M  END
$$$$

  -OEChem-03222214073D

 32 32  0     1  0  0  0  0  0999 V2000
   -3.2321   -4.4863    0.4354 H   0  0  0  0  0  0  0  0  0  0  0  0
   -3.2127   -3.4835   -0.0012 C   0  0  0  0  0  0  0  0  0  0  0  0
   -4.0164   -2.8917    0.4432 H   0  0  0  0  0  0  0  0  0  0  0  0
   -3.3807   -3.5660   -1.0776 H   0  0  0  0  0  0  0  0  0  0  0  0
   -1.8718   -2.8248    0.2644 C   0  0  0  0  0  0  0  0  0  0  0  0
   -1.0010   -3.4398    0.8526 O   0  0  0  0  0  0  0  0  0  0  0  0
   -1.6506   -1.5273   -0.1565 N   0  0  0  0  0  0  0  0  0  0  0  0
   -2.4097   -1.0698   -0.6527 H   0  0  0  0  0  0  0  0  0  0  0  0
   -0.3759   -0.7970   -0.0017 C   0  0  1  0  0  0  0  0  0  0  0  0
    0.3722   -1.5081   -0.3729 H   0  0  0  0  0  0  0  0  0  0  0  0
   -0.2786    0.3664   -1.0371 C   0  0  0  0  0  0  0  0  0  0  0  0
    0.5973    0.1279   -1.6503 H   0  0  0  0  0  0  0  0  0  0  0  0
   -1.1449    0.2943   -1.7018 H   0  0  0  0  0  0  0  0  0  0  0  0
   -0.1355    1.8452   -0.6876 C   0  0  0  0  0  0  0  0  0  0  0  0
   -0.3597    2.4430    0.5658 C   0  0  0  0  0  0  0  0  0  0  0  0
   -0.7023    1.8861    1.4189 H   0  0  0  0  0  0  0  0  0  0  0  0
   -0.1721    3.8161    0.7600 C   0  0  0  0  0  0  0  0  0  0  0  0
   -0.3470    4.2517    1.7392 H   0  0  0  0  0  0  0  0  0  0  0  0
    0.2386    4.6274   -0.2979 C   0  0  0  0  0  0  0  0  0  0  0  0
    0.3866    5.6923   -0.1442 H   0  0  0  0  0  0  0  0  0  0  0  0
    0.4578    4.0603   -1.5529 C   0  0  0  0  0  0  0  0  0  0  0  0
    0.7777    4.6835   -2.3827 H   0  0  0  0  0  0  0  0  0  0  0  0
    0.2718    2.6870   -1.7399 C   0  0  0  0  0  0  0  0  0  0  0  0
    0.4558    2.2698   -2.7256 H   0  0  0  0  0  0  0  0  0  0  0  0
    0.0957   -0.6239    1.4610 C   0  0  0  0  0  0  0  0  0  0  0  0
    1.2931   -0.6222    1.7137 O   0  0  0  0  0  0  0  0  0  0  0  0
   -0.7914   -0.2421    2.4537 N   0  0  0  0  0  0  0  0  0  0  0  0
   -1.7774   -0.3447    2.2377 H   0  0  0  0  0  0  0  0  0  0  0  0
   -0.3925   -0.0649    3.8445 C   0  0  0  0  0  0  0  0  0  0  0  0
    0.3921    0.6950    3.9242 H   0  0  0  0  0  0  0  0  0  0  0  0
   -1.2471    0.2594    4.4459 H   0  0  0  0  0  0  0  0  0  0  0  0
   -0.0138   -1.0066    4.2558 H   0  0  0  0  0  0  0  0  0  0  0  0
  1  2  1  0  0  0  0
  2  3  1  0  0  0  0
  2  4  1  0  0  0  0
  2  5  1  0  0  0  0
  5  6  2  0  0  0  0
  5  7  1  0  0  0  0
  7  8  1  0  0  0  0
  7  9  1  0  0  0  0
  9 10  1  0  0  0  0
  9 11  1  0  0  0  0
  9 25  1  0  0  0  0
 11 12  1  0  0  0  0
 11 13  1  0  0  0  0
 11 14  1  0  0  0  0
 14 15  1  0  0  0  0
 14 23  2  0  0  0  0
 15 16  1  0  0  0  0
 15 17  2  0  0  0  0
 17 18  1  0  0  0  0
 17 19  1  0  0  0  0
 19 20  1  0  0  0  0
 19 21  2  0  0  0  0
 21 22  1  0  0  0  0
 21 23  1  0  0  0  0
 23 24  1  0  0  0  0
 25 26  2  0  0  0  0
 25 27  1  0  0  0  0
 27 28  1  0  0  0  0
 27 29  1  0  0  0  0
 29 30  1  0  0  0  0
 29 31  1  0  0  0  0
 29 32  1  0  0  0  0
M  END
$$$$

  -OEChem-03222214073D

 32 32  0     1  0  0  0  0  0999 V2000
   -3.3091   -4.3746    0.5452 H   0  0  0  0  0  0  0  0  0  0  0  0
   -3.2384   -3.4020    0.0498 C   0  0  0  0  0  0  0  0  0  0  0  0
   -3.9994   -2.7395    0.4688 H   0  0  0  0  0  0  0  0  0  0  0  0
   -3.4279   -3.5368   -1.0178 H   0  0  0  0  0  0  0  0  0  0  0  0
   -1.8578   -2.8087    0.2600 C   0  0  0  0  0  0  0  0  0  0  0  0
   -0.9998   -3.4590    0.8287 O   0  0  0  0  0  0  0  0  0  0  0  0
   -1.5852   -1.5318   -0.1927 N   0  0  0  0  0  0  0  0  0  0  0  0
   -2.3397   -1.0396   -0.6619 H   0  0  0  0  0  0  0  0  0  0  0  0
   -0.2859   -0.8433   -0.0405 C   0  0  1  0  0  0  0  0  0  0  0  0
    0.4645   -1.5471   -0.4196 H   0  0  0  0  0  0  0  0  0  0  0  0
   -0.2268    0.3614   -1.0335 C   0  0  0  0  0  0  0  0  0  0  0  0
    0.6165    0.1400   -1.6966 H   0  0  0  0  0  0  0  0  0  0  0  0
   -1.1238    0.3144   -1.6588 H   0  0  0  0  0  0  0  0  0  0  0  0
   -0.0511    1.8344   -0.6612 C   0  0  0  0  0  0  0  0  0  0  0  0
    0.0926    2.3958    0.6243 C   0  0  0  0  0  0  0  0  0  0  0  0
    0.1552    1.8097    1.5250 H   0  0  0  0  0  0  0  0  0  0  0  0
    0.2092    3.7789    0.8040 C   0  0  0  0  0  0  0  0  0  0  0  0
    0.3288    4.1831    1.8049 H   0  0  0  0  0  0  0  0  0  0  0  0
    0.1863    4.6383   -0.2938 C   0  0  0  0  0  0  0  0  0  0  0  0
    0.2808    5.7107   -0.1506 H   0  0  0  0  0  0  0  0  0  0  0  0
    0.0502    4.1090   -1.5759 C   0  0  0  0  0  0  0  0  0  0  0  0
    0.0375    4.7701   -2.4373 H   0  0  0  0  0  0  0  0  0  0  0  0
   -0.0669    2.7267   -1.7507 C   0  0  0  0  0  0  0  0  0  0  0  0
   -0.1725    2.3427   -2.7611 H   0  0  0  0  0  0  0  0  0  0  0  0
    0.1205   -0.6759    1.4396 C   0  0  0  0  0  0  0  0  0  0  0  0
    1.2999   -0.7322    1.7612 O   0  0  0  0  0  0  0  0  0  0  0  0
   -0.8090   -0.2493    2.3749 N   0  0  0  0  0  0  0  0  0  0  0  0
   -1.7813   -0.2711    2.0865 H   0  0  0  0  0  0  0  0  0  0  0  0
   -0.5002   -0.1127    3.7930 C   0  0  0  0  0  0  0  0  0  0  0  0
    0.3496    0.5622    3.9400 H   0  0  0  0  0  0  0  0  0  0  0  0
   -1.3608    0.2981    4.3293 H   0  0  0  0  0  0  0  0  0  0  0  0
   -0.2533   -1.0885    4.2242 H   0  0  0  0  0  0  0  0  0  0  0  0
  1  2  1  0  0  0  0
  2  3  1  0  0  0  0
  2  4  1  0  0  0  0
  2  5  1  0  0  0  0
  5  6  2  0  0  0  0
  5  7  1  0  0  0  0
  7  8  1  0  0  0  0
  7  9  1  0  0  0  0
  9 10  1  0  0  0  0
  9 11  1  0  0  0  0
  9 25  1  0  0  0  0
 11 12  1  0  0  0  0
 11 13  1  0  0  0  0
 11 14  1  0  0  0  0
 14 15  1  0  0  0  0
 14 23  2  0  0  0  0
 15 16  1  0  0  0  0
 15 17  2  0  0  0  0
 17 18  1  0  0  0  0
 17 19  1  0  0  0  0
 19 20  1  0  0  0  0
 19 21  2  0  0  0  0
 21 22  1  0  0  0  0
 21 23  1  0  0  0  0
 23 24  1  0  0  0  0
 25 26  2  0  0  0  0
 25 27  1  0  0  0  0
 27 28  1  0  0  0  0
 27 29  1  0  0  0  0
 29 30  1  0  0  0  0
 29 31  1  0  0  0  0
 29 32  1  0  0  0  0
M  END
$$$$

  -OEChem-03222214073D

 32 32  0     1  0  0  0  0  0999 V2000
   -3.3738   -4.3083    0.6361 H   0  0  0  0  0  0  0  0  0  0  0  0
   -3.2730   -3.3560    0.1075 C   0  0  0  0  0  0  0  0  0  0  0  0
   -4.0081   -2.6538    0.5078 H   0  0  0  0  0  0  0  0  0  0  0  0
   -3.4742   -3.5199   -0.9539 H   0  0  0  0  0  0  0  0  0  0  0  0
   -1.8714   -2.8046    0.2908 C   0  0  0  0  0  0  0  0  0  0  0  0
   -1.0347   -3.4629    0.8812 O   0  0  0  0  0  0  0  0  0  0  0  0
   -1.5541   -1.5595   -0.2180 N   0  0  0  0  0  0  0  0  0  0  0  0
   -2.2942   -1.0588   -0.7004 H   0  0  0  0  0  0  0  0  0  0  0  0
   -0.2389   -0.8995   -0.0687 C   0  0  1  0  0  0  0  0  0  0  0  0
    0.5130   -1.6128   -0.4263 H   0  0  0  0  0  0  0  0  0  0  0  0
   -0.1958    0.3022   -1.0676 C   0  0  0  0  0  0  0  0  0  0  0  0
    0.6361    0.0834   -1.7451 H   0  0  0  0  0  0  0  0  0  0  0  0
   -1.1017    0.2549   -1.6801 H   0  0  0  0  0  0  0  0  0  0  0  0
   -0.0064    1.7724   -0.6828 C   0  0  0  0  0  0  0  0  0  0  0  0
    0.4495    2.2919    0.5481 C   0  0  0  0  0  0  0  0  0  0  0  0
    0.8066    1.6735    1.3577 H   0  0  0  0  0  0  0  0  0  0  0  0
    0.5242    3.6715    0.7710 C   0  0  0  0  0  0  0  0  0  0  0  0
    0.8879    4.0435    1.7244 H   0  0  0  0  0  0  0  0  0  0  0  0
    0.1495    4.5696   -0.2279 C   0  0  0  0  0  0  0  0  0  0  0  0
    0.2120    5.6398   -0.0532 H   0  0  0  0  0  0  0  0  0  0  0  0
   -0.2935    4.0833   -1.4567 C   0  0  0  0  0  0  0  0  0  0  0  0
   -0.5793    4.7756   -2.2431 H   0  0  0  0  0  0  0  0  0  0  0  0
   -0.3671    2.7044   -1.6755 C   0  0  0  0  0  0  0  0  0  0  0  0
   -0.7158    2.3568   -2.6434 H   0  0  0  0  0  0  0  0  0  0  0  0
    0.1313   -0.6731    1.4112 C   0  0  0  0  0  0  0  0  0  0  0  0
    1.2914   -0.8012    1.7814 O   0  0  0  0  0  0  0  0  0  0  0  0
   -0.8071   -0.1742    2.2988 N   0  0  0  0  0  0  0  0  0  0  0  0
   -1.7617   -0.1000    1.9644 H   0  0  0  0  0  0  0  0  0  0  0  0
   -0.5295    0.0506    3.7114 C   0  0  0  0  0  0  0  0  0  0  0  0
    0.2871    0.7700    3.8325 H   0  0  0  0  0  0  0  0  0  0  0  0
   -1.4166    0.4489    4.2126 H   0  0  0  0  0  0  0  0  0  0  0  0
   -0.2468   -0.8887    4.1985 H   0  0  0  0  0  0  0  0  0  0  0  0
  1  2  1  0  0  0  0
  2  3  1  0  0  0  0
  2  4  1  0  0  0  0
  2  5  1  0  0  0  0
  5  6  2  0  0  0  0
  5  7  1  0  0  0  0
  7  8  1  0  0  0  0
  7  9  1  0  0  0  0
  9 10  1  0  0  0  0
  9 11  1  0  0  0  0
  9 25  1  0  0  0  0
 11 12  1  0  0  0  0
 11 13  1  0  0  0  0
 11 14  1  0  0  0  0
 14 15  1  0  0  0  0
 14 23  2  0  0  0  0
 15 16  1  0  0  0  0
 15 17  2  0  0  0  0
 17 18  1  0  0  0  0
 17 19  1  0  0  0  0
 19 20  1  0  0  0  0
 19 21  2  0  0  0  0
 21 22  1  0  0  0  0
 21 23  1  0  0  0  0
 23 24  1  0  0  0  0
 25 26  2  0  0  0  0
 25 27  1  0  0  0  0
 27 28  1  0  0  0  0
 27 29  1  0  0  0  0
 29 30  1  0  0  0  0
 29 31  1  0  0  0  0
 29 32  1  0  0  0  0
M  END
$$$$

  -OEChem-03222214073D

 32 32  0     1  0  0  0  0  0999 V2000
   -3.3615   -4.2936    0.7176 H   0  0  0  0  0  0  0  0  0  0  0  0
   -3.2644   -3.3457    0.1805 C   0  0  0  0  0  0  0  0  0  0  0  0
   -3.9819   -2.6331    0.5943 H   0  0  0  0  0  0  0  0  0  0  0  0
   -3.4932   -3.5145   -0.8745 H   0  0  0  0  0  0  0  0  0  0  0  0
   -1.8534   -2.8074    0.3256 C   0  0  0  0  0  0  0  0  0  0  0  0
   -1.0191   -3.4552    0.9309 O   0  0  0  0  0  0  0  0  0  0  0  0
   -1.5227   -1.5935   -0.2463 N   0  0  0  0  0  0  0  0  0  0  0  0
   -2.2641   -1.0999   -0.7333 H   0  0  0  0  0  0  0  0  0  0  0  0
   -0.2047   -0.9360   -0.1135 C   0  0  1  0  0  0  0  0  0  0  0  0
    0.5566   -1.6520   -0.4438 H   0  0  0  0  0  0  0  0  0  0  0  0
   -0.1870    0.2459   -1.1374 C   0  0  0  0  0  0  0  0  0  0  0  0
    0.6424    0.0327   -1.8198 H   0  0  0  0  0  0  0  0  0  0  0  0
   -1.0949    0.1845   -1.7457 H   0  0  0  0  0  0  0  0  0  0  0  0
   -0.0001    1.7093   -0.7330 C   0  0  0  0  0  0  0  0  0  0  0  0
    0.7380    2.1752    0.3742 C   0  0  0  0  0  0  0  0  0  0  0  0
    1.3363    1.5160    0.9893 H   0  0  0  0  0  0  0  0  0  0  0  0
    0.7905    3.5362    0.6919 C   0  0  0  0  0  0  0  0  0  0  0  0
    1.3765    3.8671    1.5445 H   0  0  0  0  0  0  0  0  0  0  0  0
    0.1072    4.4678   -0.0895 C   0  0  0  0  0  0  0  0  0  0  0  0
    0.1508    5.5244    0.1584 H   0  0  0  0  0  0  0  0  0  0  0  0
   -0.6205    4.0345   -1.1974 C   0  0  0  0  0  0  0  0  0  0  0  0
   -1.1474    4.7557   -1.8154 H   0  0  0  0  0  0  0  0  0  0  0  0
   -0.6705    2.6726   -1.5117 C   0  0  0  0  0  0  0  0  0  0  0  0
   -1.2485    2.3674   -2.3786 H   0  0  0  0  0  0  0  0  0  0  0  0
    0.1368   -0.6364    1.3629 C   0  0  0  0  0  0  0  0  0  0  0  0
    1.2736   -0.8184    1.7808 O   0  0  0  0  0  0  0  0  0  0  0  0
   -0.8121   -0.0847    2.2060 N   0  0  0  0  0  0  0  0  0  0  0  0
   -1.7308    0.0943    1.8160 H   0  0  0  0  0  0  0  0  0  0  0  0
   -0.5447    0.2695    3.5936 C   0  0  0  0  0  0  0  0  0  0  0  0
    0.2214    1.0497    3.6476 H   0  0  0  0  0  0  0  0  0  0  0  0
   -1.4551    0.6440    4.0710 H   0  0  0  0  0  0  0  0  0  0  0  0
   -0.1970   -0.6064    4.1516 H   0  0  0  0  0  0  0  0  0  0  0  0
  1  2  1  0  0  0  0
  2  3  1  0  0  0  0
  2  4  1  0  0  0  0
  2  5  1  0  0  0  0
  5  6  2  0  0  0  0
  5  7  1  0  0  0  0
  7  8  1  0  0  0  0
  7  9  1  0  0  0  0
  9 10  1  0  0  0  0
  9 11  1  0  0  0  0
  9 25  1  0  0  0  0
 11 12  1  0  0  0  0
 11 13  1  0  0  0  0
 11 14  1  0  0  0  0
 14 15  1  0  0  0  0
 14 23  2  0  0  0  0
 15 16  1  0  0  0  0
 15 17  2  0  0  0  0
 17 18  1  0  0  0  0
 17 19  1  0  0  0  0
 19 20  1  0  0  0  0
 19 21  2  0  0  0  0
 21 22  1  0  0  0  0
 21 23  1  0  0  0  0
 23 24  1  0  0  0  0
 25 26  2  0  0  0  0
 25 27  1  0  0  0  0
 27 28  1  0  0  0  0
 27 29  1  0  0  0  0
 29 30  1  0  0  0  0
 29 31  1  0  0  0  0
 29 32  1  0  0  0  0
M  END
$$$$

  -OEChem-03222214073D

 32 32  0     1  0  0  0  0  0999 V2000
   -3.3231   -4.2942    0.8086 H   0  0  0  0  0  0  0  0  0  0  0  0
   -3.2320   -3.3705    0.2300 C   0  0  0  0  0  0  0  0  0  0  0  0
   -3.9534   -2.6446    0.6122 H   0  0  0  0  0  0  0  0  0  0  0  0
   -3.4606   -3.5878   -0.8161 H   0  0  0  0  0  0  0  0  0  0  0  0
   -1.8242   -2.8171    0.3493 C   0  0  0  0  0  0  0  0  0  0  0  0
   -0.9829   -3.4351    0.9759 O   0  0  0  0  0  0  0  0  0  0  0  0
   -1.5037   -1.6258   -0.2736 N   0  0  0  0  0  0  0  0  0  0  0  0
   -2.2521   -1.1538   -0.7710 H   0  0  0  0  0  0  0  0  0  0  0  0
   -0.1965   -0.9458   -0.1543 C   0  0  1  0  0  0  0  0  0  0  0  0
    0.5804   -1.6578   -0.4561 H   0  0  0  0  0  0  0  0  0  0  0  0
   -0.1976    0.2095   -1.2047 C   0  0  0  0  0  0  0  0  0  0  0  0
    0.6384    0.0084   -1.8824 H   0  0  0  0  0  0  0  0  0  0  0  0
   -1.1010    0.1347   -1.8179 H   0  0  0  0  0  0  0  0  0  0  0  0
   -0.0309    1.6596   -0.7664 C   0  0  0  0  0  0  0  0  0  0  0  0
    0.9342    2.0908    0.1629 C   0  0  0  0  0  0  0  0  0  0  0  0
    1.6771    1.4055    0.5578 H   0  0  0  0  0  0  0  0  0  0  0  0
    0.9980    3.4268    0.5708 C   0  0  0  0  0  0  0  0  0  0  0  0
    1.7563    3.7358    1.2844 H   0  0  0  0  0  0  0  0  0  0  0  0
    0.0975    4.3610    0.0563 C   0  0  0  0  0  0  0  0  0  0  0  0
    0.1495    5.3988    0.3725 H   0  0  0  0  0  0  0  0  0  0  0  0
   -0.8631    3.9559   -0.8721 C   0  0  0  0  0  0  0  0  0  0  0  0
   -1.5621    4.6805   -1.2791 H   0  0  0  0  0  0  0  0  0  0  0  0
   -0.9250    2.6182   -1.2772 C   0  0  0  0  0  0  0  0  0  0  0  0
   -1.6847    2.3308   -1.9974 H   0  0  0  0  0  0  0  0  0  0  0  0
    0.1301   -0.5718    1.3110 C   0  0  0  0  0  0  0  0  0  0  0  0
    1.2625   -0.7328    1.7495 O   0  0  0  0  0  0  0  0  0  0  0  0
   -0.8316    0.0078    2.1203 N   0  0  0  0  0  0  0  0  0  0  0  0
   -1.7270    0.2175    1.6937 H   0  0  0  0  0  0  0  0  0  0  0  0
   -0.5592    0.4839    3.4699 C   0  0  0  0  0  0  0  0  0  0  0  0
    0.1759    1.2952    3.4472 H   0  0  0  0  0  0  0  0  0  0  0  0
   -1.4775    0.8592    3.9314 H   0  0  0  0  0  0  0  0  0  0  0  0
   -0.1686   -0.3289    4.0914 H   0  0  0  0  0  0  0  0  0  0  0  0
  1  2  1  0  0  0  0
  2  3  1  0  0  0  0
  2  4  1  0  0  0  0
  2  5  1  0  0  0  0
  5  6  2  0  0  0  0
  5  7  1  0  0  0  0
  7  8  1  0  0  0  0
  7  9  1  0  0  0  0
  9 10  1  0  0  0  0
  9 11  1  0  0  0  0
  9 25  1  0  0  0  0
 11 12  1  0  0  0  0
 11 13  1  0  0  0  0
 11 14  1  0  0  0  0
 14 15  1  0  0  0  0
 14 23  2  0  0  0  0
 15 16  1  0  0  0  0
 15 17  2  0  0  0  0
 17 18  1  0  0  0  0
 17 19  1  0  0  0  0
 19 20  1  0  0  0  0
 19 21  2  0  0  0  0
 21 22  1  0  0  0  0
 21 23  1  0  0  0  0
 23 24  1  0  0  0  0
 25 26  2  0  0  0  0
 25 27  1  0  0  0  0
 27 28  1  0  0  0  0
 27 29  1  0  0  0  0
 29 30  1  0  0  0  0
 29 31  1  0  0  0  0
 29 32  1  0  0  0  0
M  END
$$$$

  -OEChem-03222214073D

 32 32  0     1  0  0  0  0  0999 V2000
   -3.2608   -4.3464    0.8342 H   0  0  0  0  0  0  0  0  0  0  0  0
   -3.1938   -3.4280    0.2438 C   0  0  0  0  0  0  0  0  0  0  0  0
   -3.9449   -2.7223    0.6064 H   0  0  0  0  0  0  0  0  0  0  0  0
   -3.4009   -3.6673   -0.8020 H   0  0  0  0  0  0  0  0  0  0  0  0
   -1.8073   -2.8249    0.3731 C   0  0  0  0  0  0  0  0  0  0  0  0
   -0.9609   -3.3915    1.0401 O   0  0  0  0  0  0  0  0  0  0  0  0
   -1.5108   -1.6461   -0.2839 N   0  0  0  0  0  0  0  0  0  0  0  0
   -2.2577   -1.2207   -0.8233 H   0  0  0  0  0  0  0  0  0  0  0  0
   -0.2193   -0.9362   -0.1816 C   0  0  1  0  0  0  0  0  0  0  0  0
    0.5681   -1.6438   -0.4653 H   0  0  0  0  0  0  0  0  0  0  0  0
   -0.2266    0.1952   -1.2513 C   0  0  0  0  0  0  0  0  0  0  0  0
    0.6152    0.0037   -1.9247 H   0  0  0  0  0  0  0  0  0  0  0  0
   -1.1279    0.1169   -1.8671 H   0  0  0  0  0  0  0  0  0  0  0  0
   -0.0793    1.6285   -0.7725 C   0  0  0  0  0  0  0  0  0  0  0  0
    1.0549    2.0643   -0.0663 C   0  0  0  0  0  0  0  0  0  0  0  0
    1.8795    1.3822    0.1235 H   0  0  0  0  0  0  0  0  0  0  0  0
    1.1481    3.3795    0.3992 C   0  0  0  0  0  0  0  0  0  0  0  0
    2.0322    3.6965    0.9447 H   0  0  0  0  0  0  0  0  0  0  0  0
    0.1071    4.2808    0.1636 C   0  0  0  0  0  0  0  0  0  0  0  0
    0.1808    5.3022    0.5253 H   0  0  0  0  0  0  0  0  0  0  0  0
   -1.0257    3.8642   -0.5404 C   0  0  0  0  0  0  0  0  0  0  0  0
   -1.8345    4.5645   -0.7269 H   0  0  0  0  0  0  0  0  0  0  0  0
   -1.1174    2.5469   -1.0034 C   0  0  0  0  0  0  0  0  0  0  0  0
   -2.0073    2.2439   -1.5460 H   0  0  0  0  0  0  0  0  0  0  0  0
    0.1193   -0.5016    1.2650 C   0  0  0  0  0  0  0  0  0  0  0  0
    1.2677   -0.5979    1.6809 O   0  0  0  0  0  0  0  0  0  0  0  0
   -0.8430    0.0896    2.0648 N   0  0  0  0  0  0  0  0  0  0  0  0
   -1.7525    0.2515    1.6476 H   0  0  0  0  0  0  0  0  0  0  0  0
   -0.5526    0.6549    3.3752 C   0  0  0  0  0  0  0  0  0  0  0  0
    0.1489    1.4907    3.2826 H   0  0  0  0  0  0  0  0  0  0  0  0
   -1.4721    1.0221    3.8407 H   0  0  0  0  0  0  0  0  0  0  0  0
   -0.1135   -0.1046    4.0309 H   0  0  0  0  0  0  0  0  0  0  0  0
  1  2  1  0  0  0  0
  2  3  1  0  0  0  0
  2  4  1  0  0  0  0
  2  5  1  0  0  0  0
  5  6  2  0  0  0  0
  5  7  1  0  0  0  0
  7  8  1  0  0  0  0
  7  9  1  0  0  0  0
  9 10  1  0  0  0  0
  9 11  1  0  0  0  0
  9 25  1  0  0  0  0
 11 12  1  0  0  0  0
 11 13  1  0  0  0  0
 11 14  1  0  0  0  0
 14 15  1  0  0  0  0
 14 23  2  0  0  0  0
 15 16  1  0  0  0  0
 15 17  2  0  0  0  0
 17 18  1  0  0  0  0
 17 19  1  0  0  0  0
 19 20  1  0  0  0  0
 19 21  2  0  0  0  0
 21 22  1  0  0  0  0
 21 23  1  0  0  0  0
 23 24  1  0  0  0  0
 25 26  2  0  0  0  0
 25 27  1  0  0  0  0
 27 28  1  0  0  0  0
 27 29  1  0  0  0  0
 29 30  1  0  0  0  0
 29 31  1  0  0  0  0
 29 32  1  0  0  0  0
M  END
$$$$

  -OEChem-03222214073D

 32 32  0     1  0  0  0  0  0999 V2000
   -3.2156   -4.3963    0.8259 H   0  0  0  0  0  0  0  0  0  0  0  0
   -3.1676   -3.4779    0.2338 C   0  0  0  0  0  0  0  0  0  0  0  0
   -3.9458   -2.7947    0.5819 H   0  0  0  0  0  0  0  0  0  0  0  0
   -3.3502   -3.7259   -0.8146 H   0  0  0  0  0  0  0  0  0  0  0  0
   -1.8032   -2.8320    0.3839 C   0  0  0  0  0  0  0  0  0  0  0  0
   -0.9566   -3.3591    1.0824 O   0  0  0  0  0  0  0  0  0  0  0  0
   -1.5279   -1.6561   -0.2866 N   0  0  0  0  0  0  0  0  0  0  0  0
   -2.2676   -1.2731   -0.8665 H   0  0  0  0  0  0  0  0  0  0  0  0
   -0.2494   -0.9236   -0.1945 C   0  0  1  0  0  0  0  0  0  0  0  0
    0.5430   -1.6292   -0.4693 H   0  0  0  0  0  0  0  0  0  0  0  0
   -0.2520    0.1916   -1.2757 C   0  0  0  0  0  0  0  0  0  0  0  0
    0.5932    0.0062   -1.9467 H   0  0  0  0  0  0  0  0  0  0  0  0
   -1.1530    0.1181   -1.8925 H   0  0  0  0  0  0  0  0  0  0  0  0
   -0.1194    1.6080   -0.7599 C   0  0  0  0  0  0  0  0  0  0  0  0
    1.1163    2.0960   -0.3069 C   0  0  0  0  0  0  0  0  0  0  0  0
    1.9929    1.4532   -0.3195 H   0  0  0  0  0  0  0  0  0  0  0  0
    1.2295    3.3996    0.1858 C   0  0  0  0  0  0  0  0  0  0  0  0
    2.1906    3.7604    0.5401 H   0  0  0  0  0  0  0  0  0  0  0  0
    0.1073    4.2313    0.2278 C   0  0  0  0  0  0  0  0  0  0  0  0
    0.1970    5.2436    0.6104 H   0  0  0  0  0  0  0  0  0  0  0  0
   -1.1282    3.7570   -0.2221 C   0  0  0  0  0  0  0  0  0  0  0  0
   -1.9997    4.4042   -0.1907 H   0  0  0  0  0  0  0  0  0  0  0  0
   -1.2407    2.4514   -0.7127 C   0  0  0  0  0  0  0  0  0  0  0  0
   -2.2072    2.0976   -1.0576 H   0  0  0  0  0  0  0  0  0  0  0  0
    0.1106   -0.4541    1.2365 C   0  0  0  0  0  0  0  0  0  0  0  0
    1.2756   -0.4912    1.6139 O   0  0  0  0  0  0  0  0  0  0  0  0
   -0.8440    0.1398    2.0435 N   0  0  0  0  0  0  0  0  0  0  0  0
   -1.7712    0.2539    1.6508 H   0  0  0  0  0  0  0  0  0  0  0  0
   -0.5304    0.7686    3.3194 C   0  0  0  0  0  0  0  0  0  0  0  0
    0.1455    1.6172    3.1702 H   0  0  0  0  0  0  0  0  0  0  0  0
   -1.4451    1.1321    3.7968 H   0  0  0  0  0  0  0  0  0  0  0  0
   -0.0521    0.0500    3.9935 H   0  0  0  0  0  0  0  0  0  0  0  0
  1  2  1  0  0  0  0
  2  3  1  0  0  0  0
  2  4  1  0  0  0  0
  2  5  1  0  0  0  0
  5  6  2  0  0  0  0
  5  7  1  0  0  0  0
  7  8  1  0  0  0  0
  7  9  1  0  0  0  0
  9 10  1  0  0  0  0
  9 11  1  0  0  0  0
  9 25  1  0  0  0  0
 11 12  1  0  0  0  0
 11 13  1  0  0  0  0
 11 14  1  0  0  0  0
 14 15  1  0  0  0  0
 14 23  2  0  0  0  0
 15 16  1  0  0  0  0
 15 17  2  0  0  0  0
 17 18  1  0  0  0  0
 17 19  1  0  0  0  0
 19 20  1  0  0  0  0
 19 21  2  0  0  0  0
 21 22  1  0  0  0  0
 21 23  1  0  0  0  0
 23 24  1  0  0  0  0
 25 26  2  0  0  0  0
 25 27  1  0  0  0  0
 27 28  1  0  0  0  0
 27 29  1  0  0  0  0
 29 30  1  0  0  0  0
 29 31  1  0  0  0  0
 29 32  1  0  0  0  0
M  END
$$$$

  -OEChem-03222214073D

 32 32  0     1  0  0  0  0  0999 V2000
   -3.1926   -4.4322    0.8102 H   0  0  0  0  0  0  0  0  0  0  0  0
   -3.1578   -3.5129    0.2187 C   0  0  0  0  0  0  0  0  0  0  0  0
   -3.9568   -2.8482    0.5553 H   0  0  0  0  0  0  0  0  0  0  0  0
   -3.3190   -3.7652   -0.8321 H   0  0  0  0  0  0  0  0  0  0  0  0
   -1.8110   -2.8353    0.3892 C   0  0  0  0  0  0  0  0  0  0  0  0
   -0.9679   -3.3378    1.1098 O   0  0  0  0  0  0  0  0  0  0  0  0
   -1.5506   -1.6547   -0.2794 N   0  0  0  0  0  0  0  0  0  0  0  0
   -2.2790   -1.3021   -0.8920 H   0  0  0  0  0  0  0  0  0  0  0  0
   -0.2778   -0.9119   -0.1919 C   0  0  1  0  0  0  0  0  0  0  0  0
    0.5123   -1.6200   -0.4667 H   0  0  0  0  0  0  0  0  0  0  0  0
   -0.2663    0.1969   -1.2766 C   0  0  0  0  0  0  0  0  0  0  0  0
    0.5802    0.0068   -1.9445 H   0  0  0  0  0  0  0  0  0  0  0  0
   -1.1668    0.1319   -1.8951 H   0  0  0  0  0  0  0  0  0  0  0  0
   -0.1375    1.6063   -0.7446 C   0  0  0  0  0  0  0  0  0  0  0  0
    1.1255    2.1893   -0.5638 C   0  0  0  0  0  0  0  0  0  0  0  0
    2.0247    1.6201   -0.7823 H   0  0  0  0  0  0  0  0  0  0  0  0
    1.2414    3.4942   -0.0741 C   0  0  0  0  0  0  0  0  0  0  0  0
    2.2252    3.9299    0.0745 H   0  0  0  0  0  0  0  0  0  0  0  0
    0.0938    4.2319    0.2311 C   0  0  0  0  0  0  0  0  0  0  0  0
    0.1855    5.2449    0.6121 H   0  0  0  0  0  0  0  0  0  0  0  0
   -1.1698    3.6629    0.0467 C   0  0  0  0  0  0  0  0  0  0  0  0
   -2.0610    4.2368    0.2824 H   0  0  0  0  0  0  0  0  0  0  0  0
   -1.2845    2.3568   -0.4417 C   0  0  0  0  0  0  0  0  0  0  0  0
   -2.2709    1.9279   -0.5846 H   0  0  0  0  0  0  0  0  0  0  0  0
    0.1049   -0.4361    1.2311 C   0  0  0  0  0  0  0  0  0  0  0  0
    1.2801   -0.4456    1.5766 O   0  0  0  0  0  0  0  0  0  0  0  0
   -0.8368    0.1539    2.0558 N   0  0  0  0  0  0  0  0  0  0  0  0
   -1.7808    0.2318    1.6962 H   0  0  0  0  0  0  0  0  0  0  0  0
   -0.5017    0.7884    3.3233 C   0  0  0  0  0  0  0  0  0  0  0  0
    0.1765    1.6324    3.1590 H   0  0  0  0  0  0  0  0  0  0  0  0
   -1.4071    1.1599    3.8121 H   0  0  0  0  0  0  0  0  0  0  0  0
   -0.0171    0.0707    3.9936 H   0  0  0  0  0  0  0  0  0  0  0  0
  1  2  1  0  0  0  0
  2  3  1  0  0  0  0
  2  4  1  0  0  0  0
  2  5  1  0  0  0  0
  5  6  2  0  0  0  0
  5  7  1  0  0  0  0
  7  8  1  0  0  0  0
  7  9  1  0  0  0  0
  9 10  1  0  0  0  0
  9 11  1  0  0  0  0
  9 25  1  0  0  0  0
 11 12  1  0  0  0  0
 11 13  1  0  0  0  0
 11 14  1  0  0  0  0
 14 15  1  0  0  0  0
 14 23  2  0  0  0  0
 15 16  1  0  0  0  0
 15 17  2  0  0  0  0
 17 18  1  0  0  0  0
 17 19  1  0  0  0  0
 19 20  1  0  0  0  0
 19 21  2  0  0  0  0
 21 22  1  0  0  0  0
 21 23  1  0  0  0  0
 23 24  1  0  0  0  0
 25 26  2  0  0  0  0
 25 27  1  0  0  0  0
 27 28  1  0  0  0  0
 27 29  1  0  0  0  0
 29 30  1  0  0  0  0
 29 31  1  0  0  0  0
 29 32  1  0  0  0  0
M  END
$$$$

  -OEChem-03222214073D

 32 32  0     1  0  0  0  0  0999 V2000
   -3.1828   -4.4589    0.7709 H   0  0  0  0  0  0  0  0  0  0  0  0
   -3.1539   -3.5310    0.1923 C   0  0  0  0  0  0  0  0  0  0  0  0
   -3.9684   -2.8836    0.5259 H   0  0  0  0  0  0  0  0  0  0  0  0
   -3.2954   -3.7713   -0.8642 H   0  0  0  0  0  0  0  0  0  0  0  0
   -1.8212   -2.8342    0.3920 C   0  0  0  0  0  0  0  0  0  0  0  0
   -0.9819   -3.3306    1.1209 O   0  0  0  0  0  0  0  0  0  0  0  0
   -1.5700   -1.6408   -0.2570 N   0  0  0  0  0  0  0  0  0  0  0  0
   -2.2877   -1.3020   -0.8897 H   0  0  0  0  0  0  0  0  0  0  0  0
   -0.2982   -0.8964   -0.1687 C   0  0  1  0  0  0  0  0  0  0  0  0
    0.4854   -1.6091   -0.4507 H   0  0  0  0  0  0  0  0  0  0  0  0
   -0.2715    0.2120   -1.2534 C   0  0  0  0  0  0  0  0  0  0  0  0
    0.5747    0.0095   -1.9179 H   0  0  0  0  0  0  0  0  0  0  0  0
   -1.1709    0.1541   -1.8742 H   0  0  0  0  0  0  0  0  0  0  0  0
   -0.1410    1.6249   -0.7302 C   0  0  0  0  0  0  0  0  0  0  0  0
    1.0760    2.3150   -0.8317 C   0  0  0  0  0  0  0  0  0  0  0  0
    1.9512    1.8218   -1.2442 H   0  0  0  0  0  0  0  0  0  0  0  0
    1.1838    3.6348   -0.3810 C   0  0  0  0  0  0  0  0  0  0  0  0
    2.1356    4.1534   -0.4496 H   0  0  0  0  0  0  0  0  0  0  0  0
    0.0702    4.2835    0.1607 C   0  0  0  0  0  0  0  0  0  0  0  0
    0.1564    5.3076    0.5119 H   0  0  0  0  0  0  0  0  0  0  0  0
   -1.1529    3.6124    0.2467 C   0  0  0  0  0  0  0  0  0  0  0  0
   -2.0197    4.1179    0.6617 H   0  0  0  0  0  0  0  0  0  0  0  0
   -1.2585    2.2921   -0.2034 C   0  0  0  0  0  0  0  0  0  0  0  0
   -2.2149    1.7839   -0.1397 H   0  0  0  0  0  0  0  0  0  0  0  0
    0.1070   -0.4413    1.2551 C   0  0  0  0  0  0  0  0  0  0  0  0
    1.2894   -0.4390    1.5747 O   0  0  0  0  0  0  0  0  0  0  0  0
   -0.8201    0.1337    2.1062 N   0  0  0  0  0  0  0  0  0  0  0  0
   -1.7859    0.1421    1.8007 H   0  0  0  0  0  0  0  0  0  0  0  0
   -0.4729    0.7116    3.3974 C   0  0  0  0  0  0  0  0  0  0  0  0
    0.2276    1.5433    3.2672 H   0  0  0  0  0  0  0  0  0  0  0  0
   -1.3698    1.0897    3.8969 H   0  0  0  0  0  0  0  0  0  0  0  0
   -0.0093   -0.0432    4.0415 H   0  0  0  0  0  0  0  0  0  0  0  0
  1  2  1  0  0  0  0
  2  3  1  0  0  0  0
  2  4  1  0  0  0  0
  2  5  1  0  0  0  0
  5  6  2  0  0  0  0
  5  7  1  0  0  0  0
  7  8  1  0  0  0  0
  7  9  1  0  0  0  0
  9 10  1  0  0  0  0
  9 11  1  0  0  0  0
  9 25  1  0  0  0  0
 11 12  1  0  0  0  0
 11 13  1  0  0  0  0
 11 14  1  0  0  0  0
 14 15  1  0  0  0  0
 14 23  2  0  0  0  0
 15 16  1  0  0  0  0
 15 17  2  0  0  0  0
 17 18  1  0  0  0  0
 17 19  1  0  0  0  0
 19 20  1  0  0  0  0
 19 21  2  0  0  0  0
 21 22  1  0  0  0  0
 21 23  1  0  0  0  0
 23 24  1  0  0  0  0
 25 26  2  0  0  0  0
 25 27  1  0  0  0  0
 27 28  1  0  0  0  0
 27 29  1  0  0  0  0
 29 30  1  0  0  0  0
 29 31  1  0  0  0  0
 29 32  1  0  0  0  0
M  END
$$$$

  -OEChem-03222214073D

 32 32  0     1  0  0  0  0  0999 V2000
   -3.1810   -4.4773    0.7186 H   0  0  0  0  0  0  0  0  0  0  0  0
   -3.1546   -3.5376    0.1595 C   0  0  0  0  0  0  0  0  0  0  0  0
   -3.9758   -2.9031    0.5010 H   0  0  0  0  0  0  0  0  0  0  0  0
   -3.2881   -3.7573   -0.9025 H   0  0  0  0  0  0  0  0  0  0  0  0
   -1.8278   -2.8358    0.3816 C   0  0  0  0  0  0  0  0  0  0  0  0
   -0.9876   -3.3433    1.1019 O   0  0  0  0  0  0  0  0  0  0  0  0
   -1.5849   -1.6222   -0.2320 N   0  0  0  0  0  0  0  0  0  0  0  0
   -2.3027   -1.2727   -0.8594 H   0  0  0  0  0  0  0  0  0  0  0  0
   -0.3139   -0.8778   -0.1338 C   0  0  1  0  0  0  0  0  0  0  0  0
    0.4617   -1.5946   -0.4272 H   0  0  0  0  0  0  0  0  0  0  0  0
   -0.2648    0.2337   -1.2155 C   0  0  0  0  0  0  0  0  0  0  0  0
    0.5877    0.0177   -1.8678 H   0  0  0  0  0  0  0  0  0  0  0  0
   -1.1569    0.1779   -1.8462 H   0  0  0  0  0  0  0  0  0  0  0  0
   -0.1341    1.6566   -0.7149 C   0  0  0  0  0  0  0  0  0  0  0  0
    0.9698    2.4405   -1.0855 C   0  0  0  0  0  0  0  0  0  0  0  0
    1.7757    2.0083   -1.6711 H   0  0  0  0  0  0  0  0  0  0  0  0
    1.0605    3.7790   -0.6887 C   0  0  0  0  0  0  0  0  0  0  0  0
    1.9307    4.3675   -0.9640 H   0  0  0  0  0  0  0  0  0  0  0  0
    0.0333    4.3579    0.0614 C   0  0  0  0  0  0  0  0  0  0  0  0
    0.1054    5.3961    0.3718 H   0  0  0  0  0  0  0  0  0  0  0  0
   -1.0897    3.6001    0.4029 C   0  0  0  0  0  0  0  0  0  0  0  0
   -1.8951    4.0518    0.9742 H   0  0  0  0  0  0  0  0  0  0  0  0
   -1.1776    2.2624    0.0038 C   0  0  0  0  0  0  0  0  0  0  0  0
   -2.0649    1.6929    0.2572 H   0  0  0  0  0  0  0  0  0  0  0  0
    0.1124   -0.4626    1.2958 C   0  0  0  0  0  0  0  0  0  0  0  0
    1.3009   -0.4545    1.5908 O   0  0  0  0  0  0  0  0  0  0  0  0
   -0.8001    0.0853    2.1803 N   0  0  0  0  0  0  0  0  0  0  0  0
   -1.7795    0.0182    1.9297 H   0  0  0  0  0  0  0  0  0  0  0  0
   -0.4346    0.5843    3.4993 C   0  0  0  0  0  0  0  0  0  0  0  0
    0.2939    1.3974    3.4110 H   0  0  0  0  0  0  0  0  0  0  0  0
   -1.3184    0.9672    4.0182 H   0  0  0  0  0  0  0  0  0  0  0  0
    0.0029   -0.2174    4.1033 H   0  0  0  0  0  0  0  0  0  0  0  0
  1  2  1  0  0  0  0
  2  3  1  0  0  0  0
  2  4  1  0  0  0  0
  2  5  1  0  0  0  0
  5  6  2  0  0  0  0
  5  7  1  0  0  0  0
  7  8  1  0  0  0  0
  7  9  1  0  0  0  0
  9 10  1  0  0  0  0
  9 11  1  0  0  0  0
  9 25  1  0  0  0  0
 11 12  1  0  0  0  0
 11 13  1  0  0  0  0
 11 14  1  0  0  0  0
 14 15  1  0  0  0  0
 14 23  2  0  0  0  0
 15 16  1  0  0  0  0
 15 17  2  0  0  0  0
 17 18  1  0  0  0  0
 17 19  1  0  0  0  0
 19 20  1  0  0  0  0
 19 21  2  0  0  0  0
 21 22  1  0  0  0  0
 21 23  1  0  0  0  0
 23 24  1  0  0  0  0
 25 26  2  0  0  0  0
 25 27  1  0  0  0  0
 27 28  1  0  0  0  0
 27 29  1  0  0  0  0
 29 30  1  0  0  0  0
 29 31  1  0  0  0  0
 29 32  1  0  0  0  0
M  END
$$$$

  -OEChem-03222214073D

 32 32  0     1  0  0  0  0  0999 V2000
   -3.1887   -4.4954    0.6305 H   0  0  0  0  0  0  0  0  0  0  0  0
   -3.1622   -3.5372    0.1038 C   0  0  0  0  0  0  0  0  0  0  0  0
   -3.9875   -2.9171    0.4619 H   0  0  0  0  0  0  0  0  0  0  0  0
   -3.2900   -3.7212   -0.9657 H   0  0  0  0  0  0  0  0  0  0  0  0
   -1.8388   -2.8389    0.3562 C   0  0  0  0  0  0  0  0  0  0  0  0
   -0.9971   -3.3686    1.0587 O   0  0  0  0  0  0  0  0  0  0  0  0
   -1.6031   -1.5983   -0.2034 N   0  0  0  0  0  0  0  0  0  0  0  0
   -2.3256   -1.2247   -0.8115 H   0  0  0  0  0  0  0  0  0  0  0  0
   -0.3331   -0.8551   -0.0849 C   0  0  1  0  0  0  0  0  0  0  0  0
    0.4308   -1.5786   -0.3931 H   0  0  0  0  0  0  0  0  0  0  0  0
   -0.2495    0.2591   -1.1636 C   0  0  0  0  0  0  0  0  0  0  0  0
    0.6188    0.0295   -1.7899 H   0  0  0  0  0  0  0  0  0  0  0  0
   -1.1253    0.2011   -1.8165 H   0  0  0  0  0  0  0  0  0  0  0  0
   -0.1204    1.6952   -0.6950 C   0  0  0  0  0  0  0  0  0  0  0  0
    0.8168    2.5443   -1.3068 C   0  0  0  0  0  0  0  0  0  0  0  0
    1.5173    2.1490   -2.0364 H   0  0  0  0  0  0  0  0  0  0  0  0
    0.8847    3.9012   -0.9724 C   0  0  0  0  0  0  0  0  0  0  0  0
    1.6367    4.5357   -1.4322 H   0  0  0  0  0  0  0  0  0  0  0  0
   -0.0157    4.4398   -0.0505 C   0  0  0  0  0  0  0  0  0  0  0  0
    0.0377    5.4924    0.2115 H   0  0  0  0  0  0  0  0  0  0  0  0
   -0.9951    3.6233    0.5191 C   0  0  0  0  0  0  0  0  0  0  0  0
   -1.7133    4.0444    1.2161 H   0  0  0  0  0  0  0  0  0  0  0  0
   -1.0581    2.2672    0.1814 C   0  0  0  0  0  0  0  0  0  0  0  0
   -1.8555    1.6638    0.5989 H   0  0  0  0  0  0  0  0  0  0  0  0
    0.1210   -0.4962    1.3517 C   0  0  0  0  0  0  0  0  0  0  0  0
    1.3164   -0.4863    1.6167 O   0  0  0  0  0  0  0  0  0  0  0  0
   -0.7693    0.0131    2.2809 N   0  0  0  0  0  0  0  0  0  0  0  0
   -1.7553   -0.0944    2.0723 H   0  0  0  0  0  0  0  0  0  0  0  0
   -0.3705    0.4308    3.6187 C   0  0  0  0  0  0  0  0  0  0  0  0
    0.3628    1.2423    3.5618 H   0  0  0  0  0  0  0  0  0  0  0  0
   -1.2396    0.7899    4.1777 H   0  0  0  0  0  0  0  0  0  0  0  0
    0.0729   -0.4077    4.1659 H   0  0  0  0  0  0  0  0  0  0  0  0
  1  2  1  0  0  0  0
  2  3  1  0  0  0  0
  2  4  1  0  0  0  0
  2  5  1  0  0  0  0
  5  6  2  0  0  0  0
  5  7  1  0  0  0  0
  7  8  1  0  0  0  0
  7  9  1  0  0  0  0
  9 10  1  0  0  0  0
  9 11  1  0  0  0  0
  9 25  1  0  0  0  0
 11 12  1  0  0  0  0
 11 13  1  0  0  0  0
 11 14  1  0  0  0  0
 14 15  1  0  0  0  0
 14 23  2  0  0  0  0
 15 16  1  0  0  0  0
 15 17  2  0  0  0  0
 17 18  1  0  0  0  0
 17 19  1  0  0  0  0
 19 20  1  0  0  0  0
 19 21  2  0  0  0  0
 21 22  1  0  0  0  0
 21 23  1  0  0  0  0
 23 24  1  0  0  0  0
 25 26  2  0  0  0  0
 25 27  1  0  0  0  0
 27 28  1  0  0  0  0
 27 29  1  0  0  0  0
 29 30  1  0  0  0  0
 29 31  1  0  0  0  0
 29 32  1  0  0  0  0
M  END
$$$$

  -OEChem-03222214073D

 32 32  0     1  0  0  0  0  0999 V2000
   -3.2005   -4.5108    0.4860 H   0  0  0  0  0  0  0  0  0  0  0  0
   -3.1783   -3.5271    0.0078 C   0  0  0  0  0  0  0  0  0  0  0  0
   -4.0125   -2.9331    0.3883 H   0  0  0  0  0  0  0  0  0  0  0  0
   -3.2941   -3.6588   -1.0707 H   0  0  0  0  0  0  0  0  0  0  0  0
   -1.8634   -2.8312    0.3067 C   0  0  0  0  0  0  0  0  0  0  0  0
   -1.0230   -3.3912    0.9869 O   0  0  0  0  0  0  0  0  0  0  0  0
   -1.6317   -1.5608   -0.1847 N   0  0  0  0  0  0  0  0  0  0  0  0
   -2.3588   -1.1518   -0.7642 H   0  0  0  0  0  0  0  0  0  0  0  0
   -0.3631   -0.8224   -0.0281 C   0  0  1  0  0  0  0  0  0  0  0  0
    0.3892   -1.5550   -0.3444 H   0  0  0  0  0  0  0  0  0  0  0  0
   -0.2201    0.2951   -1.1001 C   0  0  0  0  0  0  0  0  0  0  0  0
    0.6741    0.0498   -1.6829 H   0  0  0  0  0  0  0  0  0  0  0  0
   -1.0657    0.2339   -1.7913 H   0  0  0  0  0  0  0  0  0  0  0  0
   -0.0892    1.7469   -0.6744 C   0  0  0  0  0  0  0  0  0  0  0  0
    0.6511    2.6184   -1.4925 C   0  0  0  0  0  0  0  0  0  0  0  0
    1.2070    2.2276   -2.3395 H   0  0  0  0  0  0  0  0  0  0  0  0
    0.7183    3.9891   -1.2208 C   0  0  0  0  0  0  0  0  0  0  0  0
    1.3283    4.6365   -1.8438 H   0  0  0  0  0  0  0  0  0  0  0  0
   -0.0020    4.5241   -0.1516 C   0  0  0  0  0  0  0  0  0  0  0  0
    0.0506    5.5871    0.0642 H   0  0  0  0  0  0  0  0  0  0  0  0
   -0.8108    3.6892    0.6213 C   0  0  0  0  0  0  0  0  0  0  0  0
   -1.4037    4.1059    1.4299 H   0  0  0  0  0  0  0  0  0  0  0  0
   -0.8734    2.3196    0.3421 C   0  0  0  0  0  0  0  0  0  0  0  0
   -1.5689    1.7192    0.9118 H   0  0  0  0  0  0  0  0  0  0  0  0
    0.1019   -0.5371    1.4214 C   0  0  0  0  0  0  0  0  0  0  0  0
    1.3001   -0.5282    1.6728 O   0  0  0  0  0  0  0  0  0  0  0  0
   -0.7786   -0.0794    2.3862 N   0  0  0  0  0  0  0  0  0  0  0  0
   -1.7654   -0.2075    2.1918 H   0  0  0  0  0  0  0  0  0  0  0  0
   -0.3658    0.2388    3.7471 C   0  0  0  0  0  0  0  0  0  0  0  0
    0.3737    1.0466    3.7430 H   0  0  0  0  0  0  0  0  0  0  0  0
   -1.2272    0.5634    4.3382 H   0  0  0  0  0  0  0  0  0  0  0  0
    0.0752   -0.6405    4.2285 H   0  0  0  0  0  0  0  0  0  0  0  0
  1  2  1  0  0  0  0
  2  3  1  0  0  0  0
  2  4  1  0  0  0  0
  2  5  1  0  0  0  0
  5  6  2  0  0  0  0
  5  7  1  0  0  0  0
  7  8  1  0  0  0  0
  7  9  1  0  0  0  0
  9 10  1  0  0  0  0
  9 11  1  0  0  0  0
  9 25  1  0  0  0  0
 11 12  1  0  0  0  0
 11 13  1  0  0  0  0
 11 14  1  0  0  0  0
 14 15  1  0  0  0  0
 14 23  2  0  0  0  0
 15 16  1  0  0  0  0
 15 17  2  0  0  0  0
 17 18  1  0  0  0  0
 17 19  1  0  0  0  0
 19 20  1  0  0  0  0
 19 21  2  0  0  0  0
 21 22  1  0  0  0  0
 21 23  1  0  0  0  0
 23 24  1  0  0  0  0
 25 26  2  0  0  0  0
 25 27  1  0  0  0  0
 27 28  1  0  0  0  0
 27 29  1  0  0  0  0
 29 30  1  0  0  0  0
 29 31  1  0  0  0  0
 29 32  1  0  0  0  0
M  END
$$$$

  -OEChem-03222214073D

 32 32  0     1  0  0  0  0  0999 V2000
   -3.2474   -4.4884    0.4339 H   0  0  0  0  0  0  0  0  0  0  0  0
   -3.2376   -3.4780    0.0149 C   0  0  0  0  0  0  0  0  0  0  0  0
   -4.0346   -2.8960    0.4836 H   0  0  0  0  0  0  0  0  0  0  0  0
   -3.4247   -3.5421   -1.0597 H   0  0  0  0  0  0  0  0  0  0  0  0
   -1.8938   -2.8205    0.2696 C   0  0  0  0  0  0  0  0  0  0  0  0
   -1.0201   -3.4347    0.8545 O   0  0  0  0  0  0  0  0  0  0  0  0
   -1.6757   -1.5213   -0.1472 N   0  0  0  0  0  0  0  0  0  0  0  0
   -2.4364   -1.0634   -0.6407 H   0  0  0  0  0  0  0  0  0  0  0  0
   -0.3967   -0.7962   -0.0074 C   0  0  1  0  0  0  0  0  0  0  0  0
    0.3334   -1.5210   -0.3879 H   0  0  0  0  0  0  0  0  0  0  0  0
   -0.2811    0.3557   -1.0512 C   0  0  0  0  0  0  0  0  0  0  0  0
    0.5952    0.1112   -1.6617 H   0  0  0  0  0  0  0  0  0  0  0  0
   -1.1462    0.2963   -1.7182 H   0  0  0  0  0  0  0  0  0  0  0  0
   -0.1236    1.8235   -0.6745 C   0  0  0  0  0  0  0  0  0  0  0  0
    0.2965    2.6914   -1.6992 C   0  0  0  0  0  0  0  0  0  0  0  0
    0.5731    2.2882   -2.6688 H   0  0  0  0  0  0  0  0  0  0  0  0
    0.3956    4.0716   -1.4969 C   0  0  0  0  0  0  0  0  0  0  0  0
    0.7525    4.7141   -2.2963 H   0  0  0  0  0  0  0  0  0  0  0  0
    0.0325    4.6228   -0.2681 C   0  0  0  0  0  0  0  0  0  0  0  0
    0.1094    5.6938   -0.1043 H   0  0  0  0  0  0  0  0  0  0  0  0
   -0.4497    3.7908    0.7424 C   0  0  0  0  0  0  0  0  0  0  0  0
   -0.7620    4.2171    1.6911 H   0  0  0  0  0  0  0  0  0  0  0  0
   -0.5475    2.4110    0.5313 C   0  0  0  0  0  0  0  0  0  0  0  0
   -0.9904    1.8333    1.3235 H   0  0  0  0  0  0  0  0  0  0  0  0
    0.1257   -0.6172    1.4382 C   0  0  0  0  0  0  0  0  0  0  0  0
    1.3323   -0.6195    1.6439 O   0  0  0  0  0  0  0  0  0  0  0  0
   -0.7185   -0.2295    2.4647 N   0  0  0  0  0  0  0  0  0  0  0  0
   -1.7127   -0.3332    2.2918 H   0  0  0  0  0  0  0  0  0  0  0  0
   -0.2605   -0.0293    3.8341 C   0  0  0  0  0  0  0  0  0  0  0  0
    0.5263    0.7318    3.8684 H   0  0  0  0  0  0  0  0  0  0  0  0
   -1.0892    0.3052    4.4650 H   0  0  0  0  0  0  0  0  0  0  0  0
    0.1354   -0.9639    4.2450 H   0  0  0  0  0  0  0  0  0  0  0  0
  1  2  1  0  0  0  0
  2  3  1  0  0  0  0
  2  4  1  0  0  0  0
  2  5  1  0  0  0  0
  5  6  2  0  0  0  0
  5  7  1  0  0  0  0
  7  8  1  0  0  0  0
  7  9  1  0  0  0  0
  9 10  1  0  0  0  0
  9 11  1  0  0  0  0
  9 25  1  0  0  0  0
 11 12  1  0  0  0  0
 11 13  1  0  0  0  0
 11 14  1  0  0  0  0
 14 15  1  0  0  0  0
 14 23  2  0  0  0  0
 15 16  1  0  0  0  0
 15 17  2  0  0  0  0
 17 18  1  0  0  0  0
 17 19  1  0  0  0  0
 19 20  1  0  0  0  0
 19 21  2  0  0  0  0
 21 22  1  0  0  0  0
 21 23  1  0  0  0  0
 23 24  1  0  0  0  0
 25 26  2  0  0  0  0
 25 27  1  0  0  0  0
 27 28  1  0  0  0  0
 27 29  1  0  0  0  0
 29 30  1  0  0  0  0
 29 31  1  0  0  0  0
 29 32  1  0  0  0  0
M  END
$$$$

  -OEChem-03222214073D

 32 32  0     1  0  0  0  0  0999 V2000
   -3.3490   -4.3399    0.5514 H   0  0  0  0  0  0  0  0  0  0  0  0
   -3.2360   -3.3790    0.0408 C   0  0  0  0  0  0  0  0  0  0  0  0
   -4.0009   -2.6927    0.4115 H   0  0  0  0  0  0  0  0  0  0  0  0
   -3.3800   -3.5321   -1.0315 H   0  0  0  0  0  0  0  0  0  0  0  0
   -1.8545   -2.8088    0.3020 C   0  0  0  0  0  0  0  0  0  0  0  0
   -1.0563   -3.4421    0.9677 O   0  0  0  0  0  0  0  0  0  0  0  0
   -1.5115   -1.5802   -0.2307 N   0  0  0  0  0  0  0  0  0  0  0  0
   -2.2111   -1.1199   -0.8046 H   0  0  0  0  0  0  0  0  0  0  0  0
   -0.2037   -0.9135   -0.0403 C   0  0  1  0  0  0  0  0  0  0  0  0
    0.5866   -1.6039   -0.3566 H   0  0  0  0  0  0  0  0  0  0  0  0
   -0.1706    0.3001   -1.0266 C   0  0  0  0  0  0  0  0  0  0  0  0
    0.4357   -0.0314   -1.8759 H   0  0  0  0  0  0  0  0  0  0  0  0
   -1.1870    0.4368   -1.4093 H   0  0  0  0  0  0  0  0  0  0  0  0
    0.3029    1.7183   -0.6958 C   0  0  0  0  0  0  0  0  0  0  0  0
    0.2274    2.6287   -1.7677 C   0  0  0  0  0  0  0  0  0  0  0  0
   -0.1634    2.3022   -2.7268 H   0  0  0  0  0  0  0  0  0  0  0  0
    0.6385    3.9588   -1.6396 C   0  0  0  0  0  0  0  0  0  0  0  0
    0.5596    4.6374   -2.4838 H   0  0  0  0  0  0  0  0  0  0  0  0
    1.1556    4.4124   -0.4276 C   0  0  0  0  0  0  0  0  0  0  0  0
    1.4791    5.4436   -0.3207 H   0  0  0  0  0  0  0  0  0  0  0  0
    1.2695    3.5274    0.6436 C   0  0  0  0  0  0  0  0  0  0  0  0
    1.6904    3.8678    1.5852 H   0  0  0  0  0  0  0  0  0  0  0  0
    0.8592    2.1962    0.5113 C   0  0  0  0  0  0  0  0  0  0  0  0
    1.0216    1.5836    1.3840 H   0  0  0  0  0  0  0  0  0  0  0  0
    0.0671   -0.6519    1.4562 C   0  0  0  0  0  0  0  0  0  0  0  0
    1.1861   -0.8286    1.9217 O   0  0  0  0  0  0  0  0  0  0  0  0
   -0.9272   -0.1331    2.2678 N   0  0  0  0  0  0  0  0  0  0  0  0
   -1.8520   -0.0448    1.8615 H   0  0  0  0  0  0  0  0  0  0  0  0
   -0.7535    0.0972    3.6960 C   0  0  0  0  0  0  0  0  0  0  0  0
    0.0442    0.8262    3.8719 H   0  0  0  0  0  0  0  0  0  0  0  0
   -1.6786    0.4859    4.1317 H   0  0  0  0  0  0  0  0  0  0  0  0
   -0.4960   -0.8375    4.2053 H   0  0  0  0  0  0  0  0  0  0  0  0
  1  2  1  0  0  0  0
  2  3  1  0  0  0  0
  2  4  1  0  0  0  0
  2  5  1  0  0  0  0
  5  6  2  0  0  0  0
  5  7  1  0  0  0  0
  7  8  1  0  0  0  0
  7  9  1  0  0  0  0
  9 10  1  0  0  0  0
  9 11  1  0  0  0  0
  9 25  1  0  0  0  0
 11 12  1  0  0  0  0
 11 13  1  0  0  0  0
 11 14  1  0  0  0  0
 14 15  1  0  0  0  0
 14 23  2  0  0  0  0
 15 16  1  0  0  0  0
 15 17  2  0  0  0  0
 17 18  1  0  0  0  0
 17 19  1  0  0  0  0
 19 20  1  0  0  0  0
 19 21  2  0  0  0  0
 21 22  1  0  0  0  0
 21 23  1  0  0  0  0
 23 24  1  0  0  0  0
 25 26  2  0  0  0  0
 25 27  1  0  0  0  0
 27 28  1  0  0  0  0
 27 29  1  0  0  0  0
 29 30  1  0  0  0  0
 29 31  1  0  0  0  0
 29 32  1  0  0  0  0
M  END
$$$$

  -OEChem-03222214073D

 32 32  0     1  0  0  0  0  0999 V2000
   -3.2895   -4.3514    0.6519 H   0  0  0  0  0  0  0  0  0  0  0  0
   -3.1935   -3.3993    0.1218 C   0  0  0  0  0  0  0  0  0  0  0  0
   -3.9452   -2.7060    0.5066 H   0  0  0  0  0  0  0  0  0  0  0  0
   -3.3742   -3.5703   -0.9422 H   0  0  0  0  0  0  0  0  0  0  0  0
   -1.8032   -2.8268    0.3274 C   0  0  0  0  0  0  0  0  0  0  0  0
   -0.9862   -3.4476    0.9820 O   0  0  0  0  0  0  0  0  0  0  0  0
   -1.4722   -1.6160   -0.2514 N   0  0  0  0  0  0  0  0  0  0  0  0
   -2.1906   -1.1674   -0.8108 H   0  0  0  0  0  0  0  0  0  0  0  0
   -0.1712   -0.9287   -0.0863 C   0  0  1  0  0  0  0  0  0  0  0  0
    0.6389   -1.5964   -0.4015 H   0  0  0  0  0  0  0  0  0  0  0  0
   -0.2110    0.2900   -1.0654 C   0  0  0  0  0  0  0  0  0  0  0  0
    0.3807   -0.0012   -1.9393 H   0  0  0  0  0  0  0  0  0  0  0  0
   -1.2412    0.4063   -1.4168 H   0  0  0  0  0  0  0  0  0  0  0  0
    0.2472    1.6964   -0.6846 C   0  0  0  0  0  0  0  0  0  0  0  0
   -0.1564    2.7359   -1.5445 C   0  0  0  0  0  0  0  0  0  0  0  0
   -0.8257    2.5253   -2.3732 H   0  0  0  0  0  0  0  0  0  0  0  0
    0.2648    4.0553   -1.3519 C   0  0  0  0  0  0  0  0  0  0  0  0
   -0.0870    4.8415   -2.0132 H   0  0  0  0  0  0  0  0  0  0  0  0
    1.1467    4.3605   -0.3161 C   0  0  0  0  0  0  0  0  0  0  0  0
    1.4797    5.3830   -0.1636 H   0  0  0  0  0  0  0  0  0  0  0  0
    1.6249    3.3369    0.5020 C   0  0  0  0  0  0  0  0  0  0  0  0
    2.3462    3.5580    1.2838 H   0  0  0  0  0  0  0  0  0  0  0  0
    1.2016    2.0183    0.3028 C   0  0  0  0  0  0  0  0  0  0  0  0
    1.6778    1.2695    0.9199 H   0  0  0  0  0  0  0  0  0  0  0  0
    0.0783   -0.6151    1.4082 C   0  0  0  0  0  0  0  0  0  0  0  0
    1.1652   -0.8566    1.9187 O   0  0  0  0  0  0  0  0  0  0  0  0
   -0.9291   -0.0803    2.1924 N   0  0  0  0  0  0  0  0  0  0  0  0
   -1.8237    0.0883    1.7467 H   0  0  0  0  0  0  0  0  0  0  0  0
   -0.7763    0.1988    3.6141 C   0  0  0  0  0  0  0  0  0  0  0  0
    0.0082    0.9455    3.7749 H   0  0  0  0  0  0  0  0  0  0  0  0
   -1.7126    0.5863    4.0265 H   0  0  0  0  0  0  0  0  0  0  0  0
   -0.5108   -0.7149    4.1564 H   0  0  0  0  0  0  0  0  0  0  0  0
  1  2  1  0  0  0  0
  2  3  1  0  0  0  0
  2  4  1  0  0  0  0
  2  5  1  0  0  0  0
  5  6  2  0  0  0  0
  5  7  1  0  0  0  0
  7  8  1  0  0  0  0
  7  9  1  0  0  0  0
  9 10  1  0  0  0  0
  9 11  1  0  0  0  0
  9 25  1  0  0  0  0
 11 12  1  0  0  0  0
 11 13  1  0  0  0  0
 11 14  1  0  0  0  0
 14 15  1  0  0  0  0
 14 23  2  0  0  0  0
 15 16  1  0  0  0  0
 15 17  2  0  0  0  0
 17 18  1  0  0  0  0
 17 19  1  0  0  0  0
 19 20  1  0  0  0  0
 19 21  2  0  0  0  0
 21 22  1  0  0  0  0
 21 23  1  0  0  0  0
 23 24  1  0  0  0  0
 25 26  2  0  0  0  0
 25 27  1  0  0  0  0
 27 28  1  0  0  0  0
 27 29  1  0  0  0  0
 29 30  1  0  0  0  0
 29 31  1  0  0  0  0
 29 32  1  0  0  0  0
M  END
$$$$

  -OEChem-03222214073D

 32 32  0     1  0  0  0  0  0999 V2000
   -3.2890   -4.3487    0.7421 H   0  0  0  0  0  0  0  0  0  0  0  0
   -3.1927   -3.4182    0.1750 C   0  0  0  0  0  0  0  0  0  0  0  0
   -3.9497   -2.7130    0.5263 H   0  0  0  0  0  0  0  0  0  0  0  0
   -3.3644   -3.6326   -0.8827 H   0  0  0  0  0  0  0  0  0  0  0  0
   -1.8067   -2.8316    0.3678 C   0  0  0  0  0  0  0  0  0  0  0  0
   -0.9925   -3.4207    1.0545 O   0  0  0  0  0  0  0  0  0  0  0  0
   -1.4751   -1.6459   -0.2607 N   0  0  0  0  0  0  0  0  0  0  0  0
   -2.1911   -1.2221   -0.8418 H   0  0  0  0  0  0  0  0  0  0  0  0
   -0.1808   -0.9454   -0.1073 C   0  0  1  0  0  0  0  0  0  0  0  0
    0.6363   -1.6190   -0.3890 H   0  0  0  0  0  0  0  0  0  0  0  0
   -0.2121    0.2436   -1.1180 C   0  0  0  0  0  0  0  0  0  0  0  0
    0.3959   -0.0511   -1.9794 H   0  0  0  0  0  0  0  0  0  0  0  0
   -1.2360    0.3575   -1.4876 H   0  0  0  0  0  0  0  0  0  0  0  0
    0.2550    1.6293   -0.6955 C   0  0  0  0  0  0  0  0  0  0  0  0
   -0.3418    2.7472   -1.3066 C   0  0  0  0  0  0  0  0  0  0  0  0
   -1.1786    2.6161   -1.9856 H   0  0  0  0  0  0  0  0  0  0  0  0
    0.1075    4.0460   -1.0451 C   0  0  0  0  0  0  0  0  0  0  0  0
   -0.3874    4.8965   -1.5046 H   0  0  0  0  0  0  0  0  0  0  0  0
    1.2013    4.2492   -0.2025 C   0  0  0  0  0  0  0  0  0  0  0  0
    1.5555    5.2553    0.0020 H   0  0  0  0  0  0  0  0  0  0  0  0
    1.8588    3.1494    0.3506 C   0  0  0  0  0  0  0  0  0  0  0  0
    2.7356    3.2960    0.9747 H   0  0  0  0  0  0  0  0  0  0  0  0
    1.4064    1.8532    0.0833 C   0  0  0  0  0  0  0  0  0  0  0  0
    1.9912    1.0277    0.4741 H   0  0  0  0  0  0  0  0  0  0  0  0
    0.0554   -0.5587    1.3749 C   0  0  0  0  0  0  0  0  0  0  0  0
    1.1422   -0.7590    1.9030 O   0  0  0  0  0  0  0  0  0  0  0  0
   -0.9610    0.0088    2.1242 N   0  0  0  0  0  0  0  0  0  0  0  0
   -1.8429    0.1819    1.6556 H   0  0  0  0  0  0  0  0  0  0  0  0
   -0.8010    0.4110    3.5153 C   0  0  0  0  0  0  0  0  0  0  0  0
   -0.0593    1.2124    3.5974 H   0  0  0  0  0  0  0  0  0  0  0  0
   -1.7517    0.7747    3.9164 H   0  0  0  0  0  0  0  0  0  0  0  0
   -0.4721   -0.4381    4.1237 H   0  0  0  0  0  0  0  0  0  0  0  0
  1  2  1  0  0  0  0
  2  3  1  0  0  0  0
  2  4  1  0  0  0  0
  2  5  1  0  0  0  0
  5  6  2  0  0  0  0
  5  7  1  0  0  0  0
  7  8  1  0  0  0  0
  7  9  1  0  0  0  0
  9 10  1  0  0  0  0
  9 11  1  0  0  0  0
  9 25  1  0  0  0  0
 11 12  1  0  0  0  0
 11 13  1  0  0  0  0
 11 14  1  0  0  0  0
 14 15  1  0  0  0  0
 14 23  2  0  0  0  0
 15 16  1  0  0  0  0
 15 17  2  0  0  0  0
 17 18  1  0  0  0  0
 17 19  1  0  0  0  0
 19 20  1  0  0  0  0
 19 21  2  0  0  0  0
 21 22  1  0  0  0  0
 21 23  1  0  0  0  0
 23 24  1  0  0  0  0
 25 26  2  0  0  0  0
 25 27  1  0  0  0  0
 27 28  1  0  0  0  0
 27 29  1  0  0  0  0
 29 30  1  0  0  0  0
 29 31  1  0  0  0  0
 29 32  1  0  0  0  0
M  END
$$$$

  -OEChem-03222214073D

 32 32  0     1  0  0  0  0  0999 V2000
   -3.2684   -4.3625    0.7889 H   0  0  0  0  0  0  0  0  0  0  0  0
   -3.1846   -3.4433    0.2021 C   0  0  0  0  0  0  0  0  0  0  0  0
   -3.9496   -2.7409    0.5407 H   0  0  0  0  0  0  0  0  0  0  0  0
   -3.3561   -3.6818   -0.8502 H   0  0  0  0  0  0  0  0  0  0  0  0
   -1.8054   -2.8355    0.3789 C   0  0  0  0  0  0  0  0  0  0  0  0
   -0.9844   -3.3959    1.0814 O   0  0  0  0  0  0  0  0  0  0  0  0
   -1.4880   -1.6603   -0.2756 N   0  0  0  0  0  0  0  0  0  0  0  0
   -2.2050   -1.2608   -0.8725 H   0  0  0  0  0  0  0  0  0  0  0  0
   -0.1986   -0.9487   -0.1429 C   0  0  1  0  0  0  0  0  0  0  0  0
    0.6148   -1.6301   -0.4158 H   0  0  0  0  0  0  0  0  0  0  0  0
   -0.2222    0.2165   -1.1768 C   0  0  0  0  0  0  0  0  0  0  0  0
    0.3992   -0.0838   -2.0266 H   0  0  0  0  0  0  0  0  0  0  0  0
   -1.2392    0.3303   -1.5639 H   0  0  0  0  0  0  0  0  0  0  0  0
    0.2540    1.5862   -0.7256 C   0  0  0  0  0  0  0  0  0  0  0  0
   -0.4979    2.7255   -1.0617 C   0  0  0  0  0  0  0  0  0  0  0  0
   -1.4473    2.6235   -1.5780 H   0  0  0  0  0  0  0  0  0  0  0  0
   -0.0488    4.0081   -0.7292 C   0  0  0  0  0  0  0  0  0  0  0  0
   -0.6512    4.8769   -0.9777 H   0  0  0  0  0  0  0  0  0  0  0  0
    1.1787    4.1731   -0.0835 C   0  0  0  0  0  0  0  0  0  0  0  0
    1.5295    5.1671    0.1781 H   0  0  0  0  0  0  0  0  0  0  0  0
    1.9628    3.0552    0.2095 C   0  0  0  0  0  0  0  0  0  0  0  0
    2.9274    3.1767    0.6938 H   0  0  0  0  0  0  0  0  0  0  0  0
    1.5123    1.7752   -0.1279 C   0  0  0  0  0  0  0  0  0  0  0  0
    2.1569    0.9262    0.0816 H   0  0  0  0  0  0  0  0  0  0  0  0
    0.0715   -0.5185    1.3215 C   0  0  0  0  0  0  0  0  0  0  0  0
    1.1836   -0.6671    1.8132 O   0  0  0  0  0  0  0  0  0  0  0  0
   -0.9279    0.0668    2.0793 N   0  0  0  0  0  0  0  0  0  0  0  0
   -1.8245    0.2147    1.6306 H   0  0  0  0  0  0  0  0  0  0  0  0
   -0.7199    0.5534    3.4366 C   0  0  0  0  0  0  0  0  0  0  0  0
    0.0123    1.3675    3.4412 H   0  0  0  0  0  0  0  0  0  0  0  0
   -1.6593    0.9286    3.8531 H   0  0  0  0  0  0  0  0  0  0  0  0
   -0.3545   -0.2538    4.0804 H   0  0  0  0  0  0  0  0  0  0  0  0
  1  2  1  0  0  0  0
  2  3  1  0  0  0  0
  2  4  1  0  0  0  0
  2  5  1  0  0  0  0
  5  6  2  0  0  0  0
  5  7  1  0  0  0  0
  7  8  1  0  0  0  0
  7  9  1  0  0  0  0
  9 10  1  0  0  0  0
  9 11  1  0  0  0  0
  9 25  1  0  0  0  0
 11 12  1  0  0  0  0
 11 13  1  0  0  0  0
 11 14  1  0  0  0  0
 14 15  1  0  0  0  0
 14 23  2  0  0  0  0
 15 16  1  0  0  0  0
 15 17  2  0  0  0  0
 17 18  1  0  0  0  0
 17 19  1  0  0  0  0
 19 20  1  0  0  0  0
 19 21  2  0  0  0  0
 21 22  1  0  0  0  0
 21 23  1  0  0  0  0
 23 24  1  0  0  0  0
 25 26  2  0  0  0  0
 25 27  1  0  0  0  0
 27 28  1  0  0  0  0
 27 29  1  0  0  0  0
 29 30  1  0  0  0  0
 29 31  1  0  0  0  0
 29 32  1  0  0  0  0
M  END
$$$$

  -OEChem-03222214073D

 32 32  0     1  0  0  0  0  0999 V2000
   -3.2334   -4.3839    0.8153 H   0  0  0  0  0  0  0  0  0  0  0  0
   -3.1676   -3.4698    0.2180 C   0  0  0  0  0  0  0  0  0  0  0  0
   -3.9494   -2.7803    0.5450 H   0  0  0  0  0  0  0  0  0  0  0  0
   -3.3286   -3.7240   -0.8324 H   0  0  0  0  0  0  0  0  0  0  0  0
   -1.8033   -2.8295    0.3935 C   0  0  0  0  0  0  0  0  0  0  0  0
   -0.9764   -3.3582    1.1136 O   0  0  0  0  0  0  0  0  0  0  0  0
   -1.5058   -1.6609   -0.2815 N   0  0  0  0  0  0  0  0  0  0  0  0
   -2.2238   -1.2902   -0.8956 H   0  0  0  0  0  0  0  0  0  0  0  0
   -0.2206   -0.9393   -0.1752 C   0  0  1  0  0  0  0  0  0  0  0  0
    0.5870   -1.6287   -0.4460 H   0  0  0  0  0  0  0  0  0  0  0  0
   -0.2409    0.2033   -1.2295 C   0  0  0  0  0  0  0  0  0  0  0  0
    0.3818   -0.1060   -2.0751 H   0  0  0  0  0  0  0  0  0  0  0  0
   -1.2561    0.3213   -1.6206 H   0  0  0  0  0  0  0  0  0  0  0  0
    0.2440    1.5611   -0.7633 C   0  0  0  0  0  0  0  0  0  0  0  0
   -0.6132    2.6730   -0.8056 C   0  0  0  0  0  0  0  0  0  0  0  0
   -1.6396    2.5636   -1.1408 H   0  0  0  0  0  0  0  0  0  0  0  0
   -0.1615    3.9376   -0.4126 C   0  0  0  0  0  0  0  0  0  0  0  0
   -0.8347    4.7891   -0.4403 H   0  0  0  0  0  0  0  0  0  0  0  0
    1.1584    4.1079    0.0137 C   0  0  0  0  0  0  0  0  0  0  0  0
    1.5105    5.0876    0.3231 H   0  0  0  0  0  0  0  0  0  0  0  0
    2.0277    3.0141    0.0368 C   0  0  0  0  0  0  0  0  0  0  0  0
    3.0551    3.1396    0.3659 H   0  0  0  0  0  0  0  0  0  0  0  0
    1.5755    1.7519   -0.3605 C   0  0  0  0  0  0  0  0  0  0  0  0
    2.2641    0.9112   -0.3364 H   0  0  0  0  0  0  0  0  0  0  0  0
    0.0898   -0.4771    1.2710 C   0  0  0  0  0  0  0  0  0  0  0  0
    1.2260   -0.5790    1.7176 O   0  0  0  0  0  0  0  0  0  0  0  0
   -0.8902    0.1200    2.0448 N   0  0  0  0  0  0  0  0  0  0  0  0
   -1.8084    0.2272    1.6297 H   0  0  0  0  0  0  0  0  0  0  0  0
   -0.6399    0.6574    3.3753 C   0  0  0  0  0  0  0  0  0  0  0  0
    0.0990    1.4642    3.3280 H   0  0  0  0  0  0  0  0  0  0  0  0
   -1.5639    1.0579    3.8027 H   0  0  0  0  0  0  0  0  0  0  0  0
   -0.2635   -0.1275    4.0398 H   0  0  0  0  0  0  0  0  0  0  0  0
  1  2  1  0  0  0  0
  2  3  1  0  0  0  0
  2  4  1  0  0  0  0
  2  5  1  0  0  0  0
  5  6  2  0  0  0  0
  5  7  1  0  0  0  0
  7  8  1  0  0  0  0
  7  9  1  0  0  0  0
  9 10  1  0  0  0  0
  9 11  1  0  0  0  0
  9 25  1  0  0  0  0
 11 12  1  0  0  0  0
 11 13  1  0  0  0  0
 11 14  1  0  0  0  0
 14 15  1  0  0  0  0
 14 23  2  0  0  0  0
 15 16  1  0  0  0  0
 15 17  2  0  0  0  0
 17 18  1  0  0  0  0
 17 19  1  0  0  0  0
 19 20  1  0  0  0  0
 19 21  2  0  0  0  0
 21 22  1  0  0  0  0
 21 23  1  0  0  0  0
 23 24  1  0  0  0  0
 25 26  2  0  0  0  0
 25 27  1  0  0  0  0
 27 28  1  0  0  0  0
 27 29  1  0  0  0  0
 29 30  1  0  0  0  0
 29 31  1  0  0  0  0
 29 32  1  0  0  0  0
M  END
$$$$

  -OEChem-03222214073D

 32 32  0     1  0  0  0  0  0999 V2000
   -3.2109   -4.3970    0.8251 H   0  0  0  0  0  0  0  0  0  0  0  0
   -3.1568   -3.4858    0.2225 C   0  0  0  0  0  0  0  0  0  0  0  0
   -3.9548   -2.8090    0.5369 H   0  0  0  0  0  0  0  0  0  0  0  0
   -3.3032   -3.7507   -0.8273 H   0  0  0  0  0  0  0  0  0  0  0  0
   -1.8065   -2.8186    0.4065 C   0  0  0  0  0  0  0  0  0  0  0  0
   -0.9812   -3.3192    1.1482 O   0  0  0  0  0  0  0  0  0  0  0  0
   -1.5218   -1.6541   -0.2806 N   0  0  0  0  0  0  0  0  0  0  0  0
   -2.2292   -1.3189   -0.9268 H   0  0  0  0  0  0  0  0  0  0  0  0
   -0.2390   -0.9263   -0.1956 C   0  0  1  0  0  0  0  0  0  0  0  0
    0.5638   -1.6214   -0.4665 H   0  0  0  0  0  0  0  0  0  0  0  0
   -0.2579    0.1989   -1.2655 C   0  0  0  0  0  0  0  0  0  0  0  0
    0.3610   -0.1205   -2.1102 H   0  0  0  0  0  0  0  0  0  0  0  0
   -1.2731    0.3225   -1.6549 H   0  0  0  0  0  0  0  0  0  0  0  0
    0.2330    1.5508   -0.7965 C   0  0  0  0  0  0  0  0  0  0  0  0
   -0.6741    2.5919   -0.5415 C   0  0  0  0  0  0  0  0  0  0  0  0
   -1.7397    2.4364   -0.6763 H   0  0  0  0  0  0  0  0  0  0  0  0
   -0.2176    3.8420   -0.1093 C   0  0  0  0  0  0  0  0  0  0  0  0
   -0.9247    4.6424    0.0868 H   0  0  0  0  0  0  0  0  0  0  0  0
    1.1506    4.0624    0.0726 C   0  0  0  0  0  0  0  0  0  0  0  0
    1.5071    5.0301    0.4124 H   0  0  0  0  0  0  0  0  0  0  0  0
    2.0612    3.0325   -0.1790 C   0  0  0  0  0  0  0  0  0  0  0  0
    3.1242    3.1956   -0.0289 H   0  0  0  0  0  0  0  0  0  0  0  0
    1.6043    1.7848   -0.6151 C   0  0  0  0  0  0  0  0  0  0  0  0
    2.3202    0.9868   -0.7909 H   0  0  0  0  0  0  0  0  0  0  0  0
    0.1039   -0.4441    1.2365 C   0  0  0  0  0  0  0  0  0  0  0  0
    1.2577   -0.5081    1.6435 O   0  0  0  0  0  0  0  0  0  0  0  0
   -0.8596    0.1604    2.0251 N   0  0  0  0  0  0  0  0  0  0  0  0
   -1.8006    0.2102    1.6523 H   0  0  0  0  0  0  0  0  0  0  0  0
   -0.5801    0.7190    3.3409 C   0  0  0  0  0  0  0  0  0  0  0  0
    0.1597    1.5229    3.2642 H   0  0  0  0  0  0  0  0  0  0  0  0
   -1.4938    1.1298    3.7800 H   0  0  0  0  0  0  0  0  0  0  0  0
   -0.1923   -0.0558    4.0106 H   0  0  0  0  0  0  0  0  0  0  0  0
  1  2  1  0  0  0  0
  2  3  1  0  0  0  0
  2  4  1  0  0  0  0
  2  5  1  0  0  0  0
  5  6  2  0  0  0  0
  5  7  1  0  0  0  0
  7  8  1  0  0  0  0
  7  9  1  0  0  0  0
  9 10  1  0  0  0  0
  9 11  1  0  0  0  0
  9 25  1  0  0  0  0
 11 12  1  0  0  0  0
 11 13  1  0  0  0  0
 11 14  1  0  0  0  0
 14 15  1  0  0  0  0
 14 23  2  0  0  0  0
 15 16  1  0  0  0  0
 15 17  2  0  0  0  0
 17 18  1  0  0  0  0
 17 19  1  0  0  0  0
 19 20  1  0  0  0  0
 19 21  2  0  0  0  0
 21 22  1  0  0  0  0
 21 23  1  0  0  0  0
 23 24  1  0  0  0  0
 25 26  2  0  0  0  0
 25 27  1  0  0  0  0
 27 28  1  0  0  0  0
 27 29  1  0  0  0  0
 29 30  1  0  0  0  0
 29 31  1  0  0  0  0
 29 32  1  0  0  0  0
M  END
$$$$

  -OEChem-03222214073D

 32 32  0     1  0  0  0  0  0999 V2000
   -3.1986   -4.4052    0.8234 H   0  0  0  0  0  0  0  0  0  0  0  0
   -3.1520   -3.4948    0.2186 C   0  0  0  0  0  0  0  0  0  0  0  0
   -3.9598   -2.8268    0.5264 H   0  0  0  0  0  0  0  0  0  0  0  0
   -3.2889   -3.7632   -0.8317 H   0  0  0  0  0  0  0  0  0  0  0  0
   -1.8114   -2.8106    0.4100 C   0  0  0  0  0  0  0  0  0  0  0  0
   -0.9868   -3.2965    1.1621 O   0  0  0  0  0  0  0  0  0  0  0  0
   -1.5375   -1.6425   -0.2749 N   0  0  0  0  0  0  0  0  0  0  0  0
   -2.2421   -1.3204   -0.9310 H   0  0  0  0  0  0  0  0  0  0  0  0
   -0.2571   -0.9100   -0.1973 C   0  0  1  0  0  0  0  0  0  0  0  0
    0.5409   -1.6116   -0.4660 H   0  0  0  0  0  0  0  0  0  0  0  0
   -0.2613    0.2017   -1.2802 C   0  0  0  0  0  0  0  0  0  0  0  0
    0.3573   -0.1330   -2.1193 H   0  0  0  0  0  0  0  0  0  0  0  0
   -1.2742    0.3308   -1.6739 H   0  0  0  0  0  0  0  0  0  0  0  0
    0.2296    1.5565   -0.8220 C   0  0  0  0  0  0  0  0  0  0  0  0
   -0.6647    2.5007   -0.2925 C   0  0  0  0  0  0  0  0  0  0  0  0
   -1.7225    2.2703   -0.2194 H   0  0  0  0  0  0  0  0  0  0  0  0
   -0.2046    3.7464    0.1478 C   0  0  0  0  0  0  0  0  0  0  0  0
   -0.9023    4.4720    0.5546 H   0  0  0  0  0  0  0  0  0  0  0  0
    1.1560    4.0568    0.0694 C   0  0  0  0  0  0  0  0  0  0  0  0
    1.5164    5.0211    0.4150 H   0  0  0  0  0  0  0  0  0  0  0  0
    2.0552    3.1190   -0.4461 C   0  0  0  0  0  0  0  0  0  0  0  0
    3.1149    3.3508   -0.4947 H   0  0  0  0  0  0  0  0  0  0  0  0
    1.5939    1.8749   -0.8886 C   0  0  0  0  0  0  0  0  0  0  0  0
    2.3054    1.1475   -1.2682 H   0  0  0  0  0  0  0  0  0  0  0  0
    0.1058   -0.4273    1.2295 C   0  0  0  0  0  0  0  0  0  0  0  0
    1.2705   -0.4627    1.6070 O   0  0  0  0  0  0  0  0  0  0  0  0
   -0.8469    0.1737    2.0338 N   0  0  0  0  0  0  0  0  0  0  0  0
   -1.8064    0.1524    1.7089 H   0  0  0  0  0  0  0  0  0  0  0  0
   -0.5502    0.7156    3.3529 C   0  0  0  0  0  0  0  0  0  0  0  0
    0.2064    1.5041    3.2792 H   0  0  0  0  0  0  0  0  0  0  0  0
   -1.4530    1.1432    3.7990 H   0  0  0  0  0  0  0  0  0  0  0  0
   -0.1754   -0.0724    4.0149 H   0  0  0  0  0  0  0  0  0  0  0  0
  1  2  1  0  0  0  0
  2  3  1  0  0  0  0
  2  4  1  0  0  0  0
  2  5  1  0  0  0  0
  5  6  2  0  0  0  0
  5  7  1  0  0  0  0
  7  8  1  0  0  0  0
  7  9  1  0  0  0  0
  9 10  1  0  0  0  0
  9 11  1  0  0  0  0
  9 25  1  0  0  0  0
 11 12  1  0  0  0  0
 11 13  1  0  0  0  0
 11 14  1  0  0  0  0
 14 15  1  0  0  0  0
 14 23  2  0  0  0  0
 15 16  1  0  0  0  0
 15 17  2  0  0  0  0
 17 18  1  0  0  0  0
 17 19  1  0  0  0  0
 19 20  1  0  0  0  0
 19 21  2  0  0  0  0
 21 22  1  0  0  0  0
 21 23  1  0  0  0  0
 23 24  1  0  0  0  0
 25 26  2  0  0  0  0
 25 27  1  0  0  0  0
 27 28  1  0  0  0  0
 27 29  1  0  0  0  0
 29 30  1  0  0  0  0
 29 31  1  0  0  0  0
 29 32  1  0  0  0  0
M  END
$$$$

  -OEChem-03222214073D

 32 32  0     1  0  0  0  0  0999 V2000
   -3.1904   -4.4260    0.7794 H   0  0  0  0  0  0  0  0  0  0  0  0
   -3.1488   -3.5043    0.1918 C   0  0  0  0  0  0  0  0  0  0  0  0
   -3.9697   -2.8531    0.5014 H   0  0  0  0  0  0  0  0  0  0  0  0
   -3.2697   -3.7561   -0.8646 H   0  0  0  0  0  0  0  0  0  0  0  0
   -1.8198   -2.8058    0.4113 C   0  0  0  0  0  0  0  0  0  0  0  0
   -1.0004   -3.2896    1.1703 O   0  0  0  0  0  0  0  0  0  0  0  0
   -1.5512   -1.6251   -0.2538 N   0  0  0  0  0  0  0  0  0  0  0  0
   -2.2483   -1.3073   -0.9200 H   0  0  0  0  0  0  0  0  0  0  0  0
   -0.2728   -0.8896   -0.1700 C   0  0  1  0  0  0  0  0  0  0  0  0
    0.5209   -1.5972   -0.4354 H   0  0  0  0  0  0  0  0  0  0  0  0
   -0.2518    0.2111   -1.2652 C   0  0  0  0  0  0  0  0  0  0  0  0
    0.3693   -0.1460   -2.0931 H   0  0  0  0  0  0  0  0  0  0  0  0
   -1.2603    0.3409   -1.6693 H   0  0  0  0  0  0  0  0  0  0  0  0
    0.2329    1.5798   -0.8386 C   0  0  0  0  0  0  0  0  0  0  0  0
   -0.5784    2.4297   -0.0696 C   0  0  0  0  0  0  0  0  0  0  0  0
   -1.5792    2.1199    0.2118 H   0  0  0  0  0  0  0  0  0  0  0  0
   -0.1109    3.6817    0.3430 C   0  0  0  0  0  0  0  0  0  0  0  0
   -0.7458    4.3301    0.9392 H   0  0  0  0  0  0  0  0  0  0  0  0
    1.1772    4.0960   -0.0062 C   0  0  0  0  0  0  0  0  0  0  0  0
    1.5444    5.0653    0.3172 H   0  0  0  0  0  0  0  0  0  0  0  0
    1.9969    3.2555   -0.7644 C   0  0  0  0  0  0  0  0  0  0  0  0
    3.0028    3.5698   -1.0263 H   0  0  0  0  0  0  0  0  0  0  0  0
    1.5272    2.0036   -1.1755 C   0  0  0  0  0  0  0  0  0  0  0  0
    2.1828    1.3547   -1.7483 H   0  0  0  0  0  0  0  0  0  0  0  0
    0.0971   -0.4299    1.2622 C   0  0  0  0  0  0  0  0  0  0  0  0
    1.2669   -0.4484    1.6238 O   0  0  0  0  0  0  0  0  0  0  0  0
   -0.8526    0.1531    2.0837 N   0  0  0  0  0  0  0  0  0  0  0  0
   -1.8198    0.0732    1.7920 H   0  0  0  0  0  0  0  0  0  0  0  0
   -0.5525    0.6432    3.4222 C   0  0  0  0  0  0  0  0  0  0  0  0
    0.2096    1.4285    3.3785 H   0  0  0  0  0  0  0  0  0  0  0  0
   -1.4522    1.0614    3.8830 H   0  0  0  0  0  0  0  0  0  0  0  0
   -0.1843   -0.1717    4.0543 H   0  0  0  0  0  0  0  0  0  0  0  0
  1  2  1  0  0  0  0
  2  3  1  0  0  0  0
  2  4  1  0  0  0  0
  2  5  1  0  0  0  0
  5  6  2  0  0  0  0
  5  7  1  0  0  0  0
  7  8  1  0  0  0  0
  7  9  1  0  0  0  0
  9 10  1  0  0  0  0
  9 11  1  0  0  0  0
  9 25  1  0  0  0  0
 11 12  1  0  0  0  0
 11 13  1  0  0  0  0
 11 14  1  0  0  0  0
 14 15  1  0  0  0  0
 14 23  2  0  0  0  0
 15 16  1  0  0  0  0
 15 17  2  0  0  0  0
 17 18  1  0  0  0  0
 17 19  1  0  0  0  0
 19 20  1  0  0  0  0
 19 21  2  0  0  0  0
 21 22  1  0  0  0  0
 21 23  1  0  0  0  0
 23 24  1  0  0  0  0
 25 26  2  0  0  0  0
 25 27  1  0  0  0  0
 27 28  1  0  0  0  0
 27 29  1  0  0  0  0
 29 30  1  0  0  0  0
 29 31  1  0  0  0  0
 29 32  1  0  0  0  0
M  END
$$$$

  -OEChem-03222214073D

 32 32  0     1  0  0  0  0  0999 V2000
   -3.1816   -4.4547    0.7133 H   0  0  0  0  0  0  0  0  0  0  0  0
   -3.1466   -3.5170    0.1511 C   0  0  0  0  0  0  0  0  0  0  0  0
   -3.9718   -2.8803    0.4789 H   0  0  0  0  0  0  0  0  0  0  0  0
   -3.2662   -3.7408   -0.9117 H   0  0  0  0  0  0  0  0  0  0  0  0
   -1.8220   -2.8158    0.3878 C   0  0  0  0  0  0  0  0  0  0  0  0
   -0.9944   -3.3202    1.1244 O   0  0  0  0  0  0  0  0  0  0  0  0
   -1.5659   -1.6088   -0.2342 N   0  0  0  0  0  0  0  0  0  0  0  0
   -2.2750   -1.2633   -0.8736 H   0  0  0  0  0  0  0  0  0  0  0  0
   -0.2940   -0.8653   -0.1271 C   0  0  1  0  0  0  0  0  0  0  0  0
    0.4962   -1.5775   -0.3914 H   0  0  0  0  0  0  0  0  0  0  0  0
   -0.2332    0.2284   -1.2317 C   0  0  0  0  0  0  0  0  0  0  0  0
    0.4053   -0.1521   -2.0355 H   0  0  0  0  0  0  0  0  0  0  0  0
   -1.2310    0.3490   -1.6637 H   0  0  0  0  0  0  0  0  0  0  0  0
    0.2342    1.6205   -0.8496 C   0  0  0  0  0  0  0  0  0  0  0  0
   -0.4368    2.3987    0.1083 C   0  0  0  0  0  0  0  0  0  0  0  0
   -1.3497    2.0369    0.5664 H   0  0  0  0  0  0  0  0  0  0  0  0
    0.0414    3.6620    0.4709 C   0  0  0  0  0  0  0  0  0  0  0  0
   -0.4879    4.2510    1.2136 H   0  0  0  0  0  0  0  0  0  0  0  0
    1.2026    4.1657   -0.1195 C   0  0  0  0  0  0  0  0  0  0  0  0
    1.5780    5.1443    0.1647 H   0  0  0  0  0  0  0  0  0  0  0  0
    1.8833    3.4032   -1.0718 C   0  0  0  0  0  0  0  0  0  0  0  0
    2.7915    3.7873   -1.5265 H   0  0  0  0  0  0  0  0  0  0  0  0
    1.4030    2.1393   -1.4308 C   0  0  0  0  0  0  0  0  0  0  0  0
    1.9574    1.5562   -2.1599 H   0  0  0  0  0  0  0  0  0  0  0  0
    0.0808   -0.4529    1.3177 C   0  0  0  0  0  0  0  0  0  0  0  0
    1.2545   -0.4590    1.6660 O   0  0  0  0  0  0  0  0  0  0  0  0
   -0.8673    0.0916    2.1674 N   0  0  0  0  0  0  0  0  0  0  0  0
   -1.8372   -0.0161    1.8925 H   0  0  0  0  0  0  0  0  0  0  0  0
   -0.5608    0.5245    3.5245 C   0  0  0  0  0  0  0  0  0  0  0  0
    0.2028    1.3095    3.5115 H   0  0  0  0  0  0  0  0  0  0  0  0
   -1.4578    0.9246    4.0062 H   0  0  0  0  0  0  0  0  0  0  0  0
   -0.1915   -0.3170    4.1200 H   0  0  0  0  0  0  0  0  0  0  0  0
  1  2  1  0  0  0  0
  2  3  1  0  0  0  0
  2  4  1  0  0  0  0
  2  5  1  0  0  0  0
  5  6  2  0  0  0  0
  5  7  1  0  0  0  0
  7  8  1  0  0  0  0
  7  9  1  0  0  0  0
  9 10  1  0  0  0  0
  9 11  1  0  0  0  0
  9 25  1  0  0  0  0
 11 12  1  0  0  0  0
 11 13  1  0  0  0  0
 11 14  1  0  0  0  0
 14 15  1  0  0  0  0
 14 23  2  0  0  0  0
 15 16  1  0  0  0  0
 15 17  2  0  0  0  0
 17 18  1  0  0  0  0
 17 19  1  0  0  0  0
 19 20  1  0  0  0  0
 19 21  2  0  0  0  0
 21 22  1  0  0  0  0
 21 23  1  0  0  0  0
 23 24  1  0  0  0  0
 25 26  2  0  0  0  0
 25 27  1  0  0  0  0
 27 28  1  0  0  0  0
 27 29  1  0  0  0  0
 29 30  1  0  0  0  0
 29 31  1  0  0  0  0
 29 32  1  0  0  0  0
M  END
$$$$

  -OEChem-03222214073D

 32 32  0     1  0  0  0  0  0999 V2000
   -3.1836   -4.4787    0.5929 H   0  0  0  0  0  0  0  0  0  0  0  0
   -3.1495   -3.5157    0.0753 C   0  0  0  0  0  0  0  0  0  0  0  0
   -3.9822   -2.9002    0.4239 H   0  0  0  0  0  0  0  0  0  0  0  0
   -3.2573   -3.6903   -0.9979 H   0  0  0  0  0  0  0  0  0  0  0  0
   -1.8317   -2.8182    0.3576 C   0  0  0  0  0  0  0  0  0  0  0  0
   -1.0091   -3.3486    1.0813 O   0  0  0  0  0  0  0  0  0  0  0  0
   -1.5769   -1.5829   -0.2067 N   0  0  0  0  0  0  0  0  0  0  0  0
   -2.2855   -1.2108   -0.8317 H   0  0  0  0  0  0  0  0  0  0  0  0
   -0.3092   -0.8380   -0.0618 C   0  0  1  0  0  0  0  0  0  0  0  0
    0.4775   -1.5538   -0.3277 H   0  0  0  0  0  0  0  0  0  0  0  0
   -0.2069    0.2559   -1.1669 C   0  0  0  0  0  0  0  0  0  0  0  0
    0.4550   -0.1448   -1.9417 H   0  0  0  0  0  0  0  0  0  0  0  0
   -1.1909    0.3634   -1.6324 H   0  0  0  0  0  0  0  0  0  0  0  0
    0.2446    1.6720   -0.8380 C   0  0  0  0  0  0  0  0  0  0  0  0
   -0.2259    2.4101    0.2619 C   0  0  0  0  0  0  0  0  0  0  0  0
   -1.0099    2.0239    0.8975 H   0  0  0  0  0  0  0  0  0  0  0  0
    0.2636    3.6915    0.5364 C   0  0  0  0  0  0  0  0  0  0  0  0
   -0.1163    4.2463    1.3891 H   0  0  0  0  0  0  0  0  0  0  0  0
    1.2380    4.2599   -0.2858 C   0  0  0  0  0  0  0  0  0  0  0  0
    1.6215    5.2531   -0.0717 H   0  0  0  0  0  0  0  0  0  0  0  0
    1.7174    3.5448   -1.3844 C   0  0  0  0  0  0  0  0  0  0  0  0
    2.4792    3.9800   -2.0244 H   0  0  0  0  0  0  0  0  0  0  0  0
    1.2250    2.2638   -1.6545 C   0  0  0  0  0  0  0  0  0  0  0  0
    1.6255    1.7240   -2.5071 H   0  0  0  0  0  0  0  0  0  0  0  0
    0.0597   -0.4893    1.4006 C   0  0  0  0  0  0  0  0  0  0  0  0
    1.2334   -0.4940    1.7479 O   0  0  0  0  0  0  0  0  0  0  0  0
   -0.8914    0.0101    2.2744 N   0  0  0  0  0  0  0  0  0  0  0  0
   -1.8603   -0.1083    1.9992 H   0  0  0  0  0  0  0  0  0  0  0  0
   -0.5903    0.3454    3.6605 C   0  0  0  0  0  0  0  0  0  0  0  0
    0.1665    1.1358    3.7068 H   0  0  0  0  0  0  0  0  0  0  0  0
   -1.4916    0.7009    4.1686 H   0  0  0  0  0  0  0  0  0  0  0  0
   -0.2143   -0.5341    4.1939 H   0  0  0  0  0  0  0  0  0  0  0  0
  1  2  1  0  0  0  0
  2  3  1  0  0  0  0
  2  4  1  0  0  0  0
  2  5  1  0  0  0  0
  5  6  2  0  0  0  0
  5  7  1  0  0  0  0
  7  8  1  0  0  0  0
  7  9  1  0  0  0  0
  9 10  1  0  0  0  0
  9 11  1  0  0  0  0
  9 25  1  0  0  0  0
 11 12  1  0  0  0  0
 11 13  1  0  0  0  0
 11 14  1  0  0  0  0
 14 15  1  0  0  0  0
 14 23  2  0  0  0  0
 15 16  1  0  0  0  0
 15 17  2  0  0  0  0
 17 18  1  0  0  0  0
 17 19  1  0  0  0  0
 19 20  1  0  0  0  0
 19 21  2  0  0  0  0
 21 22  1  0  0  0  0
 21 23  1  0  0  0  0
 23 24  1  0  0  0  0
 25 26  2  0  0  0  0
 25 27  1  0  0  0  0
 27 28  1  0  0  0  0
 27 29  1  0  0  0  0
 29 30  1  0  0  0  0
 29 31  1  0  0  0  0
 29 32  1  0  0  0  0
M  END
$$$$

  -OEChem-03222214073D

 32 32  0     1  0  0  0  0  0999 V2000
   -3.2572   -4.4238    0.5163 H   0  0  0  0  0  0  0  0  0  0  0  0
   -3.1861   -3.4546    0.0140 C   0  0  0  0  0  0  0  0  0  0  0  0
   -3.9966   -2.8144    0.3704 H   0  0  0  0  0  0  0  0  0  0  0  0
   -3.2962   -3.6085   -1.0621 H   0  0  0  0  0  0  0  0  0  0  0  0
   -1.8451   -2.8103    0.3118 C   0  0  0  0  0  0  0  0  0  0  0  0
   -1.0383   -3.3905    1.0148 O   0  0  0  0  0  0  0  0  0  0  0  0
   -1.5532   -1.5646   -0.2104 N   0  0  0  0  0  0  0  0  0  0  0  0
   -2.2565   -1.1425   -0.8093 H   0  0  0  0  0  0  0  0  0  0  0  0
   -0.2772   -0.8455   -0.0109 C   0  0  1  0  0  0  0  0  0  0  0  0
    0.5113   -1.5615   -0.2710 H   0  0  0  0  0  0  0  0  0  0  0  0
   -0.1378    0.2790   -1.0848 C   0  0  0  0  0  0  0  0  0  0  0  0
    0.5357   -0.1260   -1.8474 H   0  0  0  0  0  0  0  0  0  0  0  0
   -1.1117    0.3961   -1.5694 H   0  0  0  0  0  0  0  0  0  0  0  0
    0.3212    1.7044   -0.7830 C   0  0  0  0  0  0  0  0  0  0  0  0
    0.1245    2.4062    0.4211 C   0  0  0  0  0  0  0  0  0  0  0  0
   -0.4338    1.9935    1.2442 H   0  0  0  0  0  0  0  0  0  0  0  0
    0.6151    3.7054    0.5937 C   0  0  0  0  0  0  0  0  0  0  0  0
    0.4504    4.2239    1.5337 H   0  0  0  0  0  0  0  0  0  0  0  0
    1.3133    4.3367   -0.4358 C   0  0  0  0  0  0  0  0  0  0  0  0
    1.6969    5.3435   -0.2996 H   0  0  0  0  0  0  0  0  0  0  0  0
    1.5154    3.6652   -1.6409 C   0  0  0  0  0  0  0  0  0  0  0  0
    2.0591    4.1489   -2.4469 H   0  0  0  0  0  0  0  0  0  0  0  0
    1.0237    2.3667   -1.8080 C   0  0  0  0  0  0  0  0  0  0  0  0
    1.2035    1.8679   -2.7555 H   0  0  0  0  0  0  0  0  0  0  0  0
    0.0225   -0.5612    1.4794 C   0  0  0  0  0  0  0  0  0  0  0  0
    1.1764   -0.5836    1.8861 O   0  0  0  0  0  0  0  0  0  0  0  0
   -0.9709   -0.0824    2.3182 N   0  0  0  0  0  0  0  0  0  0  0  0
   -1.9234   -0.1712    1.9809 H   0  0  0  0  0  0  0  0  0  0  0  0
   -0.7494    0.1769    3.7354 C   0  0  0  0  0  0  0  0  0  0  0  0
    0.0300    0.9344    3.8696 H   0  0  0  0  0  0  0  0  0  0  0  0
   -1.6691    0.5423    4.2018 H   0  0  0  0  0  0  0  0  0  0  0  0
   -0.4409   -0.7405    4.2477 H   0  0  0  0  0  0  0  0  0  0  0  0
  1  2  1  0  0  0  0
  2  3  1  0  0  0  0
  2  4  1  0  0  0  0
  2  5  1  0  0  0  0
  5  6  2  0  0  0  0
  5  7  1  0  0  0  0
  7  8  1  0  0  0  0
  7  9  1  0  0  0  0
  9 10  1  0  0  0  0
  9 11  1  0  0  0  0
  9 25  1  0  0  0  0
 11 12  1  0  0  0  0
 11 13  1  0  0  0  0
 11 14  1  0  0  0  0
 14 15  1  0  0  0  0
 14 23  2  0  0  0  0
 15 16  1  0  0  0  0
 15 17  2  0  0  0  0
 17 18  1  0  0  0  0
 17 19  1  0  0  0  0
 19 20  1  0  0  0  0
 19 21  2  0  0  0  0
 21 22  1  0  0  0  0
 21 23  1  0  0  0  0
 23 24  1  0  0  0  0
 25 26  2  0  0  0  0
 25 27  1  0  0  0  0
 27 28  1  0  0  0  0
 27 29  1  0  0  0  0
 29 30  1  0  0  0  0
 29 31  1  0  0  0  0
 29 32  1  0  0  0  0
M  END
$$$$

  -OEChem-03222214073D

 32 32  0     1  0  0  0  0  0999 V2000
   -3.3418   -4.3464    0.5235 H   0  0  0  0  0  0  0  0  0  0  0  0
   -3.2348   -3.3813    0.0201 C   0  0  0  0  0  0  0  0  0  0  0  0
   -4.0169   -2.7090    0.3803 H   0  0  0  0  0  0  0  0  0  0  0  0
   -3.3568   -3.5308   -1.0554 H   0  0  0  0  0  0  0  0  0  0  0  0
   -1.8672   -2.7916    0.3091 C   0  0  0  0  0  0  0  0  0  0  0  0
   -1.0756   -3.4107    0.9960 O   0  0  0  0  0  0  0  0  0  0  0  0
   -1.5317   -1.5560   -0.2118 N   0  0  0  0  0  0  0  0  0  0  0  0
   -2.2229   -1.1075   -0.8053 H   0  0  0  0  0  0  0  0  0  0  0  0
   -0.2249   -0.8876   -0.0252 C   0  0  1  0  0  0  0  0  0  0  0  0
    0.5520   -1.5993   -0.3279 H   0  0  0  0  0  0  0  0  0  0  0  0
   -0.1345    0.2953   -1.0427 C   0  0  0  0  0  0  0  0  0  0  0  0
    0.4876   -0.0787   -1.8629 H   0  0  0  0  0  0  0  0  0  0  0  0
   -1.1351    0.4435   -1.4599 H   0  0  0  0  0  0  0  0  0  0  0  0
    0.3601    1.7109   -0.7348 C   0  0  0  0  0  0  0  0  0  0  0  0
    0.5483    2.3123    0.5280 C   0  0  0  0  0  0  0  0  0  0  0  0
    0.3698    1.8075    1.4626 H   0  0  0  0  0  0  0  0  0  0  0  0
    0.9985    3.6323    0.6435 C   0  0  0  0  0  0  0  0  0  0  0  0
    1.1422    4.0669    1.6283 H   0  0  0  0  0  0  0  0  0  0  0  0
    1.2684    4.3894   -0.4959 C   0  0  0  0  0  0  0  0  0  0  0  0
    1.6201    5.4126   -0.4020 H   0  0  0  0  0  0  0  0  0  0  0  0
    1.0870    3.8213   -1.7554 C   0  0  0  0  0  0  0  0  0  0  0  0
    1.2969    4.4023   -2.6485 H   0  0  0  0  0  0  0  0  0  0  0  0
    0.6386    2.5018   -1.8668 C   0  0  0  0  0  0  0  0  0  0  0  0
    0.5083    2.0866   -2.8616 H   0  0  0  0  0  0  0  0  0  0  0  0
    0.0675   -0.6383    1.4701 C   0  0  0  0  0  0  0  0  0  0  0  0
    1.2098   -0.7326    1.8992 O   0  0  0  0  0  0  0  0  0  0  0  0
   -0.9219   -0.1327    2.2984 N   0  0  0  0  0  0  0  0  0  0  0  0
   -1.8664   -0.1398    1.9284 H   0  0  0  0  0  0  0  0  0  0  0  0
   -0.7293    0.0654    3.7295 C   0  0  0  0  0  0  0  0  0  0  0  0
    0.1079    0.7468    3.9146 H   0  0  0  0  0  0  0  0  0  0  0  0
   -1.6294    0.4982    4.1762 H   0  0  0  0  0  0  0  0  0  0  0  0
   -0.5212   -0.8905    4.2217 H   0  0  0  0  0  0  0  0  0  0  0  0
  1  2  1  0  0  0  0
  2  3  1  0  0  0  0
  2  4  1  0  0  0  0
  2  5  1  0  0  0  0
  5  6  2  0  0  0  0
  5  7  1  0  0  0  0
  7  8  1  0  0  0  0
  7  9  1  0  0  0  0
  9 10  1  0  0  0  0
  9 11  1  0  0  0  0
  9 25  1  0  0  0  0
 11 12  1  0  0  0  0
 11 13  1  0  0  0  0
 11 14  1  0  0  0  0
 14 15  1  0  0  0  0
 14 23  2  0  0  0  0
 15 16  1  0  0  0  0
 15 17  2  0  0  0  0
 17 18  1  0  0  0  0
 17 19  1  0  0  0  0
 19 20  1  0  0  0  0
 19 21  2  0  0  0  0
 21 22  1  0  0  0  0
 21 23  1  0  0  0  0
 23 24  1  0  0  0  0
 25 26  2  0  0  0  0
 25 27  1  0  0  0  0
 27 28  1  0  0  0  0
 27 29  1  0  0  0  0
 29 30  1  0  0  0  0
 29 31  1  0  0  0  0
 29 32  1  0  0  0  0
M  END
$$$$

  -OEChem-03222214073D

 32 32  0     1  0  0  0  0  0999 V2000
   -3.4090   -4.2799    0.5746 H   0  0  0  0  0  0  0  0  0  0  0  0
   -3.2742   -3.3274    0.0540 C   0  0  0  0  0  0  0  0  0  0  0  0
   -4.0220   -2.6193    0.4187 H   0  0  0  0  0  0  0  0  0  0  0  0
   -3.4236   -3.4876   -1.0165 H   0  0  0  0  0  0  0  0  0  0  0  0
   -1.8791   -2.7878    0.3078 C   0  0  0  0  0  0  0  0  0  0  0  0
   -1.0935   -3.4347    0.9755 O   0  0  0  0  0  0  0  0  0  0  0  0
   -1.5103   -1.5698   -0.2316 N   0  0  0  0  0  0  0  0  0  0  0  0
   -2.2010   -1.0966   -0.8057 H   0  0  0  0  0  0  0  0  0  0  0  0
   -0.1880   -0.9313   -0.0477 C   0  0  1  0  0  0  0  0  0  0  0  0
    0.5842   -1.6449   -0.3582 H   0  0  0  0  0  0  0  0  0  0  0  0
   -0.1221    0.2687   -1.0488 C   0  0  0  0  0  0  0  0  0  0  0  0
    0.4806   -0.0875   -1.8909 H   0  0  0  0  0  0  0  0  0  0  0  0
   -1.1332    0.4233   -1.4387 H   0  0  0  0  0  0  0  0  0  0  0  0
    0.3852    1.6793   -0.7354 C   0  0  0  0  0  0  0  0  0  0  0  0
    0.8873    2.1792    0.4864 C   0  0  0  0  0  0  0  0  0  0  0  0
    1.0141    1.5811    1.3749 H   0  0  0  0  0  0  0  0  0  0  0  0
    1.2938    3.5123    0.6123 C   0  0  0  0  0  0  0  0  0  0  0  0
    1.6848    3.8670    1.5615 H   0  0  0  0  0  0  0  0  0  0  0  0
    1.2107    4.3828   -0.4738 C   0  0  0  0  0  0  0  0  0  0  0  0
    1.5310    5.4157   -0.3724 H   0  0  0  0  0  0  0  0  0  0  0  0
    0.7211    3.9145   -1.6915 C   0  0  0  0  0  0  0  0  0  0  0  0
    0.6576    4.5843   -2.5439 H   0  0  0  0  0  0  0  0  0  0  0  0
    0.3157    2.5822   -1.8142 C   0  0  0  0  0  0  0  0  0  0  0  0
   -0.0603    2.2463   -2.7760 H   0  0  0  0  0  0  0  0  0  0  0  0
    0.0954   -0.6673    1.4458 C   0  0  0  0  0  0  0  0  0  0  0  0
    1.2158   -0.8533    1.9038 O   0  0  0  0  0  0  0  0  0  0  0  0
   -0.8836   -0.1222    2.2590 N   0  0  0  0  0  0  0  0  0  0  0  0
   -1.8114   -0.0296    1.8603 H   0  0  0  0  0  0  0  0  0  0  0  0
   -0.6974    0.1096    3.6856 C   0  0  0  0  0  0  0  0  0  0  0  0
    0.1067    0.8333    3.8546 H   0  0  0  0  0  0  0  0  0  0  0  0
   -1.6166    0.5050    4.1278 H   0  0  0  0  0  0  0  0  0  0  0  0
   -0.4422   -0.8261    4.1944 H   0  0  0  0  0  0  0  0  0  0  0  0
  1  2  1  0  0  0  0
  2  3  1  0  0  0  0
  2  4  1  0  0  0  0
  2  5  1  0  0  0  0
  5  6  2  0  0  0  0
  5  7  1  0  0  0  0
  7  8  1  0  0  0  0
  7  9  1  0  0  0  0
  9 10  1  0  0  0  0
  9 11  1  0  0  0  0
  9 25  1  0  0  0  0
 11 12  1  0  0  0  0
 11 13  1  0  0  0  0
 11 14  1  0  0  0  0
 14 15  1  0  0  0  0
 14 23  2  0  0  0  0
 15 16  1  0  0  0  0
 15 17  2  0  0  0  0
 17 18  1  0  0  0  0
 17 19  1  0  0  0  0
 19 20  1  0  0  0  0
 19 21  2  0  0  0  0
 21 22  1  0  0  0  0
 21 23  1  0  0  0  0
 23 24  1  0  0  0  0
 25 26  2  0  0  0  0
 25 27  1  0  0  0  0
 27 28  1  0  0  0  0
 27 29  1  0  0  0  0
 29 30  1  0  0  0  0
 29 31  1  0  0  0  0
 29 32  1  0  0  0  0
M  END
$$$$

  -OEChem-03222214073D

 32 32  0     1  0  0  0  0  0999 V2000
   -3.3917   -4.2574    0.6727 H   0  0  0  0  0  0  0  0  0  0  0  0
   -3.2643   -3.3105    0.1403 C   0  0  0  0  0  0  0  0  0  0  0  0
   -3.9852   -2.5887    0.5313 H   0  0  0  0  0  0  0  0  0  0  0  0
   -3.4612   -3.4753   -0.9218 H   0  0  0  0  0  0  0  0  0  0  0  0
   -1.8516   -2.7906    0.3319 C   0  0  0  0  0  0  0  0  0  0  0  0
   -1.0523   -3.4399    0.9807 O   0  0  0  0  0  0  0  0  0  0  0  0
   -1.4816   -1.5933   -0.2517 N   0  0  0  0  0  0  0  0  0  0  0  0
   -2.1866   -1.1215   -0.8090 H   0  0  0  0  0  0  0  0  0  0  0  0
   -0.1514   -0.9591   -0.1094 C   0  0  1  0  0  0  0  0  0  0  0  0
    0.6210   -1.6675   -0.4300 H   0  0  0  0  0  0  0  0  0  0  0  0
   -0.1415    0.2440   -1.1099 C   0  0  0  0  0  0  0  0  0  0  0  0
    0.4302   -0.0943   -1.9800 H   0  0  0  0  0  0  0  0  0  0  0  0
   -1.1690    0.3913   -1.4574 H   0  0  0  0  0  0  0  0  0  0  0  0
    0.3754    1.6472   -0.7852 C   0  0  0  0  0  0  0  0  0  0  0  0
    1.1803    2.0271    0.3091 C   0  0  0  0  0  0  0  0  0  0  0  0
    1.5998    1.3162    1.0057 H   0  0  0  0  0  0  0  0  0  0  0  0
    1.5381    3.3636    0.5177 C   0  0  0  0  0  0  0  0  0  0  0  0
    2.1675    3.6253    1.3634 H   0  0  0  0  0  0  0  0  0  0  0  0
    1.1036    4.3556   -0.3609 C   0  0  0  0  0  0  0  0  0  0  0  0
    1.3851    5.3917   -0.1970 H   0  0  0  0  0  0  0  0  0  0  0  0
    0.3155    4.0053   -1.4565 C   0  0  0  0  0  0  0  0  0  0  0  0
   -0.0217    4.7711   -2.1489 H   0  0  0  0  0  0  0  0  0  0  0  0
   -0.0395    2.6685   -1.6619 C   0  0  0  0  0  0  0  0  0  0  0  0
   -0.6553    2.4267   -2.5229 H   0  0  0  0  0  0  0  0  0  0  0  0
    0.1427   -0.6554    1.3773 C   0  0  0  0  0  0  0  0  0  0  0  0
    1.2400   -0.9160    1.8550 O   0  0  0  0  0  0  0  0  0  0  0  0
   -0.8237   -0.0802    2.1843 N   0  0  0  0  0  0  0  0  0  0  0  0
   -1.7306    0.0969    1.7673 H   0  0  0  0  0  0  0  0  0  0  0  0
   -0.6235    0.1963    3.6006 C   0  0  0  0  0  0  0  0  0  0  0  0
    0.1872    0.9194    3.7378 H   0  0  0  0  0  0  0  0  0  0  0  0
   -1.5359    0.6125    4.0377 H   0  0  0  0  0  0  0  0  0  0  0  0
   -0.3712   -0.7241    4.1378 H   0  0  0  0  0  0  0  0  0  0  0  0
  1  2  1  0  0  0  0
  2  3  1  0  0  0  0
  2  4  1  0  0  0  0
  2  5  1  0  0  0  0
  5  6  2  0  0  0  0
  5  7  1  0  0  0  0
  7  8  1  0  0  0  0
  7  9  1  0  0  0  0
  9 10  1  0  0  0  0
  9 11  1  0  0  0  0
  9 25  1  0  0  0  0
 11 12  1  0  0  0  0
 11 13  1  0  0  0  0
 11 14  1  0  0  0  0
 14 15  1  0  0  0  0
 14 23  2  0  0  0  0
 15 16  1  0  0  0  0
 15 17  2  0  0  0  0
 17 18  1  0  0  0  0
 17 19  1  0  0  0  0
 19 20  1  0  0  0  0
 19 21  2  0  0  0  0
 21 22  1  0  0  0  0
 21 23  1  0  0  0  0
 23 24  1  0  0  0  0
 25 26  2  0  0  0  0
 25 27  1  0  0  0  0
 27 28  1  0  0  0  0
 27 29  1  0  0  0  0
 29 30  1  0  0  0  0
 29 31  1  0  0  0  0
 29 32  1  0  0  0  0
M  END
$$$$

  -OEChem-03222214073D

 32 32  0     1  0  0  0  0  0999 V2000
   -3.3766   -4.2411    0.8075 H   0  0  0  0  0  0  0  0  0  0  0  0
   -3.2516   -3.3259    0.2216 C   0  0  0  0  0  0  0  0  0  0  0  0
   -3.9706   -2.5830    0.5747 H   0  0  0  0  0  0  0  0  0  0  0  0
   -3.4541   -3.5513   -0.8283 H   0  0  0  0  0  0  0  0  0  0  0  0
   -1.8378   -2.7964    0.3761 C   0  0  0  0  0  0  0  0  0  0  0  0
   -1.0304   -3.4187    1.0413 O   0  0  0  0  0  0  0  0  0  0  0  0
   -1.4727   -1.6287   -0.2679 N   0  0  0  0  0  0  0  0  0  0  0  0
   -2.1870   -1.1747   -0.8280 H   0  0  0  0  0  0  0  0  0  0  0  0
   -0.1486   -0.9784   -0.1453 C   0  0  1  0  0  0  0  0  0  0  0  0
    0.6361   -1.6877   -0.4318 H   0  0  0  0  0  0  0  0  0  0  0  0
   -0.1526    0.1951   -1.1787 C   0  0  0  0  0  0  0  0  0  0  0  0
    0.4287   -0.1473   -2.0408 H   0  0  0  0  0  0  0  0  0  0  0  0
   -1.1785    0.3287   -1.5358 H   0  0  0  0  0  0  0  0  0  0  0  0
    0.3652    1.5895   -0.8343 C   0  0  0  0  0  0  0  0  0  0  0  0
    1.3901    1.8622    0.0921 C   0  0  0  0  0  0  0  0  0  0  0  0
    1.9550    1.0675    0.5642 H   0  0  0  0  0  0  0  0  0  0  0  0
    1.7665    3.1759    0.3908 C   0  0  0  0  0  0  0  0  0  0  0  0
    2.5665    3.3573    1.1029 H   0  0  0  0  0  0  0  0  0  0  0  0
    1.1273    4.2488   -0.2317 C   0  0  0  0  0  0  0  0  0  0  0  0
    1.4222    5.2681    0.0005 H   0  0  0  0  0  0  0  0  0  0  0  0
    0.1165    4.0028   -1.1616 C   0  0  0  0  0  0  0  0  0  0  0  0
   -0.3794    4.8337   -1.6545 H   0  0  0  0  0  0  0  0  0  0  0  0
   -0.2573    2.6876   -1.4578 C   0  0  0  0  0  0  0  0  0  0  0  0
   -1.0489    2.5273   -2.1833 H   0  0  0  0  0  0  0  0  0  0  0  0
    0.1230   -0.5948    1.3306 C   0  0  0  0  0  0  0  0  0  0  0  0
    1.2064   -0.8409    1.8466 O   0  0  0  0  0  0  0  0  0  0  0  0
   -0.8603    0.0146    2.0906 N   0  0  0  0  0  0  0  0  0  0  0  0
   -1.7371    0.2286    1.6293 H   0  0  0  0  0  0  0  0  0  0  0  0
   -0.6636    0.4268    3.4738 C   0  0  0  0  0  0  0  0  0  0  0  0
    0.1188    1.1902    3.5366 H   0  0  0  0  0  0  0  0  0  0  0  0
   -1.5898    0.8448    3.8792 H   0  0  0  0  0  0  0  0  0  0  0  0
   -0.3720   -0.4297    4.0910 H   0  0  0  0  0  0  0  0  0  0  0  0
  1  2  1  0  0  0  0
  2  3  1  0  0  0  0
  2  4  1  0  0  0  0
  2  5  1  0  0  0  0
  5  6  2  0  0  0  0
  5  7  1  0  0  0  0
  7  8  1  0  0  0  0
  7  9  1  0  0  0  0
  9 10  1  0  0  0  0
  9 11  1  0  0  0  0
  9 25  1  0  0  0  0
 11 12  1  0  0  0  0
 11 13  1  0  0  0  0
 11 14  1  0  0  0  0
 14 15  1  0  0  0  0
 14 23  2  0  0  0  0
 15 16  1  0  0  0  0
 15 17  2  0  0  0  0
 17 18  1  0  0  0  0
 17 19  1  0  0  0  0
 19 20  1  0  0  0  0
 19 21  2  0  0  0  0
 21 22  1  0  0  0  0
 21 23  1  0  0  0  0
 23 24  1  0  0  0  0
 25 26  2  0  0  0  0
 25 27  1  0  0  0  0
 27 28  1  0  0  0  0
 27 29  1  0  0  0  0
 29 30  1  0  0  0  0
 29 31  1  0  0  0  0
 29 32  1  0  0  0  0
M  END
$$$$

  -OEChem-03222214073D

 32 32  0     1  0  0  0  0  0999 V2000
   -3.2913   -4.2940    0.8687 H   0  0  0  0  0  0  0  0  0  0  0  0
   -3.2001   -3.3895    0.2605 C   0  0  0  0  0  0  0  0  0  0  0  0
   -3.9471   -2.6656    0.5944 H   0  0  0  0  0  0  0  0  0  0  0  0
   -3.3917   -3.6479   -0.7837 H   0  0  0  0  0  0  0  0  0  0  0  0
   -1.8077   -2.8039    0.4034 C   0  0  0  0  0  0  0  0  0  0  0  0
   -0.9841   -3.3707    1.0978 O   0  0  0  0  0  0  0  0  0  0  0  0
   -1.4791   -1.6482   -0.2800 N   0  0  0  0  0  0  0  0  0  0  0  0
   -2.1991   -1.2456   -0.8713 H   0  0  0  0  0  0  0  0  0  0  0  0
   -0.1723   -0.9614   -0.1856 C   0  0  1  0  0  0  0  0  0  0  0  0
    0.6255   -1.6605   -0.4602 H   0  0  0  0  0  0  0  0  0  0  0  0
   -0.2017    0.1865   -1.2415 C   0  0  0  0  0  0  0  0  0  0  0  0
    0.3929   -0.1469   -2.0979 H   0  0  0  0  0  0  0  0  0  0  0  0
   -1.2265    0.3039   -1.6074 H   0  0  0  0  0  0  0  0  0  0  0  0
    0.3038    1.5690   -0.8572 C   0  0  0  0  0  0  0  0  0  0  0  0
    1.5041    1.7689   -0.1526 C   0  0  0  0  0  0  0  0  0  0  0  0
    2.1455    0.9291    0.0984 H   0  0  0  0  0  0  0  0  0  0  0  0
    1.9160    3.0522    0.2190 C   0  0  0  0  0  0  0  0  0  0  0  0
    2.8471    3.1817    0.7633 H   0  0  0  0  0  0  0  0  0  0  0  0
    1.1348    4.1614   -0.1111 C   0  0  0  0  0  0  0  0  0  0  0  0
    1.4566    5.1576    0.1784 H   0  0  0  0  0  0  0  0  0  0  0  0
   -0.0569    3.9837   -0.8173 C   0  0  0  0  0  0  0  0  0  0  0  0
   -0.6645    4.8450   -1.0788 H   0  0  0  0  0  0  0  0  0  0  0  0
   -0.4677    2.6979   -1.1857 C   0  0  0  0  0  0  0  0  0  0  0  0
   -1.3994    2.5868   -1.7311 H   0  0  0  0  0  0  0  0  0  0  0  0
    0.1175   -0.5165    1.2708 C   0  0  0  0  0  0  0  0  0  0  0  0
    1.2246   -0.6935    1.7646 O   0  0  0  0  0  0  0  0  0  0  0  0
   -0.8669    0.0978    2.0252 N   0  0  0  0  0  0  0  0  0  0  0  0
   -1.7587    0.2660    1.5744 H   0  0  0  0  0  0  0  0  0  0  0  0
   -0.6458    0.5949    3.3761 C   0  0  0  0  0  0  0  0  0  0  0  0
    0.1213    1.3765    3.3733 H   0  0  0  0  0  0  0  0  0  0  0  0
   -1.5707    1.0169    3.7801 H   0  0  0  0  0  0  0  0  0  0  0  0
   -0.3200   -0.2178    4.0340 H   0  0  0  0  0  0  0  0  0  0  0  0
  1  2  1  0  0  0  0
  2  3  1  0  0  0  0
  2  4  1  0  0  0  0
  2  5  1  0  0  0  0
  5  6  2  0  0  0  0
  5  7  1  0  0  0  0
  7  8  1  0  0  0  0
  7  9  1  0  0  0  0
  9 10  1  0  0  0  0
  9 11  1  0  0  0  0
  9 25  1  0  0  0  0
 11 12  1  0  0  0  0
 11 13  1  0  0  0  0
 11 14  1  0  0  0  0
 14 15  1  0  0  0  0
 14 23  2  0  0  0  0
 15 16  1  0  0  0  0
 15 17  2  0  0  0  0
 17 18  1  0  0  0  0
 17 19  1  0  0  0  0
 19 20  1  0  0  0  0
 19 21  2  0  0  0  0
 21 22  1  0  0  0  0
 21 23  1  0  0  0  0
 23 24  1  0  0  0  0
 25 26  2  0  0  0  0
 25 27  1  0  0  0  0
 27 28  1  0  0  0  0
 27 29  1  0  0  0  0
 29 30  1  0  0  0  0
 29 31  1  0  0  0  0
 29 32  1  0  0  0  0
M  END
$$$$

  -OEChem-03222214073D

 32 32  0     1  0  0  0  0  0999 V2000
   -3.2315   -4.3407    0.8895 H   0  0  0  0  0  0  0  0  0  0  0  0
   -3.1643   -3.4436    0.2673 C   0  0  0  0  0  0  0  0  0  0  0  0
   -3.9329   -2.7364    0.5875 H   0  0  0  0  0  0  0  0  0  0  0  0
   -3.3449   -3.7243   -0.7731 H   0  0  0  0  0  0  0  0  0  0  0  0
   -1.7899   -2.8152    0.4055 C   0  0  0  0  0  0  0  0  0  0  0  0
   -0.9541   -3.3417    1.1169 O   0  0  0  0  0  0  0  0  0  0  0  0
   -1.4934   -1.6594   -0.2917 N   0  0  0  0  0  0  0  0  0  0  0  0
   -2.2200   -1.2888   -0.8955 H   0  0  0  0  0  0  0  0  0  0  0  0
   -0.2042   -0.9410   -0.2099 C   0  0  1  0  0  0  0  0  0  0  0  0
    0.6006   -1.6346   -0.4788 H   0  0  0  0  0  0  0  0  0  0  0  0
   -0.2392    0.1881   -1.2797 C   0  0  0  0  0  0  0  0  0  0  0  0
    0.3728   -0.1356   -2.1276 H   0  0  0  0  0  0  0  0  0  0  0  0
   -1.2593    0.2979   -1.6604 H   0  0  0  0  0  0  0  0  0  0  0  0
    0.2513    1.5582   -0.8536 C   0  0  0  0  0  0  0  0  0  0  0  0
    1.5663    1.7523   -0.3998 C   0  0  0  0  0  0  0  0  0  0  0  0
    2.2569    0.9146   -0.3506 H   0  0  0  0  0  0  0  0  0  0  0  0
    2.0026    3.0168    0.0077 C   0  0  0  0  0  0  0  0  0  0  0  0
    3.0206    3.1473    0.3631 H   0  0  0  0  0  0  0  0  0  0  0  0
    1.1288    4.1062   -0.0361 C   0  0  0  0  0  0  0  0  0  0  0  0
    1.4680    5.0876    0.2821 H   0  0  0  0  0  0  0  0  0  0  0  0
   -0.1818    3.9283   -0.4875 C   0  0  0  0  0  0  0  0  0  0  0  0
   -0.8617    4.7744   -0.5222 H   0  0  0  0  0  0  0  0  0  0  0  0
   -0.6171    2.6618   -0.8928 C   0  0  0  0  0  0  0  0  0  0  0  0
   -1.6394    2.5446   -1.2380 H   0  0  0  0  0  0  0  0  0  0  0  0
    0.1140   -0.4588    1.2278 C   0  0  0  0  0  0  0  0  0  0  0  0
    1.2501   -0.5625    1.6744 O   0  0  0  0  0  0  0  0  0  0  0  0
   -0.8626    0.1521    1.9949 N   0  0  0  0  0  0  0  0  0  0  0  0
   -1.7829    0.2503    1.5822 H   0  0  0  0  0  0  0  0  0  0  0  0
   -0.6090    0.7083    3.3170 C   0  0  0  0  0  0  0  0  0  0  0  0
    0.1606    1.4856    3.2622 H   0  0  0  0  0  0  0  0  0  0  0  0
   -1.5225    1.1534    3.7221 H   0  0  0  0  0  0  0  0  0  0  0  0
   -0.2717   -0.0761    4.0028 H   0  0  0  0  0  0  0  0  0  0  0  0
  1  2  1  0  0  0  0
  2  3  1  0  0  0  0
  2  4  1  0  0  0  0
  2  5  1  0  0  0  0
  5  6  2  0  0  0  0
  5  7  1  0  0  0  0
  7  8  1  0  0  0  0
  7  9  1  0  0  0  0
  9 10  1  0  0  0  0
  9 11  1  0  0  0  0
  9 25  1  0  0  0  0
 11 12  1  0  0  0  0
 11 13  1  0  0  0  0
 11 14  1  0  0  0  0
 14 15  1  0  0  0  0
 14 23  2  0  0  0  0
 15 16  1  0  0  0  0
 15 17  2  0  0  0  0
 17 18  1  0  0  0  0
 17 19  1  0  0  0  0
 19 20  1  0  0  0  0
 19 21  2  0  0  0  0
 21 22  1  0  0  0  0
 21 23  1  0  0  0  0
 23 24  1  0  0  0  0
 25 26  2  0  0  0  0
 25 27  1  0  0  0  0
 27 28  1  0  0  0  0
 27 29  1  0  0  0  0
 29 30  1  0  0  0  0
 29 31  1  0  0  0  0
 29 32  1  0  0  0  0
M  END
$$$$

  -OEChem-03222214073D

 32 32  0     1  0  0  0  0  0999 V2000
   -3.1922   -4.3893    0.8598 H   0  0  0  0  0  0  0  0  0  0  0  0
   -3.1427   -3.4864    0.2443 C   0  0  0  0  0  0  0  0  0  0  0  0
   -3.9420   -2.8078    0.5514 H   0  0  0  0  0  0  0  0  0  0  0  0
   -3.2912   -3.7660   -0.8015 H   0  0  0  0  0  0  0  0  0  0  0  0
   -1.7944   -2.8118    0.4160 C   0  0  0  0  0  0  0  0  0  0  0  0
   -0.9647   -3.3001    1.1610 O   0  0  0  0  0  0  0  0  0  0  0  0
   -1.5171   -1.6536   -0.2844 N   0  0  0  0  0  0  0  0  0  0  0  0
   -2.2285   -1.3279   -0.9309 H   0  0  0  0  0  0  0  0  0  0  0  0
   -0.2376   -0.9184   -0.2117 C   0  0  1  0  0  0  0  0  0  0  0  0
    0.5674   -1.6129   -0.4771 H   0  0  0  0  0  0  0  0  0  0  0  0
   -0.2666    0.1943   -1.2947 C   0  0  0  0  0  0  0  0  0  0  0  0
    0.3522   -0.1317   -2.1369 H   0  0  0  0  0  0  0  0  0  0  0  0
   -1.2835    0.3069   -1.6828 H   0  0  0  0  0  0  0  0  0  0  0  0
    0.2179    1.5550   -0.8455 C   0  0  0  0  0  0  0  0  0  0  0  0
    1.5879    1.7988   -0.6670 C   0  0  0  0  0  0  0  0  0  0  0  0
    2.3083    1.0025   -0.8321 H   0  0  0  0  0  0  0  0  0  0  0  0
    2.0380    3.0550   -0.2487 C   0  0  0  0  0  0  0  0  0  0  0  0
    3.1003    3.2262   -0.1020 H   0  0  0  0  0  0  0  0  0  0  0  0
    1.1215    4.0829   -0.0100 C   0  0  0  0  0  0  0  0  0  0  0  0
    1.4725    5.0573    0.3166 H   0  0  0  0  0  0  0  0  0  0  0  0
   -0.2457    3.8521   -0.1876 C   0  0  0  0  0  0  0  0  0  0  0  0
   -0.9577    4.6505   -0.0010 H   0  0  0  0  0  0  0  0  0  0  0  0
   -0.6950    2.5939   -0.6030 C   0  0  0  0  0  0  0  0  0  0  0  0
   -1.7598    2.4306   -0.7345 H   0  0  0  0  0  0  0  0  0  0  0  0
    0.1085   -0.4184    1.2134 C   0  0  0  0  0  0  0  0  0  0  0  0
    1.2641   -0.4712    1.6165 O   0  0  0  0  0  0  0  0  0  0  0  0
   -0.8551    0.1902    1.9985 N   0  0  0  0  0  0  0  0  0  0  0  0
   -1.7995    0.2219    1.6330 H   0  0  0  0  0  0  0  0  0  0  0  0
   -0.5753    0.7602    3.3094 C   0  0  0  0  0  0  0  0  0  0  0  0
    0.1740    1.5547    3.2274 H   0  0  0  0  0  0  0  0  0  0  0  0
   -1.4861    1.1867    3.7397 H   0  0  0  0  0  0  0  0  0  0  0  0
   -0.1992   -0.0113    3.9894 H   0  0  0  0  0  0  0  0  0  0  0  0
  1  2  1  0  0  0  0
  2  3  1  0  0  0  0
  2  4  1  0  0  0  0
  2  5  1  0  0  0  0
  5  6  2  0  0  0  0
  5  7  1  0  0  0  0
  7  8  1  0  0  0  0
  7  9  1  0  0  0  0
  9 10  1  0  0  0  0
  9 11  1  0  0  0  0
  9 25  1  0  0  0  0
 11 12  1  0  0  0  0
 11 13  1  0  0  0  0
 11 14  1  0  0  0  0
 14 15  1  0  0  0  0
 14 23  2  0  0  0  0
 15 16  1  0  0  0  0
 15 17  2  0  0  0  0
 17 18  1  0  0  0  0
 17 19  1  0  0  0  0
 19 20  1  0  0  0  0
 19 21  2  0  0  0  0
 21 22  1  0  0  0  0
 21 23  1  0  0  0  0
 23 24  1  0  0  0  0
 25 26  2  0  0  0  0
 25 27  1  0  0  0  0
 27 28  1  0  0  0  0
 27 29  1  0  0  0  0
 29 30  1  0  0  0  0
 29 31  1  0  0  0  0
 29 32  1  0  0  0  0
M  END
$$$$

  -OEChem-03222214073D

 32 32  0     1  0  0  0  0  0999 V2000
   -3.1822   -4.4064    0.8407 H   0  0  0  0  0  0  0  0  0  0  0  0
   -3.1383   -3.4987    0.2318 C   0  0  0  0  0  0  0  0  0  0  0  0
   -3.9470   -2.8311    0.5386 H   0  0  0  0  0  0  0  0  0  0  0  0
   -3.2772   -3.7728   -0.8167 H   0  0  0  0  0  0  0  0  0  0  0  0
   -1.7983   -2.8109    0.4159 C   0  0  0  0  0  0  0  0  0  0  0  0
   -0.9705   -3.2908    1.1684 O   0  0  0  0  0  0  0  0  0  0  0  0
   -1.5291   -1.6458   -0.2759 N   0  0  0  0  0  0  0  0  0  0  0  0
   -2.2375   -1.3279   -0.9298 H   0  0  0  0  0  0  0  0  0  0  0  0
   -0.2533   -0.9047   -0.2032 C   0  0  1  0  0  0  0  0  0  0  0  0
    0.5502   -1.6009   -0.4692 H   0  0  0  0  0  0  0  0  0  0  0  0
   -0.2697    0.2030   -1.2901 C   0  0  0  0  0  0  0  0  0  0  0  0
    0.3489   -0.1298   -2.1298 H   0  0  0  0  0  0  0  0  0  0  0  0
   -1.2847    0.3231   -1.6811 H   0  0  0  0  0  0  0  0  0  0  0  0
    0.2128    1.5620   -0.8359 C   0  0  0  0  0  0  0  0  0  0  0  0
    1.5689    1.9046   -0.9386 C   0  0  0  0  0  0  0  0  0  0  0  0
    2.2865    1.1819   -1.3159 H   0  0  0  0  0  0  0  0  0  0  0  0
    2.0149    3.1672   -0.5339 C   0  0  0  0  0  0  0  0  0  0  0  0
    3.0696    3.4161   -0.6040 H   0  0  0  0  0  0  0  0  0  0  0  0
    1.1060    4.1029   -0.0312 C   0  0  0  0  0  0  0  0  0  0  0  0
    1.4542    5.0813    0.2862 H   0  0  0  0  0  0  0  0  0  0  0  0
   -0.2492    3.7749    0.0658 C   0  0  0  0  0  0  0  0  0  0  0  0
   -0.9557    4.5011    0.4562 H   0  0  0  0  0  0  0  0  0  0  0  0
   -0.6935    2.5115   -0.3379 C   0  0  0  0  0  0  0  0  0  0  0  0
   -1.7483    2.2705   -0.2583 H   0  0  0  0  0  0  0  0  0  0  0  0
    0.1049   -0.4107    1.2207 C   0  0  0  0  0  0  0  0  0  0  0  0
    1.2690   -0.4377    1.6005 O   0  0  0  0  0  0  0  0  0  0  0  0
   -0.8532    0.1892    2.0195 N   0  0  0  0  0  0  0  0  0  0  0  0
   -1.8121    0.1572    1.6939 H   0  0  0  0  0  0  0  0  0  0  0  0
   -0.5640    0.7335    3.3390 C   0  0  0  0  0  0  0  0  0  0  0  0
    0.1975    1.5176    3.2695 H   0  0  0  0  0  0  0  0  0  0  0  0
   -1.4676    1.1681    3.7763 H   0  0  0  0  0  0  0  0  0  0  0  0
   -0.1994   -0.0550    4.0057 H   0  0  0  0  0  0  0  0  0  0  0  0
  1  2  1  0  0  0  0
  2  3  1  0  0  0  0
  2  4  1  0  0  0  0
  2  5  1  0  0  0  0
  5  6  2  0  0  0  0
  5  7  1  0  0  0  0
  7  8  1  0  0  0  0
  7  9  1  0  0  0  0
  9 10  1  0  0  0  0
  9 11  1  0  0  0  0
  9 25  1  0  0  0  0
 11 12  1  0  0  0  0
 11 13  1  0  0  0  0
 11 14  1  0  0  0  0
 14 15  1  0  0  0  0
 14 23  2  0  0  0  0
 15 16  1  0  0  0  0
 15 17  2  0  0  0  0
 17 18  1  0  0  0  0
 17 19  1  0  0  0  0
 19 20  1  0  0  0  0
 19 21  2  0  0  0  0
 21 22  1  0  0  0  0
 21 23  1  0  0  0  0
 23 24  1  0  0  0  0
 25 26  2  0  0  0  0
 25 27  1  0  0  0  0
 27 28  1  0  0  0  0
 27 29  1  0  0  0  0
 29 30  1  0  0  0  0
 29 31  1  0  0  0  0
 29 32  1  0  0  0  0
M  END
$$$$

  -OEChem-03222214073D

 32 32  0     1  0  0  0  0  0999 V2000
   -3.1822   -4.4255    0.7959 H   0  0  0  0  0  0  0  0  0  0  0  0
   -3.1417   -3.5072    0.2029 C   0  0  0  0  0  0  0  0  0  0  0  0
   -3.9576   -2.8510    0.5153 H   0  0  0  0  0  0  0  0  0  0  0  0
   -3.2713   -3.7642   -0.8511 H   0  0  0  0  0  0  0  0  0  0  0  0
   -1.8085   -2.8121    0.4091 C   0  0  0  0  0  0  0  0  0  0  0  0
   -0.9831   -3.2975    1.1606 O   0  0  0  0  0  0  0  0  0  0  0  0
   -1.5439   -1.6314   -0.2581 N   0  0  0  0  0  0  0  0  0  0  0  0
   -2.2460   -1.3126   -0.9185 H   0  0  0  0  0  0  0  0  0  0  0  0
   -0.2675   -0.8920   -0.1765 C   0  0  1  0  0  0  0  0  0  0  0  0
    0.5299   -1.5932   -0.4477 H   0  0  0  0  0  0  0  0  0  0  0  0
   -0.2614    0.2180   -1.2620 C   0  0  0  0  0  0  0  0  0  0  0  0
    0.3569   -0.1262   -2.0972 H   0  0  0  0  0  0  0  0  0  0  0  0
   -1.2729    0.3471   -1.6592 H   0  0  0  0  0  0  0  0  0  0  0  0
    0.2219    1.5810   -0.8166 C   0  0  0  0  0  0  0  0  0  0  0  0
    1.4964    2.0341   -1.1888 C   0  0  0  0  0  0  0  0  0  0  0  0
    2.1643    1.3863   -1.7486 H   0  0  0  0  0  0  0  0  0  0  0  0
    1.9322    3.3127   -0.8253 C   0  0  0  0  0  0  0  0  0  0  0  0
    2.9281    3.6448   -1.1031 H   0  0  0  0  0  0  0  0  0  0  0  0
    1.0891    4.1601   -0.1011 C   0  0  0  0  0  0  0  0  0  0  0  0
    1.4301    5.1507    0.1846 H   0  0  0  0  0  0  0  0  0  0  0  0
   -0.1923    3.7296    0.2533 C   0  0  0  0  0  0  0  0  0  0  0  0
   -0.8503    4.3892    0.8108 H   0  0  0  0  0  0  0  0  0  0  0  0
   -0.6256    2.4504   -0.1107 C   0  0  0  0  0  0  0  0  0  0  0  0
   -1.6259    2.1324    0.1637 H   0  0  0  0  0  0  0  0  0  0  0  0
    0.1016   -0.4293    1.2551 C   0  0  0  0  0  0  0  0  0  0  0  0
    1.2707   -0.4474    1.6188 O   0  0  0  0  0  0  0  0  0  0  0  0
   -0.8503    0.1520    2.0750 N   0  0  0  0  0  0  0  0  0  0  0  0
   -1.8163    0.0750    1.7790 H   0  0  0  0  0  0  0  0  0  0  0  0
   -0.5533    0.6473    3.4127 C   0  0  0  0  0  0  0  0  0  0  0  0
    0.2114    1.4301    3.3689 H   0  0  0  0  0  0  0  0  0  0  0  0
   -1.4534    1.0701    3.8687 H   0  0  0  0  0  0  0  0  0  0  0  0
   -0.1895   -0.1660    4.0494 H   0  0  0  0  0  0  0  0  0  0  0  0
  1  2  1  0  0  0  0
  2  3  1  0  0  0  0
  2  4  1  0  0  0  0
  2  5  1  0  0  0  0
  5  6  2  0  0  0  0
  5  7  1  0  0  0  0
  7  8  1  0  0  0  0
  7  9  1  0  0  0  0
  9 10  1  0  0  0  0
  9 11  1  0  0  0  0
  9 25  1  0  0  0  0
 11 12  1  0  0  0  0
 11 13  1  0  0  0  0
 11 14  1  0  0  0  0
 14 15  1  0  0  0  0
 14 23  2  0  0  0  0
 15 16  1  0  0  0  0
 15 17  2  0  0  0  0
 17 18  1  0  0  0  0
 17 19  1  0  0  0  0
 19 20  1  0  0  0  0
 19 21  2  0  0  0  0
 21 22  1  0  0  0  0
 21 23  1  0  0  0  0
 23 24  1  0  0  0  0
 25 26  2  0  0  0  0
 25 27  1  0  0  0  0
 27 28  1  0  0  0  0
 27 29  1  0  0  0  0
 29 30  1  0  0  0  0
 29 31  1  0  0  0  0
 29 32  1  0  0  0  0
M  END
$$$$

  -OEChem-03222214073D

 32 32  0     1  0  0  0  0  0999 V2000
   -3.1987   -4.4411    0.7149 H   0  0  0  0  0  0  0  0  0  0  0  0
   -3.1548   -3.5038    0.1528 C   0  0  0  0  0  0  0  0  0  0  0  0
   -3.9748   -2.8597    0.4790 H   0  0  0  0  0  0  0  0  0  0  0  0
   -3.2746   -3.7263   -0.9103 H   0  0  0  0  0  0  0  0  0  0  0  0
   -1.8250   -2.8136    0.3926 C   0  0  0  0  0  0  0  0  0  0  0  0
   -1.0058   -3.3199    1.1372 O   0  0  0  0  0  0  0  0  0  0  0  0
   -1.5579   -1.6113   -0.2332 N   0  0  0  0  0  0  0  0  0  0  0  0
   -2.2597   -1.2685   -0.8819 H   0  0  0  0  0  0  0  0  0  0  0  0
   -0.2784   -0.8799   -0.1325 C   0  0  1  0  0  0  0  0  0  0  0  0
    0.5085   -1.5903   -0.4114 H   0  0  0  0  0  0  0  0  0  0  0  0
   -0.2370    0.2331   -1.2163 C   0  0  0  0  0  0  0  0  0  0  0  0
    0.3872   -0.1288   -2.0397 H   0  0  0  0  0  0  0  0  0  0  0  0
   -1.2417    0.3695   -1.6280 H   0  0  0  0  0  0  0  0  0  0  0  0
    0.2475    1.6058   -0.7937 C   0  0  0  0  0  0  0  0  0  0  0  0
    1.3800    2.1656   -1.4072 C   0  0  0  0  0  0  0  0  0  0  0  0
    1.9609    1.5838   -2.1164 H   0  0  0  0  0  0  0  0  0  0  0  0
    1.7933    3.4665   -1.1003 C   0  0  0  0  0  0  0  0  0  0  0  0
    2.6862    3.8758   -1.5633 H   0  0  0  0  0  0  0  0  0  0  0  0
    1.0583    4.2392   -0.1981 C   0  0  0  0  0  0  0  0  0  0  0  0
    1.3808    5.2478    0.0432 H   0  0  0  0  0  0  0  0  0  0  0  0
   -0.0979    3.7137    0.3837 C   0  0  0  0  0  0  0  0  0  0  0  0
   -0.6812    4.3176    1.0723 H   0  0  0  0  0  0  0  0  0  0  0  0
   -0.5080    2.4130    0.0733 C   0  0  0  0  0  0  0  0  0  0  0  0
   -1.4269    2.0375    0.5089 H   0  0  0  0  0  0  0  0  0  0  0  0
    0.1039   -0.4674    1.3101 C   0  0  0  0  0  0  0  0  0  0  0  0
    1.2777   -0.4869    1.6574 O   0  0  0  0  0  0  0  0  0  0  0  0
   -0.8381    0.0885    2.1587 N   0  0  0  0  0  0  0  0  0  0  0  0
   -1.8089   -0.0122    1.8848 H   0  0  0  0  0  0  0  0  0  0  0  0
   -0.5265    0.5160    3.5162 C   0  0  0  0  0  0  0  0  0  0  0  0
    0.2398    1.2983    3.5038 H   0  0  0  0  0  0  0  0  0  0  0  0
   -1.4208    0.9180    4.0013 H   0  0  0  0  0  0  0  0  0  0  0  0
   -0.1588   -0.3292    4.1077 H   0  0  0  0  0  0  0  0  0  0  0  0
  1  2  1  0  0  0  0
  2  3  1  0  0  0  0
  2  4  1  0  0  0  0
  2  5  1  0  0  0  0
  5  6  2  0  0  0  0
  5  7  1  0  0  0  0
  7  8  1  0  0  0  0
  7  9  1  0  0  0  0
  9 10  1  0  0  0  0
  9 11  1  0  0  0  0
  9 25  1  0  0  0  0
 11 12  1  0  0  0  0
 11 13  1  0  0  0  0
 11 14  1  0  0  0  0
 14 15  1  0  0  0  0
 14 23  2  0  0  0  0
 15 16  1  0  0  0  0
 15 17  2  0  0  0  0
 17 18  1  0  0  0  0
 17 19  1  0  0  0  0
 19 20  1  0  0  0  0
 19 21  2  0  0  0  0
 21 22  1  0  0  0  0
 21 23  1  0  0  0  0
 23 24  1  0  0  0  0
 25 26  2  0  0  0  0
 25 27  1  0  0  0  0
 27 28  1  0  0  0  0
 27 29  1  0  0  0  0
 29 30  1  0  0  0  0
 29 31  1  0  0  0  0
 29 32  1  0  0  0  0
M  END
$$$$

  -OEChem-03222214073D

 32 32  0     1  0  0  0  0  0999 V2000
   -3.2226   -4.4470    0.6210 H   0  0  0  0  0  0  0  0  0  0  0  0
   -3.1753   -3.4909    0.0914 C   0  0  0  0  0  0  0  0  0  0  0  0
   -3.9954   -2.8572    0.4373 H   0  0  0  0  0  0  0  0  0  0  0  0
   -3.2923   -3.6768   -0.9790 H   0  0  0  0  0  0  0  0  0  0  0  0
   -1.8445   -2.8124    0.3583 C   0  0  0  0  0  0  0  0  0  0  0  0
   -1.0244   -3.3515    1.0784 O   0  0  0  0  0  0  0  0  0  0  0  0
   -1.5765   -1.5830   -0.2129 N   0  0  0  0  0  0  0  0  0  0  0  0
   -2.2830   -1.2046   -0.8364 H   0  0  0  0  0  0  0  0  0  0  0  0
   -0.2952   -0.8592   -0.0821 C   0  0  1  0  0  0  0  0  0  0  0  0
    0.4791   -1.5814   -0.3667 H   0  0  0  0  0  0  0  0  0  0  0  0
   -0.2017    0.2527   -1.1676 C   0  0  0  0  0  0  0  0  0  0  0  0
    0.4455   -0.1309   -1.9632 H   0  0  0  0  0  0  0  0  0  0  0  0
   -1.1908    0.3899   -1.6147 H   0  0  0  0  0  0  0  0  0  0  0  0
    0.2815    1.6390   -0.7782 C   0  0  0  0  0  0  0  0  0  0  0  0
    1.2261    2.2838   -1.5959 C   0  0  0  0  0  0  0  0  0  0  0  0
    1.6825    1.7525   -2.4254 H   0  0  0  0  0  0  0  0  0  0  0  0
    1.6193    3.6030   -1.3469 C   0  0  0  0  0  0  0  0  0  0  0  0
    2.3753    4.0710   -1.9703 H   0  0  0  0  0  0  0  0  0  0  0  0
    1.0377    4.3192   -0.2991 C   0  0  0  0  0  0  0  0  0  0  0  0
    1.3437    5.3423   -0.1015 H   0  0  0  0  0  0  0  0  0  0  0  0
    0.0456    3.7202    0.4793 C   0  0  0  0  0  0  0  0  0  0  0  0
   -0.4326    4.2828    1.2754 H   0  0  0  0  0  0  0  0  0  0  0  0
   -0.3447    2.4016    0.2234 C   0  0  0  0  0  0  0  0  0  0  0  0
   -1.1619    1.9917    0.8022 H   0  0  0  0  0  0  0  0  0  0  0  0
    0.0992   -0.5099    1.3741 C   0  0  0  0  0  0  0  0  0  0  0  0
    1.2771   -0.5394    1.7061 O   0  0  0  0  0  0  0  0  0  0  0  0
   -0.8300    0.0105    2.2589 N   0  0  0  0  0  0  0  0  0  0  0  0
   -1.8048   -0.0887    1.9980 H   0  0  0  0  0  0  0  0  0  0  0  0
   -0.5013    0.3568    3.6359 C   0  0  0  0  0  0  0  0  0  0  0  0
    0.2725    1.1314    3.6612 H   0  0  0  0  0  0  0  0  0  0  0  0
   -1.3870    0.7379    4.1525 H   0  0  0  0  0  0  0  0  0  0  0  0
   -0.1361   -0.5238    4.1749 H   0  0  0  0  0  0  0  0  0  0  0  0
  1  2  1  0  0  0  0
  2  3  1  0  0  0  0
  2  4  1  0  0  0  0
  2  5  1  0  0  0  0
  5  6  2  0  0  0  0
  5  7  1  0  0  0  0
  7  8  1  0  0  0  0
  7  9  1  0  0  0  0
  9 10  1  0  0  0  0
  9 11  1  0  0  0  0
  9 25  1  0  0  0  0
 11 12  1  0  0  0  0
 11 13  1  0  0  0  0
 11 14  1  0  0  0  0
 14 15  1  0  0  0  0
 14 23  2  0  0  0  0
 15 16  1  0  0  0  0
 15 17  2  0  0  0  0
 17 18  1  0  0  0  0
 17 19  1  0  0  0  0
 19 20  1  0  0  0  0
 19 21  2  0  0  0  0
 21 22  1  0  0  0  0
 21 23  1  0  0  0  0
 23 24  1  0  0  0  0
 25 26  2  0  0  0  0
 25 27  1  0  0  0  0
 27 28  1  0  0  0  0
 27 29  1  0  0  0  0
 29 30  1  0  0  0  0
 29 31  1  0  0  0  0
 29 32  1  0  0  0  0
M  END
$$$$

  -OEChem-03222214073D

 32 32  0     1  0  0  0  0  0999 V2000
   -3.2740   -4.4240    0.5083 H   0  0  0  0  0  0  0  0  0  0  0  0
   -3.2184   -3.4444    0.0246 C   0  0  0  0  0  0  0  0  0  0  0  0
   -4.0232   -2.8152    0.4121 H   0  0  0  0  0  0  0  0  0  0  0  0
   -3.3528   -3.5764   -1.0518 H   0  0  0  0  0  0  0  0  0  0  0  0
   -1.8733   -2.8004    0.3043 C   0  0  0  0  0  0  0  0  0  0  0  0
   -1.0463   -3.3930    0.9728 O   0  0  0  0  0  0  0  0  0  0  0  0
   -1.6002   -1.5422   -0.1974 N   0  0  0  0  0  0  0  0  0  0  0  0
   -2.3198   -1.1130   -0.7715 H   0  0  0  0  0  0  0  0  0  0  0  0
   -0.3091   -0.8387   -0.0499 C   0  0  1  0  0  0  0  0  0  0  0  0
    0.4495   -1.5626   -0.3709 H   0  0  0  0  0  0  0  0  0  0  0  0
   -0.2018    0.3029   -1.1077 C   0  0  0  0  0  0  0  0  0  0  0  0
    0.4382   -0.0846   -1.9073 H   0  0  0  0  0  0  0  0  0  0  0  0
   -1.1920    0.4472   -1.5498 H   0  0  0  0  0  0  0  0  0  0  0  0
    0.2930    1.7017   -0.7600 C   0  0  0  0  0  0  0  0  0  0  0  0
    0.9583    2.4194   -1.7720 C   0  0  0  0  0  0  0  0  0  0  0  0
    1.1885    1.9385   -2.7179 H   0  0  0  0  0  0  0  0  0  0  0  0
    1.3611    3.7461   -1.5860 C   0  0  0  0  0  0  0  0  0  0  0  0
    1.9001    4.2666   -2.3720 H   0  0  0  0  0  0  0  0  0  0  0  0
    1.0660    4.4026   -0.3912 C   0  0  0  0  0  0  0  0  0  0  0  0
    1.3787    5.4316   -0.2401 H   0  0  0  0  0  0  0  0  0  0  0  0
    0.3461    3.7351    0.5998 C   0  0  0  0  0  0  0  0  0  0  0  0
    0.0844    4.2502    1.5193 H   0  0  0  0  0  0  0  0  0  0  0  0
   -0.0568    2.4097    0.4046 C   0  0  0  0  0  0  0  0  0  0  0  0
   -0.6721    1.9714    1.1732 H   0  0  0  0  0  0  0  0  0  0  0  0
    0.1024   -0.5869    1.4204 C   0  0  0  0  0  0  0  0  0  0  0  0
    1.2841   -0.6306    1.7362 O   0  0  0  0  0  0  0  0  0  0  0  0
   -0.8164   -0.1173    2.3443 N   0  0  0  0  0  0  0  0  0  0  0  0
   -1.7939   -0.1959    2.0852 H   0  0  0  0  0  0  0  0  0  0  0  0
   -0.4772    0.1251    3.7409 C   0  0  0  0  0  0  0  0  0  0  0  0
    0.3316    0.8596    3.8172 H   0  0  0  0  0  0  0  0  0  0  0  0
   -1.3464    0.5140    4.2793 H   0  0  0  0  0  0  0  0  0  0  0  0
   -0.1555   -0.8040    4.2228 H   0  0  0  0  0  0  0  0  0  0  0  0
  1  2  1  0  0  0  0
  2  3  1  0  0  0  0
  2  4  1  0  0  0  0
  2  5  1  0  0  0  0
  5  6  2  0  0  0  0
  5  7  1  0  0  0  0
  7  8  1  0  0  0  0
  7  9  1  0  0  0  0
  9 10  1  0  0  0  0
  9 11  1  0  0  0  0
  9 25  1  0  0  0  0
 11 12  1  0  0  0  0
 11 13  1  0  0  0  0
 11 14  1  0  0  0  0
 14 15  1  0  0  0  0
 14 23  2  0  0  0  0
 15 16  1  0  0  0  0
 15 17  2  0  0  0  0
 17 18  1  0  0  0  0
 17 19  1  0  0  0  0
 19 20  1  0  0  0  0
 19 21  2  0  0  0  0
 21 22  1  0  0  0  0
 21 23  1  0  0  0  0
 23 24  1  0  0  0  0
 25 26  2  0  0  0  0
 25 27  1  0  0  0  0
 27 28  1  0  0  0  0
 27 29  1  0  0  0  0
 29 30  1  0  0  0  0
 29 31  1  0  0  0  0
 29 32  1  0  0  0  0
M  END
$$$$

  -OEChem-03222214073D

 32 32  0     1  0  0  0  0  0999 V2000
   -3.3032   -4.3819    0.5144 H   0  0  0  0  0  0  0  0  0  0  0  0
   -3.2145   -3.4112    0.0180 C   0  0  0  0  0  0  0  0  0  0  0  0
   -4.0049   -2.7541    0.3884 H   0  0  0  0  0  0  0  0  0  0  0  0
   -3.3415   -3.5543   -1.0577 H   0  0  0  0  0  0  0  0  0  0  0  0
   -1.8546   -2.8017    0.3033 C   0  0  0  0  0  0  0  0  0  0  0  0
   -1.0461   -3.4162    0.9746 O   0  0  0  0  0  0  0  0  0  0  0  0
   -1.5440   -1.5551   -0.2067 N   0  0  0  0  0  0  0  0  0  0  0  0
   -2.2481   -1.1116   -0.7888 H   0  0  0  0  0  0  0  0  0  0  0  0
   -0.2466   -0.8675   -0.0248 C   0  0  1  0  0  0  0  0  0  0  0  0
    0.5357   -1.5691   -0.3374 H   0  0  0  0  0  0  0  0  0  0  0  0
   -0.1721    0.3191   -1.0393 C   0  0  0  0  0  0  0  0  0  0  0  0
    0.4532   -0.0447   -1.8616 H   0  0  0  0  0  0  0  0  0  0  0  0
   -1.1754    0.4568   -1.4542 H   0  0  0  0  0  0  0  0  0  0  0  0
    0.3059    1.7390   -0.7264 C   0  0  0  0  0  0  0  0  0  0  0  0
    0.5955    2.5326   -1.8535 C   0  0  0  0  0  0  0  0  0  0  0  0
    0.4943    2.1136   -2.8502 H   0  0  0  0  0  0  0  0  0  0  0  0
    1.0201    3.8594   -1.7340 C   0  0  0  0  0  0  0  0  0  0  0  0
    1.2424    4.4419   -2.6233 H   0  0  0  0  0  0  0  0  0  0  0  0
    1.1609    4.4333   -0.4717 C   0  0  0  0  0  0  0  0  0  0  0  0
    1.4940    5.4621   -0.3711 H   0  0  0  0  0  0  0  0  0  0  0  0
    0.8715    3.6755    0.6623 C   0  0  0  0  0  0  0  0  0  0  0  0
    0.9801    4.1149    1.6494 H   0  0  0  0  0  0  0  0  0  0  0  0
    0.4451    2.3484    0.5383 C   0  0  0  0  0  0  0  0  0  0  0  0
    0.2426    1.8428    1.4675 H   0  0  0  0  0  0  0  0  0  0  0  0
    0.0600   -0.6278    1.4695 C   0  0  0  0  0  0  0  0  0  0  0  0
    1.2100   -0.7017    1.8815 O   0  0  0  0  0  0  0  0  0  0  0  0
   -0.9263   -0.1467    2.3160 N   0  0  0  0  0  0  0  0  0  0  0  0
   -1.8761   -0.1738    1.9613 H   0  0  0  0  0  0  0  0  0  0  0  0
   -0.7155    0.0423    3.7459 C   0  0  0  0  0  0  0  0  0  0  0  0
    0.1136    0.7352    3.9246 H   0  0  0  0  0  0  0  0  0  0  0  0
   -1.6156    0.4570    4.2095 H   0  0  0  0  0  0  0  0  0  0  0  0
   -0.4845   -0.9142    4.2266 H   0  0  0  0  0  0  0  0  0  0  0  0
  1  2  1  0  0  0  0
  2  3  1  0  0  0  0
  2  4  1  0  0  0  0
  2  5  1  0  0  0  0
  5  6  2  0  0  0  0
  5  7  1  0  0  0  0
  7  8  1  0  0  0  0
  7  9  1  0  0  0  0
  9 10  1  0  0  0  0
  9 11  1  0  0  0  0
  9 25  1  0  0  0  0
 11 12  1  0  0  0  0
 11 13  1  0  0  0  0
 11 14  1  0  0  0  0
 14 15  1  0  0  0  0
 14 23  2  0  0  0  0
 15 16  1  0  0  0  0
 15 17  2  0  0  0  0
 17 18  1  0  0  0  0
 17 19  1  0  0  0  0
 19 20  1  0  0  0  0
 19 21  2  0  0  0  0
 21 22  1  0  0  0  0
 21 23  1  0  0  0  0
 23 24  1  0  0  0  0
 25 26  2  0  0  0  0
 25 27  1  0  0  0  0
 27 28  1  0  0  0  0
 27 29  1  0  0  0  0
 29 30  1  0  0  0  0
 29 31  1  0  0  0  0
 29 32  1  0  0  0  0
M  END
$$$$

  -OEChem-03222214073D

 32 32  0     1  0  0  0  0  0999 V2000
   -3.3631   -4.2792    0.6279 H   0  0  0  0  0  0  0  0  0  0  0  0
   -3.2128   -3.3422    0.0836 C   0  0  0  0  0  0  0  0  0  0  0  0
   -3.9827   -2.6304    0.3906 H   0  0  0  0  0  0  0  0  0  0  0  0
   -3.3107   -3.5390   -0.9867 H   0  0  0  0  0  0  0  0  0  0  0  0
   -1.8361   -2.7799    0.3844 C   0  0  0  0  0  0  0  0  0  0  0  0
   -1.0989   -3.3726    1.1499 O   0  0  0  0  0  0  0  0  0  0  0  0
   -1.4249   -1.6154   -0.2379 N   0  0  0  0  0  0  0  0  0  0  0  0
   -2.0640   -1.2131   -0.9162 H   0  0  0  0  0  0  0  0  0  0  0  0
   -0.1143   -0.9589   -0.0251 C   0  0  1  0  0  0  0  0  0  0  0  0
    0.7034   -1.6494   -0.2600 H   0  0  0  0  0  0  0  0  0  0  0  0
   -0.0891    0.2199   -1.0467 C   0  0  0  0  0  0  0  0  0  0  0  0
    0.2647   -0.2034   -1.9927 H   0  0  0  0  0  0  0  0  0  0  0  0
   -1.1265    0.5322   -1.2067 H   0  0  0  0  0  0  0  0  0  0  0  0
    0.6663    1.5308   -0.8345 C   0  0  0  0  0  0  0  0  0  0  0  0
    0.5549    2.4689   -1.8782 C   0  0  0  0  0  0  0  0  0  0  0  0
   -0.0846    2.2561   -2.7298 H   0  0  0  0  0  0  0  0  0  0  0  0
    1.2381    3.6888   -1.8481 C   0  0  0  0  0  0  0  0  0  0  0  0
    1.1178    4.4010   -2.6590 H   0  0  0  0  0  0  0  0  0  0  0  0
    2.0816    3.9879   -0.7790 C   0  0  0  0  0  0  0  0  0  0  0  0
    2.6179    4.9319   -0.7504 H   0  0  0  0  0  0  0  0  0  0  0  0
    2.2509    3.0546    0.2433 C   0  0  0  0  0  0  0  0  0  0  0  0
    2.9304    3.2658    1.0641 H   0  0  0  0  0  0  0  0  0  0  0  0
    1.5665    1.8346    0.2083 C   0  0  0  0  0  0  0  0  0  0  0  0
    1.8007    1.1473    1.0066 H   0  0  0  0  0  0  0  0  0  0  0  0
    0.0342   -0.5707    1.4662 C   0  0  0  0  0  0  0  0  0  0  0  0
    1.0589   -0.8417    2.0800 O   0  0  0  0  0  0  0  0  0  0  0  0
   -1.0113    0.0353    2.1415 N   0  0  0  0  0  0  0  0  0  0  0  0
   -1.8727    0.1776    1.6265 H   0  0  0  0  0  0  0  0  0  0  0  0
   -0.9791    0.3282    3.5685 C   0  0  0  0  0  0  0  0  0  0  0  0
   -0.1926    1.0571    3.7903 H   0  0  0  0  0  0  0  0  0  0  0  0
   -1.9383    0.7439    3.8913 H   0  0  0  0  0  0  0  0  0  0  0  0
   -0.7870   -0.5845    4.1429 H   0  0  0  0  0  0  0  0  0  0  0  0
  1  2  1  0  0  0  0
  2  3  1  0  0  0  0
  2  4  1  0  0  0  0
  2  5  1  0  0  0  0
  5  6  2  0  0  0  0
  5  7  1  0  0  0  0
  7  8  1  0  0  0  0
  7  9  1  0  0  0  0
  9 10  1  0  0  0  0
  9 11  1  0  0  0  0
  9 25  1  0  0  0  0
 11 12  1  0  0  0  0
 11 13  1  0  0  0  0
 11 14  1  0  0  0  0
 14 15  1  0  0  0  0
 14 23  2  0  0  0  0
 15 16  1  0  0  0  0
 15 17  2  0  0  0  0
 17 18  1  0  0  0  0
 17 19  1  0  0  0  0
 19 20  1  0  0  0  0
 19 21  2  0  0  0  0
 21 22  1  0  0  0  0
 21 23  1  0  0  0  0
 23 24  1  0  0  0  0
 25 26  2  0  0  0  0
 25 27  1  0  0  0  0
 27 28  1  0  0  0  0
 27 29  1  0  0  0  0
 29 30  1  0  0  0  0
 29 31  1  0  0  0  0
 29 32  1  0  0  0  0
M  END
$$$$

  -OEChem-03222214073D

 32 32  0     1  0  0  0  0  0999 V2000
   -3.3113   -4.3011    0.7347 H   0  0  0  0  0  0  0  0  0  0  0  0
   -3.1885   -3.3798    0.1578 C   0  0  0  0  0  0  0  0  0  0  0  0
   -3.9669   -2.6733    0.4552 H   0  0  0  0  0  0  0  0  0  0  0  0
   -3.3019   -3.6134   -0.9036 H   0  0  0  0  0  0  0  0  0  0  0  0
   -1.8175   -2.7822    0.4153 C   0  0  0  0  0  0  0  0  0  0  0  0
   -1.0507   -3.3429    1.1758 O   0  0  0  0  0  0  0  0  0  0  0  0
   -1.4452   -1.6235   -0.2412 N   0  0  0  0  0  0  0  0  0  0  0  0
   -2.1042   -1.2549   -0.9195 H   0  0  0  0  0  0  0  0  0  0  0  0
   -0.1371   -0.9468   -0.0892 C   0  0  1  0  0  0  0  0  0  0  0  0
    0.6829   -1.6225   -0.3564 H   0  0  0  0  0  0  0  0  0  0  0  0
   -0.1771    0.2413   -1.0952 C   0  0  0  0  0  0  0  0  0  0  0  0
    0.1460   -0.1459   -2.0668 H   0  0  0  0  0  0  0  0  0  0  0  0
   -1.2221    0.5488   -1.2055 H   0  0  0  0  0  0  0  0  0  0  0  0
    0.5964    1.5265   -0.8354 C   0  0  0  0  0  0  0  0  0  0  0  0
    0.2519    2.6527   -1.6047 C   0  0  0  0  0  0  0  0  0  0  0  0
   -0.5975    2.6092   -2.2794 H   0  0  0  0  0  0  0  0  0  0  0  0
    0.9692    3.8499   -1.5090 C   0  0  0  0  0  0  0  0  0  0  0  0
    0.6650    4.7153   -2.0903 H   0  0  0  0  0  0  0  0  0  0  0  0
    2.0838    3.9292   -0.6733 C   0  0  0  0  0  0  0  0  0  0  0  0
    2.6460    4.8552   -0.5961 H   0  0  0  0  0  0  0  0  0  0  0  0
    2.4914    2.8008    0.0391 C   0  0  0  0  0  0  0  0  0  0  0  0
    3.3809    2.8407    0.6611 H   0  0  0  0  0  0  0  0  0  0  0  0
    1.7713    1.6061   -0.0629 C   0  0  0  0  0  0  0  0  0  0  0  0
    2.1782    0.7428    0.4485 H   0  0  0  0  0  0  0  0  0  0  0  0
    0.0669   -0.5283    1.3909 C   0  0  0  0  0  0  0  0  0  0  0  0
    1.1164   -0.7755    1.9720 O   0  0  0  0  0  0  0  0  0  0  0  0
   -0.9602    0.0769    2.0949 N   0  0  0  0  0  0  0  0  0  0  0  0
   -1.8464    0.1854    1.6153 H   0  0  0  0  0  0  0  0  0  0  0  0
   -0.8770    0.3913    3.5150 C   0  0  0  0  0  0  0  0  0  0  0  0
   -0.0517    1.0855    3.7050 H   0  0  0  0  0  0  0  0  0  0  0  0
   -1.8062    0.8584    3.8545 H   0  0  0  0  0  0  0  0  0  0  0  0
   -0.7130   -0.5206    4.0989 H   0  0  0  0  0  0  0  0  0  0  0  0
  1  2  1  0  0  0  0
  2  3  1  0  0  0  0
  2  4  1  0  0  0  0
  2  5  1  0  0  0  0
  5  6  2  0  0  0  0
  5  7  1  0  0  0  0
  7  8  1  0  0  0  0
  7  9  1  0  0  0  0
  9 10  1  0  0  0  0
  9 11  1  0  0  0  0
  9 25  1  0  0  0  0
 11 12  1  0  0  0  0
 11 13  1  0  0  0  0
 11 14  1  0  0  0  0
 14 15  1  0  0  0  0
 14 23  2  0  0  0  0
 15 16  1  0  0  0  0
 15 17  2  0  0  0  0
 17 18  1  0  0  0  0
 17 19  1  0  0  0  0
 19 20  1  0  0  0  0
 19 21  2  0  0  0  0
 21 22  1  0  0  0  0
 21 23  1  0  0  0  0
 23 24  1  0  0  0  0
 25 26  2  0  0  0  0
 25 27  1  0  0  0  0
 27 28  1  0  0  0  0
 27 29  1  0  0  0  0
 29 30  1  0  0  0  0
 29 31  1  0  0  0  0
 29 32  1  0  0  0  0
M  END
$$$$

  -OEChem-03222214073D

 32 32  0     1  0  0  0  0  0999 V2000
   -3.2834   -4.3291    0.7835 H   0  0  0  0  0  0  0  0  0  0  0  0
   -3.1784   -3.4172    0.1885 C   0  0  0  0  0  0  0  0  0  0  0  0
   -3.9693   -2.7192    0.4732 H   0  0  0  0  0  0  0  0  0  0  0  0
   -3.2887   -3.6736   -0.8680 H   0  0  0  0  0  0  0  0  0  0  0  0
   -1.8184   -2.7899    0.4321 C   0  0  0  0  0  0  0  0  0  0  0  0
   -1.0437   -3.3157    1.2095 O   0  0  0  0  0  0  0  0  0  0  0  0
   -1.4642   -1.6428   -0.2532 N   0  0  0  0  0  0  0  0  0  0  0  0
   -2.1279   -1.3002   -0.9405 H   0  0  0  0  0  0  0  0  0  0  0  0
   -0.1642   -0.9494   -0.1210 C   0  0  1  0  0  0  0  0  0  0  0  0
    0.6557   -1.6306   -0.3752 H   0  0  0  0  0  0  0  0  0  0  0  0
   -0.1982    0.2134   -1.1523 C   0  0  0  0  0  0  0  0  0  0  0  0
    0.1443   -0.1809   -2.1143 H   0  0  0  0  0  0  0  0  0  0  0  0
   -1.2407    0.5201   -1.2845 H   0  0  0  0  0  0  0  0  0  0  0  0
    0.5900    1.4781   -0.8582 C   0  0  0  0  0  0  0  0  0  0  0  0
    0.1171    2.7042   -1.3582 C   0  0  0  0  0  0  0  0  0  0  0  0
   -0.8378    2.7524   -1.8725 H   0  0  0  0  0  0  0  0  0  0  0  0
    0.8515    3.8834   -1.1930 C   0  0  0  0  0  0  0  0  0  0  0  0
    0.4585    4.8255   -1.5631 H   0  0  0  0  0  0  0  0  0  0  0  0
    2.0947    3.8481   -0.5583 C   0  0  0  0  0  0  0  0  0  0  0  0
    2.6674    4.7612   -0.4260 H   0  0  0  0  0  0  0  0  0  0  0  0
    2.6091    2.6291   -0.1119 C   0  0  0  0  0  0  0  0  0  0  0  0
    3.5865    2.5888    0.3602 H   0  0  0  0  0  0  0  0  0  0  0  0
    1.8726    1.4526   -0.2815 C   0  0  0  0  0  0  0  0  0  0  0  0
    2.3230    0.5168    0.0347 H   0  0  0  0  0  0  0  0  0  0  0  0
    0.0655   -0.4843    1.3413 C   0  0  0  0  0  0  0  0  0  0  0  0
    1.1450   -0.6652    1.8909 O   0  0  0  0  0  0  0  0  0  0  0  0
   -0.9518    0.1345    2.0474 N   0  0  0  0  0  0  0  0  0  0  0  0
   -1.8532    0.2088    1.5904 H   0  0  0  0  0  0  0  0  0  0  0  0
   -0.8224    0.5451    3.4391 C   0  0  0  0  0  0  0  0  0  0  0  0
   -0.0326    1.2964    3.5433 H   0  0  0  0  0  0  0  0  0  0  0  0
   -1.7619    0.9786    3.7945 H   0  0  0  0  0  0  0  0  0  0  0  0
   -0.5768   -0.3154    4.0704 H   0  0  0  0  0  0  0  0  0  0  0  0
  1  2  1  0  0  0  0
  2  3  1  0  0  0  0
  2  4  1  0  0  0  0
  2  5  1  0  0  0  0
  5  6  2  0  0  0  0
  5  7  1  0  0  0  0
  7  8  1  0  0  0  0
  7  9  1  0  0  0  0
  9 10  1  0  0  0  0
  9 11  1  0  0  0  0
  9 25  1  0  0  0  0
 11 12  1  0  0  0  0
 11 13  1  0  0  0  0
 11 14  1  0  0  0  0
 14 15  1  0  0  0  0
 14 23  2  0  0  0  0
 15 16  1  0  0  0  0
 15 17  2  0  0  0  0
 17 18  1  0  0  0  0
 17 19  1  0  0  0  0
 19 20  1  0  0  0  0
 19 21  2  0  0  0  0
 21 22  1  0  0  0  0
 21 23  1  0  0  0  0
 23 24  1  0  0  0  0
 25 26  2  0  0  0  0
 25 27  1  0  0  0  0
 27 28  1  0  0  0  0
 27 29  1  0  0  0  0
 29 30  1  0  0  0  0
 29 31  1  0  0  0  0
 29 32  1  0  0  0  0
M  END
$$$$

  -OEChem-03222214073D

 32 32  0     1  0  0  0  0  0999 V2000
   -3.2518   -4.3527    0.8205 H   0  0  0  0  0  0  0  0  0  0  0  0
   -3.1654   -3.4462    0.2141 C   0  0  0  0  0  0  0  0  0  0  0  0
   -3.9604   -2.7542    0.5019 H   0  0  0  0  0  0  0  0  0  0  0  0
   -3.2865   -3.7149   -0.8382 H   0  0  0  0  0  0  0  0  0  0  0  0
   -1.8100   -2.7999    0.4320 C   0  0  0  0  0  0  0  0  0  0  0  0
   -1.0185   -3.3045    1.2067 O   0  0  0  0  0  0  0  0  0  0  0  0
   -1.4806   -1.6552   -0.2689 N   0  0  0  0  0  0  0  0  0  0  0  0
   -2.1574   -1.3276   -0.9507 H   0  0  0  0  0  0  0  0  0  0  0  0
   -0.1875   -0.9469   -0.1618 C   0  0  1  0  0  0  0  0  0  0  0  0
    0.6288   -1.6310   -0.4186 H   0  0  0  0  0  0  0  0  0  0  0  0
   -0.2255    0.1970   -1.2105 C   0  0  0  0  0  0  0  0  0  0  0  0
    0.1257   -0.2025   -2.1670 H   0  0  0  0  0  0  0  0  0  0  0  0
   -1.2668    0.5018   -1.3546 H   0  0  0  0  0  0  0  0  0  0  0  0
    0.5716    1.4477   -0.8947 C   0  0  0  0  0  0  0  0  0  0  0  0
   -0.0014    2.7149   -1.0963 C   0  0  0  0  0  0  0  0  0  0  0  0
   -1.0301    2.8059   -1.4304 H   0  0  0  0  0  0  0  0  0  0  0  0
    0.7383    3.8802   -0.8665 C   0  0  0  0  0  0  0  0  0  0  0  0
    0.2803    4.8537   -1.0144 H   0  0  0  0  0  0  0  0  0  0  0  0
    2.0691    3.7931   -0.4499 C   0  0  0  0  0  0  0  0  0  0  0  0
    2.6447    4.6956   -0.2662 H   0  0  0  0  0  0  0  0  0  0  0  0
    2.6612    2.5398   -0.2765 C   0  0  0  0  0  0  0  0  0  0  0  0
    3.6967    2.4641    0.0423 H   0  0  0  0  0  0  0  0  0  0  0  0
    1.9213    1.3768   -0.5116 C   0  0  0  0  0  0  0  0  0  0  0  0
    2.4044    0.4127   -0.3788 H   0  0  0  0  0  0  0  0  0  0  0  0
    0.0864   -0.4547    1.2823 C   0  0  0  0  0  0  0  0  0  0  0  0
    1.1965   -0.5895    1.7822 O   0  0  0  0  0  0  0  0  0  0  0  0
   -0.9114    0.1695    2.0104 N   0  0  0  0  0  0  0  0  0  0  0  0
   -1.8293    0.2260    1.5848 H   0  0  0  0  0  0  0  0  0  0  0  0
   -0.7264    0.6422    3.3757 C   0  0  0  0  0  0  0  0  0  0  0  0
    0.0558    1.4077    3.4114 H   0  0  0  0  0  0  0  0  0  0  0  0
   -1.6550    1.0785    3.7551 H   0  0  0  0  0  0  0  0  0  0  0  0
   -0.4394   -0.1863    4.0316 H   0  0  0  0  0  0  0  0  0  0  0  0
  1  2  1  0  0  0  0
  2  3  1  0  0  0  0
  2  4  1  0  0  0  0
  2  5  1  0  0  0  0
  5  6  2  0  0  0  0
  5  7  1  0  0  0  0
  7  8  1  0  0  0  0
  7  9  1  0  0  0  0
  9 10  1  0  0  0  0
  9 11  1  0  0  0  0
  9 25  1  0  0  0  0
 11 12  1  0  0  0  0
 11 13  1  0  0  0  0
 11 14  1  0  0  0  0
 14 15  1  0  0  0  0
 14 23  2  0  0  0  0
 15 16  1  0  0  0  0
 15 17  2  0  0  0  0
 17 18  1  0  0  0  0
 17 19  1  0  0  0  0
 19 20  1  0  0  0  0
 19 21  2  0  0  0  0
 21 22  1  0  0  0  0
 21 23  1  0  0  0  0
 23 24  1  0  0  0  0
 25 26  2  0  0  0  0
 25 27  1  0  0  0  0
 27 28  1  0  0  0  0
 27 29  1  0  0  0  0
 29 30  1  0  0  0  0
 29 31  1  0  0  0  0
 29 32  1  0  0  0  0
M  END
$$$$

  -OEChem-03222214073D

 32 32  0     1  0  0  0  0  0999 V2000
   -3.2128   -4.3705    0.8498 H   0  0  0  0  0  0  0  0  0  0  0  0
   -3.1465   -3.4712    0.2306 C   0  0  0  0  0  0  0  0  0  0  0  0
   -3.9555   -2.7919    0.5095 H   0  0  0  0  0  0  0  0  0  0  0  0
   -3.2632   -3.7578   -0.8173 H   0  0  0  0  0  0  0  0  0  0  0  0
   -1.8046   -2.7938    0.4381 C   0  0  0  0  0  0  0  0  0  0  0  0
   -1.0052   -3.2680    1.2239 O   0  0  0  0  0  0  0  0  0  0  0  0
   -1.4980   -1.6522   -0.2781 N   0  0  0  0  0  0  0  0  0  0  0  0
   -2.1744   -1.3553   -0.9745 H   0  0  0  0  0  0  0  0  0  0  0  0
   -0.2097   -0.9328   -0.1949 C   0  0  1  0  0  0  0  0  0  0  0  0
    0.6037   -1.6195   -0.4541 H   0  0  0  0  0  0  0  0  0  0  0  0
   -0.2528    0.1949   -1.2578 C   0  0  0  0  0  0  0  0  0  0  0  0
    0.1017   -0.2109   -2.2105 H   0  0  0  0  0  0  0  0  0  0  0  0
   -1.2925    0.5019   -1.4094 H   0  0  0  0  0  0  0  0  0  0  0  0
    0.5525    1.4336   -0.9284 C   0  0  0  0  0  0  0  0  0  0  0  0
   -0.0744    2.6857   -0.8184 C   0  0  0  0  0  0  0  0  0  0  0  0
   -1.1484    2.7762   -0.9453 H   0  0  0  0  0  0  0  0  0  0  0  0
    0.6739    3.8344   -0.5386 C   0  0  0  0  0  0  0  0  0  0  0  0
    0.1798    4.7971   -0.4483 H   0  0  0  0  0  0  0  0  0  0  0  0
    2.0586    3.7441   -0.3721 C   0  0  0  0  0  0  0  0  0  0  0  0
    2.6406    4.6332   -0.1487 H   0  0  0  0  0  0  0  0  0  0  0  0
    2.6940    2.5051   -0.4902 C   0  0  0  0  0  0  0  0  0  0  0  0
    3.7687    2.4280   -0.3546 H   0  0  0  0  0  0  0  0  0  0  0  0
    1.9455    1.3584   -0.7738 C   0  0  0  0  0  0  0  0  0  0  0  0
    2.4519    0.4005   -0.8518 H   0  0  0  0  0  0  0  0  0  0  0  0
    0.0988   -0.4189    1.2346 C   0  0  0  0  0  0  0  0  0  0  0  0
    1.2310   -0.5140    1.6921 O   0  0  0  0  0  0  0  0  0  0  0  0
   -0.8824    0.2099    1.9813 N   0  0  0  0  0  0  0  0  0  0  0  0
   -1.8214    0.2132    1.6002 H   0  0  0  0  0  0  0  0  0  0  0  0
   -0.6589    0.7037    3.3336 C   0  0  0  0  0  0  0  0  0  0  0  0
    0.1339    1.4593    3.3376 H   0  0  0  0  0  0  0  0  0  0  0  0
   -1.5723    1.1595    3.7267 H   0  0  0  0  0  0  0  0  0  0  0  0
   -0.3672   -0.1175    3.9968 H   0  0  0  0  0  0  0  0  0  0  0  0
  1  2  1  0  0  0  0
  2  3  1  0  0  0  0
  2  4  1  0  0  0  0
  2  5  1  0  0  0  0
  5  6  2  0  0  0  0
  5  7  1  0  0  0  0
  7  8  1  0  0  0  0
  7  9  1  0  0  0  0
  9 10  1  0  0  0  0
  9 11  1  0  0  0  0
  9 25  1  0  0  0  0
 11 12  1  0  0  0  0
 11 13  1  0  0  0  0
 11 14  1  0  0  0  0
 14 15  1  0  0  0  0
 14 23  2  0  0  0  0
 15 16  1  0  0  0  0
 15 17  2  0  0  0  0
 17 18  1  0  0  0  0
 17 19  1  0  0  0  0
 19 20  1  0  0  0  0
 19 21  2  0  0  0  0
 21 22  1  0  0  0  0
 21 23  1  0  0  0  0
 23 24  1  0  0  0  0
 25 26  2  0  0  0  0
 25 27  1  0  0  0  0
 27 28  1  0  0  0  0
 27 29  1  0  0  0  0
 29 30  1  0  0  0  0
 29 31  1  0  0  0  0
 29 32  1  0  0  0  0
M  END
$$$$

  -OEChem-03222214073D

 32 32  0     1  0  0  0  0  0999 V2000
   -3.1910   -4.3807    0.8571 H   0  0  0  0  0  0  0  0  0  0  0  0
   -3.1338   -3.4840    0.2334 C   0  0  0  0  0  0  0  0  0  0  0  0
   -3.9551   -2.8158    0.5029 H   0  0  0  0  0  0  0  0  0  0  0  0
   -3.2389   -3.7778   -0.8137 H   0  0  0  0  0  0  0  0  0  0  0  0
   -1.8042   -2.7849    0.4465 C   0  0  0  0  0  0  0  0  0  0  0  0
   -1.0071   -3.2368    1.2477 O   0  0  0  0  0  0  0  0  0  0  0  0
   -1.5095   -1.6453   -0.2775 N   0  0  0  0  0  0  0  0  0  0  0  0
   -2.1802   -1.3733   -0.9895 H   0  0  0  0  0  0  0  0  0  0  0  0
   -0.2230   -0.9214   -0.2113 C   0  0  1  0  0  0  0  0  0  0  0  0
    0.5877   -1.6099   -0.4740 H   0  0  0  0  0  0  0  0  0  0  0  0
   -0.2712    0.1965   -1.2824 C   0  0  0  0  0  0  0  0  0  0  0  0
    0.0771   -0.2142   -2.2355 H   0  0  0  0  0  0  0  0  0  0  0  0
   -1.3095    0.5093   -1.4318 H   0  0  0  0  0  0  0  0  0  0  0  0
    0.5397    1.4289   -0.9510 C   0  0  0  0  0  0  0  0  0  0  0  0
   -0.0895    2.6127   -0.5336 C   0  0  0  0  0  0  0  0  0  0  0  0
   -1.1697    2.6558   -0.4380 H   0  0  0  0  0  0  0  0  0  0  0  0
    0.6668    3.7494   -0.2279 C   0  0  0  0  0  0  0  0  0  0  0  0
    0.1730    4.6597    0.0981 H   0  0  0  0  0  0  0  0  0  0  0  0
    2.0600    3.7124   -0.3349 C   0  0  0  0  0  0  0  0  0  0  0  0
    2.6490    4.5915   -0.0912 H   0  0  0  0  0  0  0  0  0  0  0  0
    2.6956    2.5376   -0.7470 C   0  0  0  0  0  0  0  0  0  0  0  0
    3.7786    2.5009   -0.8188 H   0  0  0  0  0  0  0  0  0  0  0  0
    1.9383    1.4026   -1.0549 C   0  0  0  0  0  0  0  0  0  0  0  0
    2.4448    0.4912   -1.3582 H   0  0  0  0  0  0  0  0  0  0  0  0
    0.1072   -0.3980    1.2090 C   0  0  0  0  0  0  0  0  0  0  0  0
    1.2523   -0.4656    1.6379 O   0  0  0  0  0  0  0  0  0  0  0  0
   -0.8652    0.2328    1.9657 N   0  0  0  0  0  0  0  0  0  0  0  0
   -1.8162    0.1893    1.6180 H   0  0  0  0  0  0  0  0  0  0  0  0
   -0.6209    0.7345    3.3112 C   0  0  0  0  0  0  0  0  0  0  0  0
    0.1739    1.4879    3.2989 H   0  0  0  0  0  0  0  0  0  0  0  0
   -1.5271    1.1958    3.7145 H   0  0  0  0  0  0  0  0  0  0  0  0
   -0.3217   -0.0832    3.9754 H   0  0  0  0  0  0  0  0  0  0  0  0
  1  2  1  0  0  0  0
  2  3  1  0  0  0  0
  2  4  1  0  0  0  0
  2  5  1  0  0  0  0
  5  6  2  0  0  0  0
  5  7  1  0  0  0  0
  7  8  1  0  0  0  0
  7  9  1  0  0  0  0
  9 10  1  0  0  0  0
  9 11  1  0  0  0  0
  9 25  1  0  0  0  0
 11 12  1  0  0  0  0
 11 13  1  0  0  0  0
 11 14  1  0  0  0  0
 14 15  1  0  0  0  0
 14 23  2  0  0  0  0
 15 16  1  0  0  0  0
 15 17  2  0  0  0  0
 17 18  1  0  0  0  0
 17 19  1  0  0  0  0
 19 20  1  0  0  0  0
 19 21  2  0  0  0  0
 21 22  1  0  0  0  0
 21 23  1  0  0  0  0
 23 24  1  0  0  0  0
 25 26  2  0  0  0  0
 25 27  1  0  0  0  0
 27 28  1  0  0  0  0
 27 29  1  0  0  0  0
 29 30  1  0  0  0  0
 29 31  1  0  0  0  0
 29 32  1  0  0  0  0
M  END
$$$$

  -OEChem-03222214073D

 32 32  0     1  0  0  0  0  0999 V2000
   -3.1859   -4.3829    0.8534 H   0  0  0  0  0  0  0  0  0  0  0  0
   -3.1317   -3.4840    0.2324 C   0  0  0  0  0  0  0  0  0  0  0  0
   -3.9540   -2.8187    0.5056 H   0  0  0  0  0  0  0  0  0  0  0  0
   -3.2380   -3.7745   -0.8155 H   0  0  0  0  0  0  0  0  0  0  0  0
   -1.8034   -2.7823    0.4450 C   0  0  0  0  0  0  0  0  0  0  0  0
   -1.0036   -3.2335    1.2439 O   0  0  0  0  0  0  0  0  0  0  0  0
   -1.5144   -1.6374   -0.2731 N   0  0  0  0  0  0  0  0  0  0  0  0
   -2.1892   -1.3614   -0.9798 H   0  0  0  0  0  0  0  0  0  0  0  0
   -0.2292   -0.9111   -0.2093 C   0  0  1  0  0  0  0  0  0  0  0  0
    0.5799   -1.6021   -0.4712 H   0  0  0  0  0  0  0  0  0  0  0  0
   -0.2684    0.1994   -1.2888 C   0  0  0  0  0  0  0  0  0  0  0  0
    0.0741   -0.2226   -2.2391 H   0  0  0  0  0  0  0  0  0  0  0  0
   -1.3043    0.5189   -1.4396 H   0  0  0  0  0  0  0  0  0  0  0  0
    0.5406    1.4359   -0.9683 C   0  0  0  0  0  0  0  0  0  0  0  0
   -0.0333    2.5165   -0.2788 C   0  0  0  0  0  0  0  0  0  0  0  0
   -1.0729    2.4781    0.0299 H   0  0  0  0  0  0  0  0  0  0  0  0
    0.7278    3.6499    0.0266 C   0  0  0  0  0  0  0  0  0  0  0  0
    0.2775    4.4788    0.5641 H   0  0  0  0  0  0  0  0  0  0  0  0
    2.0719    3.7123   -0.3519 C   0  0  0  0  0  0  0  0  0  0  0  0
    2.6660    4.5886   -0.1102 H   0  0  0  0  0  0  0  0  0  0  0  0
    2.6541    2.6390   -1.0322 C   0  0  0  0  0  0  0  0  0  0  0  0
    3.7016    2.6791   -1.3156 H   0  0  0  0  0  0  0  0  0  0  0  0
    1.8918    1.5064   -1.3372 C   0  0  0  0  0  0  0  0  0  0  0  0
    2.3607    0.6732   -1.8518 H   0  0  0  0  0  0  0  0  0  0  0  0
    0.1066   -0.3965    1.2126 C   0  0  0  0  0  0  0  0  0  0  0  0
    1.2576   -0.4426    1.6279 O   0  0  0  0  0  0  0  0  0  0  0  0
   -0.8655    0.2260    1.9771 N   0  0  0  0  0  0  0  0  0  0  0  0
   -1.8215    0.1434    1.6506 H   0  0  0  0  0  0  0  0  0  0  0  0
   -0.6171    0.7157    3.3265 C   0  0  0  0  0  0  0  0  0  0  0  0
    0.1818    1.4647    3.3197 H   0  0  0  0  0  0  0  0  0  0  0  0
   -1.5204    1.1793    3.7337 H   0  0  0  0  0  0  0  0  0  0  0  0
   -0.3218   -0.1085    3.9843 H   0  0  0  0  0  0  0  0  0  0  0  0
  1  2  1  0  0  0  0
  2  3  1  0  0  0  0
  2  4  1  0  0  0  0
  2  5  1  0  0  0  0
  5  6  2  0  0  0  0
  5  7  1  0  0  0  0
  7  8  1  0  0  0  0
  7  9  1  0  0  0  0
  9 10  1  0  0  0  0
  9 11  1  0  0  0  0
  9 25  1  0  0  0  0
 11 12  1  0  0  0  0
 11 13  1  0  0  0  0
 11 14  1  0  0  0  0
 14 15  1  0  0  0  0
 14 23  2  0  0  0  0
 15 16  1  0  0  0  0
 15 17  2  0  0  0  0
 17 18  1  0  0  0  0
 17 19  1  0  0  0  0
 19 20  1  0  0  0  0
 19 21  2  0  0  0  0
 21 22  1  0  0  0  0
 21 23  1  0  0  0  0
 23 24  1  0  0  0  0
 25 26  2  0  0  0  0
 25 27  1  0  0  0  0
 27 28  1  0  0  0  0
 27 29  1  0  0  0  0
 29 30  1  0  0  0  0
 29 31  1  0  0  0  0
 29 32  1  0  0  0  0
M  END
$$$$

  -OEChem-03222214073D

 32 32  0     1  0  0  0  0  0999 V2000
   -3.1902   -4.3931    0.8130 H   0  0  0  0  0  0  0  0  0  0  0  0
   -3.1369   -3.4824    0.2094 C   0  0  0  0  0  0  0  0  0  0  0  0
   -3.9588   -2.8221    0.4964 H   0  0  0  0  0  0  0  0  0  0  0  0
   -3.2439   -3.7529   -0.8438 H   0  0  0  0  0  0  0  0  0  0  0  0
   -1.8083   -2.7849    0.4344 C   0  0  0  0  0  0  0  0  0  0  0  0
   -1.0073   -3.2521    1.2228 O   0  0  0  0  0  0  0  0  0  0  0  0
   -1.5208   -1.6244   -0.2587 N   0  0  0  0  0  0  0  0  0  0  0  0
   -2.2007   -1.3283   -0.9524 H   0  0  0  0  0  0  0  0  0  0  0  0
   -0.2371   -0.8962   -0.1799 C   0  0  1  0  0  0  0  0  0  0  0  0
    0.5696   -1.5929   -0.4349 H   0  0  0  0  0  0  0  0  0  0  0  0
   -0.2462    0.2046   -1.2733 C   0  0  0  0  0  0  0  0  0  0  0  0
    0.1007   -0.2396   -2.2119 H   0  0  0  0  0  0  0  0  0  0  0  0
   -1.2788    0.5260   -1.4404 H   0  0  0  0  0  0  0  0  0  0  0  0
    0.5504    1.4599   -0.9836 C   0  0  0  0  0  0  0  0  0  0  0  0
    0.0896    2.4345   -0.0828 C   0  0  0  0  0  0  0  0  0  0  0  0
   -0.8700    2.3162    0.4084 H   0  0  0  0  0  0  0  0  0  0  0  0
    0.8546    3.5724    0.1920 C   0  0  0  0  0  0  0  0  0  0  0  0
    0.4886    4.3157    0.8936 H   0  0  0  0  0  0  0  0  0  0  0  0
    2.0933    3.7490   -0.4297 C   0  0  0  0  0  0  0  0  0  0  0  0
    2.6911    4.6289   -0.2116 H   0  0  0  0  0  0  0  0  0  0  0  0
    2.5657    2.7851   -1.3244 C   0  0  0  0  0  0  0  0  0  0  0  0
    3.5326    2.9141   -1.8016 H   0  0  0  0  0  0  0  0  0  0  0  0
    1.7992    1.6468   -1.5964 C   0  0  0  0  0  0  0  0  0  0  0  0
    2.1888    0.9005   -2.2818 H   0  0  0  0  0  0  0  0  0  0  0  0
    0.0945   -0.4125    1.2530 C   0  0  0  0  0  0  0  0  0  0  0  0
    1.2478   -0.4470    1.6620 O   0  0  0  0  0  0  0  0  0  0  0  0
   -0.8804    0.1891    2.0311 N   0  0  0  0  0  0  0  0  0  0  0  0
   -1.8379    0.0837    1.7150 H   0  0  0  0  0  0  0  0  0  0  0  0
   -0.6329    0.6399    3.3943 C   0  0  0  0  0  0  0  0  0  0  0  0
    0.1632    1.3918    3.4091 H   0  0  0  0  0  0  0  0  0  0  0  0
   -1.5377    1.0875    3.8159 H   0  0  0  0  0  0  0  0  0  0  0  0
   -0.3336   -0.2028    4.0265 H   0  0  0  0  0  0  0  0  0  0  0  0
  1  2  1  0  0  0  0
  2  3  1  0  0  0  0
  2  4  1  0  0  0  0
  2  5  1  0  0  0  0
  5  6  2  0  0  0  0
  5  7  1  0  0  0  0
  7  8  1  0  0  0  0
  7  9  1  0  0  0  0
  9 10  1  0  0  0  0
  9 11  1  0  0  0  0
  9 25  1  0  0  0  0
 11 12  1  0  0  0  0
 11 13  1  0  0  0  0
 11 14  1  0  0  0  0
 14 15  1  0  0  0  0
 14 23  2  0  0  0  0
 15 16  1  0  0  0  0
 15 17  2  0  0  0  0
 17 18  1  0  0  0  0
 17 19  1  0  0  0  0
 19 20  1  0  0  0  0
 19 21  2  0  0  0  0
 21 22  1  0  0  0  0
 21 23  1  0  0  0  0
 23 24  1  0  0  0  0
 25 26  2  0  0  0  0
 25 27  1  0  0  0  0
 27 28  1  0  0  0  0
 27 29  1  0  0  0  0
 29 30  1  0  0  0  0
 29 31  1  0  0  0  0
 29 32  1  0  0  0  0
M  END
$$$$

  -OEChem-03222214073D

 32 32  0     1  0  0  0  0  0999 V2000
   -3.1979   -4.4043    0.7470 H   0  0  0  0  0  0  0  0  0  0  0  0
   -3.1416   -3.4772    0.1693 C   0  0  0  0  0  0  0  0  0  0  0  0
   -3.9612   -2.8228    0.4752 H   0  0  0  0  0  0  0  0  0  0  0  0
   -3.2506   -3.7178   -0.8909 H   0  0  0  0  0  0  0  0  0  0  0  0
   -1.8102   -2.7916    0.4125 C   0  0  0  0  0  0  0  0  0  0  0  0
   -1.0088   -3.2860    1.1836 O   0  0  0  0  0  0  0  0  0  0  0  0
   -1.5211   -1.6090   -0.2417 N   0  0  0  0  0  0  0  0  0  0  0  0
   -2.2024   -1.2867   -0.9222 H   0  0  0  0  0  0  0  0  0  0  0  0
   -0.2395   -0.8802   -0.1340 C   0  0  1  0  0  0  0  0  0  0  0  0
    0.5660   -1.5801   -0.3841 H   0  0  0  0  0  0  0  0  0  0  0  0
   -0.2139    0.2184   -1.2340 C   0  0  0  0  0  0  0  0  0  0  0  0
    0.1417   -0.2475   -2.1586 H   0  0  0  0  0  0  0  0  0  0  0  0
   -1.2443    0.5357   -1.4208 H   0  0  0  0  0  0  0  0  0  0  0  0
    0.5644    1.5000   -0.9841 C   0  0  0  0  0  0  0  0  0  0  0  0
    0.2798    2.3791    0.0756 C   0  0  0  0  0  0  0  0  0  0  0  0
   -0.5608    2.2011    0.7343 H   0  0  0  0  0  0  0  0  0  0  0  0
    1.0542    3.5240    0.2894 C   0  0  0  0  0  0  0  0  0  0  0  0
    0.8197    4.1900    1.1142 H   0  0  0  0  0  0  0  0  0  0  0  0
    2.1303    3.8092   -0.5534 C   0  0  0  0  0  0  0  0  0  0  0  0
    2.7354    4.6949   -0.3838 H   0  0  0  0  0  0  0  0  0  0  0  0
    2.4284    2.9474   -1.6108 C   0  0  0  0  0  0  0  0  0  0  0  0
    3.2687    3.1614   -2.2643 H   0  0  0  0  0  0  0  0  0  0  0  0
    1.6527    1.8024   -1.8207 C   0  0  0  0  0  0  0  0  0  0  0  0
    1.9146    1.1390   -2.6393 H   0  0  0  0  0  0  0  0  0  0  0  0
    0.0742   -0.4458    1.3179 C   0  0  0  0  0  0  0  0  0  0  0  0
    1.2249   -0.4753    1.7337 O   0  0  0  0  0  0  0  0  0  0  0  0
   -0.9116    0.1236    2.1071 N   0  0  0  0  0  0  0  0  0  0  0  0
   -1.8657    0.0171    1.7804 H   0  0  0  0  0  0  0  0  0  0  0  0
   -0.6813    0.5178    3.4911 C   0  0  0  0  0  0  0  0  0  0  0  0
    0.1099    1.2730    3.5475 H   0  0  0  0  0  0  0  0  0  0  0  0
   -1.5935    0.9418    3.9213 H   0  0  0  0  0  0  0  0  0  0  0  0
   -0.3837   -0.3490    4.0905 H   0  0  0  0  0  0  0  0  0  0  0  0
  1  2  1  0  0  0  0
  2  3  1  0  0  0  0
  2  4  1  0  0  0  0
  2  5  1  0  0  0  0
  5  6  2  0  0  0  0
  5  7  1  0  0  0  0
  7  8  1  0  0  0  0
  7  9  1  0  0  0  0
  9 10  1  0  0  0  0
  9 11  1  0  0  0  0
  9 25  1  0  0  0  0
 11 12  1  0  0  0  0
 11 13  1  0  0  0  0
 11 14  1  0  0  0  0
 14 15  1  0  0  0  0
 14 23  2  0  0  0  0
 15 16  1  0  0  0  0
 15 17  2  0  0  0  0
 17 18  1  0  0  0  0
 17 19  1  0  0  0  0
 19 20  1  0  0  0  0
 19 21  2  0  0  0  0
 21 22  1  0  0  0  0
 21 23  1  0  0  0  0
 23 24  1  0  0  0  0
 25 26  2  0  0  0  0
 25 27  1  0  0  0  0
 27 28  1  0  0  0  0
 27 29  1  0  0  0  0
 29 30  1  0  0  0  0
 29 31  1  0  0  0  0
 29 32  1  0  0  0  0
M  END
$$$$

  -OEChem-03222214073D

 32 32  0     1  0  0  0  0  0999 V2000
   -3.2374   -4.3877    0.6634 H   0  0  0  0  0  0  0  0  0  0  0  0
   -3.1580   -3.4462    0.1122 C   0  0  0  0  0  0  0  0  0  0  0  0
   -3.9718   -2.7869    0.4235 H   0  0  0  0  0  0  0  0  0  0  0  0
   -3.2548   -3.6562   -0.9557 H   0  0  0  0  0  0  0  0  0  0  0  0
   -1.8197   -2.7891    0.3940 C   0  0  0  0  0  0  0  0  0  0  0  0
   -1.0367   -3.3182    1.1611 O   0  0  0  0  0  0  0  0  0  0  0  0
   -1.5028   -1.5942   -0.2243 N   0  0  0  0  0  0  0  0  0  0  0  0
   -2.1726   -1.2406   -0.9008 H   0  0  0  0  0  0  0  0  0  0  0  0
   -0.2138   -0.8841   -0.0773 C   0  0  1  0  0  0  0  0  0  0  0  0
    0.5914   -1.5858   -0.3238 H   0  0  0  0  0  0  0  0  0  0  0  0
   -0.1599    0.2321   -1.1626 C   0  0  0  0  0  0  0  0  0  0  0  0
    0.1950   -0.2441   -2.0822 H   0  0  0  0  0  0  0  0  0  0  0  0
   -1.1883    0.5527   -1.3554 H   0  0  0  0  0  0  0  0  0  0  0  0
    0.6109    1.5321   -0.9487 C   0  0  0  0  0  0  0  0  0  0  0  0
    0.5755    2.3146    0.2212 C   0  0  0  0  0  0  0  0  0  0  0  0
   -0.0629    2.0660    1.0558 H   0  0  0  0  0  0  0  0  0  0  0  0
    1.3444    3.4773    0.3391 C   0  0  0  0  0  0  0  0  0  0  0  0
    1.3024    4.0614    1.2535 H   0  0  0  0  0  0  0  0  0  0  0  0
    2.1647    3.8875   -0.7125 C   0  0  0  0  0  0  0  0  0  0  0  0
    2.7645    4.7880   -0.6189 H   0  0  0  0  0  0  0  0  0  0  0  0
    2.2116    3.1318   -1.8839 C   0  0  0  0  0  0  0  0  0  0  0  0
    2.8496    3.4442   -2.7054 H   0  0  0  0  0  0  0  0  0  0  0  0
    1.4435    1.9684   -1.9967 C   0  0  0  0  0  0  0  0  0  0  0  0
    1.5102    1.3964   -2.9171 H   0  0  0  0  0  0  0  0  0  0  0  0
    0.0562   -0.5017    1.3969 C   0  0  0  0  0  0  0  0  0  0  0  0
    1.1925   -0.5469    1.8487 O   0  0  0  0  0  0  0  0  0  0  0  0
   -0.9521    0.0507    2.1704 N   0  0  0  0  0  0  0  0  0  0  0  0
   -1.8938   -0.0314    1.8029 H   0  0  0  0  0  0  0  0  0  0  0  0
   -0.7756    0.3678    3.5821 C   0  0  0  0  0  0  0  0  0  0  0  0
    0.0283    1.0998    3.7137 H   0  0  0  0  0  0  0  0  0  0  0  0
   -1.6968    0.7912    3.9934 H   0  0  0  0  0  0  0  0  0  0  0  0
   -0.5255   -0.5361    4.1476 H   0  0  0  0  0  0  0  0  0  0  0  0
  1  2  1  0  0  0  0
  2  3  1  0  0  0  0
  2  4  1  0  0  0  0
  2  5  1  0  0  0  0
  5  6  2  0  0  0  0
  5  7  1  0  0  0  0
  7  8  1  0  0  0  0
  7  9  1  0  0  0  0
  9 10  1  0  0  0  0
  9 11  1  0  0  0  0
  9 25  1  0  0  0  0
 11 12  1  0  0  0  0
 11 13  1  0  0  0  0
 11 14  1  0  0  0  0
 14 15  1  0  0  0  0
 14 23  2  0  0  0  0
 15 16  1  0  0  0  0
 15 17  2  0  0  0  0
 17 18  1  0  0  0  0
 17 19  1  0  0  0  0
 19 20  1  0  0  0  0
 19 21  2  0  0  0  0
 21 22  1  0  0  0  0
 21 23  1  0  0  0  0
 23 24  1  0  0  0  0
 25 26  2  0  0  0  0
 25 27  1  0  0  0  0
 27 28  1  0  0  0  0
 27 29  1  0  0  0  0
 29 30  1  0  0  0  0
 29 31  1  0  0  0  0
 29 32  1  0  0  0  0
M  END
$$$$

  -OEChem-03222214073D

 32 32  0     1  0  0  0  0  0999 V2000
   -3.3225   -4.3357    0.5898 H   0  0  0  0  0  0  0  0  0  0  0  0
   -3.2000   -3.3914    0.0515 C   0  0  0  0  0  0  0  0  0  0  0  0
   -4.0006   -2.7108    0.3504 H   0  0  0  0  0  0  0  0  0  0  0  0
   -3.2770   -3.5871   -1.0208 H   0  0  0  0  0  0  0  0  0  0  0  0
   -1.8487   -2.7799    0.3722 C   0  0  0  0  0  0  0  0  0  0  0  0
   -1.0967   -3.3483    1.1422 O   0  0  0  0  0  0  0  0  0  0  0  0
   -1.4812   -1.5875   -0.2228 N   0  0  0  0  0  0  0  0  0  0  0  0
   -2.1286   -1.2008   -0.9029 H   0  0  0  0  0  0  0  0  0  0  0  0
   -0.1742   -0.9184   -0.0392 C   0  0  1  0  0  0  0  0  0  0  0  0
    0.6232   -1.6267   -0.2917 H   0  0  0  0  0  0  0  0  0  0  0  0
   -0.1081    0.2293   -1.0926 C   0  0  0  0  0  0  0  0  0  0  0  0
    0.2413   -0.2378   -2.0191 H   0  0  0  0  0  0  0  0  0  0  0  0
   -1.1353    0.5600   -1.2755 H   0  0  0  0  0  0  0  0  0  0  0  0
    0.6678    1.5333   -0.8972 C   0  0  0  0  0  0  0  0  0  0  0  0
    0.9269    2.1940    0.3222 C   0  0  0  0  0  0  0  0  0  0  0  0
    0.5651    1.8396    1.2752 H   0  0  0  0  0  0  0  0  0  0  0  0
    1.6642    3.3828    0.3606 C   0  0  0  0  0  0  0  0  0  0  0  0
    1.8524    3.8679    1.3140 H   0  0  0  0  0  0  0  0  0  0  0  0
    2.1585    3.9454   -0.8161 C   0  0  0  0  0  0  0  0  0  0  0  0
    2.7331    4.8663   -0.7825 H   0  0  0  0  0  0  0  0  0  0  0  0
    1.9103    3.3159   -2.0347 C   0  0  0  0  0  0  0  0  0  0  0  0
    2.2919    3.7464   -2.9558 H   0  0  0  0  0  0  0  0  0  0  0  0
    1.1742    2.1278   -2.0695 C   0  0  0  0  0  0  0  0  0  0  0  0
    1.0019    1.6617   -3.0348 H   0  0  0  0  0  0  0  0  0  0  0  0
    0.0619   -0.5688    1.4465 C   0  0  0  0  0  0  0  0  0  0  0  0
    1.1776   -0.6731    1.9391 O   0  0  0  0  0  0  0  0  0  0  0  0
   -0.9548    0.0017    2.1947 N   0  0  0  0  0  0  0  0  0  0  0  0
   -1.8809   -0.0178    1.7820 H   0  0  0  0  0  0  0  0  0  0  0  0
   -0.8266    0.2829    3.6189 C   0  0  0  0  0  0  0  0  0  0  0  0
    0.0017    0.9759    3.8003 H   0  0  0  0  0  0  0  0  0  0  0  0
   -1.7461    0.7384    3.9984 H   0  0  0  0  0  0  0  0  0  0  0  0
   -0.6408   -0.6416    4.1758 H   0  0  0  0  0  0  0  0  0  0  0  0
  1  2  1  0  0  0  0
  2  3  1  0  0  0  0
  2  4  1  0  0  0  0
  2  5  1  0  0  0  0
  5  6  2  0  0  0  0
  5  7  1  0  0  0  0
  7  8  1  0  0  0  0
  7  9  1  0  0  0  0
  9 10  1  0  0  0  0
  9 11  1  0  0  0  0
  9 25  1  0  0  0  0
 11 12  1  0  0  0  0
 11 13  1  0  0  0  0
 11 14  1  0  0  0  0
 14 15  1  0  0  0  0
 14 23  2  0  0  0  0
 15 16  1  0  0  0  0
 15 17  2  0  0  0  0
 17 18  1  0  0  0  0
 17 19  1  0  0  0  0
 19 20  1  0  0  0  0
 19 21  2  0  0  0  0
 21 22  1  0  0  0  0
 21 23  1  0  0  0  0
 23 24  1  0  0  0  0
 25 26  2  0  0  0  0
 25 27  1  0  0  0  0
 27 28  1  0  0  0  0
 27 29  1  0  0  0  0
 29 30  1  0  0  0  0
 29 31  1  0  0  0  0
 29 32  1  0  0  0  0
M  END
$$$$

  -OEChem-03222214073D

 32 32  0     1  0  0  0  0  0999 V2000
   -3.4078   -4.2687    0.5749 H   0  0  0  0  0  0  0  0  0  0  0  0
   -3.2526   -3.3271    0.0401 C   0  0  0  0  0  0  0  0  0  0  0  0
   -4.0260   -2.6187    0.3458 H   0  0  0  0  0  0  0  0  0  0  0  0
   -3.3414   -3.5141   -1.0328 H   0  0  0  0  0  0  0  0  0  0  0  0
   -1.8786   -2.7672    0.3585 C   0  0  0  0  0  0  0  0  0  0  0  0
   -1.1463   -3.3671    1.1233 O   0  0  0  0  0  0  0  0  0  0  0  0
   -1.4682   -1.5870   -0.2336 N   0  0  0  0  0  0  0  0  0  0  0  0
   -2.1020   -1.1740   -0.9106 H   0  0  0  0  0  0  0  0  0  0  0  0
   -0.1443   -0.9557   -0.0326 C   0  0  1  0  0  0  0  0  0  0  0  0
    0.6435   -1.6730   -0.2892 H   0  0  0  0  0  0  0  0  0  0  0  0
   -0.0722    0.2131   -1.0645 C   0  0  0  0  0  0  0  0  0  0  0  0
    0.2694   -0.2409   -2.0008 H   0  0  0  0  0  0  0  0  0  0  0  0
   -1.0984    0.5546   -1.2344 H   0  0  0  0  0  0  0  0  0  0  0  0
    0.7156    1.5129   -0.8778 C   0  0  0  0  0  0  0  0  0  0  0  0
    1.2637    2.0343    0.3149 C   0  0  0  0  0  0  0  0  0  0  0  0
    1.1844    1.5492    1.2750 H   0  0  0  0  0  0  0  0  0  0  0  0
    1.9627    3.2467    0.3223 C   0  0  0  0  0  0  0  0  0  0  0  0
    2.3793    3.6209    1.2531 H   0  0  0  0  0  0  0  0  0  0  0  0
    2.1304    3.9734   -0.8557 C   0  0  0  0  0  0  0  0  0  0  0  0
    2.6757    4.9125   -0.8453 H   0  0  0  0  0  0  0  0  0  0  0  0
    1.5940    3.4843   -2.0454 C   0  0  0  0  0  0  0  0  0  0  0  0
    1.7202    4.0438   -2.9675 H   0  0  0  0  0  0  0  0  0  0  0  0
    0.8967    2.2723   -2.0502 C   0  0  0  0  0  0  0  0  0  0  0  0
    0.4915    1.9170   -2.9929 H   0  0  0  0  0  0  0  0  0  0  0  0
    0.0724   -0.6135    1.4570 C   0  0  0  0  0  0  0  0  0  0  0  0
    1.1571   -0.8179    1.9876 O   0  0  0  0  0  0  0  0  0  0  0  0
   -0.9360   -0.0127    2.1908 N   0  0  0  0  0  0  0  0  0  0  0  0
   -1.8439    0.0576    1.7448 H   0  0  0  0  0  0  0  0  0  0  0  0
   -0.8271    0.2561    3.6186 C   0  0  0  0  0  0  0  0  0  0  0  0
   -0.0140    0.9631    3.8132 H   0  0  0  0  0  0  0  0  0  0  0  0
   -1.7589    0.6895    3.9942 H   0  0  0  0  0  0  0  0  0  0  0  0
   -0.6285   -0.6702    4.1682 H   0  0  0  0  0  0  0  0  0  0  0  0
  1  2  1  0  0  0  0
  2  3  1  0  0  0  0
  2  4  1  0  0  0  0
  2  5  1  0  0  0  0
  5  6  2  0  0  0  0
  5  7  1  0  0  0  0
  7  8  1  0  0  0  0
  7  9  1  0  0  0  0
  9 10  1  0  0  0  0
  9 11  1  0  0  0  0
  9 25  1  0  0  0  0
 11 12  1  0  0  0  0
 11 13  1  0  0  0  0
 11 14  1  0  0  0  0
 14 15  1  0  0  0  0
 14 23  2  0  0  0  0
 15 16  1  0  0  0  0
 15 17  2  0  0  0  0
 17 18  1  0  0  0  0
 17 19  1  0  0  0  0
 19 20  1  0  0  0  0
 19 21  2  0  0  0  0
 21 22  1  0  0  0  0
 21 23  1  0  0  0  0
 23 24  1  0  0  0  0
 25 26  2  0  0  0  0
 25 27  1  0  0  0  0
 27 28  1  0  0  0  0
 27 29  1  0  0  0  0
 29 30  1  0  0  0  0
 29 31  1  0  0  0  0
 29 32  1  0  0  0  0
M  END
$$$$

  -OEChem-03222214073D

 32 32  0     1  0  0  0  0  0999 V2000
   -3.4593   -4.2001    0.6438 H   0  0  0  0  0  0  0  0  0  0  0  0
   -3.2737   -3.2784    0.0845 C   0  0  0  0  0  0  0  0  0  0  0  0
   -4.0238   -2.5374    0.3706 H   0  0  0  0  0  0  0  0  0  0  0  0
   -3.3680   -3.4908   -0.9833 H   0  0  0  0  0  0  0  0  0  0  0  0
   -1.8825   -2.7544    0.3896 C   0  0  0  0  0  0  0  0  0  0  0  0
   -1.1688   -3.3604    1.1669 O   0  0  0  0  0  0  0  0  0  0  0  0
   -1.4331   -1.6080   -0.2394 N   0  0  0  0  0  0  0  0  0  0  0  0
   -2.0553   -1.1936   -0.9263 H   0  0  0  0  0  0  0  0  0  0  0  0
   -0.0996   -0.9967   -0.0367 C   0  0  1  0  0  0  0  0  0  0  0  0
    0.6881   -1.7228   -0.2670 H   0  0  0  0  0  0  0  0  0  0  0  0
   -0.0277    0.1613   -1.0800 C   0  0  0  0  0  0  0  0  0  0  0  0
    0.3090   -0.2942   -2.0171 H   0  0  0  0  0  0  0  0  0  0  0  0
   -1.0535    0.5071   -1.2454 H   0  0  0  0  0  0  0  0  0  0  0  0
    0.7713    1.4524   -0.9036 C   0  0  0  0  0  0  0  0  0  0  0  0
    1.5705    1.8280    0.1965 C   0  0  0  0  0  0  0  0  0  0  0  0
    1.7571    1.1843    1.0419 H   0  0  0  0  0  0  0  0  0  0  0  0
    2.2152    3.0693    0.2329 C   0  0  0  0  0  0  0  0  0  0  0  0
    2.8308    3.3294    1.0892 H   0  0  0  0  0  0  0  0  0  0  0  0
    2.0789    3.9671   -0.8257 C   0  0  0  0  0  0  0  0  0  0  0  0
    2.5826    4.9288   -0.7941 H   0  0  0  0  0  0  0  0  0  0  0  0
    1.2982    3.6176   -1.9265 C   0  0  0  0  0  0  0  0  0  0  0  0
    1.1903    4.3092   -2.7568 H   0  0  0  0  0  0  0  0  0  0  0  0
    0.6557    2.3763   -1.9595 C   0  0  0  0  0  0  0  0  0  0  0  0
    0.0517    2.1310   -2.8280 H   0  0  0  0  0  0  0  0  0  0  0  0
    0.0796   -0.6043    1.4485 C   0  0  0  0  0  0  0  0  0  0  0  0
    1.1114   -0.8887    2.0442 O   0  0  0  0  0  0  0  0  0  0  0  0
   -0.9348    0.0433    2.1324 N   0  0  0  0  0  0  0  0  0  0  0  0
   -1.8083    0.1818    1.6368 H   0  0  0  0  0  0  0  0  0  0  0  0
   -0.8712    0.3413    3.5572 C   0  0  0  0  0  0  0  0  0  0  0  0
   -0.0253    1.0029    3.7715 H   0  0  0  0  0  0  0  0  0  0  0  0
   -1.7900    0.8385    3.8822 H   0  0  0  0  0  0  0  0  0  0  0  0
   -0.7530   -0.5812    4.1357 H   0  0  0  0  0  0  0  0  0  0  0  0
  1  2  1  0  0  0  0
  2  3  1  0  0  0  0
  2  4  1  0  0  0  0
  2  5  1  0  0  0  0
  5  6  2  0  0  0  0
  5  7  1  0  0  0  0
  7  8  1  0  0  0  0
  7  9  1  0  0  0  0
  9 10  1  0  0  0  0
  9 11  1  0  0  0  0
  9 25  1  0  0  0  0
 11 12  1  0  0  0  0
 11 13  1  0  0  0  0
 11 14  1  0  0  0  0
 14 15  1  0  0  0  0
 14 23  2  0  0  0  0
 15 16  1  0  0  0  0
 15 17  2  0  0  0  0
 17 18  1  0  0  0  0
 17 19  1  0  0  0  0
 19 20  1  0  0  0  0
 19 21  2  0  0  0  0
 21 22  1  0  0  0  0
 21 23  1  0  0  0  0
 23 24  1  0  0  0  0
 25 26  2  0  0  0  0
 25 27  1  0  0  0  0
 27 28  1  0  0  0  0
 27 29  1  0  0  0  0
 29 30  1  0  0  0  0
 29 31  1  0  0  0  0
 29 32  1  0  0  0  0
M  END
$$$$

  -OEChem-03222214073D

 32 32  0     1  0  0  0  0  0999 V2000
   -3.4201   -4.1920    0.7888 H   0  0  0  0  0  0  0  0  0  0  0  0
   -3.2630   -3.2856    0.1969 C   0  0  0  0  0  0  0  0  0  0  0  0
   -3.9941   -2.5345    0.5052 H   0  0  0  0  0  0  0  0  0  0  0  0
   -3.4154   -3.5245   -0.8585 H   0  0  0  0  0  0  0  0  0  0  0  0
   -1.8562   -2.7598    0.4122 C   0  0  0  0  0  0  0  0  0  0  0  0
   -1.0974   -3.3576    1.1522 O   0  0  0  0  0  0  0  0  0  0  0  0
   -1.4454   -1.6217   -0.2572 N   0  0  0  0  0  0  0  0  0  0  0  0
   -2.1043   -1.2204   -0.9169 H   0  0  0  0  0  0  0  0  0  0  0  0
   -0.1063   -1.0022   -0.1321 C   0  0  1  0  0  0  0  0  0  0  0  0
    0.6786   -1.7161   -0.4054 H   0  0  0  0  0  0  0  0  0  0  0  0
   -0.1136    0.1721   -1.1580 C   0  0  0  0  0  0  0  0  0  0  0  0
    0.1724   -0.2505   -2.1264 H   0  0  0  0  0  0  0  0  0  0  0  0
   -1.1497    0.5132   -1.2541 H   0  0  0  0  0  0  0  0  0  0  0  0
    0.7045    1.4454   -0.9659 C   0  0  0  0  0  0  0  0  0  0  0  0
    1.7661    1.6132   -0.0559 C   0  0  0  0  0  0  0  0  0  0  0  0
    2.1567    0.7924    0.5300 H   0  0  0  0  0  0  0  0  0  0  0  0
    2.4141    2.8447    0.0819 C   0  0  0  0  0  0  0  0  0  0  0  0
    3.2347    2.9440    0.7866 H   0  0  0  0  0  0  0  0  0  0  0  0
    2.0180    3.9379   -0.6891 C   0  0  0  0  0  0  0  0  0  0  0  0
    2.5242    4.8928   -0.5814 H   0  0  0  0  0  0  0  0  0  0  0  0
    0.9752    3.7933   -1.6047 C   0  0  0  0  0  0  0  0  0  0  0  0
    0.6660    4.6392   -2.2115 H   0  0  0  0  0  0  0  0  0  0  0  0
    0.3289    2.5600   -1.7385 C   0  0  0  0  0  0  0  0  0  0  0  0
   -0.4832    2.4760   -2.4543 H   0  0  0  0  0  0  0  0  0  0  0  0
    0.1351   -0.5888    1.3428 C   0  0  0  0  0  0  0  0  0  0  0  0
    1.1791   -0.8845    1.9111 O   0  0  0  0  0  0  0  0  0  0  0  0
   -0.8541    0.0624    2.0601 N   0  0  0  0  0  0  0  0  0  0  0  0
   -1.7344    0.2308    1.5866 H   0  0  0  0  0  0  0  0  0  0  0  0
   -0.7300    0.3975    3.4728 C   0  0  0  0  0  0  0  0  0  0  0  0
    0.1070    1.0859    3.6296 H   0  0  0  0  0  0  0  0  0  0  0  0
   -1.6452    0.8789    3.8300 H   0  0  0  0  0  0  0  0  0  0  0  0
   -0.5600   -0.5068    4.0668 H   0  0  0  0  0  0  0  0  0  0  0  0
  1  2  1  0  0  0  0
  2  3  1  0  0  0  0
  2  4  1  0  0  0  0
  2  5  1  0  0  0  0
  5  6  2  0  0  0  0
  5  7  1  0  0  0  0
  7  8  1  0  0  0  0
  7  9  1  0  0  0  0
  9 10  1  0  0  0  0
  9 11  1  0  0  0  0
  9 25  1  0  0  0  0
 11 12  1  0  0  0  0
 11 13  1  0  0  0  0
 11 14  1  0  0  0  0
 14 15  1  0  0  0  0
 14 23  2  0  0  0  0
 15 16  1  0  0  0  0
 15 17  2  0  0  0  0
 17 18  1  0  0  0  0
 17 19  1  0  0  0  0
 19 20  1  0  0  0  0
 19 21  2  0  0  0  0
 21 22  1  0  0  0  0
 21 23  1  0  0  0  0
 23 24  1  0  0  0  0
 25 26  2  0  0  0  0
 25 27  1  0  0  0  0
 27 28  1  0  0  0  0
 27 29  1  0  0  0  0
 29 30  1  0  0  0  0
 29 31  1  0  0  0  0
 29 32  1  0  0  0  0
M  END
$$$$

  -OEChem-03222214073D

 32 32  0     1  0  0  0  0  0999 V2000
   -3.3473   -4.2407    0.8641 H   0  0  0  0  0  0  0  0  0  0  0  0
   -3.2208   -3.3481    0.2446 C   0  0  0  0  0  0  0  0  0  0  0  0
   -3.9762   -2.6127    0.5305 H   0  0  0  0  0  0  0  0  0  0  0  0
   -3.3670   -3.6248   -0.8023 H   0  0  0  0  0  0  0  0  0  0  0  0
   -1.8320   -2.7696    0.4409 C   0  0  0  0  0  0  0  0  0  0  0  0
   -1.0520   -3.3203    1.1953 O   0  0  0  0  0  0  0  0  0  0  0  0
   -1.4572   -1.6423   -0.2662 N   0  0  0  0  0  0  0  0  0  0  0  0
   -2.1311   -1.2783   -0.9322 H   0  0  0  0  0  0  0  0  0  0  0  0
   -0.1341   -0.9864   -0.1696 C   0  0  1  0  0  0  0  0  0  0  0  0
    0.6631   -1.6911   -0.4311 H   0  0  0  0  0  0  0  0  0  0  0  0
   -0.1664    0.1643   -1.2174 C   0  0  0  0  0  0  0  0  0  0  0  0
    0.1358   -0.2585   -2.1807 H   0  0  0  0  0  0  0  0  0  0  0  0
   -1.2066    0.4888   -1.3251 H   0  0  0  0  0  0  0  0  0  0  0  0
    0.6503    1.4289   -0.9938 C   0  0  0  0  0  0  0  0  0  0  0  0
    1.8669    1.4570   -0.2882 C   0  0  0  0  0  0  0  0  0  0  0  0
    2.3201    0.5447    0.0847 H   0  0  0  0  0  0  0  0  0  0  0  0
    2.5531    2.6578   -0.0813 C   0  0  0  0  0  0  0  0  0  0  0  0
    3.4913    2.6540    0.4662 H   0  0  0  0  0  0  0  0  0  0  0  0
    2.0376    3.8551   -0.5808 C   0  0  0  0  0  0  0  0  0  0  0  0
    2.5722    4.7866   -0.4192 H   0  0  0  0  0  0  0  0  0  0  0  0
    0.8369    3.8469   -1.2934 C   0  0  0  0  0  0  0  0  0  0  0  0
    0.4363    4.7756   -1.6888 H   0  0  0  0  0  0  0  0  0  0  0  0
    0.1516    2.6441   -1.4965 C   0  0  0  0  0  0  0  0  0  0  0  0
   -0.7816    2.6645   -2.0510 H   0  0  0  0  0  0  0  0  0  0  0  0
    0.1242   -0.5158    1.2864 C   0  0  0  0  0  0  0  0  0  0  0  0
    1.1955   -0.7411    1.8357 O   0  0  0  0  0  0  0  0  0  0  0  0
   -0.8681    0.1372    1.9973 N   0  0  0  0  0  0  0  0  0  0  0  0
   -1.7622    0.2620    1.5366 H   0  0  0  0  0  0  0  0  0  0  0  0
   -0.7138    0.5610    3.3827 C   0  0  0  0  0  0  0  0  0  0  0  0
    0.1060    1.2813    3.4721 H   0  0  0  0  0  0  0  0  0  0  0  0
   -1.6327    1.0365    3.7380 H   0  0  0  0  0  0  0  0  0  0  0  0
   -0.4989   -0.2998    4.0247 H   0  0  0  0  0  0  0  0  0  0  0  0
  1  2  1  0  0  0  0
  2  3  1  0  0  0  0
  2  4  1  0  0  0  0
  2  5  1  0  0  0  0
  5  6  2  0  0  0  0
  5  7  1  0  0  0  0
  7  8  1  0  0  0  0
  7  9  1  0  0  0  0
  9 10  1  0  0  0  0
  9 11  1  0  0  0  0
  9 25  1  0  0  0  0
 11 12  1  0  0  0  0
 11 13  1  0  0  0  0
 11 14  1  0  0  0  0
 14 15  1  0  0  0  0
 14 23  2  0  0  0  0
 15 16  1  0  0  0  0
 15 17  2  0  0  0  0
 17 18  1  0  0  0  0
 17 19  1  0  0  0  0
 19 20  1  0  0  0  0
 19 21  2  0  0  0  0
 21 22  1  0  0  0  0
 21 23  1  0  0  0  0
 23 24  1  0  0  0  0
 25 26  2  0  0  0  0
 25 27  1  0  0  0  0
 27 28  1  0  0  0  0
 27 29  1  0  0  0  0
 29 30  1  0  0  0  0
 29 31  1  0  0  0  0
 29 32  1  0  0  0  0
M  END
$$$$

  -OEChem-03222214073D

 32 32  0     1  0  0  0  0  0999 V2000
   -3.2618   -4.3049    0.8936 H   0  0  0  0  0  0  0  0  0  0  0  0
   -3.1721   -3.4152    0.2634 C   0  0  0  0  0  0  0  0  0  0  0  0
   -3.9537   -2.7056    0.5447 H   0  0  0  0  0  0  0  0  0  0  0  0
   -3.3123   -3.7088   -0.7797 H   0  0  0  0  0  0  0  0  0  0  0  0
   -1.8049   -2.7828    0.4460 C   0  0  0  0  0  0  0  0  0  0  0  0
   -1.0053   -3.2867    1.2128 O   0  0  0  0  0  0  0  0  0  0  0  0
   -1.4745   -1.6526   -0.2779 N   0  0  0  0  0  0  0  0  0  0  0  0
   -2.1586   -1.3283   -0.9540 H   0  0  0  0  0  0  0  0  0  0  0  0
   -0.1718   -0.9570   -0.2035 C   0  0  1  0  0  0  0  0  0  0  0  0
    0.6355   -1.6494   -0.4663 H   0  0  0  0  0  0  0  0  0  0  0  0
   -0.2265    0.1757   -1.2649 C   0  0  0  0  0  0  0  0  0  0  0  0
    0.0986   -0.2407   -2.2235 H   0  0  0  0  0  0  0  0  0  0  0  0
   -1.2699    0.4827   -1.3887 H   0  0  0  0  0  0  0  0  0  0  0  0
    0.5820    1.4321   -0.9985 C   0  0  0  0  0  0  0  0  0  0  0  0
    1.9094    1.3769   -0.5408 C   0  0  0  0  0  0  0  0  0  0  0  0
    2.3953    0.4198   -0.3729 H   0  0  0  0  0  0  0  0  0  0  0  0
    2.6299    2.5481   -0.2887 C   0  0  0  0  0  0  0  0  0  0  0  0
    3.6512    2.4834    0.0746 H   0  0  0  0  0  0  0  0  0  0  0  0
    2.0357    3.7945   -0.4988 C   0  0  0  0  0  0  0  0  0  0  0  0
    2.5964    4.7033   -0.3015 H   0  0  0  0  0  0  0  0  0  0  0  0
    0.7192    3.8667   -0.9608 C   0  0  0  0  0  0  0  0  0  0  0  0
    0.2557    4.8348   -1.1254 H   0  0  0  0  0  0  0  0  0  0  0  0
   -0.0014    2.6932   -1.2083 C   0  0  0  0  0  0  0  0  0  0  0  0
   -1.0231    2.7726   -1.5656 H   0  0  0  0  0  0  0  0  0  0  0  0
    0.1219   -0.4499    1.2323 C   0  0  0  0  0  0  0  0  0  0  0  0
    1.2311   -0.6017    1.7294 O   0  0  0  0  0  0  0  0  0  0  0  0
   -0.8623    0.1927    1.9631 N   0  0  0  0  0  0  0  0  0  0  0  0
   -1.7837    0.2536    1.5455 H   0  0  0  0  0  0  0  0  0  0  0  0
   -0.6623    0.6690    3.3251 C   0  0  0  0  0  0  0  0  0  0  0  0
    0.1475    1.4055    3.3569 H   0  0  0  0  0  0  0  0  0  0  0  0
   -1.5752    1.1426    3.6983 H   0  0  0  0  0  0  0  0  0  0  0  0
   -0.4072   -0.1646    3.9879 H   0  0  0  0  0  0  0  0  0  0  0  0
  1  2  1  0  0  0  0
  2  3  1  0  0  0  0
  2  4  1  0  0  0  0
  2  5  1  0  0  0  0
  5  6  2  0  0  0  0
  5  7  1  0  0  0  0
  7  8  1  0  0  0  0
  7  9  1  0  0  0  0
  9 10  1  0  0  0  0
  9 11  1  0  0  0  0
  9 25  1  0  0  0  0
 11 12  1  0  0  0  0
 11 13  1  0  0  0  0
 11 14  1  0  0  0  0
 14 15  1  0  0  0  0
 14 23  2  0  0  0  0
 15 16  1  0  0  0  0
 15 17  2  0  0  0  0
 17 18  1  0  0  0  0
 17 19  1  0  0  0  0
 19 20  1  0  0  0  0
 19 21  2  0  0  0  0
 21 22  1  0  0  0  0
 21 23  1  0  0  0  0
 23 24  1  0  0  0  0
 25 26  2  0  0  0  0
 25 27  1  0  0  0  0
 27 28  1  0  0  0  0
 27 29  1  0  0  0  0
 29 30  1  0  0  0  0
 29 31  1  0  0  0  0
 29 32  1  0  0  0  0
M  END
$$$$

  -OEChem-03222214073D

 32 32  0     1  0  0  0  0  0999 V2000
   -3.1983   -4.3528    0.9017 H   0  0  0  0  0  0  0  0  0  0  0  0
   -3.1375   -3.4623    0.2694 C   0  0  0  0  0  0  0  0  0  0  0  0
   -3.9371   -2.7746    0.5543 H   0  0  0  0  0  0  0  0  0  0  0  0
   -3.2754   -3.7621   -0.7721 H   0  0  0  0  0  0  0  0  0  0  0  0
   -1.7878   -2.7906    0.4434 C   0  0  0  0  0  0  0  0  0  0  0  0
   -0.9748   -3.2625    1.2165 O   0  0  0  0  0  0  0  0  0  0  0  0
   -1.4901   -1.6558   -0.2871 N   0  0  0  0  0  0  0  0  0  0  0  0
   -2.1824   -1.3555   -0.9663 H   0  0  0  0  0  0  0  0  0  0  0  0
   -0.2024   -0.9326   -0.2252 C   0  0  1  0  0  0  0  0  0  0  0  0
    0.6106   -1.6184   -0.4877 H   0  0  0  0  0  0  0  0  0  0  0  0
   -0.2648    0.1863   -1.2965 C   0  0  0  0  0  0  0  0  0  0  0  0
    0.0784   -0.2269   -2.2503 H   0  0  0  0  0  0  0  0  0  0  0  0
   -1.3079    0.4860   -1.4367 H   0  0  0  0  0  0  0  0  0  0  0  0
    0.5380    1.4344   -0.9951 C   0  0  0  0  0  0  0  0  0  0  0  0
    1.9284    1.3661   -0.8151 C   0  0  0  0  0  0  0  0  0  0  0  0
    2.4396    0.4093   -0.8723 H   0  0  0  0  0  0  0  0  0  0  0  0
    2.6690    2.5192   -0.5362 C   0  0  0  0  0  0  0  0  0  0  0  0
    3.7424    2.4483   -0.3860 H   0  0  0  0  0  0  0  0  0  0  0  0
    2.0269    3.7567   -0.4399 C   0  0  0  0  0  0  0  0  0  0  0  0
    2.6026    4.6510   -0.2203 H   0  0  0  0  0  0  0  0  0  0  0  0
    0.6435    3.8386   -0.6202 C   0  0  0  0  0  0  0  0  0  0  0  0
    0.1439    4.7996   -0.5434 H   0  0  0  0  0  0  0  0  0  0  0  0
   -0.0965    2.6836   -0.8958 C   0  0  0  0  0  0  0  0  0  0  0  0
   -1.1701    2.7673   -1.0309 H   0  0  0  0  0  0  0  0  0  0  0  0
    0.1176   -0.4048    1.1960 C   0  0  0  0  0  0  0  0  0  0  0  0
    1.2528   -0.4955    1.6470 O   0  0  0  0  0  0  0  0  0  0  0  0
   -0.8604    0.2282    1.9431 N   0  0  0  0  0  0  0  0  0  0  0  0
   -1.8009    0.2303    1.5658 H   0  0  0  0  0  0  0  0  0  0  0  0
   -0.6295    0.7400    3.2870 C   0  0  0  0  0  0  0  0  0  0  0  0
    0.1766    1.4814    3.2798 H   0  0  0  0  0  0  0  0  0  0  0  0
   -1.5350    1.2190    3.6710 H   0  0  0  0  0  0  0  0  0  0  0  0
   -0.3535   -0.0755    3.9637 H   0  0  0  0  0  0  0  0  0  0  0  0
  1  2  1  0  0  0  0
  2  3  1  0  0  0  0
  2  4  1  0  0  0  0
  2  5  1  0  0  0  0
  5  6  2  0  0  0  0
  5  7  1  0  0  0  0
  7  8  1  0  0  0  0
  7  9  1  0  0  0  0
  9 10  1  0  0  0  0
  9 11  1  0  0  0  0
  9 25  1  0  0  0  0
 11 12  1  0  0  0  0
 11 13  1  0  0  0  0
 11 14  1  0  0  0  0
 14 15  1  0  0  0  0
 14 23  2  0  0  0  0
 15 16  1  0  0  0  0
 15 17  2  0  0  0  0
 17 18  1  0  0  0  0
 17 19  1  0  0  0  0
 19 20  1  0  0  0  0
 19 21  2  0  0  0  0
 21 22  1  0  0  0  0
 21 23  1  0  0  0  0
 23 24  1  0  0  0  0
 25 26  2  0  0  0  0
 25 27  1  0  0  0  0
 27 28  1  0  0  0  0
 27 29  1  0  0  0  0
 29 30  1  0  0  0  0
 29 31  1  0  0  0  0
 29 32  1  0  0  0  0
M  END
$$$$

  -OEChem-03222214073D

 32 32  0     1  0  0  0  0  0999 V2000
   -3.1653   -4.3841    0.8840 H   0  0  0  0  0  0  0  0  0  0  0  0
   -3.1178   -3.4902    0.2554 C   0  0  0  0  0  0  0  0  0  0  0  0
   -3.9373   -2.8228    0.5318 H   0  0  0  0  0  0  0  0  0  0  0  0
   -3.2352   -3.7898   -0.7886 H   0  0  0  0  0  0  0  0  0  0  0  0
   -1.7871   -2.7866    0.4483 C   0  0  0  0  0  0  0  0  0  0  0  0
   -0.9778   -3.2333    1.2399 O   0  0  0  0  0  0  0  0  0  0  0  0
   -1.5045   -1.6488   -0.2834 N   0  0  0  0  0  0  0  0  0  0  0  0
   -2.1897   -1.3738   -0.9803 H   0  0  0  0  0  0  0  0  0  0  0  0
   -0.2235   -0.9139   -0.2285 C   0  0  1  0  0  0  0  0  0  0  0  0
    0.5913   -1.5980   -0.4904 H   0  0  0  0  0  0  0  0  0  0  0  0
   -0.2855    0.1951   -1.3080 C   0  0  0  0  0  0  0  0  0  0  0  0
    0.0618   -0.2206   -2.2593 H   0  0  0  0  0  0  0  0  0  0  0  0
   -1.3269    0.4983   -1.4553 H   0  0  0  0  0  0  0  0  0  0  0  0
    0.5162    1.4371   -0.9904 C   0  0  0  0  0  0  0  0  0  0  0  0
    1.9142    1.4226   -1.1028 C   0  0  0  0  0  0  0  0  0  0  0  0
    2.4276    0.5117   -1.3956 H   0  0  0  0  0  0  0  0  0  0  0  0
    2.6622    2.5691   -0.8158 C   0  0  0  0  0  0  0  0  0  0  0  0
    3.7451    2.5420   -0.8936 H   0  0  0  0  0  0  0  0  0  0  0  0
    2.0177    3.7437   -0.4174 C   0  0  0  0  0  0  0  0  0  0  0  0
    2.5998    4.6318   -0.1901 H   0  0  0  0  0  0  0  0  0  0  0  0
    0.6248    3.7696   -0.3036 C   0  0  0  0  0  0  0  0  0  0  0  0
    0.1244    4.6803    0.0105 H   0  0  0  0  0  0  0  0  0  0  0  0
   -0.1222    2.6217   -0.5890 C   0  0  0  0  0  0  0  0  0  0  0  0
   -1.2025    2.6570   -0.4918 H   0  0  0  0  0  0  0  0  0  0  0  0
    0.1116   -0.3783    1.1860 C   0  0  0  0  0  0  0  0  0  0  0  0
    1.2599   -0.4328    1.6083 O   0  0  0  0  0  0  0  0  0  0  0  0
   -0.8611    0.2497    1.9443 N   0  0  0  0  0  0  0  0  0  0  0  0
   -1.8129    0.2035    1.5993 H   0  0  0  0  0  0  0  0  0  0  0  0
   -0.6122    0.7679    3.2827 C   0  0  0  0  0  0  0  0  0  0  0  0
    0.1860    1.5175    3.2592 H   0  0  0  0  0  0  0  0  0  0  0  0
   -1.5158    1.2386    3.6810 H   0  0  0  0  0  0  0  0  0  0  0  0
   -0.3154   -0.0424    3.9569 H   0  0  0  0  0  0  0  0  0  0  0  0
  1  2  1  0  0  0  0
  2  3  1  0  0  0  0
  2  4  1  0  0  0  0
  2  5  1  0  0  0  0
  5  6  2  0  0  0  0
  5  7  1  0  0  0  0
  7  8  1  0  0  0  0
  7  9  1  0  0  0  0
  9 10  1  0  0  0  0
  9 11  1  0  0  0  0
  9 25  1  0  0  0  0
 11 12  1  0  0  0  0
 11 13  1  0  0  0  0
 11 14  1  0  0  0  0
 14 15  1  0  0  0  0
 14 23  2  0  0  0  0
 15 16  1  0  0  0  0
 15 17  2  0  0  0  0
 17 18  1  0  0  0  0
 17 19  1  0  0  0  0
 19 20  1  0  0  0  0
 19 21  2  0  0  0  0
 21 22  1  0  0  0  0
 21 23  1  0  0  0  0
 23 24  1  0  0  0  0
 25 26  2  0  0  0  0
 25 27  1  0  0  0  0
 27 28  1  0  0  0  0
 27 29  1  0  0  0  0
 29 30  1  0  0  0  0
 29 31  1  0  0  0  0
 29 32  1  0  0  0  0
M  END
$$$$

  -OEChem-03222214073D

 32 32  0     1  0  0  0  0  0999 V2000
   -3.1648   -4.3905    0.8638 H   0  0  0  0  0  0  0  0  0  0  0  0
   -3.1191   -3.4906    0.2435 C   0  0  0  0  0  0  0  0  0  0  0  0
   -3.9407   -2.8279    0.5253 H   0  0  0  0  0  0  0  0  0  0  0  0
   -3.2348   -3.7810   -0.8035 H   0  0  0  0  0  0  0  0  0  0  0  0
   -1.7909   -2.7851    0.4443 C   0  0  0  0  0  0  0  0  0  0  0  0
   -0.9838   -3.2329    1.2376 O   0  0  0  0  0  0  0  0  0  0  0  0
   -1.5102   -1.6401   -0.2767 N   0  0  0  0  0  0  0  0  0  0  0  0
   -2.1921   -1.3642   -0.9765 H   0  0  0  0  0  0  0  0  0  0  0  0
   -0.2299   -0.9047   -0.2164 C   0  0  1  0  0  0  0  0  0  0  0  0
    0.5835   -1.5909   -0.4778 H   0  0  0  0  0  0  0  0  0  0  0  0
   -0.2800    0.2028   -1.2981 C   0  0  0  0  0  0  0  0  0  0  0  0
    0.0654   -0.2188   -2.2475 H   0  0  0  0  0  0  0  0  0  0  0  0
   -1.3187    0.5135   -1.4487 H   0  0  0  0  0  0  0  0  0  0  0  0
    0.5206    1.4452   -0.9799 C   0  0  0  0  0  0  0  0  0  0  0  0
    1.8638    1.5378   -1.3723 C   0  0  0  0  0  0  0  0  0  0  0  0
    2.3434    0.7039   -1.8758 H   0  0  0  0  0  0  0  0  0  0  0  0
    2.6056    2.6927   -1.1013 C   0  0  0  0  0  0  0  0  0  0  0  0
    3.6491    2.7478   -1.3966 H   0  0  0  0  0  0  0  0  0  0  0  0
    2.0069    3.7705   -0.4425 C   0  0  0  0  0  0  0  0  0  0  0  0
    2.5845    4.6645   -0.2275 H   0  0  0  0  0  0  0  0  0  0  0  0
    0.6659    3.6928   -0.0563 C   0  0  0  0  0  0  0  0  0  0  0  0
    0.2003    4.5285    0.4575 H   0  0  0  0  0  0  0  0  0  0  0  0
   -0.0742    2.5371   -0.3271 C   0  0  0  0  0  0  0  0  0  0  0  0
   -1.1137    2.4901   -0.0192 H   0  0  0  0  0  0  0  0  0  0  0  0
    0.1070   -0.3828    1.2024 C   0  0  0  0  0  0  0  0  0  0  0  0
    1.2597   -0.4200    1.6138 O   0  0  0  0  0  0  0  0  0  0  0  0
   -0.8659    0.2363    1.9684 N   0  0  0  0  0  0  0  0  0  0  0  0
   -1.8221    0.1529    1.6431 H   0  0  0  0  0  0  0  0  0  0  0  0
   -0.6159    0.7291    3.3164 C   0  0  0  0  0  0  0  0  0  0  0  0
    0.1804    1.4809    3.3070 H   0  0  0  0  0  0  0  0  0  0  0  0
   -1.5199    1.1899    3.7253 H   0  0  0  0  0  0  0  0  0  0  0  0
   -0.3166   -0.0940    3.9739 H   0  0  0  0  0  0  0  0  0  0  0  0
  1  2  1  0  0  0  0
  2  3  1  0  0  0  0
  2  4  1  0  0  0  0
  2  5  1  0  0  0  0
  5  6  2  0  0  0  0
  5  7  1  0  0  0  0
  7  8  1  0  0  0  0
  7  9  1  0  0  0  0
  9 10  1  0  0  0  0
  9 11  1  0  0  0  0
  9 25  1  0  0  0  0
 11 12  1  0  0  0  0
 11 13  1  0  0  0  0
 11 14  1  0  0  0  0
 14 15  1  0  0  0  0
 14 23  2  0  0  0  0
 15 16  1  0  0  0  0
 15 17  2  0  0  0  0
 17 18  1  0  0  0  0
 17 19  1  0  0  0  0
 19 20  1  0  0  0  0
 19 21  2  0  0  0  0
 21 22  1  0  0  0  0
 21 23  1  0  0  0  0
 23 24  1  0  0  0  0
 25 26  2  0  0  0  0
 25 27  1  0  0  0  0
 27 28  1  0  0  0  0
 27 29  1  0  0  0  0
 29 30  1  0  0  0  0
 29 31  1  0  0  0  0
 29 32  1  0  0  0  0
M  END
$$$$

  -OEChem-03222214073D

 32 32  0     1  0  0  0  0  0999 V2000
   -3.1887   -4.3925    0.8189 H   0  0  0  0  0  0  0  0  0  0  0  0
   -3.1348   -3.4823    0.2145 C   0  0  0  0  0  0  0  0  0  0  0  0
   -3.9525   -2.8186    0.5055 H   0  0  0  0  0  0  0  0  0  0  0  0
   -3.2496   -3.7530   -0.8378 H   0  0  0  0  0  0  0  0  0  0  0  0
   -1.8019   -2.7901    0.4312 C   0  0  0  0  0  0  0  0  0  0  0  0
   -0.9985   -3.2589    1.2161 O   0  0  0  0  0  0  0  0  0  0  0  0
   -1.5155   -1.6296   -0.2623 N   0  0  0  0  0  0  0  0  0  0  0  0
   -2.1966   -1.3344   -0.9550 H   0  0  0  0  0  0  0  0  0  0  0  0
   -0.2321   -0.9006   -0.1857 C   0  0  1  0  0  0  0  0  0  0  0  0
    0.5758   -1.5928   -0.4486 H   0  0  0  0  0  0  0  0  0  0  0  0
   -0.2539    0.2113   -1.2664 C   0  0  0  0  0  0  0  0  0  0  0  0
    0.0894   -0.2199   -2.2122 H   0  0  0  0  0  0  0  0  0  0  0  0
   -1.2882    0.5329   -1.4242 H   0  0  0  0  0  0  0  0  0  0  0  0
    0.5463    1.4590   -0.9571 C   0  0  0  0  0  0  0  0  0  0  0  0
    1.7746    1.6792   -1.5992 C   0  0  0  0  0  0  0  0  0  0  0  0
    2.1818    0.9295   -2.2707 H   0  0  0  0  0  0  0  0  0  0  0  0
    2.4998    2.8536   -1.3703 C   0  0  0  0  0  0  0  0  0  0  0  0
    3.4581    3.0038   -1.8584 H   0  0  0  0  0  0  0  0  0  0  0  0
    1.9941    3.8320   -0.5103 C   0  0  0  0  0  0  0  0  0  0  0  0
    2.5597    4.7409   -0.3281 H   0  0  0  0  0  0  0  0  0  0  0  0
    0.7585    3.6383    0.1127 C   0  0  0  0  0  0  0  0  0  0  0  0
    0.3603    4.3998    0.7765 H   0  0  0  0  0  0  0  0  0  0  0  0
    0.0350    2.4636   -0.1185 C   0  0  0  0  0  0  0  0  0  0  0  0
   -0.9290    2.3368    0.3627 H   0  0  0  0  0  0  0  0  0  0  0  0
    0.1020   -0.4163    1.2463 C   0  0  0  0  0  0  0  0  0  0  0  0
    1.2560   -0.4498    1.6536 O   0  0  0  0  0  0  0  0  0  0  0  0
   -0.8723    0.1850    2.0250 N   0  0  0  0  0  0  0  0  0  0  0  0
   -1.8303    0.0764    1.7116 H   0  0  0  0  0  0  0  0  0  0  0  0
   -0.6220    0.6404    3.3860 C   0  0  0  0  0  0  0  0  0  0  0  0
    0.1732    1.3934    3.3966 H   0  0  0  0  0  0  0  0  0  0  0  0
   -1.5263    1.0885    3.8082 H   0  0  0  0  0  0  0  0  0  0  0  0
   -0.3204   -0.2002    4.0196 H   0  0  0  0  0  0  0  0  0  0  0  0
  1  2  1  0  0  0  0
  2  3  1  0  0  0  0
  2  4  1  0  0  0  0
  2  5  1  0  0  0  0
  5  6  2  0  0  0  0
  5  7  1  0  0  0  0
  7  8  1  0  0  0  0
  7  9  1  0  0  0  0
  9 10  1  0  0  0  0
  9 11  1  0  0  0  0
  9 25  1  0  0  0  0
 11 12  1  0  0  0  0
 11 13  1  0  0  0  0
 11 14  1  0  0  0  0
 14 15  1  0  0  0  0
 14 23  2  0  0  0  0
 15 16  1  0  0  0  0
 15 17  2  0  0  0  0
 17 18  1  0  0  0  0
 17 19  1  0  0  0  0
 19 20  1  0  0  0  0
 19 21  2  0  0  0  0
 21 22  1  0  0  0  0
 21 23  1  0  0  0  0
 23 24  1  0  0  0  0
 25 26  2  0  0  0  0
 25 27  1  0  0  0  0
 27 28  1  0  0  0  0
 27 29  1  0  0  0  0
 29 30  1  0  0  0  0
 29 31  1  0  0  0  0
 29 32  1  0  0  0  0
M  END
$$$$

  -OEChem-03222214073D

 32 32  0     1  0  0  0  0  0999 V2000
   -3.2161   -4.3945    0.7448 H   0  0  0  0  0  0  0  0  0  0  0  0
   -3.1530   -3.4692    0.1649 C   0  0  0  0  0  0  0  0  0  0  0  0
   -3.9703   -2.8096    0.4658 H   0  0  0  0  0  0  0  0  0  0  0  0
   -3.2594   -3.7119   -0.8951 H   0  0  0  0  0  0  0  0  0  0  0  0
   -1.8188   -2.7899    0.4113 C   0  0  0  0  0  0  0  0  0  0  0  0
   -1.0214   -3.2873    1.1845 O   0  0  0  0  0  0  0  0  0  0  0  0
   -1.5228   -1.6096   -0.2435 N   0  0  0  0  0  0  0  0  0  0  0  0
   -2.2016   -1.2850   -0.9255 H   0  0  0  0  0  0  0  0  0  0  0  0
   -0.2340   -0.8931   -0.1424 C   0  0  1  0  0  0  0  0  0  0  0  0
    0.5649   -1.5955   -0.4067 H   0  0  0  0  0  0  0  0  0  0  0  0
   -0.2153    0.2202   -1.2248 C   0  0  0  0  0  0  0  0  0  0  0  0
    0.1311   -0.2285   -2.1613 H   0  0  0  0  0  0  0  0  0  0  0  0
   -1.2435    0.5523   -1.3981 H   0  0  0  0  0  0  0  0  0  0  0  0
    0.5845    1.4776   -0.9368 C   0  0  0  0  0  0  0  0  0  0  0  0
    1.6439    1.8256   -1.7918 C   0  0  0  0  0  0  0  0  0  0  0  0
    1.9412    1.1564   -2.5933 H   0  0  0  0  0  0  0  0  0  0  0  0
    2.3495    3.0206   -1.6158 C   0  0  0  0  0  0  0  0  0  0  0  0
    3.1817    3.2616   -2.2704 H   0  0  0  0  0  0  0  0  0  0  0  0
    1.9840    3.9042   -0.5980 C   0  0  0  0  0  0  0  0  0  0  0  0
    2.5339    4.8299   -0.4560 H   0  0  0  0  0  0  0  0  0  0  0  0
    0.9011    3.5982    0.2289 C   0  0  0  0  0  0  0  0  0  0  0  0
    0.6019    4.2903    1.0100 H   0  0  0  0  0  0  0  0  0  0  0  0
    0.1960    2.4042    0.0469 C   0  0  0  0  0  0  0  0  0  0  0  0
   -0.6646    2.2147    0.6767 H   0  0  0  0  0  0  0  0  0  0  0  0
    0.0963   -0.4612    1.3073 C   0  0  0  0  0  0  0  0  0  0  0  0
    1.2502   -0.5018    1.7136 O   0  0  0  0  0  0  0  0  0  0  0  0
   -0.8775    0.1183    2.1036 N   0  0  0  0  0  0  0  0  0  0  0  0
   -1.8351    0.0188    1.7854 H   0  0  0  0  0  0  0  0  0  0  0  0
   -0.6326    0.5163    3.4837 C   0  0  0  0  0  0  0  0  0  0  0  0
    0.1679    1.2623    3.5301 H   0  0  0  0  0  0  0  0  0  0  0  0
   -1.5364    0.9541    3.9174 H   0  0  0  0  0  0  0  0  0  0  0  0
   -0.3420   -0.3511    4.0857 H   0  0  0  0  0  0  0  0  0  0  0  0
  1  2  1  0  0  0  0
  2  3  1  0  0  0  0
  2  4  1  0  0  0  0
  2  5  1  0  0  0  0
  5  6  2  0  0  0  0
  5  7  1  0  0  0  0
  7  8  1  0  0  0  0
  7  9  1  0  0  0  0
  9 10  1  0  0  0  0
  9 11  1  0  0  0  0
  9 25  1  0  0  0  0
 11 12  1  0  0  0  0
 11 13  1  0  0  0  0
 11 14  1  0  0  0  0
 14 15  1  0  0  0  0
 14 23  2  0  0  0  0
 15 16  1  0  0  0  0
 15 17  2  0  0  0  0
 17 18  1  0  0  0  0
 17 19  1  0  0  0  0
 19 20  1  0  0  0  0
 19 21  2  0  0  0  0
 21 22  1  0  0  0  0
 21 23  1  0  0  0  0
 23 24  1  0  0  0  0
 25 26  2  0  0  0  0
 25 27  1  0  0  0  0
 27 28  1  0  0  0  0
 27 29  1  0  0  0  0
 29 30  1  0  0  0  0
 29 31  1  0  0  0  0
 29 32  1  0  0  0  0
M  END
$$$$

  -OEChem-03222214073D

 32 32  0     1  0  0  0  0  0999 V2000
   -3.2562   -4.3813    0.6582 H   0  0  0  0  0  0  0  0  0  0  0  0
   -3.1754   -3.4406    0.1056 C   0  0  0  0  0  0  0  0  0  0  0  0
   -3.9884   -2.7800    0.4162 H   0  0  0  0  0  0  0  0  0  0  0  0
   -3.2727   -3.6520   -0.9620 H   0  0  0  0  0  0  0  0  0  0  0  0
   -1.8360   -2.7847    0.3859 C   0  0  0  0  0  0  0  0  0  0  0  0
   -1.0497   -3.3181    1.1466 O   0  0  0  0  0  0  0  0  0  0  0  0
   -1.5212   -1.5863   -0.2266 N   0  0  0  0  0  0  0  0  0  0  0  0
   -2.1952   -1.2264   -0.8956 H   0  0  0  0  0  0  0  0  0  0  0  0
   -0.2262   -0.8860   -0.0914 C   0  0  1  0  0  0  0  0  0  0  0  0
    0.5660   -1.5970   -0.3532 H   0  0  0  0  0  0  0  0  0  0  0  0
   -0.1656    0.2327   -1.1706 C   0  0  0  0  0  0  0  0  0  0  0  0
    0.1888   -0.2348   -2.0947 H   0  0  0  0  0  0  0  0  0  0  0  0
   -1.1890    0.5691   -1.3631 H   0  0  0  0  0  0  0  0  0  0  0  0
    0.6290    1.5073   -0.9200 C   0  0  0  0  0  0  0  0  0  0  0  0
    1.4597    1.9771   -1.9540 C   0  0  0  0  0  0  0  0  0  0  0  0
    1.5926    1.3891   -2.8568 H   0  0  0  0  0  0  0  0  0  0  0  0
    2.1513    3.1874   -1.8412 C   0  0  0  0  0  0  0  0  0  0  0  0
    2.8100    3.5136   -2.6404 H   0  0  0  0  0  0  0  0  0  0  0  0
    1.9936    3.9769   -0.7016 C   0  0  0  0  0  0  0  0  0  0  0  0
    2.5329    4.9149   -0.6075 H   0  0  0  0  0  0  0  0  0  0  0  0
    1.1259    3.5616    0.3097 C   0  0  0  0  0  0  0  0  0  0  0  0
    0.9792    4.1832    1.1881 H   0  0  0  0  0  0  0  0  0  0  0  0
    0.4344    2.3513    0.1897 C   0  0  0  0  0  0  0  0  0  0  0  0
   -0.2671    2.1036    0.9734 H   0  0  0  0  0  0  0  0  0  0  0  0
    0.0834   -0.5107    1.3774 C   0  0  0  0  0  0  0  0  0  0  0  0
    1.2316   -0.5648    1.7975 O   0  0  0  0  0  0  0  0  0  0  0  0
   -0.8987    0.0469    2.1799 N   0  0  0  0  0  0  0  0  0  0  0  0
   -1.8515   -0.0348    1.8425 H   0  0  0  0  0  0  0  0  0  0  0  0
   -0.6779    0.3646    3.5851 C   0  0  0  0  0  0  0  0  0  0  0  0
    0.1371    1.0884    3.6909 H   0  0  0  0  0  0  0  0  0  0  0  0
   -1.5822    0.7982    4.0223 H   0  0  0  0  0  0  0  0  0  0  0  0
   -0.4202   -0.5410    4.1445 H   0  0  0  0  0  0  0  0  0  0  0  0
  1  2  1  0  0  0  0
  2  3  1  0  0  0  0
  2  4  1  0  0  0  0
  2  5  1  0  0  0  0
  5  6  2  0  0  0  0
  5  7  1  0  0  0  0
  7  8  1  0  0  0  0
  7  9  1  0  0  0  0
  9 10  1  0  0  0  0
  9 11  1  0  0  0  0
  9 25  1  0  0  0  0
 11 12  1  0  0  0  0
 11 13  1  0  0  0  0
 11 14  1  0  0  0  0
 14 15  1  0  0  0  0
 14 23  2  0  0  0  0
 15 16  1  0  0  0  0
 15 17  2  0  0  0  0
 17 18  1  0  0  0  0
 17 19  1  0  0  0  0
 19 20  1  0  0  0  0
 19 21  2  0  0  0  0
 21 22  1  0  0  0  0
 21 23  1  0  0  0  0
 23 24  1  0  0  0  0
 25 26  2  0  0  0  0
 25 27  1  0  0  0  0
 27 28  1  0  0  0  0
 27 29  1  0  0  0  0
 29 30  1  0  0  0  0
 29 31  1  0  0  0  0
 29 32  1  0  0  0  0
M  END
$$$$

  -OEChem-03222214073D

 32 32  0     1  0  0  0  0  0999 V2000
   -3.3086   -4.3443    0.5972 H   0  0  0  0  0  0  0  0  0  0  0  0
   -3.1983   -3.3983    0.0591 C   0  0  0  0  0  0  0  0  0  0  0  0
   -3.9987   -2.7226    0.3696 H   0  0  0  0  0  0  0  0  0  0  0  0
   -3.2876   -3.5920   -1.0125 H   0  0  0  0  0  0  0  0  0  0  0  0
   -1.8473   -2.7788    0.3643 C   0  0  0  0  0  0  0  0  0  0  0  0
   -1.0794   -3.3471    1.1187 O   0  0  0  0  0  0  0  0  0  0  0  0
   -1.4994   -1.5767   -0.2229 N   0  0  0  0  0  0  0  0  0  0  0  0
   -2.1587   -1.1894   -0.8911 H   0  0  0  0  0  0  0  0  0  0  0  0
   -0.1941   -0.9014   -0.0535 C   0  0  1  0  0  0  0  0  0  0  0  0
    0.5980   -1.6110   -0.3194 H   0  0  0  0  0  0  0  0  0  0  0  0
   -0.1268    0.2466   -1.1060 C   0  0  0  0  0  0  0  0  0  0  0  0
    0.2226   -0.2164   -2.0346 H   0  0  0  0  0  0  0  0  0  0  0  0
   -1.1526    0.5814   -1.2886 H   0  0  0  0  0  0  0  0  0  0  0  0
    0.6582    1.5410   -0.8936 C   0  0  0  0  0  0  0  0  0  0  0  0
    1.1763    2.1504   -2.0528 C   0  0  0  0  0  0  0  0  0  0  0  0
    1.0594    1.6691   -3.0191 H   0  0  0  0  0  0  0  0  0  0  0  0
    1.8642    3.3668   -2.0008 C   0  0  0  0  0  0  0  0  0  0  0  0
    2.2728    3.8003   -2.9089 H   0  0  0  0  0  0  0  0  0  0  0  0
    2.0256    4.0236   -0.7817 C   0  0  0  0  0  0  0  0  0  0  0  0
    2.5628    4.9663   -0.7340 H   0  0  0  0  0  0  0  0  0  0  0  0
    1.4818    3.4663    0.3754 C   0  0  0  0  0  0  0  0  0  0  0  0
    1.5888    3.9804    1.3260 H   0  0  0  0  0  0  0  0  0  0  0  0
    0.7932    2.2495    0.3184 C   0  0  0  0  0  0  0  0  0  0  0  0
    0.3713    1.9041    1.2495 H   0  0  0  0  0  0  0  0  0  0  0  0
    0.0708   -0.5660    1.4313 C   0  0  0  0  0  0  0  0  0  0  0  0
    1.2006   -0.6550    1.8934 O   0  0  0  0  0  0  0  0  0  0  0  0
   -0.9326   -0.0105    2.2091 N   0  0  0  0  0  0  0  0  0  0  0  0
   -1.8698   -0.0452    1.8231 H   0  0  0  0  0  0  0  0  0  0  0  0
   -0.7708    0.2497    3.6341 C   0  0  0  0  0  0  0  0  0  0  0  0
    0.0653    0.9353    3.8075 H   0  0  0  0  0  0  0  0  0  0  0  0
   -1.6785    0.7048    4.0413 H   0  0  0  0  0  0  0  0  0  0  0  0
   -0.5779   -0.6842    4.1725 H   0  0  0  0  0  0  0  0  0  0  0  0
  1  2  1  0  0  0  0
  2  3  1  0  0  0  0
  2  4  1  0  0  0  0
  2  5  1  0  0  0  0
  5  6  2  0  0  0  0
  5  7  1  0  0  0  0
  7  8  1  0  0  0  0
  7  9  1  0  0  0  0
  9 10  1  0  0  0  0
  9 11  1  0  0  0  0
  9 25  1  0  0  0  0
 11 12  1  0  0  0  0
 11 13  1  0  0  0  0
 11 14  1  0  0  0  0
 14 15  1  0  0  0  0
 14 23  2  0  0  0  0
 15 16  1  0  0  0  0
 15 17  2  0  0  0  0
 17 18  1  0  0  0  0
 17 19  1  0  0  0  0
 19 20  1  0  0  0  0
 19 21  2  0  0  0  0
 21 22  1  0  0  0  0
 21 23  1  0  0  0  0
 23 24  1  0  0  0  0
 25 26  2  0  0  0  0
 25 27  1  0  0  0  0
 27 28  1  0  0  0  0
 27 29  1  0  0  0  0
 29 30  1  0  0  0  0
 29 31  1  0  0  0  0
 29 32  1  0  0  0  0
M  END
$$$$

  -OEChem-03222214073D

 32 32  0     1  0  0  0  0  0999 V2000
   -3.3770   -4.2978    0.5562 H   0  0  0  0  0  0  0  0  0  0  0  0
   -3.2343   -3.3524    0.0247 C   0  0  0  0  0  0  0  0  0  0  0  0
   -4.0186   -2.6564    0.3308 H   0  0  0  0  0  0  0  0  0  0  0  0
   -3.3169   -3.5376   -1.0490 H   0  0  0  0  0  0  0  0  0  0  0  0
   -1.8696   -2.7733    0.3476 C   0  0  0  0  0  0  0  0  0  0  0  0
   -1.1240   -3.3723    1.1003 O   0  0  0  0  0  0  0  0  0  0  0  0
   -1.4788   -1.5807   -0.2325 N   0  0  0  0  0  0  0  0  0  0  0  0
   -2.1234   -1.1659   -0.8984 H   0  0  0  0  0  0  0  0  0  0  0  0
   -0.1609   -0.9370   -0.0334 C   0  0  1  0  0  0  0  0  0  0  0  0
    0.6315   -1.6446   -0.3030 H   0  0  0  0  0  0  0  0  0  0  0  0
   -0.1039    0.2406   -1.0555 C   0  0  0  0  0  0  0  0  0  0  0  0
    0.2366   -0.2018   -1.9977 H   0  0  0  0  0  0  0  0  0  0  0  0
   -1.1338    0.5748   -1.2175 H   0  0  0  0  0  0  0  0  0  0  0  0
    0.6730    1.5449   -0.8588 C   0  0  0  0  0  0  0  0  0  0  0  0
    0.8540    2.3123   -2.0261 C   0  0  0  0  0  0  0  0  0  0  0  0
    0.4697    1.9516   -2.9756 H   0  0  0  0  0  0  0  0  0  0  0  0
    1.5272    3.5377   -2.0081 C   0  0  0  0  0  0  0  0  0  0  0  0
    1.6573    4.1012   -2.9272 H   0  0  0  0  0  0  0  0  0  0  0  0
    2.0337    4.0351   -0.8087 C   0  0  0  0  0  0  0  0  0  0  0  0
    2.5613    4.9842   -0.7874 H   0  0  0  0  0  0  0  0  0  0  0  0
    1.8565    3.3054    0.3661 C   0  0  0  0  0  0  0  0  0  0  0  0
    2.2457    3.6878    1.3053 H   0  0  0  0  0  0  0  0  0  0  0  0
    1.1809    2.0801    0.3453 C   0  0  0  0  0  0  0  0  0  0  0  0
    1.0865    1.5965    1.3047 H   0  0  0  0  0  0  0  0  0  0  0  0
    0.0673   -0.6103    1.4581 C   0  0  0  0  0  0  0  0  0  0  0  0
    1.1633   -0.7976    1.9712 O   0  0  0  0  0  0  0  0  0  0  0  0
   -0.9394   -0.0296    2.2108 N   0  0  0  0  0  0  0  0  0  0  0  0
   -1.8556    0.0270    1.7799 H   0  0  0  0  0  0  0  0  0  0  0  0
   -0.8131    0.2296    3.6393 C   0  0  0  0  0  0  0  0  0  0  0  0
    0.0227    0.9102    3.8327 H   0  0  0  0  0  0  0  0  0  0  0  0
   -1.7281    0.6901    4.0235 H   0  0  0  0  0  0  0  0  0  0  0  0
   -0.6402   -0.7052    4.1830 H   0  0  0  0  0  0  0  0  0  0  0  0
  1  2  1  0  0  0  0
  2  3  1  0  0  0  0
  2  4  1  0  0  0  0
  2  5  1  0  0  0  0
  5  6  2  0  0  0  0
  5  7  1  0  0  0  0
  7  8  1  0  0  0  0
  7  9  1  0  0  0  0
  9 10  1  0  0  0  0
  9 11  1  0  0  0  0
  9 25  1  0  0  0  0
 11 12  1  0  0  0  0
 11 13  1  0  0  0  0
 11 14  1  0  0  0  0
 14 15  1  0  0  0  0
 14 23  2  0  0  0  0
 15 16  1  0  0  0  0
 15 17  2  0  0  0  0
 17 18  1  0  0  0  0
 17 19  1  0  0  0  0
 19 20  1  0  0  0  0
 19 21  2  0  0  0  0
 21 22  1  0  0  0  0
 21 23  1  0  0  0  0
 23 24  1  0  0  0  0
 25 26  2  0  0  0  0
 25 27  1  0  0  0  0
 27 28  1  0  0  0  0
 27 29  1  0  0  0  0
 29 30  1  0  0  0  0
 29 31  1  0  0  0  0
 29 32  1  0  0  0  0
M  END
$$$$

  -OEChem-03222214073D

 32 32  0     1  0  0  0  0  0999 V2000
   -3.3420   -4.2509    0.7368 H   0  0  0  0  0  0  0  0  0  0  0  0
   -3.1926   -3.3457    0.1410 C   0  0  0  0  0  0  0  0  0  0  0  0
   -3.9793   -2.6291    0.3881 H   0  0  0  0  0  0  0  0  0  0  0  0
   -3.2644   -3.6074   -0.9173 H   0  0  0  0  0  0  0  0  0  0  0  0
   -1.8301   -2.7469    0.4364 C   0  0  0  0  0  0  0  0  0  0  0  0
   -1.0993   -3.2890    1.2442 O   0  0  0  0  0  0  0  0  0  0  0  0
   -1.4232   -1.6112   -0.2399 N   0  0  0  0  0  0  0  0  0  0  0  0
   -2.0479   -1.2659   -0.9619 H   0  0  0  0  0  0  0  0  0  0  0  0
   -0.1054   -0.9564   -0.0791 C   0  0  1  0  0  0  0  0  0  0  0  0
    0.7088   -1.6452   -0.3300 H   0  0  0  0  0  0  0  0  0  0  0  0
   -0.1342    0.2172   -1.0953 C   0  0  0  0  0  0  0  0  0  0  0  0
   -0.0751   -0.2245   -2.0955 H   0  0  0  0  0  0  0  0  0  0  0  0
   -1.1132    0.7008   -1.0106 H   0  0  0  0  0  0  0  0  0  0  0  0
    0.8835    1.3487   -1.0416 C   0  0  0  0  0  0  0  0  0  0  0  0
    0.7513    2.3587   -2.0117 C   0  0  0  0  0  0  0  0  0  0  0  0
   -0.0890    2.3413   -2.6991 H   0  0  0  0  0  0  0  0  0  0  0  0
    1.6728    3.4068   -2.1066 C   0  0  0  0  0  0  0  0  0  0  0  0
    1.5363    4.1872   -2.8494 H   0  0  0  0  0  0  0  0  0  0  0  0
    2.7740    3.4455   -1.2508 C   0  0  0  0  0  0  0  0  0  0  0  0
    3.4935    4.2562   -1.3195 H   0  0  0  0  0  0  0  0  0  0  0  0
    2.9591    2.4214   -0.3214 C   0  0  0  0  0  0  0  0  0  0  0  0
    3.8307    2.4257    0.3267 H   0  0  0  0  0  0  0  0  0  0  0  0
    2.0364    1.3738   -0.2330 C   0  0  0  0  0  0  0  0  0  0  0  0
    2.2757    0.5789    0.4592 H   0  0  0  0  0  0  0  0  0  0  0  0
    0.0802   -0.5067    1.3949 C   0  0  0  0  0  0  0  0  0  0  0  0
    1.1042   -0.7754    2.0106 O   0  0  0  0  0  0  0  0  0  0  0  0
   -0.9492    0.1348    2.0632 N   0  0  0  0  0  0  0  0  0  0  0  0
   -1.8325    0.2129    1.5721 H   0  0  0  0  0  0  0  0  0  0  0  0
   -0.9072    0.4288    3.4902 C   0  0  0  0  0  0  0  0  0  0  0  0
   -0.0437    1.0596    3.7262 H   0  0  0  0  0  0  0  0  0  0  0  0
   -1.8143    0.9593    3.7946 H   0  0  0  0  0  0  0  0  0  0  0  0
   -0.8355   -0.4983    4.0687 H   0  0  0  0  0  0  0  0  0  0  0  0
  1  2  1  0  0  0  0
  2  3  1  0  0  0  0
  2  4  1  0  0  0  0
  2  5  1  0  0  0  0
  5  6  2  0  0  0  0
  5  7  1  0  0  0  0
  7  8  1  0  0  0  0
  7  9  1  0  0  0  0
  9 10  1  0  0  0  0
  9 11  1  0  0  0  0
  9 25  1  0  0  0  0
 11 12  1  0  0  0  0
 11 13  1  0  0  0  0
 11 14  1  0  0  0  0
 14 15  1  0  0  0  0
 14 23  2  0  0  0  0
 15 16  1  0  0  0  0
 15 17  2  0  0  0  0
 17 18  1  0  0  0  0
 17 19  1  0  0  0  0
 19 20  1  0  0  0  0
 19 21  2  0  0  0  0
 21 22  1  0  0  0  0
 21 23  1  0  0  0  0
 23 24  1  0  0  0  0
 25 26  2  0  0  0  0
 25 27  1  0  0  0  0
 27 28  1  0  0  0  0
 27 29  1  0  0  0  0
 29 30  1  0  0  0  0
 29 31  1  0  0  0  0
 29 32  1  0  0  0  0
M  END
$$$$

  -OEChem-03222214073D

 32 32  0     1  0  0  0  0  0999 V2000
   -3.3125   -4.2836    0.8039 H   0  0  0  0  0  0  0  0  0  0  0  0
   -3.1804   -3.3903    0.1864 C   0  0  0  0  0  0  0  0  0  0  0  0
   -3.9755   -2.6796    0.4233 H   0  0  0  0  0  0  0  0  0  0  0  0
   -3.2563   -3.6765   -0.8653 H   0  0  0  0  0  0  0  0  0  0  0  0
   -1.8252   -2.7637    0.4579 C   0  0  0  0  0  0  0  0  0  0  0  0
   -1.0836   -3.2670    1.2811 O   0  0  0  0  0  0  0  0  0  0  0  0
   -1.4407   -1.6400   -0.2499 N   0  0  0  0  0  0  0  0  0  0  0  0
   -2.0716   -1.3269   -0.9812 H   0  0  0  0  0  0  0  0  0  0  0  0
   -0.1338   -0.9615   -0.1114 C   0  0  1  0  0  0  0  0  0  0  0  0
    0.6847   -1.6489   -0.3524 H   0  0  0  0  0  0  0  0  0  0  0  0
   -0.1673    0.1964   -1.1410 C   0  0  0  0  0  0  0  0  0  0  0  0
   -0.0931   -0.2428   -2.1409 H   0  0  0  0  0  0  0  0  0  0  0  0
   -1.1474    0.6797   -1.0682 H   0  0  0  0  0  0  0  0  0  0  0  0
    0.8684    1.3039   -1.0464 C   0  0  0  0  0  0  0  0  0  0  0  0
    0.6299    2.4892   -1.7629 C   0  0  0  0  0  0  0  0  0  0  0  0
   -0.3081    2.6230   -2.2927 H   0  0  0  0  0  0  0  0  0  0  0  0
    1.5754    3.5198   -1.7963 C   0  0  0  0  0  0  0  0  0  0  0  0
    1.3617    4.4378   -2.3355 H   0  0  0  0  0  0  0  0  0  0  0  0
    2.7986    3.3652   -1.1416 C   0  0  0  0  0  0  0  0  0  0  0  0
    3.5355    4.1626   -1.1628 H   0  0  0  0  0  0  0  0  0  0  0  0
    3.0793    2.1705   -0.4758 C   0  0  0  0  0  0  0  0  0  0  0  0
    4.0393    2.0310    0.0130 H   0  0  0  0  0  0  0  0  0  0  0  0
    2.1320    1.1418   -0.4480 C   0  0  0  0  0  0  0  0  0  0  0  0
    2.4152    0.2122    0.0335 H   0  0  0  0  0  0  0  0  0  0  0  0
    0.0725   -0.4622    1.3437 C   0  0  0  0  0  0  0  0  0  0  0  0
    1.1315   -0.6482    1.9295 O   0  0  0  0  0  0  0  0  0  0  0  0
   -0.9542    0.1872    2.0076 N   0  0  0  0  0  0  0  0  0  0  0  0
   -1.8532    0.2169    1.5407 H   0  0  0  0  0  0  0  0  0  0  0  0
   -0.8694    0.5883    3.4059 C   0  0  0  0  0  0  0  0  0  0  0  0
   -0.0362    1.2833    3.5544 H   0  0  0  0  0  0  0  0  0  0  0  0
   -1.7932    1.0873    3.7132 H   0  0  0  0  0  0  0  0  0  0  0  0
   -0.7177   -0.2871    4.0462 H   0  0  0  0  0  0  0  0  0  0  0  0
  1  2  1  0  0  0  0
  2  3  1  0  0  0  0
  2  4  1  0  0  0  0
  2  5  1  0  0  0  0
  5  6  2  0  0  0  0
  5  7  1  0  0  0  0
  7  8  1  0  0  0  0
  7  9  1  0  0  0  0
  9 10  1  0  0  0  0
  9 11  1  0  0  0  0
  9 25  1  0  0  0  0
 11 12  1  0  0  0  0
 11 13  1  0  0  0  0
 11 14  1  0  0  0  0
 14 15  1  0  0  0  0
 14 23  2  0  0  0  0
 15 16  1  0  0  0  0
 15 17  2  0  0  0  0
 17 18  1  0  0  0  0
 17 19  1  0  0  0  0
 19 20  1  0  0  0  0
 19 21  2  0  0  0  0
 21 22  1  0  0  0  0
 21 23  1  0  0  0  0
 23 24  1  0  0  0  0
 25 26  2  0  0  0  0
 25 27  1  0  0  0  0
 27 28  1  0  0  0  0
 27 29  1  0  0  0  0
 29 30  1  0  0  0  0
 29 31  1  0  0  0  0
 29 32  1  0  0  0  0
M  END
$$$$

  -OEChem-03222214073D

 32 32  0     1  0  0  0  0  0999 V2000
   -3.2725   -4.3257    0.8208 H   0  0  0  0  0  0  0  0  0  0  0  0
   -3.1696   -3.4268    0.2059 C   0  0  0  0  0  0  0  0  0  0  0  0
   -3.9747   -2.7333    0.4599 H   0  0  0  0  0  0  0  0  0  0  0  0
   -3.2578   -3.7094   -0.8459 H   0  0  0  0  0  0  0  0  0  0  0  0
   -1.8232   -2.7738    0.4572 C   0  0  0  0  0  0  0  0  0  0  0  0
   -1.0639   -3.2534    1.2786 O   0  0  0  0  0  0  0  0  0  0  0  0
   -1.4673   -1.6497   -0.2637 N   0  0  0  0  0  0  0  0  0  0  0  0
   -2.1113   -1.3531   -0.9904 H   0  0  0  0  0  0  0  0  0  0  0  0
   -0.1679   -0.9550   -0.1501 C   0  0  1  0  0  0  0  0  0  0  0  0
    0.6452   -1.6467   -0.3959 H   0  0  0  0  0  0  0  0  0  0  0  0
   -0.2062    0.1835   -1.1975 C   0  0  0  0  0  0  0  0  0  0  0  0
   -0.1227   -0.2620   -2.1939 H   0  0  0  0  0  0  0  0  0  0  0  0
   -1.1870    0.6664   -1.1362 H   0  0  0  0  0  0  0  0  0  0  0  0
    0.8427    1.2729   -1.0801 C   0  0  0  0  0  0  0  0  0  0  0  0
    0.5280    2.5718   -1.5135 C   0  0  0  0  0  0  0  0  0  0  0  0
   -0.4703    2.8005   -1.8734 H   0  0  0  0  0  0  0  0  0  0  0  0
    1.4853    3.5916   -1.4840 C   0  0  0  0  0  0  0  0  0  0  0  0
    1.2223    4.5941   -1.8082 H   0  0  0  0  0  0  0  0  0  0  0  0
    2.7816    3.3201   -1.0402 C   0  0  0  0  0  0  0  0  0  0  0  0
    3.5264    4.1100   -1.0121 H   0  0  0  0  0  0  0  0  0  0  0  0
    3.1204    2.0253   -0.6407 C   0  0  0  0  0  0  0  0  0  0  0  0
    4.1288    1.8049   -0.3030 H   0  0  0  0  0  0  0  0  0  0  0  0
    2.1628    1.0067   -0.6753 C   0  0  0  0  0  0  0  0  0  0  0  0
    2.4623    0.0066   -0.3756 H   0  0  0  0  0  0  0  0  0  0  0  0
    0.0892   -0.4323    1.2867 C   0  0  0  0  0  0  0  0  0  0  0  0
    1.1849   -0.5742    1.8149 O   0  0  0  0  0  0  0  0  0  0  0  0
   -0.9138    0.2210    1.9817 N   0  0  0  0  0  0  0  0  0  0  0  0
   -1.8339    0.2320    1.5568 H   0  0  0  0  0  0  0  0  0  0  0  0
   -0.7642    0.6644    3.3618 C   0  0  0  0  0  0  0  0  0  0  0  0
    0.0501    1.3922    3.4430 H   0  0  0  0  0  0  0  0  0  0  0  0
   -1.6867    1.1384    3.7101 H   0  0  0  0  0  0  0  0  0  0  0  0
   -0.5432   -0.1867    4.0149 H   0  0  0  0  0  0  0  0  0  0  0  0
  1  2  1  0  0  0  0
  2  3  1  0  0  0  0
  2  4  1  0  0  0  0
  2  5  1  0  0  0  0
  5  6  2  0  0  0  0
  5  7  1  0  0  0  0
  7  8  1  0  0  0  0
  7  9  1  0  0  0  0
  9 10  1  0  0  0  0
  9 11  1  0  0  0  0
  9 25  1  0  0  0  0
 11 12  1  0  0  0  0
 11 13  1  0  0  0  0
 11 14  1  0  0  0  0
 14 15  1  0  0  0  0
 14 23  2  0  0  0  0
 15 16  1  0  0  0  0
 15 17  2  0  0  0  0
 17 18  1  0  0  0  0
 17 19  1  0  0  0  0
 19 20  1  0  0  0  0
 19 21  2  0  0  0  0
 21 22  1  0  0  0  0
 21 23  1  0  0  0  0
 23 24  1  0  0  0  0
 25 26  2  0  0  0  0
 25 27  1  0  0  0  0
 27 28  1  0  0  0  0
 27 29  1  0  0  0  0
 29 30  1  0  0  0  0
 29 31  1  0  0  0  0
 29 32  1  0  0  0  0
M  END
$$$$

  -OEChem-03222214073D

 32 32  0     1  0  0  0  0  0999 V2000
   -3.2323   -4.3504    0.8539 H   0  0  0  0  0  0  0  0  0  0  0  0
   -3.1535   -3.4546    0.2311 C   0  0  0  0  0  0  0  0  0  0  0  0
   -3.9650   -2.7718    0.4941 H   0  0  0  0  0  0  0  0  0  0  0  0
   -3.2550   -3.7464   -0.8169 H   0  0  0  0  0  0  0  0  0  0  0  0
   -1.8129   -2.7799    0.4557 C   0  0  0  0  0  0  0  0  0  0  0  0
   -1.0378   -3.2363    1.2755 O   0  0  0  0  0  0  0  0  0  0  0  0
   -1.4838   -1.6553   -0.2772 N   0  0  0  0  0  0  0  0  0  0  0  0
   -2.1367   -1.3791   -1.0040 H   0  0  0  0  0  0  0  0  0  0  0  0
   -0.1910   -0.9456   -0.1887 C   0  0  1  0  0  0  0  0  0  0  0  0
    0.6207   -1.6364   -0.4410 H   0  0  0  0  0  0  0  0  0  0  0  0
   -0.2415    0.1811   -1.2456 C   0  0  0  0  0  0  0  0  0  0  0  0
   -0.1535   -0.2673   -2.2400 H   0  0  0  0  0  0  0  0  0  0  0  0
   -1.2233    0.6622   -1.1905 H   0  0  0  0  0  0  0  0  0  0  0  0
    0.8166    1.2569   -1.1113 C   0  0  0  0  0  0  0  0  0  0  0  0
    0.4596    2.6103   -1.2294 C   0  0  0  0  0  0  0  0  0  0  0  0
   -0.5768    2.8931   -1.3840 H   0  0  0  0  0  0  0  0  0  0  0  0
    1.4292    3.6152   -1.1462 C   0  0  0  0  0  0  0  0  0  0  0  0
    1.1400    4.6584   -1.2299 H   0  0  0  0  0  0  0  0  0  0  0  0
    2.7713    3.2778   -0.9535 C   0  0  0  0  0  0  0  0  0  0  0  0
    3.5252    4.0563   -0.8820 H   0  0  0  0  0  0  0  0  0  0  0  0
    3.1419    1.9346   -0.8507 C   0  0  0  0  0  0  0  0  0  0  0  0
    4.1829    1.6666   -0.6964 H   0  0  0  0  0  0  0  0  0  0  0  0
    2.1719    0.9309   -0.9380 C   0  0  0  0  0  0  0  0  0  0  0  0
    2.4814   -0.1063   -0.8501 H   0  0  0  0  0  0  0  0  0  0  0  0
    0.1043   -0.4052    1.2325 C   0  0  0  0  0  0  0  0  0  0  0  0
    1.2260   -0.5063    1.7134 O   0  0  0  0  0  0  0  0  0  0  0  0
   -0.8835    0.2473    1.9494 N   0  0  0  0  0  0  0  0  0  0  0  0
   -1.8218    0.2150    1.5673 H   0  0  0  0  0  0  0  0  0  0  0  0
   -0.6898    0.7202    3.3138 C   0  0  0  0  0  0  0  0  0  0  0  0
    0.1277    1.4477    3.3534 H   0  0  0  0  0  0  0  0  0  0  0  0
   -1.6000    1.2040    3.6803 H   0  0  0  0  0  0  0  0  0  0  0  0
   -0.4493   -0.1169    3.9776 H   0  0  0  0  0  0  0  0  0  0  0  0
  1  2  1  0  0  0  0
  2  3  1  0  0  0  0
  2  4  1  0  0  0  0
  2  5  1  0  0  0  0
  5  6  2  0  0  0  0
  5  7  1  0  0  0  0
  7  8  1  0  0  0  0
  7  9  1  0  0  0  0
  9 10  1  0  0  0  0
  9 11  1  0  0  0  0
  9 25  1  0  0  0  0
 11 12  1  0  0  0  0
 11 13  1  0  0  0  0
 11 14  1  0  0  0  0
 14 15  1  0  0  0  0
 14 23  2  0  0  0  0
 15 16  1  0  0  0  0
 15 17  2  0  0  0  0
 17 18  1  0  0  0  0
 17 19  1  0  0  0  0
 19 20  1  0  0  0  0
 19 21  2  0  0  0  0
 21 22  1  0  0  0  0
 21 23  1  0  0  0  0
 23 24  1  0  0  0  0
 25 26  2  0  0  0  0
 25 27  1  0  0  0  0
 27 28  1  0  0  0  0
 27 29  1  0  0  0  0
 29 30  1  0  0  0  0
 29 31  1  0  0  0  0
 29 32  1  0  0  0  0
M  END
$$$$

  -OEChem-03222214073D

 32 32  0     1  0  0  0  0  0999 V2000
   -3.1869   -4.3716    0.8784 H   0  0  0  0  0  0  0  0  0  0  0  0
   -3.1272   -3.4820    0.2446 C   0  0  0  0  0  0  0  0  0  0  0  0
   -3.9532   -2.8135    0.4989 H   0  0  0  0  0  0  0  0  0  0  0  0
   -3.2225   -3.7888   -0.7998 H   0  0  0  0  0  0  0  0  0  0  0  0
   -1.8012   -2.7763    0.4611 C   0  0  0  0  0  0  0  0  0  0  0  0
   -1.0141   -3.2111    1.2813 O   0  0  0  0  0  0  0  0  0  0  0  0
   -1.4962   -1.6521   -0.2827 N   0  0  0  0  0  0  0  0  0  0  0  0
   -2.1568   -1.3950   -1.0096 H   0  0  0  0  0  0  0  0  0  0  0  0
   -0.2090   -0.9300   -0.2180 C   0  0  1  0  0  0  0  0  0  0  0  0
    0.6040   -1.6167   -0.4781 H   0  0  0  0  0  0  0  0  0  0  0  0
   -0.2756    0.1897   -1.2795 C   0  0  0  0  0  0  0  0  0  0  0  0
   -0.1908   -0.2587   -2.2743 H   0  0  0  0  0  0  0  0  0  0  0  0
   -1.2565    0.6727   -1.2227 H   0  0  0  0  0  0  0  0  0  0  0  0
    0.7902    1.2525   -1.1324 C   0  0  0  0  0  0  0  0  0  0  0  0
    0.4372    2.5953   -0.9230 C   0  0  0  0  0  0  0  0  0  0  0  0
   -0.6063    2.8837   -0.8474 H   0  0  0  0  0  0  0  0  0  0  0  0
    1.4242    3.5797   -0.8023 C   0  0  0  0  0  0  0  0  0  0  0  0
    1.1423    4.6146   -0.6335 H   0  0  0  0  0  0  0  0  0  0  0  0
    2.7746    3.2315   -0.8930 C   0  0  0  0  0  0  0  0  0  0  0  0
    3.5420    3.9931   -0.7924 H   0  0  0  0  0  0  0  0  0  0  0  0
    3.1365    1.8987   -1.1060 C   0  0  0  0  0  0  0  0  0  0  0  0
    4.1849    1.6231   -1.1675 H   0  0  0  0  0  0  0  0  0  0  0  0
    2.1493    0.9156   -1.2288 C   0  0  0  0  0  0  0  0  0  0  0  0
    2.4473   -0.1173   -1.3825 H   0  0  0  0  0  0  0  0  0  0  0  0
    0.1117   -0.3770    1.1923 C   0  0  0  0  0  0  0  0  0  0  0  0
    1.2480   -0.4506    1.6427 O   0  0  0  0  0  0  0  0  0  0  0  0
   -0.8673    0.2724    1.9238 N   0  0  0  0  0  0  0  0  0  0  0  0
   -1.8146    0.2151    1.5677 H   0  0  0  0  0  0  0  0  0  0  0  0
   -0.6481    0.7603    3.2789 C   0  0  0  0  0  0  0  0  0  0  0  0
    0.1711    1.4868    3.2958 H   0  0  0  0  0  0  0  0  0  0  0  0
   -1.5509    1.2497    3.6562 H   0  0  0  0  0  0  0  0  0  0  0  0
   -0.3965   -0.0700    3.9472 H   0  0  0  0  0  0  0  0  0  0  0  0
  1  2  1  0  0  0  0
  2  3  1  0  0  0  0
  2  4  1  0  0  0  0
  2  5  1  0  0  0  0
  5  6  2  0  0  0  0
  5  7  1  0  0  0  0
  7  8  1  0  0  0  0
  7  9  1  0  0  0  0
  9 10  1  0  0  0  0
  9 11  1  0  0  0  0
  9 25  1  0  0  0  0
 11 12  1  0  0  0  0
 11 13  1  0  0  0  0
 11 14  1  0  0  0  0
 14 15  1  0  0  0  0
 14 23  2  0  0  0  0
 15 16  1  0  0  0  0
 15 17  2  0  0  0  0
 17 18  1  0  0  0  0
 17 19  1  0  0  0  0
 19 20  1  0  0  0  0
 19 21  2  0  0  0  0
 21 22  1  0  0  0  0
 21 23  1  0  0  0  0
 23 24  1  0  0  0  0
 25 26  2  0  0  0  0
 25 27  1  0  0  0  0
 27 28  1  0  0  0  0
 27 29  1  0  0  0  0
 29 30  1  0  0  0  0
 29 31  1  0  0  0  0
 29 32  1  0  0  0  0
M  END
$$$$

  -OEChem-03222214073D

 32 32  0     1  0  0  0  0  0999 V2000
   -3.1713   -4.3756    0.8849 H   0  0  0  0  0  0  0  0  0  0  0  0
   -3.1173   -3.4883    0.2476 C   0  0  0  0  0  0  0  0  0  0  0  0
   -3.9477   -2.8242    0.4988 H   0  0  0  0  0  0  0  0  0  0  0  0
   -3.2095   -3.8001   -0.7954 H   0  0  0  0  0  0  0  0  0  0  0  0
   -1.7965   -2.7727    0.4617 C   0  0  0  0  0  0  0  0  0  0  0  0
   -1.0066   -3.1988    1.2837 O   0  0  0  0  0  0  0  0  0  0  0  0
   -1.5011   -1.6480   -0.2852 N   0  0  0  0  0  0  0  0  0  0  0  0
   -2.1649   -1.3982   -1.0118 H   0  0  0  0  0  0  0  0  0  0  0  0
   -0.2153   -0.9225   -0.2304 C   0  0  1  0  0  0  0  0  0  0  0  0
    0.5985   -1.6067   -0.4947 H   0  0  0  0  0  0  0  0  0  0  0  0
   -0.2882    0.1937   -1.2945 C   0  0  0  0  0  0  0  0  0  0  0  0
   -0.2113   -0.2552   -2.2898 H   0  0  0  0  0  0  0  0  0  0  0  0
   -1.2659    0.6826   -1.2348 H   0  0  0  0  0  0  0  0  0  0  0  0
    0.7809    1.2508   -1.1452 C   0  0  0  0  0  0  0  0  0  0  0  0
    0.4714    2.5195   -0.6297 C   0  0  0  0  0  0  0  0  0  0  0  0
   -0.5424    2.7537   -0.3214 H   0  0  0  0  0  0  0  0  0  0  0  0
    1.4663    3.4938   -0.4965 C   0  0  0  0  0  0  0  0  0  0  0  0
    1.2195    4.4708   -0.0920 H   0  0  0  0  0  0  0  0  0  0  0  0
    2.7808    3.2075   -0.8762 C   0  0  0  0  0  0  0  0  0  0  0  0
    3.5554    3.9607   -0.7669 H   0  0  0  0  0  0  0  0  0  0  0  0
    3.0995    1.9461   -1.3869 C   0  0  0  0  0  0  0  0  0  0  0  0
    4.1219    1.7179   -1.6725 H   0  0  0  0  0  0  0  0  0  0  0  0
    2.1036    0.9729   -1.5204 C   0  0  0  0  0  0  0  0  0  0  0  0
    2.3661   -0.0071   -1.9068 H   0  0  0  0  0  0  0  0  0  0  0  0
    0.1143   -0.3682    1.1773 C   0  0  0  0  0  0  0  0  0  0  0  0
    1.2568   -0.4257    1.6134 O   0  0  0  0  0  0  0  0  0  0  0  0
   -0.8617    0.2787    1.9157 N   0  0  0  0  0  0  0  0  0  0  0  0
   -1.8143    0.1954    1.5796 H   0  0  0  0  0  0  0  0  0  0  0  0
   -0.6294    0.7735    3.2660 C   0  0  0  0  0  0  0  0  0  0  0  0
    0.1891    1.5012    3.2707 H   0  0  0  0  0  0  0  0  0  0  0  0
   -1.5286    1.2640    3.6502 H   0  0  0  0  0  0  0  0  0  0  0  0
   -0.3702   -0.0534    3.9357 H   0  0  0  0  0  0  0  0  0  0  0  0
  1  2  1  0  0  0  0
  2  3  1  0  0  0  0
  2  4  1  0  0  0  0
  2  5  1  0  0  0  0
  5  6  2  0  0  0  0
  5  7  1  0  0  0  0
  7  8  1  0  0  0  0
  7  9  1  0  0  0  0
  9 10  1  0  0  0  0
  9 11  1  0  0  0  0
  9 25  1  0  0  0  0
 11 12  1  0  0  0  0
 11 13  1  0  0  0  0
 11 14  1  0  0  0  0
 14 15  1  0  0  0  0
 14 23  2  0  0  0  0
 15 16  1  0  0  0  0
 15 17  2  0  0  0  0
 17 18  1  0  0  0  0
 17 19  1  0  0  0  0
 19 20  1  0  0  0  0
 19 21  2  0  0  0  0
 21 22  1  0  0  0  0
 21 23  1  0  0  0  0
 23 24  1  0  0  0  0
 25 26  2  0  0  0  0
 25 27  1  0  0  0  0
 27 28  1  0  0  0  0
 27 29  1  0  0  0  0
 29 30  1  0  0  0  0
 29 31  1  0  0  0  0
 29 32  1  0  0  0  0
M  END
$$$$

  -OEChem-03222214073D

 32 32  0     1  0  0  0  0  0999 V2000
   -3.1768   -4.3715    0.8744 H   0  0  0  0  0  0  0  0  0  0  0  0
   -3.1197   -3.4811    0.2416 C   0  0  0  0  0  0  0  0  0  0  0  0
   -3.9505   -2.8177    0.4928 H   0  0  0  0  0  0  0  0  0  0  0  0
   -3.2085   -3.7877   -0.8033 H   0  0  0  0  0  0  0  0  0  0  0  0
   -1.7991   -2.7675    0.4634 C   0  0  0  0  0  0  0  0  0  0  0  0
   -1.0127   -3.1967    1.2872 O   0  0  0  0  0  0  0  0  0  0  0  0
   -1.5009   -1.6399   -0.2779 N   0  0  0  0  0  0  0  0  0  0  0  0
   -2.1613   -1.3892   -1.0074 H   0  0  0  0  0  0  0  0  0  0  0  0
   -0.2133   -0.9176   -0.2215 C   0  0  1  0  0  0  0  0  0  0  0  0
    0.5988   -1.6047   -0.4838 H   0  0  0  0  0  0  0  0  0  0  0  0
   -0.2802    0.1931   -1.2933 C   0  0  0  0  0  0  0  0  0  0  0  0
   -0.2118   -0.2656   -2.2848 H   0  0  0  0  0  0  0  0  0  0  0  0
   -1.2549    0.6884   -1.2345 H   0  0  0  0  0  0  0  0  0  0  0  0
    0.7857    1.2561   -1.1583 C   0  0  0  0  0  0  0  0  0  0  0  0
    0.5670    2.4076   -0.3847 C   0  0  0  0  0  0  0  0  0  0  0  0
   -0.3766    2.5487    0.1327 H   0  0  0  0  0  0  0  0  0  0  0  0
    1.5646    3.3803   -0.2600 C   0  0  0  0  0  0  0  0  0  0  0  0
    1.3883    4.2637    0.3463 H   0  0  0  0  0  0  0  0  0  0  0  0
    2.7920    3.2098   -0.9066 C   0  0  0  0  0  0  0  0  0  0  0  0
    3.5694    3.9610   -0.8045 H   0  0  0  0  0  0  0  0  0  0  0  0
    3.0213    2.0651   -1.6754 C   0  0  0  0  0  0  0  0  0  0  0  0
    3.9776    1.9260   -2.1707 H   0  0  0  0  0  0  0  0  0  0  0  0
    2.0231    1.0927   -1.7983 C   0  0  0  0  0  0  0  0  0  0  0  0
    2.2185    0.2024   -2.3883 H   0  0  0  0  0  0  0  0  0  0  0  0
    0.1142   -0.3737    1.1905 C   0  0  0  0  0  0  0  0  0  0  0  0
    1.2578   -0.4225    1.6243 O   0  0  0  0  0  0  0  0  0  0  0  0
   -0.8641    0.2691    1.9303 N   0  0  0  0  0  0  0  0  0  0  0  0
   -1.8174    0.1693    1.5997 H   0  0  0  0  0  0  0  0  0  0  0  0
   -0.6357    0.7481    3.2872 C   0  0  0  0  0  0  0  0  0  0  0  0
    0.1826    1.4757    3.3035 H   0  0  0  0  0  0  0  0  0  0  0  0
   -1.5363    1.2340    3.6739 H   0  0  0  0  0  0  0  0  0  0  0  0
   -0.3788   -0.0866    3.9479 H   0  0  0  0  0  0  0  0  0  0  0  0
  1  2  1  0  0  0  0
  2  3  1  0  0  0  0
  2  4  1  0  0  0  0
  2  5  1  0  0  0  0
  5  6  2  0  0  0  0
  5  7  1  0  0  0  0
  7  8  1  0  0  0  0
  7  9  1  0  0  0  0
  9 10  1  0  0  0  0
  9 11  1  0  0  0  0
  9 25  1  0  0  0  0
 11 12  1  0  0  0  0
 11 13  1  0  0  0  0
 11 14  1  0  0  0  0
 14 15  1  0  0  0  0
 14 23  2  0  0  0  0
 15 16  1  0  0  0  0
 15 17  2  0  0  0  0
 17 18  1  0  0  0  0
 17 19  1  0  0  0  0
 19 20  1  0  0  0  0
 19 21  2  0  0  0  0
 21 22  1  0  0  0  0
 21 23  1  0  0  0  0
 23 24  1  0  0  0  0
 25 26  2  0  0  0  0
 25 27  1  0  0  0  0
 27 28  1  0  0  0  0
 27 29  1  0  0  0  0
 29 30  1  0  0  0  0
 29 31  1  0  0  0  0
 29 32  1  0  0  0  0
M  END
$$$$

  -OEChem-03222214073D

 32 32  0     1  0  0  0  0  0999 V2000
   -3.1927   -4.3676    0.8433 H   0  0  0  0  0  0  0  0  0  0  0  0
   -3.1300   -3.4679    0.2246 C   0  0  0  0  0  0  0  0  0  0  0  0
   -3.9556   -2.8025    0.4877 H   0  0  0  0  0  0  0  0  0  0  0  0
   -3.2233   -3.7575   -0.8247 H   0  0  0  0  0  0  0  0  0  0  0  0
   -1.8036   -2.7680    0.4562 C   0  0  0  0  0  0  0  0  0  0  0  0
   -1.0218   -3.2145    1.2751 O   0  0  0  0  0  0  0  0  0  0  0  0
   -1.4978   -1.6289   -0.2645 N   0  0  0  0  0  0  0  0  0  0  0  0
   -2.1589   -1.3578   -0.9859 H   0  0  0  0  0  0  0  0  0  0  0  0
   -0.2082   -0.9103   -0.1917 C   0  0  1  0  0  0  0  0  0  0  0  0
    0.6026   -1.6021   -0.4460 H   0  0  0  0  0  0  0  0  0  0  0  0
   -0.2504    0.1932   -1.2768 C   0  0  0  0  0  0  0  0  0  0  0  0
   -0.1837   -0.2838   -2.2597 H   0  0  0  0  0  0  0  0  0  0  0  0
   -1.2235    0.6922   -1.2294 H   0  0  0  0  0  0  0  0  0  0  0  0
    0.8036    1.2766   -1.1698 C   0  0  0  0  0  0  0  0  0  0  0  0
    0.7256    2.2968   -0.2064 C   0  0  0  0  0  0  0  0  0  0  0  0
   -0.1124    2.3421    0.4809 H   0  0  0  0  0  0  0  0  0  0  0  0
    1.7229    3.2735   -0.1172 C   0  0  0  0  0  0  0  0  0  0  0  0
    1.6520    4.0527    0.6356 H   0  0  0  0  0  0  0  0  0  0  0  0
    2.8138    3.2417   -0.9896 C   0  0  0  0  0  0  0  0  0  0  0  0
    3.5905    3.9972   -0.9176 H   0  0  0  0  0  0  0  0  0  0  0  0
    2.9068    2.2300   -1.9487 C   0  0  0  0  0  0  0  0  0  0  0  0
    3.7588    2.1981   -2.6212 H   0  0  0  0  0  0  0  0  0  0  0  0
    1.9088    1.2533   -2.0354 C   0  0  0  0  0  0  0  0  0  0  0  0
    2.0041    0.4681   -2.7789 H   0  0  0  0  0  0  0  0  0  0  0  0
    0.1030   -0.3962    1.2341 C   0  0  0  0  0  0  0  0  0  0  0  0
    1.2438   -0.4404    1.6753 O   0  0  0  0  0  0  0  0  0  0  0  0
   -0.8844    0.2307    1.9755 N   0  0  0  0  0  0  0  0  0  0  0  0
   -1.8345    0.1233    1.6380 H   0  0  0  0  0  0  0  0  0  0  0  0
   -0.6731    0.6745    3.3470 C   0  0  0  0  0  0  0  0  0  0  0  0
    0.1430    1.4036    3.3919 H   0  0  0  0  0  0  0  0  0  0  0  0
   -1.5794    1.1479    3.7361 H   0  0  0  0  0  0  0  0  0  0  0  0
   -0.4214   -0.1766    3.9888 H   0  0  0  0  0  0  0  0  0  0  0  0
  1  2  1  0  0  0  0
  2  3  1  0  0  0  0
  2  4  1  0  0  0  0
  2  5  1  0  0  0  0
  5  6  2  0  0  0  0
  5  7  1  0  0  0  0
  7  8  1  0  0  0  0
  7  9  1  0  0  0  0
  9 10  1  0  0  0  0
  9 11  1  0  0  0  0
  9 25  1  0  0  0  0
 11 12  1  0  0  0  0
 11 13  1  0  0  0  0
 11 14  1  0  0  0  0
 14 15  1  0  0  0  0
 14 23  2  0  0  0  0
 15 16  1  0  0  0  0
 15 17  2  0  0  0  0
 17 18  1  0  0  0  0
 17 19  1  0  0  0  0
 19 20  1  0  0  0  0
 19 21  2  0  0  0  0
 21 22  1  0  0  0  0
 21 23  1  0  0  0  0
 23 24  1  0  0  0  0
 25 26  2  0  0  0  0
 25 27  1  0  0  0  0
 27 28  1  0  0  0  0
 27 29  1  0  0  0  0
 29 30  1  0  0  0  0
 29 31  1  0  0  0  0
 29 32  1  0  0  0  0
M  END
$$$$

  -OEChem-03222214073D

 32 32  0     1  0  0  0  0  0999 V2000
   -3.2260   -4.3573    0.7840 H   0  0  0  0  0  0  0  0  0  0  0  0
   -3.1461   -3.4438    0.1876 C   0  0  0  0  0  0  0  0  0  0  0  0
   -3.9629   -2.7723    0.4624 H   0  0  0  0  0  0  0  0  0  0  0  0
   -3.2374   -3.7065   -0.8691 H   0  0  0  0  0  0  0  0  0  0  0  0
   -1.8107   -2.7696    0.4428 C   0  0  0  0  0  0  0  0  0  0  0  0
   -1.0390   -3.2481    1.2532 O   0  0  0  0  0  0  0  0  0  0  0  0
   -1.4836   -1.6185   -0.2494 N   0  0  0  0  0  0  0  0  0  0  0  0
   -2.1391   -1.3166   -0.9637 H   0  0  0  0  0  0  0  0  0  0  0  0
   -0.1897   -0.9107   -0.1430 C   0  0  1  0  0  0  0  0  0  0  0  0
    0.6203   -1.6076   -0.3860 H   0  0  0  0  0  0  0  0  0  0  0  0
   -0.2015    0.1918   -1.2343 C   0  0  0  0  0  0  0  0  0  0  0  0
   -0.1329   -0.3033   -2.2080 H   0  0  0  0  0  0  0  0  0  0  0  0
   -1.1754    0.6901   -1.1998 H   0  0  0  0  0  0  0  0  0  0  0  0
    0.8354    1.3022   -1.1617 C   0  0  0  0  0  0  0  0  0  0  0  0
    0.9510    2.1866   -0.0735 C   0  0  0  0  0  0  0  0  0  0  0  0
    0.2662    2.1381    0.7644 H   0  0  0  0  0  0  0  0  0  0  0  0
    1.9429    3.1725   -0.0493 C   0  0  0  0  0  0  0  0  0  0  0  0
    2.0171    3.8434    0.8013 H   0  0  0  0  0  0  0  0  0  0  0  0
    2.8393    3.2921   -1.1130 C   0  0  0  0  0  0  0  0  0  0  0  0
    3.6118    4.0551   -1.0909 H   0  0  0  0  0  0  0  0  0  0  0  0
    2.7420    2.4222   -2.2007 C   0  0  0  0  0  0  0  0  0  0  0  0
    3.4413    2.5069   -3.0273 H   0  0  0  0  0  0  0  0  0  0  0  0
    1.7499    1.4362   -2.2213 C   0  0  0  0  0  0  0  0  0  0  0  0
    1.7029    0.7651   -3.0732 H   0  0  0  0  0  0  0  0  0  0  0  0
    0.0876   -0.4342    1.3018 C   0  0  0  0  0  0  0  0  0  0  0  0
    1.2175   -0.4883    1.7689 O   0  0  0  0  0  0  0  0  0  0  0  0
   -0.9161    0.1788    2.0333 N   0  0  0  0  0  0  0  0  0  0  0  0
   -1.8568    0.0883    1.6655 H   0  0  0  0  0  0  0  0  0  0  0  0
   -0.7432    0.5734    3.4255 C   0  0  0  0  0  0  0  0  0  0  0  0
    0.0676    1.3035    3.5189 H   0  0  0  0  0  0  0  0  0  0  0  0
   -1.6623    1.0279    3.8072 H   0  0  0  0  0  0  0  0  0  0  0  0
   -0.5043   -0.2995    4.0423 H   0  0  0  0  0  0  0  0  0  0  0  0
  1  2  1  0  0  0  0
  2  3  1  0  0  0  0
  2  4  1  0  0  0  0
  2  5  1  0  0  0  0
  5  6  2  0  0  0  0
  5  7  1  0  0  0  0
  7  8  1  0  0  0  0
  7  9  1  0  0  0  0
  9 10  1  0  0  0  0
  9 11  1  0  0  0  0
  9 25  1  0  0  0  0
 11 12  1  0  0  0  0
 11 13  1  0  0  0  0
 11 14  1  0  0  0  0
 14 15  1  0  0  0  0
 14 23  2  0  0  0  0
 15 16  1  0  0  0  0
 15 17  2  0  0  0  0
 17 18  1  0  0  0  0
 17 19  1  0  0  0  0
 19 20  1  0  0  0  0
 19 21  2  0  0  0  0
 21 22  1  0  0  0  0
 21 23  1  0  0  0  0
 23 24  1  0  0  0  0
 25 26  2  0  0  0  0
 25 27  1  0  0  0  0
 27 28  1  0  0  0  0
 27 29  1  0  0  0  0
 29 30  1  0  0  0  0
 29 31  1  0  0  0  0
 29 32  1  0  0  0  0
M  END
$$$$

  -OEChem-03222214073D

 32 32  0     1  0  0  0  0  0999 V2000
   -3.2845   -4.3291    0.7175 H   0  0  0  0  0  0  0  0  0  0  0  0
   -3.1721   -3.4107    0.1339 C   0  0  0  0  0  0  0  0  0  0  0  0
   -3.9797   -2.7247    0.3999 H   0  0  0  0  0  0  0  0  0  0  0  0
   -3.2465   -3.6590   -0.9276 H   0  0  0  0  0  0  0  0  0  0  0  0
   -1.8280   -2.7696    0.4254 C   0  0  0  0  0  0  0  0  0  0  0  0
   -1.0820   -3.2788    1.2412 O   0  0  0  0  0  0  0  0  0  0  0  0
   -1.4636   -1.6147   -0.2412 N   0  0  0  0  0  0  0  0  0  0  0  0
   -2.0984   -1.2886   -0.9636 H   0  0  0  0  0  0  0  0  0  0  0  0
   -0.1597   -0.9317   -0.0935 C   0  0  1  0  0  0  0  0  0  0  0  0
    0.6479   -1.6342   -0.3291 H   0  0  0  0  0  0  0  0  0  0  0  0
   -0.1461    0.1853   -1.1740 C   0  0  0  0  0  0  0  0  0  0  0  0
   -0.0761   -0.3161   -2.1444 H   0  0  0  0  0  0  0  0  0  0  0  0
   -1.1205    0.6834   -1.1427 H   0  0  0  0  0  0  0  0  0  0  0  0
    0.8781    1.3165   -1.1297 C   0  0  0  0  0  0  0  0  0  0  0  0
    1.2327    2.0480    0.0216 C   0  0  0  0  0  0  0  0  0  0  0  0
    0.7539    1.8879    0.9783 H   0  0  0  0  0  0  0  0  0  0  0  0
    2.2091    3.0485   -0.0292 C   0  0  0  0  0  0  0  0  0  0  0  0
    2.4667    3.5959    0.8728 H   0  0  0  0  0  0  0  0  0  0  0  0
    2.8528    3.3434   -1.2314 C   0  0  0  0  0  0  0  0  0  0  0  0
    3.6131    4.1180   -1.2663 H   0  0  0  0  0  0  0  0  0  0  0  0
    2.5151    2.6361   -2.3854 C   0  0  0  0  0  0  0  0  0  0  0  0
    3.0144    2.8586   -3.3240 H   0  0  0  0  0  0  0  0  0  0  0  0
    1.5395    1.6353   -2.3310 C   0  0  0  0  0  0  0  0  0  0  0  0
    1.3059    1.0969   -3.2444 H   0  0  0  0  0  0  0  0  0  0  0  0
    0.0770   -0.4878    1.3675 C   0  0  0  0  0  0  0  0  0  0  0  0
    1.1867   -0.5810    1.8756 O   0  0  0  0  0  0  0  0  0  0  0  0
   -0.9396    0.1281    2.0780 N   0  0  0  0  0  0  0  0  0  0  0  0
   -1.8662    0.0799    1.6687 H   0  0  0  0  0  0  0  0  0  0  0  0
   -0.8107    0.4938    3.4826 C   0  0  0  0  0  0  0  0  0  0  0  0
    0.0087    1.2071    3.6202 H   0  0  0  0  0  0  0  0  0  0  0  0
   -1.7349    0.9584    3.8386 H   0  0  0  0  0  0  0  0  0  0  0  0
   -0.6108   -0.3944    4.0912 H   0  0  0  0  0  0  0  0  0  0  0  0
  1  2  1  0  0  0  0
  2  3  1  0  0  0  0
  2  4  1  0  0  0  0
  2  5  1  0  0  0  0
  5  6  2  0  0  0  0
  5  7  1  0  0  0  0
  7  8  1  0  0  0  0
  7  9  1  0  0  0  0
  9 10  1  0  0  0  0
  9 11  1  0  0  0  0
  9 25  1  0  0  0  0
 11 12  1  0  0  0  0
 11 13  1  0  0  0  0
 11 14  1  0  0  0  0
 14 15  1  0  0  0  0
 14 23  2  0  0  0  0
 15 16  1  0  0  0  0
 15 17  2  0  0  0  0
 17 18  1  0  0  0  0
 17 19  1  0  0  0  0
 19 20  1  0  0  0  0
 19 21  2  0  0  0  0
 21 22  1  0  0  0  0
 21 23  1  0  0  0  0
 23 24  1  0  0  0  0
 25 26  2  0  0  0  0
 25 27  1  0  0  0  0
 27 28  1  0  0  0  0
 27 29  1  0  0  0  0
 29 30  1  0  0  0  0
 29 31  1  0  0  0  0
 29 32  1  0  0  0  0
M  END
$$$$

  -OEChem-03222214073D

 32 32  0     1  0  0  0  0  0999 V2000
   -3.3629   -4.2765    0.6580 H   0  0  0  0  0  0  0  0  0  0  0  0
   -3.2098   -3.3575    0.0849 C   0  0  0  0  0  0  0  0  0  0  0  0
   -4.0039   -2.6503    0.3358 H   0  0  0  0  0  0  0  0  0  0  0  0
   -3.2639   -3.5958   -0.9801 H   0  0  0  0  0  0  0  0  0  0  0  0
   -1.8557   -2.7575    0.4146 C   0  0  0  0  0  0  0  0  0  0  0  0
   -1.1430   -3.2966    1.2407 O   0  0  0  0  0  0  0  0  0  0  0  0
   -1.4430   -1.6097   -0.2364 N   0  0  0  0  0  0  0  0  0  0  0  0
   -2.0551   -1.2584   -0.9662 H   0  0  0  0  0  0  0  0  0  0  0  0
   -0.1259   -0.9610   -0.0526 C   0  0  1  0  0  0  0  0  0  0  0  0
    0.6745   -1.6745   -0.2784 H   0  0  0  0  0  0  0  0  0  0  0  0
   -0.0854    0.1671   -1.1228 C   0  0  0  0  0  0  0  0  0  0  0  0
   -0.0064   -0.3374   -2.0915 H   0  0  0  0  0  0  0  0  0  0  0  0
   -1.0583    0.6687   -1.1006 H   0  0  0  0  0  0  0  0  0  0  0  0
    0.9359    1.3047   -1.1004 C   0  0  0  0  0  0  0  0  0  0  0  0
    1.5410    1.8723    0.0408 C   0  0  0  0  0  0  0  0  0  0  0  0
    1.3055    1.5682    1.0498 H   0  0  0  0  0  0  0  0  0  0  0  0
    2.4807    2.9023   -0.0742 C   0  0  0  0  0  0  0  0  0  0  0  0
    2.9335    3.3180    0.8211 H   0  0  0  0  0  0  0  0  0  0  0  0
    2.8370    3.3963   -1.3286 C   0  0  0  0  0  0  0  0  0  0  0  0
    3.5680    4.1952   -1.4127 H   0  0  0  0  0  0  0  0  0  0  0  0
    2.2468    2.8585   -2.4714 C   0  0  0  0  0  0  0  0  0  0  0  0
    2.5186    3.2384   -3.4517 H   0  0  0  0  0  0  0  0  0  0  0  0
    1.3090    1.8278   -2.3540 C   0  0  0  0  0  0  0  0  0  0  0  0
    0.8704    1.4286   -3.2635 H   0  0  0  0  0  0  0  0  0  0  0  0
    0.0748   -0.5328    1.4179 C   0  0  0  0  0  0  0  0  0  0  0  0
    1.1492   -0.7147    1.9766 O   0  0  0  0  0  0  0  0  0  0  0  0
   -0.9437    0.1044    2.1055 N   0  0  0  0  0  0  0  0  0  0  0  0
   -1.8506    0.1255    1.6527 H   0  0  0  0  0  0  0  0  0  0  0  0
   -0.8570    0.4293    3.5233 C   0  0  0  0  0  0  0  0  0  0  0  0
   -0.0193    1.1096    3.7092 H   0  0  0  0  0  0  0  0  0  0  0  0
   -1.7778    0.9170    3.8568 H   0  0  0  0  0  0  0  0  0  0  0  0
   -0.7107   -0.4802    4.1158 H   0  0  0  0  0  0  0  0  0  0  0  0
  1  2  1  0  0  0  0
  2  3  1  0  0  0  0
  2  4  1  0  0  0  0
  2  5  1  0  0  0  0
  5  6  2  0  0  0  0
  5  7  1  0  0  0  0
  7  8  1  0  0  0  0
  7  9  1  0  0  0  0
  9 10  1  0  0  0  0
  9 11  1  0  0  0  0
  9 25  1  0  0  0  0
 11 12  1  0  0  0  0
 11 13  1  0  0  0  0
 11 14  1  0  0  0  0
 14 15  1  0  0  0  0
 14 23  2  0  0  0  0
 15 16  1  0  0  0  0
 15 17  2  0  0  0  0
 17 18  1  0  0  0  0
 17 19  1  0  0  0  0
 19 20  1  0  0  0  0
 19 21  2  0  0  0  0
 21 22  1  0  0  0  0
 21 23  1  0  0  0  0
 23 24  1  0  0  0  0
 25 26  2  0  0  0  0
 25 27  1  0  0  0  0
 27 28  1  0  0  0  0
 27 29  1  0  0  0  0
 29 30  1  0  0  0  0
 29 31  1  0  0  0  0
 29 32  1  0  0  0  0
M  END
$$$$

  -OEChem-03222214073D

 32 32  0     1  0  0  0  0  0999 V2000
   -3.4347   -4.2020    0.6866 H   0  0  0  0  0  0  0  0  0  0  0  0
   -3.2448   -3.2972    0.1020 C   0  0  0  0  0  0  0  0  0  0  0  0
   -4.0187   -2.5612    0.3323 H   0  0  0  0  0  0  0  0  0  0  0  0
   -3.2935   -3.5497   -0.9599 H   0  0  0  0  0  0  0  0  0  0  0  0
   -1.8765   -2.7357    0.4410 C   0  0  0  0  0  0  0  0  0  0  0  0
   -1.1938   -3.2852    1.2851 O   0  0  0  0  0  0  0  0  0  0  0  0
   -1.4141   -1.6187   -0.2301 N   0  0  0  0  0  0  0  0  0  0  0  0
   -2.0015   -1.2657   -0.9791 H   0  0  0  0  0  0  0  0  0  0  0  0
   -0.0833   -1.0012   -0.0321 C   0  0  1  0  0  0  0  0  0  0  0  0
    0.7113   -1.7281   -0.2345 H   0  0  0  0  0  0  0  0  0  0  0  0
   -0.0261    0.1222   -1.1056 C   0  0  0  0  0  0  0  0  0  0  0  0
    0.0541   -0.3852   -2.0730 H   0  0  0  0  0  0  0  0  0  0  0  0
   -0.9945    0.6330   -1.0873 H   0  0  0  0  0  0  0  0  0  0  0  0
    1.0042    1.2499   -1.1024 C   0  0  0  0  0  0  0  0  0  0  0  0
    1.8442    1.6364   -0.0377 C   0  0  0  0  0  0  0  0  0  0  0  0
    1.8604    1.1360    0.9175 H   0  0  0  0  0  0  0  0  0  0  0  0
    2.7348    2.7074   -0.1713 C   0  0  0  0  0  0  0  0  0  0  0  0
    3.3752    2.9804    0.6624 H   0  0  0  0  0  0  0  0  0  0  0  0
    2.8068    3.4215   -1.3672 C   0  0  0  0  0  0  0  0  0  0  0  0
    3.5010    4.2508   -1.4667 H   0  0  0  0  0  0  0  0  0  0  0  0
    1.9829    3.0617   -2.4326 C   0  0  0  0  0  0  0  0  0  0  0  0
    2.0328    3.6128   -3.3670 H   0  0  0  0  0  0  0  0  0  0  0  0
    1.0944    1.9908   -2.2960 C   0  0  0  0  0  0  0  0  0  0  0  0
    0.4631    1.7341   -3.1413 H   0  0  0  0  0  0  0  0  0  0  0  0
    0.0789   -0.5418    1.4365 C   0  0  0  0  0  0  0  0  0  0  0  0
    1.0958   -0.8117    2.0636 O   0  0  0  0  0  0  0  0  0  0  0  0
   -0.9434    0.1386    2.0752 N   0  0  0  0  0  0  0  0  0  0  0  0
   -1.8167    0.2280    1.5681 H   0  0  0  0  0  0  0  0  0  0  0  0
   -0.9187    0.4529    3.4980 C   0  0  0  0  0  0  0  0  0  0  0  0
   -0.0552    1.0827    3.7364 H   0  0  0  0  0  0  0  0  0  0  0  0
   -1.8274    0.9916    3.7822 H   0  0  0  0  0  0  0  0  0  0  0  0
   -0.8591   -0.4662    4.0905 H   0  0  0  0  0  0  0  0  0  0  0  0
  1  2  1  0  0  0  0
  2  3  1  0  0  0  0
  2  4  1  0  0  0  0
  2  5  1  0  0  0  0
  5  6  2  0  0  0  0
  5  7  1  0  0  0  0
  7  8  1  0  0  0  0
  7  9  1  0  0  0  0
  9 10  1  0  0  0  0
  9 11  1  0  0  0  0
  9 25  1  0  0  0  0
 11 12  1  0  0  0  0
 11 13  1  0  0  0  0
 11 14  1  0  0  0  0
 14 15  1  0  0  0  0
 14 23  2  0  0  0  0
 15 16  1  0  0  0  0
 15 17  2  0  0  0  0
 17 18  1  0  0  0  0
 17 19  1  0  0  0  0
 19 20  1  0  0  0  0
 19 21  2  0  0  0  0
 21 22  1  0  0  0  0
 21 23  1  0  0  0  0
 23 24  1  0  0  0  0
 25 26  2  0  0  0  0
 25 27  1  0  0  0  0
 27 28  1  0  0  0  0
 27 29  1  0  0  0  0
 29 30  1  0  0  0  0
 29 31  1  0  0  0  0
 29 32  1  0  0  0  0
M  END
$$$$

  -OEChem-03222214073D

 32 32  0     1  0  0  0  0  0999 V2000
   -3.4503   -4.1635    0.7780 H   0  0  0  0  0  0  0  0  0  0  0  0
   -3.2673   -3.2714    0.1722 C   0  0  0  0  0  0  0  0  0  0  0  0
   -4.0126   -2.5148    0.4282 H   0  0  0  0  0  0  0  0  0  0  0  0
   -3.3722   -3.5367   -0.8825 H   0  0  0  0  0  0  0  0  0  0  0  0
   -1.8719   -2.7373    0.4381 C   0  0  0  0  0  0  0  0  0  0  0  0
   -1.1537   -3.3063    1.2386 O   0  0  0  0  0  0  0  0  0  0  0  0
   -1.4260   -1.6252   -0.2525 N   0  0  0  0  0  0  0  0  0  0  0  0
   -2.0459   -1.2592   -0.9682 H   0  0  0  0  0  0  0  0  0  0  0  0
   -0.0820   -1.0210   -0.1117 C   0  0  1  0  0  0  0  0  0  0  0  0
    0.7022   -1.7443   -0.3612 H   0  0  0  0  0  0  0  0  0  0  0  0
   -0.0786    0.1356   -1.1493 C   0  0  0  0  0  0  0  0  0  0  0  0
   -0.0498   -0.3279   -2.1409 H   0  0  0  0  0  0  0  0  0  0  0  0
   -1.0406    0.6517   -1.0606 H   0  0  0  0  0  0  0  0  0  0  0  0
    0.9711    1.2409   -1.1444 C   0  0  0  0  0  0  0  0  0  0  0  0
    2.0455    1.3670   -0.2427 C   0  0  0  0  0  0  0  0  0  0  0  0
    2.2699    0.6183    0.5027 H   0  0  0  0  0  0  0  0  0  0  0  0
    2.9195    2.4574   -0.3077 C   0  0  0  0  0  0  0  0  0  0  0  0
    3.7453    2.5254    0.3946 H   0  0  0  0  0  0  0  0  0  0  0  0
    2.7391    3.4483   -1.2734 C   0  0  0  0  0  0  0  0  0  0  0  0
    3.4201    4.2928   -1.3217 H   0  0  0  0  0  0  0  0  0  0  0  0
    1.6836    3.3423   -2.1793 C   0  0  0  0  0  0  0  0  0  0  0  0
    1.5386    4.1085   -2.9351 H   0  0  0  0  0  0  0  0  0  0  0  0
    0.8121    2.2504   -2.1112 C   0  0  0  0  0  0  0  0  0  0  0  0
   -0.0057    2.1934   -2.8231 H   0  0  0  0  0  0  0  0  0  0  0  0
    0.1349   -0.5656    1.3552 C   0  0  0  0  0  0  0  0  0  0  0  0
    1.1538   -0.8704    1.9622 O   0  0  0  0  0  0  0  0  0  0  0  0
   -0.8607    0.1216    2.0288 N   0  0  0  0  0  0  0  0  0  0  0  0
   -1.7416    0.2440    1.5428 H   0  0  0  0  0  0  0  0  0  0  0  0
   -0.7873    0.4373    3.4496 C   0  0  0  0  0  0  0  0  0  0  0  0
    0.0808    1.0723    3.6557 H   0  0  0  0  0  0  0  0  0  0  0  0
   -1.6880    0.9713    3.7668 H   0  0  0  0  0  0  0  0  0  0  0  0
   -0.7018   -0.4808    4.0406 H   0  0  0  0  0  0  0  0  0  0  0  0
  1  2  1  0  0  0  0
  2  3  1  0  0  0  0
  2  4  1  0  0  0  0
  2  5  1  0  0  0  0
  5  6  2  0  0  0  0
  5  7  1  0  0  0  0
  7  8  1  0  0  0  0
  7  9  1  0  0  0  0
  9 10  1  0  0  0  0
  9 11  1  0  0  0  0
  9 25  1  0  0  0  0
 11 12  1  0  0  0  0
 11 13  1  0  0  0  0
 11 14  1  0  0  0  0
 14 15  1  0  0  0  0
 14 23  2  0  0  0  0
 15 16  1  0  0  0  0
 15 17  2  0  0  0  0
 17 18  1  0  0  0  0
 17 19  1  0  0  0  0
 19 20  1  0  0  0  0
 19 21  2  0  0  0  0
 21 22  1  0  0  0  0
 21 23  1  0  0  0  0
 23 24  1  0  0  0  0
 25 26  2  0  0  0  0
 25 27  1  0  0  0  0
 27 28  1  0  0  0  0
 27 29  1  0  0  0  0
 29 30  1  0  0  0  0
 29 31  1  0  0  0  0
 29 32  1  0  0  0  0
M  END
$$$$

  -OEChem-03222214073D

 32 32  0     1  0  0  0  0  0999 V2000
   -3.3924   -4.2000    0.8670 H   0  0  0  0  0  0  0  0  0  0  0  0
   -3.2390   -3.3216    0.2334 C   0  0  0  0  0  0  0  0  0  0  0  0
   -4.0003   -2.5763    0.4756 H   0  0  0  0  0  0  0  0  0  0  0  0
   -3.3478   -3.6203   -0.8121 H   0  0  0  0  0  0  0  0  0  0  0  0
   -1.8549   -2.7455    0.4684 C   0  0  0  0  0  0  0  0  0  0  0  0
   -1.1144   -3.2718    1.2781 O   0  0  0  0  0  0  0  0  0  0  0  0
   -1.4421   -1.6456   -0.2606 N   0  0  0  0  0  0  0  0  0  0  0  0
   -2.0778   -1.3141   -0.9794 H   0  0  0  0  0  0  0  0  0  0  0  0
   -0.1088   -1.0128   -0.1549 C   0  0  1  0  0  0  0  0  0  0  0  0
    0.6833   -1.7283   -0.4010 H   0  0  0  0  0  0  0  0  0  0  0  0
   -0.1321    0.1300   -1.2037 C   0  0  0  0  0  0  0  0  0  0  0  0
   -0.1003   -0.3316   -2.1957 H   0  0  0  0  0  0  0  0  0  0  0  0
   -1.0974    0.6397   -1.1123 H   0  0  0  0  0  0  0  0  0  0  0  0
    0.9274    1.2216   -1.1768 C   0  0  0  0  0  0  0  0  0  0  0  0
    2.1367    1.1456   -0.4611 C   0  0  0  0  0  0  0  0  0  0  0  0
    2.4250    0.2485    0.0741 H   0  0  0  0  0  0  0  0  0  0  0  0
    3.0391    2.2142   -0.4560 C   0  0  0  0  0  0  0  0  0  0  0  0
    3.9677    2.1312    0.1014 H   0  0  0  0  0  0  0  0  0  0  0  0
    2.7522    3.3792   -1.1694 C   0  0  0  0  0  0  0  0  0  0  0  0
    3.4547    4.2074   -1.1647 H   0  0  0  0  0  0  0  0  0  0  0  0
    1.5618    3.4706   -1.8926 C   0  0  0  0  0  0  0  0  0  0  0  0
    1.3363    4.3735   -2.4522 H   0  0  0  0  0  0  0  0  0  0  0  0
    0.6603    2.4010   -1.8938 C   0  0  0  0  0  0  0  0  0  0  0  0
   -0.2618    2.4962   -2.4588 H   0  0  0  0  0  0  0  0  0  0  0  0
    0.1308   -0.5066    1.2931 C   0  0  0  0  0  0  0  0  0  0  0  0
    1.1780   -0.7470    1.8805 O   0  0  0  0  0  0  0  0  0  0  0  0
   -0.8654    0.1845    1.9617 N   0  0  0  0  0  0  0  0  0  0  0  0
   -1.7603    0.2660    1.4930 H   0  0  0  0  0  0  0  0  0  0  0  0
   -0.7583    0.5843    3.3587 C   0  0  0  0  0  0  0  0  0  0  0  0
    0.0987    1.2510    3.5008 H   0  0  0  0  0  0  0  0  0  0  0  0
   -1.6630    1.1142    3.6711 H   0  0  0  0  0  0  0  0  0  0  0  0
   -0.6315   -0.2949    3.9992 H   0  0  0  0  0  0  0  0  0  0  0  0
  1  2  1  0  0  0  0
  2  3  1  0  0  0  0
  2  4  1  0  0  0  0
  2  5  1  0  0  0  0
  5  6  2  0  0  0  0
  5  7  1  0  0  0  0
  7  8  1  0  0  0  0
  7  9  1  0  0  0  0
  9 10  1  0  0  0  0
  9 11  1  0  0  0  0
  9 25  1  0  0  0  0
 11 12  1  0  0  0  0
 11 13  1  0  0  0  0
 11 14  1  0  0  0  0
 14 15  1  0  0  0  0
 14 23  2  0  0  0  0
 15 16  1  0  0  0  0
 15 17  2  0  0  0  0
 17 18  1  0  0  0  0
 17 19  1  0  0  0  0
 19 20  1  0  0  0  0
 19 21  2  0  0  0  0
 21 22  1  0  0  0  0
 21 23  1  0  0  0  0
 23 24  1  0  0  0  0
 25 26  2  0  0  0  0
 25 27  1  0  0  0  0
 27 28  1  0  0  0  0
 27 29  1  0  0  0  0
 29 30  1  0  0  0  0
 29 31  1  0  0  0  0
 29 32  1  0  0  0  0
M  END
$$$$

  -OEChem-03222214073D

 32 32  0     1  0  0  0  0  0999 V2000
   -3.3008   -4.2746    0.8955 H   0  0  0  0  0  0  0  0  0  0  0  0
   -3.1904   -3.3948    0.2548 C   0  0  0  0  0  0  0  0  0  0  0  0
   -3.9785   -2.6795    0.5016 H   0  0  0  0  0  0  0  0  0  0  0  0
   -3.2994   -3.7049   -0.7874 H   0  0  0  0  0  0  0  0  0  0  0  0
   -1.8284   -2.7610    0.4693 C   0  0  0  0  0  0  0  0  0  0  0  0
   -1.0600   -3.2452    1.2794 O   0  0  0  0  0  0  0  0  0  0  0  0
   -1.4684   -1.6517   -0.2729 N   0  0  0  0  0  0  0  0  0  0  0  0
   -2.1198   -1.3561   -0.9934 H   0  0  0  0  0  0  0  0  0  0  0  0
   -0.1545   -0.9788   -0.1944 C   0  0  1  0  0  0  0  0  0  0  0  0
    0.6448   -1.6823   -0.4514 H   0  0  0  0  0  0  0  0  0  0  0  0
   -0.2058    0.1542   -1.2492 C   0  0  0  0  0  0  0  0  0  0  0  0
   -0.1583   -0.3025   -2.2429 H   0  0  0  0  0  0  0  0  0  0  0  0
   -1.1794    0.6480   -1.1637 H   0  0  0  0  0  0  0  0  0  0  0  0
    0.8543    1.2394   -1.1851 C   0  0  0  0  0  0  0  0  0  0  0  0
    2.1544    1.0090   -0.7016 C   0  0  0  0  0  0  0  0  0  0  0  0
    2.4582    0.0229   -0.3639 H   0  0  0  0  0  0  0  0  0  0  0  0
    3.0946    2.0426   -0.6510 C   0  0  0  0  0  0  0  0  0  0  0  0
    4.0907    1.8447   -0.2663 H   0  0  0  0  0  0  0  0  0  0  0  0
    2.7529    3.3232   -1.0908 C   0  0  0  0  0  0  0  0  0  0  0  0
    3.4844    4.1247   -1.0502 H   0  0  0  0  0  0  0  0  0  0  0  0
    1.4686    3.5672   -1.5828 C   0  0  0  0  0  0  0  0  0  0  0  0
    1.2011    4.5618   -1.9268 H   0  0  0  0  0  0  0  0  0  0  0  0
    0.5284    2.5321   -1.6290 C   0  0  0  0  0  0  0  0  0  0  0  0
   -0.4644    2.7434   -2.0138 H   0  0  0  0  0  0  0  0  0  0  0  0
    0.1288   -0.4485    1.2357 C   0  0  0  0  0  0  0  0  0  0  0  0
    1.2219   -0.6183    1.7613 O   0  0  0  0  0  0  0  0  0  0  0  0
   -0.8564    0.2258    1.9364 N   0  0  0  0  0  0  0  0  0  0  0  0
   -1.7790    0.2542    1.5178 H   0  0  0  0  0  0  0  0  0  0  0  0
   -0.6881    0.6727    3.3128 C   0  0  0  0  0  0  0  0  0  0  0  0
    0.1558    1.3667    3.3892 H   0  0  0  0  0  0  0  0  0  0  0  0
   -1.5901    1.1875    3.6565 H   0  0  0  0  0  0  0  0  0  0  0  0
   -0.5025   -0.1820    3.9718 H   0  0  0  0  0  0  0  0  0  0  0  0
  1  2  1  0  0  0  0
  2  3  1  0  0  0  0
  2  4  1  0  0  0  0
  2  5  1  0  0  0  0
  5  6  2  0  0  0  0
  5  7  1  0  0  0  0
  7  8  1  0  0  0  0
  7  9  1  0  0  0  0
  9 10  1  0  0  0  0
  9 11  1  0  0  0  0
  9 25  1  0  0  0  0
 11 12  1  0  0  0  0
 11 13  1  0  0  0  0
 11 14  1  0  0  0  0
 14 15  1  0  0  0  0
 14 23  2  0  0  0  0
 15 16  1  0  0  0  0
 15 17  2  0  0  0  0
 17 18  1  0  0  0  0
 17 19  1  0  0  0  0
 19 20  1  0  0  0  0
 19 21  2  0  0  0  0
 21 22  1  0  0  0  0
 21 23  1  0  0  0  0
 23 24  1  0  0  0  0
 25 26  2  0  0  0  0
 25 27  1  0  0  0  0
 27 28  1  0  0  0  0
 27 29  1  0  0  0  0
 29 30  1  0  0  0  0
 29 31  1  0  0  0  0
 29 32  1  0  0  0  0
M  END
$$$$

  -OEChem-03222214073D

 32 32  0     1  0  0  0  0  0999 V2000
   -3.2282   -4.3307    0.9052 H   0  0  0  0  0  0  0  0  0  0  0  0
   -3.1529   -3.4458    0.2666 C   0  0  0  0  0  0  0  0  0  0  0  0
   -3.9546   -2.7523    0.5312 H   0  0  0  0  0  0  0  0  0  0  0  0
   -3.2739   -3.7535   -0.7748 H   0  0  0  0  0  0  0  0  0  0  0  0
   -1.8040   -2.7779    0.4586 C   0  0  0  0  0  0  0  0  0  0  0  0
   -1.0127   -3.2369    1.2612 O   0  0  0  0  0  0  0  0  0  0  0  0
   -1.4848   -1.6588   -0.2869 N   0  0  0  0  0  0  0  0  0  0  0  0
   -2.1547   -1.3782   -0.9965 H   0  0  0  0  0  0  0  0  0  0  0  0
   -0.1890   -0.9515   -0.2243 C   0  0  1  0  0  0  0  0  0  0  0  0
    0.6177   -1.6447   -0.4865 H   0  0  0  0  0  0  0  0  0  0  0  0
   -0.2577    0.1700   -1.2866 C   0  0  0  0  0  0  0  0  0  0  0  0
   -0.1893   -0.2852   -2.2795 H   0  0  0  0  0  0  0  0  0  0  0  0
   -1.2383    0.6513   -1.2152 H   0  0  0  0  0  0  0  0  0  0  0  0
    0.8009    1.2497   -1.1853 C   0  0  0  0  0  0  0  0  0  0  0  0
    2.1532    0.9358   -0.9697 C   0  0  0  0  0  0  0  0  0  0  0  0
    2.4675   -0.0971   -0.8511 H   0  0  0  0  0  0  0  0  0  0  0  0
    3.1162    1.9464   -0.8840 C   0  0  0  0  0  0  0  0  0  0  0  0
    4.1551    1.6875   -0.7026 H   0  0  0  0  0  0  0  0  0  0  0  0
    2.7415    3.2850   -1.0213 C   0  0  0  0  0  0  0  0  0  0  0  0
    3.4900    4.0685   -0.9506 H   0  0  0  0  0  0  0  0  0  0  0  0
    1.4016    3.6113   -1.2446 C   0  0  0  0  0  0  0  0  0  0  0  0
    1.1091    4.6515   -1.3518 H   0  0  0  0  0  0  0  0  0  0  0  0
    0.4385    2.5996   -1.3265 C   0  0  0  0  0  0  0  0  0  0  0  0
   -0.5968    2.8743   -1.5008 H   0  0  0  0  0  0  0  0  0  0  0  0
    0.1267   -0.4042    1.1904 C   0  0  0  0  0  0  0  0  0  0  0  0
    1.2521   -0.5130    1.6607 O   0  0  0  0  0  0  0  0  0  0  0  0
   -0.8496    0.2538    1.9180 N   0  0  0  0  0  0  0  0  0  0  0  0
   -1.7914    0.2332    1.5440 H   0  0  0  0  0  0  0  0  0  0  0  0
   -0.6349    0.7414    3.2740 C   0  0  0  0  0  0  0  0  0  0  0  0
    0.1961    1.4543    3.2963 H   0  0  0  0  0  0  0  0  0  0  0  0
   -1.5326    1.2473    3.6417 H   0  0  0  0  0  0  0  0  0  0  0  0
   -0.4037   -0.0909    3.9472 H   0  0  0  0  0  0  0  0  0  0  0  0
  1  2  1  0  0  0  0
  2  3  1  0  0  0  0
  2  4  1  0  0  0  0
  2  5  1  0  0  0  0
  5  6  2  0  0  0  0
  5  7  1  0  0  0  0
  7  8  1  0  0  0  0
  7  9  1  0  0  0  0
  9 10  1  0  0  0  0
  9 11  1  0  0  0  0
  9 25  1  0  0  0  0
 11 12  1  0  0  0  0
 11 13  1  0  0  0  0
 11 14  1  0  0  0  0
 14 15  1  0  0  0  0
 14 23  2  0  0  0  0
 15 16  1  0  0  0  0
 15 17  2  0  0  0  0
 17 18  1  0  0  0  0
 17 19  1  0  0  0  0
 19 20  1  0  0  0  0
 19 21  2  0  0  0  0
 21 22  1  0  0  0  0
 21 23  1  0  0  0  0
 23 24  1  0  0  0  0
 25 26  2  0  0  0  0
 25 27  1  0  0  0  0
 27 28  1  0  0  0  0
 27 29  1  0  0  0  0
 29 30  1  0  0  0  0
 29 31  1  0  0  0  0
 29 32  1  0  0  0  0
M  END
$$$$

  -OEChem-03222214073D

 32 32  0     1  0  0  0  0  0999 V2000
   -3.1641   -4.3727    0.9072 H   0  0  0  0  0  0  0  0  0  0  0  0
   -3.1145   -3.4866    0.2676 C   0  0  0  0  0  0  0  0  0  0  0  0
   -3.9394   -2.8191    0.5277 H   0  0  0  0  0  0  0  0  0  0  0  0
   -3.2209   -3.8004   -0.7738 H   0  0  0  0  0  0  0  0  0  0  0  0
   -1.7884   -2.7751    0.4633 C   0  0  0  0  0  0  0  0  0  0  0  0
   -0.9892   -3.2022    1.2758 O   0  0  0  0  0  0  0  0  0  0  0  0
   -1.4975   -1.6537   -0.2902 N   0  0  0  0  0  0  0  0  0  0  0  0
   -2.1695   -1.4018   -1.0086 H   0  0  0  0  0  0  0  0  0  0  0  0
   -0.2131   -0.9250   -0.2441 C   0  0  1  0  0  0  0  0  0  0  0  0
    0.5996   -1.6098   -0.5093 H   0  0  0  0  0  0  0  0  0  0  0  0
   -0.2975    0.1859   -1.3137 C   0  0  0  0  0  0  0  0  0  0  0  0
   -0.2207   -0.2701   -2.3057 H   0  0  0  0  0  0  0  0  0  0  0  0
   -1.2808    0.6627   -1.2505 H   0  0  0  0  0  0  0  0  0  0  0  0
    0.7628    1.2575   -1.1893 C   0  0  0  0  0  0  0  0  0  0  0  0
    2.1243    0.9276   -1.2730 C   0  0  0  0  0  0  0  0  0  0  0  0
    2.4292   -0.1055   -1.4097 H   0  0  0  0  0  0  0  0  0  0  0  0
    3.1050    1.9182   -1.1593 C   0  0  0  0  0  0  0  0  0  0  0  0
    4.1554    1.6482   -1.2117 H   0  0  0  0  0  0  0  0  0  0  0  0
    2.7339    3.2515   -0.9659 C   0  0  0  0  0  0  0  0  0  0  0  0
    3.4965    4.0189   -0.8723 H   0  0  0  0  0  0  0  0  0  0  0  0
    1.3810    3.5924   -0.8842 C   0  0  0  0  0  0  0  0  0  0  0  0
    1.0926    4.6277   -0.7299 H   0  0  0  0  0  0  0  0  0  0  0  0
    0.4009    2.6002   -0.9946 C   0  0  0  0  0  0  0  0  0  0  0  0
   -0.6446    2.8824   -0.9239 H   0  0  0  0  0  0  0  0  0  0  0  0
    0.1226   -0.3618    1.1588 C   0  0  0  0  0  0  0  0  0  0  0  0
    1.2651   -0.4279    1.5943 O   0  0  0  0  0  0  0  0  0  0  0  0
   -0.8491    0.2880    1.8997 N   0  0  0  0  0  0  0  0  0  0  0  0
   -1.8014    0.2239    1.5585 H   0  0  0  0  0  0  0  0  0  0  0  0
   -0.6107    0.7912    3.2461 C   0  0  0  0  0  0  0  0  0  0  0  0
    0.2114    1.5148    3.2438 H   0  0  0  0  0  0  0  0  0  0  0  0
   -1.5064    1.2889    3.6290 H   0  0  0  0  0  0  0  0  0  0  0  0
   -0.3537   -0.0318    3.9212 H   0  0  0  0  0  0  0  0  0  0  0  0
  1  2  1  0  0  0  0
  2  3  1  0  0  0  0
  2  4  1  0  0  0  0
  2  5  1  0  0  0  0
  5  6  2  0  0  0  0
  5  7  1  0  0  0  0
  7  8  1  0  0  0  0
  7  9  1  0  0  0  0
  9 10  1  0  0  0  0
  9 11  1  0  0  0  0
  9 25  1  0  0  0  0
 11 12  1  0  0  0  0
 11 13  1  0  0  0  0
 11 14  1  0  0  0  0
 14 15  1  0  0  0  0
 14 23  2  0  0  0  0
 15 16  1  0  0  0  0
 15 17  2  0  0  0  0
 17 18  1  0  0  0  0
 17 19  1  0  0  0  0
 19 20  1  0  0  0  0
 19 21  2  0  0  0  0
 21 22  1  0  0  0  0
 21 23  1  0  0  0  0
 23 24  1  0  0  0  0
 25 26  2  0  0  0  0
 25 27  1  0  0  0  0
 27 28  1  0  0  0  0
 27 29  1  0  0  0  0
 29 30  1  0  0  0  0
 29 31  1  0  0  0  0
 29 32  1  0  0  0  0
M  END
$$$$

  -OEChem-03222214073D

 32 32  0     1  0  0  0  0  0999 V2000
   -3.1327   -4.3896    0.9032 H   0  0  0  0  0  0  0  0  0  0  0  0
   -3.0941   -3.5029    0.2641 C   0  0  0  0  0  0  0  0  0  0  0  0
   -3.9295   -2.8478    0.5218 H   0  0  0  0  0  0  0  0  0  0  0  0
   -3.1922   -3.8178   -0.7774 H   0  0  0  0  0  0  0  0  0  0  0  0
   -1.7793   -2.7719    0.4644 C   0  0  0  0  0  0  0  0  0  0  0  0
   -0.9767   -3.1875    1.2794 O   0  0  0  0  0  0  0  0  0  0  0  0
   -1.5012   -1.6474   -0.2892 N   0  0  0  0  0  0  0  0  0  0  0  0
   -2.1747   -1.4052   -1.0095 H   0  0  0  0  0  0  0  0  0  0  0  0
   -0.2219   -0.9097   -0.2490 C   0  0  1  0  0  0  0  0  0  0  0  0
    0.5951   -1.5886   -0.5169 H   0  0  0  0  0  0  0  0  0  0  0  0
   -0.3133    0.1989   -1.3193 C   0  0  0  0  0  0  0  0  0  0  0  0
   -0.2389   -0.2561   -2.3120 H   0  0  0  0  0  0  0  0  0  0  0  0
   -1.2952    0.6786   -1.2556 H   0  0  0  0  0  0  0  0  0  0  0  0
    0.7472    1.2664   -1.1843 C   0  0  0  0  0  0  0  0  0  0  0  0
    2.0685    0.9978   -1.5702 C   0  0  0  0  0  0  0  0  0  0  0  0
    2.3365    0.0171   -1.9509 H   0  0  0  0  0  0  0  0  0  0  0  0
    3.0568    1.9807   -1.4531 C   0  0  0  0  0  0  0  0  0  0  0  0
    4.0790    1.7585   -1.7444 H   0  0  0  0  0  0  0  0  0  0  0  0
    2.7314    3.2438   -0.9506 C   0  0  0  0  0  0  0  0  0  0  0  0
    3.5001    4.0046   -0.8546 H   0  0  0  0  0  0  0  0  0  0  0  0
    1.4175    3.5217   -0.5627 C   0  0  0  0  0  0  0  0  0  0  0  0
    1.1657    4.5000   -0.1649 H   0  0  0  0  0  0  0  0  0  0  0  0
    0.4300    2.5373   -0.6789 C   0  0  0  0  0  0  0  0  0  0  0  0
   -0.5838    2.7654   -0.3653 H   0  0  0  0  0  0  0  0  0  0  0  0
    0.1171   -0.3463    1.1529 C   0  0  0  0  0  0  0  0  0  0  0  0
    1.2653   -0.3872    1.5756 O   0  0  0  0  0  0  0  0  0  0  0  0
   -0.8575    0.2949    1.8982 N   0  0  0  0  0  0  0  0  0  0  0  0
   -1.8125    0.2040    1.5705 H   0  0  0  0  0  0  0  0  0  0  0  0
   -0.6163    0.8023    3.2425 C   0  0  0  0  0  0  0  0  0  0  0  0
    0.1994    1.5330    3.2343 H   0  0  0  0  0  0  0  0  0  0  0  0
   -1.5145    1.2927    3.6292 H   0  0  0  0  0  0  0  0  0  0  0  0
   -0.3489   -0.0177    3.9173 H   0  0  0  0  0  0  0  0  0  0  0  0
  1  2  1  0  0  0  0
  2  3  1  0  0  0  0
  2  4  1  0  0  0  0
  2  5  1  0  0  0  0
  5  6  2  0  0  0  0
  5  7  1  0  0  0  0
  7  8  1  0  0  0  0
  7  9  1  0  0  0  0
  9 10  1  0  0  0  0
  9 11  1  0  0  0  0
  9 25  1  0  0  0  0
 11 12  1  0  0  0  0
 11 13  1  0  0  0  0
 11 14  1  0  0  0  0
 14 15  1  0  0  0  0
 14 23  2  0  0  0  0
 15 16  1  0  0  0  0
 15 17  2  0  0  0  0
 17 18  1  0  0  0  0
 17 19  1  0  0  0  0
 19 20  1  0  0  0  0
 19 21  2  0  0  0  0
 21 22  1  0  0  0  0
 21 23  1  0  0  0  0
 23 24  1  0  0  0  0
 25 26  2  0  0  0  0
 25 27  1  0  0  0  0
 27 28  1  0  0  0  0
 27 29  1  0  0  0  0
 29 30  1  0  0  0  0
 29 31  1  0  0  0  0
 29 32  1  0  0  0  0
M  END
$$$$

  -OEChem-03222214073D

 32 32  0     1  0  0  0  0  0999 V2000
   -3.1489   -4.3827    0.8836 H   0  0  0  0  0  0  0  0  0  0  0  0
   -3.1034   -3.4911    0.2516 C   0  0  0  0  0  0  0  0  0  0  0  0
   -3.9347   -2.8325    0.5135 H   0  0  0  0  0  0  0  0  0  0  0  0
   -3.2027   -3.7968   -0.7926 H   0  0  0  0  0  0  0  0  0  0  0  0
   -1.7844   -2.7704    0.4600 C   0  0  0  0  0  0  0  0  0  0  0  0
   -0.9898   -3.1924    1.2796 O   0  0  0  0  0  0  0  0  0  0  0  0
   -1.4991   -1.6402   -0.2825 N   0  0  0  0  0  0  0  0  0  0  0  0
   -2.1640   -1.3962   -1.0102 H   0  0  0  0  0  0  0  0  0  0  0  0
   -0.2174   -0.9068   -0.2321 C   0  0  1  0  0  0  0  0  0  0  0  0
    0.5993   -1.5868   -0.4985 H   0  0  0  0  0  0  0  0  0  0  0  0
   -0.2978    0.2026   -1.3035 C   0  0  0  0  0  0  0  0  0  0  0  0
   -0.2282   -0.2558   -2.2951 H   0  0  0  0  0  0  0  0  0  0  0  0
   -1.2766    0.6892   -1.2416 H   0  0  0  0  0  0  0  0  0  0  0  0
    0.7609    1.2728   -1.1705 C   0  0  0  0  0  0  0  0  0  0  0  0
    1.9916    1.1276   -1.8273 C   0  0  0  0  0  0  0  0  0  0  0  0
    2.1984    0.2329   -2.4063 H   0  0  0  0  0  0  0  0  0  0  0  0
    2.9701    2.1228   -1.7329 C   0  0  0  0  0  0  0  0  0  0  0  0
    3.9240    1.9953   -2.2358 H   0  0  0  0  0  0  0  0  0  0  0  0
    2.7236    3.2772   -0.9844 C   0  0  0  0  0  0  0  0  0  0  0  0
    3.4852    4.0472   -0.9060 H   0  0  0  0  0  0  0  0  0  0  0  0
    1.4984    3.4351   -0.3306 C   0  0  0  0  0  0  0  0  0  0  0  0
    1.3080    4.3285    0.2562 H   0  0  0  0  0  0  0  0  0  0  0  0
    0.5208    2.4391   -0.4260 C   0  0  0  0  0  0  0  0  0  0  0  0
   -0.4237    2.5732    0.0917 H   0  0  0  0  0  0  0  0  0  0  0  0
    0.1137   -0.3592    1.1776 C   0  0  0  0  0  0  0  0  0  0  0  0
    1.2614   -0.3931    1.6020 O   0  0  0  0  0  0  0  0  0  0  0  0
   -0.8655    0.2755    1.9226 N   0  0  0  0  0  0  0  0  0  0  0  0
   -1.8201    0.1603    1.6009 H   0  0  0  0  0  0  0  0  0  0  0  0
   -0.6328    0.7584    3.2776 C   0  0  0  0  0  0  0  0  0  0  0  0
    0.1811    1.4911    3.2882 H   0  0  0  0  0  0  0  0  0  0  0  0
   -1.5343    1.2394    3.6686 H   0  0  0  0  0  0  0  0  0  0  0  0
   -0.3667   -0.0734    3.9386 H   0  0  0  0  0  0  0  0  0  0  0  0
  1  2  1  0  0  0  0
  2  3  1  0  0  0  0
  2  4  1  0  0  0  0
  2  5  1  0  0  0  0
  5  6  2  0  0  0  0
  5  7  1  0  0  0  0
  7  8  1  0  0  0  0
  7  9  1  0  0  0  0
  9 10  1  0  0  0  0
  9 11  1  0  0  0  0
  9 25  1  0  0  0  0
 11 12  1  0  0  0  0
 11 13  1  0  0  0  0
 11 14  1  0  0  0  0
 14 15  1  0  0  0  0
 14 23  2  0  0  0  0
 15 16  1  0  0  0  0
 15 17  2  0  0  0  0
 17 18  1  0  0  0  0
 17 19  1  0  0  0  0
 19 20  1  0  0  0  0
 19 21  2  0  0  0  0
 21 22  1  0  0  0  0
 21 23  1  0  0  0  0
 23 24  1  0  0  0  0
 25 26  2  0  0  0  0
 25 27  1  0  0  0  0
 27 28  1  0  0  0  0
 27 29  1  0  0  0  0
 29 30  1  0  0  0  0
 29 31  1  0  0  0  0
 29 32  1  0  0  0  0
M  END
$$$$

  -OEChem-03222214073D

 32 32  0     1  0  0  0  0  0999 V2000
   -3.1864   -4.3711    0.8430 H   0  0  0  0  0  0  0  0  0  0  0  0
   -3.1255   -3.4713    0.2240 C   0  0  0  0  0  0  0  0  0  0  0  0
   -3.9505   -2.8059    0.4890 H   0  0  0  0  0  0  0  0  0  0  0  0
   -3.2206   -3.7604   -0.8254 H   0  0  0  0  0  0  0  0  0  0  0  0
   -1.7988   -2.7709    0.4520 C   0  0  0  0  0  0  0  0  0  0  0  0
   -1.0136   -3.2172    1.2678 O   0  0  0  0  0  0  0  0  0  0  0  0
   -1.4971   -1.6309   -0.2684 N   0  0  0  0  0  0  0  0  0  0  0  0
   -2.1577   -1.3643   -0.9920 H   0  0  0  0  0  0  0  0  0  0  0  0
   -0.2087   -0.9106   -0.1985 C   0  0  1  0  0  0  0  0  0  0  0  0
    0.6030   -1.5984   -0.4610 H   0  0  0  0  0  0  0  0  0  0  0  0
   -0.2616    0.2013   -1.2726 C   0  0  0  0  0  0  0  0  0  0  0  0
   -0.1970   -0.2651   -2.2607 H   0  0  0  0  0  0  0  0  0  0  0  0
   -1.2352    0.6985   -1.2167 H   0  0  0  0  0  0  0  0  0  0  0  0
    0.7959    1.2784   -1.1513 C   0  0  0  0  0  0  0  0  0  0  0  0
    1.8861    1.2860   -2.0358 C   0  0  0  0  0  0  0  0  0  0  0  0
    2.0014    0.4920   -2.7673 H   0  0  0  0  0  0  0  0  0  0  0  0
    2.8460    2.3025   -1.9792 C   0  0  0  0  0  0  0  0  0  0  0  0
    3.6932    2.2882   -2.6583 H   0  0  0  0  0  0  0  0  0  0  0  0
    2.7168    3.3354   -1.0469 C   0  0  0  0  0  0  0  0  0  0  0  0
    3.4641    4.1218   -0.9981 H   0  0  0  0  0  0  0  0  0  0  0  0
    1.6229    3.3538   -0.1776 C   0  0  0  0  0  0  0  0  0  0  0  0
    1.5177    4.1564    0.5464 H   0  0  0  0  0  0  0  0  0  0  0  0
    0.6640    2.3373   -0.2369 C   0  0  0  0  0  0  0  0  0  0  0  0
   -0.1829    2.3767    0.4401 H   0  0  0  0  0  0  0  0  0  0  0  0
    0.1095   -0.3957    1.2255 C   0  0  0  0  0  0  0  0  0  0  0  0
    1.2528   -0.4375    1.6602 O   0  0  0  0  0  0  0  0  0  0  0  0
   -0.8746    0.2305    1.9716 N   0  0  0  0  0  0  0  0  0  0  0  0
   -1.8266    0.1192    1.6407 H   0  0  0  0  0  0  0  0  0  0  0  0
   -0.6552    0.6767    3.3411 C   0  0  0  0  0  0  0  0  0  0  0  0
    0.1601    1.4070    3.3798 H   0  0  0  0  0  0  0  0  0  0  0  0
   -1.5598    1.1493    3.7354 H   0  0  0  0  0  0  0  0  0  0  0  0
   -0.3979   -0.1732    3.9823 H   0  0  0  0  0  0  0  0  0  0  0  0
  1  2  1  0  0  0  0
  2  3  1  0  0  0  0
  2  4  1  0  0  0  0
  2  5  1  0  0  0  0
  5  6  2  0  0  0  0
  5  7  1  0  0  0  0
  7  8  1  0  0  0  0
  7  9  1  0  0  0  0
  9 10  1  0  0  0  0
  9 11  1  0  0  0  0
  9 25  1  0  0  0  0
 11 12  1  0  0  0  0
 11 13  1  0  0  0  0
 11 14  1  0  0  0  0
 14 15  1  0  0  0  0
 14 23  2  0  0  0  0
 15 16  1  0  0  0  0
 15 17  2  0  0  0  0
 17 18  1  0  0  0  0
 17 19  1  0  0  0  0
 19 20  1  0  0  0  0
 19 21  2  0  0  0  0
 21 22  1  0  0  0  0
 21 23  1  0  0  0  0
 23 24  1  0  0  0  0
 25 26  2  0  0  0  0
 25 27  1  0  0  0  0
 27 28  1  0  0  0  0
 27 29  1  0  0  0  0
 29 30  1  0  0  0  0
 29 31  1  0  0  0  0
 29 32  1  0  0  0  0
M  END
$$$$

  -OEChem-03222214073D

 32 32  0     1  0  0  0  0  0999 V2000
   -3.2309   -4.3577    0.7838 H   0  0  0  0  0  0  0  0  0  0  0  0
   -3.1511   -3.4476    0.1822 C   0  0  0  0  0  0  0  0  0  0  0  0
   -3.9705   -2.7766    0.4503 H   0  0  0  0  0  0  0  0  0  0  0  0
   -3.2379   -3.7166   -0.8733 H   0  0  0  0  0  0  0  0  0  0  0  0
   -1.8179   -2.7692    0.4375 C   0  0  0  0  0  0  0  0  0  0  0  0
   -1.0439   -3.2467    1.2463 O   0  0  0  0  0  0  0  0  0  0  0  0
   -1.4952   -1.6161   -0.2534 N   0  0  0  0  0  0  0  0  0  0  0  0
   -2.1524   -1.3156   -0.9669 H   0  0  0  0  0  0  0  0  0  0  0  0
   -0.1983   -0.9131   -0.1563 C   0  0  1  0  0  0  0  0  0  0  0  0
    0.6059   -1.6120   -0.4121 H   0  0  0  0  0  0  0  0  0  0  0  0
   -0.2124    0.1991   -1.2358 C   0  0  0  0  0  0  0  0  0  0  0  0
   -0.1454   -0.2829   -2.2164 H   0  0  0  0  0  0  0  0  0  0  0  0
   -1.1823    0.7050   -1.1953 H   0  0  0  0  0  0  0  0  0  0  0  0
    0.8421    1.2877   -1.1351 C   0  0  0  0  0  0  0  0  0  0  0  0
    1.7448    1.4593   -2.1987 C   0  0  0  0  0  0  0  0  0  0  0  0
    1.7346    0.7741   -3.0406 H   0  0  0  0  0  0  0  0  0  0  0  0
    2.6840    2.4958   -2.1886 C   0  0  0  0  0  0  0  0  0  0  0  0
    3.3891    2.5983   -3.0080 H   0  0  0  0  0  0  0  0  0  0  0  0
    2.7160    3.3988   -1.1241 C   0  0  0  0  0  0  0  0  0  0  0  0
    3.4474    4.2013   -1.1106 H   0  0  0  0  0  0  0  0  0  0  0  0
    1.7977    3.2710   -0.0801 C   0  0  0  0  0  0  0  0  0  0  0  0
    1.8106    3.9782    0.7439 H   0  0  0  0  0  0  0  0  0  0  0  0
    0.8584    2.2347   -0.0948 C   0  0  0  0  0  0  0  0  0  0  0  0
    0.1414    2.1847    0.7162 H   0  0  0  0  0  0  0  0  0  0  0  0
    0.1017   -0.4406    1.2859 C   0  0  0  0  0  0  0  0  0  0  0  0
    1.2391   -0.4959    1.7342 O   0  0  0  0  0  0  0  0  0  0  0  0
   -0.8881    0.1750    2.0338 N   0  0  0  0  0  0  0  0  0  0  0  0
   -1.8355    0.0811    1.6842 H   0  0  0  0  0  0  0  0  0  0  0  0
   -0.6898    0.5733    3.4217 C   0  0  0  0  0  0  0  0  0  0  0  0
    0.1318    1.2932    3.5008 H   0  0  0  0  0  0  0  0  0  0  0  0
   -1.5969    1.0419    3.8146 H   0  0  0  0  0  0  0  0  0  0  0  0
   -0.4532   -0.3000    4.0387 H   0  0  0  0  0  0  0  0  0  0  0  0
  1  2  1  0  0  0  0
  2  3  1  0  0  0  0
  2  4  1  0  0  0  0
  2  5  1  0  0  0  0
  5  6  2  0  0  0  0
  5  7  1  0  0  0  0
  7  8  1  0  0  0  0
  7  9  1  0  0  0  0
  9 10  1  0  0  0  0
  9 11  1  0  0  0  0
  9 25  1  0  0  0  0
 11 12  1  0  0  0  0
 11 13  1  0  0  0  0
 11 14  1  0  0  0  0
 14 15  1  0  0  0  0
 14 23  2  0  0  0  0
 15 16  1  0  0  0  0
 15 17  2  0  0  0  0
 17 18  1  0  0  0  0
 17 19  1  0  0  0  0
 19 20  1  0  0  0  0
 19 21  2  0  0  0  0
 21 22  1  0  0  0  0
 21 23  1  0  0  0  0
 23 24  1  0  0  0  0
 25 26  2  0  0  0  0
 25 27  1  0  0  0  0
 27 28  1  0  0  0  0
 27 29  1  0  0  0  0
 29 30  1  0  0  0  0
 29 31  1  0  0  0  0
 29 32  1  0  0  0  0
M  END
$$$$

  -OEChem-03222214073D

 32 32  0     1  0  0  0  0  0999 V2000
   -3.2923   -4.3249    0.7182 H   0  0  0  0  0  0  0  0  0  0  0  0
   -3.1831   -3.4052    0.1360 C   0  0  0  0  0  0  0  0  0  0  0  0
   -3.9869   -2.7178    0.4103 H   0  0  0  0  0  0  0  0  0  0  0  0
   -3.2668   -3.6503   -0.9256 H   0  0  0  0  0  0  0  0  0  0  0  0
   -1.8356   -2.7673    0.4172 C   0  0  0  0  0  0  0  0  0  0  0  0
   -1.0805   -3.2820    1.2210 O   0  0  0  0  0  0  0  0  0  0  0  0
   -1.4788   -1.6077   -0.2450 N   0  0  0  0  0  0  0  0  0  0  0  0
   -2.1248   -1.2718   -0.9529 H   0  0  0  0  0  0  0  0  0  0  0  0
   -0.1717   -0.9295   -0.1105 C   0  0  1  0  0  0  0  0  0  0  0  0
    0.6271   -1.6374   -0.3588 H   0  0  0  0  0  0  0  0  0  0  0  0
   -0.1526    0.1905   -1.1861 C   0  0  0  0  0  0  0  0  0  0  0  0
   -0.0837   -0.3030   -2.1606 H   0  0  0  0  0  0  0  0  0  0  0  0
   -1.1209    0.7000   -1.1545 H   0  0  0  0  0  0  0  0  0  0  0  0
    0.8929    1.2974   -1.1154 C   0  0  0  0  0  0  0  0  0  0  0  0
    1.5545    1.6482   -2.3072 C   0  0  0  0  0  0  0  0  0  0  0  0
    1.3737    1.0859   -3.2181 H   0  0  0  0  0  0  0  0  0  0  0  0
    2.4717    2.7032   -2.3498 C   0  0  0  0  0  0  0  0  0  0  0  0
    2.9898    2.9362   -3.2753 H   0  0  0  0  0  0  0  0  0  0  0  0
    2.7207    3.4572   -1.2027 C   0  0  0  0  0  0  0  0  0  0  0  0
    3.4357    4.2742   -1.2287 H   0  0  0  0  0  0  0  0  0  0  0  0
    2.0346    3.1644   -0.0234 C   0  0  0  0  0  0  0  0  0  0  0  0
    2.2081    3.7606    0.8677 H   0  0  0  0  0  0  0  0  0  0  0  0
    1.1168    2.1093    0.0142 C   0  0  0  0  0  0  0  0  0  0  0  0
    0.5834    1.9582    0.9434 H   0  0  0  0  0  0  0  0  0  0  0  0
    0.0945   -0.4956    1.3487 C   0  0  0  0  0  0  0  0  0  0  0  0
    1.2177   -0.5787    1.8277 O   0  0  0  0  0  0  0  0  0  0  0  0
   -0.9066    0.1185    2.0826 N   0  0  0  0  0  0  0  0  0  0  0  0
   -1.8431    0.0608    1.6977 H   0  0  0  0  0  0  0  0  0  0  0  0
   -0.7468    0.4717    3.4875 C   0  0  0  0  0  0  0  0  0  0  0  0
    0.0786    1.1802    3.6136 H   0  0  0  0  0  0  0  0  0  0  0  0
   -1.6612    0.9371    3.8672 H   0  0  0  0  0  0  0  0  0  0  0  0
   -0.5377   -0.4225    4.0844 H   0  0  0  0  0  0  0  0  0  0  0  0
  1  2  1  0  0  0  0
  2  3  1  0  0  0  0
  2  4  1  0  0  0  0
  2  5  1  0  0  0  0
  5  6  2  0  0  0  0
  5  7  1  0  0  0  0
  7  8  1  0  0  0  0
  7  9  1  0  0  0  0
  9 10  1  0  0  0  0
  9 11  1  0  0  0  0
  9 25  1  0  0  0  0
 11 12  1  0  0  0  0
 11 13  1  0  0  0  0
 11 14  1  0  0  0  0
 14 15  1  0  0  0  0
 14 23  2  0  0  0  0
 15 16  1  0  0  0  0
 15 17  2  0  0  0  0
 17 18  1  0  0  0  0
 17 19  1  0  0  0  0
 19 20  1  0  0  0  0
 19 21  2  0  0  0  0
 21 22  1  0  0  0  0
 21 23  1  0  0  0  0
 23 24  1  0  0  0  0
 25 26  2  0  0  0  0
 25 27  1  0  0  0  0
 27 28  1  0  0  0  0
 27 29  1  0  0  0  0
 29 30  1  0  0  0  0
 29 31  1  0  0  0  0
 29 32  1  0  0  0  0
M  END
$$$$

  -OEChem-03222214073D

 32 32  0     1  0  0  0  0  0999 V2000
   -3.3632   -4.2820    0.6548 H   0  0  0  0  0  0  0  0  0  0  0  0
   -3.2163   -3.3619    0.0819 C   0  0  0  0  0  0  0  0  0  0  0  0
   -4.0084   -2.6561    0.3425 H   0  0  0  0  0  0  0  0  0  0  0  0
   -3.2813   -3.5982   -0.9828 H   0  0  0  0  0  0  0  0  0  0  0  0
   -1.8596   -2.7612    0.3996 C   0  0  0  0  0  0  0  0  0  0  0  0
   -1.1371   -3.3050    1.2141 O   0  0  0  0  0  0  0  0  0  0  0  0
   -1.4569   -1.6050   -0.2431 N   0  0  0  0  0  0  0  0  0  0  0  0
   -2.0746   -1.2497   -0.9666 H   0  0  0  0  0  0  0  0  0  0  0  0
   -0.1381   -0.9575   -0.0672 C   0  0  1  0  0  0  0  0  0  0  0  0
    0.6574   -1.6714   -0.3083 H   0  0  0  0  0  0  0  0  0  0  0  0
   -0.0993    0.1800   -1.1271 C   0  0  0  0  0  0  0  0  0  0  0  0
   -0.0254   -0.3138   -2.1016 H   0  0  0  0  0  0  0  0  0  0  0  0
   -1.0694    0.6866   -1.0963 H   0  0  0  0  0  0  0  0  0  0  0  0
    0.9317    1.3077   -1.0884 C   0  0  0  0  0  0  0  0  0  0  0  0
    1.3061    1.8528   -2.3319 C   0  0  0  0  0  0  0  0  0  0  0  0
    0.9093    1.4346   -3.2518 H   0  0  0  0  0  0  0  0  0  0  0  0
    2.1998    2.9241   -2.4265 C   0  0  0  0  0  0  0  0  0  0  0  0
    2.4857    3.3104   -3.4003 H   0  0  0  0  0  0  0  0  0  0  0  0
    2.7244    3.4974   -1.2690 C   0  0  0  0  0  0  0  0  0  0  0  0
    3.4224    4.3268   -1.3356 H   0  0  0  0  0  0  0  0  0  0  0  0
    2.3366    3.0062   -0.0228 C   0  0  0  0  0  0  0  0  0  0  0  0
    2.7276    3.4585    0.8840 H   0  0  0  0  0  0  0  0  0  0  0  0
    1.4389    1.9370    0.0681 C   0  0  0  0  0  0  0  0  0  0  0  0
    1.1586    1.6463    1.0699 H   0  0  0  0  0  0  0  0  0  0  0  0
    0.0854   -0.5453    1.4042 C   0  0  0  0  0  0  0  0  0  0  0  0
    1.1774   -0.7054    1.9343 O   0  0  0  0  0  0  0  0  0  0  0  0
   -0.9226    0.0841    2.1141 N   0  0  0  0  0  0  0  0  0  0  0  0
   -1.8407    0.0929    1.6836 H   0  0  0  0  0  0  0  0  0  0  0  0
   -0.8051    0.4099    3.5295 C   0  0  0  0  0  0  0  0  0  0  0  0
    0.0346    1.0925    3.6968 H   0  0  0  0  0  0  0  0  0  0  0  0
   -1.7194    0.8949    3.8841 H   0  0  0  0  0  0  0  0  0  0  0  0
   -0.6425   -0.4993    4.1179 H   0  0  0  0  0  0  0  0  0  0  0  0
  1  2  1  0  0  0  0
  2  3  1  0  0  0  0
  2  4  1  0  0  0  0
  2  5  1  0  0  0  0
  5  6  2  0  0  0  0
  5  7  1  0  0  0  0
  7  8  1  0  0  0  0
  7  9  1  0  0  0  0
  9 10  1  0  0  0  0
  9 11  1  0  0  0  0
  9 25  1  0  0  0  0
 11 12  1  0  0  0  0
 11 13  1  0  0  0  0
 11 14  1  0  0  0  0
 14 15  1  0  0  0  0
 14 23  2  0  0  0  0
 15 16  1  0  0  0  0
 15 17  2  0  0  0  0
 17 18  1  0  0  0  0
 17 19  1  0  0  0  0
 19 20  1  0  0  0  0
 19 21  2  0  0  0  0
 21 22  1  0  0  0  0
 21 23  1  0  0  0  0
 23 24  1  0  0  0  0
 25 26  2  0  0  0  0
 25 27  1  0  0  0  0
 27 28  1  0  0  0  0
 27 29  1  0  0  0  0
 29 30  1  0  0  0  0
 29 31  1  0  0  0  0
 29 32  1  0  0  0  0
M  END
$$$$

  -OEChem-03222214073D

 32 32  0     1  0  0  0  0  0999 V2000
   -3.3939   -4.2316    0.6744 H   0  0  0  0  0  0  0  0  0  0  0  0
   -3.2171   -3.3236    0.0906 C   0  0  0  0  0  0  0  0  0  0  0  0
   -3.9954   -2.5955    0.3305 H   0  0  0  0  0  0  0  0  0  0  0  0
   -3.2742   -3.5734   -0.9715 H   0  0  0  0  0  0  0  0  0  0  0  0
   -1.8501   -2.7516    0.4179 C   0  0  0  0  0  0  0  0  0  0  0  0
   -1.1463   -3.3101    1.2384 O   0  0  0  0  0  0  0  0  0  0  0  0
   -1.4116   -1.6150   -0.2361 N   0  0  0  0  0  0  0  0  0  0  0  0
   -2.0167   -1.2493   -0.9646 H   0  0  0  0  0  0  0  0  0  0  0  0
   -0.0926   -0.9751   -0.0310 C   0  0  1  0  0  0  0  0  0  0  0  0
    0.7157   -1.6829   -0.2465 H   0  0  0  0  0  0  0  0  0  0  0  0
   -0.0594    0.1673   -1.0857 C   0  0  0  0  0  0  0  0  0  0  0  0
    0.0285   -0.3226   -2.0611 H   0  0  0  0  0  0  0  0  0  0  0  0
   -1.0372    0.6597   -1.0580 H   0  0  0  0  0  0  0  0  0  0  0  0
    0.9495    1.3142   -1.0650 C   0  0  0  0  0  0  0  0  0  0  0  0
    1.0435    2.0610   -2.2548 C   0  0  0  0  0  0  0  0  0  0  0  0
    0.4155    1.8086   -3.1037 H   0  0  0  0  0  0  0  0  0  0  0  0
    1.9308    3.1340   -2.3824 C   0  0  0  0  0  0  0  0  0  0  0  0
    1.9817    3.6913   -3.3130 H   0  0  0  0  0  0  0  0  0  0  0  0
    2.7538    3.4868   -1.3139 C   0  0  0  0  0  0  0  0  0  0  0  0
    3.4475    4.3173   -1.4071 H   0  0  0  0  0  0  0  0  0  0  0  0
    2.6843    2.7613   -0.1246 C   0  0  0  0  0  0  0  0  0  0  0  0
    3.3260    3.0259    0.7110 H   0  0  0  0  0  0  0  0  0  0  0  0
    1.7960    1.6872   -0.0006 C   0  0  0  0  0  0  0  0  0  0  0  0
    1.8174    1.1757    0.9485 H   0  0  0  0  0  0  0  0  0  0  0  0
    0.0627   -0.5372    1.4451 C   0  0  0  0  0  0  0  0  0  0  0  0
    1.0861   -0.7957    2.0664 O   0  0  0  0  0  0  0  0  0  0  0  0
   -0.9720    0.1125    2.0960 N   0  0  0  0  0  0  0  0  0  0  0  0
   -1.8485    0.1928    1.5928 H   0  0  0  0  0  0  0  0  0  0  0  0
   -0.9429    0.4246    3.5192 C   0  0  0  0  0  0  0  0  0  0  0  0
   -0.0868    1.0660    3.7536 H   0  0  0  0  0  0  0  0  0  0  0  0
   -1.8569    0.9503    3.8105 H   0  0  0  0  0  0  0  0  0  0  0  0
   -0.8670   -0.4946    4.1095 H   0  0  0  0  0  0  0  0  0  0  0  0
  1  2  1  0  0  0  0
  2  3  1  0  0  0  0
  2  4  1  0  0  0  0
  2  5  1  0  0  0  0
  5  6  2  0  0  0  0
  5  7  1  0  0  0  0
  7  8  1  0  0  0  0
  7  9  1  0  0  0  0
  9 10  1  0  0  0  0
  9 11  1  0  0  0  0
  9 25  1  0  0  0  0
 11 12  1  0  0  0  0
 11 13  1  0  0  0  0
 11 14  1  0  0  0  0
 14 15  1  0  0  0  0
 14 23  2  0  0  0  0
 15 16  1  0  0  0  0
 15 17  2  0  0  0  0
 17 18  1  0  0  0  0
 17 19  1  0  0  0  0
 19 20  1  0  0  0  0
 19 21  2  0  0  0  0
 21 22  1  0  0  0  0
 21 23  1  0  0  0  0
 23 24  1  0  0  0  0
 25 26  2  0  0  0  0
 25 27  1  0  0  0  0
 27 28  1  0  0  0  0
 27 29  1  0  0  0  0
 29 30  1  0  0  0  0
 29 31  1  0  0  0  0
 29 32  1  0  0  0  0
M  END
$$$$
